
  -OEChem-04052317483D

 77 85  0     1  0  0  0  0  0999 V2000
  -17.4438  -25.4355   21.5092 C   0  0  0  0  0  0  0  0  0  0  0  0
  -18.7626  -25.1057   21.2137 C   0  0  0  0  0  0  0  0  0  0  0  0
  -24.9359  -14.2031   19.5246 C   0  0  0  0  0  0  0  0  0  0  0  0
  -26.4765  -12.7036   20.6269 C   0  0  0  0  0  0  0  0  0  0  0  0
  -17.1530  -26.6459   22.1371 C   0  0  0  0  0  0  0  0  0  0  0  0
  -19.7914  -25.9867   21.5450 C   0  0  0  0  0  0  0  0  0  0  0  0
  -23.7440  -23.6448   23.6751 C   0  0  0  0  0  0  0  0  0  0  0  0
  -24.0688  -13.1369   19.2860 C   0  0  0  0  0  0  0  0  0  0  0  0
  -25.6094  -11.6374   20.3883 C   0  0  0  0  0  0  0  0  0  0  0  0
  -24.6127  -22.9613   22.8255 C   0  0  0  0  0  0  0  0  0  0  0  0
  -23.6359   -8.5839   20.3880 C   0  0  0  0  0  0  0  0  0  0  0  0
  -23.3928   -7.6975   21.4372 C   0  0  0  0  0  0  0  0  0  0  0  0
  -26.1450  -24.8227   22.9045 C   0  0  0  0  0  0  0  0  0  0  0  0
  -22.5140   -9.5130   22.7672 C   0  0  0  0  0  0  0  0  0  0  0  0
  -29.3689  -22.2042   18.2258 C   0  0  0  0  0  0  0  0  0  0  0  0
  -26.1398  -13.9864   20.1949 C   0  0  0  0  0  0  0  0  0  0  0  0
  -27.0547  -15.9332   21.5663 C   0  0  0  0  0  0  0  0  0  0  0  0
  -18.1797  -27.5379   22.4850 C   0  0  0  0  0  0  0  0  0  0  0  0
  -24.0648  -24.9291   24.1379 C   0  0  0  0  0  0  0  0  0  0  0  0
  -19.5140  -27.2108   22.1769 C   0  0  0  0  0  0  0  0  0  0  0  0
  -25.2799  -25.5194   23.7620 C   0  0  0  0  0  0  0  0  0  0  0  0
  -24.4055  -11.8540   19.7179 C   0  0  0  0  0  0  0  0  0  0  0  0
  -25.8121  -23.5513   22.4377 C   0  0  0  0  0  0  0  0  0  0  0  0
  -23.3182   -9.9348   20.5284 C   0  0  0  0  0  0  0  0  0  0  0  0
  -22.8318   -8.1621   22.6268 C   0  0  0  0  0  0  0  0  0  0  0  0
  -22.7572  -10.3994   21.7180 C   0  0  0  0  0  0  0  0  0  0  0  0
  -27.0362  -15.0873   20.4412 C   0  0  0  0  0  0  0  0  0  0  0  0
  -30.0305  -21.1094   18.7198 C   0  0  0  0  0  0  0  0  0  0  0  0
  -28.0840  -16.8088   21.3207 C   0  0  0  0  0  0  0  0  0  0  0  0
  -28.6539  -22.6752   20.3155 C   0  0  0  0  0  0  0  0  0  0  0  0
  -26.2165  -15.9279   22.7295 C   0  0  0  0  0  0  0  0  0  0  0  0
  -30.8099  -20.2122   17.8570 C   0  0  0  0  0  0  0  0  0  0  0  0
  -22.7559  -27.8109   23.8451 C   0  0  0  0  0  0  0  0  0  0  0  0
  -25.0782  -28.6511   25.9483 C   0  0  0  0  0  0  0  0  0  0  0  0
  -28.1427  -27.9904   27.2970 C   0  0  0  0  0  0  0  0  0  0  0  0
  -17.8122  -28.8556   23.1200 C   0  0  0  0  0  0  0  0  0  0  0  0
  -23.1294  -25.6422   25.0753 C   0  0  0  0  0  0  0  0  0  0  0  0
  -25.6804  -26.8878   24.2473 C   0  0  0  0  0  0  0  0  0  0  0  0
  -18.9935  -29.5662   23.7757 C   0  0  0  0  0  0  0  0  0  0  0  0
  -31.6969  -16.7554   17.7821 C   0  0  0  0  0  0  0  0  0  0  0  0
  -20.2026  -29.5612   22.8457 C   0  0  0  0  0  0  0  0  0  0  0  0
  -30.5559  -16.0772   18.5425 C   0  0  0  0  0  0  0  0  0  0  0  0
  -31.1996  -17.9419   16.9603 C   0  0  0  0  0  0  0  0  0  0  0  0
  -29.2904  -18.2674   18.4946 C   0  0  0  0  0  0  0  0  0  0  0  0
  -20.6598  -28.1291   22.5429 C   0  0  1  0  0  0  0  0  0  0  0  0
  -23.3208  -27.1557   25.0737 C   0  0  1  0  0  0  0  0  0  0  0  0
  -29.7572  -17.0972   19.3758 C   0  0  1  0  0  0  0  0  0  0  0  0
  -29.7920  -28.8763   28.9680 C   0  0  0  0  0  0  0  0  0  0  0  0
  -25.8999  -30.8311   23.9780 C   0  0  0  0  0  0  0  0  0  0  0  0
  -28.0664  -31.0361   25.2159 C   0  0  0  0  0  0  0  0  0  0  0  0
  -25.9160  -31.5341   26.3780 C   0  0  0  0  0  0  0  0  0  0  0  0
  -27.9849  -25.5283   28.9316 C   0  0  0  0  0  0  0  0  0  0  0  0
  -27.8731  -23.5507   21.2511 C   0  0  0  0  0  0  0  0  0  1  0  0
  -26.5027  -29.1366   25.8304 C   0  0  1  0  0  0  0  0  0  0  0  0
  -28.6189  -27.9364   28.7374 C   0  0  2  0  0  0  0  0  0  0  0  0
  -26.5881  -30.6095   25.3397 C   0  0  0  0  0  0  0  0  0  0  0  0
  -28.6586  -23.0203   19.0193 N   0  0  0  0  0  0  0  0  0  0  0  0
  -27.9787  -15.3977   19.5471 N   0  0  0  0  0  0  0  0  0  0  0  0
  -29.9895  -20.8129   20.0315 N   0  0  0  0  0  0  0  0  0  0  0  0
  -29.2839  -21.6139   20.8567 N   0  0  0  0  0  0  0  0  0  0  0  0
  -28.5991  -16.4484   20.1103 N   0  0  0  0  0  0  0  0  0  0  0  0
  -30.4366  -18.8674   17.7970 N   0  0  0  0  0  0  0  0  0  0  0  0
  -24.7293  -27.5474   25.1572 N   0  0  0  0  0  0  0  0  0  0  0  0
  -28.5896  -17.8442   22.0240 N   0  0  0  0  0  0  0  0  0  0  0  0
  -25.2073  -14.9597   22.8214 N   0  0  0  0  0  0  0  0  0  0  0  0
  -21.4045  -27.5895   23.6603 N   0  0  0  0  0  0  0  0  0  0  0  0
  -27.1226  -28.9029   27.1302 N   0  0  0  0  0  0  0  0  0  0  0  0
  -29.0484  -26.5534   29.0895 N   0  3  0  0  0  0  0  0  0  0  0  0
  -26.3478  -16.7674   23.6523 O   0  0  0  0  0  0  0  0  0  0  0  0
  -31.7533  -20.7218   17.2542 O   0  0  0  0  0  0  0  0  0  0  0  0
  -23.4914  -28.4697   23.1194 O   0  0  0  0  0  0  0  0  0  0  0  0
  -24.3055  -29.2253   26.7196 O   0  0  0  0  0  0  0  0  0  0  0  0
  -28.6297  -27.2954   26.4079 O   0  0  0  0  0  0  0  0  0  0  0  0
  -23.5595  -10.8134   19.4855 O   0  0  0  0  0  0  0  0  0  0  0  0
  -26.6615  -22.8866   21.6079 O   0  0  0  0  0  0  0  0  0  1  0  0
  -22.5969   -7.3105   23.6337 F   0  0  0  0  0  0  0  0  0  0  0  0
  -22.4488  -11.6959   21.8583 F   0  0  0  0  0  0  0  0  0  0  0  0
  1  2  1  0  0  0  0
  1  5  2  0  0  0  0
  2  6  2  0  0  0  0
  3  8  2  0  0  0  0
  3 16  1  0  0  0  0
  4  9  1  0  0  0  0
  4 16  2  0  0  0  0
  5 18  1  0  0  0  0
  6 20  1  0  0  0  0
  7 10  2  0  0  0  0
  7 19  1  0  0  0  0
  8 22  1  0  0  0  0
  9 22  2  0  0  0  0
 10 23  1  0  0  0  0
 11 12  2  0  0  0  0
 11 24  1  0  0  0  0
 12 25  1  0  0  0  0
 13 21  1  0  0  0  0
 13 23  2  0  0  0  0
 14 25  2  0  0  0  0
 14 26  1  0  0  0  0
 15 28  1  0  0  0  0
 15 57  2  0  0  0  0
 16 27  1  0  0  0  0
 17 27  1  0  0  0  0
 17 29  2  0  0  0  0
 17 31  1  0  0  0  0
 18 20  2  0  0  0  0
 18 36  1  0  0  0  0
 19 21  2  0  0  0  0
 19 37  1  0  0  0  0
 20 45  1  0  0  0  0
 21 38  1  0  0  0  0
 22 74  1  0  0  0  0
 23 75  1  0  0  0  0
 24 26  2  0  0  0  0
 24 74  1  0  0  0  0
 25 76  1  0  0  0  0
 26 77  1  0  0  0  0
 27 58  2  0  0  0  0
 28 32  1  0  0  0  0
 28 59  2  0  0  0  0
 29 61  1  0  0  0  0
 29 64  1  0  0  0  0
 30 53  1  0  0  0  0
 30 57  1  0  0  0  0
 30 60  2  0  0  0  0
 31 65  1  0  0  0  0
 31 69  2  0  0  0  0
 32 62  1  0  0  0  0
 32 70  2  0  0  0  0
 33 46  1  0  0  0  0
 33 66  1  0  0  0  0
 33 71  2  0  0  0  0
 34 54  1  0  0  0  0
 34 63  1  0  0  0  0
 34 72  2  0  0  0  0
 35 55  1  0  0  0  0
 35 67  1  0  0  0  0
 35 73  2  0  0  0  0
 36 39  1  0  0  0  0
 37 46  1  0  0  0  0
 38 63  1  0  0  0  0
 39 41  1  0  0  0  0
 40 42  1  0  0  0  0
 40 43  1  0  0  0  0
 41 45  1  0  0  0  0
 42 47  1  0  0  0  0
 43 62  1  0  0  0  0
 44 47  1  0  0  0  0
 44 62  1  0  0  0  0
 45 66  1  0  0  0  0
 46 63  1  0  0  0  0
 47 61  1  0  0  0  0
 48 55  1  0  0  0  0
 49 56  1  0  0  0  0
 50 56  1  0  0  0  0
 51 56  1  0  0  0  0
 52 68  1  0  0  0  0
 53 75  1  0  0  0  0
 54 56  1  0  0  0  0
 54 67  1  0  0  0  0
 55 68  1  0  0  0  0
 58 61  1  0  0  0  0
 59 60  1  0  0  0  0
M  CHG  1  68   1
M  ISO  4  28 100  32 100  53 101  75 101
M  END
> <Batch ID>
0057

> <Smiles>
CNC(C)C(=O)NC(C(=O)N1Cc2cc([101O:1][101CH2:1]c3nc[100c:0]([100C:0](=O)N4CCCC(n5nc(-c6ccc(Oc7ccc(F)cc7F)cc6)c(C(N)=O)c5N)C4)nn3)ccc2CC1C(=O)NC1CCCc2ccccc21)C(C)(C)C

> <Shape>
0.232

> <Color>
0.101

> <Negative vol penalty>
0.000

$$$$

  -OEChem-04052317483D

 83 91  0     1  0  0  0  0  0999 V2000
  -34.1613  -27.7421   16.5648 C   0  0  0  0  0  0  0  0  0  0  0  0
  -32.9831  -27.0471   16.3114 C   0  0  0  0  0  0  0  0  0  0  0  0
  -26.0413  -13.7923   21.2080 C   0  0  0  0  0  0  0  0  0  0  0  0
  -25.0310  -14.7079   19.2135 C   0  0  0  0  0  0  0  0  0  0  0  0
  -34.5546  -27.9891   17.8794 C   0  0  0  0  0  0  0  0  0  0  0  0
  -32.1980  -26.5977   17.3726 C   0  0  0  0  0  0  0  0  0  0  0  0
  -27.2673  -27.5092   16.6636 C   0  0  0  0  0  0  0  0  0  0  0  0
  -24.9335  -12.9643   21.3890 C   0  0  0  0  0  0  0  0  0  0  0  0
  -23.9232  -13.8799   19.3945 C   0  0  0  0  0  0  0  0  0  0  0  0
  -26.5793  -26.6553   15.8026 C   0  0  0  0  0  0  0  0  0  0  0  0
  -22.5324  -10.3508   22.1762 C   0  0  0  0  0  0  0  0  0  0  0  0
  -22.7675   -9.0154   22.5031 C   0  0  0  0  0  0  0  0  0  0  0  0
  -25.7055  -25.4531   17.7027 C   0  0  0  0  0  0  0  0  0  0  0  0
  -23.9918   -8.7259   20.4406 C   0  0  0  0  0  0  0  0  0  0  0  0
  -28.2678  -22.9695   15.4646 C   0  0  0  0  0  0  0  0  0  0  0  0
  -26.0900  -14.6642   20.1203 C   0  0  0  0  0  0  0  0  0  0  0  0
  -28.4038  -15.2288   19.2064 C   0  0  0  0  0  0  0  0  0  0  0  0
  -33.7690  -27.5510   18.9571 C   0  0  0  0  0  0  0  0  0  0  0  0
  -27.1881  -27.3344   18.0527 C   0  0  0  0  0  0  0  0  0  0  0  0
  -32.5818  -26.8379   18.7029 C   0  0  0  0  0  0  0  0  0  0  0  0
  -26.3914  -26.3077   18.5793 C   0  0  0  0  0  0  0  0  0  0  0  0
  -23.8745  -13.0080   20.4823 C   0  0  0  0  0  0  0  0  0  0  0  0
  -25.8006  -25.6253   16.3220 C   0  0  0  0  0  0  0  0  0  0  0  0
  -23.0270  -10.8738   20.9813 C   0  0  0  0  0  0  0  0  0  0  0  0
  -23.4972   -8.2029   21.6354 C   0  0  0  0  0  0  0  0  0  0  0  0
  -23.7567  -10.0613   20.1136 C   0  0  0  0  0  0  0  0  0  0  0  0
  -27.2338  -15.5202   19.9330 C   0  0  0  0  0  0  0  0  0  0  0  0
  -29.1997  -22.0658   16.0092 C   0  0  0  0  0  0  0  0  0  0  0  0
  -27.4048  -22.1804   14.7442 C   0  0  0  0  0  0  0  0  0  0  0  0
  -29.1763  -16.3575   19.3323 C   0  0  0  0  0  0  0  0  0  0  0  0
  -28.7605  -14.0438   18.4823 C   0  0  0  0  0  0  0  0  0  0  0  0
  -29.2800  -26.6758   20.3536 C   0  0  0  0  0  0  0  0  0  0  0  0
  -26.7257  -27.1880   22.2862 C   0  0  0  0  0  0  0  0  0  0  0  0
  -23.3327  -27.2530   22.6473 C   0  0  0  0  0  0  0  0  0  0  0  0
  -29.2536  -22.0348   19.0504 C   0  0  0  0  0  0  0  0  0  0  0  0
  -34.2593  -27.8004   20.3615 C   0  0  0  0  0  0  0  0  0  0  0  0
  -27.9149  -28.2804   18.9688 C   0  0  0  0  0  0  0  0  0  0  0  0
  -26.2569  -26.0901   20.0635 C   0  0  0  0  0  0  0  0  0  0  0  0
  -33.1797  -27.6172   21.4251 C   0  0  0  0  0  0  0  0  0  0  0  0
  -28.6719  -20.3975   22.3188 C   0  0  0  0  0  0  0  0  0  0  0  0
  -32.4059  -26.3251   21.1832 C   0  0  0  0  0  0  0  0  0  0  0  0
  -28.2734  -18.9791   21.9146 C   0  0  0  0  0  0  0  0  0  0  0  0
  -28.3067  -21.4172   21.2444 C   0  0  0  0  0  0  0  0  0  0  0  0
  -28.4547  -19.6772   19.4938 C   0  0  0  0  0  0  0  0  0  0  0  0
  -31.6907  -26.3560   19.8270 C   0  0  1  0  0  0  0  0  0  0  0  0
  -28.1733  -27.6921   20.3524 C   0  0  1  0  0  0  0  0  0  0  0  0
  -28.8509  -18.6193   20.5346 C   0  0  2  0  0  0  0  0  0  0  0  0
  -32.5992  -21.8821   19.0147 C   0  0  0  0  0  0  0  0  0  0  0  0
  -21.5410  -27.6695   24.3542 C   0  0  0  0  0  0  0  0  0  0  0  0
  -27.2702  -24.4518   23.5218 C   0  0  0  0  0  0  0  0  0  0  0  0
  -24.9666  -24.5127   24.5005 C   0  0  0  0  0  0  0  0  0  0  0  0
  -26.6474  -26.2325   25.1636 C   0  0  0  0  0  0  0  0  0  0  0  0
  -27.2781  -19.7058   14.3263 C   0  0  0  0  0  0  0  0  0  0  0  0
  -22.2250  -29.5206   21.1013 C   0  0  0  0  0  0  0  0  0  0  0  0
  -30.3533  -22.3764   16.8702 C   0  0  0  0  0  0  0  0  0  0  0  0
  -26.1898  -22.5338   13.9243 C   0  0  0  0  0  0  0  0  0  0  0  0
  -24.8846  -22.5278   14.7230 C   0  0  0  0  0  0  0  0  0  0  0  0
  -31.4895  -20.9641   18.5435 C   0  0  0  0  0  0  0  0  0  0  0  0
  -24.9135  -23.4531   15.9339 C   0  0  0  0  0  0  0  0  0  1  0  0
  -25.6243  -26.3254   22.8535 C   0  0  1  0  0  0  0  0  0  0  0  0
  -22.4049  -28.2842   23.2641 C   0  0  2  0  0  0  0  0  0  0  0  0
  -26.1310  -25.3832   23.9818 C   0  0  0  0  0  0  0  0  0  0  0  0
  -27.2566  -16.7384   20.4802 N   0  0  0  0  0  0  0  0  0  0  0  0
  -28.9520  -20.7994   15.6645 N   0  0  0  0  0  0  0  0  0  0  0  0
  -27.8546  -20.9017   14.8955 N   0  0  0  0  0  0  0  0  0  0  0  0
  -28.4504  -17.2225   20.0972 N   0  0  0  0  0  0  0  0  0  0  0  0
  -26.9919  -27.0375   20.9179 N   0  0  0  0  0  0  0  0  0  0  0  0
  -28.8312  -21.0286   19.9348 N   0  0  0  0  0  0  0  0  0  0  0  0
  -30.3988  -16.6845   18.8623 N   0  0  0  0  0  0  0  0  0  0  0  0
  -27.8505  -12.9782   18.4550 N   0  0  0  0  0  0  0  0  0  0  0  0
  -30.4927  -27.1641   19.9058 N   0  0  0  0  0  0  0  0  0  0  0  0
  -24.5638  -27.2375   23.2680 N   0  0  0  0  0  0  0  0  0  0  0  0
  -30.2931  -21.7128   18.1647 N   0  0  0  0  0  0  0  0  0  0  0  0
  -21.5081  -28.8623   22.2237 N   0  3  0  0  0  0  0  0  0  0  0  0
  -29.8607  -13.9269   17.8912 O   0  0  0  0  0  0  0  0  0  0  0  0
  -29.0511  -25.5337   20.7340 O   0  0  0  0  0  0  0  0  0  0  0  0
  -27.3228  -27.9718   23.0283 O   0  0  0  0  0  0  0  0  0  0  0  0
  -22.9974  -26.5308   21.7111 O   0  0  0  0  0  0  0  0  0  0  0  0
  -28.7378  -23.1599   19.0589 O   0  0  0  0  0  0  0  0  0  0  0  0
  -22.7934  -12.2000   20.6585 O   0  0  0  0  0  0  0  0  0  0  0  0
  -25.1286  -24.7901   15.4837 O   0  0  0  0  0  0  0  0  0  1  0  0
  -23.7242   -6.9209   21.9502 F   0  0  0  0  0  0  0  0  0  0  0  0
  -24.2354  -10.5584   18.9648 F   0  0  0  0  0  0  0  0  0  0  0  0
  1  2  1  0  0  0  0
  1  5  2  0  0  0  0
  2  6  2  0  0  0  0
  3  8  2  0  0  0  0
  3 16  1  0  0  0  0
  4  9  1  0  0  0  0
  4 16  2  0  0  0  0
  5 18  1  0  0  0  0
  6 20  1  0  0  0  0
  7 10  2  0  0  0  0
  7 19  1  0  0  0  0
  8 22  1  0  0  0  0
  9 22  2  0  0  0  0
 10 23  1  0  0  0  0
 11 12  2  0  0  0  0
 11 24  1  0  0  0  0
 12 25  1  0  0  0  0
 13 21  1  0  0  0  0
 13 23  2  0  0  0  0
 14 25  2  0  0  0  0
 14 26  1  0  0  0  0
 15 28  1  0  0  0  0
 15 29  2  0  0  0  0
 16 27  1  0  0  0  0
 17 27  1  0  0  0  0
 17 30  2  0  0  0  0
 17 31  1  0  0  0  0
 18 20  2  0  0  0  0
 18 36  1  0  0  0  0
 19 21  2  0  0  0  0
 19 37  1  0  0  0  0
 20 45  1  0  0  0  0
 21 38  1  0  0  0  0
 22 80  1  0  0  0  0
 23 81  1  0  0  0  0
 24 26  2  0  0  0  0
 24 80  1  0  0  0  0
 25 82  1  0  0  0  0
 26 83  1  0  0  0  0
 27 63  2  0  0  0  0
 28 55  1  0  0  0  0
 28 64  2  0  0  0  0
 29 56  1  0  0  0  0
 29 65  1  0  0  0  0
 30 66  1  0  0  0  0
 30 69  1  0  0  0  0
 31 70  1  0  0  0  0
 31 75  2  0  0  0  0
 32 46  1  0  0  0  0
 32 71  1  0  0  0  0
 32 76  2  0  0  0  0
 33 60  1  0  0  0  0
 33 67  1  0  0  0  0
 33 77  2  0  0  0  0
 34 61  1  0  0  0  0
 34 72  1  0  0  0  0
 34 78  2  0  0  0  0
 35 68  1  0  0  0  0
 35 73  1  0  0  0  0
 35 79  2  0  0  0  0
 36 39  1  0  0  0  0
 37 46  1  0  0  0  0
 38 67  1  0  0  0  0
 39 41  1  0  0  0  0
 40 42  1  0  0  0  0
 40 43  1  0  0  0  0
 41 45  1  0  0  0  0
 42 47  1  0  0  0  0
 43 68  1  0  0  0  0
 44 47  1  0  0  0  0
 44 68  1  0  0  0  0
 45 71  1  0  0  0  0
 46 67  1  0  0  0  0
 47 66  1  0  0  0  0
 48 58  1  0  0  0  0
 49 61  1  0  0  0  0
 50 62  1  0  0  0  0
 51 62  1  0  0  0  0
 52 62  1  0  0  0  0
 53 65  1  0  0  0  0
 54 74  1  0  0  0  0
 55 73  1  0  0  0  0
 56 57  1  0  0  0  0
 57 59  1  0  0  0  0
 58 73  1  0  0  0  0
 59 81  1  0  0  0  0
 60 62  1  0  0  0  0
 60 72  1  0  0  0  0
 61 74  1  0  0  0  0
 63 66  1  0  0  0  0
 64 65  1  0  0  0  0
M  CHG  1  74   1
M  ISO  4  35 100  59 101  73 100  81 101
M  END
> <Batch ID>
0057

> <Smiles>
CC[100N:0](Cc1cc(CC[101CH2:1][101O:1]c2ccc3c(c2)CN(C(=O)C(NC(=O)C(C)NC)C(C)(C)C)C(C(=O)NC2CCCc4ccccc42)C3)n(C)n1)[100C:0](=O)N1CCCC(n2nc(-c3ccc(Oc4ccc(F)cc4F)cc3)c(C(N)=O)c2N)C1

> <Shape>
0.211

> <Color>
0.059

> <Negative vol penalty>
0.000

$$$$

  -OEChem-04052317483D

 78 86  0     1  0  0  0  0  0999 V2000
  -16.8693  -31.0063   23.2110 C   0  0  0  0  0  0  0  0  0  0  0  0
  -17.9876  -31.4334   22.5022 C   0  0  0  0  0  0  0  0  0  0  0  0
  -31.6236  -18.1641   19.4560 C   0  0  0  0  0  0  0  0  0  0  0  0
  -29.5046  -17.6975   20.5188 C   0  0  0  0  0  0  0  0  0  0  0  0
  -16.9956  -30.0045   24.1725 C   0  0  0  0  0  0  0  0  0  0  0  0
  -19.2331  -30.8597   22.7552 C   0  0  0  0  0  0  0  0  0  0  0  0
  -25.3413  -29.0952   19.4548 C   0  0  0  0  0  0  0  0  0  0  0  0
  -31.9632  -16.8138   19.5403 C   0  0  0  0  0  0  0  0  0  0  0  0
  -29.8442  -16.3472   20.6030 C   0  0  0  0  0  0  0  0  0  0  0  0
  -26.7191  -29.2726   19.5723 C   0  0  0  0  0  0  0  0  0  0  0  0
  -29.9126  -13.6649   18.5485 C   0  0  0  0  0  0  0  0  0  0  0  0
  -28.9419  -12.7304   18.1880 C   0  0  0  0  0  0  0  0  0  0  0  0
  -26.8032  -27.4943   21.2001 C   0  0  0  0  0  0  0  0  0  0  0  0
  -29.0284  -11.7837   20.4091 C   0  0  0  0  0  0  0  0  0  0  0  0
  -34.2427  -25.6499   20.3430 C   0  0  0  0  0  0  0  0  0  0  0  0
  -33.3028  -26.4090   18.5905 C   0  0  0  0  0  0  0  0  0  0  0  0
  -30.3943  -18.6059   19.9453 C   0  0  0  0  0  0  0  0  0  0  0  0
  -29.3714  -20.6445   18.8027 C   0  0  0  0  0  0  0  0  0  0  0  0
  -18.2415  -29.4115   24.4306 C   0  0  0  0  0  0  0  0  0  0  0  0
  -24.6813  -28.1217   20.2185 C   0  0  0  0  0  0  0  0  0  0  0  0
  -19.3764  -29.8500   23.7220 C   0  0  0  0  0  0  0  0  0  0  0  0
  -25.4173  -27.3048   21.0886 C   0  0  0  0  0  0  0  0  0  0  0  0
  -31.0735  -15.9054   20.1137 C   0  0  0  0  0  0  0  0  0  0  0  0
  -27.4499  -28.4740   20.4471 C   0  0  0  0  0  0  0  0  0  0  0  0
  -30.4413  -13.6588   19.8393 C   0  0  0  0  0  0  0  0  0  0  0  0
  -28.4997  -11.7898   19.1183 C   0  0  0  0  0  0  0  0  0  0  0  0
  -29.9992  -12.7182   20.7696 C   0  0  0  0  0  0  0  0  0  0  0  0
  -30.0432  -20.0007   19.8591 C   0  0  0  0  0  0  0  0  0  0  0  0
  -32.9774  -26.0191   20.7350 C   0  0  0  0  0  0  0  0  0  0  0  0
  -29.2816  -21.9558   19.2013 C   0  0  0  0  0  0  0  0  0  0  0  0
  -28.8730  -20.1053   17.5712 C   0  0  0  0  0  0  0  0  0  0  0  0
  -32.3539  -25.9321   22.0618 C   0  0  0  0  0  0  0  0  0  0  0  0
  -22.4107  -28.1743   22.4423 C   0  0  0  0  0  0  0  0  0  0  0  0
  -22.6006  -24.9486   22.1575 C   0  0  0  0  0  0  0  0  0  0  0  0
  -24.4548  -22.2219   21.2778 C   0  0  0  0  0  0  0  0  0  0  0  0
  -18.3372  -28.3653   25.5127 C   0  0  0  0  0  0  0  0  0  0  0  0
  -23.1985  -27.9249   20.0604 C   0  0  0  0  0  0  0  0  0  0  0  0
  -24.7593  -26.2319   21.9158 C   0  0  0  0  0  0  0  0  0  0  0  0
  -19.6244  -27.5466   25.4563 C   0  0  0  0  0  0  0  0  0  0  0  0
  -29.5331  -24.3173   23.5375 C   0  0  0  0  0  0  0  0  0  0  0  0
  -20.8311  -28.4613   25.2715 C   0  0  0  0  0  0  0  0  0  0  0  0
  -29.3203  -23.0891   22.6508 C   0  0  0  0  0  0  0  0  0  0  0  0
  -31.0150  -24.6483   23.6956 C   0  0  0  0  0  0  0  0  0  0  0  0
  -31.5357  -23.5771   21.5308 C   0  0  0  0  0  0  0  0  0  0  0  0
  -20.7399  -29.2347   23.9506 C   0  0  1  0  0  0  0  0  0  0  0  0
  -22.5535  -27.2494   21.2667 C   0  0  1  0  0  0  0  0  0  0  0  0
  -30.0529  -23.2395   21.3043 C   0  0  1  0  0  0  0  0  0  0  0  0
  -24.3546  -19.7160   21.1920 C   0  0  0  0  0  0  0  0  0  0  0  0
  -23.0097  -24.8313   25.1789 C   0  0  0  0  0  0  0  0  0  0  0  0
  -23.8361  -22.4838   24.9057 C   0  0  0  0  0  0  0  0  0  0  0  0
  -21.4969  -23.0637   24.2616 C   0  0  0  0  0  0  0  0  0  0  0  0
  -24.8229  -22.1919   18.3413 C   0  0  0  0  0  0  0  0  0  0  0  0
  -30.9176  -28.5743   19.4483 C   0  0  0  0  0  0  0  0  0  0  0  0
  -30.9866  -27.0458   19.4713 C   0  0  0  0  0  0  0  0  0  0  0  0
  -29.4926  -29.1142   19.4110 C   0  0  0  0  0  0  0  0  0  1  0  0
  -23.4139  -23.8629   22.8199 C   0  0  1  0  0  0  0  0  0  0  0  0
  -24.1222  -21.0095   20.4269 C   0  0  2  0  0  0  0  0  0  0  0  0
  -22.9515  -23.5819   24.2775 C   0  0  0  0  0  0  0  0  0  0  0  0
  -34.4389  -25.8953   19.0070 N   0  0  0  0  0  0  0  0  0  0  0  0
  -30.3580  -20.8344   20.8541 N   0  0  0  0  0  0  0  0  0  0  0  0
  -32.3875  -26.5034   19.6016 N   0  0  0  0  0  0  0  0  0  0  0  0
  -29.8820  -22.0155   20.4245 N   0  0  0  0  0  0  0  0  0  0  0  0
  -31.6617  -24.7636   22.3890 N   0  0  0  0  0  0  0  0  0  0  0  0
  -23.3064  -26.0824   21.7307 N   0  0  0  0  0  0  0  0  0  0  0  0
  -28.7486  -23.0521   18.6213 N   0  0  0  0  0  0  0  0  0  0  0  0
  -29.0494  -18.7377   17.3207 N   0  0  0  0  0  0  0  0  0  0  0  0
  -21.1035  -28.3818   22.8393 N   0  0  0  0  0  0  0  0  0  0  0  0
  -23.3436  -22.7038   21.9367 N   0  0  0  0  0  0  0  0  0  0  0  0
  -24.9691  -20.9891   19.2008 N   0  3  0  0  0  0  0  0  0  0  0  0
  -28.3031  -20.8186   16.7109 O   0  0  0  0  0  0  0  0  0  0  0  0
  -32.4823  -26.9164   22.7882 O   0  0  0  0  0  0  0  0  0  0  0  0
  -23.4124  -28.6623   22.9523 O   0  0  0  0  0  0  0  0  0  0  0  0
  -21.3849  -24.7933   22.0173 O   0  0  0  0  0  0  0  0  0  0  0  0
  -25.5878  -22.6921   21.3534 O   0  0  0  0  0  0  0  0  0  0  0  0
  -31.4044  -14.5877   20.1959 O   0  0  0  0  0  0  0  0  0  0  0  0
  -28.7948  -28.6455   20.5642 O   0  0  0  0  0  0  0  0  0  1  0  0
  -27.5664  -10.8934   18.7724 F   0  0  0  0  0  0  0  0  0  0  0  0
  -30.5025  -12.7081   22.0115 F   0  0  0  0  0  0  0  0  0  0  0  0
  1  2  1  0  0  0  0
  1  5  2  0  0  0  0
  2  6  2  0  0  0  0
  3  8  2  0  0  0  0
  3 17  1  0  0  0  0
  4  9  1  0  0  0  0
  4 17  2  0  0  0  0
  5 19  1  0  0  0  0
  6 21  1  0  0  0  0
  7 10  2  0  0  0  0
  7 20  1  0  0  0  0
  8 23  1  0  0  0  0
  9 23  2  0  0  0  0
 10 24  1  0  0  0  0
 11 12  2  0  0  0  0
 11 25  1  0  0  0  0
 12 26  1  0  0  0  0
 13 22  1  0  0  0  0
 13 24  2  0  0  0  0
 14 26  2  0  0  0  0
 14 27  1  0  0  0  0
 15 29  2  0  0  0  0
 15 59  1  0  0  0  0
 16 59  2  0  0  0  0
 16 61  1  0  0  0  0
 17 28  1  0  0  0  0
 18 28  1  0  0  0  0
 18 30  2  0  0  0  0
 18 31  1  0  0  0  0
 19 21  2  0  0  0  0
 19 36  1  0  0  0  0
 20 22  2  0  0  0  0
 20 37  1  0  0  0  0
 21 45  1  0  0  0  0
 22 38  1  0  0  0  0
 23 75  1  0  0  0  0
 24 76  1  0  0  0  0
 25 27  2  0  0  0  0
 25 75  1  0  0  0  0
 26 77  1  0  0  0  0
 27 78  1  0  0  0  0
 28 60  2  0  0  0  0
 29 32  1  0  0  0  0
 29 61  1  0  0  0  0
 30 62  1  0  0  0  0
 30 65  1  0  0  0  0
 31 66  1  0  0  0  0
 31 70  2  0  0  0  0
 32 63  1  0  0  0  0
 32 71  2  0  0  0  0
 33 46  1  0  0  0  0
 33 67  1  0  0  0  0
 33 72  2  0  0  0  0
 34 56  1  0  0  0  0
 34 64  1  0  0  0  0
 34 73  2  0  0  0  0
 35 57  1  0  0  0  0
 35 68  1  0  0  0  0
 35 74  2  0  0  0  0
 36 39  1  0  0  0  0
 37 46  1  0  0  0  0
 38 64  1  0  0  0  0
 39 41  1  0  0  0  0
 40 42  1  0  0  0  0
 40 43  1  0  0  0  0
 41 45  1  0  0  0  0
 42 47  1  0  0  0  0
 43 63  1  0  0  0  0
 44 47  1  0  0  0  0
 44 63  1  0  0  0  0
 45 67  1  0  0  0  0
 46 64  1  0  0  0  0
 47 62  1  0  0  0  0
 48 57  1  0  0  0  0
 49 58  1  0  0  0  0
 50 58  1  0  0  0  0
 51 58  1  0  0  0  0
 52 69  1  0  0  0  0
 53 54  1  0  0  0  0
 53 55  1  0  0  0  0
 54 61  1  0  0  0  0
 55 76  1  0  0  0  0
 56 58  1  0  0  0  0
 56 68  1  0  0  0  0
 57 69  1  0  0  0  0
 60 62  1  0  0  0  0
M  CHG  1  69   1
M  ISO  4  29 100  32 100  55 101  76 101
M  END
> <Batch ID>
0057

> <Smiles>
CNC(C)C(=O)NC(C(=O)N1Cc2cc([101O:1][101CH2:1]CCn3cnc[100c:0]3[100C:0](=O)N3CCCC(n4nc(-c5ccc(Oc6ccc(F)cc6F)cc5)c(C(N)=O)c4N)C3)ccc2CC1C(=O)NC1CCCc2ccccc21)C(C)(C)C

> <Shape>
0.206

> <Color>
0.103

> <Negative vol penalty>
0.000

$$$$

  -OEChem-04052317483D

 85 93  0     1  0  0  0  0  0999 V2000
  -30.0654  -23.3747   12.6081 C   0  0  0  0  0  0  0  0  0  0  0  0
  -29.6402  -22.8478   13.8235 C   0  0  0  0  0  0  0  0  0  0  0  0
  -23.3450   -9.7406   19.9498 C   0  0  0  0  0  0  0  0  0  0  0  0
  -23.8296   -9.9986   22.3026 C   0  0  0  0  0  0  0  0  0  0  0  0
  -30.5244  -24.6896   12.5421 C   0  0  0  0  0  0  0  0  0  0  0  0
  -29.6748  -23.6352   14.9738 C   0  0  0  0  0  0  0  0  0  0  0  0
  -25.4437  -23.2378   17.7279 C   0  0  0  0  0  0  0  0  0  0  0  0
  -22.6717   -8.5491   20.2191 C   0  0  0  0  0  0  0  0  0  0  0  0
  -23.1562   -8.8071   22.5719 C   0  0  0  0  0  0  0  0  0  0  0  0
  -25.3043  -22.0992   18.5202 C   0  0  0  0  0  0  0  0  0  0  0  0
  -19.9541   -7.7740   22.8870 C   0  0  0  0  0  0  0  0  0  0  0  0
  -19.0715   -7.7599   23.9671 C   0  0  0  0  0  0  0  0  0  0  0  0
  -26.0016  -23.3652   20.4516 C   0  0  0  0  0  0  0  0  0  0  0  0
  -20.3696   -6.0064   25.0050 C   0  0  0  0  0  0  0  0  0  0  0  0
  -30.0384  -20.6779   19.5344 C   0  0  0  0  0  0  0  0  0  0  0  0
  -23.9241  -10.4653   20.9916 C   0  0  0  0  0  0  0  0  0  0  0  0
  -24.0745  -12.9933   20.6844 C   0  0  0  0  0  0  0  0  0  0  0  0
  -30.5555  -25.4966   13.6903 C   0  0  0  0  0  0  0  0  0  0  0  0
  -25.8743  -24.4480   18.2904 C   0  0  0  0  0  0  0  0  0  0  0  0
  -30.1358  -24.9617   14.9233 C   0  0  0  0  0  0  0  0  0  0  0  0
  -26.1432  -24.5184   19.6647 C   0  0  0  0  0  0  0  0  0  0  0  0
  -29.3019  -18.2211   20.3291 C   0  0  0  0  0  0  0  0  0  0  0  0
  -22.5773   -8.0823   21.5301 C   0  0  0  0  0  0  0  0  0  0  0  0
  -25.5861  -22.1620   19.8817 C   0  0  0  0  0  0  0  0  0  0  0  0
  -21.0444   -6.9042   22.8659 C   0  0  0  0  0  0  0  0  0  0  0  0
  -19.2793   -6.8762   25.0261 C   0  0  0  0  0  0  0  0  0  0  0  0
  -21.2521   -6.0204   23.9249 C   0  0  0  0  0  0  0  0  0  0  0  0
  -24.6202  -11.6959   20.7140 C   0  0  0  0  0  0  0  0  0  0  0  0
  -30.3486  -18.4275   19.4538 C   0  0  0  0  0  0  0  0  0  0  0  0
  -28.6585  -19.3596   20.7694 C   0  0  0  0  0  0  0  0  0  0  0  0
  -25.1381  -13.8062   20.3771 C   0  0  0  0  0  0  0  0  0  0  0  0
  -22.7268  -13.4250   20.9141 C   0  0  0  0  0  0  0  0  0  0  0  0
  -28.3822  -26.3536   17.8628 C   0  0  0  0  0  0  0  0  0  0  0  0
  -26.7751  -28.2820   19.9172 C   0  0  0  0  0  0  0  0  0  0  0  0
  -24.4638  -28.5723   22.4113 C   0  0  0  0  0  0  0  0  0  0  0  0
  -30.4803  -15.0689   21.5904 C   0  0  0  0  0  0  0  0  0  0  0  0
  -31.1042  -26.8970   13.5788 C   0  0  0  0  0  0  0  0  0  0  0  0
  -25.9939  -25.6739   17.4271 C   0  0  0  0  0  0  0  0  0  0  0  0
  -26.5891  -25.7986   20.3210 C   0  0  0  0  0  0  0  0  0  0  0  0
  -30.7569  -27.7841   14.7715 C   0  0  0  0  0  0  0  0  0  0  0  0
  -29.7969  -12.6927   18.7834 C   0  0  0  0  0  0  0  0  0  0  0  0
  -31.0143  -27.0439   16.0802 C   0  0  0  0  0  0  0  0  0  0  0  0
  -28.3562  -12.2865   19.0896 C   0  0  0  0  0  0  0  0  0  0  0  0
  -30.5483  -13.0630   20.0565 C   0  0  0  0  0  0  0  0  0  0  0  0
  -28.4447  -13.7362   21.1693 C   0  0  0  0  0  0  0  0  0  0  0  0
  -30.1349  -25.7924   16.1883 C   0  0  1  0  0  0  0  0  0  0  0  0
  -26.9337  -26.7253   18.0091 C   0  0  1  0  0  0  0  0  0  0  0  0
  -27.6405  -13.3732   19.9098 C   0  0  2  0  0  0  0  0  0  0  0  0
  -30.7307  -16.9390   17.4727 C   0  0  0  0  0  0  0  0  0  0  0  0
  -28.5902  -16.4684   23.8800 C   0  0  0  0  0  0  0  0  0  0  0  0
  -23.3918  -30.2708   23.9156 C   0  0  0  0  0  0  0  0  0  0  0  0
  -29.3060  -28.3682   21.6193 C   0  0  0  0  0  0  0  0  0  0  0  0
  -27.9206  -29.2476   23.5103 C   0  0  0  0  0  0  0  0  0  0  0  0
  -28.1221  -30.5601   21.3985 C   0  0  0  0  0  0  0  0  0  0  0  0
  -21.7702  -28.0068   21.3231 C   0  0  0  0  0  0  0  0  0  0  0  0
  -28.8937  -16.8600   20.7692 C   0  0  0  0  0  0  0  0  0  0  0  0
  -31.1198  -17.2698   18.9104 C   0  0  0  0  0  0  0  0  0  0  0  0
  -27.4995  -19.2592   21.7287 C   0  0  0  0  0  0  0  0  0  0  0  0
  -26.1933  -18.8081   21.0715 C   0  0  0  0  0  0  0  0  0  0  0  0
  -29.7880  -16.9175   23.0678 C   0  0  0  0  0  0  0  0  0  0  0  0
  -25.6716  -19.7898   20.0287 C   0  0  0  0  0  0  0  0  0  1  0  0
  -26.7333  -28.4476   21.4171 C   0  0  1  0  0  0  0  0  0  0  0  0
  -23.2944  -29.5226   22.5953 C   0  0  2  0  0  0  0  0  0  0  0  0
  -28.0140  -29.1311   21.9739 C   0  0  0  0  0  0  0  0  0  0  0  0
  -30.7453  -19.6467   19.0339 N   0  0  0  0  0  0  0  0  0  0  0  0
  -29.0017  -20.6084   20.3912 N   0  0  0  0  0  0  0  0  0  0  0  0
  -25.9288  -11.6807   20.4467 N   0  0  0  0  0  0  0  0  0  0  0  0
  -26.2142  -12.9785   20.2461 N   0  0  0  0  0  0  0  0  0  0  0  0
  -26.6971  -26.9683   19.4336 N   0  0  0  0  0  0  0  0  0  0  0  0
  -29.8287  -14.0801   20.8348 N   0  0  0  0  0  0  0  0  0  0  0  0
  -25.2485  -15.1411   20.2087 N   0  0  0  0  0  0  0  0  0  0  0  0
  -21.7584  -12.4587   21.2188 N   0  0  0  0  0  0  0  0  0  0  0  0
  -28.7828  -26.1549   16.5553 N   0  0  0  0  0  0  0  0  0  0  0  0
  -25.4969  -29.1626   21.7146 N   0  0  0  0  0  0  0  0  0  0  0  0
  -29.8123  -16.2919   21.7533 N   0  0  0  0  0  0  0  0  0  0  0  0
  -22.0078  -28.7707   22.5749 N   0  3  0  0  0  0  0  0  0  0  0  0
  -22.3878  -14.6302   20.8351 O   0  0  0  0  0  0  0  0  0  0  0  0
  -29.0848  -26.2558   18.8620 O   0  0  0  0  0  0  0  0  0  0  0  0
  -26.8662  -29.2821   19.2007 O   0  0  0  0  0  0  0  0  0  0  0  0
  -24.4625  -27.4225   22.8456 O   0  0  0  0  0  0  0  0  0  0  0  0
  -31.5902  -14.8661   22.0990 O   0  0  0  0  0  0  0  0  0  0  0  0
  -21.9201   -6.9198   21.7933 O   0  0  0  0  0  0  0  0  0  0  0  0
  -25.4515  -21.0519   20.6573 O   0  0  0  0  0  0  0  0  0  1  0  0
  -18.4325   -6.8639   26.0639 F   0  0  0  0  0  0  0  0  0  0  0  0
  -22.2984   -5.1833   23.9108 F   0  0  0  0  0  0  0  0  0  0  0  0
  1  2  1  0  0  0  0
  1  5  2  0  0  0  0
  2  6  2  0  0  0  0
  3  8  2  0  0  0  0
  3 16  1  0  0  0  0
  4  9  1  0  0  0  0
  4 16  2  0  0  0  0
  5 18  1  0  0  0  0
  6 20  1  0  0  0  0
  7 10  2  0  0  0  0
  7 19  1  0  0  0  0
  8 23  1  0  0  0  0
  9 23  2  0  0  0  0
 10 24  1  0  0  0  0
 11 12  2  0  0  0  0
 11 25  1  0  0  0  0
 12 26  1  0  0  0  0
 13 21  1  0  0  0  0
 13 24  2  0  0  0  0
 14 26  2  0  0  0  0
 14 27  1  0  0  0  0
 15 65  2  0  0  0  0
 15 66  1  0  0  0  0
 16 28  1  0  0  0  0
 17 28  1  0  0  0  0
 17 31  2  0  0  0  0
 17 32  1  0  0  0  0
 18 20  2  0  0  0  0
 18 37  1  0  0  0  0
 19 21  2  0  0  0  0
 19 38  1  0  0  0  0
 20 46  1  0  0  0  0
 21 39  1  0  0  0  0
 22 29  2  0  0  0  0
 22 30  1  0  0  0  0
 22 56  1  0  0  0  0
 23 82  1  0  0  0  0
 24 83  1  0  0  0  0
 25 27  2  0  0  0  0
 25 82  1  0  0  0  0
 26 84  1  0  0  0  0
 27 85  1  0  0  0  0
 28 67  2  0  0  0  0
 29 57  1  0  0  0  0
 29 65  1  0  0  0  0
 30 58  1  0  0  0  0
 30 66  2  0  0  0  0
 31 68  1  0  0  0  0
 31 71  1  0  0  0  0
 32 72  1  0  0  0  0
 32 77  2  0  0  0  0
 33 47  1  0  0  0  0
 33 73  1  0  0  0  0
 33 78  2  0  0  0  0
 34 62  1  0  0  0  0
 34 69  1  0  0  0  0
 34 79  2  0  0  0  0
 35 63  1  0  0  0  0
 35 74  1  0  0  0  0
 35 80  2  0  0  0  0
 36 70  1  0  0  0  0
 36 75  1  0  0  0  0
 36 81  2  0  0  0  0
 37 40  1  0  0  0  0
 38 47  1  0  0  0  0
 39 69  1  0  0  0  0
 40 42  1  0  0  0  0
 41 43  1  0  0  0  0
 41 44  1  0  0  0  0
 42 46  1  0  0  0  0
 43 48  1  0  0  0  0
 44 70  1  0  0  0  0
 45 48  1  0  0  0  0
 45 70  1  0  0  0  0
 46 73  1  0  0  0  0
 47 69  1  0  0  0  0
 48 68  1  0  0  0  0
 49 57  1  0  0  0  0
 50 60  1  0  0  0  0
 51 63  1  0  0  0  0
 52 64  1  0  0  0  0
 53 64  1  0  0  0  0
 54 64  1  0  0  0  0
 55 76  1  0  0  0  0
 56 75  1  0  0  0  0
 58 59  1  0  0  0  0
 59 61  1  0  0  0  0
 60 75  1  0  0  0  0
 61 83  1  0  0  0  0
 62 64  1  0  0  0  0
 62 74  1  0  0  0  0
 63 76  1  0  0  0  0
 67 68  1  0  0  0  0
M  CHG  1  76   1
M  ISO  4  36 100  61 101  75 100  83 101
M  END
> <Batch ID>
0057

> <Smiles>
CCc1ncnc(CC[101CH2:1][101O:1]c2ccc3c(c2)CN(C(=O)C(NC(=O)C(C)NC)C(C)(C)C)C(C(=O)NC2CCCc4ccccc42)C3)c1C[100N:0](CC)[100C:0](=O)N1CCCC(n2nc(-c3ccc(Oc4ccc(F)cc4F)cc3)c(C(N)=O)c2N)C1

> <Shape>
0.287

> <Color>
0.196

> <Negative vol penalty>
0.000

$$$$

  -OEChem-04052317483D

 81 89  0     1  0  0  0  0  0999 V2000
  -22.4654  -10.8931   19.5348 C   0  0  0  0  0  0  0  0  0  0  0  0
  -21.9156  -12.0984   19.9594 C   0  0  0  0  0  0  0  0  0  0  0  0
  -29.6884  -28.4031   20.5973 C   0  0  0  0  0  0  0  0  0  0  0  0
  -28.5776  -26.8656   22.0938 C   0  0  0  0  0  0  0  0  0  0  0  0
  -23.8372  -10.6739   19.6528 C   0  0  0  0  0  0  0  0  0  0  0  0
  -22.7374  -13.0850   20.5035 C   0  0  0  0  0  0  0  0  0  0  0  0
  -22.0888  -19.1473   19.9262 C   0  0  0  0  0  0  0  0  0  0  0  0
  -30.9153  -28.0816   21.1777 C   0  0  0  0  0  0  0  0  0  0  0  0
  -29.8046  -26.5441   22.6742 C   0  0  0  0  0  0  0  0  0  0  0  0
  -21.5373  -20.1156   20.7641 C   0  0  0  0  0  0  0  0  0  0  0  0
  -32.4726  -24.6037   21.9414 C   0  0  0  0  0  0  0  0  0  0  0  0
  -32.7466  -23.2551   22.1691 C   0  0  0  0  0  0  0  0  0  0  0  0
  -23.7354  -20.6156   21.6230 C   0  0  0  0  0  0  0  0  0  0  0  0
  -32.9621  -23.6983   24.5343 C   0  0  0  0  0  0  0  0  0  0  0  0
  -21.7289  -23.1952   25.4537 C   0  0  0  0  0  0  0  0  0  0  0  0
  -28.5195  -27.7951   21.0553 C   0  0  0  0  0  0  0  0  0  0  0  0
  -26.8798  -27.9651   19.1085 C   0  0  0  0  0  0  0  0  0  0  0  0
  -24.6775  -11.6620   20.1897 C   0  0  0  0  0  0  0  0  0  0  0  0
  -23.4687  -18.8978   19.9384 C   0  0  0  0  0  0  0  0  0  0  0  0
  -24.1216  -12.8783   20.6301 C   0  0  0  0  0  0  0  0  0  0  0  0
  -24.3022  -19.6453   20.7825 C   0  0  0  0  0  0  0  0  0  0  0  0
  -30.9734  -27.1521   22.2161 C   0  0  0  0  0  0  0  0  0  0  0  0
  -22.3603  -20.8479   21.6147 C   0  0  0  0  0  0  0  0  0  0  0  0
  -32.4435  -25.4996   23.0102 C   0  0  0  0  0  0  0  0  0  0  0  0
  -32.9913  -22.8024   23.4656 C   0  0  0  0  0  0  0  0  0  0  0  0
  -32.6882  -25.0469   24.3066 C   0  0  0  0  0  0  0  0  0  0  0  0
  -27.2517  -28.1272   20.4566 C   0  0  0  0  0  0  0  0  0  0  0  0
  -21.0047  -24.1404   26.1512 C   0  0  0  0  0  0  0  0  0  0  0  0
  -21.9467  -23.4746   24.1200 C   0  0  0  0  0  0  0  0  0  0  0  0
  -25.5872  -28.4260   19.0512 C   0  0  0  0  0  0  0  0  0  0  0  0
  -20.8043  -25.4323   24.2916 C   0  0  0  0  0  0  0  0  0  0  0  0
  -27.6352  -27.4445   18.0067 C   0  0  0  0  0  0  0  0  0  0  0  0
  -25.2877  -16.3844   20.6293 C   0  0  0  0  0  0  0  0  0  0  0  0
  -27.6723  -18.3085   19.5644 C   0  0  0  0  0  0  0  0  0  0  0  0
  -28.8004  -21.4782   18.9922 C   0  0  0  0  0  0  0  0  0  0  0  0
  -21.2465  -28.9129   23.1466 C   0  0  0  0  0  0  0  0  0  0  0  0
  -26.1476  -11.3610   20.3409 C   0  0  0  0  0  0  0  0  0  0  0  0
  -24.0513  -17.8685   19.0092 C   0  0  0  0  0  0  0  0  0  0  0  0
  -25.7924  -19.4300   20.8189 C   0  0  0  0  0  0  0  0  0  0  0  0
  -27.0019  -12.6027   20.5827 C   0  0  0  0  0  0  0  0  0  0  0  0
  -22.6215  -31.5302   21.1629 C   0  0  0  0  0  0  0  0  0  0  0  0
  -26.3655  -13.4893   21.6485 C   0  0  0  0  0  0  0  0  0  0  0  0
  -23.9306  -30.9403   20.6353 C   0  0  0  0  0  0  0  0  0  0  0  0
  -22.3295  -31.0699   22.5893 C   0  0  0  0  0  0  0  0  0  0  0  0
  -23.6532  -29.0180   22.2560 C   0  0  0  0  0  0  0  0  0  0  0  0
  -24.9836  -13.9824   21.2027 C   0  0  1  0  0  0  0  0  0  0  0  0
  -25.4043  -17.3401   19.4757 C   0  0  1  0  0  0  0  0  0  0  0  0
  -23.9623  -29.4090   20.8007 C   0  0  2  0  0  0  0  0  0  0  0  0
  -20.7191  -23.9260   27.5998 C   0  0  0  0  0  0  0  0  0  0  0  0
  -19.3255  -26.3939   22.4888 C   0  0  0  0  0  0  0  0  0  0  0  0
  -30.3306  -23.2941   18.1810 C   0  0  0  0  0  0  0  0  0  0  0  0
  -29.1116  -17.7739   22.2012 C   0  0  0  0  0  0  0  0  0  0  0  0
  -30.5815  -19.7421   21.7175 C   0  0  0  0  0  0  0  0  0  0  0  0
  -30.5922  -17.7734   20.1856 C   0  0  0  0  0  0  0  0  0  0  0  0
  -27.5376  -21.5063   16.3157 C   0  0  0  0  0  0  0  0  0  0  0  0
  -22.7261  -22.5062   23.2797 C   0  0  0  0  0  0  0  0  0  1  0  0
  -20.2942  -26.6763   23.6465 C   0  0  2  0  0  0  0  0  0  0  0  0
  -28.5934  -19.3214   20.2005 C   0  0  1  0  0  0  0  0  0  0  0  0
  -29.4682  -22.1066   17.7824 C   0  0  2  0  0  0  0  0  0  0  0  0
  -29.6914  -18.6556   21.0771 C   0  0  0  0  0  0  0  0  0  0  0  0
  -26.2745  -28.6503   21.2018 N   0  0  0  0  0  0  0  0  0  0  0  0
  -20.5254  -25.2746   25.5996 N   0  0  0  0  0  0  0  0  0  0  0  0
  -21.4971  -24.5876   23.5041 N   0  0  0  0  0  0  0  0  0  0  0  0
  -25.2757  -28.8210   20.3189 N   0  0  0  0  0  0  0  0  0  0  0  0
  -26.3137  -18.4080   19.8962 N   0  0  0  0  0  0  0  0  0  0  0  0
  -22.3732  -29.6084   22.6778 N   0  0  0  0  0  0  0  0  0  0  0  0
  -24.6981  -28.5279   18.0405 N   0  0  0  0  0  0  0  0  0  0  0  0
  -27.5721  -26.0692   17.7439 N   0  0  0  0  0  0  0  0  0  0  0  0
  -25.1160  -15.0661   20.2526 N   0  0  0  0  0  0  0  0  0  0  0  0
  -29.1137  -20.1407   19.1112 N   0  0  0  0  0  0  0  0  0  0  0  0
  -21.3698  -27.5296   23.1929 N   0  0  0  0  0  0  0  0  0  0  0  0
  -28.4415  -22.5768   16.8099 N   0  3  0  0  0  0  0  0  0  0  0  0
  -28.3579  -28.1745   17.2869 O   0  0  0  0  0  0  0  0  0  0  0  0
  -25.3505  -16.8113   21.7763 O   0  0  0  0  0  0  0  0  0  0  0  0
  -28.1399  -17.4647   18.7957 O   0  0  0  0  0  0  0  0  0  0  0  0
  -28.0764  -22.1114   19.7573 O   0  0  0  0  0  0  0  0  0  0  0  0
  -20.2058  -29.4821   23.4929 O   0  0  0  0  0  0  0  0  0  0  0  0
  -32.1705  -26.8380   22.7825 O   0  0  0  0  0  0  0  0  0  0  0  0
  -21.8245  -21.7932   22.4340 O   0  0  0  0  0  0  0  0  0  1  0  0
  -33.2528  -21.5070   23.6843 F   0  0  0  0  0  0  0  0  0  0  0  0
  -32.6603  -25.9027   25.3375 F   0  0  0  0  0  0  0  0  0  0  0  0
  1  2  1  0  0  0  0
  1  5  2  0  0  0  0
  2  6  2  0  0  0  0
  3  8  2  0  0  0  0
  3 16  1  0  0  0  0
  4  9  1  0  0  0  0
  4 16  2  0  0  0  0
  5 18  1  0  0  0  0
  6 20  1  0  0  0  0
  7 10  2  0  0  0  0
  7 19  1  0  0  0  0
  8 22  1  0  0  0  0
  9 22  2  0  0  0  0
 10 23  1  0  0  0  0
 11 12  2  0  0  0  0
 11 24  1  0  0  0  0
 12 25  1  0  0  0  0
 13 21  1  0  0  0  0
 13 23  2  0  0  0  0
 14 25  2  0  0  0  0
 14 26  1  0  0  0  0
 15 28  2  0  0  0  0
 15 29  1  0  0  0  0
 16 27  1  0  0  0  0
 17 27  1  0  0  0  0
 17 30  2  0  0  0  0
 17 32  1  0  0  0  0
 18 20  2  0  0  0  0
 18 37  1  0  0  0  0
 19 21  2  0  0  0  0
 19 38  1  0  0  0  0
 20 46  1  0  0  0  0
 21 39  1  0  0  0  0
 22 78  1  0  0  0  0
 23 79  1  0  0  0  0
 24 26  2  0  0  0  0
 24 78  1  0  0  0  0
 25 80  1  0  0  0  0
 26 81  1  0  0  0  0
 27 61  2  0  0  0  0
 28 49  1  0  0  0  0
 28 62  1  0  0  0  0
 29 56  1  0  0  0  0
 29 63  2  0  0  0  0
 30 64  1  0  0  0  0
 30 67  1  0  0  0  0
 31 57  1  0  0  0  0
 31 62  2  0  0  0  0
 31 63  1  0  0  0  0
 32 68  1  0  0  0  0
 32 73  2  0  0  0  0
 33 47  1  0  0  0  0
 33 69  1  0  0  0  0
 33 74  2  0  0  0  0
 34 58  1  0  0  0  0
 34 65  1  0  0  0  0
 34 75  2  0  0  0  0
 35 59  1  0  0  0  0
 35 70  1  0  0  0  0
 35 76  2  0  0  0  0
 36 66  1  0  0  0  0
 36 71  1  0  0  0  0
 36 77  2  0  0  0  0
 37 40  1  0  0  0  0
 38 47  1  0  0  0  0
 39 65  1  0  0  0  0
 40 42  1  0  0  0  0
 41 43  1  0  0  0  0
 41 44  1  0  0  0  0
 42 46  1  0  0  0  0
 43 48  1  0  0  0  0
 44 66  1  0  0  0  0
 45 48  1  0  0  0  0
 45 66  1  0  0  0  0
 46 69  1  0  0  0  0
 47 65  1  0  0  0  0
 48 64  1  0  0  0  0
 50 57  1  0  0  0  0
 51 59  1  0  0  0  0
 52 60  1  0  0  0  0
 53 60  1  0  0  0  0
 54 60  1  0  0  0  0
 55 72  1  0  0  0  0
 56 79  1  0  0  0  0
 57 71  1  0  0  0  0
 58 60  1  0  0  0  0
 58 70  1  0  0  0  0
 59 72  1  0  0  0  0
 61 64  1  0  0  0  0
M  CHG  1  72   1
M  ISO  4  36 100  56 101  71 100  79 101
M  END
> <Batch ID>
0057

> <Smiles>
CNC(C)C(=O)NC(C(=O)N1Cc2cc([101O:1][101CH2:1]c3cc(C)nc(C(C)[100NH:0][100C:0](=O)N4CCCC(n5nc(-c6ccc(Oc7ccc(F)cc7F)cc6)c(C(N)=O)c5N)C4)n3)ccc2CC1C(=O)NC1CCCc2ccccc21)C(C)(C)C

> <Shape>
0.226

> <Color>
0.055

> <Negative vol penalty>
0.000

$$$$

  -OEChem-04052317483D

 82 90  0     1  0  0  0  0  0999 V2000
  -32.1559  -15.0857   20.3165 C   0  0  0  0  0  0  0  0  0  0  0  0
  -31.2153  -16.1083   20.2472 C   0  0  0  0  0  0  0  0  0  0  0  0
  -29.2227  -26.2779   21.0792 C   0  0  0  0  0  0  0  0  0  0  0  0
  -27.2943  -24.8267   20.9676 C   0  0  0  0  0  0  0  0  0  0  0  0
  -31.7486  -13.7568   20.2069 C   0  0  0  0  0  0  0  0  0  0  0  0
  -29.8667  -15.8026   20.0670 C   0  0  0  0  0  0  0  0  0  0  0  0
  -25.0675  -18.8012   22.4083 C   0  0  0  0  0  0  0  0  0  0  0  0
  -29.9673  -25.2446   21.6480 C   0  0  0  0  0  0  0  0  0  0  0  0
  -28.0389  -23.7934   21.5364 C   0  0  0  0  0  0  0  0  0  0  0  0
  -24.2105  -19.7625   21.8740 C   0  0  0  0  0  0  0  0  0  0  0  0
  -29.1000  -22.8908   24.6170 C   0  0  0  0  0  0  0  0  0  0  0  0
  -28.5057  -22.1499   25.6385 C   0  0  0  0  0  0  0  0  0  0  0  0
  -22.6258  -18.0313   21.3166 C   0  0  0  0  0  0  0  0  0  0  0  0
  -28.7339  -20.1417   24.3148 C   0  0  0  0  0  0  0  0  0  0  0  0
  -18.9118  -26.1208   23.6363 C   0  0  0  0  0  0  0  0  0  0  0  0
  -27.8861  -26.0689   20.7391 C   0  0  0  0  0  0  0  0  0  0  0  0
  -26.9752  -27.4285   18.7822 C   0  0  0  0  0  0  0  0  0  0  0  0
  -30.3932  -13.4342   20.0350 C   0  0  0  0  0  0  0  0  0  0  0  0
  -24.7142  -17.4443   22.3908 C   0  0  0  0  0  0  0  0  0  0  0  0
  -29.4411  -14.4682   19.9537 C   0  0  0  0  0  0  0  0  0  0  0  0
  -23.4789  -17.0550   21.8536 C   0  0  0  0  0  0  0  0  0  0  0  0
  -29.3754  -24.0024   21.8766 C   0  0  0  0  0  0  0  0  0  0  0  0
  -22.9908  -19.3773   21.3255 C   0  0  0  0  0  0  0  0  0  0  0  0
  -29.5112  -22.2571   23.4443 C   0  0  0  0  0  0  0  0  0  0  0  0
  -28.3227  -20.7754   25.4874 C   0  0  0  0  0  0  0  0  0  0  0  0
  -29.3282  -20.8826   23.2932 C   0  0  0  0  0  0  0  0  0  0  0  0
  -27.1162  -27.1360   20.1520 C   0  0  0  0  0  0  0  0  0  0  0  0
  -26.1501  -28.5261   18.7486 C   0  0  0  0  0  0  0  0  0  0  0  0
  -19.6005  -27.8742   22.7372 C   0  0  0  0  0  0  0  0  0  0  0  0
  -27.5394  -26.7672   17.6420 C   0  0  0  0  0  0  0  0  0  0  0  0
  -25.9361  -14.8251   21.0677 C   0  0  0  0  0  0  0  0  0  0  0  0
  -23.6116  -13.3467   22.7804 C   0  0  0  0  0  0  0  0  0  0  0  0
  -20.5810  -13.5564   24.3355 C   0  0  0  0  0  0  0  0  0  0  0  0
  -22.0216  -30.6408   22.5347 C   0  0  0  0  0  0  0  0  0  0  0  0
  -30.0066  -11.9853   19.8742 C   0  0  0  0  0  0  0  0  0  0  0  0
  -25.6379  -16.4226   22.9952 C   0  0  0  0  0  0  0  0  0  0  0  0
  -23.0438  -15.6133   21.8289 C   0  0  0  0  0  0  0  0  0  0  0  0
  -28.5133  -11.7291   20.0603 C   0  0  0  0  0  0  0  0  0  0  0  0
  -24.9031  -32.3535   21.3345 C   0  0  0  0  0  0  0  0  0  0  0  0
  -27.6947  -12.7529   19.2802 C   0  0  0  0  0  0  0  0  0  0  0  0
  -25.7843  -31.2369   20.7718 C   0  0  0  0  0  0  0  0  0  0  0  0
  -24.1522  -31.9034   22.5858 C   0  0  0  0  0  0  0  0  0  0  0  0
  -24.2471  -29.5495   21.8619 C   0  0  0  0  0  0  0  0  0  0  0  0
  -27.9660  -14.1756   19.7838 C   0  0  1  0  0  0  0  0  0  0  0  0
  -25.4027  -15.0135   22.4597 C   0  0  1  0  0  0  0  0  0  0  0  0
  -24.9814  -29.9381   20.5673 C   0  0  2  0  0  0  0  0  0  0  0  0
  -19.2530  -29.8183   21.1683 C   0  0  0  0  0  0  0  0  0  0  0  0
  -18.9234  -12.1732   25.6148 C   0  0  0  0  0  0  0  0  0  0  0  0
  -22.7076  -12.0299   20.1806 C   0  0  0  0  0  0  0  0  0  0  0  0
  -20.5484  -11.4490   21.3070 C   0  0  0  0  0  0  0  0  0  0  0  0
  -22.6950  -10.5199   22.1741 C   0  0  0  0  0  0  0  0  0  0  0  0
  -20.8263  -15.2717   26.7347 C   0  0  0  0  0  0  0  0  0  0  0  0
  -20.7993  -23.6638   21.8579 C   0  0  0  0  0  0  0  0  0  0  0  0
  -20.8166  -22.2511   21.2720 C   0  0  0  0  0  0  0  0  0  0  0  0
  -19.4150  -24.3199   21.8013 C   0  0  0  0  0  0  0  0  0  0  0  0
  -22.1979  -21.6188   21.3775 C   0  0  0  0  0  0  0  0  0  1  0  0
  -19.9690  -29.2507   22.4179 C   0  0  2  0  0  0  0  0  0  0  0  0
  -22.1725  -12.9685   22.5255 C   0  0  1  0  0  0  0  0  0  0  0  0
  -20.1209  -13.1058   25.7101 C   0  0  2  0  0  0  0  0  0  0  0  0
  -22.0396  -11.7689   21.5453 C   0  0  0  0  0  0  0  0  0  0  0  0
  -19.0413  -27.4630   23.8515 N   0  0  0  0  0  0  0  0  0  0  0  0
  -26.4355  -27.9798   20.9322 N   0  0  0  0  0  0  0  0  0  0  0  0
  -19.7909  -26.8168   21.9034 N   0  0  0  0  0  0  0  0  0  0  0  0
  -19.3557  -25.6757   22.4590 N   0  0  0  0  0  0  0  0  0  0  0  0
  -25.8588  -28.8133   20.0497 N   0  0  0  0  0  0  0  0  0  0  0  0
  -23.9844  -14.6511   22.4262 N   0  0  0  0  0  0  0  0  0  0  0  0
  -23.4101  -30.6678   22.3243 N   0  0  0  0  0  0  0  0  0  0  0  0
  -25.6528  -29.2639   17.7334 N   0  0  0  0  0  0  0  0  0  0  0  0
  -28.3650  -25.6549   17.8556 N   0  0  0  0  0  0  0  0  0  0  0  0
  -27.2558  -14.4178   21.0213 N   0  0  0  0  0  0  0  0  0  0  0  0
  -21.5726  -12.7391   23.8354 N   0  0  0  0  0  0  0  0  0  0  0  0
  -21.3944  -29.4325   22.2566 N   0  0  0  0  0  0  0  0  0  0  0  0
  -19.7351  -14.2828   26.5389 N   0  3  0  0  0  0  0  0  0  0  0  0
  -27.3313  -27.1612   16.4695 O   0  0  0  0  0  0  0  0  0  0  0  0
  -25.2042  -15.0324   20.1070 O   0  0  0  0  0  0  0  0  0  0  0  0
  -24.3750  -12.5177   23.2820 O   0  0  0  0  0  0  0  0  0  0  0  0
  -20.1055  -14.5334   23.7610 O   0  0  0  0  0  0  0  0  0  0  0  0
  -21.3869  -31.6226   22.9352 O   0  0  0  0  0  0  0  0  0  0  0  0
  -30.1018  -22.9939   22.4314 O   0  0  0  0  0  0  0  0  0  0  0  0
  -22.1527  -20.3134   20.8028 O   0  0  0  0  0  0  0  0  0  1  0  0
  -27.7533  -20.0638   26.4691 F   0  0  0  0  0  0  0  0  0  0  0  0
  -29.7223  -20.2681   22.1694 F   0  0  0  0  0  0  0  0  0  0  0  0
  1  2  1  0  0  0  0
  1  5  2  0  0  0  0
  2  6  2  0  0  0  0
  3  8  2  0  0  0  0
  3 16  1  0  0  0  0
  4  9  1  0  0  0  0
  4 16  2  0  0  0  0
  5 18  1  0  0  0  0
  6 20  1  0  0  0  0
  7 10  2  0  0  0  0
  7 19  1  0  0  0  0
  8 22  1  0  0  0  0
  9 22  2  0  0  0  0
 10 23  1  0  0  0  0
 11 12  2  0  0  0  0
 11 24  1  0  0  0  0
 12 25  1  0  0  0  0
 13 21  1  0  0  0  0
 13 23  2  0  0  0  0
 14 25  2  0  0  0  0
 14 26  1  0  0  0  0
 15 61  2  0  0  0  0
 15 64  1  0  0  0  0
 16 27  1  0  0  0  0
 17 27  1  0  0  0  0
 17 28  2  0  0  0  0
 17 30  1  0  0  0  0
 18 20  2  0  0  0  0
 18 35  1  0  0  0  0
 19 21  2  0  0  0  0
 19 36  1  0  0  0  0
 20 44  1  0  0  0  0
 21 37  1  0  0  0  0
 22 79  1  0  0  0  0
 23 80  1  0  0  0  0
 24 26  2  0  0  0  0
 24 79  1  0  0  0  0
 25 81  1  0  0  0  0
 26 82  1  0  0  0  0
 27 62  2  0  0  0  0
 28 65  1  0  0  0  0
 28 68  1  0  0  0  0
 29 57  1  0  0  0  0
 29 61  1  0  0  0  0
 29 63  2  0  0  0  0
 30 69  1  0  0  0  0
 30 74  2  0  0  0  0
 31 45  1  0  0  0  0
 31 70  1  0  0  0  0
 31 75  2  0  0  0  0
 32 58  1  0  0  0  0
 32 66  1  0  0  0  0
 32 76  2  0  0  0  0
 33 59  1  0  0  0  0
 33 71  1  0  0  0  0
 33 77  2  0  0  0  0
 34 67  1  0  0  0  0
 34 72  1  0  0  0  0
 34 78  2  0  0  0  0
 35 38  1  0  0  0  0
 36 45  1  0  0  0  0
 37 66  1  0  0  0  0
 38 40  1  0  0  0  0
 39 41  1  0  0  0  0
 39 42  1  0  0  0  0
 40 44  1  0  0  0  0
 41 46  1  0  0  0  0
 42 67  1  0  0  0  0
 43 46  1  0  0  0  0
 43 67  1  0  0  0  0
 44 70  1  0  0  0  0
 45 66  1  0  0  0  0
 46 65  1  0  0  0  0
 47 57  1  0  0  0  0
 48 59  1  0  0  0  0
 49 60  1  0  0  0  0
 50 60  1  0  0  0  0
 51 60  1  0  0  0  0
 52 73  1  0  0  0  0
 53 54  1  0  0  0  0
 53 55  1  0  0  0  0
 54 56  1  0  0  0  0
 55 64  1  0  0  0  0
 56 80  1  0  0  0  0
 57 72  1  0  0  0  0
 58 60  1  0  0  0  0
 58 71  1  0  0  0  0
 59 73  1  0  0  0  0
 62 65  1  0  0  0  0
 63 64  1  0  0  0  0
M  CHG  1  73   1
M  ISO  4  34 100  56 101  72 100  80 101
M  END
> <Batch ID>
0057

> <Smiles>
CNC(C)C(=O)NC(C(=O)N1Cc2cc([101O:1][101CH2:1]CCCn3cnc(C(C)[100NH:0][100C:0](=O)N4CCCC(n5nc(-c6ccc(Oc7ccc(F)cc7F)cc6)c(C(N)=O)c5N)C4)n3)ccc2CC1C(=O)NC1CCCc2ccccc21)C(C)(C)C

> <Shape>
0.215

> <Color>
0.080

> <Negative vol penalty>
0.000

$$$$

  -OEChem-04052317483D

 85 93  0     1  0  0  0  0  0999 V2000
  -24.8652  -37.2018   18.0957 C   0  0  0  0  0  0  0  0  0  0  0  0
  -24.8348  -35.9690   17.4517 C   0  0  0  0  0  0  0  0  0  0  0  0
  -25.0725  -15.2353   21.7386 C   0  0  0  0  0  0  0  0  0  0  0  0
  -24.4014  -14.3001   19.6144 C   0  0  0  0  0  0  0  0  0  0  0  0
  -25.4607  -37.3167   19.3512 C   0  0  0  0  0  0  0  0  0  0  0  0
  -25.4009  -34.8505   18.0624 C   0  0  0  0  0  0  0  0  0  0  0  0
  -24.5507  -27.7587   18.6091 C   0  0  0  0  0  0  0  0  0  0  0  0
  -24.2941  -14.2871   22.4021 C   0  0  0  0  0  0  0  0  0  0  0  0
  -23.6229  -13.3517   20.2780 C   0  0  0  0  0  0  0  0  0  0  0  0
  -25.2699  -26.5733   18.4634 C   0  0  0  0  0  0  0  0  0  0  0  0
  -24.1105  -10.4357   21.9149 C   0  0  0  0  0  0  0  0  0  0  0  0
  -24.1909   -9.1133   21.4784 C   0  0  0  0  0  0  0  0  0  0  0  0
  -26.2011  -26.8743   20.6683 C   0  0  0  0  0  0  0  0  0  0  0  0
  -21.8260   -9.1326   20.9843 C   0  0  0  0  0  0  0  0  0  0  0  0
  -25.1262  -15.2419   20.3447 C   0  0  0  0  0  0  0  0  0  0  0  0
  -27.2814  -16.1011   19.2844 C   0  0  0  0  0  0  0  0  0  0  0  0
  -26.0258  -36.1970   19.9817 C   0  0  0  0  0  0  0  0  0  0  0  0
  -24.6598  -28.5177   19.7832 C   0  0  0  0  0  0  0  0  0  0  0  0
  -26.0057  -34.9508   19.3268 C   0  0  0  0  0  0  0  0  0  0  0  0
  -25.4802  -28.0676   20.8275 C   0  0  0  0  0  0  0  0  0  0  0  0
  -23.5693  -13.3452   21.6718 C   0  0  0  0  0  0  0  0  0  0  0  0
  -26.0975  -26.1324   19.4919 C   0  0  0  0  0  0  0  0  0  0  0  0
  -22.8878  -11.1065   21.8861 C   0  0  0  0  0  0  0  0  0  0  0  0
  -23.0487   -8.4618   21.0131 C   0  0  0  0  0  0  0  0  0  0  0  0
  -21.7456  -10.4550   21.4208 C   0  0  0  0  0  0  0  0  0  0  0  0
  -25.9297  -16.2216   19.6587 C   0  0  0  0  0  0  0  0  0  0  0  0
  -27.5741  -17.2923   18.6665 C   0  0  0  0  0  0  0  0  0  0  0  0
  -28.7772  -21.1483   20.5041 C   0  0  0  0  0  0  0  0  0  0  0  0
  -29.7385  -22.1727   18.7538 C   0  0  0  0  0  0  0  0  0  0  0  0
  -28.3391  -23.3101   20.0898 C   0  0  0  0  0  0  0  0  0  0  0  0
  -28.1912  -15.0100   19.4779 C   0  0  0  0  0  0  0  0  0  0  0  0
  -25.6647  -31.4539   20.4707 C   0  0  0  0  0  0  0  0  0  0  0  0
  -24.5688  -30.7150   23.4330 C   0  0  0  0  0  0  0  0  0  0  0  0
  -23.7862  -28.2998   25.7136 C   0  0  0  0  0  0  0  0  0  0  0  0
  -25.8528  -21.1324   14.8444 C   0  0  0  0  0  0  0  0  0  0  0  0
  -26.7003  -36.3800   21.3183 C   0  0  0  0  0  0  0  0  0  0  0  0
  -23.8567  -29.7803   19.9355 C   0  0  0  0  0  0  0  0  0  0  0  0
  -25.6165  -28.8354   22.1161 C   0  0  0  0  0  0  0  0  0  0  0  0
  -26.9454  -35.0693   22.0614 C   0  0  0  0  0  0  0  0  0  0  0  0
  -24.9749  -21.6135   18.4081 C   0  0  0  0  0  0  0  0  0  0  0  0
  -27.5448  -34.0273   21.1224 C   0  0  0  0  0  0  0  0  0  0  0  0
  -25.1915  -20.2199   18.9955 C   0  0  0  0  0  0  0  0  0  0  0  0
  -24.6019  -21.5542   16.9299 C   0  0  0  0  0  0  0  0  0  0  0  0
  -25.7854  -19.3973   16.6823 C   0  0  0  0  0  0  0  0  0  0  0  0
  -26.5872  -33.7093   19.9677 C   0  0  1  0  0  0  0  0  0  0  0  0
  -24.4406  -30.7389   20.9688 C   0  0  1  0  0  0  0  0  0  0  0  0
  -26.2081  -19.4238   18.1588 C   0  0  2  0  0  0  0  0  0  0  0  0
  -28.5765  -19.9264   21.3342 C   0  0  0  0  0  0  0  0  0  0  0  0
  -22.9502  -28.0039   28.0611 C   0  0  0  0  0  0  0  0  0  0  0  0
  -27.3167  -31.4929   24.5071 C   0  0  0  0  0  0  0  0  0  0  0  0
  -26.7452  -30.3025   26.6342 C   0  0  0  0  0  0  0  0  0  0  0  0
  -25.3928  -32.2676   25.9046 C   0  0  0  0  0  0  0  0  0  0  0  0
  -27.4940  -21.2249   13.0066 C   0  0  0  0  0  0  0  0  0  0  0  0
  -21.3891  -26.8255   24.7976 C   0  0  0  0  0  0  0  0  0  0  0  0
  -31.3714  -20.6965   15.6682 C   0  0  0  0  0  0  0  0  0  0  0  0
  -30.6439  -22.1295   17.5702 C   0  0  0  0  0  0  0  0  0  0  0  0
  -27.6298  -24.5836   20.4455 C   0  0  0  0  0  0  0  0  0  1  0  0
  -28.2570  -20.4366   15.2161 C   0  0  0  0  0  0  0  0  0  0  0  0
  -29.0602  -21.6225   15.7168 C   0  0  0  0  0  0  0  0  0  0  0  0
  -25.1639  -30.0763   24.6645 C   0  0  1  0  0  0  0  0  0  0  0  0
  -22.5648  -28.1029   26.5933 C   0  0  2  0  0  0  0  0  0  0  0  0
  -26.1538  -31.0211   25.4027 C   0  0  0  0  0  0  0  0  0  0  0  0
  -25.4003  -17.3967   19.3080 N   0  0  0  0  0  0  0  0  0  0  0  0
  -29.6066  -21.0346   19.4540 N   0  0  0  0  0  0  0  0  0  0  0  0
  -28.1103  -22.2508   20.8825 N   0  0  0  0  0  0  0  0  0  0  0  0
  -29.1380  -23.3458   19.0111 N   0  0  0  0  0  0  0  0  0  0  0  0
  -26.4248  -18.0255   18.7069 N   0  0  0  0  0  0  0  0  0  0  0  0
  -24.8159  -30.0670   22.2145 N   0  0  0  0  0  0  0  0  0  0  0  0
  -25.5610  -20.7557   16.1657 N   0  0  0  0  0  0  0  0  0  0  0  0
  -28.6999  -17.7737   18.0980 N   0  0  0  0  0  0  0  0  0  0  0  0
  -27.7265  -13.8606   20.1317 N   0  0  0  0  0  0  0  0  0  0  0  0
  -25.5302  -32.8281   20.4158 N   0  0  0  0  0  0  0  0  0  0  0  0
  -24.0378  -29.6354   25.4805 N   0  0  0  0  0  0  0  0  0  0  0  0
  -27.1400  -20.8436   14.3665 N   0  0  0  0  0  0  0  0  0  0  0  0
  -21.8467  -26.8544   26.2107 N   0  3  0  0  0  0  0  0  0  0  0  0
  -30.2250  -21.1380   16.5409 N   0  3  1  0  0  0  0  0  0  0  0  0
  -29.3854  -15.0593   19.0974 O   0  0  0  0  0  0  0  0  0  0  0  0
  -26.6581  -30.8069   20.1606 O   0  0  0  0  0  0  0  0  0  0  0  0
  -23.9029  -31.7470   23.5488 O   0  0  0  0  0  0  0  0  0  0  0  0
  -24.4528  -27.3628   25.2799 O   0  0  0  0  0  0  0  0  0  0  0  0
  -25.0139  -21.7034   14.1357 O   0  0  0  0  0  0  0  0  0  0  0  0
  -22.8097  -12.4196   22.3190 O   0  0  0  0  0  0  0  0  0  0  0  0
  -26.8012  -24.9760   19.3520 O   0  0  0  0  0  0  0  0  0  1  0  0
  -23.1263   -7.1924   20.5926 F   0  0  0  0  0  0  0  0  0  0  0  0
  -20.5684  -11.0946   21.3896 F   0  0  0  0  0  0  0  0  0  0  0  0
  1  2  1  0  0  0  0
  1  5  2  0  0  0  0
  2  6  2  0  0  0  0
  3  8  2  0  0  0  0
  3 15  1  0  0  0  0
  4  9  1  0  0  0  0
  4 15  2  0  0  0  0
  5 17  1  0  0  0  0
  6 19  1  0  0  0  0
  7 10  2  0  0  0  0
  7 18  1  0  0  0  0
  8 21  1  0  0  0  0
  9 21  2  0  0  0  0
 10 22  1  0  0  0  0
 11 12  2  0  0  0  0
 11 23  1  0  0  0  0
 12 24  1  0  0  0  0
 13 20  1  0  0  0  0
 13 22  2  0  0  0  0
 14 24  2  0  0  0  0
 14 25  1  0  0  0  0
 15 26  1  0  0  0  0
 16 26  1  0  0  0  0
 16 27  2  0  0  0  0
 16 31  1  0  0  0  0
 17 19  2  0  0  0  0
 17 36  1  0  0  0  0
 18 20  2  0  0  0  0
 18 37  1  0  0  0  0
 19 45  1  0  0  0  0
 20 38  1  0  0  0  0
 21 82  1  0  0  0  0
 22 83  1  0  0  0  0
 23 25  2  0  0  0  0
 23 82  1  0  0  0  0
 24 84  1  0  0  0  0
 25 85  1  0  0  0  0
 26 63  2  0  0  0  0
 27 67  1  0  0  0  0
 27 70  1  0  0  0  0
 28 48  1  0  0  0  0
 28 64  1  0  0  0  0
 28 65  2  0  0  0  0
 29 56  1  0  0  0  0
 29 64  2  0  0  0  0
 29 66  1  0  0  0  0
 30 57  1  0  0  0  0
 30 65  1  0  0  0  0
 30 66  2  0  0  0  0
 31 71  1  0  0  0  0
 31 77  2  0  0  0  0
 32 46  1  0  0  0  0
 32 72  1  0  0  0  0
 32 78  2  0  0  0  0
 33 60  1  0  0  0  0
 33 68  1  0  0  0  0
 33 79  2  0  0  0  0
 34 61  1  0  0  0  0
 34 73  1  0  0  0  0
 34 80  2  0  0  0  0
 35 69  1  0  0  0  0
 35 74  1  0  0  0  0
 35 81  2  0  0  0  0
 36 39  1  0  0  0  0
 37 46  1  0  0  0  0
 38 68  1  0  0  0  0
 39 41  1  0  0  0  0
 40 42  1  0  0  0  0
 40 43  1  0  0  0  0
 41 45  1  0  0  0  0
 42 47  1  0  0  0  0
 43 69  1  0  0  0  0
 44 47  1  0  0  0  0
 44 69  1  0  0  0  0
 45 72  1  0  0  0  0
 46 68  1  0  0  0  0
 47 67  1  0  0  0  0
 49 61  1  0  0  0  0
 50 62  1  0  0  0  0
 51 62  1  0  0  0  0
 52 62  1  0  0  0  0
 53 74  1  0  0  0  0
 54 75  1  0  0  0  0
 55 76  1  0  0  0  0
 56 76  1  0  0  0  0
 57 83  1  0  0  0  0
 58 59  1  0  0  0  0
 58 74  1  0  0  0  0
 59 76  1  0  0  0  0
 60 62  1  0  0  0  0
 60 73  1  0  0  0  0
 61 75  1  0  0  0  0
 63 67  1  0  0  0  0
M  CHG  2  75   1  76   1
M  ISO  4  35 100  57 101  74 100  83 101
M  END
> <Batch ID>
0057

> <Smiles>
CNC(C)C(=O)NC(C(=O)N1Cc2cc([101O:1][101CH2:1]c3nc(C)nc(CN(C)CC[100N:0](C)[100C:0](=O)N4CCCC(n5nc(-c6ccc(Oc7ccc(F)cc7F)cc6)c(C(N)=O)c5N)C4)n3)ccc2CC1C(=O)NC1CCCc2ccccc21)C(C)(C)C

> <Shape>
0.232

> <Color>
0.083

> <Negative vol penalty>
0.000

$$$$

  -OEChem-04052317483D

 84 92  0     1  0  0  0  0  0999 V2000
  -25.0348  -28.0971   23.5710 C   0  0  0  0  0  0  0  0  0  0  0  0
  -25.1321  -26.7095   23.5927 C   0  0  0  0  0  0  0  0  0  0  0  0
  -21.5515  -23.0907   22.8734 C   0  0  0  0  0  0  0  0  0  0  0  0
  -21.1241  -22.4461   20.5845 C   0  0  0  0  0  0  0  0  0  0  0  0
  -25.3880  -28.8016   22.4209 C   0  0  0  0  0  0  0  0  0  0  0  0
  -25.5817  -26.0255   22.4638 C   0  0  0  0  0  0  0  0  0  0  0  0
  -29.2846  -20.1902   20.5785 C   0  0  0  0  0  0  0  0  0  0  0  0
  -21.3517  -24.4288   22.5339 C   0  0  0  0  0  0  0  0  0  0  0  0
  -20.9243  -23.7842   20.2450 C   0  0  0  0  0  0  0  0  0  0  0  0
  -29.1794  -19.0650   19.7620 C   0  0  0  0  0  0  0  0  0  0  0  0
  -18.7323  -26.4910   21.9694 C   0  0  0  0  0  0  0  0  0  0  0  0
  -17.9418  -27.2644   22.8194 C   0  0  0  0  0  0  0  0  0  0  0  0
  -29.8372  -20.3925   17.8582 C   0  0  0  0  0  0  0  0  0  0  0  0
  -19.8056  -28.7548   23.1966 C   0  0  0  0  0  0  0  0  0  0  0  0
  -25.6668  -10.7636   19.7791 C   0  0  0  0  0  0  0  0  0  0  0  0
  -21.4378  -22.0994   21.8987 C   0  0  0  0  0  0  0  0  0  0  0  0
  -20.6741  -19.7971   22.6887 C   0  0  0  0  0  0  0  0  0  0  0  0
  -25.8514  -28.1266   21.2806 C   0  0  0  0  0  0  0  0  0  0  0  0
  -29.6570  -21.4295   20.0381 C   0  0  0  0  0  0  0  0  0  0  0  0
  -25.9402  -26.7215   21.2969 C   0  0  0  0  0  0  0  0  0  0  0  0
  -29.9489  -21.5313   18.6704 C   0  0  0  0  0  0  0  0  0  0  0  0
  -26.5581  -13.1096   18.8244 C   0  0  0  0  0  0  0  0  0  0  0  0
  -21.0381  -24.7755   21.2198 C   0  0  0  0  0  0  0  0  0  0  0  0
  -29.4529  -19.1667   18.4011 C   0  0  0  0  0  0  0  0  0  0  0  0
  -20.0595  -26.8495   21.7330 C   0  0  0  0  0  0  0  0  0  0  0  0
  -18.4784  -28.3963   23.4330 C   0  0  0  0  0  0  0  0  0  0  0  0
  -20.5961  -27.9814   22.3466 C   0  0  0  0  0  0  0  0  0  0  0  0
  -21.6446  -20.7170   22.2486 C   0  0  0  0  0  0  0  0  0  0  0  0
  -26.4420  -11.9885   18.0282 C   0  0  0  0  0  0  0  0  0  0  0  0
  -26.1860  -12.9464   20.1431 C   0  0  0  0  0  0  0  0  0  0  0  0
  -21.3714  -18.6304   22.8862 C   0  0  0  0  0  0  0  0  0  0  0  0
  -19.2679  -19.9808   22.9000 C   0  0  0  0  0  0  0  0  0  0  0  0
  -28.2677  -24.2778   19.7922 C   0  0  0  0  0  0  0  0  0  0  0  0
  -25.0185  -14.9329   21.0681 C   0  0  0  0  0  0  0  0  0  0  0  0
  -31.1651  -25.1572   18.6285 C   0  0  0  0  0  0  0  0  0  0  0  0
  -34.0813  -24.2336   17.1154 C   0  0  0  0  0  0  0  0  0  0  0  0
  -26.1766  -28.9277   20.0448 C   0  0  0  0  0  0  0  0  0  0  0  0
  -29.7918  -22.6278   20.9370 C   0  0  0  0  0  0  0  0  0  0  0  0
  -30.3723  -22.8343   18.0448 C   0  0  0  0  0  0  0  0  0  0  0  0
  -26.9997  -28.1551   19.0172 C   0  0  0  0  0  0  0  0  0  0  0  0
  -26.3397  -17.7285   22.9829 C   0  0  0  0  0  0  0  0  0  0  0  0
  -26.4154  -26.7624   18.8033 C   0  0  0  0  0  0  0  0  0  0  0  0
  -25.1557  -18.6945   22.9700 C   0  0  0  0  0  0  0  0  0  0  0  0
  -26.4427  -16.9494   21.6743 C   0  0  0  0  0  0  0  0  0  0  0  0
  -24.0078  -17.1796   21.2966 C   0  0  0  0  0  0  0  0  0  0  0  0
  -26.4472  -25.9455   20.1007 C   0  0  1  0  0  0  0  0  0  0  0  0
  -29.6802  -23.9522   20.1881 C   0  0  1  0  0  0  0  0  0  0  0  0
  -23.8505  -17.9630   22.6105 C   0  0  2  0  0  0  0  0  0  0  0  0
  -26.8151  -12.0449   16.5832 C   0  0  0  0  0  0  0  0  0  0  0  0
  -26.5449  -13.6534   22.5439 C   0  0  0  0  0  0  0  0  0  0  0  0
  -36.2419  -25.1800   16.2587 C   0  0  0  0  0  0  0  0  0  0  0  0
  -29.4473  -13.8602   18.7906 C   0  0  0  0  0  0  0  0  0  0  0  0
  -29.7085  -26.2667   16.1877 C   0  0  0  0  0  0  0  0  0  0  0  0
  -31.9050  -26.3190   14.9874 C   0  0  0  0  0  0  0  0  0  0  0  0
  -31.5709  -27.7052   17.0342 C   0  0  0  0  0  0  0  0  0  0  0  0
  -35.6784  -22.5875   18.9858 C   0  0  0  0  0  0  0  0  0  0  0  0
  -27.0594  -14.4287   18.2876 C   0  0  0  0  0  0  0  0  0  0  0  0
  -28.9303  -15.7485   17.1670 C   0  0  0  0  0  0  0  0  0  0  0  0
  -28.9576  -16.8474   18.2238 C   0  0  0  0  0  0  0  0  0  1  0  0
  -26.2688  -14.0905   21.0995 C   0  0  1  0  0  0  0  0  0  0  0  0
  -31.7999  -25.1974   17.2594 C   0  0  1  0  0  0  0  0  0  0  0  0
  -35.5299  -24.5469   17.4441 C   0  0  2  0  0  0  0  0  0  0  0  0
  -28.4912  -14.3728   17.7074 C   0  0  1  0  0  0  0  0  0  0  0  0
  -31.2363  -26.3478   16.3783 C   0  0  0  0  0  0  0  0  0  0  0  0
  -25.9984  -10.7950   18.4743 N   0  0  0  0  0  0  0  0  0  0  0  0
  -25.7342  -11.7833   20.6562 N   0  0  0  0  0  0  0  0  0  0  0  0
  -22.8655  -20.1809   22.1711 N   0  0  0  0  0  0  0  0  0  0  0  0
  -22.6669  -18.9116   22.5652 N   0  0  0  0  0  0  0  0  0  0  0  0
  -30.4836  -23.9788   18.9641 N   0  0  0  0  0  0  0  0  0  0  0  0
  -25.1712  -16.2900   21.3534 N   0  0  0  0  0  0  0  0  0  0  0  0
  -20.9968  -17.4017   23.3014 N   0  0  0  0  0  0  0  0  0  0  0  0
  -18.7138  -21.2434   22.6487 N   0  0  0  0  0  0  0  0  0  0  0  0
  -27.7819  -25.4449   20.3502 N   0  0  0  0  0  0  0  0  0  0  0  0
  -33.2406  -25.2642   17.4793 N   0  0  0  0  0  0  0  0  0  0  0  0
  -36.2572  -23.3013   17.8186 N   0  3  0  0  0  0  0  0  0  0  0  0
  -18.5278  -19.0572   23.3156 O   0  0  0  0  0  0  0  0  0  0  0  0
  -27.6639  -23.5267   19.0353 O   0  0  0  0  0  0  0  0  0  0  0  0
  -23.9392  -14.3986   20.8007 O   0  0  0  0  0  0  0  0  0  0  0  0
  -31.2761  -26.1326   19.3754 O   0  0  0  0  0  0  0  0  0  0  0  0
  -33.7311  -23.1816   16.5852 O   0  0  0  0  0  0  0  0  0  0  0  0
  -20.8428  -26.0811   20.8882 O   0  0  0  0  0  0  0  0  0  0  0  0
  -29.3504  -18.0701   17.6018 O   0  0  0  0  0  0  0  0  0  1  0  0
  -17.7188  -29.1397   24.2481 F   0  0  0  0  0  0  0  0  0  0  0  0
  -21.8701  -28.3314   22.1224 F   0  0  0  0  0  0  0  0  0  0  0  0
  1  2  1  0  0  0  0
  1  5  2  0  0  0  0
  2  6  2  0  0  0  0
  3  8  2  0  0  0  0
  3 16  1  0  0  0  0
  4  9  1  0  0  0  0
  4 16  2  0  0  0  0
  5 18  1  0  0  0  0
  6 20  1  0  0  0  0
  7 10  2  0  0  0  0
  7 19  1  0  0  0  0
  8 23  1  0  0  0  0
  9 23  2  0  0  0  0
 10 24  1  0  0  0  0
 11 12  2  0  0  0  0
 11 25  1  0  0  0  0
 12 26  1  0  0  0  0
 13 21  1  0  0  0  0
 13 24  2  0  0  0  0
 14 26  2  0  0  0  0
 14 27  1  0  0  0  0
 15 65  1  0  0  0  0
 15 66  2  0  0  0  0
 16 28  1  0  0  0  0
 17 28  1  0  0  0  0
 17 31  2  0  0  0  0
 17 32  1  0  0  0  0
 18 20  2  0  0  0  0
 18 37  1  0  0  0  0
 19 21  2  0  0  0  0
 19 38  1  0  0  0  0
 20 46  1  0  0  0  0
 21 39  1  0  0  0  0
 22 29  1  0  0  0  0
 22 30  2  0  0  0  0
 22 57  1  0  0  0  0
 23 81  1  0  0  0  0
 24 82  1  0  0  0  0
 25 27  2  0  0  0  0
 25 81  1  0  0  0  0
 26 83  1  0  0  0  0
 27 84  1  0  0  0  0
 28 67  2  0  0  0  0
 29 49  1  0  0  0  0
 29 65  2  0  0  0  0
 30 60  1  0  0  0  0
 30 66  1  0  0  0  0
 31 68  1  0  0  0  0
 31 71  1  0  0  0  0
 32 72  1  0  0  0  0
 32 76  2  0  0  0  0
 33 47  1  0  0  0  0
 33 73  1  0  0  0  0
 33 77  2  0  0  0  0
 34 60  1  0  0  0  0
 34 70  1  0  0  0  0
 34 78  2  0  0  0  0
 35 61  1  0  0  0  0
 35 69  1  0  0  0  0
 35 79  2  0  0  0  0
 36 62  1  0  0  0  0
 36 74  1  0  0  0  0
 36 80  2  0  0  0  0
 37 40  1  0  0  0  0
 38 47  1  0  0  0  0
 39 69  1  0  0  0  0
 40 42  1  0  0  0  0
 41 43  1  0  0  0  0
 41 44  1  0  0  0  0
 42 46  1  0  0  0  0
 43 48  1  0  0  0  0
 44 70  1  0  0  0  0
 45 48  1  0  0  0  0
 45 70  1  0  0  0  0
 46 73  1  0  0  0  0
 47 69  1  0  0  0  0
 48 68  1  0  0  0  0
 50 60  1  0  0  0  0
 51 62  1  0  0  0  0
 52 63  1  0  0  0  0
 53 64  1  0  0  0  0
 54 64  1  0  0  0  0
 55 64  1  0  0  0  0
 56 75  1  0  0  0  0
 57 63  1  0  0  0  0
 58 59  1  0  0  0  0
 58 63  1  0  0  0  0
 59 82  1  0  0  0  0
 61 64  1  0  0  0  0
 61 74  1  0  0  0  0
 62 75  1  0  0  0  0
 67 68  1  0  0  0  0
M  CHG  1  75   1
M  ISO  4  34 100  59 101  60 100  82 101
M  END
> <Batch ID>
0057

> <Smiles>
CNC(C)C(=O)NC(C(=O)N1Cc2cc([101O:1][101CH2:1]CC(C)Cc3c(C)ncnc3[100CH:0](C)[100C:0](=O)N3CCCC(n4nc(-c5ccc(Oc6ccc(F)cc6F)cc5)c(C(N)=O)c4N)C3)ccc2CC1C(=O)NC1CCCc2ccccc21)C(C)(C)C

> <Shape>
0.209

> <Color>
0.059

> <Negative vol penalty>
0.000

$$$$

  -OEChem-04052317483D

 79 87  0     1  0  0  0  0  0999 V2000
  -26.6784  -11.4180   16.9893 C   0  0  0  0  0  0  0  0  0  0  0  0
  -25.7146  -11.3892   17.9909 C   0  0  0  0  0  0  0  0  0  0  0  0
  -25.4546  -28.0324   20.0705 C   0  0  0  0  0  0  0  0  0  0  0  0
  -25.4809  -25.6827   20.6319 C   0  0  0  0  0  0  0  0  0  0  0  0
  -27.9453  -11.9302   17.2609 C   0  0  0  0  0  0  0  0  0  0  0  0
  -26.0136  -11.8833   19.2611 C   0  0  0  0  0  0  0  0  0  0  0  0
  -26.7831  -18.5729   22.9910 C   0  0  0  0  0  0  0  0  0  0  0  0
  -24.1282  -27.9182   19.6545 C   0  0  0  0  0  0  0  0  0  0  0  0
  -24.1544  -25.5684   20.2159 C   0  0  0  0  0  0  0  0  0  0  0  0
  -27.2499  -19.7946   22.5079 C   0  0  0  0  0  0  0  0  0  0  0  0
  -21.0895  -26.2862   21.4454 C   0  0  0  0  0  0  0  0  0  0  0  0
  -20.2138  -25.5743   22.2651 C   0  0  0  0  0  0  0  0  0  0  0  0
  -25.9687  -19.4787   20.4885 C   0  0  0  0  0  0  0  0  0  0  0  0
  -19.7859  -24.0242   20.4620 C   0  0  0  0  0  0  0  0  0  0  0  0
  -29.0303  -22.5707   19.5108 C   0  0  0  0  0  0  0  0  0  0  0  0
  -30.2299  -20.7847   19.0334 C   0  0  0  0  0  0  0  0  0  0  0  0
  -26.1310  -26.9146   20.5592 C   0  0  0  0  0  0  0  0  0  0  0  0
  -27.9635  -27.3456   22.2808 C   0  0  0  0  0  0  0  0  0  0  0  0
  -28.2631  -12.4192   18.5387 C   0  0  0  0  0  0  0  0  0  0  0  0
  -25.9127  -17.7886   22.2206 C   0  0  0  0  0  0  0  0  0  0  0  0
  -27.2791  -12.4262   19.5482 C   0  0  0  0  0  0  0  0  0  0  0  0
  -25.4903  -18.2487   20.9652 C   0  0  0  0  0  0  0  0  0  0  0  0
  -23.4781  -26.6862   19.7272 C   0  0  0  0  0  0  0  0  0  0  0  0
  -26.8451  -20.2463   21.2552 C   0  0  0  0  0  0  0  0  0  0  0  0
  -21.3134  -25.8671   20.1339 C   0  0  0  0  0  0  0  0  0  0  0  0
  -19.5620  -24.4433   21.7735 C   0  0  0  0  0  0  0  0  0  0  0  0
  -20.6616  -24.7361   19.6422 C   0  0  0  0  0  0  0  0  0  0  0  0
  -27.5014  -27.0319   20.9886 C   0  0  0  0  0  0  0  0  0  0  0  0
  -28.4711  -21.4325   20.0422 C   0  0  0  0  0  0  0  0  0  1  0  0
  -29.3323  -27.3332   22.1684 C   0  0  0  0  0  0  0  0  0  0  0  0
  -27.2217  -27.6233   23.4759 C   0  0  0  0  0  0  0  0  0  0  0  0
  -26.0543  -14.8858   20.9331 C   0  0  0  0  0  0  0  0  0  0  0  0
  -22.9568  -15.4918   20.1846 C   0  0  0  0  0  0  0  0  0  0  0  0
  -33.0171  -24.5576   18.3174 C   0  0  0  0  0  0  0  0  0  0  0  0
  -20.5161  -17.8049   19.6020 C   0  0  0  0  0  0  0  0  0  0  0  0
  -29.6474  -12.9694   18.7757 C   0  0  0  0  0  0  0  0  0  0  0  0
  -25.3970  -16.4857   22.7673 C   0  0  0  0  0  0  0  0  0  0  0  0
  -24.5410  -17.4538   20.1075 C   0  0  0  0  0  0  0  0  0  0  0  0
  -30.0070  -13.0571   20.2553 C   0  0  0  0  0  0  0  0  0  0  0  0
  -32.8451  -28.0680   19.0159 C   0  0  0  0  0  0  0  0  0  0  0  0
  -28.8881  -13.7457   21.0223 C   0  0  0  0  0  0  0  0  0  0  0  0
  -31.4850  -28.2331   19.6927 C   0  0  0  0  0  0  0  0  0  0  0  0
  -32.8043  -26.9914   17.9358 C   0  0  0  0  0  0  0  0  0  0  0  0
  -30.9548  -25.8273   19.0959 C   0  0  0  0  0  0  0  0  0  0  0  0
  -27.5912  -12.9301   20.9458 C   0  0  1  0  0  0  0  0  0  0  0  0
  -24.9196  -15.5284   21.6796 C   0  0  1  0  0  0  0  0  0  0  0  0
  -30.9600  -26.8840   20.2148 C   0  0  2  0  0  0  0  0  0  0  0  0
  -18.0938  -17.9976   18.9752 C   0  0  0  0  0  0  0  0  0  0  0  0
  -32.2095  -23.4894   20.4007 C   0  0  0  0  0  0  0  0  0  0  0  0
  -33.4214  -22.1643   18.6619 C   0  0  0  0  0  0  0  0  0  0  0  0
  -23.6541  -14.8163   17.2919 C   0  0  0  0  0  0  0  0  0  0  0  0
  -21.5188  -15.9206   16.5925 C   0  0  0  0  0  0  0  0  0  0  0  0
  -21.4564  -13.9140   18.0732 C   0  0  0  0  0  0  0  0  0  0  0  0
  -19.8514  -19.1882   22.1326 C   0  0  0  0  0  0  0  0  0  0  0  0
  -31.0979  -22.9633   18.1489 C   0  0  0  0  0  0  0  0  0  0  0  0
  -22.2439  -16.1247   19.0140 C   0  0  1  0  0  0  0  0  0  0  0  0
  -19.0933  -17.9200   20.1187 C   0  0  2  0  0  0  0  0  0  0  0  0
  -32.4128  -23.3015   18.8926 C   0  0  0  0  0  0  0  0  0  0  0  0
  -22.2377  -15.2082   17.7580 C   0  0  0  0  0  0  0  0  0  0  0  0
  -29.2227  -20.3242   19.7415 N   0  0  0  0  0  0  0  0  0  0  0  0
  -28.4959  -26.8347   20.1191 N   0  0  0  0  0  0  0  0  0  0  0  0
  -30.1561  -22.1397   18.8673 N   0  0  0  0  0  0  0  0  0  0  0  0
  -29.5966  -27.0251   20.8663 N   0  0  0  0  0  0  0  0  0  0  0  0
  -24.0697  -16.1835   20.6833 N   0  0  0  0  0  0  0  0  0  0  0  0
  -32.2790  -25.7320   18.4659 N   0  0  0  0  0  0  0  0  0  0  0  0
  -30.3236  -27.5559   23.0573 N   0  0  0  0  0  0  0  0  0  0  0  0
  -25.8218  -27.5939   23.4154 N   0  0  0  0  0  0  0  0  0  0  0  0
  -26.5086  -13.7114   21.5021 N   0  0  0  0  0  0  0  0  0  0  0  0
  -20.9154  -16.4896   19.4939 N   0  0  0  0  0  0  0  0  0  0  0  0
  -18.9440  -19.1430   20.9572 N   0  3  0  0  0  0  0  0  0  0  0  0
  -27.7835  -27.9057   24.5614 O   0  0  0  0  0  0  0  0  0  0  0  0
  -26.4847  -15.4155   19.9153 O   0  0  0  0  0  0  0  0  0  0  0  0
  -22.5372  -14.4268   20.6442 O   0  0  0  0  0  0  0  0  0  0  0  0
  -34.1140  -24.4956   17.7559 O   0  0  0  0  0  0  0  0  0  0  0  0
  -21.2031  -18.7839   19.3188 O   0  0  0  0  0  0  0  0  0  0  0  0
  -22.1836  -26.5744   19.3215 O   0  0  0  0  0  0  0  0  0  0  0  0
  -27.2997  -21.4380   20.7810 O   0  0  0  0  0  0  0  0  0  1  0  0
  -18.7223  -23.7590   22.5613 F   0  0  0  0  0  0  0  0  0  0  0  0
  -20.8736  -24.3280   18.3835 F   0  0  0  0  0  0  0  0  0  0  0  0
  1  2  1  0  0  0  0
  1  5  2  0  0  0  0
  2  6  2  0  0  0  0
  3  8  2  0  0  0  0
  3 17  1  0  0  0  0
  4  9  1  0  0  0  0
  4 17  2  0  0  0  0
  5 19  1  0  0  0  0
  6 21  1  0  0  0  0
  7 10  2  0  0  0  0
  7 20  1  0  0  0  0
  8 23  1  0  0  0  0
  9 23  2  0  0  0  0
 10 24  1  0  0  0  0
 11 12  2  0  0  0  0
 11 25  1  0  0  0  0
 12 26  1  0  0  0  0
 13 22  1  0  0  0  0
 13 24  2  0  0  0  0
 14 26  2  0  0  0  0
 14 27  1  0  0  0  0
 15 29  2  0  0  0  0
 15 62  1  0  0  0  0
 16 60  2  0  0  0  0
 16 62  1  0  0  0  0
 17 28  1  0  0  0  0
 18 28  1  0  0  0  0
 18 30  2  0  0  0  0
 18 31  1  0  0  0  0
 19 21  2  0  0  0  0
 19 36  1  0  0  0  0
 20 22  2  0  0  0  0
 20 37  1  0  0  0  0
 21 45  1  0  0  0  0
 22 38  1  0  0  0  0
 23 76  1  0  0  0  0
 24 77  1  0  0  0  0
 25 27  2  0  0  0  0
 25 76  1  0  0  0  0
 26 78  1  0  0  0  0
 27 79  1  0  0  0  0
 28 61  2  0  0  0  0
 29 60  1  0  0  0  0
 29 77  1  0  0  0  0
 30 63  1  0  0  0  0
 30 66  1  0  0  0  0
 31 67  1  0  0  0  0
 31 71  2  0  0  0  0
 32 46  1  0  0  0  0
 32 68  1  0  0  0  0
 32 72  2  0  0  0  0
 33 56  1  0  0  0  0
 33 64  1  0  0  0  0
 33 73  2  0  0  0  0
 34 58  1  0  0  0  0
 34 65  1  0  0  0  0
 34 74  2  0  0  0  0
 35 57  1  0  0  0  0
 35 69  1  0  0  0  0
 35 75  2  0  0  0  0
 36 39  1  0  0  0  0
 37 46  1  0  0  0  0
 38 64  1  0  0  0  0
 39 41  1  0  0  0  0
 40 42  1  0  0  0  0
 40 43  1  0  0  0  0
 41 45  1  0  0  0  0
 42 47  1  0  0  0  0
 43 65  1  0  0  0  0
 44 47  1  0  0  0  0
 44 65  1  0  0  0  0
 45 68  1  0  0  0  0
 46 64  1  0  0  0  0
 47 63  1  0  0  0  0
 48 57  1  0  0  0  0
 49 58  1  0  0  0  0
 50 58  1  0  0  0  0
 51 59  1  0  0  0  0
 52 59  1  0  0  0  0
 53 59  1  0  0  0  0
 54 70  1  0  0  0  0
 55 58  1  0  0  0  0
 55 62  1  0  0  0  0
 56 59  1  0  0  0  0
 56 69  1  0  0  0  0
 57 70  1  0  0  0  0
 61 63  1  0  0  0  0
M  CHG  1  70   1
M  ISO  4  29 101  34 100  58 100  77 101
M  END
> <Batch ID>
0057

> <Smiles>
CNC(C)C(=O)NC(C(=O)N1Cc2cc([101O:1][101c:1]3cn(C[100C:0](C)(C)[100C:0](=O)N4CCCC(n5nc(-c6ccc(Oc7ccc(F)cc7F)cc6)c(C(N)=O)c5N)C4)cn3)ccc2CC1C(=O)NC1CCCc2ccccc21)C(C)(C)C

> <Shape>
0.188

> <Color>
0.075

> <Negative vol penalty>
0.000

$$$$

  -OEChem-04052317483D

 84 92  0     1  0  0  0  0  0999 V2000
  -28.7268  -24.4426   29.8804 C   0  0  0  0  0  0  0  0  0  0  0  0
  -28.8714  -24.5159   28.4986 C   0  0  0  0  0  0  0  0  0  0  0  0
  -27.9941  -13.1557   22.2115 C   0  0  0  0  0  0  0  0  0  0  0  0
  -27.0990  -14.1255   20.1877 C   0  0  0  0  0  0  0  0  0  0  0  0
  -27.4534  -24.4475   30.4481 C   0  0  0  0  0  0  0  0  0  0  0  0
  -27.7425  -24.5930   27.6837 C   0  0  0  0  0  0  0  0  0  0  0  0
  -28.2100  -28.0803   24.0416 C   0  0  0  0  0  0  0  0  0  0  0  0
  -27.1648  -12.0464   22.0468 C   0  0  0  0  0  0  0  0  0  0  0  0
  -26.2696  -13.0161   20.0230 C   0  0  0  0  0  0  0  0  0  0  0  0
  -28.9803  -27.7409   22.9302 C   0  0  0  0  0  0  0  0  0  0  0  0
  -23.3545  -11.8736   21.2988 C   0  0  0  0  0  0  0  0  0  0  0  0
  -22.0219  -12.1056   20.9582 C   0  0  0  0  0  0  0  0  0  0  0  0
  -26.9681  -27.2528   21.6923 C   0  0  0  0  0  0  0  0  0  0  0  0
  -22.3216  -10.8387   18.9230 C   0  0  0  0  0  0  0  0  0  0  0  0
  -29.5905  -23.4593   20.6699 C   0  0  0  0  0  0  0  0  0  0  0  0
  -29.1426  -23.9673   18.5728 C   0  0  0  0  0  0  0  0  0  0  0  0
  -27.9612  -14.1953   21.2820 C   0  0  0  0  0  0  0  0  0  0  0  0
  -30.1234  -15.5086   20.9538 C   0  0  0  0  0  0  0  0  0  0  0  0
  -26.3086  -24.5344   29.6403 C   0  0  0  0  0  0  0  0  0  0  0  0
  -26.8111  -27.9980   23.9901 C   0  0  0  0  0  0  0  0  0  0  0  0
  -26.4525  -24.5976   28.2411 C   0  0  0  0  0  0  0  0  0  0  0  0
  -26.1823  -27.5942   22.8036 C   0  0  0  0  0  0  0  0  0  0  0  0
  -26.3025  -11.9766   20.9526 C   0  0  0  0  0  0  0  0  0  0  0  0
  -28.3595  -27.3243   21.7562 C   0  0  0  0  0  0  0  0  0  0  0  0
  -24.1707  -11.1242   20.4515 C   0  0  0  0  0  0  0  0  0  0  0  0
  -21.5055  -11.5881   19.7703 C   0  0  0  0  0  0  0  0  0  0  0  0
  -23.6542  -10.6068   19.2636 C   0  0  0  0  0  0  0  0  0  0  0  0
  -28.8173  -15.3418   21.4518 C   0  0  0  0  0  0  0  0  0  0  0  0
  -28.6749  -22.5894   20.1263 C   0  0  0  0  0  0  0  0  0  0  0  0
  -30.4985  -16.7575   21.3853 C   0  0  0  0  0  0  0  0  0  0  0  0
  -30.9259  -14.6147   20.1711 C   0  0  0  0  0  0  0  0  0  0  0  0
  -24.6041  -26.3197   25.5447 C   0  0  0  0  0  0  0  0  0  0  0  0
  -22.5562  -28.1910   23.8635 C   0  0  0  0  0  0  0  0  0  0  0  0
  -22.0005  -30.1350   21.1141 C   0  0  0  0  0  0  0  0  0  0  0  0
  -26.9205  -21.4453   23.0470 C   0  0  0  0  0  0  0  0  0  0  0  0
  -24.9516  -24.4885   30.2969 C   0  0  0  0  0  0  0  0  0  0  0  0
  -25.9935  -28.3932   25.1891 C   0  0  0  0  0  0  0  0  0  0  0  0
  -24.6829  -27.5083   22.6903 C   0  0  0  0  0  0  0  0  0  0  0  0
  -23.8178  -24.9505   29.3851 C   0  0  0  0  0  0  0  0  0  0  0  0
  -29.7318  -19.9052   24.8981 C   0  0  0  0  0  0  0  0  0  0  0  0
  -23.9415  -24.3029   28.0095 C   0  0  0  0  0  0  0  0  0  0  0  0
  -29.8715  -18.5437   24.2191 C   0  0  0  0  0  0  0  0  0  0  0  0
  -28.3018  -20.4319   24.8237 C   0  0  0  0  0  0  0  0  0  0  0  0
  -27.8921  -19.1283   22.7629 C   0  0  0  0  0  0  0  0  0  0  0  0
  -25.2529  -24.7074   27.3252 C   0  0  1  0  0  0  0  0  0  0  0  0
  -24.5968  -27.7795   25.1886 C   0  0  1  0  0  0  0  0  0  0  0  0
  -29.3309  -18.5906   22.7794 C   0  0  2  0  0  0  0  0  0  0  0  0
  -32.9371  -24.1124   19.0374 C   0  0  0  0  0  0  0  0  0  0  0  0
  -31.7833  -27.6132   18.4147 C   0  0  0  0  0  0  0  0  0  0  0  0
  -20.2170  -31.5000   19.9945 C   0  0  0  0  0  0  0  0  0  0  0  0
  -21.2044  -25.6306   22.9008 C   0  0  0  0  0  0  0  0  0  0  0  0
  -20.0968  -26.9744   21.1020 C   0  0  0  0  0  0  0  0  0  0  0  0
  -19.6305  -27.4795   23.4999 C   0  0  0  0  0  0  0  0  0  0  0  0
  -26.0789  -22.8894   21.2343 C   0  0  0  0  0  0  0  0  0  0  0  0
  -23.6025  -32.6145   21.3259 C   0  0  0  0  0  0  0  0  0  0  0  0
  -28.0195  -21.4396   20.7678 C   0  0  0  0  0  0  0  0  0  0  0  0
  -32.2988  -25.0150   20.0894 C   0  0  0  0  0  0  0  0  0  0  0  0
  -30.8918  -26.3739   18.4166 C   0  0  0  0  0  0  0  0  0  0  0  0
  -30.4082  -26.4558   20.9170 C   0  0  0  0  0  0  0  0  0  1  0  0
  -21.8780  -28.0935   22.5183 C   0  0  1  0  0  0  0  0  0  0  0  0
  -21.3885  -31.5161   20.9640 C   0  0  2  0  0  0  0  0  0  0  0  0
  -20.7308  -27.0441   22.5077 C   0  0  0  0  0  0  0  0  0  0  0  0
  -30.8640  -25.5364   19.7428 C   0  0  0  0  0  0  0  0  0  0  0  0
  -28.4005  -22.9109   18.8205 N   0  0  0  0  0  0  0  0  0  0  0  0
  -28.3913  -16.3999   22.1467 N   0  0  0  0  0  0  0  0  0  0  0  0
  -29.8810  -24.3359   19.6628 N   0  0  0  0  0  0  0  0  0  0  0  0
  -29.4357  -17.2436   22.0885 N   0  0  0  0  0  0  0  0  0  0  0  0
  -23.9273  -27.8993   23.8918 N   0  0  0  0  0  0  0  0  0  0  0  0
  -27.7979  -20.4251   23.4499 N   0  0  0  0  0  0  0  0  0  0  0  0
  -31.6304  -17.4762   21.2282 N   0  0  0  0  0  0  0  0  0  0  0  0
  -30.3867  -13.3712   19.8146 N   0  0  0  0  0  0  0  0  0  0  0  0
  -25.1490  -26.0458   26.7847 N   0  0  0  0  0  0  0  0  0  0  0  0
  -21.4533  -29.4466   22.1762 N   0  0  0  0  0  0  0  0  0  0  0  0
  -26.9614  -21.8281   21.6977 N   0  0  0  0  0  0  0  0  0  0  0  0
  -22.4050  -32.4807   20.4568 N   0  3  0  0  0  0  0  0  0  0  0  0
  -32.0928  -14.9034   19.8127 O   0  0  0  0  0  0  0  0  0  0  0  0
  -24.1479  -25.5026   24.7536 O   0  0  0  0  0  0  0  0  0  0  0  0
  -21.8953  -28.5210   24.8514 O   0  0  0  0  0  0  0  0  0  0  0  0
  -22.8737  -29.7080   20.3620 O   0  0  0  0  0  0  0  0  0  0  0  0
  -26.1516  -21.9897   23.8496 O   0  0  0  0  0  0  0  0  0  0  0  0
  -25.4932  -10.8941   20.7914 O   0  0  0  0  0  0  0  0  0  0  0  0
  -29.1090  -26.9918   20.6701 O   0  0  0  0  0  0  0  0  0  1  0  0
  -20.2254  -11.8097   19.4441 F   0  0  0  0  0  0  0  0  0  0  0  0
  -24.4332   -9.8851   18.4461 F   0  0  0  0  0  0  0  0  0  0  0  0
  1  2  1  0  0  0  0
  1  5  2  0  0  0  0
  2  6  2  0  0  0  0
  3  8  2  0  0  0  0
  3 17  1  0  0  0  0
  4  9  1  0  0  0  0
  4 17  2  0  0  0  0
  5 19  1  0  0  0  0
  6 21  1  0  0  0  0
  7 10  2  0  0  0  0
  7 20  1  0  0  0  0
  8 23  1  0  0  0  0
  9 23  2  0  0  0  0
 10 24  1  0  0  0  0
 11 12  2  0  0  0  0
 11 25  1  0  0  0  0
 12 26  1  0  0  0  0
 13 22  1  0  0  0  0
 13 24  2  0  0  0  0
 14 26  2  0  0  0  0
 14 27  1  0  0  0  0
 15 29  2  0  0  0  0
 15 66  1  0  0  0  0
 16 64  2  0  0  0  0
 16 66  1  0  0  0  0
 17 28  1  0  0  0  0
 18 28  1  0  0  0  0
 18 30  2  0  0  0  0
 18 31  1  0  0  0  0
 19 21  2  0  0  0  0
 19 36  1  0  0  0  0
 20 22  2  0  0  0  0
 20 37  1  0  0  0  0
 21 45  1  0  0  0  0
 22 38  1  0  0  0  0
 23 81  1  0  0  0  0
 24 82  1  0  0  0  0
 25 27  2  0  0  0  0
 25 81  1  0  0  0  0
 26 83  1  0  0  0  0
 27 84  1  0  0  0  0
 28 65  2  0  0  0  0
 29 56  1  0  0  0  0
 29 64  1  0  0  0  0
 30 67  1  0  0  0  0
 30 70  1  0  0  0  0
 31 71  1  0  0  0  0
 31 76  2  0  0  0  0
 32 46  1  0  0  0  0
 32 72  1  0  0  0  0
 32 77  2  0  0  0  0
 33 60  1  0  0  0  0
 33 68  1  0  0  0  0
 33 78  2  0  0  0  0
 34 61  1  0  0  0  0
 34 73  1  0  0  0  0
 34 79  2  0  0  0  0
 35 69  1  0  0  0  0
 35 74  1  0  0  0  0
 35 80  2  0  0  0  0
 36 39  1  0  0  0  0
 37 46  1  0  0  0  0
 38 68  1  0  0  0  0
 39 41  1  0  0  0  0
 40 42  1  0  0  0  0
 40 43  1  0  0  0  0
 41 45  1  0  0  0  0
 42 47  1  0  0  0  0
 43 69  1  0  0  0  0
 44 47  1  0  0  0  0
 44 69  1  0  0  0  0
 45 72  1  0  0  0  0
 46 68  1  0  0  0  0
 47 67  1  0  0  0  0
 48 57  1  0  0  0  0
 49 58  1  0  0  0  0
 50 61  1  0  0  0  0
 51 62  1  0  0  0  0
 52 62  1  0  0  0  0
 53 62  1  0  0  0  0
 54 74  1  0  0  0  0
 55 75  1  0  0  0  0
 56 74  1  0  0  0  0
 57 63  1  0  0  0  0
 58 63  1  0  0  0  0
 59 63  1  0  0  0  0
 59 82  1  0  0  0  0
 60 62  1  0  0  0  0
 60 73  1  0  0  0  0
 61 75  1  0  0  0  0
 63 66  1  0  0  0  0
 65 67  1  0  0  0  0
M  CHG  1  75   1
M  ISO  4  35 100  59 101  74 100  82 101
M  END
> <Batch ID>
0057

> <Smiles>
CCC(CC)(n1cnc(C[100N:0](C)[100C:0](=O)N2CCCC(n3nc(-c4ccc(Oc5ccc(F)cc5F)cc4)c(C(N)=O)c3N)C2)c1)[101CH2:1][101O:1]c1ccc2c(c1)CN(C(=O)C(NC(=O)C(C)NC)C(C)(C)C)C(C(=O)NC1CCCc3ccccc31)C2

> <Shape>
0.228

> <Color>
0.062

> <Negative vol penalty>
0.000

$$$$

  -OEChem-04052317483D

 82 90  0     1  0  0  0  0  0999 V2000
  -20.1622  -17.1673   24.3885 C   0  0  0  0  0  0  0  0  0  0  0  0
  -21.3355  -17.9106   24.4677 C   0  0  0  0  0  0  0  0  0  0  0  0
  -27.2905  -17.4216   20.6773 C   0  0  0  0  0  0  0  0  0  0  0  0
  -29.0320  -17.9750   22.2578 C   0  0  0  0  0  0  0  0  0  0  0  0
  -19.1520  -17.5529   23.5084 C   0  0  0  0  0  0  0  0  0  0  0  0
  -21.4996  -19.0396   23.6658 C   0  0  0  0  0  0  0  0  0  0  0  0
  -23.3962  -22.9785   26.2217 C   0  0  0  0  0  0  0  0  0  0  0  0
  -27.5782  -16.0659   20.8349 C   0  0  0  0  0  0  0  0  0  0  0  0
  -29.3196  -16.6192   22.4155 C   0  0  0  0  0  0  0  0  0  0  0  0
  -24.7665  -22.9706   26.4786 C   0  0  0  0  0  0  0  0  0  0  0  0
  -28.0954  -12.4777   20.5504 C   0  0  0  0  0  0  0  0  0  0  0  0
  -28.1768  -11.6925   19.4005 C   0  0  0  0  0  0  0  0  0  0  0  0
  -25.1162  -24.4772   24.6273 C   0  0  0  0  0  0  0  0  0  0  0  0
  -29.9777  -13.0791   18.5812 C   0  0  0  0  0  0  0  0  0  0  0  0
  -31.4701  -25.9085   23.2262 C   0  0  0  0  0  0  0  0  0  0  0  0
  -28.0175  -18.3762   21.3887 C   0  0  0  0  0  0  0  0  0  0  0  0
  -26.8036  -20.5436   21.9688 C   0  0  0  0  0  0  0  0  0  0  0  0
  -19.2998  -18.6927   22.7024 C   0  0  0  0  0  0  0  0  0  0  0  0
  -22.8760  -23.7285   25.1571 C   0  0  0  0  0  0  0  0  0  0  0  0
  -20.4910  -19.4401   22.7732 C   0  0  0  0  0  0  0  0  0  0  0  0
  -23.7386  -24.4950   24.3606 C   0  0  0  0  0  0  0  0  0  0  0  0
  -28.5927  -15.6647   21.7041 C   0  0  0  0  0  0  0  0  0  0  0  0
  -25.6271  -23.7177   25.6796 C   0  0  0  0  0  0  0  0  0  0  0  0
  -28.9551  -13.5637   20.7158 C   0  0  0  0  0  0  0  0  0  0  0  0
  -29.1180  -11.9931   18.4159 C   0  0  0  0  0  0  0  0  0  0  0  0
  -29.8963  -13.8643   19.7312 C   0  0  0  0  0  0  0  0  0  0  0  0
  -27.7212  -19.7768   21.2259 C   0  0  0  0  0  0  0  0  0  0  0  0
  -30.4843  -26.8431   22.8796 C   0  0  0  0  0  0  0  0  0  0  0  0
  -26.8935  -21.8037   21.4298 C   0  0  0  0  0  0  0  0  0  0  0  0
  -25.9466  -20.1519   23.0494 C   0  0  0  0  0  0  0  0  0  0  0  0
  -21.2857  -23.0377   22.4930 C   0  0  0  0  0  0  0  0  0  0  0  0
  -21.1028  -26.2656   22.2284 C   0  0  0  0  0  0  0  0  0  0  0  0
  -22.4067  -29.3165   23.0276 C   0  0  0  0  0  0  0  0  0  0  0  0
  -30.4156  -25.9186   19.7036 C   0  0  0  0  0  0  0  0  0  0  0  0
  -18.1998  -19.0433   21.7320 C   0  0  0  0  0  0  0  0  0  0  0  0
  -21.3924  -23.7476   24.9097 C   0  0  0  0  0  0  0  0  0  0  0  0
  -23.2280  -25.3330   23.2180 C   0  0  0  0  0  0  0  0  0  0  0  0
  -18.2978  -20.4664   21.1884 C   0  0  0  0  0  0  0  0  0  0  0  0
  -29.1703  -23.4558   17.2367 C   0  0  0  0  0  0  0  0  0  0  0  0
  -19.7268  -20.7742   20.7527 C   0  0  0  0  0  0  0  0  0  0  0  0
  -28.6746  -22.3160   18.1251 C   0  0  0  0  0  0  0  0  0  0  0  0
  -30.2996  -24.2402   17.8978 C   0  0  0  0  0  0  0  0  0  0  0  0
  -29.4665  -23.6162   20.1408 C   0  0  0  0  0  0  0  0  0  0  0  0
  -20.6961  -20.6851   21.9377 C   0  0  1  0  0  0  0  0  0  0  0  0
  -21.0300  -24.1406   23.4809 C   0  0  1  0  0  0  0  0  0  0  0  0
  -28.2969  -22.8348   19.5235 C   0  0  2  0  0  0  0  0  0  0  0  0
  -27.7956  -28.0050   19.6781 C   0  0  0  0  0  0  0  0  0  0  0  0
  -22.0624  -31.7706   22.6325 C   0  0  0  0  0  0  0  0  0  0  0  0
  -22.2813  -25.9776   19.4287 C   0  0  0  0  0  0  0  0  0  0  0  0
  -22.7918  -28.4284   19.4672 C   0  0  0  0  0  0  0  0  0  0  0  0
  -20.4276  -27.6462   19.6138 C   0  0  0  0  0  0  0  0  0  0  0  0
  -21.9839  -29.8394   25.9098 C   0  0  0  0  0  0  0  0  0  0  0  0
  -30.2418  -27.4993   21.5880 C   0  0  0  0  0  0  0  0  0  0  0  0
  -28.8670  -25.0336   26.5526 C   0  0  0  0  0  0  0  0  0  0  0  0
  -29.7363  -26.2611   26.2712 C   0  0  0  0  0  0  0  0  0  0  0  0
  -28.1625  -26.7713   20.4778 C   0  0  0  0  0  0  0  0  0  0  0  0
  -27.6940  -24.8906   25.5898 C   0  0  0  0  0  0  0  0  0  1  0  0
  -21.9608  -27.3371   21.6002 C   0  0  1  0  0  0  0  0  0  0  0  0
  -21.7540  -30.5884   23.5381 C   0  0  2  0  0  0  0  0  0  0  0  0
  -21.8755  -27.3301   20.0477 C   0  0  0  0  0  0  0  0  0  0  0  0
  -31.3374  -25.5652   24.5105 N   0  0  0  0  0  0  0  0  0  0  0  0
  -28.3478  -20.4902   20.2865 N   0  0  0  0  0  0  0  0  0  0  0  0
  -29.7136  -27.1027   23.9395 N   0  0  0  0  0  0  0  0  0  0  0  0
  -27.8230  -21.7184   20.4354 N   0  0  0  0  0  0  0  0  0  0  0  0
  -30.2788  -26.3112   24.8652 N   0  0  0  0  0  0  0  0  0  0  0  0
  -21.7704  -25.3138   23.0123 N   0  0  0  0  0  0  0  0  0  0  0  0
  -29.9298  -24.6842   19.2422 N   0  0  0  0  0  0  0  0  0  0  0  0
  -26.2673  -22.9654   21.7142 N   0  0  0  0  0  0  0  0  0  0  0  0
  -25.9798  -18.8181   23.4787 N   0  0  0  0  0  0  0  0  0  0  0  0
  -20.5969  -21.8704   22.7620 N   0  0  0  0  0  0  0  0  0  0  0  0
  -21.5563  -28.5966   22.2152 N   0  0  0  0  0  0  0  0  0  0  0  0
  -29.6103  -26.6242   20.6105 N   0  0  0  0  0  0  0  0  0  0  0  0
  -22.2426  -30.9069   24.9095 N   0  3  0  0  0  0  0  0  0  0  0  0
  -25.1624  -20.9568   23.6067 O   0  0  0  0  0  0  0  0  0  0  0  0
  -22.0502  -23.2319   21.5551 O   0  0  0  0  0  0  0  0  0  0  0  0
  -19.8843  -26.2769   22.0368 O   0  0  0  0  0  0  0  0  0  0  0  0
  -23.5572  -28.9956   23.3174 O   0  0  0  0  0  0  0  0  0  0  0  0
  -31.5024  -26.3691   19.3192 O   0  0  0  0  0  0  0  0  0  0  0  0
  -28.8735  -14.3419   21.8583 O   0  0  0  0  0  0  0  0  0  0  0  0
  -26.9651  -23.7113   25.9277 O   0  0  0  0  0  0  0  0  0  1  0  0
  -29.1971  -11.2380   17.3124 F   0  0  0  0  0  0  0  0  0  0  0  0
  -30.7256  -14.9056   19.8849 F   0  0  0  0  0  0  0  0  0  0  0  0
  1  2  1  0  0  0  0
  1  5  2  0  0  0  0
  2  6  2  0  0  0  0
  3  8  2  0  0  0  0
  3 16  1  0  0  0  0
  4  9  1  0  0  0  0
  4 16  2  0  0  0  0
  5 18  1  0  0  0  0
  6 20  1  0  0  0  0
  7 10  2  0  0  0  0
  7 19  1  0  0  0  0
  8 22  1  0  0  0  0
  9 22  2  0  0  0  0
 10 23  1  0  0  0  0
 11 12  2  0  0  0  0
 11 24  1  0  0  0  0
 12 25  1  0  0  0  0
 13 21  1  0  0  0  0
 13 23  2  0  0  0  0
 14 25  2  0  0  0  0
 14 26  1  0  0  0  0
 15 28  1  0  0  0  0
 15 61  2  0  0  0  0
 16 27  1  0  0  0  0
 17 27  1  0  0  0  0
 17 29  2  0  0  0  0
 17 30  1  0  0  0  0
 18 20  2  0  0  0  0
 18 35  1  0  0  0  0
 19 21  2  0  0  0  0
 19 36  1  0  0  0  0
 20 44  1  0  0  0  0
 21 37  1  0  0  0  0
 22 79  1  0  0  0  0
 23 80  1  0  0  0  0
 24 26  2  0  0  0  0
 24 79  1  0  0  0  0
 25 81  1  0  0  0  0
 26 82  1  0  0  0  0
 27 62  2  0  0  0  0
 28 53  1  0  0  0  0
 28 63  2  0  0  0  0
 29 64  1  0  0  0  0
 29 68  1  0  0  0  0
 30 69  1  0  0  0  0
 30 74  2  0  0  0  0
 31 45  1  0  0  0  0
 31 70  1  0  0  0  0
 31 75  2  0  0  0  0
 32 58  1  0  0  0  0
 32 66  1  0  0  0  0
 32 76  2  0  0  0  0
 33 59  1  0  0  0  0
 33 71  1  0  0  0  0
 33 77  2  0  0  0  0
 34 67  1  0  0  0  0
 34 72  1  0  0  0  0
 34 78  2  0  0  0  0
 35 38  1  0  0  0  0
 36 45  1  0  0  0  0
 37 66  1  0  0  0  0
 38 40  1  0  0  0  0
 39 41  1  0  0  0  0
 39 42  1  0  0  0  0
 40 44  1  0  0  0  0
 41 46  1  0  0  0  0
 42 67  1  0  0  0  0
 43 46  1  0  0  0  0
 43 67  1  0  0  0  0
 44 70  1  0  0  0  0
 45 66  1  0  0  0  0
 46 64  1  0  0  0  0
 47 56  1  0  0  0  0
 48 59  1  0  0  0  0
 49 60  1  0  0  0  0
 50 60  1  0  0  0  0
 51 60  1  0  0  0  0
 52 73  1  0  0  0  0
 53 72  1  0  0  0  0
 54 55  1  0  0  0  0
 54 57  1  0  0  0  0
 55 65  1  0  0  0  0
 56 72  1  0  0  0  0
 57 80  1  0  0  0  0
 58 60  1  0  0  0  0
 58 71  1  0  0  0  0
 59 73  1  0  0  0  0
 61 65  1  0  0  0  0
 62 64  1  0  0  0  0
 63 65  1  0  0  0  0
M  CHG  1  73   1
M  ISO  4  34 100  57 101  72 100  80 101
M  END
> <Batch ID>
0057

> <Smiles>
CC[100N:0](Cc1cnn(CC[101CH2:1][101O:1]c2ccc3c(c2)CN(C(=O)C(NC(=O)C(C)NC)C(C)(C)C)C(C(=O)NC2CCCc4ccccc42)C3)n1)[100C:0](=O)N1CCCC(n2nc(-c3ccc(Oc4ccc(F)cc4F)cc3)c(C(N)=O)c2N)C1

> <Shape>
0.191

> <Color>
0.058

> <Negative vol penalty>
0.000

$$$$

  -OEChem-04052317483D

 86 94  0     1  0  0  0  0  0999 V2000
  -22.4421  -23.6211   22.5339 C   0  0  0  0  0  0  0  0  0  0  0  0
  -23.6516  -22.9400   22.4410 C   0  0  0  0  0  0  0  0  0  0  0  0
  -22.6655  -27.6370   21.2973 C   0  0  0  0  0  0  0  0  0  0  0  0
  -24.0128  -28.3788   23.1605 C   0  0  0  0  0  0  0  0  0  0  0  0
  -21.2878  -22.9403   22.9186 C   0  0  0  0  0  0  0  0  0  0  0  0
  -23.7077  -21.5778   22.7338 C   0  0  0  0  0  0  0  0  0  0  0  0
  -26.4053  -18.9692   19.3333 C   0  0  0  0  0  0  0  0  0  0  0  0
  -21.5313  -27.6582   22.1089 C   0  0  0  0  0  0  0  0  0  0  0  0
  -22.8786  -28.4000   23.9722 C   0  0  0  0  0  0  0  0  0  0  0  0
  -27.7941  -19.0403   19.4324 C   0  0  0  0  0  0  0  0  0  0  0  0
  -18.2205  -27.8638   23.5961 C   0  0  0  0  0  0  0  0  0  0  0  0
  -17.0601  -28.4351   23.0740 C   0  0  0  0  0  0  0  0  0  0  0  0
  -27.8183  -16.8999   20.5448 C   0  0  0  0  0  0  0  0  0  0  0  0
  -32.1989  -21.1644   16.7217 C   0  0  0  0  0  0  0  0  0  0  0  0
  -18.2180  -30.5380   22.8013 C   0  0  0  0  0  0  0  0  0  0  0  0
  -34.1784  -20.7971   17.9880 C   0  0  0  0  0  0  0  0  0  0  0  0
  -23.9062  -27.9972   21.8231 C   0  0  0  0  0  0  0  0  0  0  0  0
  -25.5827  -29.0296   20.2009 C   0  0  0  0  0  0  0  0  0  0  0  0
  -21.3279  -21.5670   23.2069 C   0  0  0  0  0  0  0  0  0  0  0  0
  -25.7104  -17.8661   19.8499 C   0  0  0  0  0  0  0  0  0  0  0  0
  -22.5531  -20.8783   23.1240 C   0  0  0  0  0  0  0  0  0  0  0  0
  -26.4209  -16.8161   20.4488 C   0  0  0  0  0  0  0  0  0  0  0  0
  -33.2363  -20.3163   17.0929 C   0  0  0  0  0  0  0  0  0  0  0  0
  -21.6378  -28.0397   23.4463 C   0  0  0  0  0  0  0  0  0  0  0  0
  -28.5006  -18.0069   20.0408 C   0  0  0  0  0  0  0  0  0  0  0  0
  -19.3797  -28.6296   23.7208 C   0  0  0  0  0  0  0  0  0  0  0  0
  -17.0588  -29.7722   22.6766 C   0  0  0  0  0  0  0  0  0  0  0  0
  -19.3785  -29.9667   23.3234 C   0  0  0  0  0  0  0  0  0  0  0  0
  -32.1362  -22.4493   17.2494 C   0  0  0  0  0  0  0  0  0  0  0  0
  -25.0783  -27.9750   20.9853 C   0  0  0  0  0  0  0  0  0  0  0  0
  -33.1274  -22.8346   18.1376 C   0  0  0  0  0  0  0  0  0  0  0  0
  -26.7020  -28.5063   19.6010 C   0  0  0  0  0  0  0  0  0  0  0  0
  -25.0842  -30.3629   20.0300 C   0  0  0  0  0  0  0  0  0  0  0  0
  -23.5123  -17.4573   22.1093 C   0  0  0  0  0  0  0  0  0  0  0  0
  -23.4998  -14.4093   20.9993 C   0  0  0  0  0  0  0  0  0  0  0  0
  -25.1606  -11.9123   19.3705 C   0  0  0  0  0  0  0  0  0  0  0  0
  -31.1490  -25.3382   19.6805 C   0  0  0  0  0  0  0  0  0  0  0  0
  -20.0633  -20.8842   23.6645 C   0  0  0  0  0  0  0  0  0  0  0  0
  -24.2145  -17.7921   19.7112 C   0  0  0  0  0  0  0  0  0  0  0  0
  -25.7238  -15.6005   21.0011 C   0  0  0  0  0  0  0  0  0  0  0  0
  -20.1343  -19.3609   23.5948 C   0  0  0  0  0  0  0  0  0  0  0  0
  -27.8685  -23.8991   20.8057 C   0  0  0  0  0  0  0  0  0  0  0  0
  -21.4449  -18.8596   24.1929 C   0  0  0  0  0  0  0  0  0  0  0  0
  -27.3251  -24.7474   19.6558 C   0  0  0  0  0  0  0  0  0  0  0  0
  -29.4009  -23.9035   20.8431 C   0  0  0  0  0  0  0  0  0  0  0  0
  -29.0872  -26.3444   20.6003 C   0  0  0  0  0  0  0  0  0  0  0  0
  -22.6494  -19.3953   23.4095 C   0  0  1  0  0  0  0  0  0  0  0  0
  -23.5653  -16.8615   20.7310 C   0  0  1  0  0  0  0  0  0  0  0  0
  -27.8603  -26.1987   19.6830 C   0  0  2  0  0  0  0  0  0  0  0  0
  -24.9076   -9.5219   18.6497 C   0  0  0  0  0  0  0  0  0  0  0  0
  -23.9883  -13.4949   23.8690 C   0  0  0  0  0  0  0  0  0  0  0  0
  -24.6639  -11.2590   22.9677 C   0  0  0  0  0  0  0  0  0  0  0  0
  -22.3462  -12.1031   22.5959 C   0  0  0  0  0  0  0  0  0  0  0  0
  -32.3658  -23.5486   20.9977 C   0  0  0  0  0  0  0  0  0  0  0  0
  -25.4411  -12.6234   16.5113 C   0  0  0  0  0  0  0  0  0  0  0  0
  -33.9758  -16.5975   17.1517 C   0  0  0  0  0  0  0  0  0  0  0  0
  -33.3329  -18.9244   16.5413 C   0  0  0  0  0  0  0  0  0  0  0  0
  -33.1248  -24.2005   18.7439 C   0  0  0  0  0  0  0  0  0  0  0  0
  -31.9496  -17.0728   19.5324 C   0  0  0  0  0  0  0  0  0  0  0  0
  -31.9131  -17.6117   18.1102 C   0  0  0  0  0  0  0  0  0  0  0  0
  -30.5698  -16.8383   20.1348 C   0  0  0  0  0  0  0  0  0  1  0  0
  -24.2652  -13.1497   21.3254 C   0  0  1  0  0  0  0  0  0  0  0  0
  -24.7313  -10.9793   18.2526 C   0  0  2  0  0  0  0  0  0  0  0  0
  -23.8292  -12.5253   22.6809 C   0  0  0  0  0  0  0  0  0  0  0  0
  -34.1506  -22.0388   18.5218 N   0  0  0  0  0  0  0  0  0  0  0  0
  -25.8165  -26.8656   20.8939 N   0  0  0  0  0  0  0  0  0  0  0  0
  -26.7961  -27.2201   20.0449 N   0  0  0  0  0  0  0  0  0  0  0  0
  -24.2598  -15.5776   20.8471 N   0  0  0  0  0  0  0  0  0  0  0  0
  -29.9770  -25.1954   20.4422 N   0  0  0  0  0  0  0  0  0  0  0  0
  -27.6050  -29.0255   18.7423 N   0  0  0  0  0  0  0  0  0  0  0  0
  -23.9228  -30.7357   20.7204 N   0  0  0  0  0  0  0  0  0  0  0  0
  -22.8229  -18.6528   22.1794 N   0  0  0  0  0  0  0  0  0  0  0  0
  -24.0999  -12.2632   20.1785 N   0  0  0  0  0  0  0  0  0  0  0  0
  -32.1234  -24.3360   19.7928 N   0  0  0  0  0  0  0  0  0  0  0  0
  -25.5396  -11.2335   17.0266 N   0  3  0  0  0  0  0  0  0  0  0  0
  -33.2859  -17.8596   17.6106 N   0  3  1  0  0  0  0  0  0  0  0  0
  -25.6425  -31.1940   19.2742 O   0  0  0  0  0  0  0  0  0  0  0  0
  -24.0554  -16.8747   23.0406 O   0  0  0  0  0  0  0  0  0  0  0  0
  -22.2734  -14.3572   20.8770 O   0  0  0  0  0  0  0  0  0  0  0  0
  -26.3215  -12.2890   19.5148 O   0  0  0  0  0  0  0  0  0  0  0  0
  -31.3105  -26.3056   18.9246 O   0  0  0  0  0  0  0  0  0  0  0  0
  -20.5313  -28.0608   24.2386 O   0  0  0  0  0  0  0  0  0  0  0  0
  -29.8562  -18.0741   20.1394 O   0  0  0  0  0  0  0  0  0  1  0  0
  -15.9448  -30.3202   22.1739 F   0  0  0  0  0  0  0  0  0  0  0  0
  -20.4894  -30.7070   23.4397 F   0  0  0  0  0  0  0  0  0  0  0  0
  -30.8512  -23.4964   16.7890 Cl  0  0  0  0  0  0  0  0  0  0  0  0
  1  2  1  0  0  0  0
  1  5  2  0  0  0  0
  2  6  2  0  0  0  0
  3  8  2  0  0  0  0
  3 17  1  0  0  0  0
  4  9  1  0  0  0  0
  4 17  2  0  0  0  0
  5 19  1  0  0  0  0
  6 21  1  0  0  0  0
  7 10  2  0  0  0  0
  7 20  1  0  0  0  0
  8 24  1  0  0  0  0
  9 24  2  0  0  0  0
 10 25  1  0  0  0  0
 11 12  2  0  0  0  0
 11 26  1  0  0  0  0
 12 27  1  0  0  0  0
 13 22  1  0  0  0  0
 13 25  2  0  0  0  0
 14 23  2  0  0  0  0
 14 29  1  0  0  0  0
 15 27  2  0  0  0  0
 15 28  1  0  0  0  0
 16 23  1  0  0  0  0
 16 65  2  0  0  0  0
 17 30  1  0  0  0  0
 18 30  1  0  0  0  0
 18 32  2  0  0  0  0
 18 33  1  0  0  0  0
 19 21  2  0  0  0  0
 19 38  1  0  0  0  0
 20 22  2  0  0  0  0
 20 39  1  0  0  0  0
 21 47  1  0  0  0  0
 22 40  1  0  0  0  0
 23 57  1  0  0  0  0
 24 82  1  0  0  0  0
 25 83  1  0  0  0  0
 26 28  2  0  0  0  0
 26 82  1  0  0  0  0
 27 84  1  0  0  0  0
 28 85  1  0  0  0  0
 29 31  2  0  0  0  0
 29 86  1  0  0  0  0
 30 66  2  0  0  0  0
 31 58  1  0  0  0  0
 31 65  1  0  0  0  0
 32 67  1  0  0  0  0
 32 70  1  0  0  0  0
 33 71  1  0  0  0  0
 33 77  2  0  0  0  0
 34 48  1  0  0  0  0
 34 72  1  0  0  0  0
 34 78  2  0  0  0  0
 35 62  1  0  0  0  0
 35 68  1  0  0  0  0
 35 79  2  0  0  0  0
 36 63  1  0  0  0  0
 36 73  1  0  0  0  0
 36 80  2  0  0  0  0
 37 69  1  0  0  0  0
 37 74  1  0  0  0  0
 37 81  2  0  0  0  0
 38 41  1  0  0  0  0
 39 48  1  0  0  0  0
 40 68  1  0  0  0  0
 41 43  1  0  0  0  0
 42 44  1  0  0  0  0
 42 45  1  0  0  0  0
 43 47  1  0  0  0  0
 44 49  1  0  0  0  0
 45 69  1  0  0  0  0
 46 49  1  0  0  0  0
 46 69  1  0  0  0  0
 47 72  1  0  0  0  0
 48 68  1  0  0  0  0
 49 67  1  0  0  0  0
 50 63  1  0  0  0  0
 51 64  1  0  0  0  0
 52 64  1  0  0  0  0
 53 64  1  0  0  0  0
 54 74  1  0  0  0  0
 55 75  1  0  0  0  0
 56 76  1  0  0  0  0
 57 76  1  0  0  0  0
 58 74  1  0  0  0  0
 59 60  1  0  0  0  0
 59 61  1  0  0  0  0
 60 76  1  0  0  0  0
 61 83  1  0  0  0  0
 62 64  1  0  0  0  0
 62 73  1  0  0  0  0
 63 75  1  0  0  0  0
 66 67  1  0  0  0  0
M  CHG  2  75   1  76   1
M  ISO  4  37 100  61 101  74 100  83 101
M  END
> <Batch ID>
0057

> <Smiles>
CNC(C)C(=O)NC(C(=O)N1Cc2cc([101O:1][101CH2:1]CCN(C)Cc3cnc(C[100N:0](C)[100C:0](=O)N4CCCC(n5nc(-c6ccc(Oc7ccc(F)cc7F)cc6)c(C(N)=O)c5N)C4)c(Cl)c3)ccc2CC1C(=O)NC1CCCc2ccccc21)C(C)(C)C

> <Shape>
0.209

> <Color>
0.069

> <Negative vol penalty>
0.000

$$$$

  -OEChem-04052317483D

 82 90  0     1  0  0  0  0  0999 V2000
  -22.9769  -31.9172   26.1897 C   0  0  0  0  0  0  0  0  0  0  0  0
  -23.8777  -31.0959   25.5193 C   0  0  0  0  0  0  0  0  0  0  0  0
  -24.5642  -14.0109   20.1043 C   0  0  0  0  0  0  0  0  0  0  0  0
  -26.4205  -13.9603   21.6499 C   0  0  0  0  0  0  0  0  0  0  0  0
  -21.6161  -31.6139   26.1769 C   0  0  0  0  0  0  0  0  0  0  0  0
  -23.4183  -29.9701   24.8366 C   0  0  0  0  0  0  0  0  0  0  0  0
  -25.5131  -29.4898   20.2512 C   0  0  0  0  0  0  0  0  0  0  0  0
  -24.5373  -12.6164   20.0909 C   0  0  0  0  0  0  0  0  0  0  0  0
  -26.3936  -12.5658   21.6365 C   0  0  0  0  0  0  0  0  0  0  0  0
  -26.8116  -28.9856   20.1940 C   0  0  0  0  0  0  0  0  0  0  0  0
  -23.3992  -10.1277   22.0768 C   0  0  0  0  0  0  0  0  0  0  0  0
  -22.1572   -9.5022   22.1853 C   0  0  0  0  0  0  0  0  0  0  0  0
  -25.9364  -26.8136   19.6148 C   0  0  0  0  0  0  0  0  0  0  0  0
  -22.5024   -8.4449   20.0405 C   0  0  0  0  0  0  0  0  0  0  0  0
  -28.6750  -24.6033   23.7609 C   0  0  0  0  0  0  0  0  0  0  0  0
  -25.5058  -14.6829   20.8838 C   0  0  0  0  0  0  0  0  0  0  0  0
  -24.8332  -16.9793   21.7680 C   0  0  0  0  0  0  0  0  0  0  0  0
  -21.1387  -30.4893   25.4856 C   0  0  0  0  0  0  0  0  0  0  0  0
  -24.4140  -28.6557   20.0008 C   0  0  0  0  0  0  0  0  0  0  0  0
  -22.0500  -29.6508   24.8157 C   0  0  0  0  0  0  0  0  0  0  0  0
  -24.6250  -27.3103   19.6669 C   0  0  0  0  0  0  0  0  0  0  0  0
  -29.2514  -25.7134   23.1779 C   0  0  0  0  0  0  0  0  0  0  0  0
  -25.4520  -11.8938   20.8570 C   0  0  0  0  0  0  0  0  0  0  0  0
  -27.0233  -27.6467   19.8786 C   0  0  0  0  0  0  0  0  0  0  0  0
  -24.1928   -9.9119   20.9502 C   0  0  0  0  0  0  0  0  0  0  0  0
  -21.7088   -8.6608   21.1671 C   0  0  0  0  0  0  0  0  0  0  0  0
  -23.7444   -9.0705   19.9320 C   0  0  0  0  0  0  0  0  0  0  0  0
  -25.5344  -16.1234   20.8976 C   0  0  0  0  0  0  0  0  0  0  0  0
  -29.6355  -25.5645   21.8609 C   0  0  0  0  0  0  0  0  0  0  0  0
  -25.1973  -18.2435   21.3734 C   0  0  0  0  0  0  0  0  0  0  0  0
  -28.9002  -23.4138   21.8370 C   0  0  0  0  0  0  0  0  0  0  0  0
  -23.9334  -16.6601   22.8376 C   0  0  0  0  0  0  0  0  0  0  0  0
  -21.9081  -27.6782   21.6945 C   0  0  0  0  0  0  0  0  0  0  0  0
  -21.0068  -26.3593   18.8713 C   0  0  0  0  0  0  0  0  0  0  0  0
  -21.9226  -25.1619   15.8095 C   0  0  0  0  0  0  0  0  0  0  0  0
  -29.0610  -21.9333   19.8051 C   0  0  0  0  0  0  0  0  0  0  0  0
  -19.6644  -30.1757   25.5397 C   0  0  0  0  0  0  0  0  0  0  0  0
  -23.0208  -29.2213   20.0402 C   0  0  0  0  0  0  0  0  0  0  0  0
  -23.4800  -26.3780   19.3697 C   0  0  0  0  0  0  0  0  0  0  0  0
  -19.2156  -29.1730   24.4798 C   0  0  0  0  0  0  0  0  0  0  0  0
  -27.7180  -19.8175   17.2759 C   0  0  0  0  0  0  0  0  0  0  0  0
  -20.1725  -27.9862   24.4286 C   0  0  0  0  0  0  0  0  0  0  0  0
  -26.9725  -18.7382   18.0642 C   0  0  0  0  0  0  0  0  0  0  0  0
  -29.0036  -20.2479   17.9799 C   0  0  0  0  0  0  0  0  0  0  0  0
  -28.0918  -19.5787   20.1685 C   0  0  0  0  0  0  0  0  0  0  0  0
  -21.5874  -28.4345   24.0431 C   0  0  1  0  0  0  0  0  0  0  0  0
  -21.9509  -28.1587   20.2715 C   0  0  1  0  0  0  0  0  0  0  0  0
  -26.7570  -19.1595   19.5311 C   0  0  2  0  0  0  0  0  0  0  0  0
  -30.3710  -26.8053   25.1548 C   0  0  0  0  0  0  0  0  0  0  0  0
  -28.0970  -27.5907   24.4016 C   0  0  0  0  0  0  0  0  0  0  0  0
  -20.9686  -24.1152   13.7379 C   0  0  0  0  0  0  0  0  0  0  0  0
  -20.7310  -23.7014   20.3442 C   0  0  0  0  0  0  0  0  0  0  0  0
  -20.7177  -22.5504   18.1208 C   0  0  0  0  0  0  0  0  0  0  0  0
  -18.9121  -24.1733   18.6940 C   0  0  0  0  0  0  0  0  0  0  0  0
  -22.8403  -27.4065   14.1128 C   0  0  0  0  0  0  0  0  0  0  0  0
  -30.2786  -26.7117   21.1202 C   0  0  0  0  0  0  0  0  0  0  0  0
  -29.2617  -27.7569   20.6747 C   0  0  0  0  0  0  0  0  0  1  0  0
  -29.4343  -26.9749   23.9407 C   0  0  0  0  0  0  0  0  0  0  0  0
  -21.2360  -25.0319   18.1899 C   0  0  1  0  0  0  0  0  0  0  0  0
  -21.3643  -25.4151   14.4208 C   0  0  2  0  0  0  0  0  0  0  0  0
  -20.4209  -23.8811   18.8447 C   0  0  0  0  0  0  0  0  0  0  0  0
  -28.4835  -23.4330   23.1174 N   0  0  0  0  0  0  0  0  0  0  0  0
  -26.2868  -16.7878   20.0164 N   0  0  0  0  0  0  0  0  0  0  0  0
  -29.4745  -24.4246   21.1574 N   0  0  0  0  0  0  0  0  0  0  0  0
  -26.0604  -18.0746   20.3311 N   0  0  0  0  0  0  0  0  0  0  0  0
  -22.1363  -26.9768   19.4272 N   0  0  0  0  0  0  0  0  0  0  0  0
  -28.7214  -20.6371   19.3633 N   0  0  0  0  0  0  0  0  0  0  0  0
  -24.8599  -19.4720   21.8199 N   0  0  0  0  0  0  0  0  0  0  0  0
  -23.6699  -15.3105   23.1088 N   0  0  0  0  0  0  0  0  0  0  0  0
  -28.7152  -22.2002   21.1294 N   0  0  0  0  0  0  0  0  0  0  0  0
  -21.6702  -28.6774   22.6188 N   0  0  0  0  0  0  0  0  0  0  0  0
  -20.9428  -25.2426   16.7764 N   0  0  0  0  0  0  0  0  0  0  0  0
  -22.3786  -26.1021   13.5721 N   0  3  0  0  0  0  0  0  0  0  0  0
  -23.3667  -17.5457   23.5217 O   0  0  0  0  0  0  0  0  0  0  0  0
  -22.0769  -26.4887   21.9359 O   0  0  0  0  0  0  0  0  0  0  0  0
  -19.8689  -26.8345   18.9027 O   0  0  0  0  0  0  0  0  0  0  0  0
  -23.1085  -24.9134   16.0156 O   0  0  0  0  0  0  0  0  0  0  0  0
  -29.5929  -22.7559   19.0551 O   0  0  0  0  0  0  0  0  0  0  0  0
  -25.4260  -10.5330   20.8444 O   0  0  0  0  0  0  0  0  0  0  0  0
  -28.2898  -27.1518   19.8228 O   0  0  0  0  0  0  0  0  0  1  0  0
  -20.5168   -8.0589   21.2721 F   0  0  0  0  0  0  0  0  0  0  0  0
  -24.5029   -8.8584   18.8478 F   0  0  0  0  0  0  0  0  0  0  0  0
  1  2  1  0  0  0  0
  1  5  2  0  0  0  0
  2  6  2  0  0  0  0
  3  8  2  0  0  0  0
  3 16  1  0  0  0  0
  4  9  1  0  0  0  0
  4 16  2  0  0  0  0
  5 18  1  0  0  0  0
  6 20  1  0  0  0  0
  7 10  2  0  0  0  0
  7 19  1  0  0  0  0
  8 23  1  0  0  0  0
  9 23  2  0  0  0  0
 10 24  1  0  0  0  0
 11 12  2  0  0  0  0
 11 25  1  0  0  0  0
 12 26  1  0  0  0  0
 13 21  1  0  0  0  0
 13 24  2  0  0  0  0
 14 26  2  0  0  0  0
 14 27  1  0  0  0  0
 15 22  1  0  0  0  0
 15 62  2  0  0  0  0
 16 28  1  0  0  0  0
 17 28  1  0  0  0  0
 17 30  2  0  0  0  0
 17 32  1  0  0  0  0
 18 20  2  0  0  0  0
 18 37  1  0  0  0  0
 19 21  2  0  0  0  0
 19 38  1  0  0  0  0
 20 46  1  0  0  0  0
 21 39  1  0  0  0  0
 22 29  2  0  0  0  0
 22 58  1  0  0  0  0
 23 79  1  0  0  0  0
 24 80  1  0  0  0  0
 25 27  2  0  0  0  0
 25 79  1  0  0  0  0
 26 81  1  0  0  0  0
 27 82  1  0  0  0  0
 28 63  2  0  0  0  0
 29 56  1  0  0  0  0
 29 64  1  0  0  0  0
 30 65  1  0  0  0  0
 30 68  1  0  0  0  0
 31 62  1  0  0  0  0
 31 64  2  0  0  0  0
 31 70  1  0  0  0  0
 32 69  1  0  0  0  0
 32 74  2  0  0  0  0
 33 47  1  0  0  0  0
 33 71  1  0  0  0  0
 33 75  2  0  0  0  0
 34 59  1  0  0  0  0
 34 66  1  0  0  0  0
 34 76  2  0  0  0  0
 35 60  1  0  0  0  0
 35 72  1  0  0  0  0
 35 77  2  0  0  0  0
 36 67  1  0  0  0  0
 36 70  1  0  0  0  0
 36 78  2  0  0  0  0
 37 40  1  0  0  0  0
 38 47  1  0  0  0  0
 39 66  1  0  0  0  0
 40 42  1  0  0  0  0
 41 43  1  0  0  0  0
 41 44  1  0  0  0  0
 42 46  1  0  0  0  0
 43 48  1  0  0  0  0
 44 67  1  0  0  0  0
 45 48  1  0  0  0  0
 45 67  1  0  0  0  0
 46 71  1  0  0  0  0
 47 66  1  0  0  0  0
 48 65  1  0  0  0  0
 49 58  1  0  0  0  0
 50 58  1  0  0  0  0
 51 60  1  0  0  0  0
 52 61  1  0  0  0  0
 53 61  1  0  0  0  0
 54 61  1  0  0  0  0
 55 73  1  0  0  0  0
 56 57  1  0  0  0  0
 57 80  1  0  0  0  0
 59 61  1  0  0  0  0
 59 72  1  0  0  0  0
 60 73  1  0  0  0  0
 63 65  1  0  0  0  0
M  CHG  1  73   1
M  ISO  4  36 100  57 101  70 100  80 101
M  END
> <Batch ID>
0057

> <Smiles>
CNC(C)C(=O)NC(C(=O)N1Cc2cc([101O:1][101CH2:1]Cc3nc([100NH:0][100C:0](=O)N4CCCC(n5nc(-c6ccc(Oc7ccc(F)cc7F)cc6)c(C(N)=O)c5N)C4)ncc3C(C)C)ccc2CC1C(=O)NC1CCCc2ccccc21)C(C)(C)C

> <Shape>
0.210

> <Color>
0.088

> <Negative vol penalty>
0.000

$$$$

  -OEChem-04052317483D

 81 89  0     1  0  0  0  0  0999 V2000
  -21.9894  -11.3673   19.2406 C   0  0  0  0  0  0  0  0  0  0  0  0
  -21.6527  -12.6941   19.4891 C   0  0  0  0  0  0  0  0  0  0  0  0
  -30.5850  -26.9278   19.9151 C   0  0  0  0  0  0  0  0  0  0  0  0
  -29.6181  -25.2852   21.3997 C   0  0  0  0  0  0  0  0  0  0  0  0
  -23.2435  -10.8859   19.6138 C   0  0  0  0  0  0  0  0  0  0  0  0
  -22.5697  -13.5400   20.1121 C   0  0  0  0  0  0  0  0  0  0  0  0
  -23.3529  -19.5245   19.0742 C   0  0  0  0  0  0  0  0  0  0  0  0
  -31.8616  -26.5629   20.3427 C   0  0  0  0  0  0  0  0  0  0  0  0
  -30.8947  -24.9202   21.8272 C   0  0  0  0  0  0  0  0  0  0  0  0
  -22.8964  -20.6600   19.7422 C   0  0  0  0  0  0  0  0  0  0  0  0
  -33.8800  -23.8042   23.5744 C   0  0  0  0  0  0  0  0  0  0  0  0
  -34.0818  -23.6372   24.9444 C   0  0  0  0  0  0  0  0  0  0  0  0
  -24.9820  -20.7816   20.9482 C   0  0  0  0  0  0  0  0  0  0  0  0
  -33.4487  -25.9386   25.3183 C   0  0  0  0  0  0  0  0  0  0  0  0
  -21.3665  -24.0104   23.1494 C   0  0  0  0  0  0  0  0  0  0  0  0
  -21.4443  -26.3718   21.9063 C   0  0  0  0  0  0  0  0  0  0  0  0
  -29.4633  -26.2890   20.4436 C   0  0  0  0  0  0  0  0  0  0  0  0
  -27.4192  -26.1199   18.9267 C   0  0  0  0  0  0  0  0  0  0  0  0
  -24.1798  -11.7288   20.2330 C   0  0  0  0  0  0  0  0  0  0  0  0
  -24.6253  -19.0019   19.3467 C   0  0  0  0  0  0  0  0  0  0  0  0
  -23.8370  -13.0690   20.4952 C   0  0  0  0  0  0  0  0  0  0  0  0
  -25.4533  -19.6409   20.2805 C   0  0  0  0  0  0  0  0  0  0  0  0
  -32.0164  -25.5591   21.2987 C   0  0  0  0  0  0  0  0  0  0  0  0
  -23.7098  -21.2870   20.6814 C   0  0  0  0  0  0  0  0  0  0  0  0
  -33.4626  -25.0385   23.0763 C   0  0  0  0  0  0  0  0  0  0  0  0
  -33.8661  -24.7043   25.8164 C   0  0  0  0  0  0  0  0  0  0  0  0
  -33.2469  -26.1056   23.9482 C   0  0  0  0  0  0  0  0  0  0  0  0
  -28.1443  -26.6659   20.0028 C   0  0  0  0  0  0  0  0  0  0  0  0
  -21.6659  -24.0979   21.8077 C   0  0  0  0  0  0  0  0  0  0  0  0
  -21.1441  -26.2844   23.2479 C   0  0  0  0  0  0  0  0  0  0  0  0
  -26.2340  -26.8139   18.9240 C   0  0  0  0  0  0  0  0  0  0  0  0
  -27.7845  -25.0784   18.0115 C   0  0  0  0  0  0  0  0  0  0  0  0
  -25.7199  -16.2482   20.4968 C   0  0  0  0  0  0  0  0  0  0  0  0
  -28.6050  -17.5368   19.7630 C   0  0  0  0  0  0  0  0  0  0  0  0
  -30.4707  -20.3416   19.2162 C   0  0  0  0  0  0  0  0  0  0  0  0
  -23.2061  -29.7290   23.1884 C   0  0  0  0  0  0  0  0  0  0  0  0
  -25.5054  -11.1507   20.6611 C   0  0  0  0  0  0  0  0  0  0  0  0
  -25.1133  -17.7919   18.5981 C   0  0  0  0  0  0  0  0  0  0  0  0
  -26.8354  -19.1314   20.5944 C   0  0  0  0  0  0  0  0  0  0  0  0
  -26.5580  -12.2099   20.9781 C   0  0  0  0  0  0  0  0  0  0  0  0
  -24.3807  -31.0641   20.1038 C   0  0  0  0  0  0  0  0  0  0  0  0
  -25.9651  -13.3046   21.8596 C   0  0  0  0  0  0  0  0  0  0  0  0
  -25.4131  -30.0390   19.6311 C   0  0  0  0  0  0  0  0  0  0  0  0
  -24.4032  -31.2288   21.6219 C   0  0  0  0  0  0  0  0  0  0  0  0
  -25.2928  -28.9486   21.9104 C   0  0  0  0  0  0  0  0  0  0  0  0
  -24.8137  -14.0239   21.1466 C   0  0  1  0  0  0  0  0  0  0  0  0
  -26.2259  -17.0461   19.3285 C   0  0  1  0  0  0  0  0  0  0  0  0
  -25.2694  -28.7069   20.3914 C   0  0  2  0  0  0  0  0  0  0  0  0
  -32.4687  -21.7228   18.5856 C   0  0  0  0  0  0  0  0  0  0  0  0
  -29.4483  -16.9736   22.6407 C   0  0  0  0  0  0  0  0  0  0  0  0
  -31.3683  -18.5465   22.3122 C   0  0  0  0  0  0  0  0  0  0  0  0
  -31.1996  -16.4803   20.9249 C   0  0  0  0  0  0  0  0  0  0  0  0
  -29.6940  -20.3715   16.3605 C   0  0  0  0  0  0  0  0  0  0  0  0
  -21.9575  -22.8610   21.0099 C   0  0  0  0  0  0  0  0  0  1  0  0
  -22.1079  -28.1066   24.7118 C   0  0  0  0  0  0  0  0  0  0  0  0
  -20.8552  -27.5116   24.0395 C   0  0  2  0  0  0  0  0  0  0  0  0
  -29.6084  -18.3969   20.4925 C   0  0  1  0  0  0  0  0  0  0  0  0
  -31.4455  -20.7031   18.1101 C   0  0  2  0  0  0  0  0  0  0  0  0
  -30.3794  -17.6080   21.5883 C   0  0  0  0  0  0  0  0  0  0  0  0
  -21.7105  -25.2801   21.1621 N   0  0  0  0  0  0  0  0  0  0  0  0
  -21.0998  -25.1021   23.8935 N   0  0  0  0  0  0  0  0  0  0  0  0
  -27.4756  -27.6324   20.6375 N   0  0  0  0  0  0  0  0  0  0  0  0
  -26.3180  -27.6992   19.9581 N   0  0  0  0  0  0  0  0  0  0  0  0
  -27.2649  -17.9417   19.8409 N   0  0  0  0  0  0  0  0  0  0  0  0
  -24.2610  -29.9292   22.2829 N   0  0  0  0  0  0  0  0  0  0  0  0
  -25.1385  -26.7471   18.1379 N   0  0  0  0  0  0  0  0  0  0  0  0
  -29.0395  -24.4716   18.1562 N   0  0  0  0  0  0  0  0  0  0  0  0
  -25.3297  -14.9627   20.1734 N   0  0  0  0  0  0  0  0  0  0  0  0
  -30.4631  -18.9858   19.4673 N   0  0  0  0  0  0  0  0  0  0  0  0
  -23.1402  -28.4668   23.7656 N   0  0  0  0  0  0  0  0  0  0  0  0
  -19.8200  -27.2922   25.1122 N   0  3  0  0  0  0  0  0  0  0  0  0
  -30.7162  -21.2777   16.9443 N   0  3  0  0  0  0  0  0  0  0  0  0
  -27.0271  -24.7085   17.0824 O   0  0  0  0  0  0  0  0  0  0  0  0
  -25.6874  -16.7604   21.6096 O   0  0  0  0  0  0  0  0  0  0  0  0
  -28.9966  -16.5463   19.1407 O   0  0  0  0  0  0  0  0  0  0  0  0
  -29.7872  -21.1786   19.8016 O   0  0  0  0  0  0  0  0  0  0  0  0
  -22.3807  -30.6082   23.4582 O   0  0  0  0  0  0  0  0  0  0  0  0
  -33.2619  -25.2025   21.7160 O   0  0  0  0  0  0  0  0  0  0  0  0
  -23.2665  -22.3951   21.3353 O   0  0  0  0  0  0  0  0  0  1  0  0
  -34.0584  -24.5433   27.1321 F   0  0  0  0  0  0  0  0  0  0  0  0
  -32.8448  -27.2934   23.4757 F   0  0  0  0  0  0  0  0  0  0  0  0
  1  2  1  0  0  0  0
  1  5  2  0  0  0  0
  2  6  2  0  0  0  0
  3  8  2  0  0  0  0
  3 17  1  0  0  0  0
  4  9  1  0  0  0  0
  4 17  2  0  0  0  0
  5 19  1  0  0  0  0
  6 21  1  0  0  0  0
  7 10  2  0  0  0  0
  7 20  1  0  0  0  0
  8 23  1  0  0  0  0
  9 23  2  0  0  0  0
 10 24  1  0  0  0  0
 11 12  2  0  0  0  0
 11 25  1  0  0  0  0
 12 26  1  0  0  0  0
 13 22  1  0  0  0  0
 13 24  2  0  0  0  0
 14 26  2  0  0  0  0
 14 27  1  0  0  0  0
 15 29  1  0  0  0  0
 15 61  2  0  0  0  0
 16 30  2  0  0  0  0
 16 60  1  0  0  0  0
 17 28  1  0  0  0  0
 18 28  1  0  0  0  0
 18 31  2  0  0  0  0
 18 32  1  0  0  0  0
 19 21  2  0  0  0  0
 19 37  1  0  0  0  0
 20 22  2  0  0  0  0
 20 38  1  0  0  0  0
 21 46  1  0  0  0  0
 22 39  1  0  0  0  0
 23 78  1  0  0  0  0
 24 79  1  0  0  0  0
 25 27  2  0  0  0  0
 25 78  1  0  0  0  0
 26 80  1  0  0  0  0
 27 81  1  0  0  0  0
 28 62  2  0  0  0  0
 29 54  1  0  0  0  0
 29 60  2  0  0  0  0
 30 56  1  0  0  0  0
 30 61  1  0  0  0  0
 31 63  1  0  0  0  0
 31 66  1  0  0  0  0
 32 67  1  0  0  0  0
 32 73  2  0  0  0  0
 33 47  1  0  0  0  0
 33 68  1  0  0  0  0
 33 74  2  0  0  0  0
 34 57  1  0  0  0  0
 34 64  1  0  0  0  0
 34 75  2  0  0  0  0
 35 58  1  0  0  0  0
 35 69  1  0  0  0  0
 35 76  2  0  0  0  0
 36 65  1  0  0  0  0
 36 70  1  0  0  0  0
 36 77  2  0  0  0  0
 37 40  1  0  0  0  0
 38 47  1  0  0  0  0
 39 64  1  0  0  0  0
 40 42  1  0  0  0  0
 41 43  1  0  0  0  0
 41 44  1  0  0  0  0
 42 46  1  0  0  0  0
 43 48  1  0  0  0  0
 44 65  1  0  0  0  0
 45 48  1  0  0  0  0
 45 65  1  0  0  0  0
 46 68  1  0  0  0  0
 47 64  1  0  0  0  0
 48 63  1  0  0  0  0
 49 58  1  0  0  0  0
 50 59  1  0  0  0  0
 51 59  1  0  0  0  0
 52 59  1  0  0  0  0
 53 72  1  0  0  0  0
 54 79  1  0  0  0  0
 55 56  1  0  0  0  0
 55 70  1  0  0  0  0
 56 71  1  0  0  0  0
 57 59  1  0  0  0  0
 57 69  1  0  0  0  0
 58 72  1  0  0  0  0
 62 63  1  0  0  0  0
M  CHG  2  71   1  72   1
M  ISO  4  36 100  54 101  70 100  79 101
M  END
> <Batch ID>
0057

> <Smiles>
CNC(C)C(=O)NC(C(=O)N1Cc2cc([101O:1][101CH2:1]c3cnc(C(N)C[100NH:0][100C:0](=O)N4CCCC(n5nc(-c6ccc(Oc7ccc(F)cc7F)cc6)c(C(N)=O)c5N)C4)cn3)ccc2CC1C(=O)NC1CCCc2ccccc21)C(C)(C)C

> <Shape>
0.218

> <Color>
0.065

> <Negative vol penalty>
0.000

$$$$

  -OEChem-04052317483D

 80 88  0     1  0  0  0  0  0999 V2000
  -35.7868  -28.4101   20.4224 C   0  0  0  0  0  0  0  0  0  0  0  0
  -35.0030  -27.2850   20.6573 C   0  0  0  0  0  0  0  0  0  0  0  0
  -23.6246   -9.5825   21.5066 C   0  0  0  0  0  0  0  0  0  0  0  0
  -24.1339  -10.6480   23.6143 C   0  0  0  0  0  0  0  0  0  0  0  0
  -35.1857  -29.6604   20.2832 C   0  0  0  0  0  0  0  0  0  0  0  0
  -33.6175  -27.4098   20.7543 C   0  0  0  0  0  0  0  0  0  0  0  0
  -31.1575  -23.8221   18.1617 C   0  0  0  0  0  0  0  0  0  0  0  0
  -23.0485   -8.5103   22.1877 C   0  0  0  0  0  0  0  0  0  0  0  0
  -23.5577   -9.5758   24.2955 C   0  0  0  0  0  0  0  0  0  0  0  0
  -31.0771  -22.5578   18.7439 C   0  0  0  0  0  0  0  0  0  0  0  0
  -24.4204   -6.4251   25.1671 C   0  0  0  0  0  0  0  0  0  0  0  0
  -25.1115   -5.9063   26.2621 C   0  0  0  0  0  0  0  0  0  0  0  0
  -28.8321  -23.0457   19.4793 C   0  0  0  0  0  0  0  0  0  0  0  0
  -23.2373   -6.4312   27.6936 C   0  0  0  0  0  0  0  0  0  0  0  0
  -30.1735  -16.5541   20.3431 C   0  0  0  0  0  0  0  0  0  0  0  0
  -30.6729  -18.6711   21.8912 C   0  0  0  0  0  0  0  0  0  0  0  0
  -24.1674  -10.6514   22.2198 C   0  0  0  0  0  0  0  0  0  0  0  0
  -24.1206  -12.9326   21.0790 C   0  0  0  0  0  0  0  0  0  0  0  0
  -33.7914  -29.7991   20.3690 C   0  0  0  0  0  0  0  0  0  0  0  0
  -30.0779  -24.7133   18.2436 C   0  0  0  0  0  0  0  0  0  0  0  0
  -32.9973  -28.6634   20.6175 C   0  0  0  0  0  0  0  0  0  0  0  0
  -28.9003  -24.3198   18.8952 C   0  0  0  0  0  0  0  0  0  0  0  0
  -23.0150   -8.5069   23.5822 C   0  0  0  0  0  0  0  0  0  0  0  0
  -29.9154  -22.1705   19.4052 C   0  0  0  0  0  0  0  0  0  0  0  0
  -23.1378   -6.9470   25.3354 C   0  0  0  0  0  0  0  0  0  0  0  0
  -24.5199   -5.9094   27.5253 C   0  0  0  0  0  0  0  0  0  0  0  0
  -22.5463   -6.9500   26.5986 C   0  0  0  0  0  0  0  0  0  0  0  0
  -24.7631  -11.7590   21.5168 C   0  0  0  0  0  0  0  0  0  0  0  0
  -30.1634  -16.4486   21.7165 C   0  0  0  0  0  0  0  0  0  0  0  0
  -30.6837  -18.7766   20.5178 C   0  0  0  0  0  0  0  0  0  0  0  0
  -25.1136  -13.6616   20.4716 C   0  0  0  0  0  0  0  0  0  0  0  0
  -22.7488  -13.3285   21.2098 C   0  0  0  0  0  0  0  0  0  0  0  0
  -29.6359  -27.5902   19.5211 C   0  0  0  0  0  0  0  0  0  0  0  0
  -26.7516  -27.3698   18.0534 C   0  0  0  0  0  0  0  0  0  0  0  0
  -24.3032  -25.3741   16.7613 C   0  0  0  0  0  0  0  0  0  0  0  0
  -31.1725  -13.2635   21.2897 C   0  0  0  0  0  0  0  0  0  0  0  0
  -33.1910  -31.1783   20.2590 C   0  0  0  0  0  0  0  0  0  0  0  0
  -30.1706  -26.0635   17.5873 C   0  0  0  0  0  0  0  0  0  0  0  0
  -27.7057  -25.2318   18.9934 C   0  0  0  0  0  0  0  0  0  0  0  0
  -31.6863  -31.1688   20.0020 C   0  0  0  0  0  0  0  0  0  0  0  0
  -29.2481  -13.1553   18.1296 C   0  0  0  0  0  0  0  0  0  0  0  0
  -30.9910  -30.1857   20.9385 C   0  0  0  0  0  0  0  0  0  0  0  0
  -27.8387  -12.8127   18.6094 C   0  0  0  0  0  0  0  0  0  0  0  0
  -30.3166  -12.6062   19.0701 C   0  0  0  0  0  0  0  0  0  0  0  0
  -28.7333  -12.6805   20.9680 C   0  0  0  0  0  0  0  0  0  0  0  0
  -31.4893  -28.7544   20.7045 C   0  0  1  0  0  0  0  0  0  0  0  0
  -29.1993  -27.0820   18.1762 C   0  0  1  0  0  0  0  0  0  0  0  0
  -27.6318  -13.2592   20.0673 C   0  0  2  0  0  0  0  0  0  0  0  0
  -22.0484  -25.4814   15.6651 C   0  0  0  0  0  0  0  0  0  0  0  0
  -25.4707  -27.9844   20.7537 C   0  0  0  0  0  0  0  0  0  0  0  0
  -23.2961  -27.1529   19.8330 C   0  0  0  0  0  0  0  0  0  0  0  0
  -24.4053  -29.1377   18.8071 C   0  0  0  0  0  0  0  0  0  0  0  0
  -32.1166  -14.5256   23.1859 C   0  0  0  0  0  0  0  0  0  0  0  0
  -25.3047  -24.0566   14.3077 C   0  0  0  0  0  0  0  0  0  0  0  0
  -29.8714  -15.1444   22.3723 C   0  0  0  0  0  0  0  0  0  0  0  0
  -30.9776  -20.0912   19.8568 C   0  0  0  0  0  0  0  0  0  1  0  0
  -25.3925  -26.8391   18.4411 C   0  0  1  0  0  0  0  0  0  0  0  0
  -23.5519  -25.4266   15.4433 C   0  0  2  0  0  0  0  0  0  0  0  0
  -24.6642  -27.7618   19.4587 C   0  0  0  0  0  0  0  0  0  0  0  0
  -30.4126  -17.5052   22.5152 N   0  0  0  0  0  0  0  0  0  0  0  0
  -30.4342  -17.7200   19.7191 N   0  0  0  0  0  0  0  0  0  0  0  0
  -26.0637  -11.7393   21.2131 N   0  0  0  0  0  0  0  0  0  0  0  0
  -26.2464  -12.9094   20.5779 N   0  0  0  0  0  0  0  0  0  0  0  0
  -27.8475  -26.5440   18.3413 N   0  0  0  0  0  0  0  0  0  0  0  0
  -30.0717  -13.0098   20.4551 N   0  0  0  0  0  0  0  0  0  0  0  0
  -25.1196  -14.8661   19.8621 N   0  0  0  0  0  0  0  0  0  0  0  0
  -21.8622  -12.4606   21.8619 N   0  0  0  0  0  0  0  0  0  0  0  0
  -30.8787  -28.1944   19.5180 N   0  0  0  0  0  0  0  0  0  0  0  0
  -24.6640  -26.6326   17.1940 N   0  0  0  0  0  0  0  0  0  0  0  0
  -31.0006  -14.2195   22.3022 N   0  0  0  0  0  0  0  0  0  0  0  0
  -23.8622  -24.2225   14.6219 N   0  3  0  0  0  0  0  0  0  0  0  0
  -22.3183  -14.4121   20.7474 O   0  0  0  0  0  0  0  0  0  0  0  0
  -28.8992  -27.4461   20.4897 O   0  0  0  0  0  0  0  0  0  0  0  0
  -26.8370  -28.4732   17.5085 O   0  0  0  0  0  0  0  0  0  0  0  0
  -24.5426  -24.3222   17.3501 O   0  0  0  0  0  0  0  0  0  0  0  0
  -32.2506  -12.6762   21.1325 O   0  0  0  0  0  0  0  0  0  0  0  0
  -22.4527   -7.4609   24.2472 O   0  0  0  0  0  0  0  0  0  0  0  0
  -29.8346  -20.9373   19.9749 O   0  0  0  0  0  0  0  0  0  1  0  0
  -25.1831   -5.4098   28.5764 F   0  0  0  0  0  0  0  0  0  0  0  0
  -21.3139   -7.4490   26.7662 F   0  0  0  0  0  0  0  0  0  0  0  0
  1  2  1  0  0  0  0
  1  5  2  0  0  0  0
  2  6  2  0  0  0  0
  3  8  2  0  0  0  0
  3 17  1  0  0  0  0
  4  9  1  0  0  0  0
  4 17  2  0  0  0  0
  5 19  1  0  0  0  0
  6 21  1  0  0  0  0
  7 10  2  0  0  0  0
  7 20  1  0  0  0  0
  8 23  1  0  0  0  0
  9 23  2  0  0  0  0
 10 24  1  0  0  0  0
 11 12  2  0  0  0  0
 11 25  1  0  0  0  0
 12 26  1  0  0  0  0
 13 22  1  0  0  0  0
 13 24  2  0  0  0  0
 14 26  2  0  0  0  0
 14 27  1  0  0  0  0
 15 29  2  0  0  0  0
 15 61  1  0  0  0  0
 16 30  1  0  0  0  0
 16 60  2  0  0  0  0
 17 28  1  0  0  0  0
 18 28  1  0  0  0  0
 18 31  2  0  0  0  0
 18 32  1  0  0  0  0
 19 21  2  0  0  0  0
 19 37  1  0  0  0  0
 20 22  2  0  0  0  0
 20 38  1  0  0  0  0
 21 46  1  0  0  0  0
 22 39  1  0  0  0  0
 23 77  1  0  0  0  0
 24 78  1  0  0  0  0
 25 27  2  0  0  0  0
 25 77  1  0  0  0  0
 26 79  1  0  0  0  0
 27 80  1  0  0  0  0
 28 62  2  0  0  0  0
 29 55  1  0  0  0  0
 29 60  1  0  0  0  0
 30 56  1  0  0  0  0
 30 61  2  0  0  0  0
 31 63  1  0  0  0  0
 31 66  1  0  0  0  0
 32 67  1  0  0  0  0
 32 72  2  0  0  0  0
 33 47  1  0  0  0  0
 33 68  1  0  0  0  0
 33 73  2  0  0  0  0
 34 57  1  0  0  0  0
 34 64  1  0  0  0  0
 34 74  2  0  0  0  0
 35 58  1  0  0  0  0
 35 69  1  0  0  0  0
 35 75  2  0  0  0  0
 36 65  1  0  0  0  0
 36 70  1  0  0  0  0
 36 76  2  0  0  0  0
 37 40  1  0  0  0  0
 38 47  1  0  0  0  0
 39 64  1  0  0  0  0
 40 42  1  0  0  0  0
 41 43  1  0  0  0  0
 41 44  1  0  0  0  0
 42 46  1  0  0  0  0
 43 48  1  0  0  0  0
 44 65  1  0  0  0  0
 45 48  1  0  0  0  0
 45 65  1  0  0  0  0
 46 68  1  0  0  0  0
 47 64  1  0  0  0  0
 48 63  1  0  0  0  0
 49 58  1  0  0  0  0
 50 59  1  0  0  0  0
 51 59  1  0  0  0  0
 52 59  1  0  0  0  0
 53 70  1  0  0  0  0
 54 71  1  0  0  0  0
 55 70  1  0  0  0  0
 56 78  1  0  0  0  0
 57 59  1  0  0  0  0
 57 69  1  0  0  0  0
 58 71  1  0  0  0  0
 62 63  1  0  0  0  0
M  CHG  1  71   1
M  ISO  4  36 100  56 101  70 100  78 101
M  END
> <Batch ID>
0057

> <Smiles>
CNC(C)C(=O)NC(C(=O)N1Cc2cc([101O:1][101CH2:1]c3cnc(C[100N:0](C)[100C:0](=O)N4CCCC(n5nc(-c6ccc(Oc7ccc(F)cc7F)cc6)c(C(N)=O)c5N)C4)cn3)ccc2CC1C(=O)NC1CCCc2ccccc21)C(C)(C)C

> <Shape>
0.248

> <Color>
0.159

> <Negative vol penalty>
0.000

$$$$

  -OEChem-04052317483D

 86 94  0     1  0  0  0  0  0999 V2000
  -23.6829  -31.0719   21.3822 C   0  0  0  0  0  0  0  0  0  0  0  0
  -23.4306  -29.7319   21.6585 C   0  0  0  0  0  0  0  0  0  0  0  0
  -23.2499   -9.7244   19.9598 C   0  0  0  0  0  0  0  0  0  0  0  0
  -23.4750  -10.0806   22.3388 C   0  0  0  0  0  0  0  0  0  0  0  0
  -24.9304  -31.4590   20.8945 C   0  0  0  0  0  0  0  0  0  0  0  0
  -24.4253  -28.7781   21.4462 C   0  0  0  0  0  0  0  0  0  0  0  0
  -25.4535  -23.7310   24.7591 C   0  0  0  0  0  0  0  0  0  0  0  0
  -22.4824   -8.5854   20.2029 C   0  0  0  0  0  0  0  0  0  0  0  0
  -22.7074   -8.9415   22.5819 C   0  0  0  0  0  0  0  0  0  0  0  0
  -25.0967  -22.3965   24.5707 C   0  0  0  0  0  0  0  0  0  0  0  0
  -23.1548   -5.5903   22.5872 C   0  0  0  0  0  0  0  0  0  0  0  0
  -23.6052   -4.7016   23.5633 C   0  0  0  0  0  0  0  0  0  0  0  0
  -27.2537  -21.9659   23.5801 C   0  0  0  0  0  0  0  0  0  0  0  0
  -21.5619   -5.0343   24.8089 C   0  0  0  0  0  0  0  0  0  0  0  0
  -26.8028  -17.8725   26.5806 C   0  0  0  0  0  0  0  0  0  0  0  0
  -23.7463  -10.4720   21.0278 C   0  0  0  0  0  0  0  0  0  0  0  0
  -24.0768  -12.9690   20.6236 C   0  0  0  0  0  0  0  0  0  0  0  0
  -25.9441  -30.5107   20.6853 C   0  0  0  0  0  0  0  0  0  0  0  0
  -26.7112  -24.1963   24.3488 C   0  0  0  0  0  0  0  0  0  0  0  0
  -25.6871  -29.1527   20.9540 C   0  0  0  0  0  0  0  0  0  0  0  0
  -27.6250  -23.3062   23.7668 C   0  0  0  0  0  0  0  0  0  0  0  0
  -22.2111   -8.1939   21.5139 C   0  0  0  0  0  0  0  0  0  0  0  0
  -25.9958  -21.5144   23.9785 C   0  0  0  0  0  0  0  0  0  0  0  0
  -21.9081   -6.2011   22.7219 C   0  0  0  0  0  0  0  0  0  0  0  0
  -22.8087   -4.4236   24.6742 C   0  0  0  0  0  0  0  0  0  0  0  0
  -21.1116   -5.9231   23.8327 C   0  0  0  0  0  0  0  0  0  0  0  0
  -24.5396  -11.6484   20.7773 C   0  0  0  0  0  0  0  0  0  0  0  0
  -28.4377  -17.1829   25.4052 C   0  0  0  0  0  0  0  0  0  0  0  0
  -27.3962  -17.3506   24.5234 C   0  0  0  0  0  0  0  0  0  0  0  0
  -25.2139  -13.7082   20.4062 C   0  0  0  0  0  0  0  0  0  0  0  0
  -22.7388  -13.4817   20.6729 C   0  0  0  0  0  0  0  0  0  0  0  0
  -27.7285  -26.3614   22.2557 C   0  0  0  0  0  0  0  0  0  0  0  0
  -30.6276  -25.6638   23.5328 C   0  0  0  0  0  0  0  0  0  0  0  0
  -32.5999  -23.4275   25.1928 C   0  0  0  0  0  0  0  0  0  0  0  0
  -30.9605  -12.8743   21.8665 C   0  0  0  0  0  0  0  0  0  0  0  0
  -27.2612  -30.9705   20.1120 C   0  0  0  0  0  0  0  0  0  0  0  0
  -27.0909  -25.6327   24.5835 C   0  0  0  0  0  0  0  0  0  0  0  0
  -28.9952  -23.7511   23.3272 C   0  0  0  0  0  0  0  0  0  0  0  0
  -28.3839  -29.9483   20.2691 C   0  0  0  0  0  0  0  0  0  0  0  0
  -29.6284  -13.3435   18.5981 C   0  0  0  0  0  0  0  0  0  0  0  0
  -27.9017  -28.5591   19.8636 C   0  0  0  0  0  0  0  0  0  0  0  0
  -28.1314  -13.0814   18.7721 C   0  0  0  0  0  0  0  0  0  0  0  0
  -30.4688  -12.4234   19.4808 C   0  0  0  0  0  0  0  0  0  0  0  0
  -28.6144  -12.1796   21.0856 C   0  0  0  0  0  0  0  0  0  0  0  0
  -26.7488  -28.0918   20.7601 C   0  0  1  0  0  0  0  0  0  0  0  0
  -28.2048  -26.1149   23.6593 C   0  0  1  0  0  0  0  0  0  0  0  0
  -27.7241  -13.1217   20.2573 C   0  0  2  0  0  0  0  0  0  0  0  0
  -34.9352  -23.1248   26.0601 C   0  0  0  0  0  0  0  0  0  0  0  0
  -31.6100  -25.1291   20.6939 C   0  0  0  0  0  0  0  0  0  0  0  0
  -33.5857  -23.9452   21.6752 C   0  0  0  0  0  0  0  0  0  0  0  0
  -33.2285  -26.3696   22.1417 C   0  0  0  0  0  0  0  0  0  0  0  0
  -31.6536  -23.1687   27.9851 C   0  0  0  0  0  0  0  0  0  0  0  0
  -29.8077  -16.7232   25.1270 C   0  0  0  0  0  0  0  0  0  0  0  0
  -24.9634  -18.1365   24.8203 C   0  0  0  0  0  0  0  0  0  0  0  0
  -31.2939  -13.3055   24.2876 C   0  0  0  0  0  0  0  0  0  0  0  0
  -31.2916  -14.8016   24.5402 C   0  0  0  0  0  0  0  0  0  0  0  0
  -24.7372  -19.6418   24.7305 C   0  0  0  0  0  0  0  0  0  1  0  0
  -31.7156  -24.6618   23.2309 C   0  0  1  0  0  0  0  0  0  0  0  0
  -33.5248  -23.5913   26.3854 C   0  0  2  0  0  0  0  0  0  0  0  0
  -27.2962  -17.1400   23.0682 C   0  0  0  0  0  0  0  0  0  0  0  0
  -32.5085  -25.0182   21.9418 C   0  0  0  0  0  0  0  0  0  0  0  0
  -28.0618  -17.5091   26.6842 N   0  0  0  0  0  0  0  0  0  0  0  0
  -25.8672  -11.5511   20.6668 N   0  0  0  0  0  0  0  0  0  0  0  0
  -26.3556  -17.7924   25.2911 N   0  0  0  0  0  0  0  0  0  0  0  0
  -26.2483  -12.8200   20.4413 N   0  0  0  0  0  0  0  0  0  0  0  0
  -29.3172  -25.1666   23.5723 N   0  0  0  0  0  0  0  0  0  0  0  0
  -30.0329  -12.5099   20.8766 N   0  0  0  0  0  0  0  0  0  0  0  0
  -25.4197  -15.0248   20.1904 N   0  0  0  0  0  0  0  0  0  0  0  0
  -21.6876  -12.5844   20.9059 N   0  0  0  0  0  0  0  0  0  0  0  0
  -27.2539  -27.6410   22.0392 N   0  0  0  0  0  0  0  0  0  0  0  0
  -32.5373  -24.5767   24.4335 N   0  0  0  0  0  0  0  0  0  0  0  0
  -30.4632  -12.9387   23.1624 N   0  0  0  0  0  0  0  0  0  0  0  0
  -33.0227  -22.7984   27.5430 N   0  3  0  0  0  0  0  0  0  0  0  0
  -29.9191  -15.2515   24.8759 N   0  3  0  0  0  0  0  0  0  0  0  0
  -22.4813  -14.6970   20.4988 O   0  0  0  0  0  0  0  0  0  0  0  0
  -27.7885  -25.4580   21.4299 O   0  0  0  0  0  0  0  0  0  0  0  0
  -30.9299  -26.8428   23.7333 O   0  0  0  0  0  0  0  0  0  0  0  0
  -31.9965  -22.3833   24.9563 O   0  0  0  0  0  0  0  0  0  0  0  0
  -32.1428  -13.1290   21.6133 O   0  0  0  0  0  0  0  0  0  0  0  0
  -21.4620   -7.0827   21.7515 O   0  0  0  0  0  0  0  0  0  0  0  0
  -25.6498  -20.2114   23.7929 O   0  0  0  0  0  0  0  0  0  1  0  0
  -23.2407   -3.5689   25.6107 F   0  0  0  0  0  0  0  0  0  0  0  0
  -19.9124   -6.5060   23.9671 F   0  0  0  0  0  0  0  0  0  0  0  0
  -28.4546  -16.6940   22.4809 F   0  0  0  0  0  0  0  0  0  0  0  0
  -26.3494  -16.2183   22.6951 F   0  0  0  0  0  0  0  0  0  0  0  0
  -26.9687  -18.2783   22.3763 F   0  0  0  0  0  0  0  0  0  0  0  0
  1  2  1  0  0  0  0
  1  5  2  0  0  0  0
  2  6  2  0  0  0  0
  3  8  2  0  0  0  0
  3 16  1  0  0  0  0
  4  9  1  0  0  0  0
  4 16  2  0  0  0  0
  5 18  1  0  0  0  0
  6 20  1  0  0  0  0
  7 10  2  0  0  0  0
  7 19  1  0  0  0  0
  8 22  1  0  0  0  0
  9 22  2  0  0  0  0
 10 23  1  0  0  0  0
 11 12  2  0  0  0  0
 11 24  1  0  0  0  0
 12 25  1  0  0  0  0
 13 21  1  0  0  0  0
 13 23  2  0  0  0  0
 14 25  2  0  0  0  0
 14 26  1  0  0  0  0
 15 62  2  0  0  0  0
 15 64  1  0  0  0  0
 16 27  1  0  0  0  0
 17 27  1  0  0  0  0
 17 30  2  0  0  0  0
 17 31  1  0  0  0  0
 18 20  2  0  0  0  0
 18 36  1  0  0  0  0
 19 21  2  0  0  0  0
 19 37  1  0  0  0  0
 20 45  1  0  0  0  0
 21 38  1  0  0  0  0
 22 80  1  0  0  0  0
 23 81  1  0  0  0  0
 24 26  2  0  0  0  0
 24 80  1  0  0  0  0
 25 82  1  0  0  0  0
 26 83  1  0  0  0  0
 27 63  2  0  0  0  0
 28 29  2  0  0  0  0
 28 53  1  0  0  0  0
 28 62  1  0  0  0  0
 29 60  1  0  0  0  0
 29 64  1  0  0  0  0
 30 65  1  0  0  0  0
 30 68  1  0  0  0  0
 31 69  1  0  0  0  0
 31 75  2  0  0  0  0
 32 46  1  0  0  0  0
 32 70  1  0  0  0  0
 32 76  2  0  0  0  0
 33 58  1  0  0  0  0
 33 66  1  0  0  0  0
 33 77  2  0  0  0  0
 34 59  1  0  0  0  0
 34 71  1  0  0  0  0
 34 78  2  0  0  0  0
 35 67  1  0  0  0  0
 35 72  1  0  0  0  0
 35 79  2  0  0  0  0
 36 39  1  0  0  0  0
 37 46  1  0  0  0  0
 38 66  1  0  0  0  0
 39 41  1  0  0  0  0
 40 42  1  0  0  0  0
 40 43  1  0  0  0  0
 41 45  1  0  0  0  0
 42 47  1  0  0  0  0
 43 67  1  0  0  0  0
 44 47  1  0  0  0  0
 44 67  1  0  0  0  0
 45 70  1  0  0  0  0
 46 66  1  0  0  0  0
 47 65  1  0  0  0  0
 48 59  1  0  0  0  0
 49 61  1  0  0  0  0
 50 61  1  0  0  0  0
 51 61  1  0  0  0  0
 52 73  1  0  0  0  0
 53 74  1  0  0  0  0
 54 57  1  0  0  0  0
 54 64  1  0  0  0  0
 55 56  1  0  0  0  0
 55 72  1  0  0  0  0
 56 74  1  0  0  0  0
 57 81  1  0  0  0  0
 58 61  1  0  0  0  0
 58 71  1  0  0  0  0
 59 73  1  0  0  0  0
 60 84  1  0  0  0  0
 60 85  1  0  0  0  0
 60 86  1  0  0  0  0
 63 65  1  0  0  0  0
M  CHG  2  73   1  74   1
M  ISO  4  35 100  57 101  72 100  81 101
M  END
> <Batch ID>
0057

> <Smiles>
CNC(C)C(=O)NC(C(=O)N1Cc2cc([101O:1][101CH2:1]Cn3cnc(CNCC[100NH:0][100C:0](=O)N4CCCC(n5nc(-c6ccc(Oc7ccc(F)cc7F)cc6)c(C(N)=O)c5N)C4)c3C(F)(F)F)ccc2CC1C(=O)NC1CCCc2ccccc21)C(C)(C)C

> <Shape>
0.202

> <Color>
0.193

> <Negative vol penalty>
0.000

$$$$

  -OEChem-04052317483D

 81 89  0     1  0  0  0  0  0999 V2000
  -18.7864  -33.1322   20.1855 C   0  0  0  0  0  0  0  0  0  0  0  0
  -20.0991  -32.7969   19.8699 C   0  0  0  0  0  0  0  0  0  0  0  0
  -28.7888  -17.5459   20.8849 C   0  0  0  0  0  0  0  0  0  0  0  0
  -31.1781  -17.9020   20.9227 C   0  0  0  0  0  0  0  0  0  0  0  0
  -18.2286  -32.7030   21.3891 C   0  0  0  0  0  0  0  0  0  0  0  0
  -20.8553  -32.0331   20.7582 C   0  0  0  0  0  0  0  0  0  0  0  0
  -25.0952  -27.8505   19.3316 C   0  0  0  0  0  0  0  0  0  0  0  0
  -28.9906  -16.1747   21.0421 C   0  0  0  0  0  0  0  0  0  0  0  0
  -31.3800  -16.5308   21.0800 C   0  0  0  0  0  0  0  0  0  0  0  0
  -26.4870  -27.9075   19.2742 C   0  0  0  0  0  0  0  0  0  0  0  0
  -28.8897  -12.5398   21.0729 C   0  0  0  0  0  0  0  0  0  0  0  0
  -28.1478  -11.6769   20.2664 C   0  0  0  0  0  0  0  0  0  0  0  0
  -34.2987  -26.5777   16.0928 C   0  0  0  0  0  0  0  0  0  0  0  0
  -26.6100  -27.0051   21.5080 C   0  0  0  0  0  0  0  0  0  0  0  0
  -29.1211  -12.6815   18.2964 C   0  0  0  0  0  0  0  0  0  0  0  0
  -34.6518  -25.9222   14.8981 C   0  0  0  0  0  0  0  0  0  0  0  0
  -29.8826  -18.4095   20.8251 C   0  0  0  0  0  0  0  0  0  0  0  0
  -29.5159  -20.7847   21.6807 C   0  0  0  0  0  0  0  0  0  0  0  0
  -18.9752  -31.9254   22.2883 C   0  0  0  0  0  0  0  0  0  0  0  0
  -24.4490  -27.3798   20.4836 C   0  0  0  0  0  0  0  0  0  0  0  0
  -20.3075  -31.5942   21.9756 C   0  0  0  0  0  0  0  0  0  0  0  0
  -25.2100  -26.9407   21.5765 C   0  0  0  0  0  0  0  0  0  0  0  0
  -30.2862  -15.6671   21.1397 C   0  0  0  0  0  0  0  0  0  0  0  0
  -27.2446  -27.4875   20.3636 C   0  0  0  0  0  0  0  0  0  0  0  0
  -29.7471  -13.4737   20.4913 C   0  0  0  0  0  0  0  0  0  0  0  0
  -28.2636  -11.7477   18.8781 C   0  0  0  0  0  0  0  0  0  0  0  0
  -29.8629  -13.5445   19.1030 C   0  0  0  0  0  0  0  0  0  0  0  0
  -29.6747  -19.8260   20.6621 C   0  0  0  0  0  0  0  0  0  0  0  0
  -33.3961  -25.7344   16.6933 C   0  0  0  0  0  0  0  0  0  0  0  0
  -29.3504  -21.9725   21.0114 C   0  0  0  0  0  0  0  0  0  0  0  0
  -29.5180  -20.6164   23.1045 C   0  0  0  0  0  0  0  0  0  0  0  0
  -22.4311  -28.6346   22.5949 C   0  0  0  0  0  0  0  0  0  0  0  0
  -31.0366  -23.7566   15.5263 C   0  0  0  0  0  0  0  0  0  0  0  0
  -22.3555  -25.6010   23.7411 C   0  0  0  0  0  0  0  0  0  0  0  0
  -23.9054  -22.5745   24.0325 C   0  0  0  0  0  0  0  0  0  0  0  0
  -18.3448  -31.5246   23.5985 C   0  0  0  0  0  0  0  0  0  0  0  0
  -22.9474  -27.2995   20.5196 C   0  0  0  0  0  0  0  0  0  0  0  0
  -24.5651  -26.4080   22.8290 C   0  0  0  0  0  0  0  0  0  0  0  0
  -19.0913  -30.4027   24.3157 C   0  0  0  0  0  0  0  0  0  0  0  0
  -27.7239  -23.7636   16.8925 C   0  0  0  0  0  0  0  0  0  0  0  0
  -20.5909  -30.6821   24.3279 C   0  0  0  0  0  0  0  0  0  0  0  0
  -27.8274  -22.8195   18.0897 C   0  0  0  0  0  0  0  0  0  0  0  0
  -28.6148  -23.3059   15.7419 C   0  0  0  0  0  0  0  0  0  0  0  0
  -30.1549  -22.1791   17.3167 C   0  0  0  0  0  0  0  0  0  0  0  0
  -21.1517  -30.7464   22.9021 C   0  0  1  0  0  0  0  0  0  0  0  0
  -22.3837  -27.2845   21.9371 C   0  0  1  0  0  0  0  0  0  0  0  0
  -29.2938  -22.6220   18.5128 C   0  0  2  0  0  0  0  0  0  0  0  0
  -33.0096  -22.2510   15.4013 C   0  0  0  0  0  0  0  0  0  0  0  0
  -23.6151  -20.3034   25.0598 C   0  0  0  0  0  0  0  0  0  0  0  0
  -23.0663  -26.7502   26.4768 C   0  0  0  0  0  0  0  0  0  0  0  0
  -23.6870  -24.4381   27.2095 C   0  0  0  0  0  0  0  0  0  0  0  0
  -21.3421  -24.9393   26.5220 C   0  0  0  0  0  0  0  0  0  0  0  0
  -23.9638  -21.2438   21.3896 C   0  0  0  0  0  0  0  0  0  0  0  0
  -32.6433  -25.8532   17.9945 C   0  0  0  0  0  0  0  0  0  0  0  0
  -31.2848  -26.5505   17.8624 C   0  0  0  0  0  0  0  0  0  0  0  0
  -30.5713  -26.7303   19.2031 C   0  0  0  0  0  0  0  0  0  0  0  0
  -29.2099  -27.3894   19.0279 C   0  0  0  0  0  0  0  0  0  1  0  0
  -32.4294  -23.5066   16.0473 C   0  0  1  0  0  0  0  0  0  0  0  0
  -23.1521  -24.8232   24.7607 C   0  0  1  0  0  0  0  0  0  0  0  0
  -23.3991  -21.1590   23.8212 C   0  0  2  0  0  0  0  0  0  0  0  0
  -22.8243  -25.2495   26.2195 C   0  0  0  0  0  0  0  0  0  0  0  0
  -34.0248  -24.7526   14.7469 N   0  0  0  0  0  0  0  0  0  0  0  0
  -29.6152  -20.3588   19.4387 N   0  0  0  0  0  0  0  0  0  0  0  0
  -33.2686  -24.6665   15.8546 N   0  0  0  0  0  0  0  0  0  0  0  0
  -29.4171  -21.6651   19.6843 N   0  0  0  0  0  0  0  0  0  0  0  0
  -23.0938  -26.3551   22.8181 N   0  0  0  0  0  0  0  0  0  0  0  0
  -29.9946  -23.1081   16.1894 N   0  0  0  0  0  0  0  0  0  0  0  0
  -29.1556  -23.2396   21.4344 N   0  0  0  0  0  0  0  0  0  0  0  0
  -29.7010  -19.3280   23.6248 N   0  0  0  0  0  0  0  0  0  0  0  0
  -21.3137  -29.4134   22.3622 N   0  0  0  0  0  0  0  0  0  0  0  0
  -22.9065  -23.4126   24.4809 N   0  0  0  0  0  0  0  0  0  0  0  0
  -24.1106  -20.5196   22.6784 N   0  3  0  0  0  0  0  0  0  0  0  0
  -29.3458  -21.5777   23.8918 O   0  0  0  0  0  0  0  0  0  0  0  0
  -23.4086  -28.9460   23.2652 O   0  0  0  0  0  0  0  0  0  0  0  0
  -30.8810  -24.5084   14.5605 O   0  0  0  0  0  0  0  0  0  0  0  0
  -21.1238  -25.5360   23.7585 O   0  0  0  0  0  0  0  0  0  0  0  0
  -25.0714  -22.9029   23.8245 O   0  0  0  0  0  0  0  0  0  0  0  0
  -30.4835  -14.3292   21.2934 O   0  0  0  0  0  0  0  0  0  0  0  0
  -28.6033  -27.5428   20.3104 O   0  0  0  0  0  0  0  0  0  1  0  0
  -27.5523  -10.9178   18.1037 F   0  0  0  0  0  0  0  0  0  0  0  0
  -30.6859  -14.4388   18.5385 F   0  0  0  0  0  0  0  0  0  0  0  0
  1  2  1  0  0  0  0
  1  5  2  0  0  0  0
  2  6  2  0  0  0  0
  3  8  2  0  0  0  0
  3 17  1  0  0  0  0
  4  9  1  0  0  0  0
  4 17  2  0  0  0  0
  5 19  1  0  0  0  0
  6 21  1  0  0  0  0
  7 10  2  0  0  0  0
  7 20  1  0  0  0  0
  8 23  1  0  0  0  0
  9 23  2  0  0  0  0
 10 24  1  0  0  0  0
 11 12  2  0  0  0  0
 11 25  1  0  0  0  0
 12 26  1  0  0  0  0
 13 16  1  0  0  0  0
 13 29  2  0  0  0  0
 14 22  1  0  0  0  0
 14 24  2  0  0  0  0
 15 26  2  0  0  0  0
 15 27  1  0  0  0  0
 16 62  2  0  0  0  0
 17 28  1  0  0  0  0
 18 28  1  0  0  0  0
 18 30  2  0  0  0  0
 18 31  1  0  0  0  0
 19 21  2  0  0  0  0
 19 36  1  0  0  0  0
 20 22  2  0  0  0  0
 20 37  1  0  0  0  0
 21 45  1  0  0  0  0
 22 38  1  0  0  0  0
 23 78  1  0  0  0  0
 24 79  1  0  0  0  0
 25 27  2  0  0  0  0
 25 78  1  0  0  0  0
 26 80  1  0  0  0  0
 27 81  1  0  0  0  0
 28 63  2  0  0  0  0
 29 54  1  0  0  0  0
 29 64  1  0  0  0  0
 30 65  1  0  0  0  0
 30 68  1  0  0  0  0
 31 69  1  0  0  0  0
 31 73  2  0  0  0  0
 32 46  1  0  0  0  0
 32 70  1  0  0  0  0
 32 74  2  0  0  0  0
 33 58  1  0  0  0  0
 33 67  1  0  0  0  0
 33 75  2  0  0  0  0
 34 59  1  0  0  0  0
 34 66  1  0  0  0  0
 34 76  2  0  0  0  0
 35 60  1  0  0  0  0
 35 71  1  0  0  0  0
 35 77  2  0  0  0  0
 36 39  1  0  0  0  0
 37 46  1  0  0  0  0
 38 66  1  0  0  0  0
 39 41  1  0  0  0  0
 40 42  1  0  0  0  0
 40 43  1  0  0  0  0
 41 45  1  0  0  0  0
 42 47  1  0  0  0  0
 43 67  1  0  0  0  0
 44 47  1  0  0  0  0
 44 67  1  0  0  0  0
 45 70  1  0  0  0  0
 46 66  1  0  0  0  0
 47 65  1  0  0  0  0
 48 58  1  0  0  0  0
 49 60  1  0  0  0  0
 50 61  1  0  0  0  0
 51 61  1  0  0  0  0
 52 61  1  0  0  0  0
 53 72  1  0  0  0  0
 54 55  1  0  0  0  0
 55 56  1  0  0  0  0
 56 57  1  0  0  0  0
 57 79  1  0  0  0  0
 58 64  1  0  0  0  0
 59 61  1  0  0  0  0
 59 71  1  0  0  0  0
 60 72  1  0  0  0  0
 62 64  1  0  0  0  0
 63 65  1  0  0  0  0
M  CHG  1  72   1
M  ISO  4  33 100  57 101  58 100  79 101
M  END
> <Batch ID>
0057

> <Smiles>
CNC(C)C(=O)NC(C(=O)N1Cc2cc([101O:1][101CH2:1]CCCc3ccnn3[100CH:0](C)[100C:0](=O)N3CCCC(n4nc(-c5ccc(Oc6ccc(F)cc6F)cc5)c(C(N)=O)c4N)C3)ccc2CC1C(=O)NC1CCCc2ccccc21)C(C)(C)C

> <Shape>
0.206

> <Color>
0.093

> <Negative vol penalty>
0.000

$$$$

  -OEChem-04052317483D

 85 93  0     1  0  0  0  0  0999 V2000
  -17.9643  -30.3510   23.2919 C   0  0  0  0  0  0  0  0  0  0  0  0
  -19.3401  -30.3552   23.0857 C   0  0  0  0  0  0  0  0  0  0  0  0
  -25.1763  -13.9678   19.8530 C   0  0  0  0  0  0  0  0  0  0  0  0
  -27.0996  -13.7060   21.2916 C   0  0  0  0  0  0  0  0  0  0  0  0
  -17.2710  -29.1421   23.3371 C   0  0  0  0  0  0  0  0  0  0  0  0
  -20.0237  -29.1504   22.9257 C   0  0  0  0  0  0  0  0  0  0  0  0
  -24.8818  -28.1220   19.3414 C   0  0  0  0  0  0  0  0  0  0  0  0
  -24.9353  -12.5958   19.9256 C   0  0  0  0  0  0  0  0  0  0  0  0
  -26.8585  -12.3341   21.3642 C   0  0  0  0  0  0  0  0  0  0  0  0
  -26.2492  -28.0674   19.6078 C   0  0  0  0  0  0  0  0  0  0  0  0
  -23.5610  -10.4209   22.1196 C   0  0  0  0  0  0  0  0  0  0  0  0
  -22.2475  -10.0040   22.3356 C   0  0  0  0  0  0  0  0  0  0  0  0
  -26.1099  -25.6666   19.7984 C   0  0  0  0  0  0  0  0  0  0  0  0
  -22.2862   -8.7976   20.2427 C   0  0  0  0  0  0  0  0  0  0  0  0
  -31.1688  -23.5905   21.9112 C   0  0  0  0  0  0  0  0  0  0  0  0
  -26.2585  -14.5229   20.5359 C   0  0  0  0  0  0  0  0  0  0  0  0
  -26.0049  -16.9384   21.3160 C   0  0  0  0  0  0  0  0  0  0  0  0
  -17.9450  -27.9224   23.1679 C   0  0  0  0  0  0  0  0  0  0  0  0
  -24.1148  -26.9484   19.3122 C   0  0  0  0  0  0  0  0  0  0  0  0
  -19.3390  -27.9240   22.9700 C   0  0  0  0  0  0  0  0  0  0  0  0
  -24.7335  -25.7089   19.5289 C   0  0  0  0  0  0  0  0  0  0  0  0
  -25.7763  -11.7790   20.6812 C   0  0  0  0  0  0  0  0  0  0  0  0
  -26.8629  -26.8398   19.8392 C   0  0  0  0  0  0  0  0  0  0  0  0
  -24.2371  -10.0262   20.9651 C   0  0  0  0  0  0  0  0  0  0  0  0
  -21.6101   -9.1924   21.3972 C   0  0  0  0  0  0  0  0  0  0  0  0
  -23.5997   -9.2146   20.0267 C   0  0  0  0  0  0  0  0  0  0  0  0
  -26.5084  -15.9399   20.4608 C   0  0  0  0  0  0  0  0  0  0  0  0
  -30.9278  -24.2778   20.7552 C   0  0  0  0  0  0  0  0  0  0  0  0
  -26.5319  -18.1082   20.8257 C   0  0  0  0  0  0  0  0  0  0  0  0
  -31.9429  -22.3835   20.2247 C   0  0  0  0  0  0  0  0  0  0  0  0
  -25.1383  -16.8192   22.4520 C   0  0  0  0  0  0  0  0  0  0  0  0
  -21.6538  -25.8348   20.9876 C   0  0  0  0  0  0  0  0  0  0  0  0
  -21.7355  -23.4525   18.7876 C   0  0  0  0  0  0  0  0  0  0  0  0
  -23.5484  -21.6779   16.5048 C   0  0  0  0  0  0  0  0  0  0  0  0
  -31.5177  -18.8750   17.3484 C   0  0  0  0  0  0  0  0  0  0  0  0
  -17.1600  -26.6388   23.2717 C   0  0  0  0  0  0  0  0  0  0  0  0
  -22.6459  -27.0219   18.9970 C   0  0  0  0  0  0  0  0  0  0  0  0
  -23.9586  -24.4180   19.4886 C   0  0  0  0  0  0  0  0  0  0  0  0
  -17.9021  -25.4246   22.7192 C   0  0  0  0  0  0  0  0  0  0  0  0
  -28.0804  -20.1253   16.7799 C   0  0  0  0  0  0  0  0  0  0  0  0
  -19.3389  -25.3986   23.2310 C   0  0  0  0  0  0  0  0  0  0  0  0
  -27.2436  -19.2223   17.6846 C   0  0  0  0  0  0  0  0  0  0  0  0
  -29.3516  -19.4293   16.3032 C   0  0  0  0  0  0  0  0  0  0  0  0
  -29.3553  -17.9857   18.3108 C   0  0  0  0  0  0  0  0  0  0  0  0
  -20.1121  -26.6390   22.7673 C   0  0  1  0  0  0  0  0  0  0  0  0
  -21.8656  -25.8115   19.5002 C   0  0  1  0  0  0  0  0  0  0  0  0
  -28.0903  -18.6733   18.8461 C   0  0  2  0  0  0  0  0  0  0  0  0
  -23.3531  -19.7665   14.8906 C   0  0  0  0  0  0  0  0  0  0  0  0
  -30.5295  -22.8655   17.5129 C   0  0  0  0  0  0  0  0  0  0  0  0
  -32.7767  -24.0104   17.7260 C   0  0  0  0  0  0  0  0  0  0  0  0
  -21.8604  -21.4799   21.1121 C   0  0  0  0  0  0  0  0  0  0  0  0
  -22.6106  -19.7251   19.4915 C   0  0  0  0  0  0  0  0  0  0  0  0
  -20.3665  -20.7829   19.2314 C   0  0  0  0  0  0  0  0  0  0  0  0
  -33.5382  -18.3718   18.6690 C   0  0  0  0  0  0  0  0  0  0  0  0
  -24.1830  -23.4136   14.1931 C   0  0  0  0  0  0  0  0  0  0  0  0
  -30.2669  -25.6164   20.5322 C   0  0  0  0  0  0  0  0  0  0  0  0
  -31.8684  -19.9132   19.6291 C   0  0  0  0  0  0  0  0  0  0  0  0
  -28.7609  -25.4926   20.3278 C   0  0  0  0  0  0  0  0  0  1  0  0
  -32.5766  -21.2812   19.4594 C   0  0  2  0  0  0  0  0  0  0  0  0
  -22.4391  -22.1212   18.6790 C   0  0  1  0  0  0  0  0  0  0  0  0
  -23.2455  -21.2724   15.0736 C   0  0  2  0  0  0  0  0  0  0  0  0
  -31.3753  -23.8532   18.3191 C   0  0  0  0  0  0  0  0  0  0  0  0
  -21.8337  -21.0516   19.6312 C   0  0  0  0  0  0  0  0  0  0  0  0
  -27.2947  -16.4324   19.5000 N   0  0  0  0  0  0  0  0  0  0  0  0
  -31.4175  -23.5080   19.7278 N   0  0  0  0  0  0  0  0  0  0  0  0
  -27.2892  -17.7531   19.7484 N   0  0  0  0  0  0  0  0  0  0  0  0
  -31.7974  -22.4223   21.5531 N   0  3  0  0  0  0  0  0  0  0  0  0
  -22.5239  -24.5426   19.1826 N   0  0  0  0  0  0  0  0  0  0  0  0
  -30.1152  -18.8793   17.4238 N   0  0  0  0  0  0  0  0  0  0  0  0
  -26.4166  -19.3956   21.2152 N   0  0  0  0  0  0  0  0  0  0  0  0
  -24.6894  -15.5431   22.8189 N   0  0  0  0  0  0  0  0  0  0  0  0
  -34.0019  -21.1034   19.8154 N   0  0  0  0  0  0  0  0  0  0  0  0
  -20.5083  -26.4992   21.3824 N   0  0  0  0  0  0  0  0  0  0  0  0
  -22.4023  -21.7540   17.2675 N   0  0  0  0  0  0  0  0  0  0  0  0
  -32.2235  -18.9872   18.5558 N   0  0  0  0  0  0  0  0  0  0  0  0
  -24.1999  -21.9291   14.1361 N   0  3  0  0  0  0  0  0  0  0  0  0
  -24.7598  -17.8164   23.1121 O   0  0  0  0  0  0  0  0  0  0  0  0
  -22.4686  -25.2892   21.7225 O   0  0  0  0  0  0  0  0  0  0  0  0
  -20.5325  -23.5239   18.5245 O   0  0  0  0  0  0  0  0  0  0  0  0
  -24.6882  -21.9010   16.9069 O   0  0  0  0  0  0  0  0  0  0  0  0
  -32.1054  -18.7861   16.2627 O   0  0  0  0  0  0  0  0  0  0  0  0
  -25.5413  -10.4402   20.7525 O   0  0  0  0  0  0  0  0  0  0  0  0
  -28.1974  -26.7837   20.1001 O   0  0  0  0  0  0  0  0  0  1  0  0
  -20.3494   -8.7909   21.6055 F   0  0  0  0  0  0  0  0  0  0  0  0
  -24.2445   -8.8312   18.9163 F   0  0  0  0  0  0  0  0  0  0  0  0
  1  2  1  0  0  0  0
  1  5  2  0  0  0  0
  2  6  2  0  0  0  0
  3  8  2  0  0  0  0
  3 16  1  0  0  0  0
  4  9  1  0  0  0  0
  4 16  2  0  0  0  0
  5 18  1  0  0  0  0
  6 20  1  0  0  0  0
  7 10  2  0  0  0  0
  7 19  1  0  0  0  0
  8 22  1  0  0  0  0
  9 22  2  0  0  0  0
 10 23  1  0  0  0  0
 11 12  2  0  0  0  0
 11 24  1  0  0  0  0
 12 25  1  0  0  0  0
 13 21  1  0  0  0  0
 13 23  2  0  0  0  0
 14 25  2  0  0  0  0
 14 26  1  0  0  0  0
 15 28  2  0  0  0  0
 15 67  1  0  0  0  0
 16 27  1  0  0  0  0
 17 27  1  0  0  0  0
 17 29  2  0  0  0  0
 17 31  1  0  0  0  0
 18 20  2  0  0  0  0
 18 36  1  0  0  0  0
 19 21  2  0  0  0  0
 19 37  1  0  0  0  0
 20 45  1  0  0  0  0
 21 38  1  0  0  0  0
 22 82  1  0  0  0  0
 23 83  1  0  0  0  0
 24 26  2  0  0  0  0
 24 82  1  0  0  0  0
 25 84  1  0  0  0  0
 26 85  1  0  0  0  0
 27 64  2  0  0  0  0
 28 56  1  0  0  0  0
 28 65  1  0  0  0  0
 29 66  1  0  0  0  0
 29 70  1  0  0  0  0
 30 59  1  0  0  0  0
 30 65  1  0  0  0  0
 30 67  2  0  0  0  0
 31 71  1  0  0  0  0
 31 77  2  0  0  0  0
 32 46  1  0  0  0  0
 32 73  1  0  0  0  0
 32 78  2  0  0  0  0
 33 60  1  0  0  0  0
 33 68  1  0  0  0  0
 33 79  2  0  0  0  0
 34 61  1  0  0  0  0
 34 74  1  0  0  0  0
 34 80  2  0  0  0  0
 35 69  1  0  0  0  0
 35 75  1  0  0  0  0
 35 81  2  0  0  0  0
 36 39  1  0  0  0  0
 37 46  1  0  0  0  0
 38 68  1  0  0  0  0
 39 41  1  0  0  0  0
 40 42  1  0  0  0  0
 40 43  1  0  0  0  0
 41 45  1  0  0  0  0
 42 47  1  0  0  0  0
 43 69  1  0  0  0  0
 44 47  1  0  0  0  0
 44 69  1  0  0  0  0
 45 73  1  0  0  0  0
 46 68  1  0  0  0  0
 47 66  1  0  0  0  0
 48 61  1  0  0  0  0
 49 62  1  0  0  0  0
 50 62  1  0  0  0  0
 51 63  1  0  0  0  0
 52 63  1  0  0  0  0
 53 63  1  0  0  0  0
 54 75  1  0  0  0  0
 55 76  1  0  0  0  0
 56 58  1  0  0  0  0
 57 59  1  0  0  0  0
 57 75  1  0  0  0  0
 58 83  1  0  0  0  0
 59 72  1  0  0  0  0
 60 63  1  0  0  0  0
 60 74  1  0  0  0  0
 61 76  1  0  0  0  0
 62 65  1  0  0  0  0
 64 66  1  0  0  0  0
M  CHG  2  67   1  76   1
M  ISO  4  35 100  58 101  75 100  83 101
M  END
> <Batch ID>
0057

> <Smiles>
CNC(C)C(=O)NC(C(=O)N1Cc2cc([101O:1][101CH2:1]Cc3cnc(C(N)C[100N:0](C)[100C:0](=O)N4CCCC(n5nc(-c6ccc(Oc7ccc(F)cc7F)cc6)c(C(N)=O)c5N)C4)n3C(C)C)ccc2CC1C(=O)NC1CCCc2ccccc21)C(C)(C)C

> <Shape>
0.200

> <Color>
0.057

> <Negative vol penalty>
0.000

$$$$

  -OEChem-04052317483D

 84 92  0     1  0  0  0  0  0999 V2000
  -22.6787  -11.0366   18.9022 C   0  0  0  0  0  0  0  0  0  0  0  0
  -22.0808  -12.2459   19.2422 C   0  0  0  0  0  0  0  0  0  0  0  0
  -29.3261  -27.3494   19.3917 C   0  0  0  0  0  0  0  0  0  0  0  0
  -28.4551  -28.9307   17.7861 C   0  0  0  0  0  0  0  0  0  0  0  0
  -23.9936  -10.7779   19.2868 C   0  0  0  0  0  0  0  0  0  0  0  0
  -22.7973  -13.1968   19.9682 C   0  0  0  0  0  0  0  0  0  0  0  0
  -22.4092  -19.2864   19.4463 C   0  0  0  0  0  0  0  0  0  0  0  0
  -30.5322  -27.3038   18.6926 C   0  0  0  0  0  0  0  0  0  0  0  0
  -29.6612  -28.8852   17.0870 C   0  0  0  0  0  0  0  0  0  0  0  0
  -21.7214  -20.2490   20.1839 C   0  0  0  0  0  0  0  0  0  0  0  0
  -33.7142  -26.4975   17.1279 C   0  0  0  0  0  0  0  0  0  0  0  0
  -34.2862  -25.2460   16.8993 C   0  0  0  0  0  0  0  0  0  0  0  0
  -23.7118  -20.6692   21.4804 C   0  0  0  0  0  0  0  0  0  0  0  0
  -32.3157  -24.5687   15.6765 C   0  0  0  0  0  0  0  0  0  0  0  0
  -19.9173  -25.2495   24.8950 C   0  0  0  0  0  0  0  0  0  0  0  0
  -22.0338  -24.4969   24.4665 C   0  0  0  0  0  0  0  0  0  0  0  0
  -28.2875  -28.1628   18.9385 C   0  0  0  0  0  0  0  0  0  0  0  0
  -26.6980  -29.0850   20.7078 C   0  0  0  0  0  0  0  0  0  0  0  0
  -24.7297  -11.7300   20.0095 C   0  0  0  0  0  0  0  0  0  0  0  0
  -23.7527  -18.9996   19.7280 C   0  0  0  0  0  0  0  0  0  0  0  0
  -24.1229  -12.9500   20.3640 C   0  0  0  0  0  0  0  0  0  0  0  0
  -24.4151  -19.7042   20.7433 C   0  0  0  0  0  0  0  0  0  0  0  0
  -30.6998  -28.0717   17.5402 C   0  0  0  0  0  0  0  0  0  0  0  0
  -22.3718  -20.9386   21.2030 C   0  0  0  0  0  0  0  0  0  0  0  0
  -32.4429  -26.7845   16.6308 C   0  0  0  0  0  0  0  0  0  0  0  0
  -33.5870  -24.2816   16.1736 C   0  0  0  0  0  0  0  0  0  0  0  0
  -31.7437  -25.8201   15.9051 C   0  0  0  0  0  0  0  0  0  0  0  0
  -27.0411  -28.2098   19.6599 C   0  0  0  0  0  0  0  0  0  0  0  0
  -19.4026  -24.2684   24.0764 C   0  0  0  0  0  0  0  0  0  0  0  0
  -21.5192  -23.5153   23.6485 C   0  0  0  0  0  0  0  0  0  0  0  0
  -25.4166  -28.7267   21.0487 C   0  0  0  0  0  0  0  0  0  0  0  0
  -27.4685  -30.1287   21.3183 C   0  0  0  0  0  0  0  0  0  0  0  0
  -25.3407  -16.4225   20.6977 C   0  0  0  0  0  0  0  0  0  0  0  0
  -27.9318  -18.3065   20.1885 C   0  0  0  0  0  0  0  0  0  0  0  0
  -29.2201  -21.4573   19.9453 C   0  0  0  0  0  0  0  0  0  0  0  0
  -20.2882  -27.4672   19.6135 C   0  0  0  0  0  0  0  0  0  0  0  0
  -26.1325  -11.3860   20.4439 C   0  0  0  0  0  0  0  0  0  0  0  0
  -24.4881  -17.9773   18.9056 C   0  0  0  0  0  0  0  0  0  0  0  0
  -25.8625  -19.4481   21.0718 C   0  0  0  0  0  0  0  0  0  0  0  0
  -26.9472  -12.5983   20.8877 C   0  0  0  0  0  0  0  0  0  0  0  0
  -22.6435  -24.7205   19.6882 C   0  0  0  0  0  0  0  0  0  0  0  0
  -26.1285  -13.4761   21.8290 C   0  0  0  0  0  0  0  0  0  0  0  0
  -23.9768  -25.4654   19.7748 C   0  0  0  0  0  0  0  0  0  0  0  0
  -21.6561  -25.4572   18.7880 C   0  0  0  0  0  0  0  0  0  0  0  0
  -22.7371  -27.6200   19.2644 C   0  0  0  0  0  0  0  0  0  0  0  0
  -24.8757  -14.0166   21.1293 C   0  0  1  0  0  0  0  0  0  0  0  0
  -25.7077  -17.4018   19.6188 C   0  0  1  0  0  0  0  0  0  0  0  0
  -23.7711  -26.9375   20.1783 C   0  0  2  0  0  0  0  0  0  0  0  0
  -31.3780  -22.6789   19.5597 C   0  0  0  0  0  0  0  0  0  0  0  0
  -28.7990  -17.6710   23.0440 C   0  0  0  0  0  0  0  0  0  0  0  0
  -30.3782  -19.6099   22.9218 C   0  0  0  0  0  0  0  0  0  0  0  0
  -30.6546  -17.6784   21.3675 C   0  0  0  0  0  0  0  0  0  0  0  0
  -28.1823  -22.7551   17.4963 C   0  0  0  0  0  0  0  0  0  0  0  0
  -15.8477  -25.4809   23.5765 C   0  0  0  0  0  0  0  0  0  0  0  0
  -17.9333  -24.1519   23.8675 C   0  0  0  0  0  0  0  0  0  0  0  0
  -22.4307  -22.5465   22.9543 C   0  0  0  0  0  0  0  0  0  1  0  0
  -17.5331  -26.9571   21.3936 C   0  0  0  0  0  0  0  0  0  0  0  0
  -17.8440  -27.1639   19.9152 C   0  0  0  0  0  0  0  0  0  0  0  0
  -17.5880  -25.4886   21.7952 C   0  0  0  0  0  0  0  0  0  0  0  0
  -28.7276  -19.2789   21.0252 C   0  0  1  0  0  0  0  0  0  0  0  0
  -30.1312  -22.0961   18.9127 C   0  0  2  0  0  0  0  0  0  0  0  0
  -29.6120  -18.5632   22.0850 C   0  0  0  0  0  0  0  0  0  0  0  0
  -21.2421  -25.3814   25.1047 N   0  0  0  0  0  0  0  0  0  0  0  0
  -26.0573  -27.3594   19.3553 N   0  0  0  0  0  0  0  0  0  0  0  0
  -20.1943  -23.3836   23.4385 N   0  0  0  0  0  0  0  0  0  0  0  0
  -25.0833  -27.6984   20.2170 N   0  0  0  0  0  0  0  0  0  0  0  0
  -26.5367  -18.4346   20.2436 N   0  0  0  0  0  0  0  0  0  0  0  0
  -21.4911  -26.8468   19.2372 N   0  0  0  0  0  0  0  0  0  0  0  0
  -24.5538  -29.1939   21.9759 N   0  0  0  0  0  0  0  0  0  0  0  0
  -28.7671  -30.3638   20.8465 N   0  0  0  0  0  0  0  0  0  0  0  0
  -25.2199  -15.1186   20.2566 N   0  0  0  0  0  0  0  0  0  0  0  0
  -29.4741  -20.1094   20.0864 N   0  0  0  0  0  0  0  0  0  0  0  0
  -19.1532  -26.6679   19.5531 N   0  0  0  0  0  0  0  0  0  0  0  0
  -29.4166  -23.1916   18.1984 N   0  3  0  0  0  0  0  0  0  0  0  0
  -17.3195  -25.3727   23.2731 N   0  3  1  0  0  0  0  0  0  0  0  0
  -27.0247  -30.8210   22.2655 O   0  0  0  0  0  0  0  0  0  0  0  0
  -25.1805  -16.8203   21.8457 O   0  0  0  0  0  0  0  0  0  0  0  0
  -28.5263  -17.4688   19.5054 O   0  0  0  0  0  0  0  0  0  0  0  0
  -28.3708  -22.0915   20.5674 O   0  0  0  0  0  0  0  0  0  0  0  0
  -20.2305  -28.6455   19.9816 O   0  0  0  0  0  0  0  0  0  0  0  0
  -31.8767  -28.0277   16.8579 O   0  0  0  0  0  0  0  0  0  0  0  0
  -21.7026  -21.8782   21.9248 O   0  0  0  0  0  0  0  0  0  1  0  0
  -34.1371  -23.0804   15.9529 F   0  0  0  0  0  0  0  0  0  0  0  0
  -30.5225  -26.0905   15.4240 F   0  0  0  0  0  0  0  0  0  0  0  0
  1  2  1  0  0  0  0
  1  5  2  0  0  0  0
  2  6  2  0  0  0  0
  3  8  2  0  0  0  0
  3 17  1  0  0  0  0
  4  9  1  0  0  0  0
  4 17  2  0  0  0  0
  5 19  1  0  0  0  0
  6 21  1  0  0  0  0
  7 10  2  0  0  0  0
  7 20  1  0  0  0  0
  8 23  1  0  0  0  0
  9 23  2  0  0  0  0
 10 24  1  0  0  0  0
 11 12  2  0  0  0  0
 11 25  1  0  0  0  0
 12 26  1  0  0  0  0
 13 22  1  0  0  0  0
 13 24  2  0  0  0  0
 14 26  2  0  0  0  0
 14 27  1  0  0  0  0
 15 29  2  0  0  0  0
 15 63  1  0  0  0  0
 16 30  1  0  0  0  0
 16 63  2  0  0  0  0
 17 28  1  0  0  0  0
 18 28  1  0  0  0  0
 18 31  2  0  0  0  0
 18 32  1  0  0  0  0
 19 21  2  0  0  0  0
 19 37  1  0  0  0  0
 20 22  2  0  0  0  0
 20 38  1  0  0  0  0
 21 46  1  0  0  0  0
 22 39  1  0  0  0  0
 23 81  1  0  0  0  0
 24 82  1  0  0  0  0
 25 27  2  0  0  0  0
 25 81  1  0  0  0  0
 26 83  1  0  0  0  0
 27 84  1  0  0  0  0
 28 64  2  0  0  0  0
 29 55  1  0  0  0  0
 29 65  1  0  0  0  0
 30 56  1  0  0  0  0
 30 65  2  0  0  0  0
 31 66  1  0  0  0  0
 31 69  1  0  0  0  0
 32 70  1  0  0  0  0
 32 76  2  0  0  0  0
 33 47  1  0  0  0  0
 33 71  1  0  0  0  0
 33 77  2  0  0  0  0
 34 60  1  0  0  0  0
 34 67  1  0  0  0  0
 34 78  2  0  0  0  0
 35 61  1  0  0  0  0
 35 72  1  0  0  0  0
 35 79  2  0  0  0  0
 36 68  1  0  0  0  0
 36 73  1  0  0  0  0
 36 80  2  0  0  0  0
 37 40  1  0  0  0  0
 38 47  1  0  0  0  0
 39 67  1  0  0  0  0
 40 42  1  0  0  0  0
 41 43  1  0  0  0  0
 41 44  1  0  0  0  0
 42 46  1  0  0  0  0
 43 48  1  0  0  0  0
 44 68  1  0  0  0  0
 45 48  1  0  0  0  0
 45 68  1  0  0  0  0
 46 71  1  0  0  0  0
 47 67  1  0  0  0  0
 48 66  1  0  0  0  0
 49 61  1  0  0  0  0
 50 62  1  0  0  0  0
 51 62  1  0  0  0  0
 52 62  1  0  0  0  0
 53 74  1  0  0  0  0
 54 75  1  0  0  0  0
 55 75  1  0  0  0  0
 56 82  1  0  0  0  0
 57 58  1  0  0  0  0
 57 59  1  0  0  0  0
 58 73  1  0  0  0  0
 59 75  1  0  0  0  0
 60 62  1  0  0  0  0
 60 72  1  0  0  0  0
 61 74  1  0  0  0  0
 64 66  1  0  0  0  0
M  CHG  2  74   1  75   1
M  ISO  4  36 100  56 101  73 100  82 101
M  END
> <Batch ID>
0057

> <Smiles>
CNC(C)C(=O)NC(C(=O)N1Cc2cc([101O:1][101CH2:1]c3cncc(CN(C)CCC[100NH:0][100C:0](=O)N4CCCC(n5nc(-c6ccc(Oc7ccc(F)cc7F)cc6)c(C(N)=O)c5N)C4)n3)ccc2CC1C(=O)NC1CCCc2ccccc21)C(C)(C)C

> <Shape>
0.187

> <Color>
0.054

> <Negative vol penalty>
0.000

$$$$

  -OEChem-04052317483D

 82 90  0     1  0  0  0  0  0999 V2000
  -20.6517  -31.7479   22.3746 C   0  0  0  0  0  0  0  0  0  0  0  0
  -21.8297  -31.0082   22.3987 C   0  0  0  0  0  0  0  0  0  0  0  0
  -25.7020  -13.6899   21.2718 C   0  0  0  0  0  0  0  0  0  0  0  0
  -26.7174  -13.3909   19.1001 C   0  0  0  0  0  0  0  0  0  0  0  0
  -19.4197  -31.0961   22.4125 C   0  0  0  0  0  0  0  0  0  0  0  0
  -21.7764  -29.6162   22.4618 C   0  0  0  0  0  0  0  0  0  0  0  0
  -24.9975  -27.4010   19.2428 C   0  0  0  0  0  0  0  0  0  0  0  0
  -24.7528  -12.7159   20.9622 C   0  0  0  0  0  0  0  0  0  0  0  0
  -25.7682  -12.4168   18.7904 C   0  0  0  0  0  0  0  0  0  0  0  0
  -26.3408  -27.3592   19.6139 C   0  0  0  0  0  0  0  0  0  0  0  0
  -24.5919   -9.3402   20.8532 C   0  0  0  0  0  0  0  0  0  0  0  0
  -24.3095   -8.3787   21.8234 C   0  0  0  0  0  0  0  0  0  0  0  0
  -26.0650  -25.0728   20.3318 C   0  0  0  0  0  0  0  0  0  0  0  0
  -21.9997   -9.0866   21.8527 C   0  0  0  0  0  0  0  0  0  0  0  0
  -31.5577  -26.8292   20.4290 C   0  0  0  0  0  0  0  0  0  0  0  0
  -26.6843  -14.0275   20.3408 C   0  0  0  0  0  0  0  0  0  0  0  0
  -28.9169  -14.8370   21.2722 C   0  0  0  0  0  0  0  0  0  0  0  0
  -19.3513  -29.6950   22.4663 C   0  0  0  0  0  0  0  0  0  0  0  0
  -24.1739  -26.2806   19.4237 C   0  0  0  0  0  0  0  0  0  0  0  0
  -20.5424  -28.9451   22.5018 C   0  0  0  0  0  0  0  0  0  0  0  0
  -24.7123  -25.1021   19.9598 C   0  0  0  0  0  0  0  0  0  0  0  0
  -24.7859  -12.0793   19.7215 C   0  0  0  0  0  0  0  0  0  0  0  0
  -26.8740  -26.1960   20.1612 C   0  0  0  0  0  0  0  0  0  0  0  0
  -23.5782  -10.1751   20.3828 C   0  0  0  0  0  0  0  0  0  0  0  0
  -23.0134   -8.2519   22.3231 C   0  0  0  0  0  0  0  0  0  0  0  0
  -22.2821  -10.0482   20.8825 C   0  0  0  0  0  0  0  0  0  0  0  0
  -27.6647  -15.0340   20.6598 C   0  0  0  0  0  0  0  0  0  0  0  0
  -30.4616  -26.2393   19.8537 C   0  0  0  0  0  0  0  0  0  0  0  0
  -29.4615  -16.0954   21.3527 C   0  0  0  0  0  0  0  0  0  0  0  0
  -31.7273  -24.4327   19.3702 C   0  0  0  0  0  0  0  0  0  0  0  0
  -29.5328  -13.6250   21.7275 C   0  0  0  0  0  0  0  0  0  0  0  0
  -21.5577  -25.6708   21.1229 C   0  0  0  0  0  0  0  0  0  0  0  0
  -21.6536  -22.8463   19.5307 C   0  0  0  0  0  0  0  0  0  0  0  0
  -23.5118  -20.5311   17.8474 C   0  0  0  0  0  0  0  0  0  0  0  0
  -30.6680  -20.9122   19.0528 C   0  0  0  0  0  0  0  0  0  0  0  0
  -17.9969  -29.0372   22.5534 C   0  0  0  0  0  0  0  0  0  0  0  0
  -22.7336  -26.3332   18.9935 C   0  0  0  0  0  0  0  0  0  0  0  0
  -23.8753  -23.8654   20.1559 C   0  0  0  0  0  0  0  0  0  0  0  0
  -18.0242  -27.5431   22.2415 C   0  0  0  0  0  0  0  0  0  0  0  0
  -27.3872  -20.6401   20.5561 C   0  0  0  0  0  0  0  0  0  0  0  0
  -19.1708  -26.8637   22.9835 C   0  0  0  0  0  0  0  0  0  0  0  0
  -27.2739  -19.1292   20.7675 C   0  0  0  0  0  0  0  0  0  0  0  0
  -28.1085  -20.9631   19.2509 C   0  0  0  0  0  0  0  0  0  0  0  0
  -29.3471  -18.8341   19.3341 C   0  0  0  0  0  0  0  0  0  0  0  0
  -20.5256  -27.4325   22.5450 C   0  0  1  0  0  0  0  0  0  0  0  0
  -21.8611  -25.2995   19.6989 C   0  0  1  0  0  0  0  0  0  0  0  0
  -28.6472  -18.4422   20.6481 C   0  0  2  0  0  0  0  0  0  0  0  0
  -32.2628  -23.1060   17.2930 C   0  0  0  0  0  0  0  0  0  0  0  0
  -23.3193  -18.3089   16.6974 C   0  0  0  0  0  0  0  0  0  0  0  0
  -21.5291  -21.4558   22.2439 C   0  0  0  0  0  0  0  0  0  0  0  0
  -22.2875  -19.3503   21.1215 C   0  0  0  0  0  0  0  0  0  0  0  0
  -20.1222  -20.4010   20.4655 C   0  0  0  0  0  0  0  0  0  0  0  0
  -24.3801  -21.6663   15.2558 C   0  0  0  0  0  0  0  0  0  0  0  0
  -31.8547  -23.0734   18.7736 C   0  0  2  0  0  0  0  0  0  0  0  0
  -22.2923  -21.5009   19.7778 C   0  0  1  0  0  0  0  0  0  0  0  0
  -23.2789  -19.8195   16.5268 C   0  0  2  0  0  0  0  0  0  0  0  0
  -29.1385  -26.9568   19.8155 C   0  0  0  0  0  0  0  0  0  1  0  0
  -21.5733  -20.7008   20.9004 C   0  0  0  0  0  0  0  0  0  0  0  0
  -32.7435  -26.1945   20.4638 N   0  0  0  0  0  0  0  0  0  0  0  0
  -27.4276  -16.3165   20.3718 N   0  0  0  0  0  0  0  0  0  0  0  0
  -30.5212  -25.0160   19.3060 N   0  0  0  0  0  0  0  0  0  0  0  0
  -32.8370  -24.9627   19.9212 N   0  0  0  0  0  0  0  0  0  0  0  0
  -28.5382  -16.9368   20.8052 N   0  0  0  0  0  0  0  0  0  0  0  0
  -22.4712  -23.9686   19.7255 N   0  0  0  0  0  0  0  0  0  0  0  0
  -29.4163  -20.2938   19.2086 N   0  0  0  0  0  0  0  0  0  0  0  0
  -30.6353  -16.5531   21.8376 N   0  0  0  0  0  0  0  0  0  0  0  0
  -28.8349  -12.4201   21.5680 N   0  0  0  0  0  0  0  0  0  0  0  0
  -20.9124  -26.8848   21.2625 N   0  0  0  0  0  0  0  0  0  0  0  0
  -22.3254  -20.8216   18.4872 N   0  0  0  0  0  0  0  0  0  0  0  0
  -30.6457  -22.2964   18.9339 N   0  0  0  0  0  0  0  0  0  0  0  0
  -24.3232  -20.2088   15.5374 N   0  3  0  0  0  0  0  0  0  0  0  0
  -30.6614  -13.6129   22.2750 O   0  0  0  0  0  0  0  0  0  0  0  0
  -21.8834  -24.9115   22.0279 O   0  0  0  0  0  0  0  0  0  0  0  0
  -20.4749  -22.8992   19.1710 O   0  0  0  0  0  0  0  0  0  0  0  0
  -24.6341  -20.7988   18.2709 O   0  0  0  0  0  0  0  0  0  0  0  0
  -31.7282  -20.2779   19.0269 O   0  0  0  0  0  0  0  0  0  0  0  0
  -23.8600  -11.1287   19.4190 O   0  0  0  0  0  0  0  0  0  0  0  0
  -28.1846  -26.1527   20.5250 O   0  0  0  0  0  0  0  0  0  1  0  0
  -22.7420   -7.3274   23.2537 F   0  0  0  0  0  0  0  0  0  0  0  0
  -21.3039  -10.8466   20.4336 F   0  0  0  0  0  0  0  0  0  0  0  0
  -28.6887  -27.1488   18.5443 F   0  0  0  0  0  0  0  0  0  0  0  0
  -29.1968  -28.1848   20.4019 F   0  0  0  0  0  0  0  0  0  0  0  0
  1  2  1  0  0  0  0
  1  5  2  0  0  0  0
  2  6  2  0  0  0  0
  3  8  2  0  0  0  0
  3 16  1  0  0  0  0
  4  9  1  0  0  0  0
  4 16  2  0  0  0  0
  5 18  1  0  0  0  0
  6 20  1  0  0  0  0
  7 10  2  0  0  0  0
  7 19  1  0  0  0  0
  8 22  1  0  0  0  0
  9 22  2  0  0  0  0
 10 23  1  0  0  0  0
 11 12  2  0  0  0  0
 11 24  1  0  0  0  0
 12 25  1  0  0  0  0
 13 21  1  0  0  0  0
 13 23  2  0  0  0  0
 14 25  2  0  0  0  0
 14 26  1  0  0  0  0
 15 28  1  0  0  0  0
 15 59  2  0  0  0  0
 16 27  1  0  0  0  0
 17 27  1  0  0  0  0
 17 29  2  0  0  0  0
 17 31  1  0  0  0  0
 18 20  2  0  0  0  0
 18 36  1  0  0  0  0
 19 21  2  0  0  0  0
 19 37  1  0  0  0  0
 20 45  1  0  0  0  0
 21 38  1  0  0  0  0
 22 77  1  0  0  0  0
 23 78  1  0  0  0  0
 24 26  2  0  0  0  0
 24 77  1  0  0  0  0
 25 79  1  0  0  0  0
 26 80  1  0  0  0  0
 27 60  2  0  0  0  0
 28 57  1  0  0  0  0
 28 61  2  0  0  0  0
 29 63  1  0  0  0  0
 29 66  1  0  0  0  0
 30 54  1  0  0  0  0
 30 61  1  0  0  0  0
 30 62  2  0  0  0  0
 31 67  1  0  0  0  0
 31 72  2  0  0  0  0
 32 46  1  0  0  0  0
 32 68  1  0  0  0  0
 32 73  2  0  0  0  0
 33 55  1  0  0  0  0
 33 64  1  0  0  0  0
 33 74  2  0  0  0  0
 34 56  1  0  0  0  0
 34 69  1  0  0  0  0
 34 75  2  0  0  0  0
 35 65  1  0  0  0  0
 35 70  1  0  0  0  0
 35 76  2  0  0  0  0
 36 39  1  0  0  0  0
 37 46  1  0  0  0  0
 38 64  1  0  0  0  0
 39 41  1  0  0  0  0
 40 42  1  0  0  0  0
 40 43  1  0  0  0  0
 41 45  1  0  0  0  0
 42 47  1  0  0  0  0
 43 65  1  0  0  0  0
 44 47  1  0  0  0  0
 44 65  1  0  0  0  0
 45 68  1  0  0  0  0
 46 64  1  0  0  0  0
 47 63  1  0  0  0  0
 48 54  1  0  0  0  0
 49 56  1  0  0  0  0
 50 58  1  0  0  0  0
 51 58  1  0  0  0  0
 52 58  1  0  0  0  0
 53 71  1  0  0  0  0
 54 70  1  0  0  0  0
 55 58  1  0  0  0  0
 55 69  1  0  0  0  0
 56 71  1  0  0  0  0
 57 78  1  0  0  0  0
 57 81  1  0  0  0  0
 57 82  1  0  0  0  0
 59 62  1  0  0  0  0
 60 63  1  0  0  0  0
M  CHG  1  71   1
M  ISO  4  35 100  57 101  70 100  78 101
M  END
> <Batch ID>
0057

> <Smiles>
CNC(C)C(=O)NC(C(=O)N1Cc2cc([101O:1][101C:1](F)(F)c3cnnc(C(C)[100NH:0][100C:0](=O)N4CCCC(n5nc(-c6ccc(Oc7ccc(F)cc7F)cc6)c(C(N)=O)c5N)C4)n3)ccc2CC1C(=O)NC1CCCc2ccccc21)C(C)(C)C

> <Shape>
0.266

> <Color>
0.065

> <Negative vol penalty>
0.000

$$$$

  -OEChem-04052317483D

 84 92  0     1  0  0  0  0  0999 V2000
  -25.8606  -28.3293   18.6435 C   0  0  0  0  0  0  0  0  0  0  0  0
  -26.3479  -27.2215   19.3296 C   0  0  0  0  0  0  0  0  0  0  0  0
  -23.3409   -9.7515   19.8569 C   0  0  0  0  0  0  0  0  0  0  0  0
  -23.8030   -9.8261   22.2271 C   0  0  0  0  0  0  0  0  0  0  0  0
  -25.8505  -29.5801   19.2593 C   0  0  0  0  0  0  0  0  0  0  0  0
  -26.8266  -27.3641   20.6315 C   0  0  0  0  0  0  0  0  0  0  0  0
  -25.1653  -23.7134   23.7230 C   0  0  0  0  0  0  0  0  0  0  0  0
  -22.6580   -8.5474   20.0279 C   0  0  0  0  0  0  0  0  0  0  0  0
  -23.1201   -8.6219   22.3981 C   0  0  0  0  0  0  0  0  0  0  0  0
  -25.7925  -22.4713   23.6363 C   0  0  0  0  0  0  0  0  0  0  0  0
  -19.9089   -7.5888   22.6024 C   0  0  0  0  0  0  0  0  0  0  0  0
  -19.0154   -7.4982   23.6696 C   0  0  0  0  0  0  0  0  0  0  0  0
  -27.1120  -23.0084   25.5830 C   0  0  0  0  0  0  0  0  0  0  0  0
  -20.2927   -5.6622   24.5832 C   0  0  0  0  0  0  0  0  0  0  0  0
  -30.7819  -16.3459   22.9405 C   0  0  0  0  0  0  0  0  0  0  0  0
  -23.9135  -10.3909   20.9565 C   0  0  0  0  0  0  0  0  0  0  0  0
  -24.0817  -12.9338   20.8445 C   0  0  0  0  0  0  0  0  0  0  0  0
  -26.3203  -29.7364   20.5729 C   0  0  0  0  0  0  0  0  0  0  0  0
  -25.5151  -24.6182   24.7357 C   0  0  0  0  0  0  0  0  0  0  0  0
  -26.8240  -28.6185   21.2649 C   0  0  0  0  0  0  0  0  0  0  0  0
  -26.4859  -24.2603   25.6820 C   0  0  0  0  0  0  0  0  0  0  0  0
  -22.5475   -7.9826   21.2985 C   0  0  0  0  0  0  0  0  0  0  0  0
  -26.7681  -22.1198   24.5646 C   0  0  0  0  0  0  0  0  0  0  0  0
  -20.9943   -6.7160   22.5255 C   0  0  0  0  0  0  0  0  0  0  0  0
  -19.2073   -6.5349   24.6600 C   0  0  0  0  0  0  0  0  0  0  0  0
  -21.1862   -5.7527   23.5159 C   0  0  0  0  0  0  0  0  0  0  0  0
  -24.6196  -11.6345   20.7804 C   0  0  0  0  0  0  0  0  0  0  0  0
  -30.4084  -15.2055   23.6060 C   0  0  0  0  0  0  0  0  0  0  0  0
  -25.1531  -13.7608   20.6105 C   0  0  0  0  0  0  0  0  0  0  0  0
  -22.7342  -13.3556   21.0935 C   0  0  0  0  0  0  0  0  0  0  0  0
  -26.7587  -27.5428   24.7992 C   0  0  0  0  0  0  0  0  0  0  0  0
  -26.1718  -27.3012   27.9804 C   0  0  0  0  0  0  0  0  0  0  0  0
  -25.6958  -25.2870   30.6939 C   0  0  0  0  0  0  0  0  0  0  0  0
  -31.1177  -12.5625   21.3357 C   0  0  0  0  0  0  0  0  0  0  0  0
  -26.3332  -31.1171   21.1797 C   0  0  0  0  0  0  0  0  0  0  0  0
  -24.8101  -25.9435   24.8314 C   0  0  0  0  0  0  0  0  0  0  0  0
  -26.8830  -25.1876   26.8003 C   0  0  0  0  0  0  0  0  0  0  0  0
  -26.5110  -31.1143   22.6959 C   0  0  0  0  0  0  0  0  0  0  0  0
  -29.3675  -13.9035   18.3625 C   0  0  0  0  0  0  0  0  0  0  0  0
  -27.6408  -30.1722   23.0992 C   0  0  0  0  0  0  0  0  0  0  0  0
  -27.9141  -13.5147   18.6280 C   0  0  0  0  0  0  0  0  0  0  0  0
  -30.3435  -12.9338   19.0218 C   0  0  0  0  0  0  0  0  0  0  0  0
  -28.6665  -12.3650   20.7476 C   0  0  0  0  0  0  0  0  0  0  0  0
  -27.3287  -28.7284   22.6873 C   0  0  1  0  0  0  0  0  0  0  0  0
  -25.6108  -26.9922   25.5972 C   0  0  1  0  0  0  0  0  0  0  0  0
  -27.6574  -13.3483   20.1359 C   0  0  2  0  0  0  0  0  0  0  0  0
  -27.6542  -13.9905   24.3623 C   0  0  0  0  0  0  0  0  0  0  0  0
  -25.2758  -25.3793   33.1662 C   0  0  0  0  0  0  0  0  0  0  0  0
  -29.0991  -28.0239   28.4482 C   0  0  0  0  0  0  0  0  0  0  0  0
  -28.8593  -27.1833   30.7943 C   0  0  0  0  0  0  0  0  0  0  0  0
  -27.4903  -29.1191   30.0188 C   0  0  0  0  0  0  0  0  0  0  0  0
  -32.0378  -12.8656   23.6032 C   0  0  0  0  0  0  0  0  0  0  0  0
  -23.1096  -23.8735   30.4246 C   0  0  0  0  0  0  0  0  0  0  0  0
  -28.9201  -13.2091   24.0325 C   0  0  0  0  0  0  0  0  0  0  0  0
  -30.9172  -19.6212   24.6181 C   0  0  0  0  0  0  0  0  0  0  0  0
  -29.4688  -19.7697   24.1496 C   0  0  0  0  0  0  0  0  0  0  0  0
  -31.7074  -18.5884   23.8066 C   0  0  0  0  0  0  0  0  0  0  0  0
  -28.7263  -20.8278   24.9546 C   0  0  0  0  0  0  0  0  0  1  0  0
  -29.8871  -13.9455   23.0608 C   0  0  2  0  0  0  0  0  0  0  0  0
  -26.9458  -26.7988   29.1752 C   0  0  1  0  0  0  0  0  0  0  0  0
  -24.6417  -25.3010   31.7862 C   0  0  2  0  0  0  0  0  0  0  0  0
  -28.0927  -27.7643   29.5870 C   0  0  0  0  0  0  0  0  0  0  0  0
  -25.9307  -11.6311   20.5254 N   0  0  0  0  0  0  0  0  0  0  0  0
  -30.5912  -15.3771   24.9501 N   0  0  0  0  0  0  0  0  0  0  0  0
  -31.0706  -16.6009   25.1439 N   0  0  0  0  0  0  0  0  0  0  0  0
  -31.1841  -17.1802   23.9378 N   0  0  0  0  0  0  0  0  0  0  0  0
  -26.2256  -12.9385   20.4271 N   0  0  0  0  0  0  0  0  0  0  0  0
  -26.1696  -26.4746   26.8479 N   0  0  0  0  0  0  0  0  0  0  0  0
  -30.0501  -12.7611   20.4449 N   0  0  0  0  0  0  0  0  0  0  0  0
  -25.2728  -15.1039   20.5456 N   0  0  0  0  0  0  0  0  0  0  0  0
  -21.7572  -12.3752   21.3141 N   0  0  0  0  0  0  0  0  0  0  0  0
  -26.3835  -28.1334   23.6077 N   0  0  0  0  0  0  0  0  0  0  0  0
  -25.9628  -26.5561   30.2256 N   0  0  0  0  0  0  0  0  0  0  0  0
  -30.9543  -13.0376   22.6458 N   0  0  0  0  0  0  0  0  0  0  0  0
  -23.8109  -24.0655   31.7201 N   0  3  0  0  0  0  0  0  0  0  0  0
  -22.4030  -14.5655   21.1034 O   0  0  0  0  0  0  0  0  0  0  0  0
  -27.9002  -27.4407   25.2332 O   0  0  0  0  0  0  0  0  0  0  0  0
  -25.5848  -28.3838   28.0518 O   0  0  0  0  0  0  0  0  0  0  0  0
  -26.2316  -24.2540   30.2984 O   0  0  0  0  0  0  0  0  0  0  0  0
  -32.1613  -12.0016   20.9778 O   0  0  0  0  0  0  0  0  0  0  0  0
  -21.8810   -6.8077   21.4658 O   0  0  0  0  0  0  0  0  0  0  0  0
  -27.3823  -20.9083   24.4818 O   0  0  0  0  0  0  0  0  0  1  0  0
  -18.3500   -6.4491   25.6856 F   0  0  0  0  0  0  0  0  0  0  0  0
  -22.2278   -4.9123   23.4481 F   0  0  0  0  0  0  0  0  0  0  0  0
  1  2  1  0  0  0  0
  1  5  2  0  0  0  0
  2  6  2  0  0  0  0
  3  8  2  0  0  0  0
  3 16  1  0  0  0  0
  4  9  1  0  0  0  0
  4 16  2  0  0  0  0
  5 18  1  0  0  0  0
  6 20  1  0  0  0  0
  7 10  2  0  0  0  0
  7 19  1  0  0  0  0
  8 22  1  0  0  0  0
  9 22  2  0  0  0  0
 10 23  1  0  0  0  0
 11 12  2  0  0  0  0
 11 24  1  0  0  0  0
 12 25  1  0  0  0  0
 13 21  1  0  0  0  0
 13 23  2  0  0  0  0
 14 25  2  0  0  0  0
 14 26  1  0  0  0  0
 15 28  2  0  0  0  0
 15 66  1  0  0  0  0
 16 27  1  0  0  0  0
 17 27  1  0  0  0  0
 17 29  2  0  0  0  0
 17 30  1  0  0  0  0
 18 20  2  0  0  0  0
 18 35  1  0  0  0  0
 19 21  2  0  0  0  0
 19 36  1  0  0  0  0
 20 44  1  0  0  0  0
 21 37  1  0  0  0  0
 22 81  1  0  0  0  0
 23 82  1  0  0  0  0
 24 26  2  0  0  0  0
 24 81  1  0  0  0  0
 25 83  1  0  0  0  0
 26 84  1  0  0  0  0
 27 63  2  0  0  0  0
 28 59  1  0  0  0  0
 28 64  1  0  0  0  0
 29 67  1  0  0  0  0
 29 70  1  0  0  0  0
 30 71  1  0  0  0  0
 30 76  2  0  0  0  0
 31 45  1  0  0  0  0
 31 72  1  0  0  0  0
 31 77  2  0  0  0  0
 32 60  1  0  0  0  0
 32 68  1  0  0  0  0
 32 78  2  0  0  0  0
 33 61  1  0  0  0  0
 33 73  1  0  0  0  0
 33 79  2  0  0  0  0
 34 69  1  0  0  0  0
 34 74  1  0  0  0  0
 34 80  2  0  0  0  0
 35 38  1  0  0  0  0
 36 45  1  0  0  0  0
 37 68  1  0  0  0  0
 38 40  1  0  0  0  0
 39 41  1  0  0  0  0
 39 42  1  0  0  0  0
 40 44  1  0  0  0  0
 41 46  1  0  0  0  0
 42 69  1  0  0  0  0
 43 46  1  0  0  0  0
 43 69  1  0  0  0  0
 44 72  1  0  0  0  0
 45 68  1  0  0  0  0
 46 67  1  0  0  0  0
 47 54  1  0  0  0  0
 48 61  1  0  0  0  0
 49 62  1  0  0  0  0
 50 62  1  0  0  0  0
 51 62  1  0  0  0  0
 52 74  1  0  0  0  0
 53 75  1  0  0  0  0
 54 59  1  0  0  0  0
 55 56  1  0  0  0  0
 55 57  1  0  0  0  0
 56 58  1  0  0  0  0
 57 66  1  0  0  0  0
 58 82  1  0  0  0  0
 59 74  1  0  0  0  0
 60 62  1  0  0  0  0
 60 73  1  0  0  0  0
 61 75  1  0  0  0  0
 63 67  1  0  0  0  0
 64 65  2  0  0  0  0
 65 66  1  0  0  0  0
M  CHG  1  75   1
M  ISO  4  34 100  58 101  74 100  82 101
M  END
> <Batch ID>
0057

> <Smiles>
CCC(c1cn(CCC[101CH2:1][101O:1]c2ccc3c(c2)CN(C(=O)C(NC(=O)C(C)NC)C(C)(C)C)C(C(=O)NC2CCCc4ccccc42)C3)nn1)[100N:0](C)[100C:0](=O)N1CCCC(n2nc(-c3ccc(Oc4ccc(F)cc4F)cc3)c(C(N)=O)c2N)C1

> <Shape>
0.199

> <Color>
0.187

> <Negative vol penalty>
0.000

$$$$

  -OEChem-04052317483D

 84 92  0     1  0  0  0  0  0999 V2000
  -23.9493   -8.0858   21.5374 C   0  0  0  0  0  0  0  0  0  0  0  0
  -24.4820   -9.0845   20.7285 C   0  0  0  0  0  0  0  0  0  0  0  0
  -22.2205  -26.9881   21.5405 C   0  0  0  0  0  0  0  0  0  0  0  0
  -23.5920  -27.3004   23.5048 C   0  0  0  0  0  0  0  0  0  0  0  0
  -22.7460   -8.3013   22.2079 C   0  0  0  0  0  0  0  0  0  0  0  0
  -23.8111  -10.2989   20.5888 C   0  0  0  0  0  0  0  0  0  0  0  0
  -26.9160  -14.2846   20.9336 C   0  0  0  0  0  0  0  0  0  0  0  0
  -21.0730  -27.1658   22.3134 C   0  0  0  0  0  0  0  0  0  0  0  0
  -22.4446  -27.4781   24.2777 C   0  0  0  0  0  0  0  0  0  0  0  0
  -27.6870  -14.5900   19.8129 C   0  0  0  0  0  0  0  0  0  0  0  0
  -17.7945  -27.8955   23.7041 C   0  0  0  0  0  0  0  0  0  0  0  0
  -16.7925  -28.7227   23.1968 C   0  0  0  0  0  0  0  0  0  0  0  0
  -26.1232  -16.3277   19.2179 C   0  0  0  0  0  0  0  0  0  0  0  0
  -18.3450  -30.5733   23.1483 C   0  0  0  0  0  0  0  0  0  0  0  0
  -31.1274  -19.6144   18.9196 C   0  0  0  0  0  0  0  0  0  0  0  0
  -23.4800  -27.0554   22.1362 C   0  0  0  0  0  0  0  0  0  0  0  0
  -25.4012  -27.8662   20.6668 C   0  0  0  0  0  0  0  0  0  0  0  0
  -22.0649   -9.5225   22.0840 C   0  0  0  0  0  0  0  0  0  0  0  0
  -25.7350  -14.9925   21.1994 C   0  0  0  0  0  0  0  0  0  0  0  0
  -22.5969  -10.5304   21.2572 C   0  0  0  0  0  0  0  0  0  0  0  0
  -25.3403  -16.0312   20.3441 C   0  0  0  0  0  0  0  0  0  0  0  0
  -21.1851  -27.4108   23.6820 C   0  0  0  0  0  0  0  0  0  0  0  0
  -27.2891  -15.6097   18.9532 C   0  0  0  0  0  0  0  0  0  0  0  0
  -19.0717  -28.4072   23.9336 C   0  0  0  0  0  0  0  0  0  0  0  0
  -17.0677  -30.0616   22.9188 C   0  0  0  0  0  0  0  0  0  0  0  0
  -19.3469  -29.7461   23.6556 C   0  0  0  0  0  0  0  0  0  0  0  0
  -24.6656  -26.8714   21.3384 C   0  0  0  0  0  0  0  0  0  0  0  0
  -30.5550  -18.3305   18.8437 C   0  0  0  0  0  0  0  0  0  0  0  0
  -30.8524  -20.0380   20.1968 C   0  0  0  0  0  0  0  0  0  0  0  0
  -26.4272  -27.1838   20.0600 C   0  0  0  0  0  0  0  0  0  0  0  0
  -25.1772  -29.2807   20.5978 C   0  0  0  0  0  0  0  0  0  0  0  0
  -22.6595  -14.2211   21.4236 C   0  0  0  0  0  0  0  0  0  0  0  0
  -22.3542  -17.3111   22.3624 C   0  0  0  0  0  0  0  0  0  0  0  0
  -23.6077  -20.4851   22.3336 C   0  0  0  0  0  0  0  0  0  0  0  0
  -30.3958  -23.5492   20.0519 C   0  0  0  0  0  0  0  0  0  0  0  0
  -20.7433   -9.6916   22.7908 C   0  0  0  0  0  0  0  0  0  0  0  0
  -24.9286  -14.6688   22.4272 C   0  0  0  0  0  0  0  0  0  0  0  0
  -24.0916  -16.8347   20.5960 C   0  0  0  0  0  0  0  0  0  0  0  0
  -20.2852  -11.1446   22.8863 C   0  0  0  0  0  0  0  0  0  0  0  0
  -27.1801  -22.2323   19.4219 C   0  0  0  0  0  0  0  0  0  0  0  0
  -20.4424  -11.8435   21.5396 C   0  0  0  0  0  0  0  0  0  0  0  0
  -26.2885  -23.4075   19.8203 C   0  0  0  0  0  0  0  0  0  0  0  0
  -28.3651  -22.0614   20.3743 C   0  0  0  0  0  0  0  0  0  0  0  0
  -28.2787  -24.4659   20.9519 C   0  0  0  0  0  0  0  0  0  0  0  0
  -21.9113  -11.8703   21.1000 C   0  0  1  0  0  0  0  0  0  0  0  0
  -23.4727  -15.1118   22.3198 C   0  0  1  0  0  0  0  0  0  0  0  0
  -27.1141  -24.6963   19.9766 C   0  0  2  0  0  0  0  0  0  0  0  0
  -34.9236  -23.1758   19.1563 C   0  0  0  0  0  0  0  0  0  0  0  0
  -23.1169  -22.8045   23.1565 C   0  0  0  0  0  0  0  0  0  0  0  0
  -20.2351  -17.6306   20.1904 C   0  0  0  0  0  0  0  0  0  0  0  0
  -20.4769  -20.1122   20.4171 C   0  0  0  0  0  0  0  0  0  0  0  0
  -19.6874  -18.7555   22.3559 C   0  0  0  0  0  0  0  0  0  0  0  0
  -29.6450  -18.9892   22.1350 C   0  0  0  0  0  0  0  0  0  0  0  0
  -26.0982  -20.5708   23.9301 C   0  0  0  0  0  0  0  0  0  0  0  0
  -30.5519  -17.3943   17.6617 C   0  0  0  0  0  0  0  0  0  0  0  0
  -31.1826  -21.2954   20.8923 C   0  0  0  0  0  0  0  0  0  0  0  0
  -33.6568  -23.0543   19.9918 C   0  0  0  0  0  0  0  0  0  0  0  0
  -29.3483  -17.5768   16.7346 C   0  0  0  0  0  0  0  0  0  0  0  0
  -32.4702  -22.5328   19.1902 C   0  0  0  0  0  0  0  0  0  0  0  0
  -28.0162  -17.2623   17.4053 C   0  0  0  0  0  0  0  0  0  1  0  0
  -22.1136  -18.6239   21.6570 C   0  0  1  0  0  0  0  0  0  0  0  0
  -23.8269  -21.4917   23.4486 C   0  0  2  0  0  0  0  0  0  0  0  0
  -20.6508  -18.7643   21.1490 C   0  0  0  0  0  0  0  0  0  0  0  0
  -25.1804  -25.6499   21.1738 N   0  0  0  0  0  0  0  0  0  0  0  0
  -29.9613  -17.9626   19.9822 N   0  0  0  0  0  0  0  0  0  0  0  0
  -30.1593  -19.0216   20.7855 N   0  0  0  0  0  0  0  0  0  0  0  0
  -26.2504  -25.8728   20.3917 N   0  0  0  0  0  0  0  0  0  0  0  0
  -23.3335  -16.4760   21.8060 N   0  0  0  0  0  0  0  0  0  0  0  0
  -29.0969  -23.3256   20.5318 N   0  0  0  0  0  0  0  0  0  0  0  0
  -27.4542  -27.5834   19.2802 N   0  0  0  0  0  0  0  0  0  0  0  0
  -24.0767  -29.8169   21.2801 N   0  0  0  0  0  0  0  0  0  0  0  0
  -22.6351  -12.8971   21.8185 N   0  0  0  0  0  0  0  0  0  0  0  0
  -22.5258  -19.6689   22.5877 N   0  0  0  0  0  0  0  0  0  0  0  0
  -31.2571  -22.4434   19.9907 N   0  0  0  0  0  0  0  0  0  0  0  0
  -25.2812  -21.7711   23.6157 N   0  3  0  0  0  0  0  0  0  0  0  0
  -25.9213  -30.0442   19.9368 O   0  0  0  0  0  0  0  0  0  0  0  0
  -22.0948  -14.6999   20.4472 O   0  0  0  0  0  0  0  0  0  0  0  0
  -21.7025  -17.0397   23.3739 O   0  0  0  0  0  0  0  0  0  0  0  0
  -24.3223  -20.4310   21.3351 O   0  0  0  0  0  0  0  0  0  0  0  0
  -30.7698  -24.6768   19.7043 O   0  0  0  0  0  0  0  0  0  0  0  0
  -20.0656  -27.5845   24.4365 O   0  0  0  0  0  0  0  0  0  0  0  0
  -28.0395  -15.9093   17.8583 O   0  0  0  0  0  0  0  0  0  1  0  0
  -16.1059  -30.8555   22.4302 F   0  0  0  0  0  0  0  0  0  0  0  0
  -20.5723  -30.2431   23.8729 F   0  0  0  0  0  0  0  0  0  0  0  0
  1  2  1  0  0  0  0
  1  5  2  0  0  0  0
  2  6  2  0  0  0  0
  3  8  2  0  0  0  0
  3 16  1  0  0  0  0
  4  9  1  0  0  0  0
  4 16  2  0  0  0  0
  5 18  1  0  0  0  0
  6 20  1  0  0  0  0
  7 10  2  0  0  0  0
  7 19  1  0  0  0  0
  8 22  1  0  0  0  0
  9 22  2  0  0  0  0
 10 23  1  0  0  0  0
 11 12  2  0  0  0  0
 11 24  1  0  0  0  0
 12 25  1  0  0  0  0
 13 21  1  0  0  0  0
 13 23  2  0  0  0  0
 14 25  2  0  0  0  0
 14 26  1  0  0  0  0
 15 28  1  0  0  0  0
 15 29  2  0  0  0  0
 16 27  1  0  0  0  0
 17 27  1  0  0  0  0
 17 30  2  0  0  0  0
 17 31  1  0  0  0  0
 18 20  2  0  0  0  0
 18 36  1  0  0  0  0
 19 21  2  0  0  0  0
 19 37  1  0  0  0  0
 20 45  1  0  0  0  0
 21 38  1  0  0  0  0
 22 81  1  0  0  0  0
 23 82  1  0  0  0  0
 24 26  2  0  0  0  0
 24 81  1  0  0  0  0
 25 83  1  0  0  0  0
 26 84  1  0  0  0  0
 27 64  2  0  0  0  0
 28 55  1  0  0  0  0
 28 65  2  0  0  0  0
 29 56  1  0  0  0  0
 29 66  1  0  0  0  0
 30 67  1  0  0  0  0
 30 70  1  0  0  0  0
 31 71  1  0  0  0  0
 31 76  2  0  0  0  0
 32 46  1  0  0  0  0
 32 72  1  0  0  0  0
 32 77  2  0  0  0  0
 33 61  1  0  0  0  0
 33 68  1  0  0  0  0
 33 78  2  0  0  0  0
 34 62  1  0  0  0  0
 34 73  1  0  0  0  0
 34 79  2  0  0  0  0
 35 69  1  0  0  0  0
 35 74  1  0  0  0  0
 35 80  2  0  0  0  0
 36 39  1  0  0  0  0
 37 46  1  0  0  0  0
 38 68  1  0  0  0  0
 39 41  1  0  0  0  0
 40 42  1  0  0  0  0
 40 43  1  0  0  0  0
 41 45  1  0  0  0  0
 42 47  1  0  0  0  0
 43 69  1  0  0  0  0
 44 47  1  0  0  0  0
 44 69  1  0  0  0  0
 45 72  1  0  0  0  0
 46 68  1  0  0  0  0
 47 67  1  0  0  0  0
 48 57  1  0  0  0  0
 49 62  1  0  0  0  0
 50 63  1  0  0  0  0
 51 63  1  0  0  0  0
 52 63  1  0  0  0  0
 53 66  1  0  0  0  0
 54 75  1  0  0  0  0
 55 58  1  0  0  0  0
 56 74  1  0  0  0  0
 57 59  1  0  0  0  0
 58 60  1  0  0  0  0
 59 74  1  0  0  0  0
 60 82  1  0  0  0  0
 61 63  1  0  0  0  0
 61 73  1  0  0  0  0
 62 75  1  0  0  0  0
 64 67  1  0  0  0  0
 65 66  1  0  0  0  0
M  CHG  1  75   1
M  ISO  4  35 100  60 101  74 100  82 101
M  END
> <Batch ID>
0057

> <Smiles>
CCC[100N:0](Cc1cc(CC[101CH2:1][101O:1]c2ccc3c(c2)CN(C(=O)C(NC(=O)C(C)NC)C(C)(C)C)C(C(=O)NC2CCCc4ccccc42)C3)nn1C)[100C:0](=O)N1CCCC(n2nc(-c3ccc(Oc4ccc(F)cc4F)cc3)c(C(N)=O)c2N)C1

> <Shape>
0.224

> <Color>
0.100

> <Negative vol penalty>
0.000

$$$$

  -OEChem-04052317483D

 84 92  0     1  0  0  0  0  0999 V2000
  -33.2429  -17.8853   28.6794 C   0  0  0  0  0  0  0  0  0  0  0  0
  -32.8281  -18.3150   27.4230 C   0  0  0  0  0  0  0  0  0  0  0  0
  -23.2028   -9.8823   19.8587 C   0  0  0  0  0  0  0  0  0  0  0  0
  -23.7869   -9.8864   22.2031 C   0  0  0  0  0  0  0  0  0  0  0  0
  -33.4022  -18.8076   29.7128 C   0  0  0  0  0  0  0  0  0  0  0  0
  -32.5713  -19.6672   27.1994 C   0  0  0  0  0  0  0  0  0  0  0  0
  -34.5601  -21.3290   22.8488 C   0  0  0  0  0  0  0  0  0  0  0  0
  -22.4588   -8.7175   20.0461 C   0  0  0  0  0  0  0  0  0  0  0  0
  -23.0428   -8.7216   22.3905 C   0  0  0  0  0  0  0  0  0  0  0  0
  -33.8776  -21.0128   21.6749 C   0  0  0  0  0  0  0  0  0  0  0  0
  -19.7901   -7.8755   22.7431 C   0  0  0  0  0  0  0  0  0  0  0  0
  -18.9474   -7.8181   23.8531 C   0  0  0  0  0  0  0  0  0  0  0  0
  -32.9112  -23.2229   21.6485 C   0  0  0  0  0  0  0  0  0  0  0  0
  -20.1572   -5.8938   24.6721 C   0  0  0  0  0  0  0  0  0  0  0  0
  -29.2763  -19.9832   20.6720 C   0  0  0  0  0  0  0  0  0  0  0  0
  -23.8670  -10.4668   20.9372 C   0  0  0  0  0  0  0  0  0  0  0  0
  -24.1808  -12.9971   20.8555 C   0  0  0  0  0  0  0  0  0  0  0  0
  -33.1565  -20.1732   29.4992 C   0  0  0  0  0  0  0  0  0  0  0  0
  -34.4145  -22.5930   23.4383 C   0  0  0  0  0  0  0  0  0  0  0  0
  -32.7262  -20.6085   28.2313 C   0  0  0  0  0  0  0  0  0  0  0  0
  -33.5949  -23.5535   22.8284 C   0  0  0  0  0  0  0  0  0  0  0  0
  -29.9524  -20.0726   19.4723 C   0  0  0  0  0  0  0  0  0  0  0  0
  -22.3787   -8.1371   21.3120 C   0  0  0  0  0  0  0  0  0  0  0  0
  -33.0508  -21.9588   21.0761 C   0  0  0  0  0  0  0  0  0  0  0  0
  -20.8163   -6.9419   22.5975 C   0  0  0  0  0  0  0  0  0  0  0  0
  -19.1310   -6.8274   24.8176 C   0  0  0  0  0  0  0  0  0  0  0  0
  -20.9998   -5.9512   23.5620 C   0  0  0  0  0  0  0  0  0  0  0  0
  -24.6362  -11.6697   20.7442 C   0  0  0  0  0  0  0  0  0  0  0  0
  -30.3392  -18.8713   18.9140 C   0  0  0  0  0  0  0  0  0  0  0  0
  -25.2864  -13.7638   20.5796 C   0  0  0  0  0  0  0  0  0  0  0  0
  -29.4237  -17.7150   20.6437 C   0  0  0  0  0  0  0  0  0  0  0  0
  -22.8750  -13.4927   21.1796 C   0  0  0  0  0  0  0  0  0  0  0  0
  -33.3158  -23.6551   26.2255 C   0  0  0  0  0  0  0  0  0  0  0  0
  -34.3967  -26.5075   25.1218 C   0  0  0  0  0  0  0  0  0  0  0  0
  -35.2217  -28.4527   22.4419 C   0  0  0  0  0  0  0  0  0  0  0  0
  -30.8189  -14.5508   21.6236 C   0  0  0  0  0  0  0  0  0  0  0  0
  -33.2969  -21.1262   30.6597 C   0  0  0  0  0  0  0  0  0  0  0  0
  -35.1784  -22.9276   24.6901 C   0  0  0  0  0  0  0  0  0  0  0  0
  -33.4205  -24.9318   23.4103 C   0  0  0  0  0  0  0  0  0  0  0  0
  -33.3654  -22.5921   30.2391 C   0  0  0  0  0  0  0  0  0  0  0  0
  -29.8048  -12.5048   18.7103 C   0  0  0  0  0  0  0  0  0  0  0  0
  -32.2782  -22.9053   29.2160 C   0  0  0  0  0  0  0  0  0  0  0  0
  -28.3521  -12.1606   19.0345 C   0  0  0  0  0  0  0  0  0  0  0  0
  -30.6311  -12.7247   19.9738 C   0  0  0  0  0  0  0  0  0  0  0  0
  -28.6056  -13.3956   21.2233 C   0  0  0  0  0  0  0  0  0  0  0  0
  -32.4617  -22.0703   27.9430 C   0  0  1  0  0  0  0  0  0  0  0  0
  -34.5541  -24.0715   25.4832 C   0  0  1  0  0  0  0  0  0  0  0  0
  -27.7347  -13.2135   19.9712 C   0  0  2  0  0  0  0  0  0  0  0  0
  -31.1360  -17.4456   17.0117 C   0  0  0  0  0  0  0  0  0  0  0  0
  -28.9411  -22.1486   18.4728 C   0  0  0  0  0  0  0  0  0  0  0  0
  -36.0374  -30.7517   21.8532 C   0  0  0  0  0  0  0  0  0  0  0  0
  -31.6143  -27.6328   25.6714 C   0  0  0  0  0  0  0  0  0  0  0  0
  -32.1945  -29.5882   24.2195 C   0  0  0  0  0  0  0  0  0  0  0  0
  -33.4976  -29.1529   26.3016 C   0  0  0  0  0  0  0  0  0  0  0  0
  -31.1263  -16.7469   22.7016 C   0  0  0  0  0  0  0  0  0  0  0  0
  -37.6719  -27.3843   21.1715 C   0  0  0  0  0  0  0  0  0  0  0  0
  -31.0773  -18.8453   17.6163 C   0  0  0  0  0  0  0  0  0  0  0  0
  -29.1295  -16.4055   21.2938 C   0  0  0  0  0  0  0  0  0  0  0  0
  -31.1305  -22.3015   19.7157 C   0  0  0  0  0  0  0  0  0  1  0  0
  -30.2400  -21.4202   18.8292 C   0  0  1  0  0  0  0  0  0  0  0  0
  -33.8055  -27.6316   24.3059 C   0  0  1  0  0  0  0  0  0  0  0  0
  -36.4375  -29.3172   22.1609 C   0  0  2  0  0  0  0  0  0  0  0  0
  -32.7795  -28.4748   25.1145 C   0  0  0  0  0  0  0  0  0  0  0  0
  -28.9939  -18.8166   21.2881 N   0  0  0  0  0  0  0  0  0  0  0  0
  -25.9303  -11.5939   20.4224 N   0  0  0  0  0  0  0  0  0  0  0  0
  -30.0906  -17.6696   19.4746 N   0  0  0  0  0  0  0  0  0  0  0  0
  -26.2975  -12.8834   20.3291 N   0  0  0  0  0  0  0  0  0  0  0  0
  -34.1835  -25.2087   24.6385 N   0  0  0  0  0  0  0  0  0  0  0  0
  -29.9997  -13.6978   20.8658 N   0  0  0  0  0  0  0  0  0  0  0  0
  -25.4827  -15.0985   20.5291 N   0  0  0  0  0  0  0  0  0  0  0  0
  -21.8536  -12.5676   21.4349 N   0  0  0  0  0  0  0  0  0  0  0  0
  -33.5179  -22.6242   27.1231 N   0  0  0  0  0  0  0  0  0  0  0  0
  -34.9340  -28.3984   23.7893 N   0  0  0  0  0  0  0  0  0  0  0  0
  -30.3098  -15.8223   21.9280 N   0  0  0  0  0  0  0  0  0  0  0  0
  -37.1965  -28.7807   20.9959 N   0  3  0  0  0  0  0  0  0  0  0  0
  -22.6175  -14.7196   21.2248 O   0  0  0  0  0  0  0  0  0  0  0  0
  -32.2559  -24.2279   26.0016 O   0  0  0  0  0  0  0  0  0  0  0  0
  -35.0306  -26.7724   26.1463 O   0  0  0  0  0  0  0  0  0  0  0  0
  -34.5882  -27.8856   21.5544 O   0  0  0  0  0  0  0  0  0  0  0  0
  -31.9450  -14.1995   21.9981 O   0  0  0  0  0  0  0  0  0  0  0  0
  -21.6525   -7.0007   21.4953 O   0  0  0  0  0  0  0  0  0  0  0  0
  -32.3830  -21.6525   19.9306 O   0  0  0  0  0  0  0  0  0  1  0  0
  -18.3226   -6.7734   25.8843 F   0  0  0  0  0  0  0  0  0  0  0  0
  -21.9847   -5.0523   23.4282 F   0  0  0  0  0  0  0  0  0  0  0  0
  1  2  1  0  0  0  0
  1  5  2  0  0  0  0
  2  6  2  0  0  0  0
  3  8  2  0  0  0  0
  3 16  1  0  0  0  0
  4  9  1  0  0  0  0
  4 16  2  0  0  0  0
  5 18  1  0  0  0  0
  6 20  1  0  0  0  0
  7 10  2  0  0  0  0
  7 19  1  0  0  0  0
  8 23  1  0  0  0  0
  9 23  2  0  0  0  0
 10 24  1  0  0  0  0
 11 12  2  0  0  0  0
 11 25  1  0  0  0  0
 12 26  1  0  0  0  0
 13 21  1  0  0  0  0
 13 24  2  0  0  0  0
 14 26  2  0  0  0  0
 14 27  1  0  0  0  0
 15 22  1  0  0  0  0
 15 64  2  0  0  0  0
 16 28  1  0  0  0  0
 17 28  1  0  0  0  0
 17 30  2  0  0  0  0
 17 32  1  0  0  0  0
 18 20  2  0  0  0  0
 18 37  1  0  0  0  0
 19 21  2  0  0  0  0
 19 38  1  0  0  0  0
 20 46  1  0  0  0  0
 21 39  1  0  0  0  0
 22 29  2  0  0  0  0
 22 60  1  0  0  0  0
 23 81  1  0  0  0  0
 24 82  1  0  0  0  0
 25 27  2  0  0  0  0
 25 81  1  0  0  0  0
 26 83  1  0  0  0  0
 27 84  1  0  0  0  0
 28 65  2  0  0  0  0
 29 57  1  0  0  0  0
 29 66  1  0  0  0  0
 30 67  1  0  0  0  0
 30 70  1  0  0  0  0
 31 58  1  0  0  0  0
 31 64  1  0  0  0  0
 31 66  2  0  0  0  0
 32 71  1  0  0  0  0
 32 76  2  0  0  0  0
 33 47  1  0  0  0  0
 33 72  1  0  0  0  0
 33 77  2  0  0  0  0
 34 61  1  0  0  0  0
 34 68  1  0  0  0  0
 34 78  2  0  0  0  0
 35 62  1  0  0  0  0
 35 73  1  0  0  0  0
 35 79  2  0  0  0  0
 36 69  1  0  0  0  0
 36 74  1  0  0  0  0
 36 80  2  0  0  0  0
 37 40  1  0  0  0  0
 38 47  1  0  0  0  0
 39 68  1  0  0  0  0
 40 42  1  0  0  0  0
 41 43  1  0  0  0  0
 41 44  1  0  0  0  0
 42 46  1  0  0  0  0
 43 48  1  0  0  0  0
 44 69  1  0  0  0  0
 45 48  1  0  0  0  0
 45 69  1  0  0  0  0
 46 72  1  0  0  0  0
 47 68  1  0  0  0  0
 48 67  1  0  0  0  0
 49 57  1  0  0  0  0
 50 60  1  0  0  0  0
 51 62  1  0  0  0  0
 52 63  1  0  0  0  0
 53 63  1  0  0  0  0
 54 63  1  0  0  0  0
 55 74  1  0  0  0  0
 56 75  1  0  0  0  0
 58 74  1  0  0  0  0
 59 60  1  0  0  0  0
 59 82  1  0  0  0  0
 61 63  1  0  0  0  0
 61 73  1  0  0  0  0
 62 75  1  0  0  0  0
 65 67  1  0  0  0  0
M  CHG  1  75   1
M  ISO  4  36 100  59 101  74 100  82 101
M  END
> <Batch ID>
0057

> <Smiles>
CCc1nc(C[100N:0](C)[100C:0](=O)N2CCCC(n3nc(-c4ccc(Oc5ccc(F)cc5F)cc4)c(C(N)=O)c3N)C2)ncc1C(C)[101CH2:1][101O:1]c1ccc2c(c1)CN(C(=O)C(NC(=O)C(C)NC)C(C)(C)C)C(C(=O)NC1CCCc3ccccc31)C2

> <Shape>
0.202

> <Color>
0.183

> <Negative vol penalty>
0.000

$$$$

  -OEChem-04052317483D

 83 91  0     1  0  0  0  0  0999 V2000
  -16.9022  -25.7698   24.9788 C   0  0  0  0  0  0  0  0  0  0  0  0
  -17.6111  -24.8073   24.2671 C   0  0  0  0  0  0  0  0  0  0  0  0
  -28.4837  -14.1079   20.4909 C   0  0  0  0  0  0  0  0  0  0  0  0
  -27.8640  -13.6063   22.7716 C   0  0  0  0  0  0  0  0  0  0  0  0
  -17.1156  -27.1233   24.7212 C   0  0  0  0  0  0  0  0  0  0  0  0
  -18.5330  -25.1978   23.2965 C   0  0  0  0  0  0  0  0  0  0  0  0
  -23.8015  -22.4102   21.8901 C   0  0  0  0  0  0  0  0  0  0  0  0
  -27.5734  -13.1549   20.0339 C   0  0  0  0  0  0  0  0  0  0  0  0
  -26.9536  -12.6534   22.3146 C   0  0  0  0  0  0  0  0  0  0  0  0
  -24.1497  -21.5195   20.8756 C   0  0  0  0  0  0  0  0  0  0  0  0
  -23.8451  -12.6150   20.9893 C   0  0  0  0  0  0  0  0  0  0  0  0
  -22.5756  -12.6043   21.5671 C   0  0  0  0  0  0  0  0  0  0  0  0
  -24.9808  -23.3589   19.5545 C   0  0  0  0  0  0  0  0  0  0  0  0
  -22.9345  -10.3348   22.3138 C   0  0  0  0  0  0  0  0  0  0  0  0
  -28.6291  -14.3335   21.8597 C   0  0  0  0  0  0  0  0  0  0  0  0
  -30.9613  -15.3337   22.1204 C   0  0  0  0  0  0  0  0  0  0  0  0
  -18.0476  -27.5308   23.7538 C   0  0  0  0  0  0  0  0  0  0  0  0
  -24.0307  -23.7854   21.7397 C   0  0  0  0  0  0  0  0  0  0  0  0
  -18.7580  -26.5580   23.0248 C   0  0  0  0  0  0  0  0  0  0  0  0
  -24.6369  -24.2646   20.5696 C   0  0  0  0  0  0  0  0  0  0  0  0
  -26.8083  -12.4277   20.9458 C   0  0  0  0  0  0  0  0  0  0  0  0
  -24.7369  -21.9942   19.7063 C   0  0  0  0  0  0  0  0  0  0  0  0
  -24.6593  -11.4855   21.0737 C   0  0  0  0  0  0  0  0  0  0  0  0
  -22.1203  -11.4642   22.2293 C   0  0  0  0  0  0  0  0  0  0  0  0
  -24.2040  -10.3454   21.7359 C   0  0  0  0  0  0  0  0  0  0  0  0
  -29.5697  -15.3174   22.3324 C   0  0  0  0  0  0  0  0  0  0  0  0
  -31.3939  -16.4653   22.7676 C   0  0  0  0  0  0  0  0  0  0  0  0
  -28.4324  -19.9170   19.3766 C   0  0  0  0  0  0  0  0  0  0  0  0
  -29.3653  -20.8503   20.9940 C   0  0  0  0  0  0  0  0  0  0  0  0
  -31.7889  -14.4088   21.4026 C   0  0  0  0  0  0  0  0  0  0  0  0
  -22.1838  -26.3710   21.6530 C   0  0  0  0  0  0  0  0  0  0  0  0
  -25.0305  -27.9254   21.6048 C   0  0  0  0  0  0  0  0  0  0  0  0
  -28.3650  -27.8425   20.8826 C   0  0  0  0  0  0  0  0  0  0  0  0
  -28.1742  -21.4551   24.2756 C   0  0  0  0  0  0  0  0  0  0  0  0
  -18.2096  -29.0045   23.4772 C   0  0  0  0  0  0  0  0  0  0  0  0
  -23.6737  -24.7300   22.8544 C   0  0  0  0  0  0  0  0  0  0  0  0
  -24.9228  -25.7294   20.3673 C   0  0  0  0  0  0  0  0  0  0  0  0
  -19.4766  -29.3419   22.6954 C   0  0  0  0  0  0  0  0  0  0  0  0
  -30.3185  -19.3417   26.4289 C   0  0  0  0  0  0  0  0  0  0  0  0
  -19.6411  -28.3949   21.5109 C   0  0  0  0  0  0  0  0  0  0  0  0
  -30.4224  -18.0459   25.6263 C   0  0  0  0  0  0  0  0  0  0  0  0
  -29.0145  -20.0812   26.1459 C   0  0  0  0  0  0  0  0  0  0  0  0
  -28.8809  -19.0568   23.8993 C   0  0  0  0  0  0  0  0  0  0  0  0
  -19.7846  -26.9425   21.9815 C   0  0  1  0  0  0  0  0  0  0  0  0
  -23.4823  -26.1676   22.3811 C   0  0  1  0  0  0  0  0  0  0  0  0
  -30.2043  -18.3107   24.1265 C   0  0  2  0  0  0  0  0  0  0  0  0
  -32.5383  -19.6936   20.2466 C   0  0  0  0  0  0  0  0  0  0  0  0
  -30.7442  -28.6328   20.7739 C   0  0  0  0  0  0  0  0  0  0  0  0
  -24.0521  -29.3797   19.1073 C   0  0  0  0  0  0  0  0  0  0  0  0
  -26.4216  -30.0486   18.6533 C   0  0  0  0  0  0  0  0  0  0  0  0
  -25.2871  -30.8200   20.7366 C   0  0  0  0  0  0  0  0  0  0  0  0
  -27.9197  -23.1757   22.5279 C   0  0  0  0  0  0  0  0  0  0  0  0
  -28.9761  -26.7377   23.5593 C   0  0  0  0  0  0  0  0  0  0  0  0
  -27.3511  -19.2967   18.5284 C   0  0  0  0  0  0  0  0  0  0  0  0
  -29.7144  -21.5030   22.2685 C   0  0  0  0  0  0  0  0  0  0  0  0
  -26.8583  -20.2035   17.3986 C   0  0  0  0  0  0  0  0  0  0  0  0
  -31.6791  -20.9201   19.9917 C   0  0  0  0  0  0  0  0  0  0  0  0
  -26.1920  -21.4808   17.8967 C   0  0  0  0  0  0  0  0  0  1  0  0
  -25.9735  -28.3961   20.5239 C   0  0  1  0  0  0  0  0  0  0  0  0
  -29.5802  -28.2730   21.6840 C   0  0  2  0  0  0  0  0  0  0  0  0
  -25.4265  -29.6337   19.7580 C   0  0  0  0  0  0  0  0  0  0  0  0
  -29.1463  -16.3560   23.0577 N   0  0  0  0  0  0  0  0  0  0  0  0
  -28.1828  -20.4179   20.6222 N   0  0  0  0  0  0  0  0  0  0  0  0
  -29.6950  -20.0121   18.9544 N   0  0  0  0  0  0  0  0  0  0  0  0
  -30.2786  -17.0355   23.3072 N   0  0  0  0  0  0  0  0  0  0  0  0
  -30.2705  -20.6126   20.0072 N   0  0  0  0  0  0  0  0  0  0  0  0
  -24.5497  -26.6140   21.4835 N   0  0  0  0  0  0  0  0  0  0  0  0
  -28.8113  -20.2814   24.7106 N   0  0  0  0  0  0  0  0  0  0  0  0
  -32.6157  -17.0182   22.9222 N   0  0  0  0  0  0  0  0  0  0  0  0
  -32.3394  -13.3247   22.0997 N   0  0  0  0  0  0  0  0  0  0  0  0
  -21.1235  -26.7012   22.4752 N   0  0  0  0  0  0  0  0  0  0  0  0
  -27.2613  -28.6163   21.1731 N   0  0  0  0  0  0  0  0  0  0  0  0
  -28.5439  -21.9548   23.0177 N   0  0  0  0  0  0  0  0  0  0  0  0
  -30.0163  -27.1757   22.5933 N   0  3  0  0  0  0  0  0  0  0  0  0
  -32.0464  -14.5490   20.1829 O   0  0  0  0  0  0  0  0  0  0  0  0
  -22.1470  -26.2396   20.4352 O   0  0  0  0  0  0  0  0  0  0  0  0
  -24.7372  -28.6907   22.5267 O   0  0  0  0  0  0  0  0  0  0  0  0
  -28.3930  -26.9151   20.0766 O   0  0  0  0  0  0  0  0  0  0  0  0
  -27.3305  -22.0292   24.9760 O   0  0  0  0  0  0  0  0  0  0  0  0
  -25.9198  -11.4979   20.5002 O   0  0  0  0  0  0  0  0  0  0  0  0
  -25.0772  -21.1271   18.7142 O   0  0  0  0  0  0  0  0  0  1  0  0
  -20.9018  -11.4547   22.7855 F   0  0  0  0  0  0  0  0  0  0  0  0
  -24.9822   -9.2578   21.8213 F   0  0  0  0  0  0  0  0  0  0  0  0
  1  2  1  0  0  0  0
  1  5  2  0  0  0  0
  2  6  2  0  0  0  0
  3  8  2  0  0  0  0
  3 15  1  0  0  0  0
  4  9  1  0  0  0  0
  4 15  2  0  0  0  0
  5 17  1  0  0  0  0
  6 19  1  0  0  0  0
  7 10  2  0  0  0  0
  7 18  1  0  0  0  0
  8 21  1  0  0  0  0
  9 21  2  0  0  0  0
 10 22  1  0  0  0  0
 11 12  2  0  0  0  0
 11 23  1  0  0  0  0
 12 24  1  0  0  0  0
 13 20  1  0  0  0  0
 13 22  2  0  0  0  0
 14 24  2  0  0  0  0
 14 25  1  0  0  0  0
 15 26  1  0  0  0  0
 16 26  1  0  0  0  0
 16 27  2  0  0  0  0
 16 30  1  0  0  0  0
 17 19  2  0  0  0  0
 17 35  1  0  0  0  0
 18 20  2  0  0  0  0
 18 36  1  0  0  0  0
 19 44  1  0  0  0  0
 20 37  1  0  0  0  0
 21 80  1  0  0  0  0
 22 81  1  0  0  0  0
 23 25  2  0  0  0  0
 23 80  1  0  0  0  0
 24 82  1  0  0  0  0
 25 83  1  0  0  0  0
 26 62  2  0  0  0  0
 27 65  1  0  0  0  0
 27 69  1  0  0  0  0
 28 54  1  0  0  0  0
 28 63  1  0  0  0  0
 28 64  2  0  0  0  0
 29 55  1  0  0  0  0
 29 63  2  0  0  0  0
 29 66  1  0  0  0  0
 30 70  1  0  0  0  0
 30 75  2  0  0  0  0
 31 45  1  0  0  0  0
 31 71  1  0  0  0  0
 31 76  2  0  0  0  0
 32 59  1  0  0  0  0
 32 67  1  0  0  0  0
 32 77  2  0  0  0  0
 33 60  1  0  0  0  0
 33 72  1  0  0  0  0
 33 78  2  0  0  0  0
 34 68  1  0  0  0  0
 34 73  1  0  0  0  0
 34 79  2  0  0  0  0
 35 38  1  0  0  0  0
 36 45  1  0  0  0  0
 37 67  1  0  0  0  0
 38 40  1  0  0  0  0
 39 41  1  0  0  0  0
 39 42  1  0  0  0  0
 40 44  1  0  0  0  0
 41 46  1  0  0  0  0
 42 68  1  0  0  0  0
 43 46  1  0  0  0  0
 43 68  1  0  0  0  0
 44 71  1  0  0  0  0
 45 67  1  0  0  0  0
 46 65  1  0  0  0  0
 47 57  1  0  0  0  0
 48 60  1  0  0  0  0
 49 61  1  0  0  0  0
 50 61  1  0  0  0  0
 51 61  1  0  0  0  0
 52 73  1  0  0  0  0
 53 74  1  0  0  0  0
 54 56  1  0  0  0  0
 55 73  1  0  0  0  0
 56 58  1  0  0  0  0
 57 66  1  0  0  0  0
 58 81  1  0  0  0  0
 59 61  1  0  0  0  0
 59 72  1  0  0  0  0
 60 74  1  0  0  0  0
 62 65  1  0  0  0  0
 64 66  1  0  0  0  0
M  CHG  1  74   1
M  ISO  4  34 100  58 101  73 100  81 101
M  END
> <Batch ID>
0057

> <Smiles>
CCn1nc(CC[101CH2:1][101O:1]c2ccc3c(c2)CN(C(=O)C(NC(=O)C(C)NC)C(C)(C)C)C(C(=O)NC2CCCc4ccccc42)C3)nc1C[100N:0](C)[100C:0](=O)N1CCCC(n2nc(-c3ccc(Oc4ccc(F)cc4F)cc3)c(C(N)=O)c2N)C1

> <Shape>
0.230

> <Color>
0.082

> <Negative vol penalty>
0.000

$$$$

  -OEChem-04052317483D

 79 87  0     1  0  0  0  0  0999 V2000
  -22.2352  -27.3007   19.5567 C   0  0  0  0  0  0  0  0  0  0  0  0
  -22.9657  -26.1922   19.1408 C   0  0  0  0  0  0  0  0  0  0  0  0
  -22.4735  -14.9827   21.5802 C   0  0  0  0  0  0  0  0  0  0  0  0
  -23.4848  -17.0774   22.2336 C   0  0  0  0  0  0  0  0  0  0  0  0
  -22.8973  -28.4336   20.0281 C   0  0  0  0  0  0  0  0  0  0  0  0
  -24.3588  -26.2163   19.1950 C   0  0  0  0  0  0  0  0  0  0  0  0
  -26.3029  -21.9488   21.1066 C   0  0  0  0  0  0  0  0  0  0  0  0
  -21.5773  -15.0835   22.6443 C   0  0  0  0  0  0  0  0  0  0  0  0
  -22.5885  -17.1782   23.2976 C   0  0  0  0  0  0  0  0  0  0  0  0
  -26.3622  -20.8417   20.2613 C   0  0  0  0  0  0  0  0  0  0  0  0
  -18.7893  -14.9689   24.9743 C   0  0  0  0  0  0  0  0  0  0  0  0
  -17.4469  -14.6877   24.7204 C   0  0  0  0  0  0  0  0  0  0  0  0
  -28.6979  -21.2857   19.8534 C   0  0  0  0  0  0  0  0  0  0  0  0
  -17.3803  -16.4738   23.0948 C   0  0  0  0  0  0  0  0  0  0  0  0
  -29.6282  -18.2719   17.9834 C   0  0  0  0  0  0  0  0  0  0  0  0
  -23.4273  -15.9796   21.3749 C   0  0  0  0  0  0  0  0  0  0  0  0
  -24.1803  -16.3676   18.9686 C   0  0  0  0  0  0  0  0  0  0  0  0
  -24.2989  -28.4680   20.0972 C   0  0  0  0  0  0  0  0  0  0  0  0
  -27.4399  -22.7405   21.3234 C   0  0  0  0  0  0  0  0  0  0  0  0
  -25.0403  -27.3512   19.6665 C   0  0  0  0  0  0  0  0  0  0  0  0
  -28.6511  -22.4009   20.7038 C   0  0  0  0  0  0  0  0  0  0  0  0
  -21.6348  -16.1812   23.5029 C   0  0  0  0  0  0  0  0  0  0  0  0
  -27.5590  -20.5116   19.6323 C   0  0  0  0  0  0  0  0  0  0  0  0
  -19.4272  -16.0026   24.2885 C   0  0  0  0  0  0  0  0  0  0  0  0
  -16.7424  -15.4401   23.7806 C   0  0  0  0  0  0  0  0  0  0  0  0
  -18.7227  -16.7550   23.3488 C   0  0  0  0  0  0  0  0  0  0  0  0
  -24.3538  -15.8758   20.2762 C   0  0  0  0  0  0  0  0  0  0  0  0
  -25.3350  -16.0155   18.3134 C   0  0  0  0  0  0  0  0  0  0  0  0
  -28.7021  -18.5786   18.9400 C   0  0  0  0  0  0  0  0  0  1  0  0
  -30.1521  -17.1582   19.8235 C   0  0  0  0  0  0  0  0  0  0  0  0
  -23.0744  -17.0792   18.3974 C   0  0  0  0  0  0  0  0  0  0  0  0
  -28.1946  -25.7795   20.7769 C   0  0  0  0  0  0  0  0  0  0  0  0
  -30.8915  -24.9955   22.4001 C   0  0  0  0  0  0  0  0  0  0  0  0
  -30.8817  -14.8436   20.3065 C   0  0  0  0  0  0  0  0  0  0  0  0
  -33.0603  -22.5623   23.4113 C   0  0  0  0  0  0  0  0  0  0  0  0
  -24.9716  -29.7325   20.5696 C   0  0  0  0  0  0  0  0  0  0  0  0
  -27.3661  -23.9159   22.2590 C   0  0  0  0  0  0  0  0  0  0  0  0
  -29.9052  -23.2065   20.9193 C   0  0  0  0  0  0  0  0  0  0  0  0
  -26.4379  -29.5380   20.9469 C   0  0  0  0  0  0  0  0  0  0  0  0
  -28.7936  -12.7207   18.3133 C   0  0  0  0  0  0  0  0  0  0  0  0
  -27.1622  -28.7296   19.8752 C   0  0  0  0  0  0  0  0  0  0  0  0
  -27.3983  -13.3168   18.4947 C   0  0  0  0  0  0  0  0  0  0  0  0
  -29.6222  -12.8405   19.5885 C   0  0  0  0  0  0  0  0  0  0  0  0
  -28.3379  -14.8338   20.2950 C   0  0  0  0  0  0  0  0  0  0  0  0
  -26.5520  -27.3299   19.7334 C   0  0  1  0  0  0  0  0  0  0  0  0
  -28.4562  -24.9522   22.0036 C   0  0  1  0  0  0  0  0  0  0  0  0
  -27.4783  -14.7610   19.0205 C   0  0  2  0  0  0  0  0  0  0  0  0
  -35.1917  -22.2323   24.6941 C   0  0  0  0  0  0  0  0  0  0  0  0
  -30.0964  -16.2579   22.1642 C   0  0  0  0  0  0  0  0  0  0  0  0
  -32.3296  -16.5970   21.1002 C   0  0  0  0  0  0  0  0  0  0  0  0
  -32.4817  -26.0778   20.0316 C   0  0  0  0  0  0  0  0  0  0  0  0
  -34.4918  -24.8811   20.9237 C   0  0  0  0  0  0  0  0  0  0  0  0
  -33.4113  -26.6786   22.2742 C   0  0  0  0  0  0  0  0  0  0  0  0
  -31.6596  -16.8069   17.8900 C   0  0  0  0  0  0  0  0  0  0  0  0
  -31.7280  -20.8273   25.4047 C   0  0  0  0  0  0  0  0  0  0  0  0
  -32.2467  -24.4489   22.0210 C   0  0  1  0  0  0  0  0  0  0  0  0
  -33.6729  -22.2588   24.7667 C   0  0  2  0  0  0  0  0  0  0  0  0
  -30.8350  -16.2694   20.7954 C   0  0  0  0  0  0  0  0  0  0  0  0
  -33.1339  -25.5074   21.3068 C   0  0  0  0  0  0  0  0  0  0  0  0
  -25.5262  -15.2582   20.4436 N   0  0  0  0  0  0  0  0  0  0  0  0
  -30.5131  -17.3912   18.5574 N   0  0  0  0  0  0  0  0  0  0  0  0
  -26.0999  -15.3595   19.2325 N   0  0  0  0  0  0  0  0  0  0  0  0
  -29.0507  -17.8757   20.0680 N   0  3  0  0  0  0  0  0  0  0  0  0
  -29.7808  -24.3502   21.8381 N   0  0  0  0  0  0  0  0  0  0  0  0
  -29.6552  -14.2233   20.0682 N   0  0  0  0  0  0  0  0  0  0  0  0
  -25.7604  -16.2061   17.0465 N   0  0  0  0  0  0  0  0  0  0  0  0
  -21.9679  -17.3588   19.2108 N   0  0  0  0  0  0  0  0  0  0  0  0
  -26.9994  -26.4721   20.8098 N   0  0  0  0  0  0  0  0  0  0  0  0
  -32.8274  -23.9113   23.2466 N   0  0  0  0  0  0  0  0  0  0  0  0
  -33.2029  -20.9343   25.2626 N   0  3  0  0  0  0  0  0  0  0  0  0
  -23.0608  -17.4415   17.1965 O   0  0  0  0  0  0  0  0  0  0  0  0
  -29.0170  -25.7898   19.8684 O   0  0  0  0  0  0  0  0  0  0  0  0
  -30.8207  -25.9549   23.1721 O   0  0  0  0  0  0  0  0  0  0  0  0
  -31.9766  -14.3001   20.1391 O   0  0  0  0  0  0  0  0  0  0  0  0
  -32.8165  -21.6903   22.5802 O   0  0  0  0  0  0  0  0  0  0  0  0
  -20.7602  -16.2800   24.5412 O   0  0  0  0  0  0  0  0  0  0  0  0
  -27.6195  -19.4319   18.8063 O   0  0  0  0  0  0  0  0  0  1  0  0
  -15.4538  -15.1690   23.5358 F   0  0  0  0  0  0  0  0  0  0  0  0
  -19.3305  -17.7486   22.6860 F   0  0  0  0  0  0  0  0  0  0  0  0
  1  2  1  0  0  0  0
  1  5  2  0  0  0  0
  2  6  2  0  0  0  0
  3  8  2  0  0  0  0
  3 16  1  0  0  0  0
  4  9  1  0  0  0  0
  4 16  2  0  0  0  0
  5 18  1  0  0  0  0
  6 20  1  0  0  0  0
  7 10  2  0  0  0  0
  7 19  1  0  0  0  0
  8 22  1  0  0  0  0
  9 22  2  0  0  0  0
 10 23  1  0  0  0  0
 11 12  2  0  0  0  0
 11 24  1  0  0  0  0
 12 25  1  0  0  0  0
 13 21  1  0  0  0  0
 13 23  2  0  0  0  0
 14 25  2  0  0  0  0
 14 26  1  0  0  0  0
 15 29  2  0  0  0  0
 15 61  1  0  0  0  0
 16 27  1  0  0  0  0
 17 27  1  0  0  0  0
 17 28  2  0  0  0  0
 17 31  1  0  0  0  0
 18 20  2  0  0  0  0
 18 36  1  0  0  0  0
 19 21  2  0  0  0  0
 19 37  1  0  0  0  0
 20 45  1  0  0  0  0
 21 38  1  0  0  0  0
 22 76  1  0  0  0  0
 23 77  1  0  0  0  0
 24 26  2  0  0  0  0
 24 76  1  0  0  0  0
 25 78  1  0  0  0  0
 26 79  1  0  0  0  0
 27 60  2  0  0  0  0
 28 62  1  0  0  0  0
 28 66  1  0  0  0  0
 29 63  1  0  0  0  0
 29 77  1  0  0  0  0
 30 58  1  0  0  0  0
 30 61  1  0  0  0  0
 30 63  2  0  0  0  0
 31 67  1  0  0  0  0
 31 71  2  0  0  0  0
 32 46  1  0  0  0  0
 32 68  1  0  0  0  0
 32 72  2  0  0  0  0
 33 56  1  0  0  0  0
 33 64  1  0  0  0  0
 33 73  2  0  0  0  0
 34 58  1  0  0  0  0
 34 65  1  0  0  0  0
 34 74  2  0  0  0  0
 35 57  1  0  0  0  0
 35 69  1  0  0  0  0
 35 75  2  0  0  0  0
 36 39  1  0  0  0  0
 37 46  1  0  0  0  0
 38 64  1  0  0  0  0
 39 41  1  0  0  0  0
 40 42  1  0  0  0  0
 40 43  1  0  0  0  0
 41 45  1  0  0  0  0
 42 47  1  0  0  0  0
 43 65  1  0  0  0  0
 44 47  1  0  0  0  0
 44 65  1  0  0  0  0
 45 68  1  0  0  0  0
 46 64  1  0  0  0  0
 47 62  1  0  0  0  0
 48 57  1  0  0  0  0
 49 58  1  0  0  0  0
 50 58  1  0  0  0  0
 51 59  1  0  0  0  0
 52 59  1  0  0  0  0
 53 59  1  0  0  0  0
 54 61  1  0  0  0  0
 55 70  1  0  0  0  0
 56 59  1  0  0  0  0
 56 69  1  0  0  0  0
 57 70  1  0  0  0  0
 60 62  1  0  0  0  0
M  CHG  2  63   1  70   1
M  ISO  4  29 101  34 100  58 100  77 101
M  END
> <Batch ID>
0057

> <Smiles>
CNC(C)C(=O)NC(C(=O)N1Cc2cc([101O:1][101c:1]3cn(C)c([100C:0](C)(C)[100C:0](=O)N4CCCC(n5nc(-c6ccc(Oc7ccc(F)cc7F)cc6)c(C(N)=O)c5N)C4)n3)ccc2CC1C(=O)NC1CCCc2ccccc21)C(C)(C)C

> <Shape>
0.187

> <Color>
0.061

> <Negative vol penalty>
0.000

$$$$

  -OEChem-04052317483D

 82 90  0     1  0  0  0  0  0999 V2000
  -28.3659  -11.5563   21.4153 C   0  0  0  0  0  0  0  0  0  0  0  0
  -28.8988  -12.8016   21.0982 C   0  0  0  0  0  0  0  0  0  0  0  0
  -23.1847  -29.2980   21.7666 C   0  0  0  0  0  0  0  0  0  0  0  0
  -22.7249  -28.9476   19.4208 C   0  0  0  0  0  0  0  0  0  0  0  0
  -27.0167  -11.2959   21.1788 C   0  0  0  0  0  0  0  0  0  0  0  0
  -28.0830  -13.7870   20.5433 C   0  0  0  0  0  0  0  0  0  0  0  0
  -28.4473  -19.8276   21.4836 C   0  0  0  0  0  0  0  0  0  0  0  0
  -21.8691  -29.7184   21.9617 C   0  0  0  0  0  0  0  0  0  0  0  0
  -21.4093  -29.3680   19.6158 C   0  0  0  0  0  0  0  0  0  0  0  0
  -29.0228  -20.8592   20.7430 C   0  0  0  0  0  0  0  0  0  0  0  0
  -18.5327  -30.5403   23.1481 C   0  0  0  0  0  0  0  0  0  0  0  0
  -17.8499  -30.0407   24.2570 C   0  0  0  0  0  0  0  0  0  0  0  0
  -26.8789  -21.3280   19.7414 C   0  0  0  0  0  0  0  0  0  0  0  0
  -18.1401  -27.7920   23.4226 C   0  0  0  0  0  0  0  0  0  0  0  0
  -30.8673  -25.2577   19.0001 C   0  0  0  0  0  0  0  0  0  0  0  0
  -30.7648  -23.8951   17.1056 C   0  0  0  0  0  0  0  0  0  0  0  0
  -23.6127  -28.9126   20.4961 C   0  0  0  0  0  0  0  0  0  0  0  0
  -25.4683  -27.1652   20.3925 C   0  0  0  0  0  0  0  0  0  0  0  0
  -26.1818  -12.2818   20.6297 C   0  0  0  0  0  0  0  0  0  0  0  0
  -27.0833  -19.5310   21.3503 C   0  0  0  0  0  0  0  0  0  0  0  0
  -26.7217  -13.5392   20.2980 C   0  0  0  0  0  0  0  0  0  0  0  0
  -26.2880  -20.2939   20.4834 C   0  0  0  0  0  0  0  0  0  0  0  0
  -30.6123  -24.0084   18.4724 C   0  0  0  0  0  0  0  0  0  0  0  0
  -20.9814  -29.7534   20.8863 C   0  0  0  0  0  0  0  0  0  0  0  0
  -28.2392  -21.6077   19.8696 C   0  0  0  0  0  0  0  0  0  0  0  0
  -19.0192  -29.6658   22.1763 C   0  0  0  0  0  0  0  0  0  0  0  0
  -17.6536  -28.6666   24.3943 C   0  0  0  0  0  0  0  0  0  0  0  0
  -18.8229  -28.2917   22.3136 C   0  0  0  0  0  0  0  0  0  0  0  0
  -24.9717  -28.4788   20.2938 C   0  0  0  0  0  0  0  0  0  0  0  0
  -26.8077  -27.2825   20.1116 C   0  0  0  0  0  0  0  0  0  0  0  0
  -31.3569  -26.0835   16.9396 C   0  0  0  0  0  0  0  0  0  0  0  0
  -24.7805  -25.9479   20.7096 C   0  0  0  0  0  0  0  0  0  0  0  0
  -25.4223  -16.9969   20.3893 C   0  0  0  0  0  0  0  0  0  0  0  0
  -22.8897  -18.7749   21.3624 C   0  0  0  0  0  0  0  0  0  0  0  0
  -21.5978  -21.8670   22.0081 C   0  0  0  0  0  0  0  0  0  0  0  0
  -31.0047  -29.3029   17.1941 C   0  0  0  0  0  0  0  0  0  0  0  0
  -24.7405  -11.9382   20.3483 C   0  0  0  0  0  0  0  0  0  0  0  0
  -26.4721  -18.4324   22.1762 C   0  0  0  0  0  0  0  0  0  0  0  0
  -24.8145  -20.0288   20.3191 C   0  0  0  0  0  0  0  0  0  0  0  0
  -23.8592  -13.1606   20.1050 C   0  0  0  0  0  0  0  0  0  0  0  0
  -29.7476  -31.3653   19.6825 C   0  0  0  0  0  0  0  0  0  0  0  0
  -24.5399  -14.1260   19.1399 C   0  0  0  0  0  0  0  0  0  0  0  0
  -28.4294  -30.7017   20.0787 C   0  0  0  0  0  0  0  0  0  0  0  0
  -29.9493  -31.3167   18.1727 C   0  0  0  0  0  0  0  0  0  0  0  0
  -28.5951  -29.2540   17.9923 C   0  0  0  0  0  0  0  0  0  0  0  0
  -25.8633  -14.6421   19.7176 C   0  0  1  0  0  0  0  0  0  0  0  0
  -25.1805  -17.8833   21.5782 C   0  0  1  0  0  0  0  0  0  0  0  0
  -28.3396  -29.2735   19.5133 C   0  0  2  0  0  0  0  0  0  0  0  0
  -19.4887  -23.0043   22.7535 C   0  0  0  0  0  0  0  0  0  0  0  0
  -30.7123  -29.2231   13.8872 C   0  0  0  0  0  0  0  0  0  0  0  0
  -29.3897  -27.1964   14.5704 C   0  0  0  0  0  0  0  0  0  0  0  0
  -21.6782  -18.3355   18.5967 C   0  0  0  0  0  0  0  0  0  0  0  0
  -20.0996  -20.2215   19.0651 C   0  0  0  0  0  0  0  0  0  0  0  0
  -20.0490  -18.1726   20.4871 C   0  0  0  0  0  0  0  0  0  0  0  0
  -22.9179  -23.0013   24.4018 C   0  0  0  0  0  0  0  0  0  0  0  0
  -30.1940  -22.8497   19.3290 C   0  0  0  0  0  0  0  0  0  1  0  0
  -31.7671  -27.2362   16.0873 C   0  0  0  0  0  0  0  0  0  0  0  0
  -21.9809  -19.7883   20.7095 C   0  0  1  0  0  0  0  0  0  0  0  0
  -20.8153  -22.4044   23.1928 C   0  0  2  0  0  0  0  0  0  0  0  0
  -29.9613  -28.5348   15.0201 C   0  0  0  0  0  0  0  0  0  0  0  0
  -20.9801  -19.1334   19.7160 C   0  0  0  0  0  0  0  0  0  0  0  0
  -31.2429  -26.3216   18.2601 N   0  0  0  0  0  0  0  0  0  0  0  0
  -31.1370  -24.9159   16.3057 N   0  0  0  0  0  0  0  0  0  0  0  0
  -25.9185  -29.3654   19.9753 N   0  0  0  0  0  0  0  0  0  0  0  0
  -27.0235  -28.6077   19.8715 N   0  0  0  0  0  0  0  0  0  0  0  0
  -24.2648  -18.9401   21.1438 N   0  0  0  0  0  0  0  0  0  0  0  0
  -29.8522  -29.9462   17.6693 N   0  0  0  0  0  0  0  0  0  0  0  0
  -27.8100  -26.3805   20.0491 N   0  0  0  0  0  0  0  0  0  0  0  0
  -23.4048  -26.0064   20.9712 N   0  0  0  0  0  0  0  0  0  0  0  0
  -25.6163  -15.6668   20.7094 N   0  0  0  0  0  0  0  0  0  0  0  0
  -21.3472  -20.5278   21.7956 N   0  0  0  0  0  0  0  0  0  0  0  0
  -30.8350  -28.3510   16.1774 N   0  0  0  0  0  0  0  0  0  0  0  0
  -21.5987  -23.4598   23.8952 N   0  3  0  0  0  0  0  0  0  0  0  0
  -25.3715  -24.8434   20.7755 O   0  0  0  0  0  0  0  0  0  0  0  0
  -25.4307  -17.4836   19.2646 O   0  0  0  0  0  0  0  0  0  0  0  0
  -22.3981  -17.8744   22.0472 O   0  0  0  0  0  0  0  0  0  0  0  0
  -22.3527  -22.5662   21.3360 O   0  0  0  0  0  0  0  0  0  0  0  0
  -32.1254  -29.5691   17.6470 O   0  0  0  0  0  0  0  0  0  0  0  0
  -19.6975  -30.1633   21.0764 O   0  0  0  0  0  0  0  0  0  0  0  0
  -28.7986  -22.6147   19.1450 O   0  0  0  0  0  0  0  0  0  1  0  0
  -16.9993  -28.1868   25.4600 F   0  0  0  0  0  0  0  0  0  0  0  0
  -19.2890  -27.4465   21.3839 F   0  0  0  0  0  0  0  0  0  0  0  0
  1  2  1  0  0  0  0
  1  5  2  0  0  0  0
  2  6  2  0  0  0  0
  3  8  2  0  0  0  0
  3 17  1  0  0  0  0
  4  9  1  0  0  0  0
  4 17  2  0  0  0  0
  5 19  1  0  0  0  0
  6 21  1  0  0  0  0
  7 10  2  0  0  0  0
  7 20  1  0  0  0  0
  8 24  1  0  0  0  0
  9 24  2  0  0  0  0
 10 25  1  0  0  0  0
 11 12  2  0  0  0  0
 11 26  1  0  0  0  0
 12 27  1  0  0  0  0
 13 22  1  0  0  0  0
 13 25  2  0  0  0  0
 14 27  2  0  0  0  0
 14 28  1  0  0  0  0
 15 23  1  0  0  0  0
 15 62  2  0  0  0  0
 16 23  2  0  0  0  0
 16 63  1  0  0  0  0
 17 29  1  0  0  0  0
 18 29  1  0  0  0  0
 18 30  2  0  0  0  0
 18 32  1  0  0  0  0
 19 21  2  0  0  0  0
 19 37  1  0  0  0  0
 20 22  2  0  0  0  0
 20 38  1  0  0  0  0
 21 46  1  0  0  0  0
 22 39  1  0  0  0  0
 23 56  1  0  0  0  0
 24 79  1  0  0  0  0
 25 80  1  0  0  0  0
 26 28  2  0  0  0  0
 26 79  1  0  0  0  0
 27 81  1  0  0  0  0
 28 82  1  0  0  0  0
 29 64  2  0  0  0  0
 30 65  1  0  0  0  0
 30 68  1  0  0  0  0
 31 57  1  0  0  0  0
 31 62  1  0  0  0  0
 31 63  2  0  0  0  0
 32 69  1  0  0  0  0
 32 74  2  0  0  0  0
 33 47  1  0  0  0  0
 33 70  1  0  0  0  0
 33 75  2  0  0  0  0
 34 58  1  0  0  0  0
 34 66  1  0  0  0  0
 34 76  2  0  0  0  0
 35 59  1  0  0  0  0
 35 71  1  0  0  0  0
 35 77  2  0  0  0  0
 36 67  1  0  0  0  0
 36 72  1  0  0  0  0
 36 78  2  0  0  0  0
 37 40  1  0  0  0  0
 38 47  1  0  0  0  0
 39 66  1  0  0  0  0
 40 42  1  0  0  0  0
 41 43  1  0  0  0  0
 41 44  1  0  0  0  0
 42 46  1  0  0  0  0
 43 48  1  0  0  0  0
 44 67  1  0  0  0  0
 45 48  1  0  0  0  0
 45 67  1  0  0  0  0
 46 70  1  0  0  0  0
 47 66  1  0  0  0  0
 48 65  1  0  0  0  0
 49 59  1  0  0  0  0
 50 60  1  0  0  0  0
 51 60  1  0  0  0  0
 52 61  1  0  0  0  0
 53 61  1  0  0  0  0
 54 61  1  0  0  0  0
 55 73  1  0  0  0  0
 56 80  1  0  0  0  0
 57 72  1  0  0  0  0
 58 61  1  0  0  0  0
 58 71  1  0  0  0  0
 59 73  1  0  0  0  0
 60 72  1  0  0  0  0
 64 65  1  0  0  0  0
M  CHG  1  73   1
M  ISO  4  36 100  56 101  72 100  80 101
M  END
> <Batch ID>
0057

> <Smiles>
CNC(C)C(=O)NC(C(=O)N1Cc2cc([101O:1][101CH2:1]c3cnc(C[100N:0](C(C)C)[100C:0](=O)N4CCCC(n5nc(-c6ccc(Oc7ccc(F)cc7F)cc6)c(C(N)=O)c5N)C4)nc3)ccc2CC1C(=O)NC1CCCc2ccccc21)C(C)(C)C

> <Shape>
0.210

> <Color>
0.085

> <Negative vol penalty>
0.000

$$$$

  -OEChem-04052317483D

 80 88  0     1  0  0  0  0  0999 V2000
  -35.7868  -28.4101   20.4224 C   0  0  0  0  0  0  0  0  0  0  0  0
  -35.0030  -27.2850   20.6573 C   0  0  0  0  0  0  0  0  0  0  0  0
  -23.6246   -9.5825   21.5066 C   0  0  0  0  0  0  0  0  0  0  0  0
  -24.1339  -10.6480   23.6143 C   0  0  0  0  0  0  0  0  0  0  0  0
  -35.1857  -29.6604   20.2832 C   0  0  0  0  0  0  0  0  0  0  0  0
  -33.6175  -27.4098   20.7543 C   0  0  0  0  0  0  0  0  0  0  0  0
  -31.1575  -23.8221   18.1617 C   0  0  0  0  0  0  0  0  0  0  0  0
  -23.0485   -8.5103   22.1877 C   0  0  0  0  0  0  0  0  0  0  0  0
  -23.5577   -9.5758   24.2955 C   0  0  0  0  0  0  0  0  0  0  0  0
  -31.0771  -22.5578   18.7439 C   0  0  0  0  0  0  0  0  0  0  0  0
  -24.4204   -6.4251   25.1671 C   0  0  0  0  0  0  0  0  0  0  0  0
  -25.1115   -5.9063   26.2621 C   0  0  0  0  0  0  0  0  0  0  0  0
  -28.8321  -23.0457   19.4793 C   0  0  0  0  0  0  0  0  0  0  0  0
  -23.2373   -6.4312   27.6936 C   0  0  0  0  0  0  0  0  0  0  0  0
  -30.1735  -16.5541   20.3431 C   0  0  0  0  0  0  0  0  0  0  0  0
  -30.6729  -18.6711   21.8912 C   0  0  0  0  0  0  0  0  0  0  0  0
  -24.1674  -10.6514   22.2198 C   0  0  0  0  0  0  0  0  0  0  0  0
  -24.1206  -12.9326   21.0790 C   0  0  0  0  0  0  0  0  0  0  0  0
  -33.7914  -29.7991   20.3690 C   0  0  0  0  0  0  0  0  0  0  0  0
  -30.0779  -24.7133   18.2436 C   0  0  0  0  0  0  0  0  0  0  0  0
  -32.9973  -28.6634   20.6175 C   0  0  0  0  0  0  0  0  0  0  0  0
  -28.9003  -24.3198   18.8952 C   0  0  0  0  0  0  0  0  0  0  0  0
  -23.0150   -8.5069   23.5822 C   0  0  0  0  0  0  0  0  0  0  0  0
  -29.9154  -22.1705   19.4052 C   0  0  0  0  0  0  0  0  0  0  0  0
  -23.1378   -6.9470   25.3354 C   0  0  0  0  0  0  0  0  0  0  0  0
  -24.5199   -5.9094   27.5253 C   0  0  0  0  0  0  0  0  0  0  0  0
  -22.5463   -6.9500   26.5986 C   0  0  0  0  0  0  0  0  0  0  0  0
  -24.7631  -11.7590   21.5168 C   0  0  0  0  0  0  0  0  0  0  0  0
  -30.1634  -16.4486   21.7165 C   0  0  0  0  0  0  0  0  0  0  0  0
  -30.6837  -18.7766   20.5178 C   0  0  0  0  0  0  0  0  0  0  0  0
  -25.1136  -13.6616   20.4716 C   0  0  0  0  0  0  0  0  0  0  0  0
  -22.7488  -13.3285   21.2098 C   0  0  0  0  0  0  0  0  0  0  0  0
  -29.6359  -27.5902   19.5211 C   0  0  0  0  0  0  0  0  0  0  0  0
  -26.7516  -27.3698   18.0534 C   0  0  0  0  0  0  0  0  0  0  0  0
  -24.3032  -25.3741   16.7613 C   0  0  0  0  0  0  0  0  0  0  0  0
  -31.1725  -13.2635   21.2897 C   0  0  0  0  0  0  0  0  0  0  0  0
  -33.1910  -31.1783   20.2590 C   0  0  0  0  0  0  0  0  0  0  0  0
  -30.1706  -26.0635   17.5873 C   0  0  0  0  0  0  0  0  0  0  0  0
  -27.7057  -25.2318   18.9934 C   0  0  0  0  0  0  0  0  0  0  0  0
  -31.6863  -31.1688   20.0020 C   0  0  0  0  0  0  0  0  0  0  0  0
  -29.2481  -13.1553   18.1296 C   0  0  0  0  0  0  0  0  0  0  0  0
  -30.9910  -30.1857   20.9385 C   0  0  0  0  0  0  0  0  0  0  0  0
  -27.8387  -12.8127   18.6094 C   0  0  0  0  0  0  0  0  0  0  0  0
  -30.3166  -12.6062   19.0701 C   0  0  0  0  0  0  0  0  0  0  0  0
  -28.7333  -12.6805   20.9680 C   0  0  0  0  0  0  0  0  0  0  0  0
  -31.4893  -28.7544   20.7045 C   0  0  1  0  0  0  0  0  0  0  0  0
  -29.1993  -27.0820   18.1762 C   0  0  1  0  0  0  0  0  0  0  0  0
  -27.6318  -13.2592   20.0673 C   0  0  2  0  0  0  0  0  0  0  0  0
  -22.0484  -25.4814   15.6651 C   0  0  0  0  0  0  0  0  0  0  0  0
  -25.4707  -27.9844   20.7537 C   0  0  0  0  0  0  0  0  0  0  0  0
  -23.2961  -27.1529   19.8330 C   0  0  0  0  0  0  0  0  0  0  0  0
  -24.4053  -29.1377   18.8071 C   0  0  0  0  0  0  0  0  0  0  0  0
  -32.1166  -14.5256   23.1859 C   0  0  0  0  0  0  0  0  0  0  0  0
  -25.3047  -24.0566   14.3077 C   0  0  0  0  0  0  0  0  0  0  0  0
  -29.8714  -15.1444   22.3723 C   0  0  0  0  0  0  0  0  0  0  0  0
  -30.9776  -20.0912   19.8568 C   0  0  0  0  0  0  0  0  0  1  0  0
  -25.3925  -26.8391   18.4411 C   0  0  1  0  0  0  0  0  0  0  0  0
  -23.5519  -25.4266   15.4433 C   0  0  2  0  0  0  0  0  0  0  0  0
  -24.6642  -27.7618   19.4587 C   0  0  0  0  0  0  0  0  0  0  0  0
  -30.4126  -17.5052   22.5152 N   0  0  0  0  0  0  0  0  0  0  0  0
  -30.4342  -17.7200   19.7191 N   0  0  0  0  0  0  0  0  0  0  0  0
  -26.0637  -11.7393   21.2131 N   0  0  0  0  0  0  0  0  0  0  0  0
  -26.2464  -12.9094   20.5779 N   0  0  0  0  0  0  0  0  0  0  0  0
  -27.8475  -26.5440   18.3413 N   0  0  0  0  0  0  0  0  0  0  0  0
  -30.0717  -13.0098   20.4551 N   0  0  0  0  0  0  0  0  0  0  0  0
  -25.1196  -14.8661   19.8621 N   0  0  0  0  0  0  0  0  0  0  0  0
  -21.8622  -12.4606   21.8619 N   0  0  0  0  0  0  0  0  0  0  0  0
  -30.8787  -28.1944   19.5180 N   0  0  0  0  0  0  0  0  0  0  0  0
  -24.6640  -26.6326   17.1940 N   0  0  0  0  0  0  0  0  0  0  0  0
  -31.0006  -14.2195   22.3022 N   0  0  0  0  0  0  0  0  0  0  0  0
  -23.8622  -24.2225   14.6219 N   0  3  0  0  0  0  0  0  0  0  0  0
  -22.3183  -14.4121   20.7474 O   0  0  0  0  0  0  0  0  0  0  0  0
  -28.8992  -27.4461   20.4897 O   0  0  0  0  0  0  0  0  0  0  0  0
  -26.8370  -28.4732   17.5085 O   0  0  0  0  0  0  0  0  0  0  0  0
  -24.5426  -24.3222   17.3501 O   0  0  0  0  0  0  0  0  0  0  0  0
  -32.2506  -12.6762   21.1325 O   0  0  0  0  0  0  0  0  0  0  0  0
  -22.4527   -7.4609   24.2472 O   0  0  0  0  0  0  0  0  0  0  0  0
  -29.8346  -20.9373   19.9749 O   0  0  0  0  0  0  0  0  0  1  0  0
  -25.1831   -5.4098   28.5764 F   0  0  0  0  0  0  0  0  0  0  0  0
  -21.3139   -7.4490   26.7662 F   0  0  0  0  0  0  0  0  0  0  0  0
  1  2  1  0  0  0  0
  1  5  2  0  0  0  0
  2  6  2  0  0  0  0
  3  8  2  0  0  0  0
  3 17  1  0  0  0  0
  4  9  1  0  0  0  0
  4 17  2  0  0  0  0
  5 19  1  0  0  0  0
  6 21  1  0  0  0  0
  7 10  2  0  0  0  0
  7 20  1  0  0  0  0
  8 23  1  0  0  0  0
  9 23  2  0  0  0  0
 10 24  1  0  0  0  0
 11 12  2  0  0  0  0
 11 25  1  0  0  0  0
 12 26  1  0  0  0  0
 13 22  1  0  0  0  0
 13 24  2  0  0  0  0
 14 26  2  0  0  0  0
 14 27  1  0  0  0  0
 15 29  2  0  0  0  0
 15 61  1  0  0  0  0
 16 30  1  0  0  0  0
 16 60  2  0  0  0  0
 17 28  1  0  0  0  0
 18 28  1  0  0  0  0
 18 31  2  0  0  0  0
 18 32  1  0  0  0  0
 19 21  2  0  0  0  0
 19 37  1  0  0  0  0
 20 22  2  0  0  0  0
 20 38  1  0  0  0  0
 21 46  1  0  0  0  0
 22 39  1  0  0  0  0
 23 77  1  0  0  0  0
 24 78  1  0  0  0  0
 25 27  2  0  0  0  0
 25 77  1  0  0  0  0
 26 79  1  0  0  0  0
 27 80  1  0  0  0  0
 28 62  2  0  0  0  0
 29 55  1  0  0  0  0
 29 60  1  0  0  0  0
 30 56  1  0  0  0  0
 30 61  2  0  0  0  0
 31 63  1  0  0  0  0
 31 66  1  0  0  0  0
 32 67  1  0  0  0  0
 32 72  2  0  0  0  0
 33 47  1  0  0  0  0
 33 68  1  0  0  0  0
 33 73  2  0  0  0  0
 34 57  1  0  0  0  0
 34 64  1  0  0  0  0
 34 74  2  0  0  0  0
 35 58  1  0  0  0  0
 35 69  1  0  0  0  0
 35 75  2  0  0  0  0
 36 65  1  0  0  0  0
 36 70  1  0  0  0  0
 36 76  2  0  0  0  0
 37 40  1  0  0  0  0
 38 47  1  0  0  0  0
 39 64  1  0  0  0  0
 40 42  1  0  0  0  0
 41 43  1  0  0  0  0
 41 44  1  0  0  0  0
 42 46  1  0  0  0  0
 43 48  1  0  0  0  0
 44 65  1  0  0  0  0
 45 48  1  0  0  0  0
 45 65  1  0  0  0  0
 46 68  1  0  0  0  0
 47 64  1  0  0  0  0
 48 63  1  0  0  0  0
 49 58  1  0  0  0  0
 50 59  1  0  0  0  0
 51 59  1  0  0  0  0
 52 59  1  0  0  0  0
 53 70  1  0  0  0  0
 54 71  1  0  0  0  0
 55 70  1  0  0  0  0
 56 78  1  0  0  0  0
 57 59  1  0  0  0  0
 57 69  1  0  0  0  0
 58 71  1  0  0  0  0
 62 63  1  0  0  0  0
M  CHG  1  71   1
M  ISO  4  36 100  56 101  70 100  78 101
M  END
> <Batch ID>
0057

> <Smiles>
CNC(C)C(=O)NC(C(=O)N1Cc2cc([101O:1][101CH2:1]c3cnc(C[100N:0](C)[100C:0](=O)N4CCCC(n5nc(-c6ccc(Oc7ccc(F)cc7F)cc6)c(C(N)=O)c5N)C4)cn3)ccc2CC1C(=O)NC1CCCc2ccccc21)C(C)(C)C

> <Shape>
0.248

> <Color>
0.159

> <Negative vol penalty>
0.000

$$$$

  -OEChem-04052317483D

 78 86  0     1  0  0  0  0  0999 V2000
  -17.2041  -26.2195   21.3904 C   0  0  0  0  0  0  0  0  0  0  0  0
  -18.4598  -26.2332   20.7917 C   0  0  0  0  0  0  0  0  0  0  0  0
  -26.9663  -12.9548   20.6516 C   0  0  0  0  0  0  0  0  0  0  0  0
  -25.8873  -14.1091   18.8239 C   0  0  0  0  0  0  0  0  0  0  0  0
  -16.9435  -27.0492   22.4801 C   0  0  0  0  0  0  0  0  0  0  0  0
  -19.4554  -27.0777   21.2818 C   0  0  0  0  0  0  0  0  0  0  0  0
  -23.9402  -24.7614   21.6896 C   0  0  0  0  0  0  0  0  0  0  0  0
  -26.0971  -11.8768   20.4839 C   0  0  0  0  0  0  0  0  0  0  0  0
  -25.0181  -13.0311   18.6562 C   0  0  0  0  0  0  0  0  0  0  0  0
  -24.6753  -24.5864   20.5180 C   0  0  0  0  0  0  0  0  0  0  0  0
  -22.9068  -11.1017   21.2874 C   0  0  0  0  0  0  0  0  0  0  0  0
  -22.3319  -10.5496   22.4321 C   0  0  0  0  0  0  0  0  0  0  0  0
  -26.0281  -26.5006   21.0882 C   0  0  0  0  0  0  0  0  0  0  0  0
  -23.3518   -8.4207   21.9175 C   0  0  0  0  0  0  0  0  0  0  0  0
  -29.8277  -25.2615   18.5909 C   0  0  0  0  0  0  0  0  0  0  0  0
  -26.8614  -14.0710   19.8216 C   0  0  0  0  0  0  0  0  0  0  0  0
  -29.0087  -15.3739   19.3757 C   0  0  0  0  0  0  0  0  0  0  0  0
  -17.9394  -27.8972   22.9899 C   0  0  0  0  0  0  0  0  0  0  0  0
  -24.2369  -25.8155   22.5654 C   0  0  0  0  0  0  0  0  0  0  0  0
  -19.2075  -27.9205   22.3785 C   0  0  0  0  0  0  0  0  0  0  0  0
  -25.2969  -26.6852   22.2716 C   0  0  0  0  0  0  0  0  0  0  0  0
  -25.1231  -11.9150   19.4862 C   0  0  0  0  0  0  0  0  0  0  0  0
  -25.7176  -25.4579   20.2157 C   0  0  0  0  0  0  0  0  0  0  0  0
  -23.7042  -10.3134   20.4577 C   0  0  0  0  0  0  0  0  0  0  0  0
  -22.5544   -9.2091   22.7471 C   0  0  0  0  0  0  0  0  0  0  0  0
  -23.9267   -8.9729   20.7728 C   0  0  0  0  0  0  0  0  0  0  0  0
  -27.7585  -15.1851   19.9947 C   0  0  0  0  0  0  0  0  0  0  0  0
  -29.4577  -16.5749   19.8681 C   0  0  0  0  0  0  0  0  0  0  0  0
  -29.6803  -23.3092   19.5266 C   0  0  0  0  0  0  0  0  0  0  0  0
  -29.7021  -14.5384   18.4393 C   0  0  0  0  0  0  0  0  0  0  0  0
  -22.6554  -28.3578   23.6329 C   0  0  0  0  0  0  0  0  0  0  0  0
  -28.4666  -21.9215   21.1799 C   0  0  0  0  0  0  0  0  0  0  0  0
  -25.2728  -28.7098   25.5164 C   0  0  0  0  0  0  0  0  0  0  0  0
  -28.5908  -28.0836   26.0122 C   0  0  0  0  0  0  0  0  0  0  0  0
  -17.5962  -28.8106   24.1399 C   0  0  0  0  0  0  0  0  0  0  0  0
  -23.4517  -25.9746   23.8384 C   0  0  0  0  0  0  0  0  0  0  0  0
  -25.6688  -27.8205   23.1888 C   0  0  0  0  0  0  0  0  0  0  0  0
  -18.8203  -29.4025   24.8339 C   0  0  0  0  0  0  0  0  0  0  0  0
  -27.7417  -19.4376   23.6587 C   0  0  0  0  0  0  0  0  0  0  0  0
  -19.8137  -29.9318   23.8044 C   0  0  0  0  0  0  0  0  0  0  0  0
  -27.7543  -18.1288   22.8699 C   0  0  0  0  0  0  0  0  0  0  0  0
  -27.1882  -20.5877   22.8233 C   0  0  0  0  0  0  0  0  0  0  0  0
  -27.9082  -19.4806   20.7311 C   0  0  0  0  0  0  0  0  0  0  0  0
  -20.3210  -28.8045   22.8969 C   0  0  1  0  0  0  0  0  0  0  0  0
  -23.5093  -27.3906   24.4031 C   0  0  1  0  0  0  0  0  0  0  0  0
  -28.4889  -18.2991   21.5283 C   0  0  2  0  0  0  0  0  0  0  0  0
  -30.4608  -28.5326   27.6244 C   0  0  0  0  0  0  0  0  0  0  0  0
  -25.4931  -31.5646   24.4621 C   0  0  0  0  0  0  0  0  0  0  0  0
  -27.8387  -31.6317   25.3349 C   0  0  0  0  0  0  0  0  0  0  0  0
  -25.9313  -31.3206   26.9122 C   0  0  0  0  0  0  0  0  0  0  0  0
  -28.9750  -25.1988   26.5500 C   0  0  0  0  0  0  0  0  0  0  0  0
  -29.1837  -21.9607   19.8539 C   0  0  0  0  0  0  0  0  0  0  0  0
  -27.8595  -23.8319   17.7759 C   0  0  0  0  0  0  0  0  0  0  0  0
  -26.5693  -23.9575   18.5788 C   0  0  0  0  0  0  0  0  0  1  0  0
  -26.5980  -29.4206   25.3833 C   0  0  1  0  0  0  0  0  0  0  0  0
  -29.3496  -27.5744   27.2244 C   0  0  2  0  0  0  0  0  0  0  0  0
  -26.4573  -30.9642   25.5047 C   0  0  0  0  0  0  0  0  0  0  0  0
  -30.8202  -25.1575   19.4456 N   0  0  0  0  0  0  0  0  0  0  0  0
  -27.4342  -16.1859   20.8177 N   0  0  0  0  0  0  0  0  0  0  0  0
  -30.7264  -23.9154   20.0409 N   0  0  0  0  0  0  0  0  0  0  0  0
  -29.0845  -24.1204   18.6092 N   0  0  0  0  0  0  0  0  0  0  0  0
  -28.4872  -17.0151   20.7192 N   0  0  0  0  0  0  0  0  0  0  0  0
  -24.8673  -27.9383   24.4181 N   0  0  0  0  0  0  0  0  0  0  0  0
  -27.8973  -20.7022   21.5477 N   0  0  0  0  0  0  0  0  0  0  0  0
  -30.5842  -17.2868   19.6518 N   0  0  0  0  0  0  0  0  0  0  0  0
  -29.0979  -13.3387   18.0392 N   0  0  0  0  0  0  0  0  0  0  0  0
  -21.3183  -28.0125   23.5842 N   0  0  0  0  0  0  0  0  0  0  0  0
  -27.4840  -28.8215   26.3754 N   0  0  0  0  0  0  0  0  0  0  0  0
  -29.9573  -26.2449   26.9342 N   0  3  0  0  0  0  0  0  0  0  0  0
  -30.8316  -14.8387   17.9837 O   0  0  0  0  0  0  0  0  0  0  0  0
  -23.1712  -29.3450   23.1220 O   0  0  0  0  0  0  0  0  0  0  0  0
  -28.4175  -22.9443   21.8682 O   0  0  0  0  0  0  0  0  0  0  0  0
  -24.6249  -28.8287   26.5593 O   0  0  0  0  0  0  0  0  0  0  0  0
  -28.9465  -27.8532   24.8586 O   0  0  0  0  0  0  0  0  0  0  0  0
  -24.2749  -10.8632   19.3221 O   0  0  0  0  0  0  0  0  0  0  0  0
  -26.4364  -25.2898   19.0724 O   0  0  0  0  0  0  0  0  0  1  0  0
  -22.0035   -8.6795   23.8472 F   0  0  0  0  0  0  0  0  0  0  0  0
  -24.6927   -8.2108   19.9802 F   0  0  0  0  0  0  0  0  0  0  0  0
  1  2  1  0  0  0  0
  1  5  2  0  0  0  0
  2  6  2  0  0  0  0
  3  8  2  0  0  0  0
  3 16  1  0  0  0  0
  4  9  1  0  0  0  0
  4 16  2  0  0  0  0
  5 18  1  0  0  0  0
  6 20  1  0  0  0  0
  7 10  2  0  0  0  0
  7 19  1  0  0  0  0
  8 22  1  0  0  0  0
  9 22  2  0  0  0  0
 10 23  1  0  0  0  0
 11 12  2  0  0  0  0
 11 24  1  0  0  0  0
 12 25  1  0  0  0  0
 13 21  1  0  0  0  0
 13 23  2  0  0  0  0
 14 25  2  0  0  0  0
 14 26  1  0  0  0  0
 15 58  2  0  0  0  0
 15 61  1  0  0  0  0
 16 27  1  0  0  0  0
 17 27  1  0  0  0  0
 17 28  2  0  0  0  0
 17 30  1  0  0  0  0
 18 20  2  0  0  0  0
 18 35  1  0  0  0  0
 19 21  2  0  0  0  0
 19 36  1  0  0  0  0
 20 44  1  0  0  0  0
 21 37  1  0  0  0  0
 22 75  1  0  0  0  0
 23 76  1  0  0  0  0
 24 26  2  0  0  0  0
 24 75  1  0  0  0  0
 25 77  1  0  0  0  0
 26 78  1  0  0  0  0
 27 59  2  0  0  0  0
 28 62  1  0  0  0  0
 28 65  1  0  0  0  0
 29 52  1  0  0  0  0
 29 60  2  0  0  0  0
 29 61  1  0  0  0  0
 30 66  1  0  0  0  0
 30 70  2  0  0  0  0
 31 45  1  0  0  0  0
 31 67  1  0  0  0  0
 31 71  2  0  0  0  0
 32 52  1  0  0  0  0
 32 64  1  0  0  0  0
 32 72  2  0  0  0  0
 33 55  1  0  0  0  0
 33 63  1  0  0  0  0
 33 73  2  0  0  0  0
 34 56  1  0  0  0  0
 34 68  1  0  0  0  0
 34 74  2  0  0  0  0
 35 38  1  0  0  0  0
 36 45  1  0  0  0  0
 37 63  1  0  0  0  0
 38 40  1  0  0  0  0
 39 41  1  0  0  0  0
 39 42  1  0  0  0  0
 40 44  1  0  0  0  0
 41 46  1  0  0  0  0
 42 64  1  0  0  0  0
 43 46  1  0  0  0  0
 43 64  1  0  0  0  0
 44 67  1  0  0  0  0
 45 63  1  0  0  0  0
 46 62  1  0  0  0  0
 47 56  1  0  0  0  0
 48 57  1  0  0  0  0
 49 57  1  0  0  0  0
 50 57  1  0  0  0  0
 51 69  1  0  0  0  0
 53 54  1  0  0  0  0
 53 61  1  0  0  0  0
 54 76  1  0  0  0  0
 55 57  1  0  0  0  0
 55 68  1  0  0  0  0
 56 69  1  0  0  0  0
 58 60  1  0  0  0  0
 59 62  1  0  0  0  0
M  CHG  1  69   1
M  ISO  4  32 100  52 100  54 101  76 101
M  END
> <Batch ID>
0057

> <Smiles>
CNC(C)C(=O)NC(C(=O)N1Cc2cc([101O:1][101CH2:1]Cn3cnnc3[100CH2:0][100C:0](=O)N3CCCC(n4nc(-c5ccc(Oc6ccc(F)cc6F)cc5)c(C(N)=O)c4N)C3)ccc2CC1C(=O)NC1CCCc2ccccc21)C(C)(C)C

> <Shape>
0.263

> <Color>
0.093

> <Negative vol penalty>
0.000

$$$$

  -OEChem-04052317483D

 85 93  0     1  0  0  0  0  0999 V2000
  -26.8818  -35.1280   23.5640 C   0  0  0  0  0  0  0  0  0  0  0  0
  -27.2736  -33.8208   23.2935 C   0  0  0  0  0  0  0  0  0  0  0  0
  -25.2159  -14.7404   22.2092 C   0  0  0  0  0  0  0  0  0  0  0  0
  -24.3675  -14.1674   20.0209 C   0  0  0  0  0  0  0  0  0  0  0  0
  -25.5904  -35.3870   24.0214 C   0  0  0  0  0  0  0  0  0  0  0  0
  -26.3745  -32.7716   23.4813 C   0  0  0  0  0  0  0  0  0  0  0  0
  -26.4005  -29.4785   19.6342 C   0  0  0  0  0  0  0  0  0  0  0  0
  -24.5504  -13.6427   22.7547 C   0  0  0  0  0  0  0  0  0  0  0  0
  -23.7020  -13.0695   20.5664 C   0  0  0  0  0  0  0  0  0  0  0  0
  -27.4497  -28.5616   19.5881 C   0  0  0  0  0  0  0  0  0  0  0  0
  -22.0730   -9.9085   21.3229 C   0  0  0  0  0  0  0  0  0  0  0  0
  -22.1590   -8.6936   20.6431 C   0  0  0  0  0  0  0  0  0  0  0  0
  -26.0094  -26.8750   20.5371 C   0  0  0  0  0  0  0  0  0  0  0  0
  -24.5615   -8.7216   20.8970 C   0  0  0  0  0  0  0  0  0  0  0  0
  -26.9037  -23.3904   14.4234 C   0  0  0  0  0  0  0  0  0  0  0  0
  -28.0685  -24.0387   14.1238 C   0  0  0  0  0  0  0  0  0  0  0  0
  -25.1244  -15.0029   20.8423 C   0  0  0  0  0  0  0  0  0  0  0  0
  -27.1206  -16.1676   19.7624 C   0  0  0  0  0  0  0  0  0  0  0  0
  -24.6720  -34.3414   24.2057 C   0  0  0  0  0  0  0  0  0  0  0  0
  -25.1489  -29.1031   20.1431 C   0  0  0  0  0  0  0  0  0  0  0  0
  -25.0700  -33.0167   23.9429 C   0  0  0  0  0  0  0  0  0  0  0  0
  -24.9453  -27.7884   20.5862 C   0  0  0  0  0  0  0  0  0  0  0  0
  -23.7935  -12.8072   21.9333 C   0  0  0  0  0  0  0  0  0  0  0  0
  -27.2551  -27.2604   20.0422 C   0  0  0  0  0  0  0  0  0  0  0  0
  -23.2313  -10.5300   21.7898 C   0  0  0  0  0  0  0  0  0  0  0  0
  -23.4033   -8.1001   20.4301 C   0  0  0  0  0  0  0  0  0  0  0  0
  -24.4755   -9.9365   21.5768 C   0  0  0  0  0  0  0  0  0  0  0  0
  -25.8111  -16.1370   20.2783 C   0  0  0  0  0  0  0  0  0  0  0  0
  -27.2979  -17.4665   19.3526 C   0  0  0  0  0  0  0  0  0  0  0  0
  -28.5670  -22.2806   15.3732 C   0  0  0  0  0  0  0  0  0  0  0  0
  -28.0899  -15.1159   19.6625 C   0  0  0  0  0  0  0  0  0  0  0  0
  -23.3503  -30.0388   22.5912 C   0  0  0  0  0  0  0  0  0  0  0  0
  -25.3545  -21.9954   16.7065 C   0  0  0  0  0  0  0  0  0  0  0  0
  -21.1897  -28.0080   21.2759 C   0  0  0  0  0  0  0  0  0  0  0  0
  -20.5989  -25.2852   19.3051 C   0  0  0  0  0  0  0  0  0  0  0  0
  -23.3021  -34.6656   24.7471 C   0  0  0  0  0  0  0  0  0  0  0  0
  -24.0197  -30.0965   20.1613 C   0  0  0  0  0  0  0  0  0  0  0  0
  -23.6149  -27.3295   21.1228 C   0  0  0  0  0  0  0  0  0  0  0  0
  -22.2914  -33.5366   24.5625 C   0  0  0  0  0  0  0  0  0  0  0  0
  -24.5040  -21.5948   20.1643 C   0  0  0  0  0  0  0  0  0  0  0  0
  -22.9004  -32.2015   24.9792 C   0  0  0  0  0  0  0  0  0  0  0  0
  -24.8474  -20.1337   20.4515 C   0  0  0  0  0  0  0  0  0  0  0  0
  -23.9732  -21.7751   18.7456 C   0  0  0  0  0  0  0  0  0  0  0  0
  -25.2306  -19.7906   17.9695 C   0  0  0  0  0  0  0  0  0  0  0  0
  -24.1156  -31.8544   24.1106 C   0  0  1  0  0  0  0  0  0  0  0  0
  -22.9350  -29.7497   21.1764 C   0  0  1  0  0  0  0  0  0  0  0  0
  -25.7994  -19.5691   19.3822 C   0  0  2  0  0  0  0  0  0  0  0  0
  -25.5176  -20.6182   14.6445 C   0  0  0  0  0  0  0  0  0  0  0  0
  -18.7342  -23.8409   18.4483 C   0  0  0  0  0  0  0  0  0  0  0  0
  -20.9851  -26.6575   24.0044 C   0  0  0  0  0  0  0  0  0  0  0  0
  -19.8893  -24.7077   22.8795 C   0  0  0  0  0  0  0  0  0  0  0  0
  -18.8023  -26.9521   22.8199 C   0  0  0  0  0  0  0  0  0  0  0  0
  -21.2144  -25.9598   16.4900 C   0  0  0  0  0  0  0  0  0  0  0  0
  -31.8071  -24.3966   19.9910 C   0  0  0  0  0  0  0  0  0  0  0  0
  -29.3560  -21.2628   16.1577 C   0  0  0  0  0  0  0  0  0  0  0  0
  -29.3118  -21.4799   17.6745 C   0  0  0  0  0  0  0  0  0  0  0  0
  -29.8001  -22.8691   18.0961 C   0  0  0  0  0  0  0  0  0  0  0  0
  -29.7671  -23.0204   19.6103 C   0  0  0  0  0  0  0  0  0  0  0  0
  -29.7158  -24.8957   21.2478 C   0  0  0  0  0  0  0  0  0  0  0  0
  -28.2894  -25.3433   20.9965 C   0  0  0  0  0  0  0  0  0  1  0  0
  -26.3042  -21.3407   15.7353 C   0  0  1  0  0  0  0  0  0  0  0  0
  -20.8720  -26.5400   21.4277 C   0  0  1  0  0  0  0  0  0  0  0  0
  -19.6102  -25.0539   18.1766 C   0  0  2  0  0  0  0  0  0  0  0  0
  -20.1629  -26.2232   22.7746 C   0  0  0  0  0  0  0  0  0  0  0  0
  -25.1999  -17.3224   20.2043 N   0  0  0  0  0  0  0  0  0  0  0  0
  -27.2420  -22.3062   15.1969 N   0  0  0  0  0  0  0  0  0  0  0  0
  -26.1296  -18.1100   19.6371 N   0  0  0  0  0  0  0  0  0  0  0  0
  -29.0812  -23.3304   14.7245 N   0  3  0  0  0  0  0  0  0  0  0  0
  -22.5437  -28.3395   21.1260 N   0  0  0  0  0  0  0  0  0  0  0  0
  -24.8951  -21.2060   17.7610 N   0  0  0  0  0  0  0  0  0  0  0  0
  -28.3378  -18.1095   18.7803 N   0  0  0  0  0  0  0  0  0  0  0  0
  -27.7436  -13.8413   20.1314 N   0  0  0  0  0  0  0  0  0  0  0  0
  -23.6890  -31.3588   22.8195 N   0  0  0  0  0  0  0  0  0  0  0  0
  -20.1044  -26.1641   20.2454 N   0  0  0  0  0  0  0  0  0  0  0  0
  -20.3327  -24.8337   16.8919 N   0  3  0  0  0  0  0  0  0  0  0  0
  -30.2985  -24.3825   19.9823 N   0  3  1  0  0  0  0  0  0  0  0  0
  -29.2352  -15.3049   19.1870 O   0  0  0  0  0  0  0  0  0  0  0  0
  -23.3611  -29.1317   23.4151 O   0  0  0  0  0  0  0  0  0  0  0  0
  -25.0340  -23.1741   16.5332 O   0  0  0  0  0  0  0  0  0  0  0  0
  -20.2696  -28.8296   21.2828 O   0  0  0  0  0  0  0  0  0  0  0  0
  -21.6984  -24.7377   19.3500 O   0  0  0  0  0  0  0  0  0  0  0  0
  -23.1442  -11.7357   22.4652 O   0  0  0  0  0  0  0  0  0  0  0  0
  -28.2777  -26.3636   19.9989 O   0  0  0  0  0  0  0  0  0  1  0  0
  -23.4856   -6.9327   19.7786 F   0  0  0  0  0  0  0  0  0  0  0  0
  -25.5916  -10.5283   22.0240 F   0  0  0  0  0  0  0  0  0  0  0  0
  1  2  1  0  0  0  0
  1  5  2  0  0  0  0
  2  6  2  0  0  0  0
  3  8  2  0  0  0  0
  3 17  1  0  0  0  0
  4  9  1  0  0  0  0
  4 17  2  0  0  0  0
  5 19  1  0  0  0  0
  6 21  1  0  0  0  0
  7 10  2  0  0  0  0
  7 20  1  0  0  0  0
  8 23  1  0  0  0  0
  9 23  2  0  0  0  0
 10 24  1  0  0  0  0
 11 12  2  0  0  0  0
 11 25  1  0  0  0  0
 12 26  1  0  0  0  0
 13 22  1  0  0  0  0
 13 24  2  0  0  0  0
 14 26  2  0  0  0  0
 14 27  1  0  0  0  0
 15 16  2  0  0  0  0
 15 66  1  0  0  0  0
 16 68  1  0  0  0  0
 17 28  1  0  0  0  0
 18 28  1  0  0  0  0
 18 29  2  0  0  0  0
 18 31  1  0  0  0  0
 19 21  2  0  0  0  0
 19 36  1  0  0  0  0
 20 22  2  0  0  0  0
 20 37  1  0  0  0  0
 21 45  1  0  0  0  0
 22 38  1  0  0  0  0
 23 82  1  0  0  0  0
 24 83  1  0  0  0  0
 25 27  2  0  0  0  0
 25 82  1  0  0  0  0
 26 84  1  0  0  0  0
 27 85  1  0  0  0  0
 28 65  2  0  0  0  0
 29 67  1  0  0  0  0
 29 71  1  0  0  0  0
 30 55  1  0  0  0  0
 30 66  1  0  0  0  0
 30 68  2  0  0  0  0
 31 72  1  0  0  0  0
 31 77  2  0  0  0  0
 32 46  1  0  0  0  0
 32 73  1  0  0  0  0
 32 78  2  0  0  0  0
 33 61  1  0  0  0  0
 33 70  1  0  0  0  0
 33 79  2  0  0  0  0
 34 62  1  0  0  0  0
 34 69  1  0  0  0  0
 34 80  2  0  0  0  0
 35 63  1  0  0  0  0
 35 74  1  0  0  0  0
 35 81  2  0  0  0  0
 36 39  1  0  0  0  0
 37 46  1  0  0  0  0
 38 69  1  0  0  0  0
 39 41  1  0  0  0  0
 40 42  1  0  0  0  0
 40 43  1  0  0  0  0
 41 45  1  0  0  0  0
 42 47  1  0  0  0  0
 43 70  1  0  0  0  0
 44 47  1  0  0  0  0
 44 70  1  0  0  0  0
 45 73  1  0  0  0  0
 46 69  1  0  0  0  0
 47 67  1  0  0  0  0
 48 61  1  0  0  0  0
 49 63  1  0  0  0  0
 50 64  1  0  0  0  0
 51 64  1  0  0  0  0
 52 64  1  0  0  0  0
 53 75  1  0  0  0  0
 54 76  1  0  0  0  0
 55 56  1  0  0  0  0
 56 57  1  0  0  0  0
 57 58  1  0  0  0  0
 58 76  1  0  0  0  0
 59 60  1  0  0  0  0
 59 76  1  0  0  0  0
 60 83  1  0  0  0  0
 61 66  1  0  0  0  0
 62 64  1  0  0  0  0
 62 74  1  0  0  0  0
 63 75  1  0  0  0  0
 65 67  1  0  0  0  0
M  CHG  3  68   1  75   1  76   1
M  ISO  4  33 100  60 101  61 100  83 101
M  END
> <Batch ID>
0057

> <Smiles>
CNC(C)C(=O)NC(C(=O)N1Cc2cc([101O:1][101CH2:1]CN(C)CCCCc3nccn3[100CH:0](C)[100C:0](=O)N3CCCC(n4nc(-c5ccc(Oc6ccc(F)cc6F)cc5)c(C(N)=O)c4N)C3)ccc2CC1C(=O)NC1CCCc2ccccc21)C(C)(C)C

> <Shape>
0.256

> <Color>
0.072

> <Negative vol penalty>
0.000

$$$$

  -OEChem-04052317483D

 80 88  0     1  0  0  0  0  0999 V2000
  -26.3480  -34.9852   24.0553 C   0  0  0  0  0  0  0  0  0  0  0  0
  -26.8352  -33.7202   23.7428 C   0  0  0  0  0  0  0  0  0  0  0  0
  -25.7155  -13.4042   21.4087 C   0  0  0  0  0  0  0  0  0  0  0  0
  -24.8839  -14.0986   19.2493 C   0  0  0  0  0  0  0  0  0  0  0  0
  -25.0108  -35.1465   24.4158 C   0  0  0  0  0  0  0  0  0  0  0  0
  -25.9858  -32.6154   23.7916 C   0  0  0  0  0  0  0  0  0  0  0  0
  -26.5155  -29.5784   19.7740 C   0  0  0  0  0  0  0  0  0  0  0  0
  -24.6851  -12.4689   21.5048 C   0  0  0  0  0  0  0  0  0  0  0  0
  -23.8536  -13.1633   19.3453 C   0  0  0  0  0  0  0  0  0  0  0  0
  -27.6161  -28.7227   19.7635 C   0  0  0  0  0  0  0  0  0  0  0  0
  -23.9903   -9.3939   20.2823 C   0  0  0  0  0  0  0  0  0  0  0  0
  -24.3185   -8.1104   20.7185 C   0  0  0  0  0  0  0  0  0  0  0  0
  -26.2030  -26.9060   20.4860 C   0  0  0  0  0  0  0  0  0  0  0  0
  -22.8145   -8.3626   22.5923 C   0  0  0  0  0  0  0  0  0  0  0  0
  -28.2286  -23.5660   16.7557 C   0  0  0  0  0  0  0  0  0  0  0  0
  -25.8149  -14.2191   20.2810 C   0  0  0  0  0  0  0  0  0  0  0  0
  -28.1570  -14.9889   19.6257 C   0  0  0  0  0  0  0  0  0  0  0  0
  -24.1422  -34.0445   24.4597 C   0  0  0  0  0  0  0  0  0  0  0  0
  -25.2503  -29.1062   20.1518 C   0  0  0  0  0  0  0  0  0  0  0  0
  -24.6361  -32.7619   24.1543 C   0  0  0  0  0  0  0  0  0  0  0  0
  -25.0874  -27.7572   20.4981 C   0  0  0  0  0  0  0  0  0  0  0  0
  -23.7542  -12.3485   20.4730 C   0  0  0  0  0  0  0  0  0  0  0  0
  -27.4605  -27.3869   20.1223 C   0  0  0  0  0  0  0  0  0  0  0  0
  -23.0742  -10.1619   21.0011 C   0  0  0  0  0  0  0  0  0  0  0  0
  -23.7306   -7.5947   21.8735 C   0  0  0  0  0  0  0  0  0  0  0  0
  -22.4863   -9.6462   22.1561 C   0  0  0  0  0  0  0  0  0  0  0  0
  -26.8786  -15.1858   20.1814 C   0  0  0  0  0  0  0  0  0  0  0  0
  -28.1905  -22.8501   17.9604 C   0  0  0  0  0  0  0  0  0  0  0  0
  -28.7856  -16.2013   19.7725 C   0  0  0  0  0  0  0  0  0  0  0  0
  -28.7253  -13.8152   19.0299 C   0  0  0  0  0  0  0  0  0  0  0  0
  -23.2070  -29.7892   22.4889 C   0  0  0  0  0  0  0  0  0  0  0  0
  -21.2817  -27.7349   20.8779 C   0  0  0  0  0  0  0  0  0  0  0  0
  -21.0117  -25.1150   18.7076 C   0  0  0  0  0  0  0  0  0  0  0  0
  -26.2607  -21.7368   20.4938 C   0  0  0  0  0  0  0  0  0  0  0  0
  -22.7164  -34.2612   24.9008 C   0  0  0  0  0  0  0  0  0  0  0  0
  -24.0680  -30.0357   20.1323 C   0  0  0  0  0  0  0  0  0  0  0  0
  -23.7464  -27.1959   20.8918 C   0  0  0  0  0  0  0  0  0  0  0  0
  -21.7909  -33.0946   24.5651 C   0  0  0  0  0  0  0  0  0  0  0  0
  -28.8530  -20.0849   22.5560 C   0  0  0  0  0  0  0  0  0  0  0  0
  -22.4398  -31.7697   24.9529 C   0  0  0  0  0  0  0  0  0  0  0  0
  -28.6916  -18.6135   22.1780 C   0  0  0  0  0  0  0  0  0  0  0  0
  -27.5443  -20.8552   22.4086 C   0  0  0  0  0  0  0  0  0  0  0  0
  -26.7632  -19.2661   20.6827 C   0  0  0  0  0  0  0  0  0  0  0  0
  -23.7398  -31.5427   24.1718 C   0  0  1  0  0  0  0  0  0  0  0  0
  -22.9259  -29.5688   21.0295 C   0  0  1  0  0  0  0  0  0  0  0  0
  -28.0747  -18.4718   20.7756 C   0  0  2  0  0  0  0  0  0  0  0  0
  -19.3096  -23.6318   17.6121 C   0  0  0  0  0  0  0  0  0  0  0  0
  -20.9335  -26.2056   23.4951 C   0  0  0  0  0  0  0  0  0  0  0  0
  -20.0473  -24.2759   22.1687 C   0  0  0  0  0  0  0  0  0  0  0  0
  -18.8412  -26.4594   22.1489 C   0  0  0  0  0  0  0  0  0  0  0  0
  -25.1515  -22.4240   18.4017 C   0  0  0  0  0  0  0  0  0  0  0  0
  -21.8149  -25.9980   15.9994 C   0  0  0  0  0  0  0  0  0  0  0  0
  -27.4758  -21.6068   18.2782 C   0  0  0  0  0  0  0  0  0  0  0  0
  -30.2992  -25.5412   18.8110 C   0  0  0  0  0  0  0  0  0  0  0  0
  -29.5681  -26.8298   19.1716 C   0  0  0  0  0  0  0  0  0  1  0  0
  -21.0379  -26.2456   20.9157 C   0  0  1  0  0  0  0  0  0  0  0  0
  -20.1334  -24.9041   17.4876 C   0  0  2  0  0  0  0  0  0  0  0  0
  -20.2408  -25.8073   22.1766 C   0  0  0  0  0  0  0  0  0  0  0  0
  -29.0009  -24.6471   16.8953 N   0  0  0  0  0  0  0  0  0  0  0  0
  -26.7041  -16.4256   20.6468 N   0  0  0  0  0  0  0  0  0  0  0  0
  -28.9394  -23.4679   18.8782 N   0  0  0  0  0  0  0  0  0  0  0  0
  -27.8810  -17.0186   20.3838 N   0  0  0  0  0  0  0  0  0  0  0  0
  -29.3856  -24.5215   18.1757 N   0  0  0  0  0  0  0  0  0  0  0  0
  -22.6221  -28.1460   20.8632 N   0  0  0  0  0  0  0  0  0  0  0  0
  -26.9577  -20.6682   21.0811 N   0  0  0  0  0  0  0  0  0  0  0  0
  -30.0185  -16.6371   19.4371 N   0  0  0  0  0  0  0  0  0  0  0  0
  -27.9417  -12.6553   18.9595 N   0  0  0  0  0  0  0  0  0  0  0  0
  -23.4493  -31.1081   22.8223 N   0  0  0  0  0  0  0  0  0  0  0  0
  -20.3922  -25.9054   19.6524 N   0  0  0  0  0  0  0  0  0  0  0  0
  -26.2823  -21.8220   19.0935 N   0  0  0  0  0  0  0  0  0  0  0  0
  -20.9698  -24.8039   16.2582 N   0  3  0  0  0  0  0  0  0  0  0  0
  -29.8991  -13.7907   18.5883 O   0  0  0  0  0  0  0  0  0  0  0  0
  -23.2029  -28.8335   23.2561 O   0  0  0  0  0  0  0  0  0  0  0  0
  -20.3183  -28.5050   20.8548 O   0  0  0  0  0  0  0  0  0  0  0  0
  -22.1336  -24.6244   18.8136 O   0  0  0  0  0  0  0  0  0  0  0  0
  -25.6615  -22.5729   21.1823 O   0  0  0  0  0  0  0  0  0  0  0  0
  -22.7488  -11.4358   20.5663 O   0  0  0  0  0  0  0  0  0  0  0  0
  -28.5333  -26.5497   20.1134 O   0  0  0  0  0  0  0  0  0  1  0  0
  -24.0447   -6.3615   22.2914 F   0  0  0  0  0  0  0  0  0  0  0  0
  -21.6046  -10.3788   22.8502 F   0  0  0  0  0  0  0  0  0  0  0  0
  1  2  1  0  0  0  0
  1  5  2  0  0  0  0
  2  6  2  0  0  0  0
  3  8  2  0  0  0  0
  3 16  1  0  0  0  0
  4  9  1  0  0  0  0
  4 16  2  0  0  0  0
  5 18  1  0  0  0  0
  6 20  1  0  0  0  0
  7 10  2  0  0  0  0
  7 19  1  0  0  0  0
  8 22  1  0  0  0  0
  9 22  2  0  0  0  0
 10 23  1  0  0  0  0
 11 12  2  0  0  0  0
 11 24  1  0  0  0  0
 12 25  1  0  0  0  0
 13 21  1  0  0  0  0
 13 23  2  0  0  0  0
 14 25  2  0  0  0  0
 14 26  1  0  0  0  0
 15 28  1  0  0  0  0
 15 59  2  0  0  0  0
 16 27  1  0  0  0  0
 17 27  1  0  0  0  0
 17 29  2  0  0  0  0
 17 30  1  0  0  0  0
 18 20  2  0  0  0  0
 18 35  1  0  0  0  0
 19 21  2  0  0  0  0
 19 36  1  0  0  0  0
 20 44  1  0  0  0  0
 21 37  1  0  0  0  0
 22 77  1  0  0  0  0
 23 78  1  0  0  0  0
 24 26  2  0  0  0  0
 24 77  1  0  0  0  0
 25 79  1  0  0  0  0
 26 80  1  0  0  0  0
 27 60  2  0  0  0  0
 28 53  1  0  0  0  0
 28 61  2  0  0  0  0
 29 62  1  0  0  0  0
 29 66  1  0  0  0  0
 30 67  1  0  0  0  0
 30 72  2  0  0  0  0
 31 45  1  0  0  0  0
 31 68  1  0  0  0  0
 31 73  2  0  0  0  0
 32 56  1  0  0  0  0
 32 64  1  0  0  0  0
 32 74  2  0  0  0  0
 33 57  1  0  0  0  0
 33 69  1  0  0  0  0
 33 75  2  0  0  0  0
 34 65  1  0  0  0  0
 34 70  1  0  0  0  0
 34 76  2  0  0  0  0
 35 38  1  0  0  0  0
 36 45  1  0  0  0  0
 37 64  1  0  0  0  0
 38 40  1  0  0  0  0
 39 41  1  0  0  0  0
 39 42  1  0  0  0  0
 40 44  1  0  0  0  0
 41 46  1  0  0  0  0
 42 65  1  0  0  0  0
 43 46  1  0  0  0  0
 43 65  1  0  0  0  0
 44 68  1  0  0  0  0
 45 64  1  0  0  0  0
 46 62  1  0  0  0  0
 47 57  1  0  0  0  0
 48 58  1  0  0  0  0
 49 58  1  0  0  0  0
 50 58  1  0  0  0  0
 51 70  1  0  0  0  0
 52 71  1  0  0  0  0
 53 70  1  0  0  0  0
 54 55  1  0  0  0  0
 54 63  1  0  0  0  0
 55 78  1  0  0  0  0
 56 58  1  0  0  0  0
 56 69  1  0  0  0  0
 57 71  1  0  0  0  0
 59 63  1  0  0  0  0
 60 62  1  0  0  0  0
 61 63  1  0  0  0  0
M  CHG  1  71   1
M  ISO  4  34 100  55 101  70 100  78 101
M  END
> <Batch ID>
0057

> <Smiles>
CNC(C)C(=O)NC(C(=O)N1Cc2cc([101O:1][101CH2:1]Cn3ncc(C[100N:0](C)[100C:0](=O)N4CCCC(n5nc(-c6ccc(Oc7ccc(F)cc7F)cc6)c(C(N)=O)c5N)C4)n3)ccc2CC1C(=O)NC1CCCc2ccccc21)C(C)(C)C

> <Shape>
0.294

> <Color>
0.105

> <Negative vol penalty>
0.000

$$$$

  -OEChem-04052317483D

 82 90  0     1  0  0  0  0  0999 V2000
  -21.6661  -12.2939   21.2166 C   0  0  0  0  0  0  0  0  0  0  0  0
  -21.7663  -13.6043   21.6730 C   0  0  0  0  0  0  0  0  0  0  0  0
  -23.7117  -30.5327   20.4149 C   0  0  0  0  0  0  0  0  0  0  0  0
  -24.4737  -28.9430   22.0669 C   0  0  0  0  0  0  0  0  0  0  0  0
  -22.8058  -11.6199   20.7800 C   0  0  0  0  0  0  0  0  0  0  0  0
  -23.0067  -14.2411   21.6942 C   0  0  0  0  0  0  0  0  0  0  0  0
  -22.7933  -18.9706   19.8968 C   0  0  0  0  0  0  0  0  0  0  0  0
  -24.9703  -31.1340   20.4128 C   0  0  0  0  0  0  0  0  0  0  0  0
  -25.7324  -29.5442   22.0648 C   0  0  0  0  0  0  0  0  0  0  0  0
  -22.2831  -19.9520   20.7456 C   0  0  0  0  0  0  0  0  0  0  0  0
  -26.7000  -33.2974   22.3499 C   0  0  0  0  0  0  0  0  0  0  0  0
  -26.7519  -34.6907   22.3901 C   0  0  0  0  0  0  0  0  0  0  0  0
  -24.5297  -20.6504   21.2786 C   0  0  0  0  0  0  0  0  0  0  0  0
  -27.9279  -34.7077   20.2796 C   0  0  0  0  0  0  0  0  0  0  0  0
  -20.4068  -24.1649   22.8316 C   0  0  0  0  0  0  0  0  0  0  0  0
  -23.4634  -29.4373   21.2419 C   0  0  0  0  0  0  0  0  0  0  0  0
  -21.7254  -27.7568   20.4278 C   0  0  0  0  0  0  0  0  0  0  0  0
  -24.0592  -12.2521   20.7868 C   0  0  0  0  0  0  0  0  0  0  0  0
  -24.1780  -18.8144   19.7406 C   0  0  0  0  0  0  0  0  0  0  0  0
  -24.1645  -13.5744   21.2585 C   0  0  0  0  0  0  0  0  0  0  0  0
  -25.0549  -19.6680   20.4252 C   0  0  0  0  0  0  0  0  0  0  0  0
  -20.8904  -22.9647   23.3113 C   0  0  0  0  0  0  0  0  0  0  0  0
  -25.9807  -30.6397   21.2378 C   0  0  0  0  0  0  0  0  0  0  0  0
  -23.1514  -20.7901   21.4389 C   0  0  0  0  0  0  0  0  0  0  0  0
  -27.2621  -32.6092   21.2746 C   0  0  0  0  0  0  0  0  0  0  0  0
  -27.3659  -35.3958   21.3549 C   0  0  0  0  0  0  0  0  0  0  0  0
  -27.8760  -33.3143   20.2395 C   0  0  0  0  0  0  0  0  0  0  0  0
  -22.1633  -28.8162   21.2449 C   0  0  0  0  0  0  0  0  0  0  0  0
  -21.0285  -22.8817   24.6818 C   0  0  0  0  0  0  0  0  0  0  0  0
  -20.4266  -27.5373   20.8168 C   0  0  0  0  0  0  0  0  0  0  0  0
  -20.2591  -25.0052   24.9385 C   0  0  0  0  0  0  0  0  0  0  0  0
  -22.4297  -27.0356   19.4082 C   0  0  0  0  0  0  0  0  0  0  0  0
  -26.2514  -16.4765   20.3226 C   0  0  0  0  0  0  0  0  0  0  0  0
  -28.3316  -18.4822   18.8488 C   0  0  0  0  0  0  0  0  0  0  0  0
  -29.1397  -21.6765   17.9599 C   0  0  0  0  0  0  0  0  0  0  0  0
  -17.7418  -29.0070   26.1244 C   0  0  0  0  0  0  0  0  0  0  0  0
  -25.2705  -11.4670   20.3496 C   0  0  0  0  0  0  0  0  0  0  0  0
  -24.7120  -17.7686   18.8006 C   0  0  0  0  0  0  0  0  0  0  0  0
  -26.5494  -19.5547   20.2766 C   0  0  0  0  0  0  0  0  0  0  0  0
  -26.4872  -12.3397   20.0524 C   0  0  0  0  0  0  0  0  0  0  0  0
  -16.6337  -29.7715   22.6763 C   0  0  0  0  0  0  0  0  0  0  0  0
  -26.6929  -13.3650   21.1629 C   0  0  0  0  0  0  0  0  0  0  0  0
  -17.9161  -29.5893   21.8662 C   0  0  0  0  0  0  0  0  0  0  0  0
  -16.9259  -30.1857   24.1153 C   0  0  0  0  0  0  0  0  0  0  0  0
  -19.1390  -29.0872   24.0186 C   0  0  0  0  0  0  0  0  0  0  0  0
  -25.4883  -14.3075   21.2735 C   0  0  1  0  0  0  0  0  0  0  0  0
  -26.1488  -17.3619   19.1131 C   0  0  1  0  0  0  0  0  0  0  0  0
  -18.8814  -28.6246   22.5767 C   0  0  2  0  0  0  0  0  0  0  0  0
  -21.5427  -21.6305   25.3139 C   0  0  0  0  0  0  0  0  0  0  0  0
  -30.9205  -23.0063   16.7946 C   0  0  0  0  0  0  0  0  0  0  0  0
  -30.1312  -18.2140   21.2981 C   0  0  0  0  0  0  0  0  0  0  0  0
  -31.3776  -20.2403   20.5177 C   0  0  0  0  0  0  0  0  0  0  0  0
  -31.3385  -18.1825   19.1082 C   0  0  0  0  0  0  0  0  0  0  0  0
  -18.0249  -27.4133   27.9843 C   0  0  0  0  0  0  0  0  0  0  0  0
  -27.2415  -22.6315   15.8998 C   0  0  0  0  0  0  0  0  0  0  0  0
  -21.2364  -21.8392   22.3814 C   0  0  0  0  0  0  0  0  0  1  0  0
  -19.9079  -26.1382   25.8425 C   0  0  0  0  0  0  0  0  0  0  0  0
  -18.4602  -26.6202   25.6893 C   0  0  0  0  0  0  0  0  0  0  0  0
  -29.2488  -19.5925   19.3014 C   0  0  1  0  0  0  0  0  0  0  0  0
  -29.5993  -22.2691   16.6400 C   0  0  2  0  0  0  0  0  0  0  0  0
  -30.4960  -19.0585   20.0609 C   0  0  0  0  0  0  0  0  0  0  0  0
  -20.0799  -25.2101   23.6197 N   0  0  0  0  0  0  0  0  0  0  0  0
  -21.2192  -29.2403   22.0893 N   0  0  0  0  0  0  0  0  0  0  0  0
  -20.7215  -23.8864   25.5284 N   0  0  0  0  0  0  0  0  0  0  0  0
  -20.1751  -28.4435   21.8047 N   0  0  0  0  0  0  0  0  0  0  0  0
  -27.0228  -18.5125   19.3508 N   0  0  0  0  0  0  0  0  0  0  0  0
  -17.8790  -29.2767   24.7528 N   0  0  0  0  0  0  0  0  0  0  0  0
  -19.4864  -26.6595   20.4069 N   0  0  0  0  0  0  0  0  0  0  0  0
  -23.7580  -27.3900   19.1355 N   0  0  0  0  0  0  0  0  0  0  0  0
  -25.5278  -15.3034   20.2241 N   0  0  0  0  0  0  0  0  0  0  0  0
  -29.5638  -20.3730   18.1097 N   0  0  0  0  0  0  0  0  0  0  0  0
  -18.1578  -27.7442   26.5727 N   0  0  0  0  0  0  0  0  0  0  0  0
  -28.5837  -23.2284   16.1213 N   0  3  0  0  0  0  0  0  0  0  0  0
  -21.8917  -26.1154   18.7470 O   0  0  0  0  0  0  0  0  0  0  0  0
  -26.9376  -16.8306   21.2742 O   0  0  0  0  0  0  0  0  0  0  0  0
  -28.7585  -17.6237   18.0726 O   0  0  0  0  0  0  0  0  0  0  0  0
  -28.4744  -22.3080   18.7778 O   0  0  0  0  0  0  0  0  0  0  0  0
  -17.2652  -29.8436   26.9022 O   0  0  0  0  0  0  0  0  0  0  0  0
  -27.2090  -31.2259   21.2358 O   0  0  0  0  0  0  0  0  0  0  0  0
  -22.6560  -21.7484   22.2685 O   0  0  0  0  0  0  0  0  0  1  0  0
  -27.4143  -36.7339   21.3929 F   0  0  0  0  0  0  0  0  0  0  0  0
  -28.4167  -32.6588   19.2033 F   0  0  0  0  0  0  0  0  0  0  0  0
  1  2  1  0  0  0  0
  1  5  2  0  0  0  0
  2  6  2  0  0  0  0
  3  8  2  0  0  0  0
  3 16  1  0  0  0  0
  4  9  1  0  0  0  0
  4 16  2  0  0  0  0
  5 18  1  0  0  0  0
  6 20  1  0  0  0  0
  7 10  2  0  0  0  0
  7 19  1  0  0  0  0
  8 23  1  0  0  0  0
  9 23  2  0  0  0  0
 10 24  1  0  0  0  0
 11 12  2  0  0  0  0
 11 25  1  0  0  0  0
 12 26  1  0  0  0  0
 13 21  1  0  0  0  0
 13 24  2  0  0  0  0
 14 26  2  0  0  0  0
 14 27  1  0  0  0  0
 15 22  1  0  0  0  0
 15 62  2  0  0  0  0
 16 28  1  0  0  0  0
 17 28  1  0  0  0  0
 17 30  2  0  0  0  0
 17 32  1  0  0  0  0
 18 20  2  0  0  0  0
 18 37  1  0  0  0  0
 19 21  2  0  0  0  0
 19 38  1  0  0  0  0
 20 46  1  0  0  0  0
 21 39  1  0  0  0  0
 22 29  2  0  0  0  0
 22 56  1  0  0  0  0
 23 79  1  0  0  0  0
 24 80  1  0  0  0  0
 25 27  2  0  0  0  0
 25 79  1  0  0  0  0
 26 81  1  0  0  0  0
 27 82  1  0  0  0  0
 28 63  2  0  0  0  0
 29 49  1  0  0  0  0
 29 64  1  0  0  0  0
 30 65  1  0  0  0  0
 30 68  1  0  0  0  0
 31 57  1  0  0  0  0
 31 62  1  0  0  0  0
 31 64  2  0  0  0  0
 32 69  1  0  0  0  0
 32 74  2  0  0  0  0
 33 47  1  0  0  0  0
 33 70  1  0  0  0  0
 33 75  2  0  0  0  0
 34 59  1  0  0  0  0
 34 66  1  0  0  0  0
 34 76  2  0  0  0  0
 35 60  1  0  0  0  0
 35 71  1  0  0  0  0
 35 77  2  0  0  0  0
 36 67  1  0  0  0  0
 36 72  1  0  0  0  0
 36 78  2  0  0  0  0
 37 40  1  0  0  0  0
 38 47  1  0  0  0  0
 39 66  1  0  0  0  0
 40 42  1  0  0  0  0
 41 43  1  0  0  0  0
 41 44  1  0  0  0  0
 42 46  1  0  0  0  0
 43 48  1  0  0  0  0
 44 67  1  0  0  0  0
 45 48  1  0  0  0  0
 45 67  1  0  0  0  0
 46 70  1  0  0  0  0
 47 66  1  0  0  0  0
 48 65  1  0  0  0  0
 50 60  1  0  0  0  0
 51 61  1  0  0  0  0
 52 61  1  0  0  0  0
 53 61  1  0  0  0  0
 54 72  1  0  0  0  0
 55 73  1  0  0  0  0
 56 80  1  0  0  0  0
 57 58  1  0  0  0  0
 58 72  1  0  0  0  0
 59 61  1  0  0  0  0
 59 71  1  0  0  0  0
 60 73  1  0  0  0  0
 63 65  1  0  0  0  0
M  CHG  1  73   1
M  ISO  4  36 100  56 101  72 100  80 101
M  END
> <Batch ID>
0057

> <Smiles>
CNC(C)C(=O)NC(C(=O)N1Cc2cc([101O:1][101CH2:1]c3cnc(CC[100N:0](C)[100C:0](=O)N4CCCC(n5nc(-c6ccc(Oc7ccc(F)cc7F)cc6)c(C(N)=O)c5N)C4)nc3C)ccc2CC1C(=O)NC1CCCc2ccccc21)C(C)(C)C

> <Shape>
0.215

> <Color>
0.084

> <Negative vol penalty>
0.000

$$$$

  -OEChem-04052317483D

 87 95  0     1  0  0  0  0  0999 V2000
  -32.1843  -22.4016   22.1598 C   0  0  0  0  0  0  0  0  0  0  0  0
  -30.8102  -22.2490   22.0048 C   0  0  0  0  0  0  0  0  0  0  0  0
  -26.4338  -28.0339   18.8729 C   0  0  0  0  0  0  0  0  0  0  0  0
  -26.1130  -27.0674   21.0638 C   0  0  0  0  0  0  0  0  0  0  0  0
  -33.0564  -21.4803   21.5814 C   0  0  0  0  0  0  0  0  0  0  0  0
  -30.3075  -21.1757   21.2702 C   0  0  0  0  0  0  0  0  0  0  0  0
  -25.1308  -18.0840   22.3423 C   0  0  0  0  0  0  0  0  0  0  0  0
  -25.9545  -29.2569   19.3423 C   0  0  0  0  0  0  0  0  0  0  0  0
  -25.6338  -28.2903   21.5332 C   0  0  0  0  0  0  0  0  0  0  0  0
  -23.8550  -18.1694   21.7866 C   0  0  0  0  0  0  0  0  0  0  0  0
  -22.7532  -30.0552   21.3970 C   0  0  0  0  0  0  0  0  0  0  0  0
  -21.6017  -30.0411   22.1839 C   0  0  0  0  0  0  0  0  0  0  0  0
  -24.4007  -16.3721   20.2729 C   0  0  0  0  0  0  0  0  0  0  0  0
  -22.8331  -31.0452   24.0040 C   0  0  0  0  0  0  0  0  0  0  0  0
  -23.5167  -24.8601   14.1057 C   0  0  0  0  0  0  0  0  0  0  0  0
  -26.5130  -26.9391   19.7337 C   0  0  0  0  0  0  0  0  0  0  0  0
  -28.3426  -25.2290   19.2480 C   0  0  0  0  0  0  0  0  0  0  0  0
  -32.5638  -20.3897   20.8475 C   0  0  0  0  0  0  0  0  0  0  0  0
  -26.0563  -17.1477   21.8594 C   0  0  0  0  0  0  0  0  0  0  0  0
  -31.1739  -20.2397   20.6803 C   0  0  0  0  0  0  0  0  0  0  0  0
  -25.6867  -16.2751   20.8260 C   0  0  0  0  0  0  0  0  0  0  0  0
  -25.5545  -29.3851   20.6724 C   0  0  0  0  0  0  0  0  0  0  0  0
  -23.4908  -17.3153   20.7498 C   0  0  0  0  0  0  0  0  0  0  0  0
  -23.9448  -30.5643   21.9136 C   0  0  0  0  0  0  0  0  0  0  0  0
  -21.6416  -30.5361   23.4874 C   0  0  0  0  0  0  0  0  0  0  0  0
  -23.9847  -31.0593   23.2170 C   0  0  0  0  0  0  0  0  0  0  0  0
  -27.0074  -25.6754   19.2493 C   0  0  0  0  0  0  0  0  0  0  0  0
  -21.4626  -25.3396   14.9891 C   0  0  0  0  0  0  0  0  0  0  0  0
  -21.2966  -24.0136   15.3232 C   0  0  0  0  0  0  0  0  0  0  0  0
  -23.3511  -23.5342   14.4405 C   0  0  0  0  0  0  0  0  0  0  0  0
  -28.2852  -23.9763   18.6879 C   0  0  0  0  0  0  0  0  0  0  0  0
  -29.5285  -25.8879   19.7118 C   0  0  0  0  0  0  0  0  0  0  0  0
  -28.9118  -17.3253   20.4744 C   0  0  0  0  0  0  0  0  0  0  0  0
  -28.8306  -14.0973   20.7841 C   0  0  0  0  0  0  0  0  0  0  0  0
  -26.9558  -11.2645   21.1116 C   0  0  0  0  0  0  0  0  0  0  0  0
  -24.6408  -21.4580   14.9072 C   0  0  0  0  0  0  0  0  0  0  0  0
  -33.5470  -19.4463   20.2010 C   0  0  0  0  0  0  0  0  0  0  0  0
  -27.4195  -17.0503   22.4877 C   0  0  0  0  0  0  0  0  0  0  0  0
  -26.6365  -15.2388   20.2854 C   0  0  0  0  0  0  0  0  0  0  0  0
  -32.9216  -18.1276   19.7534 C   0  0  0  0  0  0  0  0  0  0  0  0
  -25.3682  -20.2301   18.1639 C   0  0  0  0  0  0  0  0  0  0  0  0
  -31.6159  -18.3822   19.0070 C   0  0  0  0  0  0  0  0  0  0  0  0
  -25.9967  -21.4598   18.8184 C   0  0  0  0  0  0  0  0  0  0  0  0
  -24.1898  -20.6006   17.2626 C   0  0  0  0  0  0  0  0  0  0  0  0
  -25.1408  -22.8561   16.8978 C   0  0  0  0  0  0  0  0  0  0  0  0
  -30.5893  -19.0746   19.9116 C   0  0  1  0  0  0  0  0  0  0  0  0
  -28.4550  -16.4057   21.5714 C   0  0  1  0  0  0  0  0  0  0  0  0
  -26.3642  -22.5192   17.7646 C   0  0  1  0  0  0  0  0  0  0  0  0
  -20.4136  -26.3544   15.2920 C   0  0  0  0  0  0  0  0  0  0  0  0
  -27.1702   -8.7716   21.3028 C   0  0  0  0  0  0  0  0  0  0  0  0
  -29.4172  -13.9210   17.7950 C   0  0  0  0  0  0  0  0  0  0  0  0
  -28.6862  -11.5275   17.8635 C   0  0  0  0  0  0  0  0  0  0  0  0
  -30.6580  -12.2664   19.2010 C   0  0  0  0  0  0  0  0  0  0  0  0
  -25.0832  -22.7353   12.8219 C   0  0  0  0  0  0  0  0  0  0  0  0
  -25.6700  -11.2419   23.7772 C   0  0  0  0  0  0  0  0  0  0  0  0
  -17.7959  -19.4070   17.8837 C   0  0  0  0  0  0  0  0  0  0  0  0
  -20.0463  -23.5268   16.0112 C   0  0  0  0  0  0  0  0  0  0  0  0
  -20.1419  -22.0844   16.5255 C   0  0  0  0  0  0  0  0  0  0  0  0
  -20.6783  -18.7688   19.0166 C   0  0  0  0  0  0  0  0  0  0  0  0
  -18.8763  -21.5366   17.1781 C   0  0  0  0  0  0  0  0  0  0  0  0
  -19.9582  -20.1041   18.9037 C   0  0  0  0  0  0  0  0  0  0  0  0
  -21.6162  -18.6773   20.2139 C   0  0  0  0  0  0  0  0  0  1  0  0
  -28.3371  -12.9536   19.9312 C   0  0  1  0  0  0  0  0  0  0  0  0
  -27.0693  -10.0857   22.0614 C   0  0  2  0  0  0  0  0  0  0  0  0
  -29.2572  -12.6878   18.7063 C   0  0  0  0  0  0  0  0  0  0  0  0
  -22.5754  -25.7866   14.3740 N   0  0  0  0  0  0  0  0  0  0  0  0
  -26.1636  -24.7792   18.7309 N   0  0  0  0  0  0  0  0  0  0  0  0
  -22.2381  -23.0871   15.0552 N   0  0  0  0  0  0  0  0  0  0  0  0
  -26.9705  -23.7571   18.3986 N   0  0  0  0  0  0  0  0  0  0  0  0
  -27.9600  -15.1869   20.9283 N   0  0  0  0  0  0  0  0  0  0  0  0
  -24.5768  -21.6428   16.3012 N   0  0  0  0  0  0  0  0  0  0  0  0
  -29.2317  -23.0518   18.4194 N   0  0  0  0  0  0  0  0  0  0  0  0
  -29.4085  -27.1721   20.2600 N   0  0  0  0  0  0  0  0  0  0  0  0
  -29.9891  -18.1196   20.8182 N   0  0  0  0  0  0  0  0  0  0  0  0
  -28.1891  -11.8112   20.8264 N   0  0  0  0  0  0  0  0  0  0  0  0
  -24.4083  -22.6049   14.1178 N   0  0  0  0  0  0  0  0  0  0  0  0
  -25.8774  -10.0229   22.9538 N   0  3  0  0  0  0  0  0  0  0  0  0
  -19.1043  -20.1358   17.6931 N   0  3  1  0  0  0  0  0  0  0  0  0
  -30.6634  -25.3601   19.6271 O   0  0  0  0  0  0  0  0  0  0  0  0
  -28.3310  -17.3140   19.3954 O   0  0  0  0  0  0  0  0  0  0  0  0
  -29.9444  -14.0236   21.3090 O   0  0  0  0  0  0  0  0  0  0  0  0
  -25.8810  -11.6585   20.6644 O   0  0  0  0  0  0  0  0  0  0  0  0
  -24.9106  -20.3596   14.4066 O   0  0  0  0  0  0  0  0  0  0  0  0
  -25.0870  -30.5784   21.1308 O   0  0  0  0  0  0  0  0  0  0  0  0
  -22.2464  -17.3970   20.2051 O   0  0  0  0  0  0  0  0  0  1  0  0
  -20.5353  -30.5238   24.2425 F   0  0  0  0  0  0  0  0  0  0  0  0
  -25.1262  -31.5507   23.7184 F   0  0  0  0  0  0  0  0  0  0  0  0
  1  2  1  0  0  0  0
  1  5  2  0  0  0  0
  2  6  2  0  0  0  0
  3  8  2  0  0  0  0
  3 16  1  0  0  0  0
  4  9  1  0  0  0  0
  4 16  2  0  0  0  0
  5 18  1  0  0  0  0
  6 20  1  0  0  0  0
  7 10  2  0  0  0  0
  7 19  1  0  0  0  0
  8 22  1  0  0  0  0
  9 22  2  0  0  0  0
 10 23  1  0  0  0  0
 11 12  2  0  0  0  0
 11 24  1  0  0  0  0
 12 25  1  0  0  0  0
 13 21  1  0  0  0  0
 13 23  2  0  0  0  0
 14 25  2  0  0  0  0
 14 26  1  0  0  0  0
 15 30  1  0  0  0  0
 15 66  2  0  0  0  0
 16 27  1  0  0  0  0
 17 27  1  0  0  0  0
 17 31  2  0  0  0  0
 17 32  1  0  0  0  0
 18 20  2  0  0  0  0
 18 37  1  0  0  0  0
 19 21  2  0  0  0  0
 19 38  1  0  0  0  0
 20 46  1  0  0  0  0
 21 39  1  0  0  0  0
 22 84  1  0  0  0  0
 23 85  1  0  0  0  0
 24 26  2  0  0  0  0
 24 84  1  0  0  0  0
 25 86  1  0  0  0  0
 26 87  1  0  0  0  0
 27 67  2  0  0  0  0
 28 29  2  0  0  0  0
 28 49  1  0  0  0  0
 28 66  1  0  0  0  0
 29 57  1  0  0  0  0
 29 68  1  0  0  0  0
 30 68  2  0  0  0  0
 30 76  1  0  0  0  0
 31 69  1  0  0  0  0
 31 72  1  0  0  0  0
 32 73  1  0  0  0  0
 32 79  2  0  0  0  0
 33 47  1  0  0  0  0
 33 74  1  0  0  0  0
 33 80  2  0  0  0  0
 34 63  1  0  0  0  0
 34 70  1  0  0  0  0
 34 81  2  0  0  0  0
 35 64  1  0  0  0  0
 35 75  1  0  0  0  0
 35 82  2  0  0  0  0
 36 71  1  0  0  0  0
 36 76  1  0  0  0  0
 36 83  2  0  0  0  0
 37 40  1  0  0  0  0
 38 47  1  0  0  0  0
 39 70  1  0  0  0  0
 40 42  1  0  0  0  0
 41 43  1  0  0  0  0
 41 44  1  0  0  0  0
 42 46  1  0  0  0  0
 43 48  1  0  0  0  0
 44 71  1  0  0  0  0
 45 48  1  0  0  0  0
 45 71  1  0  0  0  0
 46 74  1  0  0  0  0
 47 70  1  0  0  0  0
 48 69  1  0  0  0  0
 50 64  1  0  0  0  0
 51 65  1  0  0  0  0
 52 65  1  0  0  0  0
 53 65  1  0  0  0  0
 54 76  1  0  0  0  0
 55 77  1  0  0  0  0
 56 78  1  0  0  0  0
 57 58  1  0  0  0  0
 58 60  1  0  0  0  0
 59 61  1  0  0  0  0
 59 62  1  0  0  0  0
 60 78  1  0  0  0  0
 61 78  1  0  0  0  0
 62 85  1  0  0  0  0
 63 65  1  0  0  0  0
 63 75  1  0  0  0  0
 64 77  1  0  0  0  0
 67 69  1  0  0  0  0
M  CHG  2  77   1  78   1
M  ISO  4  36 100  62 101  76 100  85 101
M  END
> <Batch ID>
0057

> <Smiles>
CNC(C)C(=O)NC(C(=O)N1Cc2cc([101O:1][101CH2:1]CCN(C)CCCc3nc([100N:0](C)[100C:0](=O)N4CCCC(n5nc(-c6ccc(Oc7ccc(F)cc7F)cc6)c(C(N)=O)c5N)C4)cnc3C)ccc2CC1C(=O)NC1CCCc2ccccc21)C(C)(C)C

> <Shape>
0.200

> <Color>
0.070

> <Negative vol penalty>
0.000

$$$$

  -OEChem-04052317483D

 80 88  0     1  0  0  0  0  0999 V2000
  -21.6586  -11.9179   19.8191 C   0  0  0  0  0  0  0  0  0  0  0  0
  -21.6257  -13.0702   20.5979 C   0  0  0  0  0  0  0  0  0  0  0  0
  -26.1579  -29.6328   21.3887 C   0  0  0  0  0  0  0  0  0  0  0  0
  -24.9296  -27.8309   20.3488 C   0  0  0  0  0  0  0  0  0  0  0  0
  -22.8789  -11.3108   19.5258 C   0  0  0  0  0  0  0  0  0  0  0  0
  -22.8132  -13.6155   21.0848 C   0  0  0  0  0  0  0  0  0  0  0  0
  -23.0131  -18.6449   20.5284 C   0  0  0  0  0  0  0  0  0  0  0  0
  -27.3182  -29.2197   20.7340 C   0  0  0  0  0  0  0  0  0  0  0  0
  -26.0899  -27.4178   19.6940 C   0  0  0  0  0  0  0  0  0  0  0  0
  -22.2937  -19.4155   21.4407 C   0  0  0  0  0  0  0  0  0  0  0  0
  -30.6850  -28.4217   19.6154 C   0  0  0  0  0  0  0  0  0  0  0  0
  -31.8639  -28.3603   20.3584 C   0  0  0  0  0  0  0  0  0  0  0  0
  -24.3237  -19.8420   22.6721 C   0  0  0  0  0  0  0  0  0  0  0  0
  -30.8440  -26.7507   21.8437 C   0  0  0  0  0  0  0  0  0  0  0  0
  -24.9636  -28.9383   21.1962 C   0  0  0  0  0  0  0  0  0  0  0  0
  -22.8075  -30.2854   21.4070 C   0  0  0  0  0  0  0  0  0  0  0  0
  -24.0827  -11.8543   20.0012 C   0  0  0  0  0  0  0  0  0  0  0  0
  -24.3937  -18.4578   20.6875 C   0  0  0  0  0  0  0  0  0  0  0  0
  -24.0507  -13.0143   20.7986 C   0  0  0  0  0  0  0  0  0  0  0  0
  -25.0588  -19.0707   21.7590 C   0  0  0  0  0  0  0  0  0  0  0  0
  -27.2842  -28.1122   19.8867 C   0  0  0  0  0  0  0  0  0  0  0  0
  -22.9485  -20.0119   22.5144 C   0  0  0  0  0  0  0  0  0  0  0  0
  -29.5856  -27.6476   19.9866 C   0  0  0  0  0  0  0  0  0  0  0  0
  -31.9434  -27.5248   21.4725 C   0  0  0  0  0  0  0  0  0  0  0  0
  -29.6651  -26.8121   21.1007 C   0  0  0  0  0  0  0  0  0  0  0  0
  -23.7648  -29.3642   21.8727 C   0  0  0  0  0  0  0  0  0  0  0  0
  -21.8709  -30.3438   22.4099 C   0  0  0  0  0  0  0  0  0  0  0  0
  -19.4372  -23.3306   25.3771 C   0  0  0  0  0  0  0  0  0  0  0  0
  -20.2631  -21.7820   24.2471 C   0  0  0  0  0  0  0  0  0  0  0  0
  -22.7682  -31.0222   20.1776 C   0  0  0  0  0  0  0  0  0  0  0  0
  -26.2760  -15.9412   21.1647 C   0  0  0  0  0  0  0  0  0  0  0  0
  -28.6409  -18.1317   20.8022 C   0  0  0  0  0  0  0  0  0  0  0  0
  -29.6143  -21.3984   20.9673 C   0  0  0  0  0  0  0  0  0  0  0  0
  -20.2448  -26.4960   26.6996 C   0  0  0  0  0  0  0  0  0  0  0  0
  -25.3736  -11.1360   19.6973 C   0  0  0  0  0  0  0  0  0  0  0  0
  -25.1600  -17.6456   19.6796 C   0  0  0  0  0  0  0  0  0  0  0  0
  -26.5432  -18.9174   21.9631 C   0  0  0  0  0  0  0  0  0  0  0  0
  -26.6166  -11.9885   19.9391 C   0  0  0  0  0  0  0  0  0  0  0  0
  -21.4181  -29.8279   27.1449 C   0  0  0  0  0  0  0  0  0  0  0  0
  -26.5225  -12.6998   21.2852 C   0  0  0  0  0  0  0  0  0  0  0  0
  -22.0662  -30.1700   25.8022 C   0  0  0  0  0  0  0  0  0  0  0  0
  -21.6442  -28.3662   27.5245 C   0  0  0  0  0  0  0  0  0  0  0  0
  -21.8835  -27.7314   25.1552 C   0  0  0  0  0  0  0  0  0  0  0  0
  -25.3194  -13.6498   21.3243 C   0  0  1  0  0  0  0  0  0  0  0  0
  -26.4745  -17.0990   20.2278 C   0  0  1  0  0  0  0  0  0  0  0  0
  -21.6348  -29.1805   24.7030 C   0  0  2  0  0  0  0  0  0  0  0  0
  -17.6532  -25.0495   24.9032 C   0  0  0  0  0  0  0  0  0  0  0  0
  -31.6185  -22.8752   20.6508 C   0  0  0  0  0  0  0  0  0  0  0  0
  -29.7621  -17.1789   23.4752 C   0  0  0  0  0  0  0  0  0  0  0  0
  -31.1443  -19.2647   23.5597 C   0  0  0  0  0  0  0  0  0  0  0  0
  -31.4863  -17.6178   21.7176 C   0  0  0  0  0  0  0  0  0  0  0  0
  -20.3206  -20.0714   26.1002 C   0  0  0  0  0  0  0  0  0  0  0  0
  -28.2915  -22.9267   18.8055 C   0  0  0  0  0  0  0  0  0  0  0  0
  -20.8459  -20.9003   23.1821 C   0  0  0  0  0  0  0  0  0  1  0  0
  -18.9008  -24.6522   25.7232 C   0  0  2  0  0  0  0  0  0  0  0  0
  -29.4012  -19.0476   21.7306 C   0  0  1  0  0  0  0  0  0  0  0  0
  -30.3878  -22.2695   19.9939 C   0  0  2  0  0  0  0  0  0  0  0  0
  -30.4202  -18.2787   22.6183 C   0  0  0  0  0  0  0  0  0  0  0  0
  -23.4641  -28.8730   23.0778 N   0  0  0  0  0  0  0  0  0  0  0  0
  -19.8832  -23.0324   24.1214 N   0  0  0  0  0  0  0  0  0  0  0  0
  -19.5172  -22.3435   26.2718 N   0  0  0  0  0  0  0  0  0  0  0  0
  -22.3074  -29.4878   23.3779 N   0  0  0  0  0  0  0  0  0  0  0  0
  -20.0486  -21.3647   25.5237 N   0  0  0  0  0  0  0  0  0  0  0  0
  -27.2473  -18.1085   20.9543 N   0  0  0  0  0  0  0  0  0  0  0  0
  -21.2130  -27.4801   26.4406 N   0  0  0  0  0  0  0  0  0  0  0  0
  -20.7249  -31.0435   22.5496 N   0  0  0  0  0  0  0  0  0  0  0  0
  -23.8106  -30.8434   19.2580 N   0  0  0  0  0  0  0  0  0  0  0  0
  -25.6136  -14.8679   20.6002 N   0  0  0  0  0  0  0  0  0  0  0  0
  -30.0002  -20.0771   20.8881 N   0  0  0  0  0  0  0  0  0  0  0  0
  -19.8881  -25.7031   25.6157 N   0  0  0  0  0  0  0  0  0  0  0  0
  -29.5271  -23.3791   19.4951 N   0  3  0  0  0  0  0  0  0  0  0  0
  -21.8449  -31.8280   19.9100 O   0  0  0  0  0  0  0  0  0  0  0  0
  -26.6942  -16.0156   22.3142 O   0  0  0  0  0  0  0  0  0  0  0  0
  -29.2600  -17.4667   19.9678 O   0  0  0  0  0  0  0  0  0  0  0  0
  -28.7564  -21.8461   21.7250 O   0  0  0  0  0  0  0  0  0  0  0  0
  -19.7321  -26.3393   27.8129 O   0  0  0  0  0  0  0  0  0  0  0  0
  -28.4162  -27.7090   19.2474 O   0  0  0  0  0  0  0  0  0  0  0  0
  -22.2486  -20.7640   23.4067 O   0  0  0  0  0  0  0  0  0  1  0  0
  -33.0761  -27.4649   22.1851 F   0  0  0  0  0  0  0  0  0  0  0  0
  -28.6126  -26.0652   21.4614 F   0  0  0  0  0  0  0  0  0  0  0  0
  1  2  1  0  0  0  0
  1  5  2  0  0  0  0
  2  6  2  0  0  0  0
  3  8  2  0  0  0  0
  3 15  1  0  0  0  0
  4  9  1  0  0  0  0
  4 15  2  0  0  0  0
  5 17  1  0  0  0  0
  6 19  1  0  0  0  0
  7 10  2  0  0  0  0
  7 18  1  0  0  0  0
  8 21  1  0  0  0  0
  9 21  2  0  0  0  0
 10 22  1  0  0  0  0
 11 12  2  0  0  0  0
 11 23  1  0  0  0  0
 12 24  1  0  0  0  0
 13 20  1  0  0  0  0
 13 22  2  0  0  0  0
 14 24  2  0  0  0  0
 14 25  1  0  0  0  0
 15 26  1  0  0  0  0
 16 26  1  0  0  0  0
 16 27  2  0  0  0  0
 16 30  1  0  0  0  0
 17 19  2  0  0  0  0
 17 35  1  0  0  0  0
 18 20  2  0  0  0  0
 18 36  1  0  0  0  0
 19 44  1  0  0  0  0
 20 37  1  0  0  0  0
 21 77  1  0  0  0  0
 22 78  1  0  0  0  0
 23 25  2  0  0  0  0
 23 77  1  0  0  0  0
 24 79  1  0  0  0  0
 25 80  1  0  0  0  0
 26 59  2  0  0  0  0
 27 62  1  0  0  0  0
 27 66  1  0  0  0  0
 28 55  1  0  0  0  0
 28 60  1  0  0  0  0
 28 61  2  0  0  0  0
 29 54  1  0  0  0  0
 29 60  2  0  0  0  0
 29 63  1  0  0  0  0
 30 67  1  0  0  0  0
 30 72  2  0  0  0  0
 31 45  1  0  0  0  0
 31 68  1  0  0  0  0
 31 73  2  0  0  0  0
 32 56  1  0  0  0  0
 32 64  1  0  0  0  0
 32 74  2  0  0  0  0
 33 57  1  0  0  0  0
 33 69  1  0  0  0  0
 33 75  2  0  0  0  0
 34 65  1  0  0  0  0
 34 70  1  0  0  0  0
 34 76  2  0  0  0  0
 35 38  1  0  0  0  0
 36 45  1  0  0  0  0
 37 64  1  0  0  0  0
 38 40  1  0  0  0  0
 39 41  1  0  0  0  0
 39 42  1  0  0  0  0
 40 44  1  0  0  0  0
 41 46  1  0  0  0  0
 42 65  1  0  0  0  0
 43 46  1  0  0  0  0
 43 65  1  0  0  0  0
 44 68  1  0  0  0  0
 45 64  1  0  0  0  0
 46 62  1  0  0  0  0
 47 55  1  0  0  0  0
 48 57  1  0  0  0  0
 49 58  1  0  0  0  0
 50 58  1  0  0  0  0
 51 58  1  0  0  0  0
 52 63  1  0  0  0  0
 53 71  1  0  0  0  0
 54 78  1  0  0  0  0
 55 70  1  0  0  0  0
 56 58  1  0  0  0  0
 56 69  1  0  0  0  0
 57 71  1  0  0  0  0
 59 62  1  0  0  0  0
 61 63  1  0  0  0  0
M  CHG  1  71   1
M  ISO  4  34 100  54 101  70 100  78 101
M  END
> <Batch ID>
0057

> <Smiles>
CNC(C)C(=O)NC(C(=O)N1Cc2cc([101O:1][101CH2:1]c3nc(C(C)[100NH:0][100C:0](=O)N4CCCC(n5nc(-c6ccc(Oc7ccc(F)cc7F)cc6)c(C(N)=O)c5N)C4)nn3C)ccc2CC1C(=O)NC1CCCc2ccccc21)C(C)(C)C

> <Shape>
0.215

> <Color>
0.078

> <Negative vol penalty>
0.000

$$$$

  -OEChem-04052317483D

 83 91  0     1  0  0  0  0  0999 V2000
  -23.7542   -6.5032   23.9816 C   0  0  0  0  0  0  0  0  0  0  0  0
  -25.0023   -7.1054   23.8590 C   0  0  0  0  0  0  0  0  0  0  0  0
  -23.0957  -28.6356   19.6637 C   0  0  0  0  0  0  0  0  0  0  0  0
  -23.2919  -27.9480   21.9715 C   0  0  0  0  0  0  0  0  0  0  0  0
  -22.6930   -6.9328   23.1859 C   0  0  0  0  0  0  0  0  0  0  0  0
  -25.1902   -8.1370   22.9398 C   0  0  0  0  0  0  0  0  0  0  0  0
  -28.9282  -14.1773   22.0136 C   0  0  0  0  0  0  0  0  0  0  0  0
  -21.8747  -29.2463   19.9494 C   0  0  0  0  0  0  0  0  0  0  0  0
  -22.0708  -28.5588   22.2572 C   0  0  0  0  0  0  0  0  0  0  0  0
  -29.7690  -14.7922   21.0870 C   0  0  0  0  0  0  0  0  0  0  0  0
  -18.7855  -27.8654   21.8617 C   0  0  0  0  0  0  0  0  0  0  0  0
  -17.8721  -27.1551   22.6407 C   0  0  0  0  0  0  0  0  0  0  0  0
  -27.8431  -15.5051   19.8214 C   0  0  0  0  0  0  0  0  0  0  0  0
  -17.9173  -28.9135   24.2970 C   0  0  0  0  0  0  0  0  0  0  0  0
  -30.5567  -20.8327   20.2221 C   0  0  0  0  0  0  0  0  0  0  0  0
  -29.9638  -19.0113   21.3019 C   0  0  0  0  0  0  0  0  0  0  0  0
  -23.8043  -27.9864   20.6747 C   0  0  0  0  0  0  0  0  0  0  0  0
  -26.3446  -27.9390   20.4456 C   0  0  0  0  0  0  0  0  0  0  0  0
  -22.8655   -7.9767   22.2633 C   0  0  0  0  0  0  0  0  0  0  0  0
  -27.5365  -14.2124   21.8450 C   0  0  0  0  0  0  0  0  0  0  0  0
  -24.1306   -8.5801   22.1300 C   0  0  0  0  0  0  0  0  0  0  0  0
  -26.9867  -14.8921   20.7487 C   0  0  0  0  0  0  0  0  0  0  0  0
  -30.7066  -19.4330   20.2263 C   0  0  0  0  0  0  0  0  0  0  0  0
  -21.3622  -29.2080   21.2462 C   0  0  0  0  0  0  0  0  0  0  0  0
  -29.2267  -15.4538   19.9891 C   0  0  0  0  0  0  0  0  0  0  0  0
  -19.2648  -29.0997   22.3003 C   0  0  0  0  0  0  0  0  0  0  0  0
  -17.4380  -27.6791   23.8583 C   0  0  0  0  0  0  0  0  0  0  0  0
  -18.8307  -29.6238   23.5179 C   0  0  0  0  0  0  0  0  0  0  0  0
  -25.0654  -27.3548   20.3801 C   0  0  0  0  0  0  0  0  0  0  0  0
  -27.2014  -26.9320   20.0737 C   0  0  0  0  0  0  0  0  0  0  0  0
  -26.7243  -29.2726   20.8102 C   0  0  0  0  0  0  0  0  0  0  0  0
  -25.2724  -12.0220   21.4212 C   0  0  0  0  0  0  0  0  0  0  0  0
  -23.2938  -14.5781   21.6932 C   0  0  0  0  0  0  0  0  0  0  0  0
  -22.8665  -17.9530   21.4215 C   0  0  0  0  0  0  0  0  0  0  0  0
  -26.8031  -20.9607   20.2654 C   0  0  0  0  0  0  0  0  0  0  0  0
  -21.7009   -8.3749   21.3915 C   0  0  0  0  0  0  0  0  0  0  0  0
  -26.6422  -13.5671   22.8677 C   0  0  0  0  0  0  0  0  0  0  0  0
  -25.4984  -14.9760   20.5329 C   0  0  0  0  0  0  0  0  0  0  0  0
  -21.8867   -9.7266   20.7070 C   0  0  0  0  0  0  0  0  0  0  0  0
  -27.3892  -22.9760   17.3893 C   0  0  0  0  0  0  0  0  0  0  0  0
  -23.2776   -9.8251   20.0884 C   0  0  0  0  0  0  0  0  0  0  0  0
  -26.9755  -24.3795   17.8356 C   0  0  0  0  0  0  0  0  0  0  0  0
  -26.4883  -21.9025   17.9959 C   0  0  0  0  0  0  0  0  0  0  0  0
  -25.9519  -23.3579   19.9110 C   0  0  0  0  0  0  0  0  0  0  0  0
  -24.3675   -9.7188   21.1619 C   0  0  1  0  0  0  0  0  0  0  0  0
  -25.2594  -13.2250   22.3215 C   0  0  1  0  0  0  0  0  0  0  0  0
  -26.8658  -24.4705   19.3695 C   0  0  2  0  0  0  0  0  0  0  0  0
  -21.7164  -20.1763   21.5996 C   0  0  0  0  0  0  0  0  0  0  0  0
  -22.0485  -13.7386   19.0372 C   0  0  0  0  0  0  0  0  0  0  0  0
  -21.0251  -16.0179   18.8764 C   0  0  0  0  0  0  0  0  0  0  0  0
  -20.4083  -14.5059   20.7622 C   0  0  0  0  0  0  0  0  0  0  0  0
  -28.8280  -19.0747   24.0421 C   0  0  0  0  0  0  0  0  0  0  0  0
  -28.8395  -21.5389   23.7532 C   0  0  0  0  0  0  0  0  0  0  0  0
  -23.8211  -18.3553   24.1939 C   0  0  0  0  0  0  0  0  0  0  0  0
  -31.5010  -18.5846   19.2656 C   0  0  0  0  0  0  0  0  0  0  0  0
  -30.6996  -18.1178   18.0485 C   0  0  0  0  0  0  0  0  0  0  0  0
  -27.0807  -20.1644   22.5994 C   0  0  0  0  0  0  0  0  0  0  0  0
  -29.5345  -17.2029   18.4075 C   0  0  0  0  0  0  0  0  0  1  0  0
  -22.6984  -15.5765   20.7301 C   0  0  1  0  0  0  0  0  0  0  0  0
  -22.2394  -18.9678   22.3604 C   0  0  2  0  0  0  0  0  0  0  0  0
  -21.5732  -14.9567   19.8542 C   0  0  0  0  0  0  0  0  0  0  0  0
  -28.5769  -20.2048   23.0139 C   0  0  0  0  0  0  0  0  0  0  0  0
  -29.7796  -21.2711   21.2160 N   0  0  0  0  0  0  0  0  0  0  0  0
  -25.1017  -26.0759   19.9965 N   0  0  0  0  0  0  0  0  0  0  0  0
  -29.4344  -20.1402   21.8548 N   0  0  0  0  0  0  0  0  0  0  0  0
  -26.4140  -25.8482   19.8176 N   0  0  0  0  0  0  0  0  0  0  0  0
  -24.6659  -14.3239   21.5571 N   0  0  0  0  0  0  0  0  0  0  0  0
  -26.4285  -22.0435   19.4527 N   0  0  0  0  0  0  0  0  0  0  0  0
  -28.5440  -26.8768   19.9439 N   0  0  0  0  0  0  0  0  0  0  0  0
  -25.7174  -30.1805   21.1655 N   0  0  0  0  0  0  0  0  0  0  0  0
  -24.4982  -10.9713   21.8751 N   0  0  0  0  0  0  0  0  0  0  0  0
  -22.2700  -16.7151   21.5353 N   0  0  0  0  0  0  0  0  0  0  0  0
  -26.7231  -21.1807   21.6350 N   0  0  0  0  0  0  0  0  0  0  0  0
  -23.2411  -19.4382   23.3585 N   0  3  0  0  0  0  0  0  0  0  0  0
  -27.9197  -29.6527   20.8048 O   0  0  0  0  0  0  0  0  0  0  0  0
  -25.9345  -12.0460   20.3903 O   0  0  0  0  0  0  0  0  0  0  0  0
  -22.5695  -14.0487   22.5400 O   0  0  0  0  0  0  0  0  0  0  0  0
  -23.7905  -18.2317   20.6605 O   0  0  0  0  0  0  0  0  0  0  0  0
  -27.1858  -19.8800   19.8044 O   0  0  0  0  0  0  0  0  0  0  0  0
  -20.1709  -29.8040   21.5254 O   0  0  0  0  0  0  0  0  0  0  0  0
  -30.0452  -16.0542   19.0828 O   0  0  0  0  0  0  0  0  0  1  0  0
  -16.5598  -26.9976   24.6056 F   0  0  0  0  0  0  0  0  0  0  0  0
  -19.2867  -30.8096   23.9440 F   0  0  0  0  0  0  0  0  0  0  0  0
  1  2  1  0  0  0  0
  1  5  2  0  0  0  0
  2  6  2  0  0  0  0
  3  8  2  0  0  0  0
  3 17  1  0  0  0  0
  4  9  1  0  0  0  0
  4 17  2  0  0  0  0
  5 19  1  0  0  0  0
  6 21  1  0  0  0  0
  7 10  2  0  0  0  0
  7 20  1  0  0  0  0
  8 24  1  0  0  0  0
  9 24  2  0  0  0  0
 10 25  1  0  0  0  0
 11 12  2  0  0  0  0
 11 26  1  0  0  0  0
 12 27  1  0  0  0  0
 13 22  1  0  0  0  0
 13 25  2  0  0  0  0
 14 27  2  0  0  0  0
 14 28  1  0  0  0  0
 15 23  1  0  0  0  0
 15 63  2  0  0  0  0
 16 23  2  0  0  0  0
 16 65  1  0  0  0  0
 17 29  1  0  0  0  0
 18 29  1  0  0  0  0
 18 30  2  0  0  0  0
 18 31  1  0  0  0  0
 19 21  2  0  0  0  0
 19 36  1  0  0  0  0
 20 22  2  0  0  0  0
 20 37  1  0  0  0  0
 21 45  1  0  0  0  0
 22 38  1  0  0  0  0
 23 55  1  0  0  0  0
 24 80  1  0  0  0  0
 25 81  1  0  0  0  0
 26 28  2  0  0  0  0
 26 80  1  0  0  0  0
 27 82  1  0  0  0  0
 28 83  1  0  0  0  0
 29 64  2  0  0  0  0
 30 66  1  0  0  0  0
 30 69  1  0  0  0  0
 31 70  1  0  0  0  0
 31 75  2  0  0  0  0
 32 46  1  0  0  0  0
 32 71  1  0  0  0  0
 32 76  2  0  0  0  0
 33 59  1  0  0  0  0
 33 67  1  0  0  0  0
 33 77  2  0  0  0  0
 34 60  1  0  0  0  0
 34 72  1  0  0  0  0
 34 78  2  0  0  0  0
 35 68  1  0  0  0  0
 35 73  1  0  0  0  0
 35 79  2  0  0  0  0
 36 39  1  0  0  0  0
 37 46  1  0  0  0  0
 38 67  1  0  0  0  0
 39 41  1  0  0  0  0
 40 42  1  0  0  0  0
 40 43  1  0  0  0  0
 41 45  1  0  0  0  0
 42 47  1  0  0  0  0
 43 68  1  0  0  0  0
 44 47  1  0  0  0  0
 44 68  1  0  0  0  0
 45 71  1  0  0  0  0
 46 67  1  0  0  0  0
 47 66  1  0  0  0  0
 48 60  1  0  0  0  0
 49 61  1  0  0  0  0
 50 61  1  0  0  0  0
 51 61  1  0  0  0  0
 52 62  1  0  0  0  0
 53 62  1  0  0  0  0
 54 74  1  0  0  0  0
 55 56  1  0  0  0  0
 56 58  1  0  0  0  0
 57 62  1  0  0  0  0
 57 73  1  0  0  0  0
 58 81  1  0  0  0  0
 59 61  1  0  0  0  0
 59 72  1  0  0  0  0
 60 74  1  0  0  0  0
 62 65  1  0  0  0  0
 63 65  1  0  0  0  0
 64 66  1  0  0  0  0
M  CHG  1  74   1
M  ISO  4  35 100  58 101  73 100  81 101
M  END
> <Batch ID>
0057

> <Smiles>
CNC(C)C(=O)NC(C(=O)N1Cc2cc([101O:1][101CH2:1]CCc3cnn(C(C)(C)C[100NH:0][100C:0](=O)N4CCCC(n5nc(-c6ccc(Oc7ccc(F)cc7F)cc6)c(C(N)=O)c5N)C4)c3)ccc2CC1C(=O)NC1CCCc2ccccc21)C(C)(C)C

> <Shape>
0.253

> <Color>
0.065

> <Negative vol penalty>
0.000

$$$$

  -OEChem-04052317483D

 84 92  0     1  0  0  0  0  0999 V2000
  -30.6411  -25.7532   17.1236 C   0  0  0  0  0  0  0  0  0  0  0  0
  -29.2554  -25.6789   17.2225 C   0  0  0  0  0  0  0  0  0  0  0  0
  -23.2063  -14.5309   20.9392 C   0  0  0  0  0  0  0  0  0  0  0  0
  -25.3505  -15.5726   21.3324 C   0  0  0  0  0  0  0  0  0  0  0  0
  -31.3904  -26.2366   18.1954 C   0  0  0  0  0  0  0  0  0  0  0  0
  -28.6183  -26.0869   18.3939 C   0  0  0  0  0  0  0  0  0  0  0  0
  -23.1515  -28.8086   18.8549 C   0  0  0  0  0  0  0  0  0  0  0  0
  -23.8411  -13.3098   20.7127 C   0  0  0  0  0  0  0  0  0  0  0  0
  -25.9853  -14.3514   21.1060 C   0  0  0  0  0  0  0  0  0  0  0  0
  -21.8813  -28.3172   19.1530 C   0  0  0  0  0  0  0  0  0  0  0  0
  -25.2099  -10.8329   22.5633 C   0  0  0  0  0  0  0  0  0  0  0  0
  -24.6678   -9.6987   23.1676 C   0  0  0  0  0  0  0  0  0  0  0  0
  -22.1863  -28.9464   21.4618 C   0  0  0  0  0  0  0  0  0  0  0  0
  -24.3284   -8.7023   20.9929 C   0  0  0  0  0  0  0  0  0  0  0  0
  -23.9610  -15.6624   21.2490 C   0  0  0  0  0  0  0  0  0  0  0  0
  -22.3506  -17.2154   22.4746 C   0  0  0  0  0  0  0  0  0  0  0  0
  -30.7614  -26.6598   19.3769 C   0  0  0  0  0  0  0  0  0  0  0  0
  -23.9543  -29.3635   19.8619 C   0  0  0  0  0  0  0  0  0  0  0  0
  -29.3600  -26.5752   19.4830 C   0  0  0  0  0  0  0  0  0  0  0  0
  -23.4653  -29.4464   21.1734 C   0  0  0  0  0  0  0  0  0  0  0  0
  -25.2306  -13.2200   20.7961 C   0  0  0  0  0  0  0  0  0  0  0  0
  -21.3996  -28.3835   20.4571 C   0  0  0  0  0  0  0  0  0  0  0  0
  -25.3112  -10.9020   21.1738 C   0  0  0  0  0  0  0  0  0  0  0  0
  -24.2271   -8.6334   22.3824 C   0  0  0  0  0  0  0  0  0  0  0  0
  -24.8705   -9.8367   20.3886 C   0  0  0  0  0  0  0  0  0  0  0  0
  -23.3059  -16.9243   21.4825 C   0  0  0  0  0  0  0  0  0  0  0  0
  -22.0428  -18.5393   22.2770 C   0  0  0  0  0  0  0  0  0  0  0  0
  -19.3951  -25.1374   24.2421 C   0  0  0  0  0  0  0  0  0  0  0  0
  -20.9142  -24.1070   22.9510 C   0  0  0  0  0  0  0  0  0  0  0  0
  -19.3179  -25.3744   22.0117 C   0  0  0  0  0  0  0  0  0  0  0  0
  -21.7914  -16.3652   23.4847 C   0  0  0  0  0  0  0  0  0  0  0  0
  -26.7796  -28.6451   21.1290 C   0  0  0  0  0  0  0  0  0  0  0  0
  -26.3417  -31.4402   22.7159 C   0  0  0  0  0  0  0  0  0  0  0  0
  -24.1672  -33.7827   23.9123 C   0  0  0  0  0  0  0  0  0  0  0  0
  -24.1322  -23.7513   21.3899 C   0  0  0  0  0  0  0  0  0  0  0  0
  -31.6170  -27.1307   20.5262 C   0  0  0  0  0  0  0  0  0  0  0  0
  -25.3117  -29.9134   19.5189 C   0  0  0  0  0  0  0  0  0  0  0  0
  -24.2797  -30.0512   22.2867 C   0  0  0  0  0  0  0  0  0  0  0  0
  -30.8369  -27.8941   21.5935 C   0  0  0  0  0  0  0  0  0  0  0  0
  -23.1766  -21.6704   18.4815 C   0  0  0  0  0  0  0  0  0  0  0  0
  -29.5517  -27.1528   21.9478 C   0  0  0  0  0  0  0  0  0  0  0  0
  -23.1192  -20.2664   19.0810 C   0  0  0  0  0  0  0  0  0  0  0  0
  -24.1632  -22.5650   19.2258 C   0  0  0  0  0  0  0  0  0  0  0  0
  -23.8606  -21.2394   21.2910 C   0  0  0  0  0  0  0  0  0  0  0  0
  -28.6305  -27.0315   20.7279 C   0  0  1  0  0  0  0  0  0  0  0  0
  -26.2469  -29.9898   20.7218 C   0  0  1  0  0  0  0  0  0  0  0  0
  -22.8413  -20.3264   20.5931 C   0  0  2  0  0  0  0  0  0  0  0  0
  -18.8420  -25.4417   25.5927 C   0  0  0  0  0  0  0  0  0  0  0  0
  -23.4046  -35.9227   24.9782 C   0  0  0  0  0  0  0  0  0  0  0  0
  -17.4281  -26.8617   21.0654 C   0  0  0  0  0  0  0  0  0  0  0  0
  -18.1575  -24.8189   19.8519 C   0  0  0  0  0  0  0  0  0  0  0  0
  -26.8369  -29.9033   25.3049 C   0  0  0  0  0  0  0  0  0  0  0  0
  -25.8423  -31.8297   26.5570 C   0  0  0  0  0  0  0  0  0  0  0  0
  -27.9146  -32.1579   25.2077 C   0  0  0  0  0  0  0  0  0  0  0  0
  -23.5161  -25.1957   23.2908 C   0  0  0  0  0  0  0  0  0  0  0  0
  -24.2003  -35.2188   21.3248 C   0  0  0  0  0  0  0  0  0  0  0  0
  -22.1091  -23.2257   22.8160 C   0  0  0  0  0  0  0  0  0  0  0  0
  -19.6791  -26.8191   19.9587 C   0  0  0  0  0  0  0  0  0  1  0  0
  -25.7032  -31.8378   24.0248 C   0  0  1  0  0  0  0  0  0  0  0  0
  -24.1685  -35.2980   23.8211 C   0  0  2  0  0  0  0  0  0  0  0  0
  -18.6549  -25.9705   20.7557 C   0  0  0  0  0  0  0  0  0  0  0  0
  -26.5594  -31.4190   25.2532 C   0  0  0  0  0  0  0  0  0  0  0  0
  -23.5864  -17.9784   20.7117 N   0  0  0  0  0  0  0  0  0  0  0  0
  -20.4723  -24.3367   24.1978 N   0  0  0  0  0  0  0  0  0  0  0  0
  -18.7655  -25.6919   23.1936 N   0  0  0  0  0  0  0  0  0  0  0  0
  -20.3896  -24.5901   21.8133 N   0  0  0  0  0  0  0  0  0  0  0  0
  -22.8026  -18.9448   21.2195 N   0  0  0  0  0  0  0  0  0  0  0  0
  -25.6031  -30.5694   21.9023 N   0  0  0  0  0  0  0  0  0  0  0  0
  -23.9031  -22.5698   20.6657 N   0  0  0  0  0  0  0  0  0  0  0  0
  -21.1990  -19.3845   22.9064 N   0  0  0  0  0  0  0  0  0  0  0  0
  -22.4331  -16.2943   24.7286 N   0  0  0  0  0  0  0  0  0  0  0  0
  -27.9470  -28.2836   20.4842 N   0  0  0  0  0  0  0  0  0  0  0  0
  -25.4476  -33.2713   23.9355 N   0  0  0  0  0  0  0  0  0  0  0  0
  -23.3244  -23.9791   22.5143 N   0  0  0  0  0  0  0  0  0  0  0  0
  -23.5355  -35.7406   22.5466 N   0  3  0  0  0  0  0  0  0  0  0  0
  -20.7628  -15.6758   23.2843 O   0  0  0  0  0  0  0  0  0  0  0  0
  -26.1769  -27.9852   21.9674 O   0  0  0  0  0  0  0  0  0  0  0  0
  -27.4517  -31.8915   22.4228 O   0  0  0  0  0  0  0  0  0  0  0  0
  -23.1339  -33.1192   23.9622 O   0  0  0  0  0  0  0  0  0  0  0  0
  -25.0023  -24.5612   21.0452 O   0  0  0  0  0  0  0  0  0  0  0  0
  -25.8504  -12.0284   20.5755 O   0  0  0  0  0  0  0  0  0  0  0  0
  -20.1604  -27.9040   20.7509 O   0  0  0  0  0  0  0  0  0  1  0  0
  -23.7080   -7.5435   22.9629 F   0  0  0  0  0  0  0  0  0  0  0  0
  -24.9664   -9.8967   19.0533 F   0  0  0  0  0  0  0  0  0  0  0  0
  1  2  1  0  0  0  0
  1  5  2  0  0  0  0
  2  6  2  0  0  0  0
  3  8  2  0  0  0  0
  3 15  1  0  0  0  0
  4  9  1  0  0  0  0
  4 15  2  0  0  0  0
  5 17  1  0  0  0  0
  6 19  1  0  0  0  0
  7 10  2  0  0  0  0
  7 18  1  0  0  0  0
  8 21  1  0  0  0  0
  9 21  2  0  0  0  0
 10 22  1  0  0  0  0
 11 12  2  0  0  0  0
 11 23  1  0  0  0  0
 12 24  1  0  0  0  0
 13 20  1  0  0  0  0
 13 22  2  0  0  0  0
 14 24  2  0  0  0  0
 14 25  1  0  0  0  0
 15 26  1  0  0  0  0
 16 26  1  0  0  0  0
 16 27  2  0  0  0  0
 16 31  1  0  0  0  0
 17 19  2  0  0  0  0
 17 36  1  0  0  0  0
 18 20  2  0  0  0  0
 18 37  1  0  0  0  0
 19 45  1  0  0  0  0
 20 38  1  0  0  0  0
 21 81  1  0  0  0  0
 22 82  1  0  0  0  0
 23 25  2  0  0  0  0
 23 81  1  0  0  0  0
 24 83  1  0  0  0  0
 25 84  1  0  0  0  0
 26 63  2  0  0  0  0
 27 67  1  0  0  0  0
 27 70  1  0  0  0  0
 28 48  1  0  0  0  0
 28 64  1  0  0  0  0
 28 65  2  0  0  0  0
 29 57  1  0  0  0  0
 29 64  2  0  0  0  0
 29 66  1  0  0  0  0
 30 61  1  0  0  0  0
 30 65  1  0  0  0  0
 30 66  2  0  0  0  0
 31 71  1  0  0  0  0
 31 76  2  0  0  0  0
 32 46  1  0  0  0  0
 32 72  1  0  0  0  0
 32 77  2  0  0  0  0
 33 59  1  0  0  0  0
 33 68  1  0  0  0  0
 33 78  2  0  0  0  0
 34 60  1  0  0  0  0
 34 73  1  0  0  0  0
 34 79  2  0  0  0  0
 35 69  1  0  0  0  0
 35 74  1  0  0  0  0
 35 80  2  0  0  0  0
 36 39  1  0  0  0  0
 37 46  1  0  0  0  0
 38 68  1  0  0  0  0
 39 41  1  0  0  0  0
 40 42  1  0  0  0  0
 40 43  1  0  0  0  0
 41 45  1  0  0  0  0
 42 47  1  0  0  0  0
 43 69  1  0  0  0  0
 44 47  1  0  0  0  0
 44 69  1  0  0  0  0
 45 72  1  0  0  0  0
 46 68  1  0  0  0  0
 47 67  1  0  0  0  0
 49 60  1  0  0  0  0
 50 61  1  0  0  0  0
 51 61  1  0  0  0  0
 52 62  1  0  0  0  0
 53 62  1  0  0  0  0
 54 62  1  0  0  0  0
 55 74  1  0  0  0  0
 56 75  1  0  0  0  0
 57 74  1  0  0  0  0
 58 61  1  0  0  0  0
 58 82  1  0  0  0  0
 59 62  1  0  0  0  0
 59 73  1  0  0  0  0
 60 75  1  0  0  0  0
 63 67  1  0  0  0  0
M  CHG  1  75   1
M  ISO  4  35 100  58 101  74 100  82 101
M  END
> <Batch ID>
0057

> <Smiles>
CNC(C)C(=O)NC(C(=O)N1Cc2cc([101O:1][101CH2:1]C(C)(C)c3nc(C)nc(C[100N:0](C)[100C:0](=O)N4CCCC(n5nc(-c6ccc(Oc7ccc(F)cc7F)cc6)c(C(N)=O)c5N)C4)n3)ccc2CC1C(=O)NC1CCCc2ccccc21)C(C)(C)C

> <Shape>
0.264

> <Color>
0.070

> <Negative vol penalty>
0.000

$$$$

  -OEChem-04052317483D

 82 90  0     1  0  0  0  0  0999 V2000
  -24.5204  -11.4297   20.1748 C   0  0  0  0  0  0  0  0  0  0  0  0
  -24.4442  -12.5713   19.3835 C   0  0  0  0  0  0  0  0  0  0  0  0
  -22.8170  -27.4017   24.0093 C   0  0  0  0  0  0  0  0  0  0  0  0
  -23.2174  -27.0569   21.6518 C   0  0  0  0  0  0  0  0  0  0  0  0
  -25.2427  -11.4564   21.3671 C   0  0  0  0  0  0  0  0  0  0  0  0
  -25.0894  -13.7407   19.7845 C   0  0  0  0  0  0  0  0  0  0  0  0
  -28.4409  -19.4717   17.0940 C   0  0  0  0  0  0  0  0  0  0  0  0
  -21.4415  -27.3570   23.7823 C   0  0  0  0  0  0  0  0  0  0  0  0
  -21.8419  -27.0122   21.4248 C   0  0  0  0  0  0  0  0  0  0  0  0
  -28.4208  -20.8638   17.1666 C   0  0  0  0  0  0  0  0  0  0  0  0
  -17.8206  -27.6928   23.7691 C   0  0  0  0  0  0  0  0  0  0  0  0
  -17.0279  -28.6591   24.3882 C   0  0  0  0  0  0  0  0  0  0  0  0
  -29.7054  -20.7699   19.2063 C   0  0  0  0  0  0  0  0  0  0  0  0
  -30.0833  -27.1067   18.3859 C   0  0  0  0  0  0  0  0  0  0  0  0
  -18.2457  -30.3976   23.2343 C   0  0  0  0  0  0  0  0  0  0  0  0
  -28.6559  -25.6149   20.1700 C   0  0  0  0  0  0  0  0  0  0  0  0
  -23.7050  -27.2517   22.9441 C   0  0  0  0  0  0  0  0  0  0  0  0
  -25.9738  -26.2159   23.4800 C   0  0  0  0  0  0  0  0  0  0  0  0
  -25.9050  -12.6238   21.7782 C   0  0  0  0  0  0  0  0  0  0  0  0
  -29.0852  -18.7165   18.0845 C   0  0  0  0  0  0  0  0  0  0  0  0
  -25.8200  -13.7834   20.9841 C   0  0  0  0  0  0  0  0  0  0  0  0
  -29.7344  -19.3684   19.1426 C   0  0  0  0  0  0  0  0  0  0  0  0
  -30.2642  -25.7285   18.4216 C   0  0  0  0  0  0  0  0  0  0  0  0
  -29.5408  -24.9612   19.3277 C   0  0  0  0  0  0  0  0  0  0  0  0
  -20.9539  -27.1622   22.4900 C   0  0  0  0  0  0  0  0  0  0  0  0
  -29.0506  -21.5131   18.2245 C   0  0  0  0  0  0  0  0  0  0  0  0
  -18.8260  -28.0789   22.8826 C   0  0  0  0  0  0  0  0  0  0  0  0
  -17.2404  -30.0115   24.1208 C   0  0  0  0  0  0  0  0  0  0  0  0
  -19.0385  -29.4313   22.6152 C   0  0  0  0  0  0  0  0  0  0  0  0
  -25.1260  -27.2984   23.1779 C   0  0  0  0  0  0  0  0  0  0  0  0
  -29.1739  -27.6644   19.2702 C   0  0  0  0  0  0  0  0  0  0  0  0
  -27.2193  -26.7806   23.6081 C   0  0  0  0  0  0  0  0  0  0  0  0
  -25.6633  -24.8244   23.6312 C   0  0  0  0  0  0  0  0  0  0  0  0
  -28.1548  -16.5394   20.2054 C   0  0  0  0  0  0  0  0  0  0  0  0
  -31.3384  -16.3081   20.7827 C   0  0  0  0  0  0  0  0  0  0  0  0
  -34.4187  -17.7724   20.6618 C   0  0  0  0  0  0  0  0  0  0  0  0
  -29.2473  -32.0882   21.3158 C   0  0  0  0  0  0  0  0  0  0  0  0
  -26.6342  -12.6182   23.0984 C   0  0  0  0  0  0  0  0  0  0  0  0
  -29.1207  -17.2166   17.9773 C   0  0  0  0  0  0  0  0  0  0  0  0
  -30.4573  -18.6044   20.2206 C   0  0  0  0  0  0  0  0  0  0  0  0
  -27.6002  -13.7883   23.2657 C   0  0  0  0  0  0  0  0  0  0  0  0
  -29.3852  -30.8677   24.8076 C   0  0  0  0  0  0  0  0  0  0  0  0
  -26.9320  -15.0955   22.8516 C   0  0  0  0  0  0  0  0  0  0  0  0
  -28.3242  -29.7686   24.8184 C   0  0  0  0  0  0  0  0  0  0  0  0
  -29.0746  -31.9458   23.7737 C   0  0  0  0  0  0  0  0  0  0  0  0
  -27.8078  -30.3197   22.4080 C   0  0  0  0  0  0  0  0  0  0  0  0
  -26.5269  -15.0637   21.3729 C   0  0  1  0  0  0  0  0  0  0  0  0
  -29.3659  -16.5276   19.3162 C   0  0  1  0  0  0  0  0  0  0  0  0
  -28.1153  -29.1938   23.4066 C   0  0  2  0  0  0  0  0  0  0  0  0
  -31.2365  -25.0967   17.4814 C   0  0  0  0  0  0  0  0  0  0  0  0
  -36.8240  -17.3512   21.2399 C   0  0  0  0  0  0  0  0  0  0  0  0
  -30.7120  -16.7901   23.7297 C   0  0  0  0  0  0  0  0  0  0  0  0
  -33.1363  -17.3021   24.0894 C   0  0  0  0  0  0  0  0  0  0  0  0
  -32.4446  -15.0374   23.3046 C   0  0  0  0  0  0  0  0  0  0  0  0
  -30.0724  -32.0450   18.9926 C   0  0  0  0  0  0  0  0  0  0  0  0
  -35.2653  -18.0447   17.8391 C   0  0  0  0  0  0  0  0  0  0  0  0
  -29.6973  -23.4712   19.4091 C   0  0  0  0  0  0  0  0  0  1  0  0
  -28.9543  -29.1403   19.2603 C   0  0  0  0  0  0  0  0  0  0  0  0
  -29.8865  -29.9055   20.2067 C   0  0  0  0  0  0  0  0  0  0  0  0
  -32.3092  -16.9961   21.7117 C   0  0  1  0  0  0  0  0  0  0  0  0
  -35.7574  -17.2624   20.1596 C   0  0  2  0  0  0  0  0  0  0  0  0
  -32.1353  -16.5460   23.1897 C   0  0  0  0  0  0  0  0  0  0  0  0
  -28.4531  -26.9515   20.1645 N   0  0  0  0  0  0  0  0  0  0  0  0
  -25.7778  -28.4627   23.1178 N   0  0  0  0  0  0  0  0  0  0  0  0
  -27.0484  -28.1150   23.3840 N   0  0  0  0  0  0  0  0  0  0  0  0
  -30.4587  -17.1394   20.0750 N   0  0  0  0  0  0  0  0  0  0  0  0
  -28.8380  -31.3682   22.4502 N   0  0  0  0  0  0  0  0  0  0  0  0
  -28.4330  -26.2609   23.8895 N   0  0  0  0  0  0  0  0  0  0  0  0
  -24.3331  -24.4148   23.4660 N   0  0  0  0  0  0  0  0  0  0  0  0
  -27.6812  -15.2819   20.5278 N   0  0  0  0  0  0  0  0  0  0  0  0
  -33.6398  -16.7520   21.1653 N   0  0  0  0  0  0  0  0  0  0  0  0
  -29.6293  -31.3439   20.1893 N   0  0  0  0  0  0  0  0  0  0  0  0
  -36.2092  -18.0624   18.9861 N   0  3  0  0  0  0  0  0  0  0  0  0
  -26.5367  -23.9718   23.9210 O   0  0  0  0  0  0  0  0  0  0  0  0
  -27.6855  -17.6101   20.5730 O   0  0  0  0  0  0  0  0  0  0  0  0
  -31.3646  -15.0788   20.6830 O   0  0  0  0  0  0  0  0  0  0  0  0
  -34.0976  -18.9578   20.6158 O   0  0  0  0  0  0  0  0  0  0  0  0
  -29.2791  -33.3255   21.3133 O   0  0  0  0  0  0  0  0  0  0  0  0
  -19.6118  -27.1183   22.2681 O   0  0  0  0  0  0  0  0  0  0  0  0
  -29.0319  -22.8718   18.2981 O   0  0  0  0  0  0  0  0  0  1  0  0
  -16.4780  -30.9393   24.7142 F   0  0  0  0  0  0  0  0  0  0  0  0
  -20.0021  -29.8082   21.7635 F   0  0  0  0  0  0  0  0  0  0  0  0
  1  2  1  0  0  0  0
  1  5  2  0  0  0  0
  2  6  2  0  0  0  0
  3  8  2  0  0  0  0
  3 17  1  0  0  0  0
  4  9  1  0  0  0  0
  4 17  2  0  0  0  0
  5 19  1  0  0  0  0
  6 21  1  0  0  0  0
  7 10  2  0  0  0  0
  7 20  1  0  0  0  0
  8 25  1  0  0  0  0
  9 25  2  0  0  0  0
 10 26  1  0  0  0  0
 11 12  2  0  0  0  0
 11 27  1  0  0  0  0
 12 28  1  0  0  0  0
 13 22  1  0  0  0  0
 13 26  2  0  0  0  0
 14 23  1  0  0  0  0
 14 31  2  0  0  0  0
 15 28  2  0  0  0  0
 15 29  1  0  0  0  0
 16 24  1  0  0  0  0
 16 63  2  0  0  0  0
 17 30  1  0  0  0  0
 18 30  1  0  0  0  0
 18 32  2  0  0  0  0
 18 33  1  0  0  0  0
 19 21  2  0  0  0  0
 19 38  1  0  0  0  0
 20 22  2  0  0  0  0
 20 39  1  0  0  0  0
 21 47  1  0  0  0  0
 22 40  1  0  0  0  0
 23 24  2  0  0  0  0
 23 50  1  0  0  0  0
 24 57  1  0  0  0  0
 25 79  1  0  0  0  0
 26 80  1  0  0  0  0
 27 29  2  0  0  0  0
 27 79  1  0  0  0  0
 28 81  1  0  0  0  0
 29 82  1  0  0  0  0
 30 64  2  0  0  0  0
 31 58  1  0  0  0  0
 31 63  1  0  0  0  0
 32 65  1  0  0  0  0
 32 68  1  0  0  0  0
 33 69  1  0  0  0  0
 33 74  2  0  0  0  0
 34 48  1  0  0  0  0
 34 70  1  0  0  0  0
 34 75  2  0  0  0  0
 35 60  1  0  0  0  0
 35 66  1  0  0  0  0
 35 76  2  0  0  0  0
 36 61  1  0  0  0  0
 36 71  1  0  0  0  0
 36 77  2  0  0  0  0
 37 67  1  0  0  0  0
 37 72  1  0  0  0  0
 37 78  2  0  0  0  0
 38 41  1  0  0  0  0
 39 48  1  0  0  0  0
 40 66  1  0  0  0  0
 41 43  1  0  0  0  0
 42 44  1  0  0  0  0
 42 45  1  0  0  0  0
 43 47  1  0  0  0  0
 44 49  1  0  0  0  0
 45 67  1  0  0  0  0
 46 49  1  0  0  0  0
 46 67  1  0  0  0  0
 47 70  1  0  0  0  0
 48 66  1  0  0  0  0
 49 65  1  0  0  0  0
 51 61  1  0  0  0  0
 52 62  1  0  0  0  0
 53 62  1  0  0  0  0
 54 62  1  0  0  0  0
 55 72  1  0  0  0  0
 56 73  1  0  0  0  0
 57 80  1  0  0  0  0
 58 59  1  0  0  0  0
 59 72  1  0  0  0  0
 60 62  1  0  0  0  0
 60 71  1  0  0  0  0
 61 73  1  0  0  0  0
 64 65  1  0  0  0  0
M  CHG  1  73   1
M  ISO  4  37 100  57 101  72 100  80 101
M  END
> <Batch ID>
0057

> <Smiles>
CNC(C)C(=O)NC(C(=O)N1Cc2cc([101O:1][101CH2:1]c3cnc(CC[100N:0](C)[100C:0](=O)N4CCCC(n5nc(-c6ccc(Oc7ccc(F)cc7F)cc6)c(C(N)=O)c5N)C4)cc3C)ccc2CC1C(=O)NC1CCCc2ccccc21)C(C)(C)C

> <Shape>
0.218

> <Color>
0.080

> <Negative vol penalty>
0.000

$$$$

  -OEChem-04052317483D

 81 89  0     1  0  0  0  0  0999 V2000
  -26.2342  -34.9888   24.0828 C   0  0  0  0  0  0  0  0  0  0  0  0
  -26.7426  -33.7355   23.7573 C   0  0  0  0  0  0  0  0  0  0  0  0
  -25.5755  -13.6526   21.4323 C   0  0  0  0  0  0  0  0  0  0  0  0
  -25.1025  -14.1563   19.1172 C   0  0  0  0  0  0  0  0  0  0  0  0
  -24.8990  -35.1213   24.4616 C   0  0  0  0  0  0  0  0  0  0  0  0
  -25.9163  -32.6135   23.8115 C   0  0  0  0  0  0  0  0  0  0  0  0
  -26.4539  -29.6078   19.7715 C   0  0  0  0  0  0  0  0  0  0  0  0
  -24.5831  -12.6725   21.4218 C   0  0  0  0  0  0  0  0  0  0  0  0
  -24.1101  -13.1761   19.1067 C   0  0  0  0  0  0  0  0  0  0  0  0
  -27.5712  -28.7745   19.7421 C   0  0  0  0  0  0  0  0  0  0  0  0
  -24.2363   -9.4902   20.3328 C   0  0  0  0  0  0  0  0  0  0  0  0
  -24.5362   -8.2579   20.9132 C   0  0  0  0  0  0  0  0  0  0  0  0
  -26.2045  -26.9262   20.4735 C   0  0  0  0  0  0  0  0  0  0  0  0
  -22.7215   -8.5544   22.4804 C   0  0  0  0  0  0  0  0  0  0  0  0
  -25.8352  -14.3945   20.2800 C   0  0  0  0  0  0  0  0  0  0  0  0
  -28.2220  -15.2421   19.9758 C   0  0  0  0  0  0  0  0  0  0  0  0
  -24.0533  -34.0019   24.5111 C   0  0  0  0  0  0  0  0  0  0  0  0
  -25.2035  -29.1083   20.1633 C   0  0  0  0  0  0  0  0  0  0  0  0
  -24.5688  -32.7309   24.1926 C   0  0  0  0  0  0  0  0  0  0  0  0
  -25.0723  -27.7546   20.5046 C   0  0  0  0  0  0  0  0  0  0  0  0
  -23.8504  -12.4342   20.2590 C   0  0  0  0  0  0  0  0  0  0  0  0
  -27.4472  -27.4341   20.0959 C   0  0  0  0  0  0  0  0  0  0  0  0
  -23.1791  -10.2548   20.8262 C   0  0  0  0  0  0  0  0  0  0  0  0
  -23.7788   -7.7899   21.9870 C   0  0  0  0  0  0  0  0  0  0  0  0
  -22.4217   -9.7868   21.9000 C   0  0  0  0  0  0  0  0  0  0  0  0
  -26.8598  -15.4075   20.2903 C   0  0  0  0  0  0  0  0  0  0  0  0
  -28.7657  -16.4931   20.1361 C   0  0  0  0  0  0  0  0  0  0  0  0
  -28.2458  -22.9623   17.8318 C   0  0  0  0  0  0  0  0  0  0  0  0
  -28.9322  -14.0630   19.5747 C   0  0  0  0  0  0  0  0  0  0  0  0
  -23.1779  -29.7383   22.5306 C   0  0  0  0  0  0  0  0  0  0  0  0
  -21.2731  -27.6537   20.9342 C   0  0  0  0  0  0  0  0  0  0  0  0
  -21.0273  -25.0397   18.7539 C   0  0  0  0  0  0  0  0  0  0  0  0
  -25.9303  -21.9227   20.0021 C   0  0  0  0  0  0  0  0  0  0  0  0
  -22.6293  -34.1876   24.9720 C   0  0  0  0  0  0  0  0  0  0  0  0
  -24.0026  -30.0139   20.1641 C   0  0  0  0  0  0  0  0  0  0  0  0
  -23.7481  -27.1645   20.9130 C   0  0  0  0  0  0  0  0  0  0  0  0
  -21.7232  -33.0042   24.6423 C   0  0  0  0  0  0  0  0  0  0  0  0
  -28.1919  -20.5519   22.5920 C   0  0  0  0  0  0  0  0  0  0  0  0
  -22.4036  -31.6908   25.0146 C   0  0  0  0  0  0  0  0  0  0  0  0
  -28.1586  -19.0521   22.3033 C   0  0  0  0  0  0  0  0  0  0  0  0
  -26.8982  -21.2401   22.1675 C   0  0  0  0  0  0  0  0  0  0  0  0
  -26.4930  -19.5002   20.4579 C   0  0  0  0  0  0  0  0  0  0  0  0
  -23.6975  -31.4939   24.2155 C   0  0  1  0  0  0  0  0  0  0  0  0
  -22.8820  -29.5196   21.0738 C   0  0  1  0  0  0  0  0  0  0  0  0
  -27.7999  -18.7846   20.8312 C   0  0  2  0  0  0  0  0  0  0  0  0
  -27.3710  -20.8520   16.7627 C   0  0  0  0  0  0  0  0  0  0  0  0
  -19.3409  -23.5280   17.6731 C   0  0  0  0  0  0  0  0  0  0  0  0
  -20.9903  -26.1047   23.5477 C   0  0  0  0  0  0  0  0  0  0  0  0
  -20.1257  -24.1641   22.2229 C   0  0  0  0  0  0  0  0  0  0  0  0
  -18.8758  -26.3229   22.2303 C   0  0  0  0  0  0  0  0  0  0  0  0
  -25.1728  -22.4090   17.7066 C   0  0  0  0  0  0  0  0  0  0  0  0
  -21.7767  -25.9521   16.0401 C   0  0  0  0  0  0  0  0  0  0  0  0
  -30.3049  -25.6526   18.7379 C   0  0  0  0  0  0  0  0  0  0  0  0
  -29.5529  -26.9244   19.1149 C   0  0  0  0  0  0  0  0  0  1  0  0
  -27.5148  -21.7098   18.0408 C   0  0  2  0  0  0  0  0  0  0  0  0
  -21.0599  -26.1596   20.9673 C   0  0  1  0  0  0  0  0  0  0  0  0
  -20.1373  -24.8171   17.5444 C   0  0  2  0  0  0  0  0  0  0  0  0
  -20.2884  -25.6991   22.2363 C   0  0  0  0  0  0  0  0  0  0  0  0
  -26.5569  -16.6645   20.6252 N   0  0  0  0  0  0  0  0  0  0  0  0
  -28.2355  -23.6406   16.6493 N   0  0  0  0  0  0  0  0  0  0  0  0
  -28.9737  -23.5448   18.7879 N   0  0  0  0  0  0  0  0  0  0  0  0
  -28.9903  -24.7159   16.8381 N   0  0  0  0  0  0  0  0  0  0  0  0
  -27.7364  -17.3003   20.5221 N   0  0  0  0  0  0  0  0  0  0  0  0
  -29.4036  -24.6178   18.1093 N   0  0  0  0  0  0  0  0  0  0  0  0
  -22.6047  -28.0918   20.9041 N   0  0  0  0  0  0  0  0  0  0  0  0
  -26.5583  -20.9342   20.7775 N   0  0  0  0  0  0  0  0  0  0  0  0
  -30.0192  -16.9704   19.9831 N   0  0  0  0  0  0  0  0  0  0  0  0
  -28.2206  -12.8611   19.4594 N   0  0  0  0  0  0  0  0  0  0  0  0
  -23.3980  -31.0602   22.8676 N   0  0  0  0  0  0  0  0  0  0  0  0
  -20.4046  -25.8128   19.7109 N   0  0  0  0  0  0  0  0  0  0  0  0
  -26.1905  -21.9153   18.6233 N   0  0  0  0  0  0  0  0  0  0  0  0
  -20.9593  -24.7400   16.3037 N   0  3  0  0  0  0  0  0  0  0  0  0
  -30.1648  -14.0714   19.3417 O   0  0  0  0  0  0  0  0  0  0  0  0
  -23.2031  -28.7790   23.2927 O   0  0  0  0  0  0  0  0  0  0  0  0
  -20.2943  -28.4043   20.9277 O   0  0  0  0  0  0  0  0  0  0  0  0
  -22.1601  -24.5713   18.8426 O   0  0  0  0  0  0  0  0  0  0  0  0
  -25.1875  -22.7699   20.5144 O   0  0  0  0  0  0  0  0  0  0  0  0
  -22.8821  -11.4777   20.2484 O   0  0  0  0  0  0  0  0  0  0  0  0
  -28.5364  -26.6187   20.0686 O   0  0  0  0  0  0  0  0  0  1  0  0
  -24.0659   -6.6057   22.5433 F   0  0  0  0  0  0  0  0  0  0  0  0
  -21.4040  -10.5163   22.3776 F   0  0  0  0  0  0  0  0  0  0  0  0
  1  2  1  0  0  0  0
  1  5  2  0  0  0  0
  2  6  2  0  0  0  0
  3  8  2  0  0  0  0
  3 15  1  0  0  0  0
  4  9  1  0  0  0  0
  4 15  2  0  0  0  0
  5 17  1  0  0  0  0
  6 19  1  0  0  0  0
  7 10  2  0  0  0  0
  7 18  1  0  0  0  0
  8 21  1  0  0  0  0
  9 21  2  0  0  0  0
 10 22  1  0  0  0  0
 11 12  2  0  0  0  0
 11 23  1  0  0  0  0
 12 24  1  0  0  0  0
 13 20  1  0  0  0  0
 13 22  2  0  0  0  0
 14 24  2  0  0  0  0
 14 25  1  0  0  0  0
 15 26  1  0  0  0  0
 16 26  1  0  0  0  0
 16 27  2  0  0  0  0
 16 29  1  0  0  0  0
 17 19  2  0  0  0  0
 17 34  1  0  0  0  0
 18 20  2  0  0  0  0
 18 35  1  0  0  0  0
 19 43  1  0  0  0  0
 20 36  1  0  0  0  0
 21 78  1  0  0  0  0
 22 79  1  0  0  0  0
 23 25  2  0  0  0  0
 23 78  1  0  0  0  0
 24 80  1  0  0  0  0
 25 81  1  0  0  0  0
 26 59  2  0  0  0  0
 27 63  1  0  0  0  0
 27 67  1  0  0  0  0
 28 55  1  0  0  0  0
 28 60  1  0  0  0  0
 28 61  2  0  0  0  0
 29 68  1  0  0  0  0
 29 73  2  0  0  0  0
 30 44  1  0  0  0  0
 30 69  1  0  0  0  0
 30 74  2  0  0  0  0
 31 56  1  0  0  0  0
 31 65  1  0  0  0  0
 31 75  2  0  0  0  0
 32 57  1  0  0  0  0
 32 70  1  0  0  0  0
 32 76  2  0  0  0  0
 33 66  1  0  0  0  0
 33 71  1  0  0  0  0
 33 77  2  0  0  0  0
 34 37  1  0  0  0  0
 35 44  1  0  0  0  0
 36 65  1  0  0  0  0
 37 39  1  0  0  0  0
 38 40  1  0  0  0  0
 38 41  1  0  0  0  0
 39 43  1  0  0  0  0
 40 45  1  0  0  0  0
 41 66  1  0  0  0  0
 42 45  1  0  0  0  0
 42 66  1  0  0  0  0
 43 69  1  0  0  0  0
 44 65  1  0  0  0  0
 45 63  1  0  0  0  0
 46 55  1  0  0  0  0
 47 57  1  0  0  0  0
 48 58  1  0  0  0  0
 49 58  1  0  0  0  0
 50 58  1  0  0  0  0
 51 71  1  0  0  0  0
 52 72  1  0  0  0  0
 53 54  1  0  0  0  0
 53 64  1  0  0  0  0
 54 79  1  0  0  0  0
 55 71  1  0  0  0  0
 56 58  1  0  0  0  0
 56 70  1  0  0  0  0
 57 72  1  0  0  0  0
 59 63  1  0  0  0  0
 60 62  2  0  0  0  0
 61 64  1  0  0  0  0
 62 64  1  0  0  0  0
M  CHG  1  72   1
M  ISO  4  33 100  54 101  71 100  79 101
M  END
> <Batch ID>
0057

> <Smiles>
CNC(C)C(=O)NC(C(=O)N1Cc2cc([101O:1][101CH2:1]Cn3nnc(C(C)[100N:0](C)[100C:0](=O)N4CCCC(n5nc(-c6ccc(Oc7ccc(F)cc7F)cc6)c(C(N)=O)c5N)C4)n3)ccc2CC1C(=O)NC1CCCc2ccccc21)C(C)(C)C

> <Shape>
0.285

> <Color>
0.107

> <Negative vol penalty>
0.000

$$$$

  -OEChem-04052317483D

 84 92  0     1  0  0  0  0  0999 V2000
  -30.4472  -24.0055   16.7484 C   0  0  0  0  0  0  0  0  0  0  0  0
  -29.7550  -23.5164   17.8515 C   0  0  0  0  0  0  0  0  0  0  0  0
  -24.6748  -14.0429   19.6218 C   0  0  0  0  0  0  0  0  0  0  0  0
  -24.0649  -15.2328   21.6341 C   0  0  0  0  0  0  0  0  0  0  0  0
  -30.5323  -25.3805   16.5338 C   0  0  0  0  0  0  0  0  0  0  0  0
  -29.1483  -24.4021   18.7414 C   0  0  0  0  0  0  0  0  0  0  0  0
  -24.4630  -22.9669   20.0196 C   0  0  0  0  0  0  0  0  0  0  0  0
  -23.8033  -13.0103   19.9682 C   0  0  0  0  0  0  0  0  0  0  0  0
  -23.1934  -14.2002   21.9805 C   0  0  0  0  0  0  0  0  0  0  0  0
  -24.3445  -21.9482   20.9641 C   0  0  0  0  0  0  0  0  0  0  0  0
  -23.7906  -10.3610   22.0671 C   0  0  0  0  0  0  0  0  0  0  0  0
  -24.2526   -9.0518   21.9333 C   0  0  0  0  0  0  0  0  0  0  0  0
  -23.9092  -23.5927   22.6744 C   0  0  0  0  0  0  0  0  0  0  0  0
  -22.4713   -8.5831   20.3698 C   0  0  0  0  0  0  0  0  0  0  0  0
  -28.2989  -19.9590   25.0409 C   0  0  0  0  0  0  0  0  0  0  0  0
  -24.8056  -15.1541   20.4548 C   0  0  0  0  0  0  0  0  0  0  0  0
  -25.4086  -17.3639   19.3319 C   0  0  0  0  0  0  0  0  0  0  0  0
  -29.9182  -26.2832   17.4162 C   0  0  0  0  0  0  0  0  0  0  0  0
  -24.3161  -24.3091   20.3982 C   0  0  0  0  0  0  0  0  0  0  0  0
  -29.2263  -25.7905   18.5391 C   0  0  0  0  0  0  0  0  0  0  0  0
  -24.0238  -24.6264   21.7324 C   0  0  0  0  0  0  0  0  0  0  0  0
  -23.0626  -13.0890   21.1475 C   0  0  0  0  0  0  0  0  0  0  0  0
  -24.0705  -22.2612   22.2922 C   0  0  0  0  0  0  0  0  0  0  0  0
  -22.6689  -10.7813   21.3524 C   0  0  0  0  0  0  0  0  0  0  0  0
  -23.5929   -8.1628   21.0846 C   0  0  0  0  0  0  0  0  0  0  0  0
  -22.0093   -9.8924   20.5037 C   0  0  0  0  0  0  0  0  0  0  0  0
  -25.7061  -16.2208   20.0978 C   0  0  0  0  0  0  0  0  0  0  0  0
  -27.2125  -20.7496   24.7260 C   0  0  0  0  0  0  0  0  0  0  0  0
  -29.5059  -20.3632   24.5079 C   0  0  0  0  0  0  0  0  0  0  0  0
  -26.5916  -18.0598   19.2799 C   0  0  0  0  0  0  0  0  0  0  0  0
  -28.5193  -22.1416   23.4924 C   0  0  0  0  0  0  0  0  0  0  0  0
  -24.1733  -17.7612   18.7220 C   0  0  0  0  0  0  0  0  0  0  0  0
  -26.2020  -26.8676   20.3684 C   0  0  0  0  0  0  0  0  0  0  0  0
  -23.4963  -28.3907   21.3075 C   0  0  0  0  0  0  0  0  0  0  0  0
  -20.4335  -28.1995   22.8006 C   0  0  0  0  0  0  0  0  0  0  0  0
  -31.3467  -18.3513   22.7413 C   0  0  0  0  0  0  0  0  0  0  0  0
  -30.0775  -27.7624   17.1688 C   0  0  0  0  0  0  0  0  0  0  0  0
  -24.4204  -25.3947   19.3623 C   0  0  0  0  0  0  0  0  0  0  0  0
  -23.8369  -26.0504   22.1863 C   0  0  0  0  0  0  0  0  0  0  0  0
  -29.0890  -28.6212   17.9534 C   0  0  0  0  0  0  0  0  0  0  0  0
  -31.3245  -17.4324   19.3974 C   0  0  0  0  0  0  0  0  0  0  0  0
  -29.0253  -28.1674   19.4084 C   0  0  0  0  0  0  0  0  0  0  0  0
  -29.8559  -17.1223   19.1113 C   0  0  0  0  0  0  0  0  0  0  0  0
  -31.7345  -16.9078   20.7684 C   0  0  0  0  0  0  0  0  0  0  0  0
  -29.4222  -17.1337   21.6190 C   0  0  0  0  0  0  0  0  0  0  0  0
  -28.5339  -26.7186   19.5134 C   0  0  1  0  0  0  0  0  0  0  0  0
  -24.7610  -26.7576   19.9573 C   0  0  1  0  0  0  0  0  0  0  0  0
  -28.9519  -17.6445   20.2416 C   0  0  2  0  0  0  0  0  0  0  0  0
  -28.6431  -23.3557   22.6353 C   0  0  0  0  0  0  0  0  0  0  0  0
  -31.6970  -16.6984   25.6336 C   0  0  0  0  0  0  0  0  0  0  0  0
  -18.4697  -29.6176   23.4563 C   0  0  0  0  0  0  0  0  0  0  0  0
  -25.0891  -29.5046   23.6595 C   0  0  0  0  0  0  0  0  0  0  0  0
  -22.9190  -30.0981   24.7580 C   0  0  0  0  0  0  0  0  0  0  0  0
  -23.5392  -31.1435   22.5797 C   0  0  0  0  0  0  0  0  0  0  0  0
  -18.5937  -26.6560   21.0710 C   0  0  0  0  0  0  0  0  0  0  0  0
  -25.8504  -20.3887   25.2627 C   0  0  0  0  0  0  0  0  0  0  0  0
  -30.7379  -19.5719   24.7949 C   0  0  0  0  0  0  0  0  0  0  0  0
  -25.0534  -19.4590   24.3452 C   0  0  0  0  0  0  0  0  0  0  0  0
  -30.5122  -17.1151   24.7859 C   0  0  0  0  0  0  0  0  0  0  0  0
  -24.7189  -20.0839   22.9957 C   0  0  0  0  0  0  0  0  0  1  0  0
  -22.8557  -28.7101   22.6366 C   0  0  1  0  0  0  0  0  0  0  0  0
  -19.0736  -28.7278   22.3810 C   0  0  2  0  0  0  0  0  0  0  0  0
  -23.6061  -29.8372   23.4006 C   0  0  0  0  0  0  0  0  0  0  0  0
  -26.9783  -16.1884   20.5031 N   0  0  0  0  0  0  0  0  0  0  0  0
  -27.2870  -21.8520   23.9517 N   0  0  0  0  0  0  0  0  0  0  0  0
  -29.6529  -21.4533   23.7265 N   0  0  0  0  0  0  0  0  0  0  0  0
  -27.4908  -17.3198   19.9899 N   0  0  0  0  0  0  0  0  0  0  0  0
  -23.9548  -27.0767   21.1373 N   0  0  0  0  0  0  0  0  0  0  0  0
  -30.8516  -17.4195   21.8169 N   0  0  0  0  0  0  0  0  0  0  0  0
  -26.9400  -19.2263   18.6966 N   0  0  0  0  0  0  0  0  0  0  0  0
  -23.0553  -16.9297   18.8740 N   0  0  0  0  0  0  0  0  0  0  0  0
  -27.0986  -26.6578   19.3381 N   0  0  0  0  0  0  0  0  0  0  0  0
  -21.4561  -29.0094   22.3537 N   0  0  0  0  0  0  0  0  0  0  0  0
  -30.7910  -18.3344   24.0295 N   0  0  0  0  0  0  0  0  0  0  0  0
  -18.1359  -27.5983   22.1243 N   0  3  0  0  0  0  0  0  0  0  0  0
  -24.0683  -18.8139   18.0481 O   0  0  0  0  0  0  0  0  0  0  0  0
  -26.4799  -27.1254   21.5338 O   0  0  0  0  0  0  0  0  0  0  0  0
  -23.5803  -29.2727   20.4491 O   0  0  0  0  0  0  0  0  0  0  0  0
  -20.5744  -27.1733   23.4621 O   0  0  0  0  0  0  0  0  0  0  0  0
  -32.2416  -19.1501   22.4359 O   0  0  0  0  0  0  0  0  0  0  0  0
  -22.2119  -12.0818   21.4858 O   0  0  0  0  0  0  0  0  0  0  0  0
  -23.9549  -21.2688   23.2162 O   0  0  0  0  0  0  0  0  0  1  0  0
  -24.0376   -6.9059   20.9550 F   0  0  0  0  0  0  0  0  0  0  0  0
  -20.9318  -10.2907   19.8136 F   0  0  0  0  0  0  0  0  0  0  0  0
  1  2  1  0  0  0  0
  1  5  2  0  0  0  0
  2  6  2  0  0  0  0
  3  8  2  0  0  0  0
  3 16  1  0  0  0  0
  4  9  1  0  0  0  0
  4 16  2  0  0  0  0
  5 18  1  0  0  0  0
  6 20  1  0  0  0  0
  7 10  2  0  0  0  0
  7 19  1  0  0  0  0
  8 22  1  0  0  0  0
  9 22  2  0  0  0  0
 10 23  1  0  0  0  0
 11 12  2  0  0  0  0
 11 24  1  0  0  0  0
 12 25  1  0  0  0  0
 13 21  1  0  0  0  0
 13 23  2  0  0  0  0
 14 25  2  0  0  0  0
 14 26  1  0  0  0  0
 15 28  2  0  0  0  0
 15 29  1  0  0  0  0
 16 27  1  0  0  0  0
 17 27  1  0  0  0  0
 17 30  2  0  0  0  0
 17 32  1  0  0  0  0
 18 20  2  0  0  0  0
 18 37  1  0  0  0  0
 19 21  2  0  0  0  0
 19 38  1  0  0  0  0
 20 46  1  0  0  0  0
 21 39  1  0  0  0  0
 22 81  1  0  0  0  0
 23 82  1  0  0  0  0
 24 26  2  0  0  0  0
 24 81  1  0  0  0  0
 25 83  1  0  0  0  0
 26 84  1  0  0  0  0
 27 64  2  0  0  0  0
 28 56  1  0  0  0  0
 28 65  1  0  0  0  0
 29 57  1  0  0  0  0
 29 66  2  0  0  0  0
 30 67  1  0  0  0  0
 30 70  1  0  0  0  0
 31 49  1  0  0  0  0
 31 65  2  0  0  0  0
 31 66  1  0  0  0  0
 32 71  1  0  0  0  0
 32 76  2  0  0  0  0
 33 47  1  0  0  0  0
 33 72  1  0  0  0  0
 33 77  2  0  0  0  0
 34 61  1  0  0  0  0
 34 68  1  0  0  0  0
 34 78  2  0  0  0  0
 35 62  1  0  0  0  0
 35 73  1  0  0  0  0
 35 79  2  0  0  0  0
 36 69  1  0  0  0  0
 36 74  1  0  0  0  0
 36 80  2  0  0  0  0
 37 40  1  0  0  0  0
 38 47  1  0  0  0  0
 39 68  1  0  0  0  0
 40 42  1  0  0  0  0
 41 43  1  0  0  0  0
 41 44  1  0  0  0  0
 42 46  1  0  0  0  0
 43 48  1  0  0  0  0
 44 69  1  0  0  0  0
 45 48  1  0  0  0  0
 45 69  1  0  0  0  0
 46 72  1  0  0  0  0
 47 68  1  0  0  0  0
 48 67  1  0  0  0  0
 50 59  1  0  0  0  0
 51 62  1  0  0  0  0
 52 63  1  0  0  0  0
 53 63  1  0  0  0  0
 54 63  1  0  0  0  0
 55 75  1  0  0  0  0
 56 58  1  0  0  0  0
 57 74  1  0  0  0  0
 58 60  1  0  0  0  0
 59 74  1  0  0  0  0
 60 82  1  0  0  0  0
 61 63  1  0  0  0  0
 61 73  1  0  0  0  0
 62 75  1  0  0  0  0
 64 67  1  0  0  0  0
M  CHG  1  75   1
M  ISO  4  36 100  60 101  74 100  82 101
M  END
> <Batch ID>
0057

> <Smiles>
CC[100N:0](Cc1cc(CC[101CH2:1][101O:1]c2ccc3c(c2)CN(C(=O)C(NC(=O)C(C)NC)C(C)(C)C)C(C(=O)NC2CCCc4ccccc42)C3)nc(C)n1)[100C:0](=O)N1CCCC(n2nc(-c3ccc(Oc4ccc(F)cc4F)cc3)c(C(N)=O)c2N)C1

> <Shape>
0.239

> <Color>
0.035

> <Negative vol penalty>
0.000

$$$$

  -OEChem-04052317483D

 82 90  0     1  0  0  0  0  0999 V2000
  -21.9171  -11.6593   19.7192 C   0  0  0  0  0  0  0  0  0  0  0  0
  -21.7187  -12.9239   20.2641 C   0  0  0  0  0  0  0  0  0  0  0  0
  -24.9020  -27.1800   19.4008 C   0  0  0  0  0  0  0  0  0  0  0  0
  -25.1830  -25.4162   21.0278 C   0  0  0  0  0  0  0  0  0  0  0  0
  -23.2000  -11.1155   19.6716 C   0  0  0  0  0  0  0  0  0  0  0  0
  -22.8031  -13.6449   20.7628 C   0  0  0  0  0  0  0  0  0  0  0  0
  -22.7431  -18.4961   19.3113 C   0  0  0  0  0  0  0  0  0  0  0  0
  -26.2862  -27.3373   19.3323 C   0  0  0  0  0  0  0  0  0  0  0  0
  -26.5673  -25.5735   20.9593 C   0  0  0  0  0  0  0  0  0  0  0  0
  -21.8732  -19.3518   19.9857 C   0  0  0  0  0  0  0  0  0  0  0  0
  -29.7328  -28.4477   18.9976 C   0  0  0  0  0  0  0  0  0  0  0  0
  -30.2413  -29.7463   19.0206 C   0  0  0  0  0  0  0  0  0  0  0  0
  -23.7125  -20.1589   21.3217 C   0  0  0  0  0  0  0  0  0  0  0  0
  -29.2308  -30.1037   21.1858 C   0  0  0  0  0  0  0  0  0  0  0  0
  -19.9057  -20.7714   25.4820 C   0  0  0  0  0  0  0  0  0  0  0  0
  -24.3503  -26.2194   20.2486 C   0  0  0  0  0  0  0  0  0  0  0  0
  -22.1214  -25.2046   19.5347 C   0  0  0  0  0  0  0  0  0  0  0  0
  -24.3020  -11.8342   20.1612 C   0  0  0  0  0  0  0  0  0  0  0  0
  -24.1046  -18.4575   19.6450 C   0  0  0  0  0  0  0  0  0  0  0  0
  -24.1017  -13.1096   20.7230 C   0  0  0  0  0  0  0  0  0  0  0  0
  -24.5981  -19.3037   20.6482 C   0  0  0  0  0  0  0  0  0  0  0  0
  -27.1189  -26.5341   20.1115 C   0  0  0  0  0  0  0  0  0  0  0  0
  -22.3574  -20.1813   20.9930 C   0  0  0  0  0  0  0  0  0  0  0  0
  -28.9732  -27.9770   20.0687 C   0  0  0  0  0  0  0  0  0  0  0  0
  -29.9903  -30.5743   20.1147 C   0  0  0  0  0  0  0  0  0  0  0  0
  -28.7222  -28.8050   21.1628 C   0  0  0  0  0  0  0  0  0  0  0  0
  -22.9205  -26.0568   20.3202 C   0  0  0  0  0  0  0  0  0  0  0  0
  -20.8427  -25.4182   19.9883 C   0  0  0  0  0  0  0  0  0  0  0  0
  -19.4248  -21.5641   23.6118 C   0  0  0  0  0  0  0  0  0  0  0  0
  -22.5011  -24.3006   18.4885 C   0  0  0  0  0  0  0  0  0  0  0  0
  -26.0755  -16.2328   20.7720 C   0  0  0  0  0  0  0  0  0  0  0  0
  -28.3208  -18.5172   20.2594 C   0  0  0  0  0  0  0  0  0  0  0  0
  -29.0558  -21.8324   19.9190 C   0  0  0  0  0  0  0  0  0  0  0  0
  -19.0472  -27.6438   25.4069 C   0  0  0  0  0  0  0  0  0  0  0  0
  -25.6632  -11.1854   20.1312 C   0  0  0  0  0  0  0  0  0  0  0  0
  -25.0347  -17.5481   18.8898 C   0  0  0  0  0  0  0  0  0  0  0  0
  -26.0549  -19.3149   21.0305 C   0  0  0  0  0  0  0  0  0  0  0  0
  -26.8116  -12.1692   20.3395 C   0  0  0  0  0  0  0  0  0  0  0  0
  -18.0825  -28.7541   22.0101 C   0  0  0  0  0  0  0  0  0  0  0  0
  -26.5142  -13.0961   21.5139 C   0  0  0  0  0  0  0  0  0  0  0  0
  -19.1940  -28.1693   21.1403 C   0  0  0  0  0  0  0  0  0  0  0  0
  -18.5638  -29.0394   23.4295 C   0  0  0  0  0  0  0  0  0  0  0  0
  -20.2896  -27.2794   23.2351 C   0  0  0  0  0  0  0  0  0  0  0  0
  -25.2563  -13.9329   21.2515 C   0  0  1  0  0  0  0  0  0  0  0  0
  -26.3081  -17.2199   19.6633 C   0  0  1  0  0  0  0  0  0  0  0  0
  -19.8250  -26.9370   21.8116 C   0  0  2  0  0  0  0  0  0  0  0  0
  -30.9841  -23.3944   19.5455 C   0  0  0  0  0  0  0  0  0  0  0  0
  -29.1786  -18.1489   23.1643 C   0  0  0  0  0  0  0  0  0  0  0  0
  -30.4041  -20.3263   23.0056 C   0  0  0  0  0  0  0  0  0  0  0  0
  -31.0658  -18.4153   21.5451 C   0  0  0  0  0  0  0  0  0  0  0  0
  -18.8851  -26.0310   27.2649 C   0  0  0  0  0  0  0  0  0  0  0  0
  -27.9011  -22.8381   17.3864 C   0  0  0  0  0  0  0  0  0  0  0  0
  -19.3324  -21.9339   22.1513 C   0  0  0  0  0  0  0  0  0  0  0  0
  -17.7020  -24.3009   25.2818 C   0  0  0  0  0  0  0  0  0  0  0  0
  -17.5475  -23.0520   24.4035 C   0  0  0  0  0  0  0  0  0  0  0  0
  -18.9250  -25.1565   24.9585 C   0  0  0  0  0  0  0  0  0  0  0  0
  -20.1381  -20.9924   21.2627 C   0  0  0  0  0  0  0  0  0  1  0  0
  -28.9061  -19.6434   21.0767 C   0  0  1  0  0  0  0  0  0  0  0  0
  -29.8809  -22.5805   18.8874 C   0  0  2  0  0  0  0  0  0  0  0  0
  -29.8608  -19.1321   22.1923 C   0  0  0  0  0  0  0  0  0  0  0  0
  -20.2634  -20.7191   24.1652 N   0  0  0  0  0  0  0  0  0  0  0  0
  -18.8984  -21.5956   25.7781 N   0  0  0  0  0  0  0  0  0  0  0  0
  -22.2090  -26.7595   21.2056 N   0  0  0  0  0  0  0  0  0  0  0  0
  -20.9494  -26.3493   20.9792 N   0  0  0  0  0  0  0  0  0  0  0  0
  -18.6092  -22.0898   24.5648 N   0  0  0  0  0  0  0  0  0  0  0  0
  -26.9234  -18.4034   20.2673 N   0  0  0  0  0  0  0  0  0  0  0  0
  -19.1978  -27.8643   24.0279 N   0  0  0  0  0  0  0  0  0  0  0  0
  -19.6488  -24.8985   19.6323 N   0  0  0  0  0  0  0  0  0  0  0  0
  -23.8574  -24.2041   18.1485 N   0  0  0  0  0  0  0  0  0  0  0  0
  -25.5546  -15.0247   20.3496 N   0  0  0  0  0  0  0  0  0  0  0  0
  -29.5326  -20.5552   20.1257 N   0  0  0  0  0  0  0  0  0  0  0  0
  -19.0496  -26.3111   25.8456 N   0  0  0  0  0  0  0  0  0  0  0  0
  -29.0153  -23.5080   18.1054 N   0  3  0  0  0  0  0  0  0  0  0  0
  -21.6606  -23.6115   17.8623 O   0  0  0  0  0  0  0  0  0  0  0  0
  -26.3499  -16.5438   21.9251 O   0  0  0  0  0  0  0  0  0  0  0  0
  -29.0753  -17.7704   19.6312 O   0  0  0  0  0  0  0  0  0  0  0  0
  -28.0877  -22.3324   20.4875 O   0  0  0  0  0  0  0  0  0  0  0  0
  -18.9084  -28.5843   26.1995 O   0  0  0  0  0  0  0  0  0  0  0  0
  -28.4697  -26.6872   20.0447 O   0  0  0  0  0  0  0  0  0  0  0  0
  -21.5103  -21.0170   21.6533 O   0  0  0  0  0  0  0  0  0  1  0  0
  -30.4800  -31.8208   20.1373 F   0  0  0  0  0  0  0  0  0  0  0  0
  -27.9941  -28.3581   22.1952 F   0  0  0  0  0  0  0  0  0  0  0  0
  1  2  1  0  0  0  0
  1  5  2  0  0  0  0
  2  6  2  0  0  0  0
  3  8  2  0  0  0  0
  3 16  1  0  0  0  0
  4  9  1  0  0  0  0
  4 16  2  0  0  0  0
  5 18  1  0  0  0  0
  6 20  1  0  0  0  0
  7 10  2  0  0  0  0
  7 19  1  0  0  0  0
  8 22  1  0  0  0  0
  9 22  2  0  0  0  0
 10 23  1  0  0  0  0
 11 12  2  0  0  0  0
 11 24  1  0  0  0  0
 12 25  1  0  0  0  0
 13 21  1  0  0  0  0
 13 23  2  0  0  0  0
 14 25  2  0  0  0  0
 14 26  1  0  0  0  0
 15 61  1  0  0  0  0
 15 62  2  0  0  0  0
 16 27  1  0  0  0  0
 17 27  1  0  0  0  0
 17 28  2  0  0  0  0
 17 30  1  0  0  0  0
 18 20  2  0  0  0  0
 18 35  1  0  0  0  0
 19 21  2  0  0  0  0
 19 36  1  0  0  0  0
 20 44  1  0  0  0  0
 21 37  1  0  0  0  0
 22 79  1  0  0  0  0
 23 80  1  0  0  0  0
 24 26  2  0  0  0  0
 24 79  1  0  0  0  0
 25 81  1  0  0  0  0
 26 82  1  0  0  0  0
 27 63  2  0  0  0  0
 28 64  1  0  0  0  0
 28 68  1  0  0  0  0
 29 53  1  0  0  0  0
 29 61  2  0  0  0  0
 29 65  1  0  0  0  0
 30 69  1  0  0  0  0
 30 74  2  0  0  0  0
 31 45  1  0  0  0  0
 31 70  1  0  0  0  0
 31 75  2  0  0  0  0
 32 58  1  0  0  0  0
 32 66  1  0  0  0  0
 32 76  2  0  0  0  0
 33 59  1  0  0  0  0
 33 71  1  0  0  0  0
 33 77  2  0  0  0  0
 34 67  1  0  0  0  0
 34 72  1  0  0  0  0
 34 78  2  0  0  0  0
 35 38  1  0  0  0  0
 36 45  1  0  0  0  0
 37 66  1  0  0  0  0
 38 40  1  0  0  0  0
 39 41  1  0  0  0  0
 39 42  1  0  0  0  0
 40 44  1  0  0  0  0
 41 46  1  0  0  0  0
 42 67  1  0  0  0  0
 43 46  1  0  0  0  0
 43 67  1  0  0  0  0
 44 70  1  0  0  0  0
 45 66  1  0  0  0  0
 46 64  1  0  0  0  0
 47 59  1  0  0  0  0
 48 60  1  0  0  0  0
 49 60  1  0  0  0  0
 50 60  1  0  0  0  0
 51 72  1  0  0  0  0
 52 73  1  0  0  0  0
 53 57  1  0  0  0  0
 54 55  1  0  0  0  0
 54 56  1  0  0  0  0
 55 65  1  0  0  0  0
 56 72  1  0  0  0  0
 57 80  1  0  0  0  0
 58 60  1  0  0  0  0
 58 71  1  0  0  0  0
 59 73  1  0  0  0  0
 62 65  1  0  0  0  0
 63 64  1  0  0  0  0
M  CHG  1  73   1
M  ISO  4  34 100  57 101  72 100  80 101
M  END
> <Batch ID>
0057

> <Smiles>
CNC(C)C(=O)NC(C(=O)N1Cc2cc([101O:1][101CH2:1]Cc3ncnn3CCC[100N:0](C)[100C:0](=O)N3CCCC(n4nc(-c5ccc(Oc6ccc(F)cc6F)cc5)c(C(N)=O)c4N)C3)ccc2CC1C(=O)NC1CCCc2ccccc21)C(C)(C)C

> <Shape>
0.196

> <Color>
0.078

> <Negative vol penalty>
0.000

$$$$

  -OEChem-04052317483D

 83 91  0     1  0  0  0  0  0999 V2000
  -16.7178  -29.2724   23.8418 C   0  0  0  0  0  0  0  0  0  0  0  0
  -17.2620  -28.0001   23.9847 C   0  0  0  0  0  0  0  0  0  0  0  0
  -24.4097   -9.8886   21.9507 C   0  0  0  0  0  0  0  0  0  0  0  0
  -24.4897  -11.1360   24.0183 C   0  0  0  0  0  0  0  0  0  0  0  0
  -17.4713  -30.2902   23.2585 C   0  0  0  0  0  0  0  0  0  0  0  0
  -18.5597  -27.7445   23.5432 C   0  0  0  0  0  0  0  0  0  0  0  0
  -24.3059  -23.7628   25.1066 C   0  0  0  0  0  0  0  0  0  0  0  0
  -23.9589   -8.7661   22.6453 C   0  0  0  0  0  0  0  0  0  0  0  0
  -24.0388  -10.0135   24.7129 C   0  0  0  0  0  0  0  0  0  0  0  0
  -25.1929  -22.8697   24.5071 C   0  0  0  0  0  0  0  0  0  0  0  0
  -21.0481   -7.6500   23.9548 C   0  0  0  0  0  0  0  0  0  0  0  0
  -19.9824   -6.9347   23.4088 C   0  0  0  0  0  0  0  0  0  0  0  0
  -26.4295  -24.7252   23.5867 C   0  0  0  0  0  0  0  0  0  0  0  0
  -21.3732   -4.9635   23.2767 C   0  0  0  0  0  0  0  0  0  0  0  0
  -28.9296  -21.5847   20.4730 C   0  0  0  0  0  0  0  0  0  0  0  0
  -29.8857  -21.1897   22.5673 C   0  0  0  0  0  0  0  0  0  0  0  0
  -24.6751  -11.0735   22.6372 C   0  0  0  0  0  0  0  0  0  0  0  0
  -24.3554  -13.2465   21.3397 C   0  0  0  0  0  0  0  0  0  0  0  0
  -18.7824  -30.0494   22.8184 C   0  0  0  0  0  0  0  0  0  0  0  0
  -24.4680  -25.1458   24.9414 C   0  0  0  0  0  0  0  0  0  0  0  0
  -19.3310  -28.7596   22.9522 C   0  0  0  0  0  0  0  0  0  0  0  0
  -25.5447  -25.6338   24.1873 C   0  0  0  0  0  0  0  0  0  0  0  0
  -29.0060  -21.9322   21.8063 C   0  0  0  0  0  0  0  0  0  0  0  0
  -23.7734   -8.8286   24.0264 C   0  0  0  0  0  0  0  0  0  0  0  0
  -26.2532  -23.3508   23.7446 C   0  0  0  0  0  0  0  0  0  0  0  0
  -22.2765   -7.0222   24.1616 C   0  0  0  0  0  0  0  0  0  0  0  0
  -20.1449   -5.5914   23.0698 C   0  0  0  0  0  0  0  0  0  0  0  0
  -22.4390   -5.6790   23.8226 C   0  0  0  0  0  0  0  0  0  0  0  0
  -25.1414  -12.2332   21.9204 C   0  0  0  0  0  0  0  0  0  0  0  0
  -25.2661  -14.1113   20.7837 C   0  0  0  0  0  0  0  0  0  0  0  0
  -30.4735  -19.9414   20.7609 C   0  0  0  0  0  0  0  0  0  0  0  0
  -22.9295  -13.3929   21.3059 C   0  0  0  0  0  0  0  0  0  0  0  0
  -22.7213  -27.4717   23.6596 C   0  0  0  0  0  0  0  0  0  0  0  0
  -25.0594  -29.3652   24.8722 C   0  0  0  0  0  0  0  0  0  0  0  0
  -28.2907  -29.6615   25.9293 C   0  0  0  0  0  0  0  0  0  0  0  0
  -29.7903  -17.0219   20.9288 C   0  0  0  0  0  0  0  0  0  0  0  0
  -19.5413  -31.1689   22.1511 C   0  0  0  0  0  0  0  0  0  0  0  0
  -23.5181  -26.0967   25.6167 C   0  0  0  0  0  0  0  0  0  0  0  0
  -25.7745  -27.1099   23.9960 C   0  0  0  0  0  0  0  0  0  0  0  0
  -21.0426  -30.9118   22.0503 C   0  0  0  0  0  0  0  0  0  0  0  0
  -30.2348  -13.6376   20.0227 C   0  0  0  0  0  0  0  0  0  0  0  0
  -21.3092  -29.4983   21.5427 C   0  0  0  0  0  0  0  0  0  0  0  0
  -28.8782  -13.0431   20.3983 C   0  0  0  0  0  0  0  0  0  0  0  0
  -30.7175  -14.6625   21.0507 C   0  0  0  0  0  0  0  0  0  0  0  0
  -28.3803  -15.1409   21.7072 C   0  0  0  0  0  0  0  0  0  0  0  0
  -20.7441  -28.4496   22.5083 C   0  0  1  0  0  0  0  0  0  0  0  0
  -23.4793  -27.4716   24.9569 C   0  0  1  0  0  0  0  0  0  0  0  0
  -27.8447  -14.1525   20.6599 C   0  0  2  0  0  0  0  0  0  0  0  0
  -34.5182  -16.1563   21.8145 C   0  0  0  0  0  0  0  0  0  0  0  0
  -31.0401  -18.6351   18.6790 C   0  0  0  0  0  0  0  0  0  0  0  0
  -29.9228  -31.3420   26.8291 C   0  0  0  0  0  0  0  0  0  0  0  0
  -25.3760  -30.5499   22.0782 C   0  0  0  0  0  0  0  0  0  0  0  0
  -27.5834  -31.4847   22.8006 C   0  0  0  0  0  0  0  0  0  0  0  0
  -25.4879  -32.2185   23.9377 C   0  0  0  0  0  0  0  0  0  0  0  0
  -28.6423  -28.1451   28.4464 C   0  0  0  0  0  0  0  0  0  0  0  0
  -28.1840  -23.0432   22.3905 C   0  0  0  0  0  0  0  0  0  1  0  0
  -33.3710  -16.6332   20.9348 C   0  0  0  0  0  0  0  0  0  0  0  0
  -32.1838  -17.1458   21.7414 C   0  0  0  0  0  0  0  0  0  0  0  0
  -31.2864  -18.8335   20.1818 C   0  0  2  0  0  0  0  0  0  0  0  0
  -26.3799  -29.8916   24.3640 C   0  0  1  0  0  0  0  0  0  0  0  0
  -28.8889  -30.2829   27.1785 C   0  0  2  0  0  0  0  0  0  0  0  0
  -26.2016  -31.0083   23.2969 C   0  0  0  0  0  0  0  0  0  0  0  0
  -29.6516  -20.5910   19.9148 N   0  0  0  0  0  0  0  0  0  0  0  0
  -30.6378  -20.1834   22.0754 N   0  0  0  0  0  0  0  0  0  0  0  0
  -26.4507  -12.4342   21.7490 N   0  0  0  0  0  0  0  0  0  0  0  0
  -26.4944  -13.5838   21.0543 N   0  0  0  0  0  0  0  0  0  0  0  0
  -24.8150  -27.9993   24.6711 N   0  0  0  0  0  0  0  0  0  0  0  0
  -29.6840  -15.6751   21.3059 N   0  0  0  0  0  0  0  0  0  0  0  0
  -25.1280  -15.2639   20.0945 N   0  0  0  0  0  0  0  0  0  0  0  0
  -22.1424  -12.4133   21.9265 N   0  0  0  0  0  0  0  0  0  0  0  0
  -21.6137  -28.2980   23.6551 N   0  0  0  0  0  0  0  0  0  0  0  0
  -27.1348  -30.3056   25.5418 N   0  0  0  0  0  0  0  0  0  0  0  0
  -31.0776  -17.5782   20.8895 N   0  0  0  0  0  0  0  0  0  0  0  0
  -29.5492  -29.2383   28.0114 N   0  3  0  0  0  0  0  0  0  0  0  0
  -22.3695  -14.3551   20.7280 O   0  0  0  0  0  0  0  0  0  0  0  0
  -23.1132  -26.7749   22.7308 O   0  0  0  0  0  0  0  0  0  0  0  0
  -24.2768  -30.1360   25.4334 O   0  0  0  0  0  0  0  0  0  0  0  0
  -28.8001  -28.7031   25.3527 O   0  0  0  0  0  0  0  0  0  0  0  0
  -28.7893  -17.6945   20.6498 O   0  0  0  0  0  0  0  0  0  0  0  0
  -23.3333   -7.7336   24.7045 O   0  0  0  0  0  0  0  0  0  0  0  0
  -27.1201  -22.4812   23.1578 O   0  0  0  0  0  0  0  0  0  1  0  0
  -19.1210   -4.9042   22.5470 F   0  0  0  0  0  0  0  0  0  0  0  0
  -23.6163   -5.0700   24.0201 F   0  0  0  0  0  0  0  0  0  0  0  0
  1  2  1  0  0  0  0
  1  5  2  0  0  0  0
  2  6  2  0  0  0  0
  3  8  2  0  0  0  0
  3 17  1  0  0  0  0
  4  9  1  0  0  0  0
  4 17  2  0  0  0  0
  5 19  1  0  0  0  0
  6 21  1  0  0  0  0
  7 10  2  0  0  0  0
  7 20  1  0  0  0  0
  8 24  1  0  0  0  0
  9 24  2  0  0  0  0
 10 25  1  0  0  0  0
 11 12  2  0  0  0  0
 11 26  1  0  0  0  0
 12 27  1  0  0  0  0
 13 22  1  0  0  0  0
 13 25  2  0  0  0  0
 14 27  2  0  0  0  0
 14 28  1  0  0  0  0
 15 23  1  0  0  0  0
 15 63  2  0  0  0  0
 16 23  2  0  0  0  0
 16 64  1  0  0  0  0
 17 29  1  0  0  0  0
 18 29  1  0  0  0  0
 18 30  2  0  0  0  0
 18 32  1  0  0  0  0
 19 21  2  0  0  0  0
 19 37  1  0  0  0  0
 20 22  2  0  0  0  0
 20 38  1  0  0  0  0
 21 46  1  0  0  0  0
 22 39  1  0  0  0  0
 23 56  1  0  0  0  0
 24 80  1  0  0  0  0
 25 81  1  0  0  0  0
 26 28  2  0  0  0  0
 26 80  1  0  0  0  0
 27 82  1  0  0  0  0
 28 83  1  0  0  0  0
 29 65  2  0  0  0  0
 30 66  1  0  0  0  0
 30 69  1  0  0  0  0
 31 59  1  0  0  0  0
 31 63  1  0  0  0  0
 31 64  2  0  0  0  0
 32 70  1  0  0  0  0
 32 75  2  0  0  0  0
 33 47  1  0  0  0  0
 33 71  1  0  0  0  0
 33 76  2  0  0  0  0
 34 60  1  0  0  0  0
 34 67  1  0  0  0  0
 34 77  2  0  0  0  0
 35 61  1  0  0  0  0
 35 72  1  0  0  0  0
 35 78  2  0  0  0  0
 36 68  1  0  0  0  0
 36 73  1  0  0  0  0
 36 79  2  0  0  0  0
 37 40  1  0  0  0  0
 38 47  1  0  0  0  0
 39 67  1  0  0  0  0
 40 42  1  0  0  0  0
 41 43  1  0  0  0  0
 41 44  1  0  0  0  0
 42 46  1  0  0  0  0
 43 48  1  0  0  0  0
 44 68  1  0  0  0  0
 45 48  1  0  0  0  0
 45 68  1  0  0  0  0
 46 71  1  0  0  0  0
 47 67  1  0  0  0  0
 48 66  1  0  0  0  0
 49 57  1  0  0  0  0
 50 59  1  0  0  0  0
 51 61  1  0  0  0  0
 52 62  1  0  0  0  0
 53 62  1  0  0  0  0
 54 62  1  0  0  0  0
 55 74  1  0  0  0  0
 56 81  1  0  0  0  0
 57 58  1  0  0  0  0
 58 73  1  0  0  0  0
 59 73  1  0  0  0  0
 60 62  1  0  0  0  0
 60 72  1  0  0  0  0
 61 74  1  0  0  0  0
 65 66  1  0  0  0  0
M  CHG  1  74   1
M  ISO  4  36 100  56 101  73 100  81 101
M  END
> <Batch ID>
0057

> <Smiles>
CCC[100N:0](C(C)c1ncc([101CH2:1][101O:1]c2ccc3c(c2)CN(C(=O)C(NC(=O)C(C)NC)C(C)(C)C)C(C(=O)NC2CCCc4ccccc42)C3)cn1)[100C:0](=O)N1CCCC(n2nc(-c3ccc(Oc4ccc(F)cc4F)cc3)c(C(N)=O)c2N)C1

> <Shape>
0.273

> <Color>
0.123

> <Negative vol penalty>
0.000

$$$$

  -OEChem-04052317483D

 82 90  0     1  0  0  0  0  0999 V2000
  -21.2652  -30.0114   20.9769 C   0  0  0  0  0  0  0  0  0  0  0  0
  -21.4640  -28.8898   20.1783 C   0  0  0  0  0  0  0  0  0  0  0  0
  -23.8739  -15.5821   23.7053 C   0  0  0  0  0  0  0  0  0  0  0  0
  -25.0410  -13.7269   24.7219 C   0  0  0  0  0  0  0  0  0  0  0  0
  -22.3613  -30.6994   21.4959 C   0  0  0  0  0  0  0  0  0  0  0  0
  -22.7592  -28.4562   19.8971 C   0  0  0  0  0  0  0  0  0  0  0  0
  -23.2726  -23.4399   20.3639 C   0  0  0  0  0  0  0  0  0  0  0  0
  -23.5091  -16.0453   24.9694 C   0  0  0  0  0  0  0  0  0  0  0  0
  -24.6762  -14.1901   25.9860 C   0  0  0  0  0  0  0  0  0  0  0  0
  -22.7897  -22.6506   19.3210 C   0  0  0  0  0  0  0  0  0  0  0  0
  -21.9673  -17.5169   27.9158 C   0  0  0  0  0  0  0  0  0  0  0  0
  -20.6469  -17.9258   28.1022 C   0  0  0  0  0  0  0  0  0  0  0  0
  -25.0318  -22.4280   18.4593 C   0  0  0  0  0  0  0  0  0  0  0  0
  -19.8782  -15.7127   27.5120 C   0  0  0  0  0  0  0  0  0  0  0  0
  -26.4088  -17.9169   16.9052 C   0  0  0  0  0  0  0  0  0  0  0  0
  -24.6398  -14.4228   23.5815 C   0  0  0  0  0  0  0  0  0  0  0  0
  -24.1555  -13.5590   21.2306 C   0  0  0  0  0  0  0  0  0  0  0  0
  -23.6703  -30.2683   21.2289 C   0  0  0  0  0  0  0  0  0  0  0  0
  -24.6396  -23.7386   20.4563 C   0  0  0  0  0  0  0  0  0  0  0  0
  -23.8738  -29.1398   20.4118 C   0  0  0  0  0  0  0  0  0  0  0  0
  -25.5299  -23.2191   19.5058 C   0  0  0  0  0  0  0  0  0  0  0  0
  -23.9103  -15.3494   26.1098 C   0  0  0  0  0  0  0  0  0  0  0  0
  -23.6689  -22.1469   18.3669 C   0  0  0  0  0  0  0  0  0  0  0  0
  -22.2433  -16.2059   27.5274 C   0  0  0  0  0  0  0  0  0  0  0  0
  -19.6023  -17.0237   27.9004 C   0  0  0  0  0  0  0  0  0  0  0  0
  -21.1987  -15.3038   27.3255 C   0  0  0  0  0  0  0  0  0  0  0  0
  -25.0164  -13.9435   22.2760 C   0  0  0  0  0  0  0  0  0  0  0  0
  -25.1107  -17.5304   16.6845 C   0  0  0  0  0  0  0  0  0  0  0  0
  -24.9977  -13.1855   20.2120 C   0  0  0  0  0  0  0  0  0  0  0  0
  -22.7226  -13.5412   21.1844 C   0  0  0  0  0  0  0  0  0  0  0  0
  -26.3624  -26.4088   20.3784 C   0  0  0  0  0  0  0  0  0  0  0  0
  -28.7999  -24.3951   21.1036 C   0  0  0  0  0  0  0  0  0  0  0  0
  -30.0531  -21.2214   21.0382 C   0  0  0  0  0  0  0  0  0  0  0  0
  -30.8422  -14.7937   19.3210 C   0  0  0  0  0  0  0  0  0  0  0  0
  -24.8245  -31.0722   21.7731 C   0  0  0  0  0  0  0  0  0  0  0  0
  -25.1483  -24.5693   21.6025 C   0  0  0  0  0  0  0  0  0  0  0  0
  -27.0093  -23.4938   19.5716 C   0  0  0  0  0  0  0  0  0  0  0  0
  -26.1566  -30.3275   21.7359 C   0  0  0  0  0  0  0  0  0  0  0  0
  -29.3578  -11.4039   19.4055 C   0  0  0  0  0  0  0  0  0  0  0  0
  -26.3582  -29.6618   20.3783 C   0  0  0  0  0  0  0  0  0  0  0  0
  -28.0331  -11.6383   20.1295 C   0  0  0  0  0  0  0  0  0  0  0  0
  -30.4204  -12.4149   19.8256 C   0  0  0  0  0  0  0  0  0  0  0  0
  -28.6719  -14.0676   20.3959 C   0  0  0  0  0  0  0  0  0  0  0  0
  -25.2629  -28.6240   20.1047 C   0  0  1  0  0  0  0  0  0  0  0  0
  -26.4888  -25.2356   21.3087 C   0  0  1  0  0  0  0  0  0  0  0  0
  -27.5659  -13.0945   19.9607 C   0  0  2  0  0  0  0  0  0  0  0  0
  -32.0858  -19.8928   21.6707 C   0  0  0  0  0  0  0  0  0  0  0  0
  -30.2886  -25.5303   18.6943 C   0  0  0  0  0  0  0  0  0  0  0  0
  -31.8314  -23.5618   18.8080 C   0  0  0  0  0  0  0  0  0  0  0  0
  -31.7093  -25.1604   20.7190 C   0  0  0  0  0  0  0  0  0  0  0  0
  -31.2348  -16.9370   18.1669 C   0  0  0  0  0  0  0  0  0  0  0  0
  -28.5033  -19.5164   22.8956 C   0  0  0  0  0  0  0  0  0  0  0  0
  -24.1059  -18.0910   15.7100 C   0  0  0  0  0  0  0  0  0  0  0  0
  -23.2563  -19.2260   16.2858 C   0  0  0  0  0  0  0  0  0  0  0  0
  -28.1307  -17.0221   18.5051 C   0  0  0  0  0  0  0  0  0  0  0  0
  -29.0080  -15.8938   17.9689 C   0  0  0  0  0  0  0  0  0  0  0  0
  -24.0845  -20.3888   16.8202 C   0  0  0  0  0  0  0  0  0  1  0  0
  -29.7836  -23.5757   20.3038 C   0  0  1  0  0  0  0  0  0  0  0  0
  -30.7136  -20.3769   22.1129 C   0  0  2  0  0  0  0  0  0  0  0  0
  -30.8751  -24.4533   19.6286 C   0  0  0  0  0  0  0  0  0  0  0  0
  -26.3066  -13.8250   21.9514 N   0  0  0  0  0  0  0  0  0  0  0  0
  -24.7946  -16.4884   17.5114 N   0  0  0  0  0  0  0  0  0  0  0  0
  -25.8654  -16.2122   18.2477 N   0  0  0  0  0  0  0  0  0  0  0  0
  -26.8321  -17.0699   17.8828 N   0  0  0  0  0  0  0  0  0  0  0  0
  -26.2626  -13.3618   20.6906 N   0  0  0  0  0  0  0  0  0  0  0  0
  -27.4572  -24.3164   20.7075 N   0  0  0  0  0  0  0  0  0  0  0  0
  -29.9350  -13.7892   19.6962 N   0  0  0  0  0  0  0  0  0  0  0  0
  -24.7723  -12.7267   18.9625 N   0  0  0  0  0  0  0  0  0  0  0  0
  -22.0555  -12.3764   21.5876 N   0  0  0  0  0  0  0  0  0  0  0  0
  -25.5253  -27.4061   20.8412 N   0  0  0  0  0  0  0  0  0  0  0  0
  -30.3089  -22.5647   21.2151 N   0  0  0  0  0  0  0  0  0  0  0  0
  -30.3312  -15.8761   18.5888 N   0  0  0  0  0  0  0  0  0  0  0  0
  -29.8734  -19.1865   22.4255 N   0  3  0  0  0  0  0  0  0  0  0  0
  -22.0541  -14.5232   20.7815 O   0  0  0  0  0  0  0  0  0  0  0  0
  -26.9797  -26.4097   19.3198 O   0  0  0  0  0  0  0  0  0  0  0  0
  -29.2067  -25.0742   22.0496 O   0  0  0  0  0  0  0  0  0  0  0  0
  -29.3806  -20.7375   20.1303 O   0  0  0  0  0  0  0  0  0  0  0  0
  -32.0424  -14.7222   19.6151 O   0  0  0  0  0  0  0  0  0  0  0  0
  -23.5548  -15.8012   27.3435 O   0  0  0  0  0  0  0  0  0  0  0  0
  -23.2001  -21.3768   17.3475 O   0  0  0  0  0  0  0  0  0  1  0  0
  -18.3344  -17.4161   28.0809 F   0  0  0  0  0  0  0  0  0  0  0  0
  -21.4576  -14.0427   26.9535 F   0  0  0  0  0  0  0  0  0  0  0  0
  1  2  1  0  0  0  0
  1  5  2  0  0  0  0
  2  6  2  0  0  0  0
  3  8  2  0  0  0  0
  3 16  1  0  0  0  0
  4  9  1  0  0  0  0
  4 16  2  0  0  0  0
  5 18  1  0  0  0  0
  6 20  1  0  0  0  0
  7 10  2  0  0  0  0
  7 19  1  0  0  0  0
  8 22  1  0  0  0  0
  9 22  2  0  0  0  0
 10 23  1  0  0  0  0
 11 12  2  0  0  0  0
 11 24  1  0  0  0  0
 12 25  1  0  0  0  0
 13 21  1  0  0  0  0
 13 23  2  0  0  0  0
 14 25  2  0  0  0  0
 14 26  1  0  0  0  0
 15 28  2  0  0  0  0
 15 64  1  0  0  0  0
 16 27  1  0  0  0  0
 17 27  1  0  0  0  0
 17 29  2  0  0  0  0
 17 30  1  0  0  0  0
 18 20  2  0  0  0  0
 18 35  1  0  0  0  0
 19 21  2  0  0  0  0
 19 36  1  0  0  0  0
 20 44  1  0  0  0  0
 21 37  1  0  0  0  0
 22 79  1  0  0  0  0
 23 80  1  0  0  0  0
 24 26  2  0  0  0  0
 24 79  1  0  0  0  0
 25 81  1  0  0  0  0
 26 82  1  0  0  0  0
 27 61  2  0  0  0  0
 28 53  1  0  0  0  0
 28 62  1  0  0  0  0
 29 65  1  0  0  0  0
 29 68  1  0  0  0  0
 30 69  1  0  0  0  0
 30 74  2  0  0  0  0
 31 45  1  0  0  0  0
 31 70  1  0  0  0  0
 31 75  2  0  0  0  0
 32 58  1  0  0  0  0
 32 66  1  0  0  0  0
 32 76  2  0  0  0  0
 33 59  1  0  0  0  0
 33 71  1  0  0  0  0
 33 77  2  0  0  0  0
 34 67  1  0  0  0  0
 34 72  1  0  0  0  0
 34 78  2  0  0  0  0
 35 38  1  0  0  0  0
 36 45  1  0  0  0  0
 37 66  1  0  0  0  0
 38 40  1  0  0  0  0
 39 41  1  0  0  0  0
 39 42  1  0  0  0  0
 40 44  1  0  0  0  0
 41 46  1  0  0  0  0
 42 67  1  0  0  0  0
 43 46  1  0  0  0  0
 43 67  1  0  0  0  0
 44 70  1  0  0  0  0
 45 66  1  0  0  0  0
 46 65  1  0  0  0  0
 47 59  1  0  0  0  0
 48 60  1  0  0  0  0
 49 60  1  0  0  0  0
 50 60  1  0  0  0  0
 51 72  1  0  0  0  0
 52 73  1  0  0  0  0
 53 54  1  0  0  0  0
 54 57  1  0  0  0  0
 55 56  1  0  0  0  0
 55 64  1  0  0  0  0
 56 72  1  0  0  0  0
 57 80  1  0  0  0  0
 58 60  1  0  0  0  0
 58 71  1  0  0  0  0
 59 73  1  0  0  0  0
 61 65  1  0  0  0  0
 62 63  2  0  0  0  0
 63 64  1  0  0  0  0
M  CHG  1  73   1
M  ISO  4  34 100  57 101  72 100  80 101
M  END
> <Batch ID>
0057

> <Smiles>
CNC(C)C(=O)NC(C(=O)N1Cc2cc([101O:1][101CH2:1]CCc3cn(CC[100N:0](C)[100C:0](=O)N4CCCC(n5nc(-c6ccc(Oc7ccc(F)cc7F)cc6)c(C(N)=O)c5N)C4)nn3)ccc2CC1C(=O)NC1CCCc2ccccc21)C(C)(C)C

> <Shape>
0.192

> <Color>
0.108

> <Negative vol penalty>
0.000

$$$$

  -OEChem-04052317483D

 88 96  0     1  0  0  0  0  0999 V2000
  -28.8119  -31.1879   28.3773 C   0  0  0  0  0  0  0  0  0  0  0  0
  -28.7607  -29.7988   28.4331 C   0  0  0  0  0  0  0  0  0  0  0  0
  -24.1256  -15.4868   23.6653 C   0  0  0  0  0  0  0  0  0  0  0  0
  -25.0927  -13.5530   24.7434 C   0  0  0  0  0  0  0  0  0  0  0  0
  -28.2708  -31.8609   27.2826 C   0  0  0  0  0  0  0  0  0  0  0  0
  -28.1675  -29.0818   27.3946 C   0  0  0  0  0  0  0  0  0  0  0  0
  -29.8639  -23.5937   25.2713 C   0  0  0  0  0  0  0  0  0  0  0  0
  -23.7864  -16.0123   24.9120 C   0  0  0  0  0  0  0  0  0  0  0  0
  -24.7536  -14.0786   25.9902 C   0  0  0  0  0  0  0  0  0  0  0  0
  -29.3854  -22.3063   25.5110 C   0  0  0  0  0  0  0  0  0  0  0  0
  -21.3795  -15.5481   27.2392 C   0  0  0  0  0  0  0  0  0  0  0  0
  -20.1001  -16.0829   27.3899 C   0  0  0  0  0  0  0  0  0  0  0  0
  -28.0214  -22.4504   23.5265 C   0  0  0  0  0  0  0  0  0  0  0  0
  -21.0625  -18.2280   27.9464 C   0  0  0  0  0  0  0  0  0  0  0  0
  -24.7786  -14.2571   23.5810 C   0  0  0  0  0  0  0  0  0  0  0  0
  -24.2520  -13.3884   21.2409 C   0  0  0  0  0  0  0  0  0  0  0  0
  -27.6793  -31.1513   26.2257 C   0  0  0  0  0  0  0  0  0  0  0  0
  -29.4158  -24.3245   24.1615 C   0  0  0  0  0  0  0  0  0  0  0  0
  -27.6169  -29.7460   26.2854 C   0  0  0  0  0  0  0  0  0  0  0  0
  -28.4977  -23.7458   23.2736 C   0  0  0  0  0  0  0  0  0  0  0  0
  -24.1004  -15.3083   26.0745 C   0  0  0  0  0  0  0  0  0  0  0  0
  -28.4618  -21.7356   24.6402 C   0  0  0  0  0  0  0  0  0  0  0  0
  -22.5004  -16.3532   27.4421 C   0  0  0  0  0  0  0  0  0  0  0  0
  -19.9416  -17.4229   27.7435 C   0  0  0  0  0  0  0  0  0  0  0  0
  -22.3418  -17.6931   27.7956 C   0  0  0  0  0  0  0  0  0  0  0  0
  -25.1287  -13.7134   22.2934 C   0  0  0  0  0  0  0  0  0  0  0  0
  -25.0710  -12.9124   20.2464 C   0  0  0  0  0  0  0  0  0  0  0  0
  -30.8500  -17.2202   19.7497 C   0  0  0  0  0  0  0  0  0  0  0  0
  -29.8339  -18.8704   20.5255 C   0  0  0  0  0  0  0  0  0  0  0  0
  -22.8250  -13.5064   21.1688 C   0  0  0  0  0  0  0  0  0  0  0  0
  -27.8400  -27.0560   23.7621 C   0  0  0  0  0  0  0  0  0  0  0  0
  -28.4659  -26.5068   20.6270 C   0  0  0  0  0  0  0  0  0  0  0  0
  -29.1862  -24.2526   18.1680 C   0  0  0  0  0  0  0  0  0  0  0  0
  -31.0565  -13.9336   19.4284 C   0  0  0  0  0  0  0  0  0  0  0  0
  -27.0657  -31.9249   25.0856 C   0  0  0  0  0  0  0  0  0  0  0  0
  -29.9619  -25.7018   23.9022 C   0  0  0  0  0  0  0  0  0  0  0  0
  -28.0004  -24.4807   22.0566 C   0  0  0  0  0  0  0  0  0  0  0  0
  -26.7892  -31.0722   23.8500 C   0  0  0  0  0  0  0  0  0  0  0  0
  -29.2527  -10.7040   19.5596 C   0  0  0  0  0  0  0  0  0  0  0  0
  -26.1068  -29.7662   24.2445 C   0  0  0  0  0  0  0  0  0  0  0  0
  -27.9450  -11.0808   20.2537 C   0  0  0  0  0  0  0  0  0  0  0  0
  -30.4004  -11.6184   19.9770 C   0  0  0  0  0  0  0  0  0  0  0  0
  -28.8094  -13.4436   20.4788 C   0  0  0  0  0  0  0  0  0  0  0  0
  -27.0038  -28.9317   25.1668 C   0  0  1  0  0  0  0  0  0  0  0  0
  -29.0480  -26.5515   23.0246 C   0  0  1  0  0  0  0  0  0  0  0  0
  -27.6224  -12.5706   20.0446 C   0  0  2  0  0  0  0  0  0  0  0  0
  -27.6688  -20.0684   20.1209 C   0  0  0  0  0  0  0  0  0  0  0  0
  -29.6041  -24.0978   15.6984 C   0  0  0  0  0  0  0  0  0  0  0  0
  -28.9265  -16.2706   17.4417 C   0  0  0  0  0  0  0  0  0  0  0  0
  -30.4593  -14.6724   16.2501 C   0  0  0  0  0  0  0  0  0  0  0  0
  -25.4766  -26.8232   20.1037 C   0  0  0  0  0  0  0  0  0  0  0  0
  -25.8237  -25.7426   17.8721 C   0  0  0  0  0  0  0  0  0  0  0  0
  -26.9541  -27.9030   18.3991 C   0  0  0  0  0  0  0  0  0  0  0  0
  -27.1564  -17.7350   25.3932 C   0  0  0  0  0  0  0  0  0  0  0  0
  -29.5447  -17.1819   25.8708 C   0  0  0  0  0  0  0  0  0  0  0  0
  -31.9182  -23.1917   18.5794 C   0  0  0  0  0  0  0  0  0  0  0  0
  -31.4175  -16.2831   18.7733 C   0  0  0  0  0  0  0  0  0  0  0  0
  -29.0672  -20.1093   20.7484 C   0  0  0  0  0  0  0  0  0  0  0  0
  -28.8310  -17.9465   23.5480 C   0  0  0  0  0  0  0  0  0  0  0  0
  -30.2185  -18.3419   23.0256 C   0  0  0  0  0  0  0  0  0  0  0  0
  -28.8679  -19.5724   25.5410 C   0  0  0  0  0  0  0  0  0  1  0  0
  -27.7614  -25.7790   19.5077 C   0  0  1  0  0  0  0  0  0  0  0  0
  -30.2366  -24.2588   17.0720 C   0  0  2  0  0  0  0  0  0  0  0  0
  -29.7219  -14.9755   17.5481 C   0  0  0  0  0  0  0  0  0  0  0  0
  -26.5117  -26.5486   18.9946 C   0  0  0  0  0  0  0  0  0  0  0  0
  -28.6180  -18.1209   25.0782 C   0  0  0  0  0  0  0  0  0  0  0  0
  -26.4067  -13.4646   21.9953 N   0  0  0  0  0  0  0  0  0  0  0  0
  -30.1473  -18.3284   19.3716 N   0  0  0  0  0  0  0  0  0  0  0  0
  -30.9909  -17.0424   21.0650 N   0  0  0  0  0  0  0  0  0  0  0  0
  -26.3391  -12.9782   20.7443 N   0  0  0  0  0  0  0  0  0  0  0  0
  -30.3321  -18.1112   21.5381 N   0  0  0  0  0  0  0  0  0  0  0  0
  -28.5592  -25.8270   21.8497 N   0  0  0  0  0  0  0  0  0  0  0  0
  -30.0512  -13.0294   19.8087 N   0  0  0  0  0  0  0  0  0  0  0  0
  -24.8230  -12.4479   19.0034 N   0  0  0  0  0  0  0  0  0  0  0  0
  -22.0428  -12.4205   21.5850 N   0  0  0  0  0  0  0  0  0  0  0  0
  -28.0354  -28.2656   24.4010 N   0  0  0  0  0  0  0  0  0  0  0  0
  -28.7708  -25.5288   18.4845 N   0  0  0  0  0  0  0  0  0  0  0  0
  -30.6637  -15.0422   18.6634 N   0  0  0  0  0  0  0  0  0  0  0  0
  -31.2054  -23.1450   17.2768 N   0  3  0  0  0  0  0  0  0  0  0  0
  -22.2604  -14.5380   20.7322 O   0  0  0  0  0  0  0  0  0  0  0  0
  -26.8066  -26.3974   23.7510 O   0  0  0  0  0  0  0  0  0  0  0  0
  -28.9231  -27.6340   20.4219 O   0  0  0  0  0  0  0  0  0  0  0  0
  -28.7726  -23.2189   18.6884 O   0  0  0  0  0  0  0  0  0  0  0  0
  -32.2393  -13.7547   19.7461 O   0  0  0  0  0  0  0  0  0  0  0  0
  -23.7698  -15.8209   27.2913 O   0  0  0  0  0  0  0  0  0  0  0  0
  -27.9926  -20.4795   24.8722 O   0  0  0  0  0  0  0  0  0  1  0  0
  -18.7129  -17.9368   27.8867 F   0  0  0  0  0  0  0  0  0  0  0  0
  -23.4149  -18.4718   27.9907 F   0  0  0  0  0  0  0  0  0  0  0  0
  1  2  1  0  0  0  0
  1  5  2  0  0  0  0
  2  6  2  0  0  0  0
  3  8  2  0  0  0  0
  3 15  1  0  0  0  0
  4  9  1  0  0  0  0
  4 15  2  0  0  0  0
  5 17  1  0  0  0  0
  6 19  1  0  0  0  0
  7 10  2  0  0  0  0
  7 18  1  0  0  0  0
  8 21  1  0  0  0  0
  9 21  2  0  0  0  0
 10 22  1  0  0  0  0
 11 12  2  0  0  0  0
 11 23  1  0  0  0  0
 12 24  1  0  0  0  0
 13 20  1  0  0  0  0
 13 22  2  0  0  0  0
 14 24  2  0  0  0  0
 14 25  1  0  0  0  0
 15 26  1  0  0  0  0
 16 26  1  0  0  0  0
 16 27  2  0  0  0  0
 16 30  1  0  0  0  0
 17 19  2  0  0  0  0
 17 35  1  0  0  0  0
 18 20  2  0  0  0  0
 18 36  1  0  0  0  0
 19 44  1  0  0  0  0
 20 37  1  0  0  0  0
 21 85  1  0  0  0  0
 22 86  1  0  0  0  0
 23 25  2  0  0  0  0
 23 85  1  0  0  0  0
 24 87  1  0  0  0  0
 25 88  1  0  0  0  0
 26 67  2  0  0  0  0
 27 70  1  0  0  0  0
 27 74  1  0  0  0  0
 28 57  1  0  0  0  0
 28 68  1  0  0  0  0
 28 69  2  0  0  0  0
 29 58  1  0  0  0  0
 29 68  2  0  0  0  0
 29 71  1  0  0  0  0
 30 75  1  0  0  0  0
 30 80  2  0  0  0  0
 31 45  1  0  0  0  0
 31 76  1  0  0  0  0
 31 81  2  0  0  0  0
 32 62  1  0  0  0  0
 32 72  1  0  0  0  0
 32 82  2  0  0  0  0
 33 63  1  0  0  0  0
 33 77  1  0  0  0  0
 33 83  2  0  0  0  0
 34 73  1  0  0  0  0
 34 78  1  0  0  0  0
 34 84  2  0  0  0  0
 35 38  1  0  0  0  0
 36 45  1  0  0  0  0
 37 72  1  0  0  0  0
 38 40  1  0  0  0  0
 39 41  1  0  0  0  0
 39 42  1  0  0  0  0
 40 44  1  0  0  0  0
 41 46  1  0  0  0  0
 42 73  1  0  0  0  0
 43 46  1  0  0  0  0
 43 73  1  0  0  0  0
 44 76  1  0  0  0  0
 45 72  1  0  0  0  0
 46 70  1  0  0  0  0
 47 58  1  0  0  0  0
 48 63  1  0  0  0  0
 49 64  1  0  0  0  0
 50 64  1  0  0  0  0
 51 65  1  0  0  0  0
 52 65  1  0  0  0  0
 53 65  1  0  0  0  0
 54 66  1  0  0  0  0
 55 66  1  0  0  0  0
 56 79  1  0  0  0  0
 57 78  1  0  0  0  0
 59 60  1  0  0  0  0
 59 66  1  0  0  0  0
 60 71  1  0  0  0  0
 61 66  1  0  0  0  0
 61 86  1  0  0  0  0
 62 65  1  0  0  0  0
 62 77  1  0  0  0  0
 63 79  1  0  0  0  0
 64 78  1  0  0  0  0
 67 70  1  0  0  0  0
 69 71  1  0  0  0  0
M  CHG  1  79   1
M  ISO  4  34 100  61 101  78 100  86 101
M  END
> <Batch ID>
0057

> <Smiles>
CCc1nc(C[100N:0](C(C)C)[100C:0](=O)N2CCCC(n3nc(-c4ccc(Oc5ccc(F)cc5F)cc4)c(C(N)=O)c3N)C2)nn1CCC(C)(C)[101CH2:1][101O:1]c1ccc2c(c1)CN(C(=O)C(NC(=O)C(C)NC)C(C)(C)C)C(C(=O)NC1CCCc3ccccc31)C2

> <Shape>
0.210

> <Color>
0.089

> <Negative vol penalty>
0.000

$$$$

  -OEChem-04052317483D

 86 94  0     1  0  0  0  0  0999 V2000
  -20.9459  -17.6666   17.5125 C   0  0  0  0  0  0  0  0  0  0  0  0
  -22.2073  -17.8820   18.0583 C   0  0  0  0  0  0  0  0  0  0  0  0
  -22.8531  -30.5298   20.3562 C   0  0  0  0  0  0  0  0  0  0  0  0
  -22.9186  -29.0651   22.2764 C   0  0  0  0  0  0  0  0  0  0  0  0
  -20.2229  -16.5261   17.8596 C   0  0  0  0  0  0  0  0  0  0  0  0
  -22.7460  -16.9575   18.9525 C   0  0  0  0  0  0  0  0  0  0  0  0
  -27.5993  -15.9007   17.9656 C   0  0  0  0  0  0  0  0  0  0  0  0
  -21.6629  -31.0880   20.8225 C   0  0  0  0  0  0  0  0  0  0  0  0
  -21.7284  -29.6233   22.7428 C   0  0  0  0  0  0  0  0  0  0  0  0
  -28.5499  -16.8363   18.3714 C   0  0  0  0  0  0  0  0  0  0  0  0
  -18.4232  -29.3509   22.0852 C   0  0  0  0  0  0  0  0  0  0  0  0
  -17.4384  -28.4804   22.5521 C   0  0  0  0  0  0  0  0  0  0  0  0
  -29.0363  -15.4906   20.3136 C   0  0  0  0  0  0  0  0  0  0  0  0
  -17.5315  -29.5390   24.7219 C   0  0  0  0  0  0  0  0  0  0  0  0
  -28.2916  -21.6322   21.8659 C   0  0  0  0  0  0  0  0  0  0  0  0
  -23.4809  -29.5183   21.0831 C   0  0  0  0  0  0  0  0  0  0  0  0
  -26.0200  -29.3714   20.8855 C   0  0  0  0  0  0  0  0  0  0  0  0
  -20.7571  -15.5824   18.7510 C   0  0  0  0  0  0  0  0  0  0  0  0
  -27.3518  -14.7565   18.7376 C   0  0  0  0  0  0  0  0  0  0  0  0
  -22.0289  -15.8040   19.3129 C   0  0  0  0  0  0  0  0  0  0  0  0
  -28.0838  -14.5408   19.9140 C   0  0  0  0  0  0  0  0  0  0  0  0
  -28.1254  -22.0297   20.5549 C   0  0  0  0  0  0  0  0  0  0  0  0
  -21.1005  -30.6348   22.0158 C   0  0  0  0  0  0  0  0  0  0  0  0
  -29.2665  -16.6328   19.5471 C   0  0  0  0  0  0  0  0  0  0  0  0
  -18.9622  -30.3154   22.9366 C   0  0  0  0  0  0  0  0  0  0  0  0
  -16.9925  -28.5745   23.8705 C   0  0  0  0  0  0  0  0  0  0  0  0
  -18.5163  -30.4095   24.2549 C   0  0  0  0  0  0  0  0  0  0  0  0
  -24.7101  -28.9410   20.6016 C   0  0  0  0  0  0  0  0  0  0  0  0
  -28.9330  -21.3968   19.6321 C   0  0  0  0  0  0  0  0  0  0  0  0
  -26.8253  -28.4997   20.1941 C   0  0  0  0  0  0  0  0  0  0  0  0
  -29.9040  -20.1473   21.2640 C   0  0  0  0  0  0  0  0  0  0  0  0
  -26.4687  -30.4618   21.7013 C   0  0  0  0  0  0  0  0  0  0  0  0
  -24.8282  -13.5957   20.2827 C   0  0  0  0  0  0  0  0  0  0  0  0
  -26.7768  -11.0450   20.7505 C   0  0  0  0  0  0  0  0  0  0  0  0
  -29.9590   -9.8283   20.9502 C   0  0  0  0  0  0  0  0  0  0  0  0
  -25.4683  -22.8904   18.2933 C   0  0  0  0  0  0  0  0  0  0  0  0
  -19.9183  -14.3884   19.1327 C   0  0  0  0  0  0  0  0  0  0  0  0
  -26.3421  -13.7435   18.2722 C   0  0  0  0  0  0  0  0  0  0  0  0
  -27.8702  -13.3187   20.7680 C   0  0  0  0  0  0  0  0  0  0  0  0
  -20.7171  -13.2705   19.7978 C   0  0  0  0  0  0  0  0  0  0  0  0
  -26.8917  -25.7243   16.3095 C   0  0  0  0  0  0  0  0  0  0  0  0
  -21.6383  -13.8391   20.8724 C   0  0  0  0  0  0  0  0  0  0  0  0
  -26.5328  -26.9128   17.2002 C   0  0  0  0  0  0  0  0  0  0  0  0
  -25.8872  -24.5899   16.4719 C   0  0  0  0  0  0  0  0  0  0  0  0
  -25.3631  -25.3090   18.7795 C   0  0  0  0  0  0  0  0  0  0  0  0
  -22.6575  -14.8118   20.2671 C   0  0  1  0  0  0  0  0  0  0  0  0
  -25.8067  -12.8704   19.4029 C   0  0  1  0  0  0  0  0  0  0  0  0
  -26.3627  -26.4718   18.6640 C   0  0  2  0  0  0  0  0  0  0  0  0
  -25.2436  -20.2564   20.2387 C   0  0  0  0  0  0  0  0  0  0  0  0
  -31.2350   -7.7110   21.3820 C   0  0  0  0  0  0  0  0  0  0  0  0
  -26.1924  -11.3042   23.7340 C   0  0  0  0  0  0  0  0  0  0  0  0
  -28.1722   -9.8374   24.1782 C   0  0  0  0  0  0  0  0  0  0  0  0
  -26.2342   -8.9542   22.8795 C   0  0  0  0  0  0  0  0  0  0  0  0
  -31.2048   -9.8946   18.2664 C   0  0  0  0  0  0  0  0  0  0  0  0
  -27.1349  -23.0735   20.1876 C   0  0  0  0  0  0  0  0  0  0  0  0
  -30.9034  -19.0885   21.6623 C   0  0  0  0  0  0  0  0  0  0  0  0
  -25.0698  -21.7480   20.4416 C   0  0  0  0  0  0  0  0  0  0  0  0
  -30.4110  -17.6796   21.3499 C   0  0  0  0  0  0  0  0  0  1  0  0
  -27.7784  -10.6443   21.8065 C   0  0  1  0  0  0  0  0  0  0  0  0
  -30.6125   -8.6092   20.3245 C   0  0  2  0  0  0  0  0  0  0  0  0
  -28.8404  -21.7457   18.1833 C   0  0  0  0  0  0  0  0  0  0  0  0
  -27.0972  -10.2091   23.1347 C   0  0  0  0  0  0  0  0  0  0  0  0
  -29.1748  -20.6904   22.2573 N   0  0  0  0  0  0  0  0  0  0  0  0
  -24.6804  -27.8784   19.7928 N   0  0  0  0  0  0  0  0  0  0  0  0
  -29.8367  -20.4477   19.9530 N   0  0  0  0  0  0  0  0  0  0  0  0
  -25.9817  -27.6340   19.5625 N   0  0  0  0  0  0  0  0  0  0  0  0
  -26.8675  -12.3605   20.2740 N   0  0  0  0  0  0  0  0  0  0  0  0
  -25.7219  -24.2091   17.8811 N   0  0  0  0  0  0  0  0  0  0  0  0
  -28.1657  -28.3969   20.0709 N   0  0  0  0  0  0  0  0  0  0  0  0
  -25.5081  -31.2576   22.3402 N   0  0  0  0  0  0  0  0  0  0  0  0
  -23.7232  -14.0842   19.6119 N   0  0  0  0  0  0  0  0  0  0  0  0
  -28.6200   -9.6172   21.2022 N   0  0  0  0  0  0  0  0  0  0  0  0
  -25.9385  -22.5159   19.5610 N   0  0  0  0  0  0  0  0  0  0  0  0
  -31.6813   -9.0255   19.3730 N   0  3  0  0  0  0  0  0  0  0  0  0
  -27.6850  -30.7326   21.8458 O   0  0  0  0  0  0  0  0  0  0  0  0
  -25.0578  -13.7028   21.4816 O   0  0  0  0  0  0  0  0  0  0  0  0
  -25.9492  -10.2190   20.3576 O   0  0  0  0  0  0  0  0  0  0  0  0
  -30.5758  -10.8629   21.1946 O   0  0  0  0  0  0  0  0  0  0  0  0
  -24.8479  -22.0970   17.5739 O   0  0  0  0  0  0  0  0  0  0  0  0
  -19.9393  -31.1794   22.4713 O   0  0  0  0  0  0  0  0  0  0  0  0
  -30.1945  -17.5447   19.9459 O   0  0  0  0  0  0  0  0  0  1  0  0
  -16.0457  -27.7395   24.3183 F   0  0  0  0  0  0  0  0  0  0  0  0
  -19.0295  -31.3348   25.0772 F   0  0  0  0  0  0  0  0  0  0  0  0
  -27.9123  -22.7097   17.9123 F   0  0  0  0  0  0  0  0  0  0  0  0
  -30.0097  -22.2183   17.6607 F   0  0  0  0  0  0  0  0  0  0  0  0
  -28.4969  -20.6768   17.4084 F   0  0  0  0  0  0  0  0  0  0  0  0
  1  2  1  0  0  0  0
  1  5  2  0  0  0  0
  2  6  2  0  0  0  0
  3  8  2  0  0  0  0
  3 16  1  0  0  0  0
  4  9  1  0  0  0  0
  4 16  2  0  0  0  0
  5 18  1  0  0  0  0
  6 20  1  0  0  0  0
  7 10  2  0  0  0  0
  7 19  1  0  0  0  0
  8 23  1  0  0  0  0
  9 23  2  0  0  0  0
 10 24  1  0  0  0  0
 11 12  2  0  0  0  0
 11 25  1  0  0  0  0
 12 26  1  0  0  0  0
 13 21  1  0  0  0  0
 13 24  2  0  0  0  0
 14 26  2  0  0  0  0
 14 27  1  0  0  0  0
 15 22  1  0  0  0  0
 15 63  2  0  0  0  0
 16 28  1  0  0  0  0
 17 28  1  0  0  0  0
 17 30  2  0  0  0  0
 17 32  1  0  0  0  0
 18 20  2  0  0  0  0
 18 37  1  0  0  0  0
 19 21  2  0  0  0  0
 19 38  1  0  0  0  0
 20 46  1  0  0  0  0
 21 39  1  0  0  0  0
 22 29  2  0  0  0  0
 22 55  1  0  0  0  0
 23 80  1  0  0  0  0
 24 81  1  0  0  0  0
 25 27  2  0  0  0  0
 25 80  1  0  0  0  0
 26 82  1  0  0  0  0
 27 83  1  0  0  0  0
 28 64  2  0  0  0  0
 29 61  1  0  0  0  0
 29 65  1  0  0  0  0
 30 66  1  0  0  0  0
 30 69  1  0  0  0  0
 31 56  1  0  0  0  0
 31 63  1  0  0  0  0
 31 65  2  0  0  0  0
 32 70  1  0  0  0  0
 32 75  2  0  0  0  0
 33 47  1  0  0  0  0
 33 71  1  0  0  0  0
 33 76  2  0  0  0  0
 34 59  1  0  0  0  0
 34 67  1  0  0  0  0
 34 77  2  0  0  0  0
 35 60  1  0  0  0  0
 35 72  1  0  0  0  0
 35 78  2  0  0  0  0
 36 68  1  0  0  0  0
 36 73  1  0  0  0  0
 36 79  2  0  0  0  0
 37 40  1  0  0  0  0
 38 47  1  0  0  0  0
 39 67  1  0  0  0  0
 40 42  1  0  0  0  0
 41 43  1  0  0  0  0
 41 44  1  0  0  0  0
 42 46  1  0  0  0  0
 43 48  1  0  0  0  0
 44 68  1  0  0  0  0
 45 48  1  0  0  0  0
 45 68  1  0  0  0  0
 46 71  1  0  0  0  0
 47 67  1  0  0  0  0
 48 66  1  0  0  0  0
 49 57  1  0  0  0  0
 50 60  1  0  0  0  0
 51 62  1  0  0  0  0
 52 62  1  0  0  0  0
 53 62  1  0  0  0  0
 54 74  1  0  0  0  0
 55 73  1  0  0  0  0
 56 58  1  0  0  0  0
 57 73  1  0  0  0  0
 58 81  1  0  0  0  0
 59 62  1  0  0  0  0
 59 72  1  0  0  0  0
 60 74  1  0  0  0  0
 61 84  1  0  0  0  0
 61 85  1  0  0  0  0
 61 86  1  0  0  0  0
 64 66  1  0  0  0  0
M  CHG  1  74   1
M  ISO  4  36 100  58 101  73 100  81 101
M  END
> <Batch ID>
0057

> <Smiles>
CC[100N:0](Cc1cnc(C[101CH2:1][101O:1]c2ccc3c(c2)CN(C(=O)C(NC(=O)C(C)NC)C(C)(C)C)C(C(=O)NC2CCCc4ccccc42)C3)nc1C(F)(F)F)[100C:0](=O)N1CCCC(n2nc(-c3ccc(Oc4ccc(F)cc4F)cc3)c(C(N)=O)c2N)C1

> <Shape>
0.241

> <Color>
0.074

> <Negative vol penalty>
0.000

$$$$

  -OEChem-04052317483D

 80 88  0     1  0  0  0  0  0999 V2000
  -33.7793  -29.9181   11.4514 C   0  0  0  0  0  0  0  0  0  0  0  0
  -33.5434  -28.7027   12.0859 C   0  0  0  0  0  0  0  0  0  0  0  0
  -23.0591   -9.8414   19.9462 C   0  0  0  0  0  0  0  0  0  0  0  0
  -23.8165   -9.8671   22.2402 C   0  0  0  0  0  0  0  0  0  0  0  0
  -33.5373  -31.1139   12.1262 C   0  0  0  0  0  0  0  0  0  0  0  0
  -33.0664  -28.6824   13.3960 C   0  0  0  0  0  0  0  0  0  0  0  0
  -29.2075  -24.6066   15.8462 C   0  0  0  0  0  0  0  0  0  0  0  0
  -22.3421   -8.6713   20.1959 C   0  0  0  0  0  0  0  0  0  0  0  0
  -23.0995   -8.6970   22.4900 C   0  0  0  0  0  0  0  0  0  0  0  0
  -29.4142  -23.4759   16.6351 C   0  0  0  0  0  0  0  0  0  0  0  0
  -23.4683   -5.3824   21.9344 C   0  0  0  0  0  0  0  0  0  0  0  0
  -24.1069   -4.3721   22.6534 C   0  0  0  0  0  0  0  0  0  0  0  0
  -28.9973  -24.7888   18.6154 C   0  0  0  0  0  0  0  0  0  0  0  0
  -29.1433  -18.7664   20.9085 C   0  0  0  0  0  0  0  0  0  0  0  0
  -22.4003   -4.5067   24.3582 C   0  0  0  0  0  0  0  0  0  0  0  0
  -31.1837  -19.4697   19.2388 C   0  0  0  0  0  0  0  0  0  0  0  0
  -23.7964  -10.4393   20.9683 C   0  0  0  0  0  0  0  0  0  0  0  0
  -24.0794  -12.9717   20.8475 C   0  0  0  0  0  0  0  0  0  0  0  0
  -33.0478  -31.1083   13.4419 C   0  0  0  0  0  0  0  0  0  0  0  0
  -28.9045  -25.8415   16.4376 C   0  0  0  0  0  0  0  0  0  0  0  0
  -32.8188  -29.8793   14.0895 C   0  0  0  0  0  0  0  0  0  0  0  0
  -28.7848  -25.9332   17.8316 C   0  0  0  0  0  0  0  0  0  0  0  0
  -28.9483  -19.7881   19.9858 C   0  0  0  0  0  0  0  0  0  0  0  0
  -29.9829  -20.1525   19.1314 C   0  0  0  0  0  0  0  0  0  0  0  0
  -22.3623   -8.0991   21.4679 C   0  0  0  0  0  0  0  0  0  0  0  0
  -29.3119  -23.5675   18.0201 C   0  0  0  0  0  0  0  0  0  0  0  0
  -22.2958   -5.9550   22.4274 C   0  0  0  0  0  0  0  0  0  0  0  0
  -23.5729   -3.9341   23.8653 C   0  0  0  0  0  0  0  0  0  0  0  0
  -21.7617   -5.5171   23.6393 C   0  0  0  0  0  0  0  0  0  0  0  0
  -24.5377  -11.6477   20.7108 C   0  0  0  0  0  0  0  0  0  0  0  0
  -30.3817  -18.1455   20.9363 C   0  0  0  0  0  0  0  0  0  0  0  0
  -25.1541  -13.7463   20.4849 C   0  0  0  0  0  0  0  0  0  0  0  0
  -22.7968  -13.4579   21.2650 C   0  0  0  0  0  0  0  0  0  0  0  0
  -30.3116  -28.6902   16.5293 C   0  0  0  0  0  0  0  0  0  0  0  0
  -27.5808  -29.5568   18.0506 C   0  0  0  0  0  0  0  0  0  0  0  0
  -24.8760  -28.6181   19.9077 C   0  0  0  0  0  0  0  0  0  0  0  0
  -30.6124  -14.8930   20.6779 C   0  0  0  0  0  0  0  0  0  0  0  0
  -32.8462  -32.4262   14.1470 C   0  0  0  0  0  0  0  0  0  0  0  0
  -28.6581  -27.0460   15.5710 C   0  0  0  0  0  0  0  0  0  0  0  0
  -28.4416  -27.2311   18.5144 C   0  0  0  0  0  0  0  0  0  0  0  0
  -31.9855  -32.3195   15.4032 C   0  0  0  0  0  0  0  0  0  0  0  0
  -29.5329  -12.4816   18.2911 C   0  0  0  0  0  0  0  0  0  0  0  0
  -32.4349  -31.1398   16.2596 C   0  0  0  0  0  0  0  0  0  0  0  0
  -28.1023  -12.1546   18.7228 C   0  0  0  0  0  0  0  0  0  0  0  0
  -30.4435  -12.7243   19.4928 C   0  0  0  0  0  0  0  0  0  0  0  0
  -28.5240  -13.4114   20.8773 C   0  0  0  0  0  0  0  0  0  0  0  0
  -32.2779  -29.8162   15.5014 C   0  0  1  0  0  0  0  0  0  0  0  0
  -28.8611  -28.3652   16.3098 C   0  0  1  0  0  0  0  0  0  0  0  0
  -27.5552  -13.2136   19.6988 C   0  0  2  0  0  0  0  0  0  0  0  0
  -27.6251  -20.4770   19.9303 C   0  0  0  0  0  0  0  0  0  0  0  0
  -22.8381  -29.5550   21.0332 C   0  0  0  0  0  0  0  0  0  0  0  0
  -29.3289  -30.6513   20.2992 C   0  0  0  0  0  0  0  0  0  0  0  0
  -27.2986  -30.6917   21.7637 C   0  0  0  0  0  0  0  0  0  0  0  0
  -27.3748  -32.0928   19.7012 C   0  0  0  0  0  0  0  0  0  0  0  0
  -23.0598  -26.9827   18.2386 C   0  0  0  0  0  0  0  0  0  0  0  0
  -29.8270  -21.2477   18.1177 C   0  0  0  0  0  0  0  0  0  1  0  0
  -30.6269  -17.0450   21.9139 C   0  0  0  0  0  0  0  0  0  0  0  0
  -27.1211  -29.5864   19.4882 C   0  0  1  0  0  0  0  0  0  0  0  0
  -23.3976  -28.9315   19.7640 C   0  0  2  0  0  0  0  0  0  0  0  0
  -27.7892  -30.7314   20.3006 C   0  0  0  0  0  0  0  0  0  0  0  0
  -31.4106  -18.4720   20.1224 N   0  0  0  0  0  0  0  0  0  0  0  0
  -25.8049  -11.5812   20.2937 N   0  0  0  0  0  0  0  0  0  0  0  0
  -26.1519  -12.8731   20.1652 N   0  0  0  0  0  0  0  0  0  0  0  0
  -28.2161  -28.3819   17.6243 N   0  0  0  0  0  0  0  0  0  0  0  0
  -29.8683  -13.7400   20.3778 N   0  0  0  0  0  0  0  0  0  0  0  0
  -25.3334  -15.0822   20.4115 N   0  0  0  0  0  0  0  0  0  0  0  0
  -21.8060  -12.5255   21.6017 N   0  0  0  0  0  0  0  0  0  0  0  0
  -30.8922  -29.3989   15.4948 N   0  0  0  0  0  0  0  0  0  0  0  0
  -25.6642  -29.6525   19.4496 N   0  0  0  0  0  0  0  0  0  0  0  0
  -29.9909  -15.8080   21.5190 N   0  0  0  0  0  0  0  0  0  0  0  0
  -22.6302  -27.6873   19.4738 N   0  3  0  0  0  0  0  0  0  0  0  0
  -22.5318  -14.6827   21.3216 O   0  0  0  0  0  0  0  0  0  0  0  0
  -30.8628  -28.3263   17.5615 O   0  0  0  0  0  0  0  0  0  0  0  0
  -27.3772  -30.5373   17.3303 O   0  0  0  0  0  0  0  0  0  0  0  0
  -25.2901  -27.5628   20.3827 O   0  0  0  0  0  0  0  0  0  0  0  0
  -31.7443  -15.0947   20.2253 O   0  0  0  0  0  0  0  0  0  0  0  0
  -21.6625   -6.9575   21.7120 O   0  0  0  0  0  0  0  0  0  0  0  0
  -29.5138  -22.4655   18.7926 O   0  0  0  0  0  0  0  0  0  1  0  0
  -24.1854   -2.9628   24.5548 F   0  0  0  0  0  0  0  0  0  0  0  0
  -20.6349   -6.0625   24.1174 F   0  0  0  0  0  0  0  0  0  0  0  0
  1  2  1  0  0  0  0
  1  5  2  0  0  0  0
  2  6  2  0  0  0  0
  3  8  2  0  0  0  0
  3 17  1  0  0  0  0
  4  9  1  0  0  0  0
  4 17  2  0  0  0  0
  5 19  1  0  0  0  0
  6 21  1  0  0  0  0
  7 10  2  0  0  0  0
  7 20  1  0  0  0  0
  8 25  1  0  0  0  0
  9 25  2  0  0  0  0
 10 26  1  0  0  0  0
 11 12  2  0  0  0  0
 11 27  1  0  0  0  0
 12 28  1  0  0  0  0
 13 22  1  0  0  0  0
 13 26  2  0  0  0  0
 14 23  1  0  0  0  0
 14 31  2  0  0  0  0
 15 28  2  0  0  0  0
 15 29  1  0  0  0  0
 16 24  1  0  0  0  0
 16 61  2  0  0  0  0
 17 30  1  0  0  0  0
 18 30  1  0  0  0  0
 18 32  2  0  0  0  0
 18 33  1  0  0  0  0
 19 21  2  0  0  0  0
 19 38  1  0  0  0  0
 20 22  2  0  0  0  0
 20 39  1  0  0  0  0
 21 47  1  0  0  0  0
 22 40  1  0  0  0  0
 23 24  2  0  0  0  0
 23 50  1  0  0  0  0
 24 56  1  0  0  0  0
 25 77  1  0  0  0  0
 26 78  1  0  0  0  0
 27 29  2  0  0  0  0
 27 77  1  0  0  0  0
 28 79  1  0  0  0  0
 29 80  1  0  0  0  0
 30 62  2  0  0  0  0
 31 57  1  0  0  0  0
 31 61  1  0  0  0  0
 32 63  1  0  0  0  0
 32 66  1  0  0  0  0
 33 67  1  0  0  0  0
 33 72  2  0  0  0  0
 34 48  1  0  0  0  0
 34 68  1  0  0  0  0
 34 73  2  0  0  0  0
 35 58  1  0  0  0  0
 35 64  1  0  0  0  0
 35 74  2  0  0  0  0
 36 59  1  0  0  0  0
 36 69  1  0  0  0  0
 36 75  2  0  0  0  0
 37 65  1  0  0  0  0
 37 70  1  0  0  0  0
 37 76  2  0  0  0  0
 38 41  1  0  0  0  0
 39 48  1  0  0  0  0
 40 64  1  0  0  0  0
 41 43  1  0  0  0  0
 42 44  1  0  0  0  0
 42 45  1  0  0  0  0
 43 47  1  0  0  0  0
 44 49  1  0  0  0  0
 45 65  1  0  0  0  0
 46 49  1  0  0  0  0
 46 65  1  0  0  0  0
 47 68  1  0  0  0  0
 48 64  1  0  0  0  0
 49 63  1  0  0  0  0
 51 59  1  0  0  0  0
 52 60  1  0  0  0  0
 53 60  1  0  0  0  0
 54 60  1  0  0  0  0
 55 71  1  0  0  0  0
 56 78  1  0  0  0  0
 57 70  1  0  0  0  0
 58 60  1  0  0  0  0
 58 69  1  0  0  0  0
 59 71  1  0  0  0  0
 62 63  1  0  0  0  0
M  CHG  1  71   1
M  ISO  4  37 100  56 101  70 100  78 101
M  END
> <Batch ID>
0057

> <Smiles>
CNC(C)C(=O)NC(C(=O)N1Cc2cc([101O:1][101CH2:1]c3cnc(C[100NH:0][100C:0](=O)N4CCCC(n5nc(-c6ccc(Oc7ccc(F)cc7F)cc6)c(C(N)=O)c5N)C4)cc3C)ccc2CC1C(=O)NC1CCCc2ccccc21)C(C)(C)C

> <Shape>
0.287

> <Color>
0.216

> <Negative vol penalty>
0.000

$$$$

  -OEChem-04052317483D

 81 89  0     1  0  0  0  0  0999 V2000
  -15.9590  -26.6243   21.3936 C   0  0  0  0  0  0  0  0  0  0  0  0
  -17.1593  -25.9942   21.0808 C   0  0  0  0  0  0  0  0  0  0  0  0
  -23.0743   -9.8715   19.9410 C   0  0  0  0  0  0  0  0  0  0  0  0
  -23.8369   -9.8767   22.2335 C   0  0  0  0  0  0  0  0  0  0  0  0
  -15.3739  -26.4259   22.6434 C   0  0  0  0  0  0  0  0  0  0  0  0
  -17.7756  -25.1661   22.0182 C   0  0  0  0  0  0  0  0  0  0  0  0
  -20.9903  -20.0779   20.8857 C   0  0  0  0  0  0  0  0  0  0  0  0
  -22.3304   -8.7184   20.1911 C   0  0  0  0  0  0  0  0  0  0  0  0
  -23.0929   -8.7236   22.4836 C   0  0  0  0  0  0  0  0  0  0  0  0
  -22.3600  -19.8350   20.7925 C   0  0  0  0  0  0  0  0  0  0  0  0
  -21.1088   -5.9861   23.8207 C   0  0  0  0  0  0  0  0  0  0  0  0
  -20.3539   -5.9420   24.9928 C   0  0  0  0  0  0  0  0  0  0  0  0
  -22.3838  -19.1194   23.0960 C   0  0  0  0  0  0  0  0  0  0  0  0
  -19.1090   -7.8801   24.2640 C   0  0  0  0  0  0  0  0  0  0  0  0
  -28.3582  -18.8483   21.9100 C   0  0  0  0  0  0  0  0  0  0  0  0
  -28.3761  -18.3051   19.6383 C   0  0  0  0  0  0  0  0  0  0  0  0
  -23.8276  -10.4506   20.9622 C   0  0  0  0  0  0  0  0  0  0  0  0
  -24.1700  -12.9758   20.8435 C   0  0  0  0  0  0  0  0  0  0  0  0
  -15.9785  -25.5872   23.5931 C   0  0  0  0  0  0  0  0  0  0  0  0
  -20.3079  -19.8533   22.0900 C   0  0  0  0  0  0  0  0  0  0  0  0
  -17.1987  -24.9573   23.2824 C   0  0  0  0  0  0  0  0  0  0  0  0
  -21.0049  -19.3577   23.2012 C   0  0  0  0  0  0  0  0  0  0  0  0
  -29.0802  -18.4045   20.8209 C   0  0  0  0  0  0  0  0  0  0  0  0
  -22.3397   -8.1444   21.4623 C   0  0  0  0  0  0  0  0  0  0  0  0
  -23.0575  -19.3584   21.8986 C   0  0  0  0  0  0  0  0  0  0  0  0
  -20.8639   -6.9773   22.8703 C   0  0  0  0  0  0  0  0  0  0  0  0
  -19.3540   -6.8889   25.2144 C   0  0  0  0  0  0  0  0  0  0  0  0
  -19.8640   -7.9243   23.0919 C   0  0  0  0  0  0  0  0  0  0  0  0
  -24.5967  -11.6415   20.7044 C   0  0  0  0  0  0  0  0  0  0  0  0
  -25.2619  -13.7252   20.4794 C   0  0  0  0  0  0  0  0  0  0  0  0
  -26.4755  -19.0340   20.6499 C   0  0  0  0  0  0  0  0  0  0  0  0
  -22.9002  -13.4917   21.2643 C   0  0  0  0  0  0  0  0  0  0  0  0
  -18.6835  -21.6796   24.1222 C   0  0  0  0  0  0  0  0  0  0  0  0
  -18.0252  -18.8383   25.5421 C   0  0  0  0  0  0  0  0  0  0  0  0
  -18.9219  -15.5888   26.0742 C   0  0  0  0  0  0  0  0  0  0  0  0
  -30.7462  -14.7425   20.6620 C   0  0  0  0  0  0  0  0  0  0  0  0
  -15.3325  -25.4408   24.9481 C   0  0  0  0  0  0  0  0  0  0  0  0
  -18.8253  -20.0948   22.1666 C   0  0  0  0  0  0  0  0  0  0  0  0
  -20.3151  -19.0810   24.5112 C   0  0  0  0  0  0  0  0  0  0  0  0
  -15.8580  -24.2516   25.7480 C   0  0  0  0  0  0  0  0  0  0  0  0
  -29.6051  -12.3600   18.2750 C   0  0  0  0  0  0  0  0  0  0  0  0
  -17.3820  -24.2083   25.7013 C   0  0  0  0  0  0  0  0  0  0  0  0
  -28.1681  -12.0664   18.7094 C   0  0  0  0  0  0  0  0  0  0  0  0
  -30.5237  -12.5797   19.4749 C   0  0  0  0  0  0  0  0  0  0  0  0
  -28.6238  -13.3104   20.8642 C   0  0  0  0  0  0  0  0  0  0  0  0
  -17.8852  -24.0319   24.2635 C   0  0  1  0  0  0  0  0  0  0  0  0
  -18.3292  -20.3192   23.5917 C   0  0  1  0  0  0  0  0  0  0  0  0
  -27.6482  -13.1369   19.6876 C   0  0  2  0  0  0  0  0  0  0  0  0
  -31.3916  -19.2714   21.2999 C   0  0  0  0  0  0  0  0  0  0  0  0
  -18.2076  -13.5253   27.3108 C   0  0  0  0  0  0  0  0  0  0  0  0
  -19.0708  -20.0392   28.1449 C   0  0  0  0  0  0  0  0  0  0  0  0
  -19.2262  -17.7186   29.0717 C   0  0  0  0  0  0  0  0  0  0  0  0
  -17.0108  -18.6431   28.3936 C   0  0  0  0  0  0  0  0  0  0  0  0
  -18.5940  -14.0569   23.5633 C   0  0  0  0  0  0  0  0  0  0  0  0
  -25.0192  -19.3824   20.5543 C   0  0  0  0  0  0  0  0  0  1  0  0
  -30.8141  -16.8922   21.9003 C   0  0  0  0  0  0  0  0  0  0  0  0
  -30.5181  -18.0547   20.9164 C   0  0  1  0  0  0  0  0  0  0  0  0
  -18.6835  -17.9992   26.6105 C   0  0  1  0  0  0  0  0  0  0  0  0
  -18.1239  -14.2993   26.0044 C   0  0  2  0  0  0  0  0  0  0  0  0
  -18.5115  -18.6070   28.0312 C   0  0  0  0  0  0  0  0  0  0  0  0
  -27.0497  -19.1731   21.8600 N   0  0  0  0  0  0  0  0  0  0  0  0
  -27.0680  -18.6125   19.5164 N   0  0  0  0  0  0  0  0  0  0  0  0
  -25.8610  -11.5455   20.2845 N   0  0  0  0  0  0  0  0  0  0  0  0
  -26.2382  -12.8291   20.1566 N   0  0  0  0  0  0  0  0  0  0  0  0
  -18.8659  -19.3389   24.5378 N   0  0  0  0  0  0  0  0  0  0  0  0
  -29.9745  -13.6078   20.3622 N   0  0  0  0  0  0  0  0  0  0  0  0
  -25.4726  -15.0566   20.4071 N   0  0  0  0  0  0  0  0  0  0  0  0
  -21.8884  -12.5825   21.6021 N   0  0  0  0  0  0  0  0  0  0  0  0
  -17.7440  -22.6540   23.8441 N   0  0  0  0  0  0  0  0  0  0  0  0
  -18.1385  -16.6536   26.4662 N   0  0  0  0  0  0  0  0  0  0  0  0
  -30.1483  -15.6710   21.5054 N   0  0  0  0  0  0  0  0  0  0  0  0
  -18.6394  -13.4298   24.9093 N   0  3  0  0  0  0  0  0  0  0  0  0
  -22.6643  -14.7223   21.3227 O   0  0  0  0  0  0  0  0  0  0  0  0
  -19.7309  -21.8335   24.7394 O   0  0  0  0  0  0  0  0  0  0  0  0
  -16.8087  -19.0363   25.5927 O   0  0  0  0  0  0  0  0  0  0  0  0
  -20.1211  -15.6451   25.8112 O   0  0  0  0  0  0  0  0  0  0  0  0
  -31.8816  -14.9180   20.2071 O   0  0  0  0  0  0  0  0  0  0  0  0
  -21.6137   -7.0194   21.7068 O   0  0  0  0  0  0  0  0  0  0  0  0
  -24.3946  -19.1212   21.8104 O   0  0  0  0  0  0  0  0  0  1  0  0
  -18.6281   -6.8455   26.3393 F   0  0  0  0  0  0  0  0  0  0  0  0
  -19.6233   -8.8782   22.1820 F   0  0  0  0  0  0  0  0  0  0  0  0
  1  2  1  0  0  0  0
  1  5  2  0  0  0  0
  2  6  2  0  0  0  0
  3  8  2  0  0  0  0
  3 17  1  0  0  0  0
  4  9  1  0  0  0  0
  4 17  2  0  0  0  0
  5 19  1  0  0  0  0
  6 21  1  0  0  0  0
  7 10  2  0  0  0  0
  7 20  1  0  0  0  0
  8 24  1  0  0  0  0
  9 24  2  0  0  0  0
 10 25  1  0  0  0  0
 11 12  2  0  0  0  0
 11 26  1  0  0  0  0
 12 27  1  0  0  0  0
 13 22  1  0  0  0  0
 13 25  2  0  0  0  0
 14 27  2  0  0  0  0
 14 28  1  0  0  0  0
 15 23  1  0  0  0  0
 15 61  2  0  0  0  0
 16 23  2  0  0  0  0
 16 62  1  0  0  0  0
 17 29  1  0  0  0  0
 18 29  1  0  0  0  0
 18 30  2  0  0  0  0
 18 32  1  0  0  0  0
 19 21  2  0  0  0  0
 19 37  1  0  0  0  0
 20 22  2  0  0  0  0
 20 38  1  0  0  0  0
 21 46  1  0  0  0  0
 22 39  1  0  0  0  0
 23 57  1  0  0  0  0
 24 78  1  0  0  0  0
 25 79  1  0  0  0  0
 26 28  2  0  0  0  0
 26 78  1  0  0  0  0
 27 80  1  0  0  0  0
 28 81  1  0  0  0  0
 29 63  2  0  0  0  0
 30 64  1  0  0  0  0
 30 67  1  0  0  0  0
 31 55  1  0  0  0  0
 31 61  1  0  0  0  0
 31 62  2  0  0  0  0
 32 68  1  0  0  0  0
 32 73  2  0  0  0  0
 33 47  1  0  0  0  0
 33 69  1  0  0  0  0
 33 74  2  0  0  0  0
 34 58  1  0  0  0  0
 34 65  1  0  0  0  0
 34 75  2  0  0  0  0
 35 59  1  0  0  0  0
 35 70  1  0  0  0  0
 35 76  2  0  0  0  0
 36 66  1  0  0  0  0
 36 71  1  0  0  0  0
 36 77  2  0  0  0  0
 37 40  1  0  0  0  0
 38 47  1  0  0  0  0
 39 65  1  0  0  0  0
 40 42  1  0  0  0  0
 41 43  1  0  0  0  0
 41 44  1  0  0  0  0
 42 46  1  0  0  0  0
 43 48  1  0  0  0  0
 44 66  1  0  0  0  0
 45 48  1  0  0  0  0
 45 66  1  0  0  0  0
 46 69  1  0  0  0  0
 47 65  1  0  0  0  0
 48 64  1  0  0  0  0
 49 57  1  0  0  0  0
 50 59  1  0  0  0  0
 51 60  1  0  0  0  0
 52 60  1  0  0  0  0
 53 60  1  0  0  0  0
 54 72  1  0  0  0  0
 55 79  1  0  0  0  0
 56 57  1  0  0  0  0
 56 71  1  0  0  0  0
 58 60  1  0  0  0  0
 58 70  1  0  0  0  0
 59 72  1  0  0  0  0
 63 64  1  0  0  0  0
M  CHG  1  72   1
M  ISO  4  36 100  55 101  71 100  79 101
M  END
> <Batch ID>
0057

> <Smiles>
CNC(C)C(=O)NC(C(=O)N1Cc2cc([101O:1][101CH2:1]c3ncc(C(C)C[100NH:0][100C:0](=O)N4CCCC(n5nc(-c6ccc(Oc7ccc(F)cc7F)cc6)c(C(N)=O)c5N)C4)cn3)ccc2CC1C(=O)NC1CCCc2ccccc21)C(C)(C)C

> <Shape>
0.197

> <Color>
0.187

> <Negative vol penalty>
0.000

$$$$

  -OEChem-04052317483D

 80 88  0     1  0  0  0  0  0999 V2000
  -19.1926  -11.7785   24.5841 C   0  0  0  0  0  0  0  0  0  0  0  0
  -20.5736  -11.7718   24.7525 C   0  0  0  0  0  0  0  0  0  0  0  0
  -23.1912   -9.8191   19.9314 C   0  0  0  0  0  0  0  0  0  0  0  0
  -23.5683   -9.9995   22.3110 C   0  0  0  0  0  0  0  0  0  0  0  0
  -18.3557  -11.6802   25.6949 C   0  0  0  0  0  0  0  0  0  0  0  0
  -21.1184  -11.6680   26.0318 C   0  0  0  0  0  0  0  0  0  0  0  0
  -24.9544   -8.3689   26.2479 C   0  0  0  0  0  0  0  0  0  0  0  0
  -22.4249   -8.6724   20.1398 C   0  0  0  0  0  0  0  0  0  0  0  0
  -22.8020   -8.8528   22.5194 C   0  0  0  0  0  0  0  0  0  0  0  0
  -26.1901   -8.7967   25.7642 C   0  0  0  0  0  0  0  0  0  0  0  0
  -23.2035   -5.5061   22.2554 C   0  0  0  0  0  0  0  0  0  0  0  0
  -23.7015   -4.5448   23.1349 C   0  0  0  0  0  0  0  0  0  0  0  0
  -26.9187   -9.2263   28.0234 C   0  0  0  0  0  0  0  0  0  0  0  0
  -21.7443   -4.8046   24.5273 C   0  0  0  0  0  0  0  0  0  0  0  0
  -23.7629  -10.4827   21.0171 C   0  0  0  0  0  0  0  0  0  0  0  0
  -24.1015  -12.9994   20.7735 C   0  0  0  0  0  0  0  0  0  0  0  0
  -18.8906  -11.5653   26.9877 C   0  0  0  0  0  0  0  0  0  0  0  0
  -24.6873   -8.3770   27.6245 C   0  0  0  0  0  0  0  0  0  0  0  0
  -20.2878  -11.5694   27.1610 C   0  0  0  0  0  0  0  0  0  0  0  0
  -25.6798   -8.7958   28.5221 C   0  0  0  0  0  0  0  0  0  0  0  0
  -22.2303   -8.1892   21.4337 C   0  0  0  0  0  0  0  0  0  0  0  0
  -27.1714   -9.2282   26.6518 C   0  0  0  0  0  0  0  0  0  0  0  0
  -21.9759   -6.1168   22.5119 C   0  0  0  0  0  0  0  0  0  0  0  0
  -22.9719   -4.1941   24.2708 C   0  0  0  0  0  0  0  0  0  0  0  0
  -21.2462   -5.7660   23.6478 C   0  0  0  0  0  0  0  0  0  0  0  0
  -24.5550  -11.6670   20.8024 C   0  0  0  0  0  0  0  0  0  0  0  0
  -25.2327  -13.7421   20.5388 C   0  0  0  0  0  0  0  0  0  0  0  0
  -32.7846  -10.3195   26.0620 C   0  0  0  0  0  0  0  0  0  0  0  0
  -31.5998  -11.8826   24.9714 C   0  0  0  0  0  0  0  0  0  0  0  0
  -30.5812  -10.5224   26.4372 C   0  0  0  0  0  0  0  0  0  0  0  0
  -22.7761  -13.5191   20.9437 C   0  0  0  0  0  0  0  0  0  0  0  0
  -22.5910   -9.8650   29.4941 C   0  0  0  0  0  0  0  0  0  0  0  0
  -23.8696   -7.9578   31.7854 C   0  0  0  0  0  0  0  0  0  0  0  0
  -26.5252   -6.1047   32.8628 C   0  0  0  0  0  0  0  0  0  0  0  0
  -31.0471  -12.7527   21.5708 C   0  0  0  0  0  0  0  0  0  0  0  0
  -17.9457  -11.5092   28.1619 C   0  0  0  0  0  0  0  0  0  0  0  0
  -23.3588   -7.8872   28.1320 C   0  0  0  0  0  0  0  0  0  0  0  0
  -25.4503   -8.8045   30.0106 C   0  0  0  0  0  0  0  0  0  0  0  0
  -18.6043  -11.0252   29.4512 C   0  0  0  0  0  0  0  0  0  0  0  0
  -29.5211  -13.4700   18.4350 C   0  0  0  0  0  0  0  0  0  0  0  0
  -19.9360  -11.7363   29.6698 C   0  0  0  0  0  0  0  0  0  0  0  0
  -28.0344  -13.2095   18.6835 C   0  0  0  0  0  0  0  0  0  0  0  0
  -30.4022  -12.4807   19.1946 C   0  0  0  0  0  0  0  0  0  0  0  0
  -28.6479  -12.1377   20.8912 C   0  0  0  0  0  0  0  0  0  0  0  0
  -20.9168  -11.4333   28.5307 C   0  0  1  0  0  0  0  0  0  0  0  0
  -23.0142   -8.4234   29.5181 C   0  0  1  0  0  0  0  0  0  0  0  0
  -27.7206  -13.1454   20.1904 C   0  0  2  0  0  0  0  0  0  0  0  0
  -34.0840   -9.6421   26.3364 C   0  0  0  0  0  0  0  0  0  0  0  0
  -27.2893   -4.6933   34.7919 C   0  0  0  0  0  0  0  0  0  0  0  0
  -24.3671  -10.4792   33.4301 C   0  0  0  0  0  0  0  0  0  0  0  0
  -25.9421   -9.1546   34.8558 C   0  0  0  0  0  0  0  0  0  0  0  0
  -23.5312   -8.5236   34.7458 C   0  0  0  0  0  0  0  0  0  0  0  0
  -26.8102   -3.7096   31.1479 C   0  0  0  0  0  0  0  0  0  0  0  0
  -31.5360  -13.0039   23.9909 C   0  0  0  0  0  0  0  0  0  0  0  0
  -29.3375  -10.0757   27.1479 C   0  0  0  0  0  0  0  0  0  1  0  0
  -25.0219   -8.0752   32.7536 C   0  0  1  0  0  0  0  0  0  0  0  0
  -26.6085   -4.6999   33.4320 C   0  0  2  0  0  0  0  0  0  0  0  0
  -24.7195   -9.0599   33.9182 C   0  0  0  0  0  0  0  0  0  0  0  0
  -25.8717  -11.5660   20.6019 N   0  0  0  0  0  0  0  0  0  0  0  0
  -32.8034  -11.3207   25.1673 N   0  0  0  0  0  0  0  0  0  0  0  0
  -31.7144   -9.8663   26.7347 N   0  0  0  0  0  0  0  0  0  0  0  0
  -30.4478  -11.5375   25.5685 N   0  0  0  0  0  0  0  0  0  0  0  0
  -26.2552  -12.8444   20.4447 N   0  0  0  0  0  0  0  0  0  0  0  0
  -24.1329   -8.3224   30.4574 N   0  0  0  0  0  0  0  0  0  0  0  0
  -30.0550  -12.4695   20.6177 N   0  0  0  0  0  0  0  0  0  0  0  0
  -25.4426  -15.0690   20.4057 N   0  0  0  0  0  0  0  0  0  0  0  0
  -21.7294  -12.6168   21.1772 N   0  0  0  0  0  0  0  0  0  0  0  0
  -21.4914  -10.1153   28.6956 N   0  0  0  0  0  0  0  0  0  0  0  0
  -25.3324   -6.7166   33.1853 N   0  0  0  0  0  0  0  0  0  0  0  0
  -30.6322  -12.7273   22.8967 N   0  0  0  0  0  0  0  0  0  0  0  0
  -27.3811   -3.8146   32.5153 N   0  3  0  0  0  0  0  0  0  0  0  0
  -22.5248  -14.7461   20.8739 O   0  0  0  0  0  0  0  0  0  0  0  0
  -23.2151  -10.6888   30.1524 O   0  0  0  0  0  0  0  0  0  0  0  0
  -22.7781   -7.5506   32.1910 O   0  0  0  0  0  0  0  0  0  0  0  0
  -27.4296   -6.6102   32.2015 O   0  0  0  0  0  0  0  0  0  0  0  0
  -32.2148  -13.0145   21.2627 O   0  0  0  0  0  0  0  0  0  0  0  0
  -21.4824   -7.0704   21.6374 O   0  0  0  0  0  0  0  0  0  0  0  0
  -28.3782   -9.6468   26.1824 O   0  0  0  0  0  0  0  0  0  1  0  0
  -23.4496   -3.2698   25.1144 F   0  0  0  0  0  0  0  0  0  0  0  0
  -20.0657   -6.3483   23.8989 F   0  0  0  0  0  0  0  0  0  0  0  0
  1  2  1  0  0  0  0
  1  5  2  0  0  0  0
  2  6  2  0  0  0  0
  3  8  2  0  0  0  0
  3 15  1  0  0  0  0
  4  9  1  0  0  0  0
  4 15  2  0  0  0  0
  5 17  1  0  0  0  0
  6 19  1  0  0  0  0
  7 10  2  0  0  0  0
  7 18  1  0  0  0  0
  8 21  1  0  0  0  0
  9 21  2  0  0  0  0
 10 22  1  0  0  0  0
 11 12  2  0  0  0  0
 11 23  1  0  0  0  0
 12 24  1  0  0  0  0
 13 20  1  0  0  0  0
 13 22  2  0  0  0  0
 14 24  2  0  0  0  0
 14 25  1  0  0  0  0
 15 26  1  0  0  0  0
 16 26  1  0  0  0  0
 16 27  2  0  0  0  0
 16 31  1  0  0  0  0
 17 19  2  0  0  0  0
 17 36  1  0  0  0  0
 18 20  2  0  0  0  0
 18 37  1  0  0  0  0
 19 45  1  0  0  0  0
 20 38  1  0  0  0  0
 21 77  1  0  0  0  0
 22 78  1  0  0  0  0
 23 25  2  0  0  0  0
 23 77  1  0  0  0  0
 24 79  1  0  0  0  0
 25 80  1  0  0  0  0
 26 59  2  0  0  0  0
 27 63  1  0  0  0  0
 27 66  1  0  0  0  0
 28 48  1  0  0  0  0
 28 60  1  0  0  0  0
 28 61  2  0  0  0  0
 29 54  1  0  0  0  0
 29 60  2  0  0  0  0
 29 62  1  0  0  0  0
 30 55  1  0  0  0  0
 30 61  1  0  0  0  0
 30 62  2  0  0  0  0
 31 67  1  0  0  0  0
 31 72  2  0  0  0  0
 32 46  1  0  0  0  0
 32 68  1  0  0  0  0
 32 73  2  0  0  0  0
 33 56  1  0  0  0  0
 33 64  1  0  0  0  0
 33 74  2  0  0  0  0
 34 57  1  0  0  0  0
 34 69  1  0  0  0  0
 34 75  2  0  0  0  0
 35 65  1  0  0  0  0
 35 70  1  0  0  0  0
 35 76  2  0  0  0  0
 36 39  1  0  0  0  0
 37 46  1  0  0  0  0
 38 64  1  0  0  0  0
 39 41  1  0  0  0  0
 40 42  1  0  0  0  0
 40 43  1  0  0  0  0
 41 45  1  0  0  0  0
 42 47  1  0  0  0  0
 43 65  1  0  0  0  0
 44 47  1  0  0  0  0
 44 65  1  0  0  0  0
 45 68  1  0  0  0  0
 46 64  1  0  0  0  0
 47 63  1  0  0  0  0
 49 57  1  0  0  0  0
 50 58  1  0  0  0  0
 51 58  1  0  0  0  0
 52 58  1  0  0  0  0
 53 71  1  0  0  0  0
 54 70  1  0  0  0  0
 55 78  1  0  0  0  0
 56 58  1  0  0  0  0
 56 69  1  0  0  0  0
 57 71  1  0  0  0  0
 59 63  1  0  0  0  0
M  CHG  1  71   1
M  ISO  4  35 100  55 101  70 100  78 101
M  END
> <Batch ID>
0057

> <Smiles>
CNC(C)C(=O)NC(C(=O)N1Cc2cc([101O:1][101CH2:1]c3nc(C)nc(C[100NH:0][100C:0](=O)N4CCCC(n5nc(-c6ccc(Oc7ccc(F)cc7F)cc6)c(C(N)=O)c5N)C4)n3)ccc2CC1C(=O)NC1CCCc2ccccc21)C(C)(C)C

> <Shape>
0.142

> <Color>
0.178

> <Negative vol penalty>
0.000

$$$$

  -OEChem-04052317483D

 81 89  0     1  0  0  0  0  0999 V2000
  -18.7717  -32.8741   20.0182 C   0  0  0  0  0  0  0  0  0  0  0  0
  -20.0531  -32.4814   19.6453 C   0  0  0  0  0  0  0  0  0  0  0  0
  -25.3356  -15.6567   21.6545 C   0  0  0  0  0  0  0  0  0  0  0  0
  -24.9577  -16.0761   19.3053 C   0  0  0  0  0  0  0  0  0  0  0  0
  -18.3017  -32.5894   21.2996 C   0  0  0  0  0  0  0  0  0  0  0  0
  -20.8658  -31.8045   20.5540 C   0  0  0  0  0  0  0  0  0  0  0  0
  -24.9396  -27.4107   19.2871 C   0  0  0  0  0  0  0  0  0  0  0  0
  -24.1504  -14.9236   21.7142 C   0  0  0  0  0  0  0  0  0  0  0  0
  -23.7726  -15.3430   19.3651 C   0  0  0  0  0  0  0  0  0  0  0  0
  -26.3237  -27.4345   19.1212 C   0  0  0  0  0  0  0  0  0  0  0  0
  -20.8309  -13.2785   18.8150 C   0  0  0  0  0  0  0  0  0  0  0  0
  -20.5818  -12.3626   17.7929 C   0  0  0  0  0  0  0  0  0  0  0  0
  -26.6051  -26.7785   21.4254 C   0  0  0  0  0  0  0  0  0  0  0  0
  -22.6049  -11.1727   18.3660 C   0  0  0  0  0  0  0  0  0  0  0  0
  -31.6167  -24.9148   21.1286 C   0  0  0  0  0  0  0  0  0  0  0  0
  -31.1668  -25.5296   19.0660 C   0  0  0  0  0  0  0  0  0  0  0  0
  -25.7392  -16.2330   20.4500 C   0  0  0  0  0  0  0  0  0  0  0  0
  -28.2506  -16.5038   20.0935 C   0  0  0  0  0  0  0  0  0  0  0  0
  -19.1055  -31.9001   22.2213 C   0  0  0  0  0  0  0  0  0  0  0  0
  -24.3771  -27.0807   20.5285 C   0  0  0  0  0  0  0  0  0  0  0  0
  -20.4066  -31.5114   21.8494 C   0  0  0  0  0  0  0  0  0  0  0  0
  -25.2136  -26.7488   21.6038 C   0  0  0  0  0  0  0  0  0  0  0  0
  -31.1681  -26.0024   20.3555 C   0  0  0  0  0  0  0  0  0  0  0  0
  -23.3689  -14.7667   20.5695 C   0  0  0  0  0  0  0  0  0  0  0  0
  -27.1567  -27.1211   20.1912 C   0  0  0  0  0  0  0  0  0  0  0  0
  -21.9670  -13.1415   19.6126 C   0  0  0  0  0  0  0  0  0  0  0  0
  -21.4687  -11.3097   17.5684 C   0  0  0  0  0  0  0  0  0  0  0  0
  -22.8540  -12.0886   19.3881 C   0  0  0  0  0  0  0  0  0  0  0  0
  -26.9630  -16.9909   20.3878 C   0  0  0  0  0  0  0  0  0  0  0  0
  -29.0603  -17.6112   20.1601 C   0  0  0  0  0  0  0  0  0  0  0  0
  -28.6766  -15.1695   19.7872 C   0  0  0  0  0  0  0  0  0  0  0  0
  -22.5383  -28.5966   22.6321 C   0  0  0  0  0  0  0  0  0  0  0  0
  -22.5162  -25.7078   24.1076 C   0  0  0  0  0  0  0  0  0  0  0  0
  -24.0503  -22.7019   24.6150 C   0  0  0  0  0  0  0  0  0  0  0  0
  -28.4826  -23.3478   18.8031 C   0  0  0  0  0  0  0  0  0  0  0  0
  -18.5714  -31.6565   23.6105 C   0  0  0  0  0  0  0  0  0  0  0  0
  -22.8818  -27.0337   20.6839 C   0  0  0  0  0  0  0  0  0  0  0  0
  -24.6593  -26.3681   22.9515 C   0  0  0  0  0  0  0  0  0  0  0  0
  -19.3576  -30.6054   24.3897 C   0  0  0  0  0  0  0  0  0  0  0  0
  -28.7352  -22.0634   22.2655 C   0  0  0  0  0  0  0  0  0  0  0  0
  -20.8568  -30.8556   24.2604 C   0  0  0  0  0  0  0  0  0  0  0  0
  -28.3508  -20.5936   22.1044 C   0  0  0  0  0  0  0  0  0  0  0  0
  -28.0791  -22.9409   21.2038 C   0  0  0  0  0  0  0  0  0  0  0  0
  -27.9541  -21.0238   19.6472 C   0  0  0  0  0  0  0  0  0  0  0  0
  -21.3090  -30.7534   22.7987 C   0  0  1  0  0  0  0  0  0  0  0  0
  -22.4265  -27.1840   22.1322 C   0  0  1  0  0  0  0  0  0  0  0  0
  -28.6354  -20.1059   20.6732 C   0  0  2  0  0  0  0  0  0  0  0  0
  -23.8134  -20.5622   25.9045 C   0  0  0  0  0  0  0  0  0  0  0  0
  -23.4440  -27.1343   26.6402 C   0  0  0  0  0  0  0  0  0  0  0  0
  -24.0929  -24.9042   27.5750 C   0  0  0  0  0  0  0  0  0  0  0  0
  -21.7084  -25.3725   27.0116 C   0  0  0  0  0  0  0  0  0  0  0  0
  -29.0558  -23.4885   16.4091 C   0  0  0  0  0  0  0  0  0  0  0  0
  -23.8944  -21.0904   22.1375 C   0  0  0  0  0  0  0  0  0  0  0  0
  -30.7739  -27.3786   20.8339 C   0  0  0  0  0  0  0  0  0  0  0  0
  -31.7623  -23.3237   18.0375 C   0  0  0  0  0  0  0  0  0  0  0  0
  -30.6186  -22.3198   17.9182 C   0  0  0  0  0  0  0  0  0  0  0  0
  -29.2916  -27.4699   21.1794 C   0  0  0  0  0  0  0  0  0  1  0  0
  -23.3789  -25.0306   25.1449 C   0  0  1  0  0  0  0  0  0  0  0  0
  -23.5140  -21.2818   24.5987 C   0  0  2  0  0  0  0  0  0  0  0  0
  -23.1668  -25.6194   26.5682 C   0  0  0  0  0  0  0  0  0  0  0  0
  -31.8809  -23.8326   20.3917 N   0  0  0  0  0  0  0  0  0  0  0  0
  -26.9506  -18.3055   20.6240 N   0  0  0  0  0  0  0  0  0  0  0  0
  -31.5974  -24.2378   19.1421 N   0  0  0  0  0  0  0  0  0  0  0  0
  -28.2404  -18.6538   20.4782 N   0  0  0  0  0  0  0  0  0  0  0  0
  -23.1909  -26.3426   23.0552 N   0  0  0  0  0  0  0  0  0  0  0  0
  -28.3294  -22.4303   19.8555 N   0  0  0  0  0  0  0  0  0  0  0  0
  -30.3864  -17.7852   19.9771 N   0  0  0  0  0  0  0  0  0  0  0  0
  -27.7147  -14.1505   19.7607 N   0  0  0  0  0  0  0  0  0  0  0  0
  -21.4151  -29.3667   22.3982 N   0  0  0  0  0  0  0  0  0  0  0  0
  -23.0974  -23.6029   25.0409 N   0  0  0  0  0  0  0  0  0  0  0  0
  -29.3225  -22.9718   17.7440 N   0  0  0  0  0  0  0  0  0  0  0  0
  -24.1300  -20.5082   23.4838 N   0  3  0  0  0  0  0  0  0  0  0  0
  -29.8774  -14.8863   19.5602 O   0  0  0  0  0  0  0  0  0  0  0  0
  -23.5670  -28.9603   23.1901 O   0  0  0  0  0  0  0  0  0  0  0  0
  -21.2886  -25.6688   24.2229 O   0  0  0  0  0  0  0  0  0  0  0  0
  -25.2007  -22.9832   24.2865 O   0  0  0  0  0  0  0  0  0  0  0  0
  -27.9093  -24.4447   18.8145 O   0  0  0  0  0  0  0  0  0  0  0  0
  -22.2126  -14.0512   20.6274 O   0  0  0  0  0  0  0  0  0  0  0  0
  -28.5080  -27.1442   20.0321 O   0  0  0  0  0  0  0  0  0  1  0  0
  -21.2286  -10.4294   16.5878 F   0  0  0  0  0  0  0  0  0  0  0  0
  -23.9465  -11.9512   20.1519 F   0  0  0  0  0  0  0  0  0  0  0  0
  1  2  1  0  0  0  0
  1  5  2  0  0  0  0
  2  6  2  0  0  0  0
  3  8  2  0  0  0  0
  3 17  1  0  0  0  0
  4  9  1  0  0  0  0
  4 17  2  0  0  0  0
  5 19  1  0  0  0  0
  6 21  1  0  0  0  0
  7 10  2  0  0  0  0
  7 20  1  0  0  0  0
  8 24  1  0  0  0  0
  9 24  2  0  0  0  0
 10 25  1  0  0  0  0
 11 12  2  0  0  0  0
 11 26  1  0  0  0  0
 12 27  1  0  0  0  0
 13 22  1  0  0  0  0
 13 25  2  0  0  0  0
 14 27  2  0  0  0  0
 14 28  1  0  0  0  0
 15 23  1  0  0  0  0
 15 61  2  0  0  0  0
 16 23  2  0  0  0  0
 16 63  1  0  0  0  0
 17 29  1  0  0  0  0
 18 29  1  0  0  0  0
 18 30  2  0  0  0  0
 18 31  1  0  0  0  0
 19 21  2  0  0  0  0
 19 36  1  0  0  0  0
 20 22  2  0  0  0  0
 20 37  1  0  0  0  0
 21 45  1  0  0  0  0
 22 38  1  0  0  0  0
 23 54  1  0  0  0  0
 24 78  1  0  0  0  0
 25 79  1  0  0  0  0
 26 28  2  0  0  0  0
 26 78  1  0  0  0  0
 27 80  1  0  0  0  0
 28 81  1  0  0  0  0
 29 62  2  0  0  0  0
 30 64  1  0  0  0  0
 30 67  1  0  0  0  0
 31 68  1  0  0  0  0
 31 73  2  0  0  0  0
 32 46  1  0  0  0  0
 32 69  1  0  0  0  0
 32 74  2  0  0  0  0
 33 58  1  0  0  0  0
 33 65  1  0  0  0  0
 33 75  2  0  0  0  0
 34 59  1  0  0  0  0
 34 70  1  0  0  0  0
 34 76  2  0  0  0  0
 35 66  1  0  0  0  0
 35 71  1  0  0  0  0
 35 77  2  0  0  0  0
 36 39  1  0  0  0  0
 37 46  1  0  0  0  0
 38 65  1  0  0  0  0
 39 41  1  0  0  0  0
 40 42  1  0  0  0  0
 40 43  1  0  0  0  0
 41 45  1  0  0  0  0
 42 47  1  0  0  0  0
 43 66  1  0  0  0  0
 44 47  1  0  0  0  0
 44 66  1  0  0  0  0
 45 69  1  0  0  0  0
 46 65  1  0  0  0  0
 47 64  1  0  0  0  0
 48 59  1  0  0  0  0
 49 60  1  0  0  0  0
 50 60  1  0  0  0  0
 51 60  1  0  0  0  0
 52 71  1  0  0  0  0
 53 72  1  0  0  0  0
 54 57  1  0  0  0  0
 55 56  1  0  0  0  0
 55 63  1  0  0  0  0
 56 71  1  0  0  0  0
 57 79  1  0  0  0  0
 58 60  1  0  0  0  0
 58 70  1  0  0  0  0
 59 72  1  0  0  0  0
 61 63  1  0  0  0  0
 62 64  1  0  0  0  0
M  CHG  1  72   1
M  ISO  4  35 100  57 101  71 100  79 101
M  END
> <Batch ID>
0057

> <Smiles>
CNC(C)C(=O)NC(C(=O)N1Cc2cc([101O:1][101CH2:1]Cc3cnn(CC[100N:0](C)[100C:0](=O)N4CCCC(n5nc(-c6ccc(Oc7ccc(F)cc7F)cc6)c(C(N)=O)c5N)C4)c3)ccc2CC1C(=O)NC1CCCc2ccccc21)C(C)(C)C

> <Shape>
0.205

> <Color>
0.098

> <Negative vol penalty>
0.000

$$$$

  -OEChem-04052317483D

 84 92  0     1  0  0  0  0  0999 V2000
  -28.6186  -36.0394   22.5947 C   0  0  0  0  0  0  0  0  0  0  0  0
  -28.7521  -34.6577   22.5030 C   0  0  0  0  0  0  0  0  0  0  0  0
  -24.0876  -12.1926   19.9027 C   0  0  0  0  0  0  0  0  0  0  0  0
  -25.2767  -12.4035   21.9952 C   0  0  0  0  0  0  0  0  0  0  0  0
  -27.4312  -36.5938   23.0706 C   0  0  0  0  0  0  0  0  0  0  0  0
  -27.6985  -33.8295   22.8883 C   0  0  0  0  0  0  0  0  0  0  0  0
  -26.8548  -30.0917   19.5774 C   0  0  0  0  0  0  0  0  0  0  0  0
  -24.1734  -10.8034   19.9939 C   0  0  0  0  0  0  0  0  0  0  0  0
  -25.3624  -11.0143   22.0865 C   0  0  0  0  0  0  0  0  0  0  0  0
  -27.7191  -28.9985   19.6174 C   0  0  0  0  0  0  0  0  0  0  0  0
  -23.7627   -7.1940   19.8566 C   0  0  0  0  0  0  0  0  0  0  0  0
  -22.6150   -6.4535   19.5740 C   0  0  0  0  0  0  0  0  0  0  0  0
  -26.0788  -27.7552   20.8755 C   0  0  0  0  0  0  0  0  0  0  0  0
  -21.4505   -7.5722   21.3710 C   0  0  0  0  0  0  0  0  0  0  0  0
  -29.6533  -24.1093   21.9249 C   0  0  0  0  0  0  0  0  0  0  0  0
  -24.6393  -12.9927   20.9033 C   0  0  0  0  0  0  0  0  0  0  0  0
  -23.5253  -15.2513   21.3096 C   0  0  0  0  0  0  0  0  0  0  0  0
  -26.3590  -35.7723   23.4528 C   0  0  0  0  0  0  0  0  0  0  0  0
  -25.5982  -30.0285   20.1966 C   0  0  0  0  0  0  0  0  0  0  0  0
  -26.4960  -34.3734   23.3710 C   0  0  0  0  0  0  0  0  0  0  0  0
  -25.1993  -28.8480   20.8397 C   0  0  0  0  0  0  0  0  0  0  0  0
  -24.8107  -10.2142   21.0859 C   0  0  0  0  0  0  0  0  0  0  0  0
  -27.3324  -27.8310   20.2690 C   0  0  0  0  0  0  0  0  0  0  0  0
  -23.7544   -8.1237   20.8965 C   0  0  0  0  0  0  0  0  0  0  0  0
  -21.4589   -6.6426   20.3311 C   0  0  0  0  0  0  0  0  0  0  0  0
  -22.5983   -8.3128   21.6537 C   0  0  0  0  0  0  0  0  0  0  0  0
  -24.5516  -14.4278   20.8092 C   0  0  0  0  0  0  0  0  0  0  0  0
  -30.4192  -23.1153   21.2868 C   0  0  0  0  0  0  0  0  0  0  0  0
  -28.7867  -24.5506   20.9549 C   0  0  0  0  0  0  0  0  0  0  0  0
  -23.9079  -16.5246   20.9648 C   0  0  0  0  0  0  0  0  0  0  0  0
  -22.3328  -14.8970   22.0224 C   0  0  0  0  0  0  0  0  0  0  0  0
  -24.1813  -31.6091   22.5625 C   0  0  0  0  0  0  0  0  0  0  0  0
  -21.6038  -29.8532   21.6705 C   0  0  0  0  0  0  0  0  0  0  0  0
  -20.3959  -27.0427   20.1577 C   0  0  0  0  0  0  0  0  0  0  0  0
  -29.2327  -19.0140   19.8242 C   0  0  0  0  0  0  0  0  0  0  0  0
  -25.1122  -36.4162   24.0057 C   0  0  0  0  0  0  0  0  0  0  0  0
  -24.6667  -31.2071   20.1215 C   0  0  0  0  0  0  0  0  0  0  0  0
  -23.8528  -28.7221   21.5025 C   0  0  0  0  0  0  0  0  0  0  0  0
  -23.9071  -35.4799   24.0404 C   0  0  0  0  0  0  0  0  0  0  0  0
  -26.4068  -18.9180   17.6605 C   0  0  0  0  0  0  0  0  0  0  0  0
  -24.3002  -34.1252   24.6211 C   0  0  0  0  0  0  0  0  0  0  0  0
  -25.5183  -17.8307   18.2673 C   0  0  0  0  0  0  0  0  0  0  0  0
  -27.8888  -18.5735   17.7904 C   0  0  0  0  0  0  0  0  0  0  0  0
  -27.4450  -17.1708   19.7676 C   0  0  0  0  0  0  0  0  0  0  0  0
  -25.3666  -33.4426   23.7559 C   0  0  1  0  0  0  0  0  0  0  0  0
  -23.6168  -31.2104   21.2283 C   0  0  1  0  0  0  0  0  0  0  0  0
  -25.9434  -17.4998   19.7106 C   0  0  2  0  0  0  0  0  0  0  0  0
  -18.2466  -25.8656   19.6168 C   0  0  0  0  0  0  0  0  0  0  0  0
  -29.2236  -20.1908   23.9902 C   0  0  0  0  0  0  0  0  0  0  0  0
  -21.3687  -28.9523   24.5762 C   0  0  0  0  0  0  0  0  0  0  0  0
  -19.8648  -27.1038   23.8085 C   0  0  0  0  0  0  0  0  0  0  0  0
  -19.1898  -29.4811   23.4684 C   0  0  0  0  0  0  0  0  0  0  0  0
  -28.4313  -23.9192   18.5488 C   0  0  0  0  0  0  0  0  0  0  0  0
  -20.9084  -27.1979   17.2471 C   0  0  0  0  0  0  0  0  0  0  0  0
  -32.2454  -20.7332   23.6483 C   0  0  0  0  0  0  0  0  0  0  0  0
  -31.5059  -22.3089   21.8676 C   0  0  0  0  0  0  0  0  0  0  0  0
  -27.7137  -25.5986   20.9947 C   0  0  0  0  0  0  0  0  0  1  0  0
  -30.4876  -19.3446   21.9397 C   0  0  0  0  0  0  0  0  0  0  0  0
  -21.0442  -28.5047   22.0542 C   0  0  1  0  0  0  0  0  0  0  0  0
  -19.3003  -26.8460   19.1255 C   0  0  2  0  0  0  0  0  0  0  0  0
  -29.9490  -20.5535   22.7016 C   0  0  2  0  0  0  0  0  0  0  0  0
  -20.3931  -28.5132   23.4661 C   0  0  0  0  0  0  0  0  0  0  0  0
  -25.5138  -15.1197   20.1933 N   0  0  0  0  0  0  0  0  0  0  0  0
  -30.0699  -22.9354   20.0102 N   0  0  0  0  0  0  0  0  0  0  0  0
  -29.0749  -23.8222   19.8383 N   0  0  0  0  0  0  0  0  0  0  0  0
  -25.0938  -16.3915   20.3043 N   0  0  0  0  0  0  0  0  0  0  0  0
  -22.9800  -29.9040   21.4073 N   0  0  0  0  0  0  0  0  0  0  0  0
  -28.2270  -18.2717   19.1834 N   0  0  0  0  0  0  0  0  0  0  0  0
  -23.3423  -17.7339   21.1651 N   0  0  0  0  0  0  0  0  0  0  0  0
  -22.0940  -13.5429   22.2938 N   0  0  0  0  0  0  0  0  0  0  0  0
  -24.7639  -32.8621   22.5752 N   0  0  0  0  0  0  0  0  0  0  0  0
  -20.1360  -28.1189   20.9797 N   0  0  0  0  0  0  0  0  0  0  0  0
  -29.4863  -18.6678   21.1458 N   0  0  0  0  0  0  0  0  0  0  0  0
  -19.8744  -26.3211   17.8544 N   0  3  0  0  0  0  0  0  0  0  0  0
  -31.0882  -21.4761   23.0388 N   0  3  1  0  0  0  0  0  0  0  0  0
  -21.4954  -15.7544   22.3930 O   0  0  0  0  0  0  0  0  0  0  0  0
  -24.0934  -30.8378   23.5107 O   0  0  0  0  0  0  0  0  0  0  0  0
  -20.8464  -30.8243   21.5996 O   0  0  0  0  0  0  0  0  0  0  0  0
  -21.3816  -26.3122   20.2302 O   0  0  0  0  0  0  0  0  0  0  0  0
  -29.8546  -19.9218   19.2620 O   0  0  0  0  0  0  0  0  0  0  0  0
  -24.8944   -8.8587   21.1754 O   0  0  0  0  0  0  0  0  0  0  0  0
  -28.1744  -26.7628   20.3100 O   0  0  0  0  0  0  0  0  0  1  0  0
  -20.3563   -5.9325   20.0586 F   0  0  0  0  0  0  0  0  0  0  0  0
  -22.5839   -9.2053   22.6532 F   0  0  0  0  0  0  0  0  0  0  0  0
  1  2  1  0  0  0  0
  1  5  2  0  0  0  0
  2  6  2  0  0  0  0
  3  8  2  0  0  0  0
  3 16  1  0  0  0  0
  4  9  1  0  0  0  0
  4 16  2  0  0  0  0
  5 18  1  0  0  0  0
  6 20  1  0  0  0  0
  7 10  2  0  0  0  0
  7 19  1  0  0  0  0
  8 22  1  0  0  0  0
  9 22  2  0  0  0  0
 10 23  1  0  0  0  0
 11 12  2  0  0  0  0
 11 24  1  0  0  0  0
 12 25  1  0  0  0  0
 13 21  1  0  0  0  0
 13 23  2  0  0  0  0
 14 25  2  0  0  0  0
 14 26  1  0  0  0  0
 15 28  1  0  0  0  0
 15 29  2  0  0  0  0
 16 27  1  0  0  0  0
 17 27  1  0  0  0  0
 17 30  2  0  0  0  0
 17 31  1  0  0  0  0
 18 20  2  0  0  0  0
 18 36  1  0  0  0  0
 19 21  2  0  0  0  0
 19 37  1  0  0  0  0
 20 45  1  0  0  0  0
 21 38  1  0  0  0  0
 22 81  1  0  0  0  0
 23 82  1  0  0  0  0
 24 26  2  0  0  0  0
 24 81  1  0  0  0  0
 25 83  1  0  0  0  0
 26 84  1  0  0  0  0
 27 63  2  0  0  0  0
 28 56  1  0  0  0  0
 28 64  2  0  0  0  0
 29 57  1  0  0  0  0
 29 65  1  0  0  0  0
 30 66  1  0  0  0  0
 30 69  1  0  0  0  0
 31 70  1  0  0  0  0
 31 76  2  0  0  0  0
 32 46  1  0  0  0  0
 32 71  1  0  0  0  0
 32 77  2  0  0  0  0
 33 59  1  0  0  0  0
 33 67  1  0  0  0  0
 33 78  2  0  0  0  0
 34 60  1  0  0  0  0
 34 72  1  0  0  0  0
 34 79  2  0  0  0  0
 35 68  1  0  0  0  0
 35 73  1  0  0  0  0
 35 80  2  0  0  0  0
 36 39  1  0  0  0  0
 37 46  1  0  0  0  0
 38 67  1  0  0  0  0
 39 41  1  0  0  0  0
 40 42  1  0  0  0  0
 40 43  1  0  0  0  0
 41 45  1  0  0  0  0
 42 47  1  0  0  0  0
 43 68  1  0  0  0  0
 44 47  1  0  0  0  0
 44 68  1  0  0  0  0
 45 71  1  0  0  0  0
 46 67  1  0  0  0  0
 47 66  1  0  0  0  0
 48 60  1  0  0  0  0
 49 61  1  0  0  0  0
 50 62  1  0  0  0  0
 51 62  1  0  0  0  0
 52 62  1  0  0  0  0
 53 65  1  0  0  0  0
 54 74  1  0  0  0  0
 55 75  1  0  0  0  0
 56 75  1  0  0  0  0
 57 82  1  0  0  0  0
 58 61  1  0  0  0  0
 58 73  1  0  0  0  0
 59 62  1  0  0  0  0
 59 72  1  0  0  0  0
 60 74  1  0  0  0  0
 61 75  1  0  0  0  0
 63 66  1  0  0  0  0
 64 65  1  0  0  0  0
M  CHG  2  74   1  75   1
M  ISO  4  35 100  57 101  73 100  82 101
M  END
> <Batch ID>
0057

> <Smiles>
CNC(C)C(=O)NC(C(=O)N1Cc2cc([101O:1][101CH2:1]c3cc(CN(C)C(C)C[100NH:0][100C:0](=O)N4CCCC(n5nc(-c6ccc(Oc7ccc(F)cc7F)cc6)c(C(N)=O)c5N)C4)nn3C)ccc2CC1C(=O)NC1CCCc2ccccc21)C(C)(C)C

> <Shape>
0.301

> <Color>
0.087

> <Negative vol penalty>
0.000

$$$$

  -OEChem-04052317483D

 90 98  0     1  0  0  0  0  0999 V2000
  -21.6792  -29.8799   28.0615 C   0  0  0  0  0  0  0  0  0  0  0  0
  -21.7357  -28.4909   28.1164 C   0  0  0  0  0  0  0  0  0  0  0  0
  -23.2013   -9.8444   19.9787 C   0  0  0  0  0  0  0  0  0  0  0  0
  -23.9310   -9.9489   22.2794 C   0  0  0  0  0  0  0  0  0  0  0  0
  -22.2201  -30.5557   26.9685 C   0  0  0  0  0  0  0  0  0  0  0  0
  -22.3323  -27.7769   27.0779 C   0  0  0  0  0  0  0  0  0  0  0  0
  -25.5464  -22.5854   27.5506 C   0  0  0  0  0  0  0  0  0  0  0  0
  -22.5133   -8.6619   20.2505 C   0  0  0  0  0  0  0  0  0  0  0  0
  -23.2430   -8.7664   22.5514 C   0  0  0  0  0  0  0  0  0  0  0  0
  -25.2041  -21.2487   27.3506 C   0  0  0  0  0  0  0  0  0  0  0  0
  -21.3818   -5.9676   23.9373 C   0  0  0  0  0  0  0  0  0  0  0  0
  -20.6140   -5.9160   25.1007 C   0  0  0  0  0  0  0  0  0  0  0  0
  -26.0735  -21.3687   25.1036 C   0  0  0  0  0  0  0  0  0  0  0  0
  -19.2828   -7.7682   24.3044 C   0  0  0  0  0  0  0  0  0  0  0  0
  -30.6548  -16.8843   21.6392 C   0  0  0  0  0  0  0  0  0  0  0  0
  -23.9102  -10.4879   20.9931 C   0  0  0  0  0  0  0  0  0  0  0  0
  -24.1260  -13.0232   20.8104 C   0  0  0  0  0  0  0  0  0  0  0  0
  -22.8323  -29.8502   25.9206 C   0  0  0  0  0  0  0  0  0  0  0  0
  -26.1459  -23.3280   26.5233 C   0  0  0  0  0  0  0  0  0  0  0  0
  -22.8808  -28.4439   25.9692 C   0  0  0  0  0  0  0  0  0  0  0  0
  -26.4248  -22.7139   25.2940 C   0  0  0  0  0  0  0  0  0  0  0  0
  -22.5341   -8.1229   21.5369 C   0  0  0  0  0  0  0  0  0  0  0  0
  -25.4650  -20.6410   26.1259 C   0  0  0  0  0  0  0  0  0  0  0  0
  -21.1001   -6.9196   22.9574 C   0  0  0  0  0  0  0  0  0  0  0  0
  -19.5645   -6.8162   25.2842 C   0  0  0  0  0  0  0  0  0  0  0  0
  -20.0506   -7.8199   23.1410 C   0  0  0  0  0  0  0  0  0  0  0  0
  -24.6215  -11.7091   20.7127 C   0  0  0  0  0  0  0  0  0  0  0  0
  -29.9343  -15.8329   22.1614 C   0  0  0  0  0  0  0  0  0  0  0  0
  -28.8546  -18.2637   21.9323 C   0  0  0  0  0  0  0  0  0  0  0  0
  -28.1337  -17.2122   22.4539 C   0  0  0  0  0  0  0  0  0  0  0  0
  -25.1835  -13.8174   20.4398 C   0  0  0  0  0  0  0  0  0  0  0  0
  -22.8260  -13.4846   21.2013 C   0  0  0  0  0  0  0  0  0  0  0  0
  -25.3438  -25.9197   24.8669 C   0  0  0  0  0  0  0  0  0  0  0  0
  -28.3340  -25.5930   23.6528 C   0  0  0  0  0  0  0  0  0  0  0  0
  -30.9700  -13.9670   20.9311 C   0  0  0  0  0  0  0  0  0  0  0  0
  -30.9787  -23.5447   22.9768 C   0  0  0  0  0  0  0  0  0  0  0  0
  -23.3610  -30.6217   24.7375 C   0  0  0  0  0  0  0  0  0  0  0  0
  -26.5334  -24.7613   26.7640 C   0  0  0  0  0  0  0  0  0  0  0  0
  -27.0853  -23.4616   24.1657 C   0  0  0  0  0  0  0  0  0  0  0  0
  -24.3091  -29.8120   23.8567 C   0  0  0  0  0  0  0  0  0  0  0  0
  -29.3321  -13.1295   17.8561 C   0  0  0  0  0  0  0  0  0  0  0  0
  -23.7274  -28.4302   23.5758 C   0  0  0  0  0  0  0  0  0  0  0  0
  -27.9110  -12.7746   18.2914 C   0  0  0  0  0  0  0  0  0  0  0  0
  -30.3594  -12.6985   18.8983 C   0  0  0  0  0  0  0  0  0  0  0  0
  -28.6788  -12.8851   20.7045 C   0  0  0  0  0  0  0  0  0  0  0  0
  -23.5418  -27.6354   24.8740 C   0  0  1  0  0  0  0  0  0  0  0  0
  -26.6713  -25.5673   25.4761 C   0  0  1  0  0  0  0  0  0  0  0  0
  -27.6072  -13.3308   19.6938 C   0  0  2  0  0  0  0  0  0  0  0  0
  -29.1033  -20.5447   20.9214 C   0  0  0  0  0  0  0  0  0  0  0  0
  -30.3542  -17.4562   27.2088 C   0  0  0  0  0  0  0  0  0  0  0  0
  -33.2662  -23.5567   21.9452 C   0  0  0  0  0  0  0  0  0  0  0  0
  -27.0775  -25.6592   20.8731 C   0  0  0  0  0  0  0  0  0  0  0  0
  -29.2164  -24.7318   19.9604 C   0  0  0  0  0  0  0  0  0  0  0  0
  -29.2045  -26.9571   21.0877 C   0  0  0  0  0  0  0  0  0  0  0  0
  -32.2551  -22.7202   25.5164 C   0  0  0  0  0  0  0  0  0  0  0  0
  -28.2599  -19.6242   21.8004 C   0  0  0  0  0  0  0  0  0  0  0  0
  -26.7091  -17.3881   22.9158 C   0  0  0  0  0  0  0  0  0  0  0  0
  -29.1619  -17.4883   26.2664 C   0  0  0  0  0  0  0  0  0  0  0  0
  -26.1544  -16.1853   23.6904 C   0  0  0  0  0  0  0  0  0  0  0  0
  -27.9009  -16.9948   26.9577 C   0  0  0  0  0  0  0  0  0  0  0  0
  -26.8750  -15.8574   24.9945 C   0  0  0  0  0  0  0  0  0  0  0  0
  -25.4328  -17.0572   26.6319 C   0  0  0  0  0  0  0  0  0  0  0  0
  -25.1500  -18.4808   27.0695 C   0  0  0  0  0  0  0  0  0  1  0  0
  -28.9367  -24.8621   22.4775 C   0  0  1  0  0  0  0  0  0  0  0  0
  -32.4669  -23.7042   23.2304 C   0  0  2  0  0  0  0  0  0  0  0  0
  -30.5493  -14.4829   22.2842 C   0  0  0  0  0  0  0  0  0  0  0  0
  -28.5945  -25.5387   21.1201 C   0  0  0  0  0  0  0  0  0  0  0  0
  -30.1279  -18.1186   21.5152 N   0  0  0  0  0  0  0  0  0  0  0  0
  -25.8948  -11.6667   20.3113 N   0  0  0  0  0  0  0  0  0  0  0  0
  -28.6607  -15.9779   22.5781 N   0  0  0  0  0  0  0  0  0  0  0  0
  -26.2082  -12.9640   20.1534 N   0  0  0  0  0  0  0  0  0  0  0  0
  -27.4394  -24.8625   24.4477 N   0  0  0  0  0  0  0  0  0  0  0  0
  -30.0232  -13.2286   20.2209 N   0  0  0  0  0  0  0  0  0  0  0  0
  -25.3275  -15.1555   20.3340 N   0  0  0  0  0  0  0  0  0  0  0  0
  -21.8570  -12.5343   21.5510 N   0  0  0  0  0  0  0  0  0  0  0  0
  -24.8101  -27.1075   25.3292 N   0  0  0  0  0  0  0  0  0  0  0  0
  -30.3662  -24.7591   22.7502 N   0  0  0  0  0  0  0  0  0  0  0  0
  -32.9404  -22.6753   24.1991 N   0  3  0  0  0  0  0  0  0  0  0  0
  -26.7606  -17.0027   25.9699 N   0  3  1  0  0  0  0  0  0  0  0  0
  -22.5274  -14.7027   21.2235 O   0  0  0  0  0  0  0  0  0  0  0  0
  -24.8415  -25.1701   24.0377 O   0  0  0  0  0  0  0  0  0  0  0  0
  -28.6510  -26.7666   23.8622 O   0  0  0  0  0  0  0  0  0  0  0  0
  -32.1055  -14.2164   20.5182 O   0  0  0  0  0  0  0  0  0  0  0  0
  -30.4165  -22.4518   22.9758 O   0  0  0  0  0  0  0  0  0  0  0  0
  -21.8627   -6.9691   21.8026 O   0  0  0  0  0  0  0  0  0  0  0  0
  -25.1313  -19.3367   25.9278 O   0  0  0  0  0  0  0  0  0  1  0  0
  -18.8263   -6.7655   26.4008 F   0  0  0  0  0  0  0  0  0  0  0  0
  -19.7745   -8.7359   22.2027 F   0  0  0  0  0  0  0  0  0  0  0  0
  -31.6460  -14.4728   23.1116 F   0  0  0  0  0  0  0  0  0  0  0  0
  -29.7017  -13.5637   22.8536 F   0  0  0  0  0  0  0  0  0  0  0  0
  1  2  1  0  0  0  0
  1  5  2  0  0  0  0
  2  6  2  0  0  0  0
  3  8  2  0  0  0  0
  3 16  1  0  0  0  0
  4  9  1  0  0  0  0
  4 16  2  0  0  0  0
  5 18  1  0  0  0  0
  6 20  1  0  0  0  0
  7 10  2  0  0  0  0
  7 19  1  0  0  0  0
  8 22  1  0  0  0  0
  9 22  2  0  0  0  0
 10 23  1  0  0  0  0
 11 12  2  0  0  0  0
 11 24  1  0  0  0  0
 12 25  1  0  0  0  0
 13 21  1  0  0  0  0
 13 23  2  0  0  0  0
 14 25  2  0  0  0  0
 14 26  1  0  0  0  0
 15 28  1  0  0  0  0
 15 68  2  0  0  0  0
 16 27  1  0  0  0  0
 17 27  1  0  0  0  0
 17 31  2  0  0  0  0
 17 32  1  0  0  0  0
 18 20  2  0  0  0  0
 18 37  1  0  0  0  0
 19 21  2  0  0  0  0
 19 38  1  0  0  0  0
 20 46  1  0  0  0  0
 21 39  1  0  0  0  0
 22 85  1  0  0  0  0
 23 86  1  0  0  0  0
 24 26  2  0  0  0  0
 24 85  1  0  0  0  0
 25 87  1  0  0  0  0
 26 88  1  0  0  0  0
 27 69  2  0  0  0  0
 28 66  1  0  0  0  0
 28 70  2  0  0  0  0
 29 30  2  0  0  0  0
 29 56  1  0  0  0  0
 29 68  1  0  0  0  0
 30 57  1  0  0  0  0
 30 70  1  0  0  0  0
 31 71  1  0  0  0  0
 31 74  1  0  0  0  0
 32 75  1  0  0  0  0
 32 80  2  0  0  0  0
 33 47  1  0  0  0  0
 33 76  1  0  0  0  0
 33 81  2  0  0  0  0
 34 64  1  0  0  0  0
 34 72  1  0  0  0  0
 34 82  2  0  0  0  0
 35 66  1  0  0  0  0
 35 73  1  0  0  0  0
 35 83  2  0  0  0  0
 36 65  1  0  0  0  0
 36 77  1  0  0  0  0
 36 84  2  0  0  0  0
 37 40  1  0  0  0  0
 38 47  1  0  0  0  0
 39 72  1  0  0  0  0
 40 42  1  0  0  0  0
 41 43  1  0  0  0  0
 41 44  1  0  0  0  0
 42 46  1  0  0  0  0
 43 48  1  0  0  0  0
 44 73  1  0  0  0  0
 45 48  1  0  0  0  0
 45 73  1  0  0  0  0
 46 76  1  0  0  0  0
 47 72  1  0  0  0  0
 48 71  1  0  0  0  0
 49 56  1  0  0  0  0
 50 58  1  0  0  0  0
 51 65  1  0  0  0  0
 52 67  1  0  0  0  0
 53 67  1  0  0  0  0
 54 67  1  0  0  0  0
 55 78  1  0  0  0  0
 57 59  1  0  0  0  0
 58 60  1  0  0  0  0
 59 61  1  0  0  0  0
 60 79  1  0  0  0  0
 61 79  1  0  0  0  0
 62 63  1  0  0  0  0
 62 79  1  0  0  0  0
 63 86  1  0  0  0  0
 64 67  1  0  0  0  0
 64 77  1  0  0  0  0
 65 78  1  0  0  0  0
 66 89  1  0  0  0  0
 66 90  1  0  0  0  0
 69 71  1  0  0  0  0
M  CHG  2  78   1  79   1
M  ISO  4  35 100  63 101  66 100  86 101
M  END
> <Batch ID>
0057

> <Smiles>
CCCN(CCCc1nc([100C:0](F)(F)[100C:0](=O)N2CCCC(n3nc(-c4ccc(Oc5ccc(F)cc5F)cc4)c(C(N)=O)c3N)C2)cnc1CC)C[101CH2:1][101O:1]c1ccc2c(c1)CN(C(=O)C(NC(=O)C(C)NC)C(C)(C)C)C(C(=O)NC1CCCc3ccccc31)C2

> <Shape>
0.209

> <Color>
0.172

> <Negative vol penalty>
0.000

$$$$

  -OEChem-04052317483D

 84 92  0     1  0  0  0  0  0999 V2000
  -20.6431  -18.9713   16.9714 C   0  0  0  0  0  0  0  0  0  0  0  0
  -21.7716  -19.3784   17.6759 C   0  0  0  0  0  0  0  0  0  0  0  0
  -26.2170  -29.7957   22.7911 C   0  0  0  0  0  0  0  0  0  0  0  0
  -24.6270  -30.8419   21.3030 C   0  0  0  0  0  0  0  0  0  0  0  0
  -20.2656  -17.6292   16.9774 C   0  0  0  0  0  0  0  0  0  0  0  0
  -22.5225  -18.4436   18.3878 C   0  0  0  0  0  0  0  0  0  0  0  0
  -27.5050  -19.0104   17.6815 C   0  0  0  0  0  0  0  0  0  0  0  0
  -26.0504  -30.8385   23.7023 C   0  0  0  0  0  0  0  0  0  0  0  0
  -24.4603  -31.8848   22.2143 C   0  0  0  0  0  0  0  0  0  0  0  0
  -28.1344  -20.0386   18.3817 C   0  0  0  0  0  0  0  0  0  0  0  0
  -23.8855  -35.0052   23.9869 C   0  0  0  0  0  0  0  0  0  0  0  0
  -23.8806  -36.3077   23.4879 C   0  0  0  0  0  0  0  0  0  0  0  0
  -28.9213  -18.4408   20.0087 C   0  0  0  0  0  0  0  0  0  0  0  0
  -26.1164  -35.9875   22.6300 C   0  0  0  0  0  0  0  0  0  0  0  0
  -26.8262  -24.1390   21.2837 C   0  0  0  0  0  0  0  0  0  0  0  0
  -25.5054  -29.7974   21.5914 C   0  0  0  0  0  0  0  0  0  0  0  0
  -26.8706  -28.3322   20.0113 C   0  0  0  0  0  0  0  0  0  0  0  0
  -21.0177  -16.6759   17.6818 C   0  0  0  0  0  0  0  0  0  0  0  0
  -27.5699  -17.6889   18.1463 C   0  0  0  0  0  0  0  0  0  0  0  0
  -22.1539  -17.0877   18.4043 C   0  0  0  0  0  0  0  0  0  0  0  0
  -28.2940  -17.3972   19.3111 C   0  0  0  0  0  0  0  0  0  0  0  0
  -25.1720  -31.8830   23.4139 C   0  0  0  0  0  0  0  0  0  0  0  0
  -28.8403  -19.7543   19.5471 C   0  0  0  0  0  0  0  0  0  0  0  0
  -25.0059  -34.1938   23.8076 C   0  0  0  0  0  0  0  0  0  0  0  0
  -24.9960  -36.7988   22.8094 C   0  0  0  0  0  0  0  0  0  0  0  0
  -26.1213  -34.6850   23.1291 C   0  0  0  0  0  0  0  0  0  0  0  0
  -25.6775  -28.7208   20.6494 C   0  0  0  0  0  0  0  0  0  0  0  0
  -28.1369  -22.6447   22.0451 C   0  0  0  0  0  0  0  0  0  0  0  0
  -26.8674  -22.2002   22.3306 C   0  0  0  0  0  0  0  0  0  0  0  0
  -26.5071  -27.2687   19.2218 C   0  0  0  0  0  0  0  0  0  0  0  0
  -28.1897  -28.8831   20.1225 C   0  0  0  0  0  0  0  0  0  0  0  0
  -25.4344  -15.5487   19.1273 C   0  0  0  0  0  0  0  0  0  0  0  0
  -28.0147  -13.5843   19.2008 C   0  0  0  0  0  0  0  0  0  0  0  0
  -31.4037  -13.2607   19.4399 C   0  0  0  0  0  0  0  0  0  0  0  0
  -21.6650  -23.5627   19.8195 C   0  0  0  0  0  0  0  0  0  0  0  0
  -20.5434  -15.2443   17.6977 C   0  0  0  0  0  0  0  0  0  0  0  0
  -26.9079  -16.5873   17.3650 C   0  0  0  0  0  0  0  0  0  0  0  0
  -28.4109  -15.9923   19.8412 C   0  0  0  0  0  0  0  0  0  0  0  0
  -21.6063  -14.2557   18.1701 C   0  0  0  0  0  0  0  0  0  0  0  0
  -22.7796  -25.4584   16.8420 C   0  0  0  0  0  0  0  0  0  0  0  0
  -22.2906  -14.7704   19.4325 C   0  0  0  0  0  0  0  0  0  0  0  0
  -23.6953  -26.5210   17.4473 C   0  0  0  0  0  0  0  0  0  0  0  0
  -21.6995  -25.0145   17.8239 C   0  0  0  0  0  0  0  0  0  0  0  0
  -23.1466  -25.6099   19.7384 C   0  0  0  0  0  0  0  0  0  0  0  0
  -23.0083  -16.0995   19.1682 C   0  0  1  0  0  0  0  0  0  0  0  0
  -26.6078  -15.3528   18.2095 C   0  0  1  0  0  0  0  0  0  0  0  0
  -24.2746  -26.0452   18.7909 C   0  0  2  0  0  0  0  0  0  0  0  0
  -26.3801  -20.9834   23.0043 C   0  0  0  0  0  0  0  0  0  0  0  0
  -33.2170  -11.5274   19.5088 C   0  0  0  0  0  0  0  0  0  0  0  0
  -29.7209  -21.7378   23.8747 C   0  0  0  0  0  0  0  0  0  0  0  0
  -30.6338  -22.8691   21.8587 C   0  0  0  0  0  0  0  0  0  0  0  0
  -27.2829  -12.9370   22.0914 C   0  0  0  0  0  0  0  0  0  0  0  0
  -29.5838  -11.9963   22.3900 C   0  0  0  0  0  0  0  0  0  0  0  0
  -28.0232  -10.9693   20.7370 C   0  0  0  0  0  0  0  0  0  0  0  0
  -21.9130  -21.6624   21.3709 C   0  0  0  0  0  0  0  0  0  0  0  0
  -32.6659  -14.3160   16.9799 C   0  0  0  0  0  0  0  0  0  0  0  0
  -24.5955  -23.1791   21.8806 C   0  0  0  0  0  0  0  0  0  0  0  0
  -23.9558  -22.7782   20.5540 C   0  0  0  0  0  0  0  0  0  0  0  0
  -29.5777  -20.5961   21.6455 C   0  0  0  0  0  0  0  0  0  1  0  0
  -29.0538  -13.2225   20.2344 C   0  0  1  0  0  0  0  0  0  0  0  0
  -32.3987  -12.4550   18.6242 C   0  0  2  0  0  0  0  0  0  0  0  0
  -29.4833  -21.9676   22.3627 C   0  0  0  0  0  0  0  0  0  0  0  0
  -28.4823  -12.3081   21.3545 C   0  0  0  0  0  0  0  0  0  0  0  0
  -28.1044  -23.8522   21.3936 N   0  0  0  0  0  0  0  0  0  0  0  0
  -24.6340  -27.9658   20.2957 N   0  0  0  0  0  0  0  0  0  0  0  0
  -26.0386  -23.1681   21.8373 N   0  0  0  0  0  0  0  0  0  0  0  0
  -25.1703  -27.0922   19.4266 N   0  0  0  0  0  0  0  0  0  0  0  0
  -27.7410  -14.9506   19.0452 N   0  0  0  0  0  0  0  0  0  0  0  0
  -22.2742  -24.6086   19.1069 N   0  0  0  0  0  0  0  0  0  0  0  0
  -27.2037  -26.4769   18.3791 N   0  0  0  0  0  0  0  0  0  0  0  0
  -28.5598  -29.9125   19.2464 N   0  0  0  0  0  0  0  0  0  0  0  0
  -24.2585  -15.8699   18.4764 N   0  0  0  0  0  0  0  0  0  0  0  0
  -30.1734  -12.6411   19.5016 N   0  0  0  0  0  0  0  0  0  0  0  0
  -22.4961  -22.7663   20.6218 N   0  0  0  0  0  0  0  0  0  0  0  0
  -33.3344  -13.3641   17.9039 N   0  3  0  0  0  0  0  0  0  0  0  0
  -29.0212  -28.4634   20.9627 O   0  0  0  0  0  0  0  0  0  0  0  0
  -25.5843  -15.4166   20.3363 O   0  0  0  0  0  0  0  0  0  0  0  0
  -27.4713  -12.6882   18.5503 O   0  0  0  0  0  0  0  0  0  0  0  0
  -31.6903  -14.3306   19.9725 O   0  0  0  0  0  0  0  0  0  0  0  0
  -20.4491  -23.3468   19.7355 O   0  0  0  0  0  0  0  0  0  0  0  0
  -25.0090  -32.9007   24.3030 O   0  0  0  0  0  0  0  0  0  0  0  0
  -29.4551  -20.7562   20.2328 O   0  0  0  0  0  0  0  0  0  1  0  0
  -24.9905  -38.0491   22.3289 F   0  0  0  0  0  0  0  0  0  0  0  0
  -27.2001  -33.9098   22.9527 F   0  0  0  0  0  0  0  0  0  0  0  0
  1  2  1  0  0  0  0
  1  5  2  0  0  0  0
  2  6  2  0  0  0  0
  3  8  2  0  0  0  0
  3 16  1  0  0  0  0
  4  9  1  0  0  0  0
  4 16  2  0  0  0  0
  5 18  1  0  0  0  0
  6 20  1  0  0  0  0
  7 10  2  0  0  0  0
  7 19  1  0  0  0  0
  8 22  1  0  0  0  0
  9 22  2  0  0  0  0
 10 23  1  0  0  0  0
 11 12  2  0  0  0  0
 11 24  1  0  0  0  0
 12 25  1  0  0  0  0
 13 21  1  0  0  0  0
 13 23  2  0  0  0  0
 14 25  2  0  0  0  0
 14 26  1  0  0  0  0
 15 64  2  0  0  0  0
 15 66  1  0  0  0  0
 16 27  1  0  0  0  0
 17 27  1  0  0  0  0
 17 30  2  0  0  0  0
 17 31  1  0  0  0  0
 18 20  2  0  0  0  0
 18 36  1  0  0  0  0
 19 21  2  0  0  0  0
 19 37  1  0  0  0  0
 20 45  1  0  0  0  0
 21 38  1  0  0  0  0
 22 81  1  0  0  0  0
 23 82  1  0  0  0  0
 24 26  2  0  0  0  0
 24 81  1  0  0  0  0
 25 83  1  0  0  0  0
 26 84  1  0  0  0  0
 27 65  2  0  0  0  0
 28 29  2  0  0  0  0
 28 62  1  0  0  0  0
 28 64  1  0  0  0  0
 29 48  1  0  0  0  0
 29 66  1  0  0  0  0
 30 67  1  0  0  0  0
 30 70  1  0  0  0  0
 31 71  1  0  0  0  0
 31 76  2  0  0  0  0
 32 46  1  0  0  0  0
 32 72  1  0  0  0  0
 32 77  2  0  0  0  0
 33 60  1  0  0  0  0
 33 68  1  0  0  0  0
 33 78  2  0  0  0  0
 34 61  1  0  0  0  0
 34 73  1  0  0  0  0
 34 79  2  0  0  0  0
 35 69  1  0  0  0  0
 35 74  1  0  0  0  0
 35 80  2  0  0  0  0
 36 39  1  0  0  0  0
 37 46  1  0  0  0  0
 38 68  1  0  0  0  0
 39 41  1  0  0  0  0
 40 42  1  0  0  0  0
 40 43  1  0  0  0  0
 41 45  1  0  0  0  0
 42 47  1  0  0  0  0
 43 69  1  0  0  0  0
 44 47  1  0  0  0  0
 44 69  1  0  0  0  0
 45 72  1  0  0  0  0
 46 68  1  0  0  0  0
 47 67  1  0  0  0  0
 49 61  1  0  0  0  0
 50 62  1  0  0  0  0
 51 62  1  0  0  0  0
 52 63  1  0  0  0  0
 53 63  1  0  0  0  0
 54 63  1  0  0  0  0
 55 74  1  0  0  0  0
 56 75  1  0  0  0  0
 57 58  1  0  0  0  0
 57 66  1  0  0  0  0
 58 74  1  0  0  0  0
 59 62  1  0  0  0  0
 59 82  1  0  0  0  0
 60 63  1  0  0  0  0
 60 73  1  0  0  0  0
 61 75  1  0  0  0  0
 65 67  1  0  0  0  0
M  CHG  1  75   1
M  ISO  4  35 100  59 101  74 100  82 101
M  END
> <Batch ID>
0057

> <Smiles>
CNC(C)C(=O)NC(C(=O)N1Cc2cc([101O:1][101CH2:1]C(C)(C)c3ncn(CC[100N:0](C)[100C:0](=O)N4CCCC(n5nc(-c6ccc(Oc7ccc(F)cc7F)cc6)c(C(N)=O)c5N)C4)c3C)ccc2CC1C(=O)NC1CCCc2ccccc21)C(C)(C)C

> <Shape>
0.233

> <Color>
0.067

> <Negative vol penalty>
0.000

$$$$

  -OEChem-04052317483D

 83 91  0     1  0  0  0  0  0999 V2000
  -29.6383  -11.6738   20.0797 C   0  0  0  0  0  0  0  0  0  0  0  0
  -29.7005  -12.9792   20.5564 C   0  0  0  0  0  0  0  0  0  0  0  0
  -28.7366  -23.3803   20.5030 C   0  0  0  0  0  0  0  0  0  0  0  0
  -28.6499  -23.2728   22.9150 C   0  0  0  0  0  0  0  0  0  0  0  0
  -28.6386  -11.3087   19.1789 C   0  0  0  0  0  0  0  0  0  0  0  0
  -28.7637  -13.9208   20.1317 C   0  0  0  0  0  0  0  0  0  0  0  0
  -25.2070  -19.6931   22.4441 C   0  0  0  0  0  0  0  0  0  0  0  0
  -28.6320  -21.9909   20.4373 C   0  0  0  0  0  0  0  0  0  0  0  0
  -28.5452  -21.8834   22.8493 C   0  0  0  0  0  0  0  0  0  0  0  0
  -24.9434  -21.0130   22.0806 C   0  0  0  0  0  0  0  0  0  0  0  0
  -30.6627  -19.3189   20.8385 C   0  0  0  0  0  0  0  0  0  0  0  0
  -31.5168  -18.6460   19.9649 C   0  0  0  0  0  0  0  0  0  0  0  0
  -23.2134  -20.2486   20.5832 C   0  0  0  0  0  0  0  0  0  0  0  0
  -29.6069  -17.7704   18.7720 C   0  0  0  0  0  0  0  0  0  0  0  0
  -23.9677  -26.5024   19.2474 C   0  0  0  0  0  0  0  0  0  0  0  0
  -23.2628  -25.7596   21.7129 C   0  0  0  0  0  0  0  0  0  0  0  0
  -28.7456  -24.0212   21.7419 C   0  0  0  0  0  0  0  0  0  0  0  0
  -29.9070  -26.2535   21.3224 C   0  0  0  0  0  0  0  0  0  0  0  0
  -27.6833  -12.2438   18.7505 C   0  0  0  0  0  0  0  0  0  0  0  0
  -24.4820  -18.6385   21.8709 C   0  0  0  0  0  0  0  0  0  0  0  0
  -27.7512  -13.5683   19.2234 C   0  0  0  0  0  0  0  0  0  0  0  0
  -23.4680  -18.9164   20.9431 C   0  0  0  0  0  0  0  0  0  0  0  0
  -28.5363  -21.2425   21.6104 C   0  0  0  0  0  0  0  0  0  0  0  0
  -23.9485  -21.2907   21.1478 C   0  0  0  0  0  0  0  0  0  0  0  0
  -29.2806  -19.2175   20.6790 C   0  0  0  0  0  0  0  0  0  0  0  0
  -30.9890  -17.8718   18.9316 C   0  0  0  0  0  0  0  0  0  0  0  0
  -28.7528  -18.4433   19.6457 C   0  0  0  0  0  0  0  0  0  0  0  0
  -28.8543  -25.4564   21.8104 C   0  0  0  0  0  0  0  0  0  0  0  0
  -23.2067  -27.3259   20.0477 C   0  0  0  0  0  0  0  0  0  0  0  0
  -24.0232  -24.9357   20.9125 C   0  0  0  0  0  0  0  0  0  0  0  0
  -29.5360  -27.5392   21.6319 C   0  0  0  0  0  0  0  0  0  0  0  0
  -31.1124  -25.8663   20.6495 C   0  0  0  0  0  0  0  0  0  0  0  0
  -25.2221  -16.1252   20.0711 C   0  0  0  0  0  0  0  0  0  0  0  0
  -22.1016  -15.3680   20.5310 C   0  0  0  0  0  0  0  0  0  0  0  0
  -18.9398  -16.4275   21.2573 C   0  0  0  0  0  0  0  0  0  0  0  0
  -23.9186  -29.7185   22.7426 C   0  0  0  0  0  0  0  0  0  0  0  0
  -26.6498  -11.8145   17.7393 C   0  0  0  0  0  0  0  0  0  0  0  0
  -24.7603  -17.2221   22.2936 C   0  0  0  0  0  0  0  0  0  0  0  0
  -22.6473  -17.8216   20.3136 C   0  0  0  0  0  0  0  0  0  0  0  0
  -25.4702  -12.7769   17.6279 C   0  0  0  0  0  0  0  0  0  0  0  0
  -26.9825  -30.0544   24.7923 C   0  0  0  0  0  0  0  0  0  0  0  0
  -25.9630  -14.2179   17.5422 C   0  0  0  0  0  0  0  0  0  0  0  0
  -27.8660  -28.9285   24.2577 C   0  0  0  0  0  0  0  0  0  0  0  0
  -25.4990  -29.7331   24.6383 C   0  0  0  0  0  0  0  0  0  0  0  0
  -25.9829  -28.2587   22.7131 C   0  0  0  0  0  0  0  0  0  0  0  0
  -26.7382  -14.6119   18.8053 C   0  0  1  0  0  0  0  0  0  0  0  0
  -24.3096  -16.1915   21.2631 C   0  0  1  0  0  0  0  0  0  0  0  0
  -27.4837  -28.5711   22.8109 C   0  0  2  0  0  0  0  0  0  0  0  0
  -24.4855  -32.8490   21.9366 C   0  0  0  0  0  0  0  0  0  0  0  0
  -16.5918  -15.5830   21.5239 C   0  0  0  0  0  0  0  0  0  0  0  0
  -21.8348  -15.1596   17.4987 C   0  0  0  0  0  0  0  0  0  0  0  0
  -19.3492  -15.2636   17.7801 C   0  0  0  0  0  0  0  0  0  0  0  0
  -20.6375  -13.3741   18.7764 C   0  0  0  0  0  0  0  0  0  0  0  0
  -18.8228  -17.3013   24.0825 C   0  0  0  0  0  0  0  0  0  0  0  0
  -22.7582  -28.6565   19.5532 C   0  0  0  0  0  0  0  0  0  0  0  0
  -24.4756  -23.5948   21.4111 C   0  0  0  0  0  0  0  0  0  1  0  0
  -24.5236  -32.2064   20.5570 C   0  0  0  0  0  0  0  0  0  0  0  0
  -22.5946  -29.7038   20.6626 C   0  0  0  0  0  0  0  0  0  0  0  0
  -24.8431  -30.7172   20.6094 C   0  0  0  0  0  0  0  0  0  0  0  0
  -20.8100  -15.6740   19.8119 C   0  0  1  0  0  0  0  0  0  0  0  0
  -17.9001  -15.9021   22.2306 C   0  0  2  0  0  0  0  0  0  0  0  0
  -20.6744  -14.8885   18.4770 C   0  0  0  0  0  0  0  0  0  0  0  0
  -22.8409  -26.9694   21.2949 N   0  0  0  0  0  0  0  0  0  0  0  0
  -24.3893  -25.2924   19.6654 N   0  0  0  0  0  0  0  0  0  0  0  0
  -27.8872  -26.1755   22.3863 N   0  0  0  0  0  0  0  0  0  0  0  0
  -28.3308  -27.4380   22.2623 N   0  0  0  0  0  0  0  0  0  0  0  0
  -22.9614  -16.4526   20.7548 N   0  0  0  0  0  0  0  0  0  0  0  0
  -25.1714  -29.3549   23.2632 N   0  0  0  0  0  0  0  0  0  0  0  0
  -30.1265  -28.7352   21.4237 N   0  0  0  0  0  0  0  0  0  0  0  0
  -32.2494  -25.5906   21.4212 N   0  0  0  0  0  0  0  0  0  0  0  0
  -25.8244  -14.8946   19.8914 N   0  0  0  0  0  0  0  0  0  0  0  0
  -19.7391  -15.4159   20.7685 N   0  0  0  0  0  0  0  0  0  0  0  0
  -23.8453  -29.9605   21.3625 N   0  0  0  0  0  0  0  0  0  0  0  0
  -17.6268  -16.9121   23.2918 N   0  3  0  0  0  0  0  0  0  0  0  0
  -31.1837  -25.7838   19.3998 O   0  0  0  0  0  0  0  0  0  0  0  0
  -25.3676  -17.1167   19.3658 O   0  0  0  0  0  0  0  0  0  0  0  0
  -22.3356  -14.2105   20.8877 O   0  0  0  0  0  0  0  0  0  0  0  0
  -19.0312  -17.6159   20.9576 O   0  0  0  0  0  0  0  0  0  0  0  0
  -22.9245  -29.8302   23.4714 O   0  0  0  0  0  0  0  0  0  0  0  0
  -28.4340  -19.8867   21.5467 O   0  0  0  0  0  0  0  0  0  0  0  0
  -23.6896  -22.5781   20.7907 O   0  0  0  0  0  0  0  0  0  1  0  0
  -31.8093  -17.2269   18.0918 F   0  0  0  0  0  0  0  0  0  0  0  0
  -27.4260  -18.3430   19.4867 F   0  0  0  0  0  0  0  0  0  0  0  0
  1  2  1  0  0  0  0
  1  5  2  0  0  0  0
  2  6  2  0  0  0  0
  3  8  2  0  0  0  0
  3 17  1  0  0  0  0
  4  9  1  0  0  0  0
  4 17  2  0  0  0  0
  5 19  1  0  0  0  0
  6 21  1  0  0  0  0
  7 10  2  0  0  0  0
  7 20  1  0  0  0  0
  8 23  1  0  0  0  0
  9 23  2  0  0  0  0
 10 24  1  0  0  0  0
 11 12  2  0  0  0  0
 11 25  1  0  0  0  0
 12 26  1  0  0  0  0
 13 22  1  0  0  0  0
 13 24  2  0  0  0  0
 14 26  2  0  0  0  0
 14 27  1  0  0  0  0
 15 29  1  0  0  0  0
 15 64  2  0  0  0  0
 16 30  2  0  0  0  0
 16 63  1  0  0  0  0
 17 28  1  0  0  0  0
 18 28  1  0  0  0  0
 18 31  2  0  0  0  0
 18 32  1  0  0  0  0
 19 21  2  0  0  0  0
 19 37  1  0  0  0  0
 20 22  2  0  0  0  0
 20 38  1  0  0  0  0
 21 46  1  0  0  0  0
 22 39  1  0  0  0  0
 23 80  1  0  0  0  0
 24 81  1  0  0  0  0
 25 27  2  0  0  0  0
 25 80  1  0  0  0  0
 26 82  1  0  0  0  0
 27 83  1  0  0  0  0
 28 65  2  0  0  0  0
 29 55  1  0  0  0  0
 29 63  2  0  0  0  0
 30 56  1  0  0  0  0
 30 64  1  0  0  0  0
 31 66  1  0  0  0  0
 31 69  1  0  0  0  0
 32 70  1  0  0  0  0
 32 75  2  0  0  0  0
 33 47  1  0  0  0  0
 33 71  1  0  0  0  0
 33 76  2  0  0  0  0
 34 60  1  0  0  0  0
 34 67  1  0  0  0  0
 34 77  2  0  0  0  0
 35 61  1  0  0  0  0
 35 72  1  0  0  0  0
 35 78  2  0  0  0  0
 36 68  1  0  0  0  0
 36 73  1  0  0  0  0
 36 79  2  0  0  0  0
 37 40  1  0  0  0  0
 38 47  1  0  0  0  0
 39 67  1  0  0  0  0
 40 42  1  0  0  0  0
 41 43  1  0  0  0  0
 41 44  1  0  0  0  0
 42 46  1  0  0  0  0
 43 48  1  0  0  0  0
 44 68  1  0  0  0  0
 45 48  1  0  0  0  0
 45 68  1  0  0  0  0
 46 71  1  0  0  0  0
 47 67  1  0  0  0  0
 48 66  1  0  0  0  0
 49 57  1  0  0  0  0
 50 61  1  0  0  0  0
 51 62  1  0  0  0  0
 52 62  1  0  0  0  0
 53 62  1  0  0  0  0
 54 74  1  0  0  0  0
 55 58  1  0  0  0  0
 56 81  1  0  0  0  0
 57 59  1  0  0  0  0
 58 73  1  0  0  0  0
 59 73  1  0  0  0  0
 60 62  1  0  0  0  0
 60 72  1  0  0  0  0
 61 74  1  0  0  0  0
 65 66  1  0  0  0  0
M  CHG  1  74   1
M  ISO  4  36 100  56 101  73 100  81 101
M  END
> <Batch ID>
0057

> <Smiles>
CCC[100N:0](CCc1cnc([101CH2:1][101O:1]c2ccc3c(c2)CN(C(=O)C(NC(=O)C(C)NC)C(C)(C)C)C(C(=O)NC2CCCc4ccccc42)C3)cn1)[100C:0](=O)N1CCCC(n2nc(-c3ccc(Oc4ccc(F)cc4F)cc3)c(C(N)=O)c2N)C1

> <Shape>
0.206

> <Color>
0.062

> <Negative vol penalty>
0.000

$$$$

  -OEChem-04052317483D

 90 98  0     1  0  0  0  0  0999 V2000
  -30.3652  -17.5614   16.7696 C   0  0  0  0  0  0  0  0  0  0  0  0
  -30.3409  -17.7294   18.1504 C   0  0  0  0  0  0  0  0  0  0  0  0
  -23.6465   -9.7916   21.1818 C   0  0  0  0  0  0  0  0  0  0  0  0
  -24.2743  -10.6549   23.3492 C   0  0  0  0  0  0  0  0  0  0  0  0
  -30.6070  -18.6552   15.9395 C   0  0  0  0  0  0  0  0  0  0  0  0
  -30.5594  -18.9913   18.7020 C   0  0  0  0  0  0  0  0  0  0  0  0
  -27.2677  -20.0969   22.3880 C   0  0  0  0  0  0  0  0  0  0  0  0
  -23.0726   -8.6765   21.7922 C   0  0  0  0  0  0  0  0  0  0  0  0
  -23.7003   -9.5398   23.9596 C   0  0  0  0  0  0  0  0  0  0  0  0
  -27.4930  -19.5199   23.6371 C   0  0  0  0  0  0  0  0  0  0  0  0
  -21.1236   -5.7786   22.8018 C   0  0  0  0  0  0  0  0  0  0  0  0
  -19.8677   -5.3689   22.3542 C   0  0  0  0  0  0  0  0  0  0  0  0
  -28.4795  -21.5828   24.4055 C   0  0  0  0  0  0  0  0  0  0  0  0
  -18.9475   -7.5161   22.9705 C   0  0  0  0  0  0  0  0  0  0  0  0
  -24.2475  -10.7808   21.9602 C   0  0  0  0  0  0  0  0  0  0  0  0
  -24.2112  -13.1544   21.0262 C   0  0  0  0  0  0  0  0  0  0  0  0
  -30.8191  -19.9329   16.4808 C   0  0  0  0  0  0  0  0  0  0  0  0
  -27.6572  -21.4200   22.1346 C   0  0  0  0  0  0  0  0  0  0  0  0
  -30.8056  -20.1030   17.8784 C   0  0  0  0  0  0  0  0  0  0  0  0
  -28.2558  -22.1751   23.1532 C   0  0  0  0  0  0  0  0  0  0  0  0
  -23.0994   -8.5506   23.1811 C   0  0  0  0  0  0  0  0  0  0  0  0
  -28.1016  -20.2619   24.6451 C   0  0  0  0  0  0  0  0  0  0  0  0
  -21.2915   -7.0571   23.3338 C   0  0  0  0  0  0  0  0  0  0  0  0
  -18.7797   -6.2376   22.4385 C   0  0  0  0  0  0  0  0  0  0  0  0
  -20.2035   -7.9258   23.4181 C   0  0  0  0  0  0  0  0  0  0  0  0
  -24.8411  -11.9327   21.3302 C   0  0  0  0  0  0  0  0  0  0  0  0
  -25.1958  -13.9119   20.4403 C   0  0  0  0  0  0  0  0  0  0  0  0
  -31.5258  -18.3768   25.2920 C   0  0  0  0  0  0  0  0  0  0  0  0
  -30.9145  -17.8897   27.3957 C   0  0  0  0  0  0  0  0  0  0  0  0
  -29.5279  -19.0473   26.0639 C   0  0  0  0  0  0  0  0  0  1  0  0
  -22.8572  -13.5677   21.2533 C   0  0  0  0  0  0  0  0  0  0  0  0
  -29.6866  -22.8150   20.1248 C   0  0  0  0  0  0  0  0  0  0  0  0
  -28.4082  -25.5382   21.3380 C   0  0  0  0  0  0  0  0  0  0  0  0
  -26.7929  -27.0816   23.9179 C   0  0  0  0  0  0  0  0  0  0  0  0
  -31.1714  -13.8221   20.8075 C   0  0  0  0  0  0  0  0  0  0  0  0
  -31.1235  -21.0762   15.5455 C   0  0  0  0  0  0  0  0  0  0  0  0
  -27.3829  -22.0364   20.7902 C   0  0  0  0  0  0  0  0  0  0  0  0
  -28.6742  -23.6059   22.9383 C   0  0  0  0  0  0  0  0  0  0  0  0
  -30.9737  -22.4501   16.1939 C   0  0  0  0  0  0  0  0  0  0  0  0
  -29.2026  -13.4964   17.8589 C   0  0  0  0  0  0  0  0  0  0  0  0
  -31.6558  -22.4737   17.5581 C   0  0  0  0  0  0  0  0  0  0  0  0
  -27.8047  -13.1689   18.3868 C   0  0  0  0  0  0  0  0  0  0  0  0
  -30.2930  -12.8457   18.7072 C   0  0  0  0  0  0  0  0  0  0  0  0
  -28.8141  -12.8107   20.6784 C   0  0  0  0  0  0  0  0  0  0  0  0
  -31.0136  -21.4607   18.5136 C   0  0  1  0  0  0  0  0  0  0  0  0
  -28.2866  -23.2265   20.4830 C   0  0  1  0  0  0  0  0  0  0  0  0
  -27.6828  -13.4907   19.8884 C   0  0  2  0  0  0  0  0  0  0  0  0
  -25.9177  -29.3211   24.6360 C   0  0  0  0  0  0  0  0  0  0  0  0
  -31.2531  -26.4467   21.9634 C   0  0  0  0  0  0  0  0  0  0  0  0
  -30.2892  -28.1805   23.4908 C   0  0  0  0  0  0  0  0  0  0  0  0
  -29.7627  -28.2368   21.0532 C   0  0  0  0  0  0  0  0  0  0  0  0
  -36.6952  -17.1166   23.6148 C   0  0  0  0  0  0  0  0  0  0  0  0
  -35.3691  -15.3250   24.7586 C   0  0  0  0  0  0  0  0  0  0  0  0
  -24.0149  -26.0738   24.0791 C   0  0  0  0  0  0  0  0  0  0  0  0
  -32.5264  -18.3049   24.1890 C   0  0  0  0  0  0  0  0  0  0  0  0
  -31.9045  -14.7754   22.9785 C   0  0  0  0  0  0  0  0  0  0  0  0
  -31.7805  -16.2870   22.9352 C   0  0  0  0  0  0  0  0  0  0  0  0
  -34.2076  -16.8129   23.1168 C   0  0  0  0  0  0  0  0  0  0  0  0
  -28.7283  -26.4427   22.5035 C   0  0  1  0  0  0  0  0  0  0  0  0
  -25.5902  -28.0074   23.9435 C   0  0  2  0  0  0  0  0  0  0  0  0
  -31.2132  -17.2590   28.7133 C   0  0  0  0  0  0  0  0  0  0  0  0
  -30.0023  -27.2991   22.2565 C   0  0  0  0  0  0  0  0  0  0  0  0
  -35.3231  -16.7281   24.1584 C   0  0  0  0  0  0  0  0  0  0  0  0
  -26.1263  -11.9108   20.9672 N   0  0  0  0  0  0  0  0  0  0  0  0
  -31.8622  -17.7864   26.4501 N   0  0  0  0  0  0  0  0  0  0  0  0
  -30.3797  -19.0241   25.0261 N   0  0  0  0  0  0  0  0  0  0  0  0
  -29.7263  -18.5033   27.2754 N   0  0  0  0  0  0  0  0  0  0  0  0
  -26.3120  -13.1282   20.4290 N   0  0  0  0  0  0  0  0  0  0  0  0
  -28.3904  -24.1618   21.6049 N   0  0  0  0  0  0  0  0  0  0  0  0
  -30.1211  -13.1916   20.1203 N   0  0  0  0  0  0  0  0  0  0  0  0
  -25.2070  -15.1651   19.9386 N   0  0  0  0  0  0  0  0  0  0  0  0
  -21.9773  -12.6656   21.8667 N   0  0  0  0  0  0  0  0  0  0  0  0
  -29.7634  -21.9753   19.0300 N   0  0  0  0  0  0  0  0  0  0  0  0
  -27.5228  -27.2243   22.7568 N   0  0  0  0  0  0  0  0  0  0  0  0
  -30.9234  -14.1211   22.1416 N   0  0  0  0  0  0  0  0  0  0  0  0
  -24.4569  -27.3646   24.6669 N   0  3  0  0  0  0  0  0  0  0  0  0
  -32.8591  -16.9115   23.7822 N   0  3  1  0  0  0  0  0  0  0  0  0
  -22.4357  -14.6973   20.9072 O   0  0  0  0  0  0  0  0  0  0  0  0
  -30.6276  -23.2297   20.7913 O   0  0  0  0  0  0  0  0  0  0  0  0
  -28.1751  -26.0349   20.2332 O   0  0  0  0  0  0  0  0  0  0  0  0
  -27.0605  -26.3116   24.8377 O   0  0  0  0  0  0  0  0  0  0  0  0
  -32.2483  -14.1030   20.2705 O   0  0  0  0  0  0  0  0  0  0  0  0
  -22.5392   -7.4627   23.7771 O   0  0  0  0  0  0  0  0  0  0  0  0
  -28.3233  -19.7008   25.8649 O   0  0  0  0  0  0  0  0  0  1  0  0
  -17.5740   -5.8445   22.0071 F   0  0  0  0  0  0  0  0  0  0  0  0
  -20.3588   -9.1557   23.9272 F   0  0  0  0  0  0  0  0  0  0  0  0
  -32.4370  -16.6540   28.7663 F   0  0  0  0  0  0  0  0  0  0  0  0
  -31.2074  -18.1414   29.7561 F   0  0  0  0  0  0  0  0  0  0  0  0
  -30.3117  -16.2905   29.0487 F   0  0  0  0  0  0  0  0  0  0  0  0
  -35.0198  -17.5905   25.1744 F   0  0  0  0  0  0  0  0  0  0  0  0
  1  2  1  0  0  0  0
  1  5  2  0  0  0  0
  2  6  2  0  0  0  0
  3  8  2  0  0  0  0
  3 15  1  0  0  0  0
  4  9  1  0  0  0  0
  4 15  2  0  0  0  0
  5 17  1  0  0  0  0
  6 19  1  0  0  0  0
  7 10  2  0  0  0  0
  7 18  1  0  0  0  0
  8 21  1  0  0  0  0
  9 21  2  0  0  0  0
 10 22  1  0  0  0  0
 11 12  2  0  0  0  0
 11 23  1  0  0  0  0
 12 24  1  0  0  0  0
 13 20  1  0  0  0  0
 13 22  2  0  0  0  0
 14 24  2  0  0  0  0
 14 25  1  0  0  0  0
 15 26  1  0  0  0  0
 16 26  1  0  0  0  0
 16 27  2  0  0  0  0
 16 31  1  0  0  0  0
 17 19  2  0  0  0  0
 17 36  1  0  0  0  0
 18 20  2  0  0  0  0
 18 37  1  0  0  0  0
 19 45  1  0  0  0  0
 20 38  1  0  0  0  0
 21 83  1  0  0  0  0
 22 84  1  0  0  0  0
 23 25  2  0  0  0  0
 23 83  1  0  0  0  0
 24 85  1  0  0  0  0
 25 86  1  0  0  0  0
 26 64  2  0  0  0  0
 27 68  1  0  0  0  0
 27 71  1  0  0  0  0
 28 55  1  0  0  0  0
 28 65  1  0  0  0  0
 28 66  2  0  0  0  0
 29 61  1  0  0  0  0
 29 65  2  0  0  0  0
 29 67  1  0  0  0  0
 30 66  1  0  0  0  0
 30 67  2  0  0  0  0
 30 84  1  0  0  0  0
 31 72  1  0  0  0  0
 31 78  2  0  0  0  0
 32 46  1  0  0  0  0
 32 73  1  0  0  0  0
 32 79  2  0  0  0  0
 33 59  1  0  0  0  0
 33 69  1  0  0  0  0
 33 80  2  0  0  0  0
 34 60  1  0  0  0  0
 34 74  1  0  0  0  0
 34 81  2  0  0  0  0
 35 70  1  0  0  0  0
 35 75  1  0  0  0  0
 35 82  2  0  0  0  0
 36 39  1  0  0  0  0
 37 46  1  0  0  0  0
 38 69  1  0  0  0  0
 39 41  1  0  0  0  0
 40 42  1  0  0  0  0
 40 43  1  0  0  0  0
 41 45  1  0  0  0  0
 42 47  1  0  0  0  0
 43 70  1  0  0  0  0
 44 47  1  0  0  0  0
 44 70  1  0  0  0  0
 45 73  1  0  0  0  0
 46 69  1  0  0  0  0
 47 68  1  0  0  0  0
 48 60  1  0  0  0  0
 49 62  1  0  0  0  0
 50 62  1  0  0  0  0
 51 62  1  0  0  0  0
 52 63  1  0  0  0  0
 53 63  1  0  0  0  0
 54 76  1  0  0  0  0
 55 77  1  0  0  0  0
 56 57  1  0  0  0  0
 56 75  1  0  0  0  0
 57 77  1  0  0  0  0
 58 63  1  0  0  0  0
 58 77  1  0  0  0  0
 59 62  1  0  0  0  0
 59 74  1  0  0  0  0
 60 76  1  0  0  0  0
 61 87  1  0  0  0  0
 61 88  1  0  0  0  0
 61 89  1  0  0  0  0
 63 90  1  0  0  0  0
 64 68  1  0  0  0  0
M  CHG  2  76   1  77   1
M  ISO  4  30 101  35 100  75 100  84 101
M  END
> <Batch ID>
0057

> <Smiles>
CNC(C)C(=O)NC(C(=O)N1Cc2cc([101O:1][101c:1]3nc(CN(CC[100NH:0][100C:0](=O)N4CCCC(n5nc(-c6ccc(Oc7ccc(F)cc7F)cc6)c(C(N)=O)c5N)C4)CC(C)(C)F)nc(C(F)(F)F)n3)ccc2CC1C(=O)NC1CCCc2ccccc21)C(C)(C)C

> <Shape>
0.198

> <Color>
0.134

> <Negative vol penalty>
0.000

$$$$

  -OEChem-04052317483D

 81 89  0     1  0  0  0  0  0999 V2000
  -24.9191  -33.0592   24.7430 C   0  0  0  0  0  0  0  0  0  0  0  0
  -24.4522  -31.7680   24.9669 C   0  0  0  0  0  0  0  0  0  0  0  0
  -24.3831   -9.4755   21.2650 C   0  0  0  0  0  0  0  0  0  0  0  0
  -24.9935  -10.4555   23.3873 C   0  0  0  0  0  0  0  0  0  0  0  0
  -25.4038  -33.4157   23.4853 C   0  0  0  0  0  0  0  0  0  0  0  0
  -24.4687  -30.8328   23.9327 C   0  0  0  0  0  0  0  0  0  0  0  0
  -25.4703  -24.8115   24.4301 C   0  0  0  0  0  0  0  0  0  0  0  0
  -24.0739   -8.2767   21.9074 C   0  0  0  0  0  0  0  0  0  0  0  0
  -24.6843   -9.2566   24.0297 C   0  0  0  0  0  0  0  0  0  0  0  0
  -24.6070  -23.7179   24.4790 C   0  0  0  0  0  0  0  0  0  0  0  0
  -22.7808   -5.0717   23.0349 C   0  0  0  0  0  0  0  0  0  0  0  0
  -21.5947   -4.4310   22.6765 C   0  0  0  0  0  0  0  0  0  0  0  0
  -24.9017  -23.3869   22.1077 C   0  0  0  0  0  0  0  0  0  0  0  0
  -20.3358   -6.3718   23.3732 C   0  0  0  0  0  0  0  0  0  0  0  0
  -25.4199  -18.0302   20.4828 C   0  0  0  0  0  0  0  0  0  0  0  0
  -24.8429  -10.5649   22.0049 C   0  0  0  0  0  0  0  0  0  0  0  0
  -24.2950  -12.8835   21.0929 C   0  0  0  0  0  0  0  0  0  0  0  0
  -25.4352  -32.4816   22.4379 C   0  0  0  0  0  0  0  0  0  0  0  0
  -26.0483  -25.2083   23.2156 C   0  0  0  0  0  0  0  0  0  0  0  0
  -24.9530  -31.1775   22.6594 C   0  0  0  0  0  0  0  0  0  0  0  0
  -25.7741  -24.4843   22.0466 C   0  0  0  0  0  0  0  0  0  0  0  0
  -24.2245   -8.1672   23.2898 C   0  0  0  0  0  0  0  0  0  0  0  0
  -24.3203  -23.0072   23.3172 C   0  0  0  0  0  0  0  0  0  0  0  0
  -22.7443   -6.3625   23.5625 C   0  0  0  0  0  0  0  0  0  0  0  0
  -20.3723   -5.0811   22.8456 C   0  0  0  0  0  0  0  0  0  0  0  0
  -21.5218   -7.0125   23.7316 C   0  0  0  0  0  0  0  0  0  0  0  0
  -25.1630  -11.8034   21.3417 C   0  0  0  0  0  0  0  0  0  0  0  0
  -26.7431  -17.7573   20.7229 C   0  0  0  0  0  0  0  0  0  0  0  0
  -25.0751  -13.8081   20.4425 C   0  0  0  0  0  0  0  0  0  0  0  0
  -22.9077  -13.0372   21.4204 C   0  0  0  0  0  0  0  0  0  0  0  0
  -25.9315  -27.8340   21.4279 C   0  0  0  0  0  0  0  0  0  0  0  0
  -28.1942  -26.2848   19.6951 C   0  0  0  0  0  0  0  0  0  0  0  0
  -29.6171  -23.3212   18.7791 C   0  0  0  0  0  0  0  0  0  0  0  0
  -30.0561  -16.5480   20.4222 C   0  0  0  0  0  0  0  0  0  0  0  0
  -25.9243  -32.9270   21.0824 C   0  0  0  0  0  0  0  0  0  0  0  0
  -26.9985  -26.3739   23.1845 C   0  0  0  0  0  0  0  0  0  0  0  0
  -26.3847  -24.8572   20.7212 C   0  0  0  0  0  0  0  0  0  0  0  0
  -26.2555  -31.7695   20.1439 C   0  0  0  0  0  0  0  0  0  0  0  0
  -29.7046  -13.4269   18.4633 C   0  0  0  0  0  0  0  0  0  0  0  0
  -25.1419  -30.7273   20.1680 C   0  0  0  0  0  0  0  0  0  0  0  0
  -28.4581  -12.7889   19.0741 C   0  0  0  0  0  0  0  0  0  0  0  0
  -30.4435  -14.3045   19.4691 C   0  0  0  0  0  0  0  0  0  0  0  0
  -28.3434  -14.7103   20.7098 C   0  0  0  0  0  0  0  0  0  0  0  0
  -24.9777  -30.1277   21.5697 C   0  0  1  0  0  0  0  0  0  0  0  0
  -27.1268  -27.0034   21.8008 C   0  0  1  0  0  0  0  0  0  0  0  0
  -27.5503  -13.8567   19.7089 C   0  0  2  0  0  0  0  0  0  0  0  0
  -31.2571  -21.7630   17.6930 C   0  0  0  0  0  0  0  0  0  0  0  0
  -26.4429  -26.7366   17.2377 C   0  0  0  0  0  0  0  0  0  0  0  0
  -27.7861  -24.9919   16.0459 C   0  0  0  0  0  0  0  0  0  0  0  0
  -28.8901  -27.0786   16.8519 C   0  0  0  0  0  0  0  0  0  0  0  0
  -29.6436  -18.9623   20.7056 C   0  0  0  0  0  0  0  0  0  0  0  0
  -31.4175  -23.3936   21.1268 C   0  0  0  0  0  0  0  0  0  0  0  0
  -27.8380  -17.5712   19.7620 C   0  0  0  0  0  0  0  0  0  0  0  0
  -23.2646  -19.5726   23.0333 C   0  0  0  0  0  0  0  0  0  0  0  0
  -23.4408  -18.3772   22.0943 C   0  0  0  0  0  0  0  0  0  0  0  0
  -23.7003  -20.8959   22.4149 C   0  0  0  0  0  0  0  0  0  1  0  0
  -28.1776  -25.3261   18.5291 C   0  0  1  0  0  0  0  0  0  0  0  0
  -31.0678  -22.8798   18.7077 C   0  0  2  0  0  0  0  0  0  0  0  0
  -27.8110  -26.0272   17.1906 C   0  0  0  0  0  0  0  0  0  0  0  0
  -26.3998  -12.0203   20.8864 N   0  0  0  0  0  0  0  0  0  0  0  0
  -26.9575  -17.6724   22.0706 N   0  0  0  0  0  0  0  0  0  0  0  0
  -25.7977  -17.8850   22.6827 N   0  0  0  0  0  0  0  0  0  0  0  0
  -24.8770  -18.0991   21.7288 N   0  0  0  0  0  0  0  0  0  0  0  0
  -26.3146  -13.2474   20.3448 N   0  0  0  0  0  0  0  0  0  0  0  0
  -27.3025  -26.0082   20.7411 N   0  0  0  0  0  0  0  0  0  0  0  0
  -29.5478  -15.2817   20.0889 N   0  0  0  0  0  0  0  0  0  0  0  0
  -24.8149  -15.0379   19.9503 N   0  0  0  0  0  0  0  0  0  0  0  0
  -22.2591  -11.9903   22.0895 N   0  0  0  0  0  0  0  0  0  0  0  0
  -26.0168  -29.1540   21.8278 N   0  0  0  0  0  0  0  0  0  0  0  0
  -29.4801  -24.6690   18.5223 N   0  0  0  0  0  0  0  0  0  0  0  0
  -29.1612  -17.6278   20.3796 N   0  0  0  0  0  0  0  0  0  0  0  0
  -31.5259  -22.3887   20.0380 N   0  3  0  0  0  0  0  0  0  0  0  0
  -22.2580  -14.0656   21.1138 O   0  0  0  0  0  0  0  0  0  0  0  0
  -25.0015  -27.3161   20.8209 O   0  0  0  0  0  0  0  0  0  0  0  0
  -28.9749  -27.2398   19.6817 O   0  0  0  0  0  0  0  0  0  0  0  0
  -28.6970  -22.5470   19.0332 O   0  0  0  0  0  0  0  0  0  0  0  0
  -31.2443  -16.7059   20.7305 O   0  0  0  0  0  0  0  0  0  0  0  0
  -23.9227   -6.9976   23.9170 O   0  0  0  0  0  0  0  0  0  0  0  0
  -23.4774  -21.9397   23.3620 O   0  0  0  0  0  0  0  0  0  1  0  0
  -19.2335   -4.4662   22.5000 F   0  0  0  0  0  0  0  0  0  0  0  0
  -21.4805   -8.2531   24.2368 F   0  0  0  0  0  0  0  0  0  0  0  0
  1  2  1  0  0  0  0
  1  5  2  0  0  0  0
  2  6  2  0  0  0  0
  3  8  2  0  0  0  0
  3 16  1  0  0  0  0
  4  9  1  0  0  0  0
  4 16  2  0  0  0  0
  5 18  1  0  0  0  0
  6 20  1  0  0  0  0
  7 10  2  0  0  0  0
  7 19  1  0  0  0  0
  8 22  1  0  0  0  0
  9 22  2  0  0  0  0
 10 23  1  0  0  0  0
 11 12  2  0  0  0  0
 11 24  1  0  0  0  0
 12 25  1  0  0  0  0
 13 21  1  0  0  0  0
 13 23  2  0  0  0  0
 14 25  2  0  0  0  0
 14 26  1  0  0  0  0
 15 28  2  0  0  0  0
 15 63  1  0  0  0  0
 16 27  1  0  0  0  0
 17 27  1  0  0  0  0
 17 29  2  0  0  0  0
 17 30  1  0  0  0  0
 18 20  2  0  0  0  0
 18 35  1  0  0  0  0
 19 21  2  0  0  0  0
 19 36  1  0  0  0  0
 20 44  1  0  0  0  0
 21 37  1  0  0  0  0
 22 78  1  0  0  0  0
 23 79  1  0  0  0  0
 24 26  2  0  0  0  0
 24 78  1  0  0  0  0
 25 80  1  0  0  0  0
 26 81  1  0  0  0  0
 27 60  2  0  0  0  0
 28 53  1  0  0  0  0
 28 61  1  0  0  0  0
 29 64  1  0  0  0  0
 29 67  1  0  0  0  0
 30 68  1  0  0  0  0
 30 73  2  0  0  0  0
 31 45  1  0  0  0  0
 31 69  1  0  0  0  0
 31 74  2  0  0  0  0
 32 57  1  0  0  0  0
 32 65  1  0  0  0  0
 32 75  2  0  0  0  0
 33 58  1  0  0  0  0
 33 70  1  0  0  0  0
 33 76  2  0  0  0  0
 34 66  1  0  0  0  0
 34 71  1  0  0  0  0
 34 77  2  0  0  0  0
 35 38  1  0  0  0  0
 36 45  1  0  0  0  0
 37 65  1  0  0  0  0
 38 40  1  0  0  0  0
 39 41  1  0  0  0  0
 39 42  1  0  0  0  0
 40 44  1  0  0  0  0
 41 46  1  0  0  0  0
 42 66  1  0  0  0  0
 43 46  1  0  0  0  0
 43 66  1  0  0  0  0
 44 69  1  0  0  0  0
 45 65  1  0  0  0  0
 46 64  1  0  0  0  0
 47 58  1  0  0  0  0
 48 59  1  0  0  0  0
 49 59  1  0  0  0  0
 50 59  1  0  0  0  0
 51 71  1  0  0  0  0
 52 72  1  0  0  0  0
 53 71  1  0  0  0  0
 54 55  1  0  0  0  0
 54 56  1  0  0  0  0
 55 63  1  0  0  0  0
 56 79  1  0  0  0  0
 57 59  1  0  0  0  0
 57 70  1  0  0  0  0
 58 72  1  0  0  0  0
 60 64  1  0  0  0  0
 61 62  2  0  0  0  0
 62 63  1  0  0  0  0
M  CHG  1  72   1
M  ISO  4  34 100  56 101  71 100  79 101
M  END
> <Batch ID>
0057

> <Smiles>
CNC(C)C(=O)NC(C(=O)N1Cc2cc([101O:1][101CH2:1]CCn3cc(C[100N:0](C)[100C:0](=O)N4CCCC(n5nc(-c6ccc(Oc7ccc(F)cc7F)cc6)c(C(N)=O)c5N)C4)nn3)ccc2CC1C(=O)NC1CCCc2ccccc21)C(C)(C)C

> <Shape>
0.272

> <Color>
0.123

> <Negative vol penalty>
0.000

$$$$

  -OEChem-04052317483D

 86 94  0     1  0  0  0  0  0999 V2000
  -32.5447  -26.1769   20.0366 C   0  0  0  0  0  0  0  0  0  0  0  0
  -31.6482  -25.1438   20.2904 C   0  0  0  0  0  0  0  0  0  0  0  0
  -23.3702   -9.9138   19.8545 C   0  0  0  0  0  0  0  0  0  0  0  0
  -24.4297   -9.8004   22.0228 C   0  0  0  0  0  0  0  0  0  0  0  0
  -32.3377  -27.4333   20.6045 C   0  0  0  0  0  0  0  0  0  0  0  0
  -30.5447  -25.3662   21.1134 C   0  0  0  0  0  0  0  0  0  0  0  0
  -24.9753  -22.8811   20.5550 C   0  0  0  0  0  0  0  0  0  0  0  0
  -23.0054   -8.5718   19.9626 C   0  0  0  0  0  0  0  0  0  0  0  0
  -24.0649   -8.4585   22.1310 C   0  0  0  0  0  0  0  0  0  0  0  0
  -24.3622  -21.8012   21.1888 C   0  0  0  0  0  0  0  0  0  0  0  0
  -21.2907   -6.6872   22.8974 C   0  0  0  0  0  0  0  0  0  0  0  0
  -20.7526   -6.2592   24.1110 C   0  0  0  0  0  0  0  0  0  0  0  0
  -23.3300  -23.3157   22.7573 C   0  0  0  0  0  0  0  0  0  0  0  0
  -22.5593   -4.6736   24.3530 C   0  0  0  0  0  0  0  0  0  0  0  0
  -29.8614  -18.7500   24.6515 C   0  0  0  0  0  0  0  0  0  0  0  0
  -24.0825  -10.5281   20.8846 C   0  0  0  0  0  0  0  0  0  0  0  0
  -23.7182  -13.0338   21.1946 C   0  0  0  0  0  0  0  0  0  0  0  0
  -31.2259  -27.6739   21.4270 C   0  0  0  0  0  0  0  0  0  0  0  0
  -24.7787  -24.1876   21.0250 C   0  0  0  0  0  0  0  0  0  0  0  0
  -30.3234  -26.6267   21.6939 C   0  0  0  0  0  0  0  0  0  0  0  0
  -23.9397  -24.4107   22.1261 C   0  0  0  0  0  0  0  0  0  0  0  0
  -23.3526   -7.8442   21.1009 C   0  0  0  0  0  0  0  0  0  0  0  0
  -23.5417  -22.0181   22.2919 C   0  0  0  0  0  0  0  0  0  0  0  0
  -22.4631   -6.1083   22.4115 C   0  0  0  0  0  0  0  0  0  0  0  0
  -21.3869   -5.2525   24.8388 C   0  0  0  0  0  0  0  0  0  0  0  0
  -23.0974   -5.1015   23.1393 C   0  0  0  0  0  0  0  0  0  0  0  0
  -24.4601  -11.9141   20.7733 C   0  0  0  0  0  0  0  0  0  0  0  0
  -29.4747  -18.8388   25.9732 C   0  0  0  0  0  0  0  0  0  0  0  0
  -28.8377  -18.5975   23.7388 C   0  0  0  0  0  0  0  0  0  0  0  0
  -24.5056  -14.1105   20.8670 C   0  0  0  0  0  0  0  0  0  0  0  0
  -27.2849  -18.6339   25.3985 C   0  0  0  0  0  0  0  0  0  0  0  0
  -22.4323  -13.0953   21.8257 C   0  0  0  0  0  0  0  0  0  0  0  0
  -26.6681  -26.4546   22.2059 C   0  0  0  0  0  0  0  0  0  0  0  0
  -23.9596  -28.2350   22.0762 C   0  0  0  0  0  0  0  0  0  0  0  0
  -20.5483  -28.3204   22.0266 C   0  0  0  0  0  0  0  0  0  0  0  0
  -29.4859  -16.6225   20.6890 C   0  0  0  0  0  0  0  0  0  0  0  0
  -31.0697  -29.0355   22.0566 C   0  0  0  0  0  0  0  0  0  0  0  0
  -25.4259  -25.3442   20.3138 C   0  0  0  0  0  0  0  0  0  0  0  0
  -23.6800  -25.7958   22.6574 C   0  0  0  0  0  0  0  0  0  0  0  0
  -29.6723  -29.2917   22.6150 C   0  0  0  0  0  0  0  0  0  0  0  0
  -28.6858  -14.3909   18.0325 C   0  0  0  0  0  0  0  0  0  0  0  0
  -29.1959  -28.0947   23.4316 C   0  0  0  0  0  0  0  0  0  0  0  0
  -27.4583  -13.6361   18.5461 C   0  0  0  0  0  0  0  0  0  0  0  0
  -29.6774  -14.6863   19.1557 C   0  0  0  0  0  0  0  0  0  0  0  0
  -27.8752  -14.6273   20.8357 C   0  0  0  0  0  0  0  0  0  0  0  0
  -29.1010  -26.8357   22.5613 C   0  0  1  0  0  0  0  0  0  0  0  0
  -25.5660  -26.5833   21.1927 C   0  0  1  0  0  0  0  0  0  0  0  0
  -26.8204  -14.3559   19.7495 C   0  0  2  0  0  0  0  0  0  0  0  0
  -30.5115  -19.0058   27.0330 C   0  0  0  0  0  0  0  0  0  0  0  0
  -28.5190  -19.6151   21.4531 C   0  0  0  0  0  0  0  0  0  0  0  0
  -18.6187  -29.9233   21.9559 C   0  0  0  0  0  0  0  0  0  0  0  0
  -24.3960  -28.8865   25.0250 C   0  0  0  0  0  0  0  0  0  0  0  0
  -22.0178  -29.6617   25.1338 C   0  0  0  0  0  0  0  0  0  0  0  0
  -23.6375  -30.8192   23.6307 C   0  0  0  0  0  0  0  0  0  0  0  0
  -19.5767  -27.2186   19.4573 C   0  0  0  0  0  0  0  0  0  0  0  0
  -25.4579  -20.9388   26.4871 C   0  0  0  0  0  0  0  0  0  0  0  0
  -25.8449  -18.5726   25.8150 C   0  0  0  0  0  0  0  0  0  0  0  0
  -23.2652  -18.9228   24.1273 C   0  0  0  0  0  0  0  0  0  0  0  0
  -23.6244  -19.6301   25.4254 C   0  0  0  0  0  0  0  0  0  0  0  0
  -23.6278  -19.7146   22.8770 C   0  0  0  0  0  0  0  0  0  1  0  0
  -29.1582  -18.4943   22.2852 C   0  0  2  0  0  0  0  0  0  0  0  0
  -22.8136  -28.5083   23.0202 C   0  0  1  0  0  0  0  0  0  0  0  0
  -19.5722  -29.0680   21.1361 C   0  0  2  0  0  0  0  0  0  0  0  0
  -23.2225  -29.4425   24.1939 C   0  0  0  0  0  0  0  0  0  0  0  0
  -25.6290  -12.2484   20.2201 N   0  0  0  0  0  0  0  0  0  0  0  0
  -28.1906  -18.7843   26.3837 N   0  0  0  0  0  0  0  0  0  0  0  0
  -27.5335  -18.5352   24.0787 N   0  0  0  0  0  0  0  0  0  0  0  0
  -25.6275  -13.5904   20.2915 N   0  0  0  0  0  0  0  0  0  0  0  0
  -24.3405  -26.8934   21.9318 N   0  0  0  0  0  0  0  0  0  0  0  0
  -29.0095  -15.3708   20.2653 N   0  0  0  0  0  0  0  0  0  0  0  0
  -24.3408  -15.4418   21.0179 N   0  0  0  0  0  0  0  0  0  0  0  0
  -21.7600  -11.8944   22.0906 N   0  0  0  0  0  0  0  0  0  0  0  0
  -27.9037  -26.8718   21.7491 N   0  0  0  0  0  0  0  0  0  0  0  0
  -21.7224  -29.0223   22.1996 N   0  0  0  0  0  0  0  0  0  0  0  0
  -28.7918  -17.2052   21.7422 N   0  0  0  0  0  0  0  0  0  0  0  0
  -18.7670  -28.1078   20.3295 N   0  3  0  0  0  0  0  0  0  0  0  0
  -25.0878  -19.8441   25.5154 N   0  3  1  0  0  0  0  0  0  0  0  0
  -21.8880  -14.1836   22.1303 O   0  0  0  0  0  0  0  0  0  0  0  0
  -26.4157  -26.0113   23.3201 O   0  0  0  0  0  0  0  0  0  0  0  0
  -24.4922  -29.1764   21.4833 O   0  0  0  0  0  0  0  0  0  0  0  0
  -20.2930  -27.2252   22.5224 O   0  0  0  0  0  0  0  0  0  0  0  0
  -30.4546  -17.1817   20.1638 O   0  0  0  0  0  0  0  0  0  0  0  0
  -22.9966   -6.5348   21.2068 O   0  0  0  0  0  0  0  0  0  0  0  0
  -22.9425  -20.9658   22.9128 O   0  0  0  0  0  0  0  0  0  1  0  0
  -20.8709   -4.8427   26.0050 F   0  0  0  0  0  0  0  0  0  0  0  0
  -24.2247   -4.5424   22.6782 F   0  0  0  0  0  0  0  0  0  0  0  0
  1  2  1  0  0  0  0
  1  5  2  0  0  0  0
  2  6  2  0  0  0  0
  3  8  2  0  0  0  0
  3 16  1  0  0  0  0
  4  9  1  0  0  0  0
  4 16  2  0  0  0  0
  5 18  1  0  0  0  0
  6 20  1  0  0  0  0
  7 10  2  0  0  0  0
  7 19  1  0  0  0  0
  8 22  1  0  0  0  0
  9 22  2  0  0  0  0
 10 23  1  0  0  0  0
 11 12  2  0  0  0  0
 11 24  1  0  0  0  0
 12 25  1  0  0  0  0
 13 21  1  0  0  0  0
 13 23  2  0  0  0  0
 14 25  2  0  0  0  0
 14 26  1  0  0  0  0
 15 28  1  0  0  0  0
 15 29  2  0  0  0  0
 16 27  1  0  0  0  0
 17 27  1  0  0  0  0
 17 30  2  0  0  0  0
 17 32  1  0  0  0  0
 18 20  2  0  0  0  0
 18 37  1  0  0  0  0
 19 21  2  0  0  0  0
 19 38  1  0  0  0  0
 20 46  1  0  0  0  0
 21 39  1  0  0  0  0
 22 83  1  0  0  0  0
 23 84  1  0  0  0  0
 24 26  2  0  0  0  0
 24 83  1  0  0  0  0
 25 85  1  0  0  0  0
 26 86  1  0  0  0  0
 27 65  2  0  0  0  0
 28 49  1  0  0  0  0
 28 66  2  0  0  0  0
 29 61  1  0  0  0  0
 29 67  1  0  0  0  0
 30 68  1  0  0  0  0
 30 71  1  0  0  0  0
 31 57  1  0  0  0  0
 31 66  1  0  0  0  0
 31 67  2  0  0  0  0
 32 72  1  0  0  0  0
 32 78  2  0  0  0  0
 33 47  1  0  0  0  0
 33 73  1  0  0  0  0
 33 79  2  0  0  0  0
 34 62  1  0  0  0  0
 34 69  1  0  0  0  0
 34 80  2  0  0  0  0
 35 63  1  0  0  0  0
 35 74  1  0  0  0  0
 35 81  2  0  0  0  0
 36 70  1  0  0  0  0
 36 75  1  0  0  0  0
 36 82  2  0  0  0  0
 37 40  1  0  0  0  0
 38 47  1  0  0  0  0
 39 69  1  0  0  0  0
 40 42  1  0  0  0  0
 41 43  1  0  0  0  0
 41 44  1  0  0  0  0
 42 46  1  0  0  0  0
 43 48  1  0  0  0  0
 44 70  1  0  0  0  0
 45 48  1  0  0  0  0
 45 70  1  0  0  0  0
 46 73  1  0  0  0  0
 47 69  1  0  0  0  0
 48 68  1  0  0  0  0
 50 61  1  0  0  0  0
 51 63  1  0  0  0  0
 52 64  1  0  0  0  0
 53 64  1  0  0  0  0
 54 64  1  0  0  0  0
 55 76  1  0  0  0  0
 56 77  1  0  0  0  0
 57 77  1  0  0  0  0
 58 59  1  0  0  0  0
 58 60  1  0  0  0  0
 59 77  1  0  0  0  0
 60 84  1  0  0  0  0
 61 75  1  0  0  0  0
 62 64  1  0  0  0  0
 62 74  1  0  0  0  0
 63 76  1  0  0  0  0
 65 68  1  0  0  0  0
M  CHG  2  76   1  77   1
M  ISO  4  36 100  60 101  75 100  84 101
M  END
> <Batch ID>
0057

> <Smiles>
CNC(C)C(=O)NC(C(=O)N1Cc2cc([101O:1][101CH2:1]CCN(C)Cc3nc(C)cc(C(C)[100NH:0][100C:0](=O)N4CCCC(n5nc(-c6ccc(Oc7ccc(F)cc7F)cc6)c(C(N)=O)c5N)C4)n3)ccc2CC1C(=O)NC1CCCc2ccccc21)C(C)(C)C

> <Shape>
0.228

> <Color>
0.101

> <Negative vol penalty>
0.000

$$$$

  -OEChem-04052317483D

 84 92  0     1  0  0  0  0  0999 V2000
  -27.2675  -36.5373   23.9463 C   0  0  0  0  0  0  0  0  0  0  0  0
  -27.8628  -35.6745   23.0317 C   0  0  0  0  0  0  0  0  0  0  0  0
  -24.3000   -9.7376   22.3310 C   0  0  0  0  0  0  0  0  0  0  0  0
  -23.8396   -9.7550   19.9594 C   0  0  0  0  0  0  0  0  0  0  0  0
  -26.4650  -36.0257   24.9652 C   0  0  0  0  0  0  0  0  0  0  0  0
  -27.6568  -34.2993   23.1361 C   0  0  0  0  0  0  0  0  0  0  0  0
  -27.0530  -28.4213   19.0863 C   0  0  0  0  0  0  0  0  0  0  0  0
  -23.2156   -8.8843   22.5353 C   0  0  0  0  0  0  0  0  0  0  0  0
  -22.7552   -8.9017   20.1636 C   0  0  0  0  0  0  0  0  0  0  0  0
  -27.5826  -27.1372   18.9659 C   0  0  0  0  0  0  0  0  0  0  0  0
  -22.5379   -5.5901   22.1862 C   0  0  0  0  0  0  0  0  0  0  0  0
  -22.7246   -4.4952   23.0300 C   0  0  0  0  0  0  0  0  0  0  0  0
  -26.1125  -26.3730   20.7192 C   0  0  0  0  0  0  0  0  0  0  0  0
  -20.9751   -5.3150   24.4807 C   0  0  0  0  0  0  0  0  0  0  0  0
  -27.5125  -21.8352   19.1486 C   0  0  0  0  0  0  0  0  0  0  0  0
  -24.6119  -10.1730   21.0431 C   0  0  0  0  0  0  0  0  0  0  0  0
  -27.0652  -10.6879   20.5697 C   0  0  0  0  0  0  0  0  0  0  0  0
  -26.2411  -34.6444   25.0763 C   0  0  0  0  0  0  0  0  0  0  0  0
  -26.0552  -28.6938   20.0332 C   0  0  0  0  0  0  0  0  0  0  0  0
  -26.8515  -33.7686   24.1582 C   0  0  0  0  0  0  0  0  0  0  0  0
  -25.5701  -27.6608   20.8479 C   0  0  0  0  0  0  0  0  0  0  0  0
  -22.4433   -8.4663   21.4516 C   0  0  0  0  0  0  0  0  0  0  0  0
  -27.1144  -26.1135   19.7844 C   0  0  0  0  0  0  0  0  0  0  0  0
  -21.5699   -6.5475   22.4896 C   0  0  0  0  0  0  0  0  0  0  0  0
  -21.9431   -4.3577   24.1772 C   0  0  0  0  0  0  0  0  0  0  0  0
  -20.7885   -6.4099   23.6368 C   0  0  0  0  0  0  0  0  0  0  0  0
  -25.7315  -11.0549   20.8315 C   0  0  0  0  0  0  0  0  0  0  0  0
  -27.8147  -22.5626   20.2817 C   0  0  0  0  0  0  0  0  0  0  0  0
  -28.2129  -20.6567   18.9912 C   0  0  0  0  0  0  0  0  0  0  0  0
  -27.7324  -11.8822   20.4481 C   0  0  0  0  0  0  0  0  0  0  0  0
  -29.3437  -21.0109   20.9311 C   0  0  0  0  0  0  0  0  0  0  0  0
  -27.6486   -9.3839   20.4473 C   0  0  0  0  0  0  0  0  0  0  0  0
  -25.8324  -30.5894   22.5750 C   0  0  0  0  0  0  0  0  0  0  0  0
  -22.7478  -29.5858   22.5676 C   0  0  0  0  0  0  0  0  0  0  0  0
  -20.4787  -27.2022   21.6638 C   0  0  0  0  0  0  0  0  0  0  0  0
  -26.1215  -17.2112   18.8312 C   0  0  0  0  0  0  0  0  0  0  0  0
  -25.4042  -34.1345   26.2227 C   0  0  0  0  0  0  0  0  0  0  0  0
  -25.4754  -30.0782   20.1322 C   0  0  0  0  0  0  0  0  0  0  0  0
  -24.4857  -27.8967   21.8662 C   0  0  0  0  0  0  0  0  0  0  0  0
  -24.9327  -32.6943   26.0393 C   0  0  0  0  0  0  0  0  0  0  0  0
  -27.6092  -16.4194   21.9347 C   0  0  0  0  0  0  0  0  0  0  0  0
  -26.0869  -31.8091   25.5799 C   0  0  0  0  0  0  0  0  0  0  0  0
  -27.4176  -14.9043   21.9843 C   0  0  0  0  0  0  0  0  0  0  0  0
  -26.3877  -17.1343   21.3540 C   0  0  0  0  0  0  0  0  0  0  0  0
  -25.7731  -15.1027   20.0823 C   0  0  0  0  0  0  0  0  0  0  0  0
  -26.6318  -32.2728   24.2236 C   0  0  1  0  0  0  0  0  0  0  0  0
  -24.8257  -30.3586   21.4838 C   0  0  1  0  0  0  0  0  0  0  0  0
  -27.0095  -14.3559   20.6060 C   0  0  2  0  0  0  0  0  0  0  0  0
  -30.3582  -20.5507   21.9225 C   0  0  0  0  0  0  0  0  0  0  0  0
  -18.0384  -26.6416   21.8306 C   0  0  0  0  0  0  0  0  0  0  0  0
  -28.8013  -18.4846   17.7136 C   0  0  0  0  0  0  0  0  0  0  0  0
  -28.2946  -20.5792   16.4842 C   0  0  0  0  0  0  0  0  0  0  0  0
  -23.1361  -28.7734   25.4829 C   0  0  0  0  0  0  0  0  0  0  0  0
  -21.0544  -27.3942   25.3033 C   0  0  0  0  0  0  0  0  0  0  0  0
  -20.9418  -29.8662   24.9879 C   0  0  0  0  0  0  0  0  0  0  0  0
  -25.1805  -19.3520   19.7989 C   0  0  0  0  0  0  0  0  0  0  0  0
  -20.1543  -27.2220   18.7222 C   0  0  0  0  0  0  0  0  0  0  0  0
  -27.1039  -23.8585   20.5398 C   0  0  0  0  0  0  0  0  0  1  0  0
  -26.4474  -19.3679   17.6820 C   0  0  0  0  0  0  0  0  0  0  0  0
  -21.9967  -28.4342   23.1911 C   0  0  1  0  0  0  0  0  0  0  0  0
  -19.1203  -27.3070   20.9943 C   0  0  2  0  0  0  0  0  0  0  0  0
  -27.9530  -19.8011   17.7968 C   0  0  0  0  0  0  0  0  0  0  0  0
  -21.8040  -28.6127   24.7235 C   0  0  0  0  0  0  0  0  0  0  0  0
  -25.5599  -12.3788   20.8741 N   0  0  0  0  0  0  0  0  0  0  0  0
  -28.7281  -22.1787   21.1974 N   0  0  0  0  0  0  0  0  0  0  0  0
  -29.1391  -20.2125   19.8660 N   0  0  0  0  0  0  0  0  0  0  0  0
  -26.7945  -12.8542   20.6374 N   0  0  0  0  0  0  0  0  0  0  0  0
  -23.9552  -29.2686   21.9294 N   0  0  0  0  0  0  0  0  0  0  0  0
  -26.0035  -16.5492   20.0622 N   0  0  0  0  0  0  0  0  0  0  0  0
  -29.0241  -12.1853   20.1989 N   0  0  0  0  0  0  0  0  0  0  0  0
  -26.8199   -8.2641   20.6007 N   0  0  0  0  0  0  0  0  0  0  0  0
  -25.7576  -31.8419   23.1537 N   0  0  0  0  0  0  0  0  0  0  0  0
  -20.7506  -28.3069   22.4430 N   0  0  0  0  0  0  0  0  0  0  0  0
  -25.9933  -18.6082   18.8383 N   0  0  0  0  0  0  0  0  0  0  0  0
  -19.1503  -26.6510   19.6565 N   0  3  0  0  0  0  0  0  0  0  0  0
  -28.8718   -9.2167   20.2253 O   0  0  0  0  0  0  0  0  0  0  0  0
  -26.6179  -29.6966   22.8711 O   0  0  0  0  0  0  0  0  0  0  0  0
  -22.2768  -30.7238   22.6378 O   0  0  0  0  0  0  0  0  0  0  0  0
  -21.2225  -26.2354   21.5138 O   0  0  0  0  0  0  0  0  0  0  0  0
  -26.3224  -16.5883   17.7806 O   0  0  0  0  0  0  0  0  0  0  0  0
  -21.3853   -7.6335   21.6505 O   0  0  0  0  0  0  0  0  0  0  0  0
  -27.6300  -24.8594   19.6694 O   0  0  0  0  0  0  0  0  0  1  0  0
  -22.1214   -3.3054   24.9866 F   0  0  0  0  0  0  0  0  0  0  0  0
  -19.8561   -7.3258   23.9329 F   0  0  0  0  0  0  0  0  0  0  0  0
  1  2  1  0  0  0  0
  1  5  2  0  0  0  0
  2  6  2  0  0  0  0
  3  8  2  0  0  0  0
  3 16  1  0  0  0  0
  4  9  1  0  0  0  0
  4 16  2  0  0  0  0
  5 18  1  0  0  0  0
  6 20  1  0  0  0  0
  7 10  2  0  0  0  0
  7 19  1  0  0  0  0
  8 22  1  0  0  0  0
  9 22  2  0  0  0  0
 10 23  1  0  0  0  0
 11 12  2  0  0  0  0
 11 24  1  0  0  0  0
 12 25  1  0  0  0  0
 13 21  1  0  0  0  0
 13 23  2  0  0  0  0
 14 25  2  0  0  0  0
 14 26  1  0  0  0  0
 15 28  1  0  0  0  0
 15 29  2  0  0  0  0
 16 27  1  0  0  0  0
 17 27  1  0  0  0  0
 17 30  2  0  0  0  0
 17 32  1  0  0  0  0
 18 20  2  0  0  0  0
 18 37  1  0  0  0  0
 19 21  2  0  0  0  0
 19 38  1  0  0  0  0
 20 46  1  0  0  0  0
 21 39  1  0  0  0  0
 22 81  1  0  0  0  0
 23 82  1  0  0  0  0
 24 26  2  0  0  0  0
 24 81  1  0  0  0  0
 25 83  1  0  0  0  0
 26 84  1  0  0  0  0
 27 64  2  0  0  0  0
 28 58  1  0  0  0  0
 28 65  2  0  0  0  0
 29 62  1  0  0  0  0
 29 66  1  0  0  0  0
 30 67  1  0  0  0  0
 30 70  1  0  0  0  0
 31 49  1  0  0  0  0
 31 65  1  0  0  0  0
 31 66  2  0  0  0  0
 32 71  1  0  0  0  0
 32 76  2  0  0  0  0
 33 47  1  0  0  0  0
 33 72  1  0  0  0  0
 33 77  2  0  0  0  0
 34 60  1  0  0  0  0
 34 68  1  0  0  0  0
 34 78  2  0  0  0  0
 35 61  1  0  0  0  0
 35 73  1  0  0  0  0
 35 79  2  0  0  0  0
 36 69  1  0  0  0  0
 36 74  1  0  0  0  0
 36 80  2  0  0  0  0
 37 40  1  0  0  0  0
 38 47  1  0  0  0  0
 39 68  1  0  0  0  0
 40 42  1  0  0  0  0
 41 43  1  0  0  0  0
 41 44  1  0  0  0  0
 42 46  1  0  0  0  0
 43 48  1  0  0  0  0
 44 69  1  0  0  0  0
 45 48  1  0  0  0  0
 45 69  1  0  0  0  0
 46 72  1  0  0  0  0
 47 68  1  0  0  0  0
 48 67  1  0  0  0  0
 50 61  1  0  0  0  0
 51 62  1  0  0  0  0
 52 62  1  0  0  0  0
 53 63  1  0  0  0  0
 54 63  1  0  0  0  0
 55 63  1  0  0  0  0
 56 74  1  0  0  0  0
 57 75  1  0  0  0  0
 58 82  1  0  0  0  0
 59 62  1  0  0  0  0
 59 74  1  0  0  0  0
 60 63  1  0  0  0  0
 60 73  1  0  0  0  0
 61 75  1  0  0  0  0
 64 67  1  0  0  0  0
M  CHG  1  75   1
M  ISO  4  36 100  58 101  74 100  82 101
M  END
> <Batch ID>
0057

> <Smiles>
CNC(C)C(=O)NC(C(=O)N1Cc2cc([101O:1][101CH2:1]c3cc(C(C)(C)C[100N:0](C)[100C:0](=O)N4CCCC(n5nc(-c6ccc(Oc7ccc(F)cc7F)cc6)c(C(N)=O)c5N)C4)nc(C)n3)ccc2CC1C(=O)NC1CCCc2ccccc21)C(C)(C)C

> <Shape>
0.343

> <Color>
0.091

> <Negative vol penalty>
0.000

$$$$

  -OEChem-04052317483D

 81 89  0     1  0  0  0  0  0999 V2000
  -18.7999  -24.9020   29.5354 C   0  0  0  0  0  0  0  0  0  0  0  0
  -20.0447  -24.3644   29.2238 C   0  0  0  0  0  0  0  0  0  0  0  0
  -23.0007   -9.8942   19.9815 C   0  0  0  0  0  0  0  0  0  0  0  0
  -23.7311   -9.9436   22.2839 C   0  0  0  0  0  0  0  0  0  0  0  0
  -17.6430  -24.3305   29.0074 C   0  0  0  0  0  0  0  0  0  0  0  0
  -20.1331  -23.2541   28.3848 C   0  0  0  0  0  0  0  0  0  0  0  0
  -24.5571  -22.0512   24.3244 C   0  0  0  0  0  0  0  0  0  0  0  0
  -22.2360   -8.7586   20.2484 C   0  0  0  0  0  0  0  0  0  0  0  0
  -22.9664   -8.8081   22.5509 C   0  0  0  0  0  0  0  0  0  0  0  0
  -25.6861  -21.2351   24.3815 C   0  0  0  0  0  0  0  0  0  0  0  0
  -23.2132   -5.4699   22.0751 C   0  0  0  0  0  0  0  0  0  0  0  0
  -23.8036   -4.4526   22.8248 C   0  0  0  0  0  0  0  0  0  0  0  0
  -24.4567  -19.4684   23.2923 C   0  0  0  0  0  0  0  0  0  0  0  0
  -22.0833   -4.6920   24.5042 C   0  0  0  0  0  0  0  0  0  0  0  0
  -29.6011  -18.2176   25.6166 C   0  0  0  0  0  0  0  0  0  0  0  0
  -23.7483  -10.4867   20.9992 C   0  0  0  0  0  0  0  0  0  0  0  0
  -24.1305  -13.0029   20.8248 C   0  0  0  0  0  0  0  0  0  0  0  0
  -17.7180  -23.2185   28.1537 C   0  0  0  0  0  0  0  0  0  0  0  0
  -23.3642  -21.5773   23.7597 C   0  0  0  0  0  0  0  0  0  0  0  0
  -18.9760  -22.6663   27.8459 C   0  0  0  0  0  0  0  0  0  0  0  0
  -23.3148  -20.2813   23.2269 C   0  0  0  0  0  0  0  0  0  0  0  0
  -22.2188   -8.2156   21.5331 C   0  0  0  0  0  0  0  0  0  0  0  0
  -25.6352  -19.9425   23.8680 C   0  0  0  0  0  0  0  0  0  0  0  0
  -22.0579   -6.0983   22.5399 C   0  0  0  0  0  0  0  0  0  0  0  0
  -23.2386   -4.0636   24.0393 C   0  0  0  0  0  0  0  0  0  0  0  0
  -21.4930   -5.7093   23.7545 C   0  0  0  0  0  0  0  0  0  0  0  0
  -24.5389  -11.6594   20.7239 C   0  0  0  0  0  0  0  0  0  0  0  0
  -29.0114  -18.6786   24.4602 C   0  0  0  0  0  0  0  0  0  0  0  0
  -30.9764  -16.8732   24.3793 C   0  0  0  0  0  0  0  0  0  0  0  0
  -30.3862  -17.3336   23.2229 C   0  0  0  0  0  0  0  0  0  0  0  0
  -25.2387  -13.7270   20.4586 C   0  0  0  0  0  0  0  0  0  0  0  0
  -22.8629  -13.5475   21.2148 C   0  0  0  0  0  0  0  0  0  0  0  0
  -20.4161  -21.0765   24.8374 C   0  0  0  0  0  0  0  0  0  0  0  0
  -19.8037  -20.4326   21.7176 C   0  0  0  0  0  0  0  0  0  0  0  0
  -20.9964  -19.4580   18.6722 C   0  0  0  0  0  0  0  0  0  0  0  0
  -30.7346  -14.6673   20.6953 C   0  0  0  0  0  0  0  0  0  0  0  0
  -16.4369  -22.6062   27.6452 C   0  0  0  0  0  0  0  0  0  0  0  0
  -22.1631  -22.4794   23.6816 C   0  0  0  0  0  0  0  0  0  0  0  0
  -22.0643  -19.7321   22.5919 C   0  0  0  0  0  0  0  0  0  0  0  0
  -16.6406  -21.6608   26.4640 C   0  0  0  0  0  0  0  0  0  0  0  0
  -29.5911  -12.2447   18.3500 C   0  0  0  0  0  0  0  0  0  0  0  0
  -17.8007  -20.7085   26.7364 C   0  0  0  0  0  0  0  0  0  0  0  0
  -28.1438  -11.9830   18.7707 C   0  0  0  0  0  0  0  0  0  0  0  0
  -30.4960  -12.4799   19.5574 C   0  0  0  0  0  0  0  0  0  0  0  0
  -28.5882  -13.2720   20.9014 C   0  0  0  0  0  0  0  0  0  0  0  0
  -19.1145  -21.4777   26.9196 C   0  0  1  0  0  0  0  0  0  0  0  0
  -20.8496  -21.7151   23.5482 C   0  0  1  0  0  0  0  0  0  0  0  0
  -27.6266  -13.0845   19.7154 C   0  0  2  0  0  0  0  0  0  0  0  0
  -32.0739  -15.8652   24.3438 C   0  0  0  0  0  0  0  0  0  0  0  0
  -30.6464  -17.8995   20.7788 C   0  0  0  0  0  0  0  0  0  0  0  0
  -20.2499  -18.9871   16.3231 C   0  0  0  0  0  0  0  0  0  0  0  0
  -18.6273  -17.7685   22.6280 C   0  0  0  0  0  0  0  0  0  0  0  0
  -18.7816  -16.9706   20.2600 C   0  0  0  0  0  0  0  0  0  0  0  0
  -17.3311  -18.9197   20.8255 C   0  0  0  0  0  0  0  0  0  0  0  0
  -22.7308  -21.5881   17.5706 C   0  0  0  0  0  0  0  0  0  0  0  0
  -27.9086  -19.6942   24.5207 C   0  0  0  0  0  0  0  0  0  1  0  0
  -30.8177  -16.8451   21.8825 C   0  0  2  0  0  0  0  0  0  0  0  0
  -19.8441  -19.1954   20.8534 C   0  0  1  0  0  0  0  0  0  0  0  0
  -20.7976  -20.0332   17.2815 C   0  0  2  0  0  0  0  0  0  0  0  0
  -18.6692  -18.2229   21.1554 C   0  0  0  0  0  0  0  0  0  0  0  0
  -30.5942  -17.3066   25.5969 N   0  0  0  0  0  0  0  0  0  0  0  0
  -25.8074  -11.5347   20.3246 N   0  0  0  0  0  0  0  0  0  0  0  0
  -29.3933  -18.2448   23.2426 N   0  0  0  0  0  0  0  0  0  0  0  0
  -26.2056  -12.8090   20.1714 N   0  0  0  0  0  0  0  0  0  0  0  0
  -20.9145  -20.6504   22.5450 N   0  0  0  0  0  0  0  0  0  0  0  0
  -29.9501  -13.5371   20.4118 N   0  0  0  0  0  0  0  0  0  0  0  0
  -25.4705  -15.0531   20.3573 N   0  0  0  0  0  0  0  0  0  0  0  0
  -21.8328  -12.6619   21.5598 N   0  0  0  0  0  0  0  0  0  0  0  0
  -19.6398  -21.8936   25.6369 N   0  0  0  0  0  0  0  0  0  0  0  0
  -19.8925  -19.6635   19.4725 N   0  0  0  0  0  0  0  0  0  0  0  0
  -30.1391  -15.6246   21.5075 N   0  0  0  0  0  0  0  0  0  0  0  0
  -22.0913  -20.5361   16.7391 N   0  3  0  0  0  0  0  0  0  0  0  0
  -22.6449  -14.7826   21.2403 O   0  0  0  0  0  0  0  0  0  0  0  0
  -20.7592  -19.9270   25.0875 O   0  0  0  0  0  0  0  0  0  0  0  0
  -18.8259  -21.1820   21.6555 O   0  0  0  0  0  0  0  0  0  0  0  0
  -22.0264  -18.8806   19.0133 O   0  0  0  0  0  0  0  0  0  0  0  0
  -31.8788  -14.8148   20.2527 O   0  0  0  0  0  0  0  0  0  0  0  0
  -21.4725   -7.1076   21.7941 O   0  0  0  0  0  0  0  0  0  0  0  0
  -26.7355  -19.1437   23.9231 O   0  0  0  0  0  0  0  0  0  1  0  0
  -23.8048   -3.0856   24.7585 F   0  0  0  0  0  0  0  0  0  0  0  0
  -20.3825   -6.3086   24.2057 F   0  0  0  0  0  0  0  0  0  0  0  0
  1  2  1  0  0  0  0
  1  5  2  0  0  0  0
  2  6  2  0  0  0  0
  3  8  2  0  0  0  0
  3 16  1  0  0  0  0
  4  9  1  0  0  0  0
  4 16  2  0  0  0  0
  5 18  1  0  0  0  0
  6 20  1  0  0  0  0
  7 10  2  0  0  0  0
  7 19  1  0  0  0  0
  8 22  1  0  0  0  0
  9 22  2  0  0  0  0
 10 23  1  0  0  0  0
 11 12  2  0  0  0  0
 11 24  1  0  0  0  0
 12 25  1  0  0  0  0
 13 21  1  0  0  0  0
 13 23  2  0  0  0  0
 14 25  2  0  0  0  0
 14 26  1  0  0  0  0
 15 28  1  0  0  0  0
 15 61  2  0  0  0  0
 16 27  1  0  0  0  0
 17 27  1  0  0  0  0
 17 31  2  0  0  0  0
 17 32  1  0  0  0  0
 18 20  2  0  0  0  0
 18 37  1  0  0  0  0
 19 21  2  0  0  0  0
 19 38  1  0  0  0  0
 20 46  1  0  0  0  0
 21 39  1  0  0  0  0
 22 78  1  0  0  0  0
 23 79  1  0  0  0  0
 24 26  2  0  0  0  0
 24 78  1  0  0  0  0
 25 80  1  0  0  0  0
 26 81  1  0  0  0  0
 27 62  2  0  0  0  0
 28 56  1  0  0  0  0
 28 63  2  0  0  0  0
 29 30  2  0  0  0  0
 29 49  1  0  0  0  0
 29 61  1  0  0  0  0
 30 57  1  0  0  0  0
 30 63  1  0  0  0  0
 31 64  1  0  0  0  0
 31 67  1  0  0  0  0
 32 68  1  0  0  0  0
 32 73  2  0  0  0  0
 33 47  1  0  0  0  0
 33 69  1  0  0  0  0
 33 74  2  0  0  0  0
 34 58  1  0  0  0  0
 34 65  1  0  0  0  0
 34 75  2  0  0  0  0
 35 59  1  0  0  0  0
 35 70  1  0  0  0  0
 35 76  2  0  0  0  0
 36 66  1  0  0  0  0
 36 71  1  0  0  0  0
 36 77  2  0  0  0  0
 37 40  1  0  0  0  0
 38 47  1  0  0  0  0
 39 65  1  0  0  0  0
 40 42  1  0  0  0  0
 41 43  1  0  0  0  0
 41 44  1  0  0  0  0
 42 46  1  0  0  0  0
 43 48  1  0  0  0  0
 44 66  1  0  0  0  0
 45 48  1  0  0  0  0
 45 66  1  0  0  0  0
 46 69  1  0  0  0  0
 47 65  1  0  0  0  0
 48 64  1  0  0  0  0
 50 57  1  0  0  0  0
 51 59  1  0  0  0  0
 52 60  1  0  0  0  0
 53 60  1  0  0  0  0
 54 60  1  0  0  0  0
 55 72  1  0  0  0  0
 56 79  1  0  0  0  0
 57 71  1  0  0  0  0
 58 60  1  0  0  0  0
 58 70  1  0  0  0  0
 59 72  1  0  0  0  0
 62 64  1  0  0  0  0
M  CHG  1  72   1
M  ISO  4  36 100  56 101  71 100  79 101
M  END
> <Batch ID>
0057

> <Smiles>
CNC(C)C(=O)NC(C(=O)N1Cc2cc([101O:1][101CH2:1]c3cnc(C)c(C(C)[100NH:0][100C:0](=O)N4CCCC(n5nc(-c6ccc(Oc7ccc(F)cc7F)cc6)c(C(N)=O)c5N)C4)n3)ccc2CC1C(=O)NC1CCCc2ccccc21)C(C)(C)C

> <Shape>
0.178

> <Color>
0.197

> <Negative vol penalty>
0.000

$$$$

  -OEChem-04052317483D

 82 90  0     1  0  0  0  0  0999 V2000
  -18.3415  -33.3699   23.0043 C   0  0  0  0  0  0  0  0  0  0  0  0
  -19.6022  -33.3807   22.4162 C   0  0  0  0  0  0  0  0  0  0  0  0
  -26.5762  -14.3137   22.0309 C   0  0  0  0  0  0  0  0  0  0  0  0
  -26.1853  -14.2429   19.6478 C   0  0  0  0  0  0  0  0  0  0  0  0
  -17.9725  -32.3169   23.8404 C   0  0  0  0  0  0  0  0  0  0  0  0
  -20.4952  -32.3388   22.6647 C   0  0  0  0  0  0  0  0  0  0  0  0
  -25.7326  -28.6036   19.5129 C   0  0  0  0  0  0  0  0  0  0  0  0
  -25.7064  -13.2374   22.2056 C   0  0  0  0  0  0  0  0  0  0  0  0
  -25.3155  -13.1665   19.8225 C   0  0  0  0  0  0  0  0  0  0  0  0
  -27.0521  -28.2075   19.7269 C   0  0  0  0  0  0  0  0  0  0  0  0
  -22.1200  -12.6811   20.8144 C   0  0  0  0  0  0  0  0  0  0  0  0
  -20.9058  -12.7111   20.1285 C   0  0  0  0  0  0  0  0  0  0  0  0
  -26.2766  -26.4011   21.1251 C   0  0  0  0  0  0  0  0  0  0  0  0
  -21.4972  -10.6627   18.9921 C   0  0  0  0  0  0  0  0  0  0  0  0
  -31.1824  -24.3466   20.7506 C   0  0  0  0  0  0  0  0  0  0  0  0
  -26.8156  -14.8165   20.7520 C   0  0  0  0  0  0  0  0  0  0  0  0
  -29.1018  -15.8724   20.3447 C   0  0  0  0  0  0  0  0  0  0  0  0
  -18.8578  -31.2568   24.0915 C   0  0  0  0  0  0  0  0  0  0  0  0
  -24.6740  -27.9069   20.1131 C   0  0  0  0  0  0  0  0  0  0  0  0
  -20.1382  -31.2713   23.5060 C   0  0  0  0  0  0  0  0  0  0  0  0
  -24.9444  -26.7889   20.9150 C   0  0  0  0  0  0  0  0  0  0  0  0
  -25.0761  -12.6637   21.1014 C   0  0  0  0  0  0  0  0  0  0  0  0
  -27.3244  -27.1079   20.5354 C   0  0  0  0  0  0  0  0  0  0  0  0
  -23.0229  -11.6420   20.5891 C   0  0  0  0  0  0  0  0  0  0  0  0
  -20.5944  -11.7019   19.2173 C   0  0  0  0  0  0  0  0  0  0  0  0
  -22.7115  -10.6327   19.6780 C   0  0  0  0  0  0  0  0  0  0  0  0
  -27.7135  -15.9288   20.5710 C   0  0  0  0  0  0  0  0  0  0  0  0
  -29.4865  -17.1869   20.2417 C   0  0  0  0  0  0  0  0  0  0  0  0
  -31.6054  -23.7503   18.7955 C   0  0  0  0  0  0  0  0  0  0  0  0
  -29.9664  -14.7337   20.2372 C   0  0  0  0  0  0  0  0  0  0  0  0
  -22.3937  -28.6531   22.1981 C   0  0  0  0  0  0  0  0  0  0  0  0
  -21.3425  -25.6583   21.5284 C   0  0  0  0  0  0  0  0  0  0  0  0
  -22.0689  -22.5126   20.4223 C   0  0  0  0  0  0  0  0  0  0  0  0
  -28.6880  -22.3526   18.2863 C   0  0  0  0  0  0  0  0  0  0  0  0
  -18.4316  -30.1643   25.0399 C   0  0  0  0  0  0  0  0  0  0  0  0
  -23.2548  -28.3307   19.8507 C   0  0  0  0  0  0  0  0  0  0  0  0
  -23.8426  -25.9947   21.5660 C   0  0  0  0  0  0  0  0  0  0  0  0
  -19.2982  -28.9106   24.9538 C   0  0  0  0  0  0  0  0  0  0  0  0
  -26.9581  -21.4471   21.2636 C   0  0  0  0  0  0  0  0  0  0  0  0
  -20.7774  -29.2834   24.9499 C   0  0  0  0  0  0  0  0  0  0  0  0
  -27.1097  -19.9262   21.3265 C   0  0  0  0  0  0  0  0  0  0  0  0
  -26.7931  -21.9388   19.8272 C   0  0  0  0  0  0  0  0  0  0  0  0
  -27.9970  -19.9719   18.9581 C   0  0  0  0  0  0  0  0  0  0  0  0
  -21.1255  -30.1469   23.7315 C   0  0  1  0  0  0  0  0  0  0  0  0
  -22.2818  -27.8596   20.9271 C   0  0  1  0  0  0  0  0  0  0  0  0
  -28.2224  -19.4340   20.3816 C   0  0  2  0  0  0  0  0  0  0  0  0
  -21.0119  -20.2720   20.0227 C   0  0  0  0  0  0  0  0  0  0  0  0
  -32.7129  -21.6552   17.7559 C   0  0  0  0  0  0  0  0  0  0  0  0
  -32.7982  -23.8434   16.5895 C   0  0  0  0  0  0  0  0  0  0  0  0
  -21.3719  -25.1118   24.5301 C   0  0  0  0  0  0  0  0  0  0  0  0
  -21.2438  -22.6650   24.0153 C   0  0  0  0  0  0  0  0  0  0  0  0
  -19.3903  -24.1827   23.3200 C   0  0  0  0  0  0  0  0  0  0  0  0
  -22.6859  -22.6081   17.5294 C   0  0  0  0  0  0  0  0  0  0  0  0
  -31.0038  -26.9508   20.5125 C   0  0  0  0  0  0  0  0  0  0  0  0
  -30.6164  -22.6064   16.7448 C   0  0  0  0  0  0  0  0  0  0  0  0
  -29.6335  -27.4841   20.1087 C   0  0  0  0  0  0  0  0  0  1  0  0
  -21.5999  -24.2832   22.0955 C   0  0  1  0  0  0  0  0  0  0  0  0
  -21.3776  -21.6156   19.4114 C   0  0  2  0  0  0  0  0  0  0  0  0
  -31.9038  -23.0031   17.5768 C   0  0  0  0  0  0  0  0  0  0  0  0
  -20.9225  -24.0766   23.4797 C   0  0  0  0  0  0  0  0  0  0  0  0
  -31.4233  -23.2381   19.9904 N   0  0  0  0  0  0  0  0  0  0  0  0
  -27.2477  -17.1800   20.6097 N   0  0  0  0  0  0  0  0  0  0  0  0
  -31.4765  -25.1030   18.8528 N   0  0  0  0  0  0  0  0  0  0  0  0
  -31.2039  -25.5124   20.1011 N   0  0  0  0  0  0  0  0  0  0  0  0
  -28.3496  -17.9221   20.4064 N   0  0  0  0  0  0  0  0  0  0  0  0
  -22.4720  -26.4523   21.2842 N   0  0  0  0  0  0  0  0  0  0  0  0
  -27.8811  -21.4384   18.9836 N   0  0  0  0  0  0  0  0  0  0  0  0
  -30.6831  -17.7741   20.0273 N   0  0  0  0  0  0  0  0  0  0  0  0
  -29.4068  -13.4553   20.3678 N   0  0  0  0  0  0  0  0  0  0  0  0
  -21.2374  -29.3255   22.5452 N   0  0  0  0  0  0  0  0  0  0  0  0
  -21.1728  -23.3337   21.0736 N   0  0  0  0  0  0  0  0  0  0  0  0
  -29.7002  -21.7949   17.5148 N   0  0  0  0  0  0  0  0  0  0  0  0
  -22.2671  -21.3729   18.2407 N   0  3  0  0  0  0  0  0  0  0  0  0
  -31.2012  -14.8470   20.0479 O   0  0  0  0  0  0  0  0  0  0  0  0
  -23.4503  -28.6541   22.8187 O   0  0  0  0  0  0  0  0  0  0  0  0
  -20.1824  -26.0123   21.3035 O   0  0  0  0  0  0  0  0  0  0  0  0
  -23.2820  -22.4849   20.6176 O   0  0  0  0  0  0  0  0  0  0  0  0
  -28.5222  -23.5754   18.3509 O   0  0  0  0  0  0  0  0  0  0  0  0
  -24.2275  -11.6132   21.2715 O   0  0  0  0  0  0  0  0  0  0  0  0
  -28.6114  -26.7195   20.7466 O   0  0  0  0  0  0  0  0  0  1  0  0
  -19.4278  -11.7299   18.5599 F   0  0  0  0  0  0  0  0  0  0  0  0
  -23.5743   -9.6312   19.4583 F   0  0  0  0  0  0  0  0  0  0  0  0
  1  2  1  0  0  0  0
  1  5  2  0  0  0  0
  2  6  2  0  0  0  0
  3  8  2  0  0  0  0
  3 16  1  0  0  0  0
  4  9  1  0  0  0  0
  4 16  2  0  0  0  0
  5 18  1  0  0  0  0
  6 20  1  0  0  0  0
  7 10  2  0  0  0  0
  7 19  1  0  0  0  0
  8 22  1  0  0  0  0
  9 22  2  0  0  0  0
 10 23  1  0  0  0  0
 11 12  2  0  0  0  0
 11 24  1  0  0  0  0
 12 25  1  0  0  0  0
 13 21  1  0  0  0  0
 13 23  2  0  0  0  0
 14 25  2  0  0  0  0
 14 26  1  0  0  0  0
 15 61  2  0  0  0  0
 15 64  1  0  0  0  0
 16 27  1  0  0  0  0
 17 27  1  0  0  0  0
 17 28  2  0  0  0  0
 17 30  1  0  0  0  0
 18 20  2  0  0  0  0
 18 35  1  0  0  0  0
 19 21  2  0  0  0  0
 19 36  1  0  0  0  0
 20 44  1  0  0  0  0
 21 37  1  0  0  0  0
 22 79  1  0  0  0  0
 23 80  1  0  0  0  0
 24 26  2  0  0  0  0
 24 79  1  0  0  0  0
 25 81  1  0  0  0  0
 26 82  1  0  0  0  0
 27 62  2  0  0  0  0
 28 65  1  0  0  0  0
 28 68  1  0  0  0  0
 29 59  1  0  0  0  0
 29 61  1  0  0  0  0
 29 63  2  0  0  0  0
 30 69  1  0  0  0  0
 30 74  2  0  0  0  0
 31 45  1  0  0  0  0
 31 70  1  0  0  0  0
 31 75  2  0  0  0  0
 32 57  1  0  0  0  0
 32 66  1  0  0  0  0
 32 76  2  0  0  0  0
 33 58  1  0  0  0  0
 33 71  1  0  0  0  0
 33 77  2  0  0  0  0
 34 67  1  0  0  0  0
 34 72  1  0  0  0  0
 34 78  2  0  0  0  0
 35 38  1  0  0  0  0
 36 45  1  0  0  0  0
 37 66  1  0  0  0  0
 38 40  1  0  0  0  0
 39 41  1  0  0  0  0
 39 42  1  0  0  0  0
 40 44  1  0  0  0  0
 41 46  1  0  0  0  0
 42 67  1  0  0  0  0
 43 46  1  0  0  0  0
 43 67  1  0  0  0  0
 44 70  1  0  0  0  0
 45 66  1  0  0  0  0
 46 65  1  0  0  0  0
 47 58  1  0  0  0  0
 48 59  1  0  0  0  0
 49 59  1  0  0  0  0
 50 60  1  0  0  0  0
 51 60  1  0  0  0  0
 52 60  1  0  0  0  0
 53 73  1  0  0  0  0
 54 56  1  0  0  0  0
 54 64  1  0  0  0  0
 55 59  1  0  0  0  0
 55 72  1  0  0  0  0
 56 80  1  0  0  0  0
 57 60  1  0  0  0  0
 57 71  1  0  0  0  0
 58 73  1  0  0  0  0
 62 65  1  0  0  0  0
 63 64  1  0  0  0  0
M  CHG  1  73   1
M  ISO  4  34 100  56 101  72 100  80 101
M  END
> <Batch ID>
0057

> <Smiles>
CNC(C)C(=O)NC(C(=O)N1Cc2cc([101O:1][101CH2:1]Cn3cnc(C(C)(C)C[100NH:0][100C:0](=O)N4CCCC(n5nc(-c6ccc(Oc7ccc(F)cc7F)cc6)c(C(N)=O)c5N)C4)n3)ccc2CC1C(=O)NC1CCCc2ccccc21)C(C)(C)C

> <Shape>
0.243

> <Color>
0.106

> <Negative vol penalty>
0.000

$$$$

  -OEChem-04052317483D

 81 89  0     1  0  0  0  0  0999 V2000
  -27.8132  -10.8101   22.1808 C   0  0  0  0  0  0  0  0  0  0  0  0
  -28.4815  -11.7884   21.4516 C   0  0  0  0  0  0  0  0  0  0  0  0
  -19.6532  -28.7495   22.0147 C   0  0  0  0  0  0  0  0  0  0  0  0
  -20.5334  -26.9011   23.2974 C   0  0  0  0  0  0  0  0  0  0  0  0
  -26.4203  -10.7546   22.1576 C   0  0  0  0  0  0  0  0  0  0  0  0
  -27.7571  -12.7112   20.6979 C   0  0  0  0  0  0  0  0  0  0  0  0
  -29.1811  -18.5851   19.7098 C   0  0  0  0  0  0  0  0  0  0  0  0
  -18.3968  -28.1439   22.0040 C   0  0  0  0  0  0  0  0  0  0  0  0
  -19.2769  -26.2954   23.2868 C   0  0  0  0  0  0  0  0  0  0  0  0
  -29.7975  -19.2338   18.6407 C   0  0  0  0  0  0  0  0  0  0  0  0
  -17.3998  -24.4899   21.1310 C   0  0  0  0  0  0  0  0  0  0  0  0
  -17.3405  -23.1254   20.8480 C   0  0  0  0  0  0  0  0  0  0  0  0
  -27.6312  -19.7965   17.7410 C   0  0  0  0  0  0  0  0  0  0  0  0
  -16.3291  -22.7220   23.0048 C   0  0  0  0  0  0  0  0  0  0  0  0
  -20.7215  -28.1281   22.6613 C   0  0  0  0  0  0  0  0  0  0  0  0
  -22.5208  -29.6555   23.6294 C   0  0  0  0  0  0  0  0  0  0  0  0
  -25.6781  -11.6832   21.4109 C   0  0  0  0  0  0  0  0  0  0  0  0
  -27.7827  -18.5277   19.7970 C   0  0  0  0  0  0  0  0  0  0  0  0
  -26.3529  -12.6673   20.6636 C   0  0  0  0  0  0  0  0  0  0  0  0
  -26.9995  -19.1487   18.8135 C   0  0  0  0  0  0  0  0  0  0  0  0
  -18.2086  -26.9168   22.6401 C   0  0  0  0  0  0  0  0  0  0  0  0
  -29.0226  -19.8371   17.6546 C   0  0  0  0  0  0  0  0  0  0  0  0
  -16.9238  -24.9706   22.3509 C   0  0  0  0  0  0  0  0  0  0  0  0
  -16.8051  -22.2414   21.7849 C   0  0  0  0  0  0  0  0  0  0  0  0
  -16.3884  -24.0866   23.2878 C   0  0  0  0  0  0  0  0  0  0  0  0
  -22.0198  -28.7530   22.6722 C   0  0  0  0  0  0  0  0  0  0  0  0
  -23.7878  -29.9532   23.1905 C   0  0  0  0  0  0  0  0  0  0  0  0
  -30.2529  -23.9068   17.5862 C   0  0  0  0  0  0  0  0  0  0  0  0
  -29.2940  -25.5724   18.5937 C   0  0  0  0  0  0  0  0  0  0  0  0
  -21.8968  -30.1781   24.8097 C   0  0  0  0  0  0  0  0  0  0  0  0
  -25.6301  -16.1889   19.8101 C   0  0  0  0  0  0  0  0  0  0  0  0
  -27.5540  -26.8687   19.7879 C   0  0  0  0  0  0  0  0  0  0  0  0
  -23.5678  -18.6181   20.4168 C   0  0  0  0  0  0  0  0  0  0  0  0
  -22.8748  -21.9527   20.1999 C   0  0  0  0  0  0  0  0  0  0  0  0
  -24.1758  -11.5541   21.3789 C   0  0  0  0  0  0  0  0  0  0  0  0
  -27.1332  -17.8472   20.9706 C   0  0  0  0  0  0  0  0  0  0  0  0
  -25.4946  -19.1329   18.8715 C   0  0  0  0  0  0  0  0  0  0  0  0
  -23.4684  -12.8009   20.8539 C   0  0  0  0  0  0  0  0  0  0  0  0
  -26.4005  -30.2679   19.2032 C   0  0  0  0  0  0  0  0  0  0  0  0
  -24.1455  -13.3034   19.5828 C   0  0  0  0  0  0  0  0  0  0  0  0
  -25.1665  -30.3308   20.1023 C   0  0  0  0  0  0  0  0  0  0  0  0
  -26.5748  -28.8829   18.5855 C   0  0  0  0  0  0  0  0  0  0  0  0
  -25.3884  -27.8381   20.4894 C   0  0  0  0  0  0  0  0  0  0  0  0
  -25.6014  -13.7013   19.8536 C   0  0  1  0  0  0  0  0  0  0  0  0
  -25.7003  -17.4064   20.6878 C   0  0  1  0  0  0  0  0  0  0  0  0
  -25.1938  -29.2101   21.1562 C   0  0  2  0  0  0  0  0  0  0  0  0
  -29.7290  -27.9521   19.3287 C   0  0  0  0  0  0  0  0  0  0  0  0
  -21.0950  -23.6346   20.7486 C   0  0  0  0  0  0  0  0  0  0  0  0
  -21.9210  -17.6476   18.0386 C   0  0  0  0  0  0  0  0  0  0  0  0
  -20.7360  -19.8530   18.0481 C   0  0  0  0  0  0  0  0  0  0  0  0
  -20.5727  -18.3429   20.0269 C   0  0  0  0  0  0  0  0  0  0  0  0
  -29.9227  -25.9719   16.1939 C   0  0  0  0  0  0  0  0  0  0  0  0
  -24.6822  -23.4495   22.0033 C   0  0  0  0  0  0  0  0  0  0  0  0
  -30.9149  -23.0918   16.5039 C   0  0  0  0  0  0  0  0  0  0  0  0
  -29.9393  -22.5503   15.4567 C   0  0  0  0  0  0  0  0  0  0  0  0
  -28.9219  -21.5702   16.0291 C   0  0  0  0  0  0  0  0  0  1  0  0
  -28.7133  -26.9070   18.8244 C   0  0  1  0  0  0  0  0  0  0  0  0
  -22.7429  -19.5569   19.5699 C   0  0  1  0  0  0  0  0  0  0  0  0
  -22.3619  -22.9440   21.2289 C   0  0  2  0  0  0  0  0  0  0  0  0
  -21.5215  -18.8489   18.9185 C   0  0  0  0  0  0  0  0  0  0  0  0
  -22.8969  -28.4943   21.6987 N   0  0  0  0  0  0  0  0  0  0  0  0
  -29.9961  -23.5281   18.8178 N   0  0  0  0  0  0  0  0  0  0  0  0
  -29.3860  -24.5878   19.4588 N   0  0  0  0  0  0  0  0  0  0  0  0
  -23.9618  -29.2389   22.0417 N   0  0  0  0  0  0  0  0  0  0  0  0
  -29.8276  -25.1873   17.4013 N   0  0  0  0  0  0  0  0  0  0  0  0
  -24.9064  -18.4496   20.0354 N   0  0  0  0  0  0  0  0  0  0  0  0
  -26.5681  -27.8413   19.6196 N   0  0  0  0  0  0  0  0  0  0  0  0
  -24.7589  -30.7536   23.6790 N   0  0  0  0  0  0  0  0  0  0  0  0
  -20.5914  -29.7678   25.1128 N   0  0  0  0  0  0  0  0  0  0  0  0
  -25.6598  -14.9935   20.5026 N   0  0  0  0  0  0  0  0  0  0  0  0
  -22.3925  -20.6817   20.4304 N   0  0  0  0  0  0  0  0  0  0  0  0
  -23.3911  -23.9867   21.5017 N   0  3  0  0  0  0  0  0  0  0  0  0
  -22.4735  -30.9976   25.5642 O   0  0  0  0  0  0  0  0  0  0  0  0
  -25.5531  -16.3241   18.5945 O   0  0  0  0  0  0  0  0  0  0  0  0
  -27.5285  -26.0013   20.6649 O   0  0  0  0  0  0  0  0  0  0  0  0
  -23.0457  -18.0606   21.3854 O   0  0  0  0  0  0  0  0  0  0  0  0
  -23.6251  -22.2746   19.2812 O   0  0  0  0  0  0  0  0  0  0  0  0
  -16.9826  -26.3257   22.6301 O   0  0  0  0  0  0  0  0  0  0  0  0
  -29.6217  -20.4704   16.6096 O   0  0  0  0  0  0  0  0  0  1  0  0
  -16.7469  -20.9313   21.5123 F   0  0  0  0  0  0  0  0  0  0  0  0
  -15.9285  -24.5426   24.4610 F   0  0  0  0  0  0  0  0  0  0  0  0
  1  2  1  0  0  0  0
  1  5  2  0  0  0  0
  2  6  2  0  0  0  0
  3  8  2  0  0  0  0
  3 15  1  0  0  0  0
  4  9  1  0  0  0  0
  4 15  2  0  0  0  0
  5 17  1  0  0  0  0
  6 19  1  0  0  0  0
  7 10  2  0  0  0  0
  7 18  1  0  0  0  0
  8 21  1  0  0  0  0
  9 21  2  0  0  0  0
 10 22  1  0  0  0  0
 11 12  2  0  0  0  0
 11 23  1  0  0  0  0
 12 24  1  0  0  0  0
 13 20  1  0  0  0  0
 13 22  2  0  0  0  0
 14 24  2  0  0  0  0
 14 25  1  0  0  0  0
 15 26  1  0  0  0  0
 16 26  1  0  0  0  0
 16 27  2  0  0  0  0
 16 30  1  0  0  0  0
 17 19  2  0  0  0  0
 17 35  1  0  0  0  0
 18 20  2  0  0  0  0
 18 36  1  0  0  0  0
 19 44  1  0  0  0  0
 20 37  1  0  0  0  0
 21 78  1  0  0  0  0
 22 79  1  0  0  0  0
 23 25  2  0  0  0  0
 23 78  1  0  0  0  0
 24 80  1  0  0  0  0
 25 81  1  0  0  0  0
 26 61  2  0  0  0  0
 27 64  1  0  0  0  0
 27 68  1  0  0  0  0
 28 54  1  0  0  0  0
 28 62  2  0  0  0  0
 28 65  1  0  0  0  0
 29 57  1  0  0  0  0
 29 63  2  0  0  0  0
 29 65  1  0  0  0  0
 30 69  1  0  0  0  0
 30 73  2  0  0  0  0
 31 45  1  0  0  0  0
 31 70  1  0  0  0  0
 31 74  2  0  0  0  0
 32 57  1  0  0  0  0
 32 67  1  0  0  0  0
 32 75  2  0  0  0  0
 33 58  1  0  0  0  0
 33 66  1  0  0  0  0
 33 76  2  0  0  0  0
 34 59  1  0  0  0  0
 34 71  1  0  0  0  0
 34 77  2  0  0  0  0
 35 38  1  0  0  0  0
 36 45  1  0  0  0  0
 37 66  1  0  0  0  0
 38 40  1  0  0  0  0
 39 41  1  0  0  0  0
 39 42  1  0  0  0  0
 40 44  1  0  0  0  0
 41 46  1  0  0  0  0
 42 67  1  0  0  0  0
 43 46  1  0  0  0  0
 43 67  1  0  0  0  0
 44 70  1  0  0  0  0
 45 66  1  0  0  0  0
 46 64  1  0  0  0  0
 47 57  1  0  0  0  0
 48 59  1  0  0  0  0
 49 60  1  0  0  0  0
 50 60  1  0  0  0  0
 51 60  1  0  0  0  0
 52 65  1  0  0  0  0
 53 72  1  0  0  0  0
 54 55  1  0  0  0  0
 55 56  1  0  0  0  0
 56 79  1  0  0  0  0
 58 60  1  0  0  0  0
 58 71  1  0  0  0  0
 59 72  1  0  0  0  0
 61 64  1  0  0  0  0
 62 63  1  0  0  0  0
M  CHG  1  72   1
M  ISO  4  32 100  56 101  57 100  79 101
M  END
> <Batch ID>
0057

> <Smiles>
CNC(C)C(=O)NC(C(=O)N1Cc2cc([101O:1][101CH2:1]CCc3nnc([100CH:0](C)[100C:0](=O)N4CCCC(n5nc(-c6ccc(Oc7ccc(F)cc7F)cc6)c(C(N)=O)c5N)C4)n3C)ccc2CC1C(=O)NC1CCCc2ccccc21)C(C)(C)C

> <Shape>
0.226

> <Color>
0.075

> <Negative vol penalty>
0.000

$$$$

  -OEChem-04052317483D

 83 91  0     1  0  0  0  0  0999 V2000
  -27.9958  -32.1621   27.4836 C   0  0  0  0  0  0  0  0  0  0  0  0
  -28.1080  -31.1635   26.5214 C   0  0  0  0  0  0  0  0  0  0  0  0
  -25.7801  -13.6330   21.9640 C   0  0  0  0  0  0  0  0  0  0  0  0
  -25.5200  -13.1201   19.6174 C   0  0  0  0  0  0  0  0  0  0  0  0
  -26.7360  -32.6144   27.8736 C   0  0  0  0  0  0  0  0  0  0  0  0
  -26.9601  -30.6159   25.9495 C   0  0  0  0  0  0  0  0  0  0  0  0
  -27.3326  -30.1389   20.9217 C   0  0  0  0  0  0  0  0  0  0  0  0
  -24.8659  -12.6296   22.2847 C   0  0  0  0  0  0  0  0  0  0  0  0
  -24.6057  -12.1166   19.9381 C   0  0  0  0  0  0  0  0  0  0  0  0
  -28.0777  -29.0646   20.4375 C   0  0  0  0  0  0  0  0  0  0  0  0
  -24.6981   -8.9379   21.0817 C   0  0  0  0  0  0  0  0  0  0  0  0
  -24.8341   -7.7089   20.4361 C   0  0  0  0  0  0  0  0  0  0  0  0
  -26.0387  -27.8413   20.0314 C   0  0  0  0  0  0  0  0  0  0  0  0
  -22.6137   -7.9475   19.5141 C   0  0  0  0  0  0  0  0  0  0  0  0
  -28.6629  -23.5557   19.4075 C   0  0  0  0  0  0  0  0  0  0  0  0
  -26.1071  -13.8783   20.6303 C   0  0  0  0  0  0  0  0  0  0  0  0
  -28.4470  -14.7851   20.1718 C   0  0  0  0  0  0  0  0  0  0  0  0
  -25.5724  -32.0788   27.2992 C   0  0  0  0  0  0  0  0  0  0  0  0
  -25.9331  -30.0682   20.9746 C   0  0  0  0  0  0  0  0  0  0  0  0
  -25.6835  -31.0605   26.3332 C   0  0  0  0  0  0  0  0  0  0  0  0
  -25.2780  -28.9171   20.5143 C   0  0  0  0  0  0  0  0  0  0  0  0
  -28.3979  -24.6658   18.6317 C   0  0  0  0  0  0  0  0  0  0  0  0
  -24.2787  -11.8714   21.2718 C   0  0  0  0  0  0  0  0  0  0  0  0
  -27.4309  -27.9144   19.9950 C   0  0  0  0  0  0  0  0  0  0  0  0
  -23.5199   -9.6717   20.9435 C   0  0  0  0  0  0  0  0  0  0  0  0
  -23.7920   -7.2138   19.6523 C   0  0  0  0  0  0  0  0  0  0  0  0
  -22.4777   -9.1765   20.1597 C   0  0  0  0  0  0  0  0  0  0  0  0
  -27.0510  -14.9151   20.2983 C   0  0  0  0  0  0  0  0  0  0  0  0
  -29.0789  -24.7331   17.4334 C   0  0  0  0  0  0  0  0  0  0  0  0
  -28.8814  -16.0469   19.8469 C   0  0  0  0  0  0  0  0  0  0  0  0
  -30.1257  -22.7610   17.8597 C   0  0  0  0  0  0  0  0  0  0  0  0
  -29.2770  -13.6271   20.3334 C   0  0  0  0  0  0  0  0  0  0  0  0
  -23.7678  -30.1792   23.2990 C   0  0  0  0  0  0  0  0  0  0  0  0
  -21.6759  -30.1659   20.8200 C   0  0  0  0  0  0  0  0  0  0  0  0
  -21.0507  -29.3695   17.5609 C   0  0  0  0  0  0  0  0  0  0  0  0
  -28.0297  -20.5832   16.5282 C   0  0  0  0  0  0  0  0  0  0  0  0
  -24.2313  -32.5664   27.7872 C   0  0  0  0  0  0  0  0  0  0  0  0
  -25.1426  -31.2460   21.4748 C   0  0  0  0  0  0  0  0  0  0  0  0
  -23.7766  -28.7988   20.5312 C   0  0  0  0  0  0  0  0  0  0  0  0
  -23.0752  -32.1976   26.8611 C   0  0  0  0  0  0  0  0  0  0  0  0
  -26.4783  -20.4875   19.8876 C   0  0  0  0  0  0  0  0  0  0  0  0
  -23.1686  -30.7321   26.4482 C   0  0  0  0  0  0  0  0  0  0  0  0
  -26.5448  -19.0031   20.2430 C   0  0  0  0  0  0  0  0  0  0  0  0
  -26.4024  -20.7068   18.3797 C   0  0  0  0  0  0  0  0  0  0  0  0
  -27.5643  -18.5621   17.9744 C   0  0  0  0  0  0  0  0  0  0  0  0
  -24.4625  -30.4591   25.6718 C   0  0  1  0  0  0  0  0  0  0  0  0
  -23.7480  -30.8658   21.9627 C   0  0  1  0  0  0  0  0  0  0  0  0
  -27.6886  -18.3080   19.4842 C   0  0  2  0  0  0  0  0  0  0  0  0
  -28.8714  -25.8893   16.5116 C   0  0  0  0  0  0  0  0  0  0  0  0
  -32.2907  -21.5953   18.3870 C   0  0  0  0  0  0  0  0  0  0  0  0
  -19.2377  -29.4450   15.8275 C   0  0  0  0  0  0  0  0  0  0  0  0
  -20.3093  -27.7835   22.1490 C   0  0  0  0  0  0  0  0  0  0  0  0
  -19.1563  -27.3212   19.9753 C   0  0  0  0  0  0  0  0  0  0  0  0
  -18.7445  -29.4714   21.1709 C   0  0  0  0  0  0  0  0  0  0  0  0
  -29.8386  -20.2967   14.8773 C   0  0  0  0  0  0  0  0  0  0  0  0
  -22.6501  -31.1275   15.7973 C   0  0  0  0  0  0  0  0  0  0  0  0
  -27.4281  -25.7170   19.0854 C   0  0  0  0  0  0  0  0  0  1  0  0
  -30.4327  -20.3077   17.2715 C   0  0  0  0  0  0  0  0  0  0  0  0
  -31.0848  -21.7027   17.4304 C   0  0  1  0  0  0  0  0  0  0  0  0
  -20.9668  -29.0961   20.0252 C   0  0  1  0  0  0  0  0  0  0  0  0
  -20.4315  -30.1699   16.4293 C   0  0  2  0  0  0  0  0  0  0  0  0
  -19.8226  -28.4192   20.8314 C   0  0  0  0  0  0  0  0  0  0  0  0
  -29.5242  -22.5803   19.0509 N   0  0  0  0  0  0  0  0  0  0  0  0
  -26.6267  -16.1613   20.0724 N   0  0  0  0  0  0  0  0  0  0  0  0
  -29.9534  -23.7951   17.0144 N   0  0  0  0  0  0  0  0  0  0  0  0
  -27.7628  -16.8258   19.8008 N   0  0  0  0  0  0  0  0  0  0  0  0
  -23.0481  -29.9748   21.0352 N   0  0  0  0  0  0  0  0  0  0  0  0
  -27.4755  -20.0001   17.6795 N   0  0  0  0  0  0  0  0  0  0  0  0
  -30.1073  -16.5551   19.5992 N   0  0  0  0  0  0  0  0  0  0  0  0
  -28.6679  -12.4099   20.6677 N   0  0  0  0  0  0  0  0  0  0  0  0
  -24.3422  -30.9284   24.3081 N   0  0  0  0  0  0  0  0  0  0  0  0
  -20.5304  -29.7301   18.7858 N   0  0  0  0  0  0  0  0  0  0  0  0
  -29.3792  -20.3092   16.2588 N   0  0  0  0  0  0  0  0  0  0  0  0
  -21.4331  -30.4020   15.3505 N   0  3  0  0  0  0  0  0  0  0  0  0
  -30.5236  -13.6741   20.2017 O   0  0  0  0  0  0  0  0  0  0  0  0
  -23.2956  -29.0536   23.4070 O   0  0  0  0  0  0  0  0  0  0  0  0
  -21.0373  -31.1390   21.2285 O   0  0  0  0  0  0  0  0  0  0  0  0
  -21.9073  -28.5078   17.3762 O   0  0  0  0  0  0  0  0  0  0  0  0
  -27.3593  -21.3150   15.7886 O   0  0  0  0  0  0  0  0  0  0  0  0
  -23.3867  -10.8920   21.5844 O   0  0  0  0  0  0  0  0  0  0  0  0
  -28.1558  -26.8641   19.5225 O   0  0  0  0  0  0  0  0  0  1  0  0
  -23.9233   -6.0343   19.0312 F   0  0  0  0  0  0  0  0  0  0  0  0
  -21.3439   -9.8775   20.0223 F   0  0  0  0  0  0  0  0  0  0  0  0
  1  2  1  0  0  0  0
  1  5  2  0  0  0  0
  2  6  2  0  0  0  0
  3  8  2  0  0  0  0
  3 16  1  0  0  0  0
  4  9  1  0  0  0  0
  4 16  2  0  0  0  0
  5 18  1  0  0  0  0
  6 20  1  0  0  0  0
  7 10  2  0  0  0  0
  7 19  1  0  0  0  0
  8 23  1  0  0  0  0
  9 23  2  0  0  0  0
 10 24  1  0  0  0  0
 11 12  2  0  0  0  0
 11 25  1  0  0  0  0
 12 26  1  0  0  0  0
 13 21  1  0  0  0  0
 13 24  2  0  0  0  0
 14 26  2  0  0  0  0
 14 27  1  0  0  0  0
 15 22  1  0  0  0  0
 15 63  2  0  0  0  0
 16 28  1  0  0  0  0
 17 28  1  0  0  0  0
 17 30  2  0  0  0  0
 17 32  1  0  0  0  0
 18 20  2  0  0  0  0
 18 37  1  0  0  0  0
 19 21  2  0  0  0  0
 19 38  1  0  0  0  0
 20 46  1  0  0  0  0
 21 39  1  0  0  0  0
 22 29  2  0  0  0  0
 22 57  1  0  0  0  0
 23 80  1  0  0  0  0
 24 81  1  0  0  0  0
 25 27  2  0  0  0  0
 25 80  1  0  0  0  0
 26 82  1  0  0  0  0
 27 83  1  0  0  0  0
 28 64  2  0  0  0  0
 29 49  1  0  0  0  0
 29 65  1  0  0  0  0
 30 66  1  0  0  0  0
 30 69  1  0  0  0  0
 31 59  1  0  0  0  0
 31 63  1  0  0  0  0
 31 65  2  0  0  0  0
 32 70  1  0  0  0  0
 32 75  2  0  0  0  0
 33 47  1  0  0  0  0
 33 71  1  0  0  0  0
 33 76  2  0  0  0  0
 34 60  1  0  0  0  0
 34 67  1  0  0  0  0
 34 77  2  0  0  0  0
 35 61  1  0  0  0  0
 35 72  1  0  0  0  0
 35 78  2  0  0  0  0
 36 68  1  0  0  0  0
 36 73  1  0  0  0  0
 36 79  2  0  0  0  0
 37 40  1  0  0  0  0
 38 47  1  0  0  0  0
 39 67  1  0  0  0  0
 40 42  1  0  0  0  0
 41 43  1  0  0  0  0
 41 44  1  0  0  0  0
 42 46  1  0  0  0  0
 43 48  1  0  0  0  0
 44 68  1  0  0  0  0
 45 48  1  0  0  0  0
 45 68  1  0  0  0  0
 46 71  1  0  0  0  0
 47 67  1  0  0  0  0
 48 66  1  0  0  0  0
 50 59  1  0  0  0  0
 51 61  1  0  0  0  0
 52 62  1  0  0  0  0
 53 62  1  0  0  0  0
 54 62  1  0  0  0  0
 55 73  1  0  0  0  0
 56 74  1  0  0  0  0
 57 81  1  0  0  0  0
 58 59  1  0  0  0  0
 58 73  1  0  0  0  0
 60 62  1  0  0  0  0
 60 72  1  0  0  0  0
 61 74  1  0  0  0  0
 64 66  1  0  0  0  0
M  CHG  1  74   1
M  ISO  4  36 100  57 101  73 100  81 101
M  END
> <Batch ID>
0057

> <Smiles>
CNC(C)C(=O)NC(C(=O)N1Cc2cc([101O:1][101CH2:1]c3cnc(C(C)C[100N:0](C)[100C:0](=O)N4CCCC(n5nc(-c6ccc(Oc7ccc(F)cc7F)cc6)c(C(N)=O)c5N)C4)nc3C)ccc2CC1C(=O)NC1CCCc2ccccc21)C(C)(C)C

> <Shape>
0.280

> <Color>
0.097

> <Negative vol penalty>
0.000

$$$$

  -OEChem-04052317483D

 85 93  0     1  0  0  0  0  0999 V2000
  -16.8686  -29.6989   24.4580 C   0  0  0  0  0  0  0  0  0  0  0  0
  -17.2857  -28.5235   23.8417 C   0  0  0  0  0  0  0  0  0  0  0  0
  -26.9821  -11.5575   21.6521 C   0  0  0  0  0  0  0  0  0  0  0  0
  -26.0785  -12.8662   19.8333 C   0  0  0  0  0  0  0  0  0  0  0  0
  -17.4907  -30.9070   24.1459 C   0  0  0  0  0  0  0  0  0  0  0  0
  -18.3245  -28.5558   22.9120 C   0  0  0  0  0  0  0  0  0  0  0  0
  -22.5667  -24.2381   21.9804 C   0  0  0  0  0  0  0  0  0  0  0  0
  -25.8182  -10.7891   21.6774 C   0  0  0  0  0  0  0  0  0  0  0  0
  -24.9147  -12.0978   19.8586 C   0  0  0  0  0  0  0  0  0  0  0  0
  -22.6754  -23.2182   21.0361 C   0  0  0  0  0  0  0  0  0  0  0  0
  -24.4800   -8.2361   19.9100 C   0  0  0  0  0  0  0  0  0  0  0  0
  -24.6194   -6.8513   20.0024 C   0  0  0  0  0  0  0  0  0  0  0  0
  -24.0792  -24.6337   19.6778 C   0  0  0  0  0  0  0  0  0  0  0  0
  -23.3726   -6.8639   22.0718 C   0  0  0  0  0  0  0  0  0  0  0  0
  -27.6147  -17.9807   17.2821 C   0  0  0  0  0  0  0  0  0  0  0  0
  -27.1122  -12.5961   20.7301 C   0  0  0  0  0  0  0  0  0  0  0  0
  -29.4778  -13.1470   19.9501 C   0  0  0  0  0  0  0  0  0  0  0  0
  -18.5441  -30.9526   23.2191 C   0  0  0  0  0  0  0  0  0  0  0  0
  -23.2056  -25.4694   21.7750 C   0  0  0  0  0  0  0  0  0  0  0  0
  -18.9604  -29.7658   22.5862 C   0  0  0  0  0  0  0  0  0  0  0  0
  -23.9792  -25.6667   20.6222 C   0  0  0  0  0  0  0  0  0  0  0  0
  -24.7845  -11.0592   20.7807 C   0  0  0  0  0  0  0  0  0  0  0  0
  -23.4293  -23.4169   19.8832 C   0  0  0  0  0  0  0  0  0  0  0  0
  -23.7870   -8.9348   20.8985 C   0  0  0  0  0  0  0  0  0  0  0  0
  -24.0656   -6.1652   21.0832 C   0  0  0  0  0  0  0  0  0  0  0  0
  -23.2332   -8.2487   21.9794 C   0  0  0  0  0  0  0  0  0  0  0  0
  -28.3140  -13.3906   20.7038 C   0  0  0  0  0  0  0  0  0  0  0  0
  -26.6141  -18.1342   18.1998 C   0  0  0  0  0  0  0  0  0  0  0  0
  -30.3202  -14.1819   20.2752 C   0  0  0  0  0  0  0  0  0  0  0  0
  -28.4941  -18.8678   19.1097 C   0  0  0  0  0  0  0  0  0  0  0  0
  -29.7710  -12.0806   19.0377 C   0  0  0  0  0  0  0  0  0  0  0  0
  -22.2283  -28.4757   21.4421 C   0  0  0  0  0  0  0  0  0  0  0  0
  -25.4101  -29.1051   21.4929 C   0  0  0  0  0  0  0  0  0  0  0  0
  -28.5935  -27.9848   20.9854 C   0  0  0  0  0  0  0  0  0  0  0  0
  -28.8859  -19.6910   22.5404 C   0  0  0  0  0  0  0  0  0  0  0  0
  -19.1542  -32.2893   22.8788 C   0  0  0  0  0  0  0  0  0  0  0  0
  -23.1004  -26.5500   22.8159 C   0  0  0  0  0  0  0  0  0  0  0  0
  -24.7013  -26.9629   20.3641 C   0  0  0  0  0  0  0  0  0  0  0  0
  -20.4973  -32.1808   22.1615 C   0  0  0  0  0  0  0  0  0  0  0  0
  -31.3374  -17.2274   23.8143 C   0  0  0  0  0  0  0  0  0  0  0  0
  -20.4215  -31.1506   21.0391 C   0  0  0  0  0  0  0  0  0  0  0  0
  -30.8849  -15.9307   23.1452 C   0  0  0  0  0  0  0  0  0  0  0  0
  -30.1758  -18.1948   24.0201 C   0  0  0  0  0  0  0  0  0  0  0  0
  -28.9641  -17.2011   22.1073 C   0  0  0  0  0  0  0  0  0  0  0  0
  -20.1002  -29.7563   21.5909 C   0  0  1  0  0  0  0  0  0  0  0  0
  -23.3718  -27.9443   22.2593 C   0  0  1  0  0  0  0  0  0  0  0  0
  -30.1190  -16.2234   21.8433 C   0  0  2  0  0  0  0  0  0  0  0  0
  -30.9850  -28.7402   21.0724 C   0  0  0  0  0  0  0  0  0  0  0  0
  -30.1023  -19.3771   16.0155 C   0  0  0  0  0  0  0  0  0  0  0  0
  -30.5735  -17.0581   16.9137 C   0  0  0  0  0  0  0  0  0  0  0  0
  -25.0264  -30.6137   18.8686 C   0  0  0  0  0  0  0  0  0  0  0  0
  -27.5051  -30.5147   18.5301 C   0  0  0  0  0  0  0  0  0  0  0  0
  -26.5641  -31.7269   20.4967 C   0  0  0  0  0  0  0  0  0  0  0  0
  -28.2295  -21.4195   20.9092 C   0  0  0  0  0  0  0  0  0  0  0  0
  -29.2714  -25.9840   23.0581 C   0  0  0  0  0  0  0  0  0  0  0  0
  -25.1428  -17.8106   18.1331 C   0  0  0  0  0  0  0  0  0  0  0  0
  -29.4526  -19.4412   20.0870 C   0  0  0  0  0  0  0  0  0  0  0  0
  -24.2669  -18.7309   18.9904 C   0  0  0  0  0  0  0  0  0  0  0  0
  -24.3136  -20.1918   18.5403 C   0  0  0  0  0  0  0  0  0  0  0  0
  -23.4642  -21.0809   19.4382 C   0  0  0  0  0  0  0  0  0  1  0  0
  -26.4979  -29.2000   20.4505 C   0  0  1  0  0  0  0  0  0  0  0  0
  -29.8452  -28.0867   21.8382 C   0  0  2  0  0  0  0  0  0  0  0  0
  -30.0730  -18.4655   17.2440 C   0  0  0  0  0  0  0  0  0  0  0  0
  -26.3833  -30.4900   19.5901 C   0  0  0  0  0  0  0  0  0  0  0  0
  -28.4053  -14.4936   21.4515 N   0  0  0  0  0  0  0  0  0  0  0  0
  -28.7665  -18.4431   17.8716 N   0  0  0  0  0  0  0  0  0  0  0  0
  -29.6366  -14.9523   21.1693 N   0  0  0  0  0  0  0  0  0  0  0  0
  -27.1867  -18.6848   19.3209 N   0  3  0  0  0  0  0  0  0  0  0  0
  -24.5627  -27.9913   21.4085 N   0  0  0  0  0  0  0  0  0  0  0  0
  -29.4390  -18.4216   22.7763 N   0  0  0  0  0  0  0  0  0  0  0  0
  -31.5717  -14.4990   19.8806 N   0  0  0  0  0  0  0  0  0  0  0  0
  -28.7933  -11.1005   18.8191 N   0  0  0  0  0  0  0  0  0  0  0  0
  -21.2811  -29.1610   22.1787 N   0  0  0  0  0  0  0  0  0  0  0  0
  -27.7621  -29.0698   21.1668 N   0  0  0  0  0  0  0  0  0  0  0  0
  -28.7856  -20.1066   21.2040 N   0  0  0  0  0  0  0  0  0  0  0  0
  -30.2873  -26.7317   22.2733 N   0  3  0  0  0  0  0  0  0  0  0  0
  -30.8737  -11.9904   18.4466 O   0  0  0  0  0  0  0  0  0  0  0  0
  -22.2077  -28.2798   20.2326 O   0  0  0  0  0  0  0  0  0  0  0  0
  -25.3201  -29.9830   22.3547 O   0  0  0  0  0  0  0  0  0  0  0  0
  -28.3768  -27.0392   20.2308 O   0  0  0  0  0  0  0  0  0  0  0  0
  -28.5124  -20.4156   23.4717 O   0  0  0  0  0  0  0  0  0  0  0  0
  -23.6488  -10.3095   20.8049 O   0  0  0  0  0  0  0  0  0  0  0  0
  -23.5365  -22.4233   18.9595 O   0  0  0  0  0  0  0  0  0  1  0  0
  -24.1982   -4.8352   21.1710 F   0  0  0  0  0  0  0  0  0  0  0  0
  -22.5653   -8.9144   22.9315 F   0  0  0  0  0  0  0  0  0  0  0  0
  1  2  1  0  0  0  0
  1  5  2  0  0  0  0
  2  6  2  0  0  0  0
  3  8  2  0  0  0  0
  3 16  1  0  0  0  0
  4  9  1  0  0  0  0
  4 16  2  0  0  0  0
  5 18  1  0  0  0  0
  6 20  1  0  0  0  0
  7 10  2  0  0  0  0
  7 19  1  0  0  0  0
  8 22  1  0  0  0  0
  9 22  2  0  0  0  0
 10 23  1  0  0  0  0
 11 12  2  0  0  0  0
 11 24  1  0  0  0  0
 12 25  1  0  0  0  0
 13 21  1  0  0  0  0
 13 23  2  0  0  0  0
 14 25  2  0  0  0  0
 14 26  1  0  0  0  0
 15 28  2  0  0  0  0
 15 66  1  0  0  0  0
 16 27  1  0  0  0  0
 17 27  1  0  0  0  0
 17 29  2  0  0  0  0
 17 31  1  0  0  0  0
 18 20  2  0  0  0  0
 18 36  1  0  0  0  0
 19 21  2  0  0  0  0
 19 37  1  0  0  0  0
 20 45  1  0  0  0  0
 21 38  1  0  0  0  0
 22 82  1  0  0  0  0
 23 83  1  0  0  0  0
 24 26  2  0  0  0  0
 24 82  1  0  0  0  0
 25 84  1  0  0  0  0
 26 85  1  0  0  0  0
 27 65  2  0  0  0  0
 28 56  1  0  0  0  0
 28 68  1  0  0  0  0
 29 67  1  0  0  0  0
 29 71  1  0  0  0  0
 30 57  1  0  0  0  0
 30 66  1  0  0  0  0
 30 68  2  0  0  0  0
 31 72  1  0  0  0  0
 31 77  2  0  0  0  0
 32 46  1  0  0  0  0
 32 73  1  0  0  0  0
 32 78  2  0  0  0  0
 33 61  1  0  0  0  0
 33 69  1  0  0  0  0
 33 79  2  0  0  0  0
 34 62  1  0  0  0  0
 34 74  1  0  0  0  0
 34 80  2  0  0  0  0
 35 70  1  0  0  0  0
 35 75  1  0  0  0  0
 35 81  2  0  0  0  0
 36 39  1  0  0  0  0
 37 46  1  0  0  0  0
 38 69  1  0  0  0  0
 39 41  1  0  0  0  0
 40 42  1  0  0  0  0
 40 43  1  0  0  0  0
 41 45  1  0  0  0  0
 42 47  1  0  0  0  0
 43 70  1  0  0  0  0
 44 47  1  0  0  0  0
 44 70  1  0  0  0  0
 45 73  1  0  0  0  0
 46 69  1  0  0  0  0
 47 67  1  0  0  0  0
 48 62  1  0  0  0  0
 49 63  1  0  0  0  0
 50 63  1  0  0  0  0
 51 64  1  0  0  0  0
 52 64  1  0  0  0  0
 53 64  1  0  0  0  0
 54 75  1  0  0  0  0
 55 76  1  0  0  0  0
 56 58  1  0  0  0  0
 57 75  1  0  0  0  0
 58 59  1  0  0  0  0
 59 60  1  0  0  0  0
 60 83  1  0  0  0  0
 61 64  1  0  0  0  0
 61 74  1  0  0  0  0
 62 76  1  0  0  0  0
 63 66  1  0  0  0  0
 65 67  1  0  0  0  0
M  CHG  2  68   1  76   1
M  ISO  4  35 100  60 101  75 100  83 101
M  END
> <Batch ID>
0057

> <Smiles>
CNC(C)C(=O)NC(C(=O)N1Cc2cc([101O:1][101CH2:1]CCCc3cn(C(C)C)c(C[100N:0](C)[100C:0](=O)N4CCCC(n5nc(-c6ccc(Oc7ccc(F)cc7F)cc6)c(C(N)=O)c5N)C4)n3)ccc2CC1C(=O)NC1CCCc2ccccc21)C(C)(C)C

> <Shape>
0.274

> <Color>
0.076

> <Negative vol penalty>
0.000

$$$$

  -OEChem-04052317483D

 80 88  0     1  0  0  0  0  0999 V2000
  -22.4329  -11.8337   19.6810 C   0  0  0  0  0  0  0  0  0  0  0  0
  -22.5424  -13.0922   19.1005 C   0  0  0  0  0  0  0  0  0  0  0  0
  -28.0656  -28.2116   21.5373 C   0  0  0  0  0  0  0  0  0  0  0  0
  -27.2549  -27.6297   19.3370 C   0  0  0  0  0  0  0  0  0  0  0  0
  -23.2381  -11.4991   20.7677 C   0  0  0  0  0  0  0  0  0  0  0  0
  -23.4655  -14.0123   19.5988 C   0  0  0  0  0  0  0  0  0  0  0  0
  -24.0449  -18.1910   17.0679 C   0  0  0  0  0  0  0  0  0  0  0  0
  -29.2056  -27.4374   21.3220 C   0  0  0  0  0  0  0  0  0  0  0  0
  -28.3950  -26.8554   19.1217 C   0  0  0  0  0  0  0  0  0  0  0  0
  -23.0821  -19.1992   17.0469 C   0  0  0  0  0  0  0  0  0  0  0  0
  -32.5000  -25.9044   21.2123 C   0  0  0  0  0  0  0  0  0  0  0  0
  -33.7319  -26.4493   21.5743 C   0  0  0  0  0  0  0  0  0  0  0  0
  -24.4139  -20.4948   18.5853 C   0  0  0  0  0  0  0  0  0  0  0  0
  -33.3756  -28.2772   20.0351 C   0  0  0  0  0  0  0  0  0  0  0  0
  -20.4185  -23.7033   19.3565 C   0  0  0  0  0  0  0  0  0  0  0  0
  -27.0901  -28.3077   20.5448 C   0  0  0  0  0  0  0  0  0  0  0  0
  -25.7421  -30.4721   20.4681 C   0  0  0  0  0  0  0  0  0  0  0  0
  -24.1625  -12.4205   21.2868 C   0  0  0  0  0  0  0  0  0  0  0  0
  -25.1962  -18.3227   17.8576 C   0  0  0  0  0  0  0  0  0  0  0  0
  -24.3040  -13.6849   20.6797 C   0  0  0  0  0  0  0  0  0  0  0  0
  -25.3911  -19.4880   18.6126 C   0  0  0  0  0  0  0  0  0  0  0  0
  -29.3704  -26.7593   20.1143 C   0  0  0  0  0  0  0  0  0  0  0  0
  -23.2652  -20.3500   17.8079 C   0  0  0  0  0  0  0  0  0  0  0  0
  -31.7059  -26.5458   20.2616 C   0  0  0  0  0  0  0  0  0  0  0  0
  -34.1697  -27.6357   20.9857 C   0  0  0  0  0  0  0  0  0  0  0  0
  -32.1438  -27.7322   19.6730 C   0  0  0  0  0  0  0  0  0  0  0  0
  -25.9119  -29.1069   20.7668 C   0  0  0  0  0  0  0  0  0  0  0  0
  -21.4249  -23.4374   18.4623 C   0  0  0  0  0  0  0  0  0  0  0  0
  -24.4579  -30.7534   20.8659 C   0  0  0  0  0  0  0  0  0  0  0  0
  -26.6627  -31.4027   19.8832 C   0  0  0  0  0  0  0  0  0  0  0  0
  -26.4311  -16.7181   20.3079 C   0  0  0  0  0  0  0  0  0  0  0  0
  -28.9240  -18.7486   19.8775 C   0  0  0  0  0  0  0  0  0  0  0  0
  -30.0472  -21.7487   18.7009 C   0  0  0  0  0  0  0  0  0  0  0  0
  -19.5625  -27.3709   21.5327 C   0  0  0  0  0  0  0  0  0  0  0  0
  -25.0145  -12.0032   22.4595 C   0  0  0  0  0  0  0  0  0  0  0  0
  -26.2381  -17.2378   17.8485 C   0  0  0  0  0  0  0  0  0  0  0  0
  -26.6193  -19.6870   19.4613 C   0  0  0  0  0  0  0  0  0  0  0  0
  -25.6394  -13.1865   23.1913 C   0  0  0  0  0  0  0  0  0  0  0  0
  -21.1291  -29.3830   24.0174 C   0  0  0  0  0  0  0  0  0  0  0  0
  -26.3093  -14.1196   22.1938 C   0  0  0  0  0  0  0  0  0  0  0  0
  -22.5172  -29.6636   23.4391 C   0  0  0  0  0  0  0  0  0  0  0  0
  -20.6495  -27.9741   23.6754 C   0  0  0  0  0  0  0  0  0  0  0  0
  -22.0678  -27.9219   21.6606 C   0  0  0  0  0  0  0  0  0  0  0  0
  -25.2794  -14.7128   21.2241 C   0  0  1  0  0  0  0  0  0  0  0  0
  -27.1270  -17.2527   19.0882 C   0  0  1  0  0  0  0  0  0  0  0  0
  -22.5705  -29.3502   21.9317 C   0  0  2  0  0  0  0  0  0  0  0  0
  -31.6935  -23.5413   18.0896 C   0  0  0  0  0  0  0  0  0  0  0  0
  -17.2619  -24.9242   18.3062 C   0  0  0  0  0  0  0  0  0  0  0  0
  -28.6835  -19.4710   22.8322 C   0  0  0  0  0  0  0  0  0  0  0  0
  -30.0919  -21.4912   22.3813 C   0  0  0  0  0  0  0  0  0  0  0  0
  -31.0308  -19.2101   22.0098 C   0  0  0  0  0  0  0  0  0  0  0  0
  -30.4777  -20.5971   16.0088 C   0  0  0  0  0  0  0  0  0  0  0  0
  -22.5786  -22.4872   18.5935 C   0  0  0  0  0  0  0  0  0  1  0  0
  -18.6153  -26.7985   19.3114 C   0  0  0  0  0  0  0  0  0  0  0  0
  -29.2958  -20.1124   20.4074 C   0  0  1  0  0  0  0  0  0  0  0  0
  -31.2463  -22.1089   17.8425 C   0  0  2  0  0  0  0  0  0  0  0  0
  -18.4608  -25.2738   19.1943 C   0  0  2  0  0  0  0  0  0  0  0  0
  -29.7513  -20.0669   21.8933 C   0  0  0  0  0  0  0  0  0  0  0  0
  -24.8228  -28.5591   21.3124 N   0  0  0  0  0  0  0  0  0  0  0  0
  -21.2505  -24.1932   17.3363 N   0  0  0  0  0  0  0  0  0  0  0  0
  -20.1571  -24.9290   17.5038 N   0  0  0  0  0  0  0  0  0  0  0  0
  -19.6598  -24.6339   18.7158 N   0  0  0  0  0  0  0  0  0  0  0  0
  -23.9563  -29.5852   21.3598 N   0  0  0  0  0  0  0  0  0  0  0  0
  -27.6062  -18.5951   19.4240 N   0  0  0  0  0  0  0  0  0  0  0  0
  -20.7235  -27.7416   22.2309 N   0  0  0  0  0  0  0  0  0  0  0  0
  -23.7202  -31.8836   20.8380 N   0  0  0  0  0  0  0  0  0  0  0  0
  -27.9412  -30.9474   19.5334 N   0  0  0  0  0  0  0  0  0  0  0  0
  -25.9748  -15.4209   20.1720 N   0  0  0  0  0  0  0  0  0  0  0  0
  -30.2975  -20.6470   19.4914 N   0  0  0  0  0  0  0  0  0  0  0  0
  -19.7189  -27.1763   20.1658 N   0  0  0  0  0  0  0  0  0  0  0  0
  -30.9113  -21.9638   16.3976 N   0  3  0  0  0  0  0  0  0  0  0  0
  -26.3661  -32.6065   19.6921 O   0  0  0  0  0  0  0  0  0  0  0  0
  -26.3179  -17.4293   21.2994 O   0  0  0  0  0  0  0  0  0  0  0  0
  -29.7736  -17.8544   19.8598 O   0  0  0  0  0  0  0  0  0  0  0  0
  -28.9951  -22.3835   18.6756 O   0  0  0  0  0  0  0  0  0  0  0  0
  -18.4664  -27.2295   22.0856 O   0  0  0  0  0  0  0  0  0  0  0  0
  -30.4828  -26.0039   19.9038 O   0  0  0  0  0  0  0  0  0  0  0  0
  -22.3266  -21.3353   17.7898 O   0  0  0  0  0  0  0  0  0  1  0  0
  -35.3520  -28.1598   21.3346 F   0  0  0  0  0  0  0  0  0  0  0  0
  -31.3848  -28.3535   18.7599 F   0  0  0  0  0  0  0  0  0  0  0  0
  1  2  1  0  0  0  0
  1  5  2  0  0  0  0
  2  6  2  0  0  0  0
  3  8  2  0  0  0  0
  3 16  1  0  0  0  0
  4  9  1  0  0  0  0
  4 16  2  0  0  0  0
  5 18  1  0  0  0  0
  6 20  1  0  0  0  0
  7 10  2  0  0  0  0
  7 19  1  0  0  0  0
  8 22  1  0  0  0  0
  9 22  2  0  0  0  0
 10 23  1  0  0  0  0
 11 12  2  0  0  0  0
 11 24  1  0  0  0  0
 12 25  1  0  0  0  0
 13 21  1  0  0  0  0
 13 23  2  0  0  0  0
 14 25  2  0  0  0  0
 14 26  1  0  0  0  0
 15 28  2  0  0  0  0
 15 62  1  0  0  0  0
 16 27  1  0  0  0  0
 17 27  1  0  0  0  0
 17 29  2  0  0  0  0
 17 30  1  0  0  0  0
 18 20  2  0  0  0  0
 18 35  1  0  0  0  0
 19 21  2  0  0  0  0
 19 36  1  0  0  0  0
 20 44  1  0  0  0  0
 21 37  1  0  0  0  0
 22 77  1  0  0  0  0
 23 78  1  0  0  0  0
 24 26  2  0  0  0  0
 24 77  1  0  0  0  0
 25 79  1  0  0  0  0
 26 80  1  0  0  0  0
 27 59  2  0  0  0  0
 28 53  1  0  0  0  0
 28 60  1  0  0  0  0
 29 63  1  0  0  0  0
 29 66  1  0  0  0  0
 30 67  1  0  0  0  0
 30 72  2  0  0  0  0
 31 45  1  0  0  0  0
 31 68  1  0  0  0  0
 31 73  2  0  0  0  0
 32 55  1  0  0  0  0
 32 64  1  0  0  0  0
 32 74  2  0  0  0  0
 33 56  1  0  0  0  0
 33 69  1  0  0  0  0
 33 75  2  0  0  0  0
 34 65  1  0  0  0  0
 34 70  1  0  0  0  0
 34 76  2  0  0  0  0
 35 38  1  0  0  0  0
 36 45  1  0  0  0  0
 37 64  1  0  0  0  0
 38 40  1  0  0  0  0
 39 41  1  0  0  0  0
 39 42  1  0  0  0  0
 40 44  1  0  0  0  0
 41 46  1  0  0  0  0
 42 65  1  0  0  0  0
 43 46  1  0  0  0  0
 43 65  1  0  0  0  0
 44 68  1  0  0  0  0
 45 64  1  0  0  0  0
 46 63  1  0  0  0  0
 47 56  1  0  0  0  0
 48 57  1  0  0  0  0
 49 58  1  0  0  0  0
 50 58  1  0  0  0  0
 51 58  1  0  0  0  0
 52 71  1  0  0  0  0
 53 78  1  0  0  0  0
 54 57  1  0  0  0  0
 54 70  1  0  0  0  0
 55 58  1  0  0  0  0
 55 69  1  0  0  0  0
 56 71  1  0  0  0  0
 57 62  1  0  0  0  0
 59 63  1  0  0  0  0
 60 61  2  0  0  0  0
 61 62  1  0  0  0  0
M  CHG  1  71   1
M  ISO  4  34 100  53 101  70 100  78 101
M  END
> <Batch ID>
0057

> <Smiles>
CNC(C)C(=O)NC(C(=O)N1Cc2cc([101O:1][101CH2:1]c3cn(C(C)C[100NH:0][100C:0](=O)N4CCCC(n5nc(-c6ccc(Oc7ccc(F)cc7F)cc6)c(C(N)=O)c5N)C4)nn3)ccc2CC1C(=O)NC1CCCc2ccccc21)C(C)(C)C

> <Shape>
0.228

> <Color>
0.066

> <Negative vol penalty>
0.000

$$$$

  -OEChem-04052317483D

 81 89  0     1  0  0  0  0  0999 V2000
  -18.1964  -30.2902   25.2469 C   0  0  0  0  0  0  0  0  0  0  0  0
  -19.1137  -29.2714   25.4836 C   0  0  0  0  0  0  0  0  0  0  0  0
  -23.8339   -9.9177   22.4094 C   0  0  0  0  0  0  0  0  0  0  0  0
  -24.5190  -11.6028   23.9993 C   0  0  0  0  0  0  0  0  0  0  0  0
  -17.9318  -30.6987   23.9404 C   0  0  0  0  0  0  0  0  0  0  0  0
  -19.7662  -28.6598   24.4137 C   0  0  0  0  0  0  0  0  0  0  0  0
  -26.0234  -25.6308   22.6847 C   0  0  0  0  0  0  0  0  0  0  0  0
  -23.3884   -9.1109   23.4564 C   0  0  0  0  0  0  0  0  0  0  0  0
  -24.0734  -10.7961   25.0464 C   0  0  0  0  0  0  0  0  0  0  0  0
  -26.5359  -24.4586   22.1308 C   0  0  0  0  0  0  0  0  0  0  0  0
  -20.6925   -8.9312   25.4893 C   0  0  0  0  0  0  0  0  0  0  0  0
  -19.4472   -8.3184   25.3507 C   0  0  0  0  0  0  0  0  0  0  0  0
  -26.0581  -25.3009   19.9214 C   0  0  0  0  0  0  0  0  0  0  0  0
  -20.4924   -6.1494   25.5509 C   0  0  0  0  0  0  0  0  0  0  0  0
  -29.8762  -19.8368   19.5334 C   0  0  0  0  0  0  0  0  0  0  0  0
  -24.3993  -11.1636   22.6808 C   0  0  0  0  0  0  0  0  0  0  0  0
  -24.1176  -12.9638   20.8955 C   0  0  0  0  0  0  0  0  0  0  0  0
  -18.5884  -30.0984   22.8545 C   0  0  0  0  0  0  0  0  0  0  0  0
  -25.5135  -26.6440   21.8602 C   0  0  0  0  0  0  0  0  0  0  0  0
  -19.5091  -29.0597   23.0913 C   0  0  0  0  0  0  0  0  0  0  0  0
  -25.5420  -26.4861   20.4672 C   0  0  0  0  0  0  0  0  0  0  0  0
  -23.5081   -9.5501   24.7749 C   0  0  0  0  0  0  0  0  0  0  0  0
  -26.5507  -24.2922   20.7490 C   0  0  0  0  0  0  0  0  0  0  0  0
  -21.8378   -8.1532   25.6586 C   0  0  0  0  0  0  0  0  0  0  0  0
  -19.3472   -6.9274   25.3816 C   0  0  0  0  0  0  0  0  0  0  0  0
  -21.7378   -6.7623   25.6894 C   0  0  0  0  0  0  0  0  0  0  0  0
  -24.8602  -11.9972   21.5997 C   0  0  0  0  0  0  0  0  0  0  0  0
  -29.0302  -18.9338   18.9284 C   0  0  0  0  0  0  0  0  0  0  0  0
  -27.2255  -20.0952   19.7184 C   0  0  0  0  0  0  0  0  0  0  0  0
  -28.0717  -20.9978   20.3241 C   0  0  0  0  0  0  0  0  0  0  0  0
  -25.0017  -13.4732   19.9760 C   0  0  0  0  0  0  0  0  0  0  0  0
  -22.7509  -13.3655   21.0580 C   0  0  0  0  0  0  0  0  0  0  0  0
  -22.6698  -28.0146   21.4880 C   0  0  0  0  0  0  0  0  0  0  0  0
  -24.3087  -29.9709   19.4857 C   0  0  0  0  0  0  0  0  0  0  0  0
  -27.0156  -30.4332   17.4595 C   0  0  0  0  0  0  0  0  0  0  0  0
  -30.0660  -15.4035   18.6449 C   0  0  0  0  0  0  0  0  0  0  0  0
  -18.2345  -30.5414   21.4570 C   0  0  0  0  0  0  0  0  0  0  0  0
  -24.9886  -27.9138   22.4722 C   0  0  0  0  0  0  0  0  0  0  0  0
  -25.0252  -27.5524   19.5375 C   0  0  0  0  0  0  0  0  0  0  0  0
  -19.2459  -30.0983   20.4030 C   0  0  0  0  0  0  0  0  0  0  0  0
  -29.5964  -11.8746   18.5906 C   0  0  0  0  0  0  0  0  0  0  0  0
  -19.6034  -28.6274   20.5913 C   0  0  0  0  0  0  0  0  0  0  0  0
  -28.2649  -11.6716   19.3157 C   0  0  0  0  0  0  0  0  0  0  0  0
  -30.4057  -13.0145   19.2052 C   0  0  0  0  0  0  0  0  0  0  0  0
  -28.3533  -14.0935   20.0403 C   0  0  0  0  0  0  0  0  0  0  0  0
  -20.2554  -28.3888   21.9586 C   0  0  1  0  0  0  0  0  0  0  0  0
  -24.0234  -28.6629   21.5587 C   0  0  1  0  0  0  0  0  0  0  0  0
  -27.4770  -12.9912   19.4212 C   0  0  2  0  0  0  0  0  0  0  0  0
  -25.7445  -20.2321   19.8160 C   0  0  0  0  0  0  0  0  0  0  0  0
  -29.1469  -17.7985   16.6791 C   0  0  0  0  0  0  0  0  0  0  0  0
  -28.0633  -32.1213   15.9264 C   0  0  0  0  0  0  0  0  0  0  0  0
  -22.2363  -29.3101   17.3459 C   0  0  0  0  0  0  0  0  0  0  0  0
  -23.8172  -30.2224   15.6321 C   0  0  0  0  0  0  0  0  0  0  0  0
  -22.9263  -31.7127   17.4233 C   0  0  0  0  0  0  0  0  0  0  0  0
  -29.4644  -30.5881   19.1142 C   0  0  0  0  0  0  0  0  0  0  0  0
  -27.5420  -22.1608   21.1103 C   0  0  0  0  0  0  0  0  0  1  0  0
  -29.5785  -17.7869   18.1539 C   0  0  2  0  0  0  0  0  0  0  0  0
  -24.6453  -29.9554   18.0141 C   0  0  1  0  0  0  0  0  0  0  0  0
  -28.0049  -31.5790   17.3461 C   0  0  2  0  0  0  0  0  0  0  0  0
  -23.4143  -30.2790   17.1212 C   0  0  0  0  0  0  0  0  0  0  0  0
  -29.4122  -20.8850   20.2422 N   0  0  0  0  0  0  0  0  0  0  0  0
  -26.1190  -11.8965   21.1648 N   0  0  0  0  0  0  0  0  0  0  0  0
  -27.6896  -19.0468   19.0100 N   0  0  0  0  0  0  0  0  0  0  0  0
  -26.1743  -12.8064   20.1773 N   0  0  0  0  0  0  0  0  0  0  0  0
  -24.5164  -28.7731   20.1843 N   0  0  0  0  0  0  0  0  0  0  0  0
  -29.6018  -14.2372   19.2751 N   0  0  0  0  0  0  0  0  0  0  0  0
  -24.8826  -14.4218   19.0229 N   0  0  0  0  0  0  0  0  0  0  0  0
  -21.9841  -12.7399   22.0504 N   0  0  0  0  0  0  0  0  0  0  0  0
  -21.6382  -28.8151   21.9405 N   0  0  0  0  0  0  0  0  0  0  0  0
  -25.7661  -30.8733   17.8421 N   0  0  0  0  0  0  0  0  0  0  0  0
  -29.2403  -16.5157   18.7542 N   0  0  0  0  0  0  0  0  0  0  0  0
  -29.3706  -31.1243   17.7320 N   0  3  0  0  0  0  0  0  0  0  0  0
  -22.2205  -14.2414   20.3334 O   0  0  0  0  0  0  0  0  0  0  0  0
  -22.5685  -26.8732   21.0537 O   0  0  0  0  0  0  0  0  0  0  0  0
  -23.8840  -31.0096   19.9980 O   0  0  0  0  0  0  0  0  0  0  0  0
  -27.3198  -29.2652   17.2279 O   0  0  0  0  0  0  0  0  0  0  0  0
  -31.1345  -15.4488   18.0258 O   0  0  0  0  0  0  0  0  0  0  0  0
  -23.0733   -8.7632   25.7968 O   0  0  0  0  0  0  0  0  0  0  0  0
  -27.0498  -23.1487   20.2058 O   0  0  0  0  0  0  0  0  0  1  0  0
  -18.1510   -6.3390   25.2501 F   0  0  0  0  0  0  0  0  0  0  0  0
  -22.8344   -6.0096   25.8530 F   0  0  0  0  0  0  0  0  0  0  0  0
  1  2  1  0  0  0  0
  1  5  2  0  0  0  0
  2  6  2  0  0  0  0
  3  8  2  0  0  0  0
  3 16  1  0  0  0  0
  4  9  1  0  0  0  0
  4 16  2  0  0  0  0
  5 18  1  0  0  0  0
  6 20  1  0  0  0  0
  7 10  2  0  0  0  0
  7 19  1  0  0  0  0
  8 22  1  0  0  0  0
  9 22  2  0  0  0  0
 10 23  1  0  0  0  0
 11 12  2  0  0  0  0
 11 24  1  0  0  0  0
 12 25  1  0  0  0  0
 13 21  1  0  0  0  0
 13 23  2  0  0  0  0
 14 25  2  0  0  0  0
 14 26  1  0  0  0  0
 15 28  1  0  0  0  0
 15 61  2  0  0  0  0
 16 27  1  0  0  0  0
 17 27  1  0  0  0  0
 17 31  2  0  0  0  0
 17 32  1  0  0  0  0
 18 20  2  0  0  0  0
 18 37  1  0  0  0  0
 19 21  2  0  0  0  0
 19 38  1  0  0  0  0
 20 46  1  0  0  0  0
 21 39  1  0  0  0  0
 22 78  1  0  0  0  0
 23 79  1  0  0  0  0
 24 26  2  0  0  0  0
 24 78  1  0  0  0  0
 25 80  1  0  0  0  0
 26 81  1  0  0  0  0
 27 62  2  0  0  0  0
 28 57  1  0  0  0  0
 28 63  2  0  0  0  0
 29 30  2  0  0  0  0
 29 49  1  0  0  0  0
 29 63  1  0  0  0  0
 30 56  1  0  0  0  0
 30 61  1  0  0  0  0
 31 64  1  0  0  0  0
 31 67  1  0  0  0  0
 32 68  1  0  0  0  0
 32 73  2  0  0  0  0
 33 47  1  0  0  0  0
 33 69  1  0  0  0  0
 33 74  2  0  0  0  0
 34 58  1  0  0  0  0
 34 65  1  0  0  0  0
 34 75  2  0  0  0  0
 35 59  1  0  0  0  0
 35 70  1  0  0  0  0
 35 76  2  0  0  0  0
 36 66  1  0  0  0  0
 36 71  1  0  0  0  0
 36 77  2  0  0  0  0
 37 40  1  0  0  0  0
 38 47  1  0  0  0  0
 39 65  1  0  0  0  0
 40 42  1  0  0  0  0
 41 43  1  0  0  0  0
 41 44  1  0  0  0  0
 42 46  1  0  0  0  0
 43 48  1  0  0  0  0
 44 66  1  0  0  0  0
 45 48  1  0  0  0  0
 45 66  1  0  0  0  0
 46 69  1  0  0  0  0
 47 65  1  0  0  0  0
 48 64  1  0  0  0  0
 50 57  1  0  0  0  0
 51 59  1  0  0  0  0
 52 60  1  0  0  0  0
 53 60  1  0  0  0  0
 54 60  1  0  0  0  0
 55 72  1  0  0  0  0
 56 79  1  0  0  0  0
 57 71  1  0  0  0  0
 58 60  1  0  0  0  0
 58 70  1  0  0  0  0
 59 72  1  0  0  0  0
 62 64  1  0  0  0  0
M  CHG  1  72   1
M  ISO  4  36 100  56 101  71 100  79 101
M  END
> <Batch ID>
0057

> <Smiles>
CNC(C)C(=O)NC(C(=O)N1Cc2cc([101O:1][101CH2:1]c3ncc(C(C)[100NH:0][100C:0](=O)N4CCCC(n5nc(-c6ccc(Oc7ccc(F)cc7F)cc6)c(C(N)=O)c5N)C4)nc3C)ccc2CC1C(=O)NC1CCCc2ccccc21)C(C)(C)C

> <Shape>
0.228

> <Color>
0.122

> <Negative vol penalty>
0.000

$$$$

  -OEChem-04052317483D

 87 96  0     1  0  0  0  0  0999 V2000
  -23.9158  -31.1845   24.5685 C   0  0  0  0  0  0  0  0  0  0  0  0
  -23.6474  -29.8426   24.8183 C   0  0  0  0  0  0  0  0  0  0  0  0
  -28.4924  -18.3949   23.8802 C   0  0  0  0  0  0  0  0  0  0  0  0
  -30.8975  -18.2836   23.6797 C   0  0  0  0  0  0  0  0  0  0  0  0
  -24.2672  -31.5965   23.2837 C   0  0  0  0  0  0  0  0  0  0  0  0
  -23.7291  -28.9119   23.7832 C   0  0  0  0  0  0  0  0  0  0  0  0
  -25.4476  -22.0673   22.5522 C   0  0  0  0  0  0  0  0  0  0  0  0
  -28.6245  -18.9892   25.1352 C   0  0  0  0  0  0  0  0  0  0  0  0
  -31.0296  -18.8779   24.9346 C   0  0  0  0  0  0  0  0  0  0  0  0
  -24.9307  -20.9173   21.9571 C   0  0  0  0  0  0  0  0  0  0  0  0
  -28.3307  -20.8648   28.2353 C   0  0  0  0  0  0  0  0  0  0  0  0
  -27.5271  -21.9693   28.5177 C   0  0  0  0  0  0  0  0  0  0  0  0
  -25.6243  -21.7318   19.7949 C   0  0  0  0  0  0  0  0  0  0  0  0
  -28.5135  -23.1613   26.6621 C   0  0  0  0  0  0  0  0  0  0  0  0
  -22.3201  -17.4297   19.1891 C   0  0  0  0  0  0  0  0  0  0  0  0
  -25.3795  -12.0360   21.7377 C   0  0  0  0  0  0  0  0  0  0  0  0
  -24.0236  -16.2568   19.9355 C   0  0  0  0  0  0  0  0  0  0  0  0
  -29.6289  -18.0421   23.1524 C   0  0  0  0  0  0  0  0  0  0  0  0
  -29.4195  -18.0788   20.6103 C   0  0  0  0  0  0  0  0  0  0  0  0
  -24.3627  -30.6689   22.2344 C   0  0  0  0  0  0  0  0  0  0  0  0
  -26.0479  -23.0649   21.7706 C   0  0  0  0  0  0  0  0  0  0  0  0
  -24.0808  -29.3120   22.4828 C   0  0  0  0  0  0  0  0  0  0  0  0
  -26.1503  -22.8923   20.3828 C   0  0  0  0  0  0  0  0  0  0  0  0
  -23.4442  -17.4982   20.0337 C   0  0  0  0  0  0  0  0  0  0  0  0
  -29.8931  -19.2307   25.6624 C   0  0  0  0  0  0  0  0  0  0  0  0
  -25.0164  -20.7507   20.5780 C   0  0  0  0  0  0  0  0  0  0  0  0
  -29.2258  -20.9085   27.1664 C   0  0  0  0  0  0  0  0  0  0  0  0
  -27.6185  -23.1176   27.7311 C   0  0  0  0  0  0  0  0  0  0  0  0
  -29.3172  -22.0568   26.3798 C   0  0  0  0  0  0  0  0  0  0  0  0
  -29.4930  -17.4276   21.8562 C   0  0  0  0  0  0  0  0  0  0  0  0
  -25.9288  -12.1227   20.4773 C   0  0  0  0  0  0  0  0  0  0  0  0
  -23.6065  -13.3079   21.0522 C   0  0  0  0  0  0  0  0  0  0  0  0
  -24.1558  -13.3944   19.7918 C   0  0  0  0  0  0  0  0  0  0  0  0
  -29.2970  -17.0601   19.6972 C   0  0  0  0  0  0  0  0  0  0  0  0
  -29.4585  -19.4793   20.3056 C   0  0  0  0  0  0  0  0  0  0  0  0
  -27.2050  -11.4728   20.1520 C   0  0  0  0  0  0  0  0  0  0  0  0
  -25.4350  -26.1284   21.1853 C   0  0  0  0  0  0  0  0  0  0  0  0
  -28.2560  -25.9852   19.5903 C   0  0  0  0  0  0  0  0  0  0  0  0
  -30.5695  -24.0772   17.9613 C   0  0  0  0  0  0  0  0  0  0  0  0
  -24.7000  -31.1689   20.8520 C   0  0  0  0  0  0  0  0  0  0  0  0
  -26.6245  -24.2872   22.4307 C   0  0  0  0  0  0  0  0  0  0  0  0
  -26.8034  -23.9243   19.5014 C   0  0  0  0  0  0  0  0  0  0  0  0
  -25.1295  -30.0624   19.8921 C   0  0  0  0  0  0  0  0  0  0  0  0
  -30.4444  -12.4624   19.0255 C   0  0  0  0  0  0  0  0  0  0  0  0
  -24.1749  -28.8761   19.9835 C   0  0  0  0  0  0  0  0  0  0  0  0
  -30.5708  -13.9034   19.5231 C   0  0  0  0  0  0  0  0  0  0  0  0
  -29.6700  -11.5916   20.0117 C   0  0  0  0  0  0  0  0  0  0  0  0
  -28.4648  -13.5645   20.8834 C   0  0  0  0  0  0  0  0  0  0  0  0
  -24.1830  -28.2687   21.3915 C   0  0  1  0  0  0  0  0  0  0  0  0
  -26.7548  -25.4739   21.4810 C   0  0  1  0  0  0  0  0  0  0  0  0
  -29.1951  -14.4880   19.8945 C   0  0  1  0  0  0  0  0  0  0  0  0
  -22.3105  -13.9664   21.3817 C   0  0  0  0  0  0  0  0  0  0  0  0
  -22.0732  -12.1243   17.7607 C   0  0  0  0  0  0  0  0  0  0  0  0
  -32.7145  -23.5174   16.7852 C   0  0  0  0  0  0  0  0  0  0  0  0
  -24.3753  -14.0413   17.4095 C   0  0  0  0  0  0  0  0  0  0  0  0
  -26.7967  -27.1172   17.1614 C   0  0  0  0  0  0  0  0  0  0  0  0
  -28.7268  -26.3820   15.7464 C   0  0  0  0  0  0  0  0  0  0  0  0
  -29.0757  -28.0719   17.5477 C   0  0  0  0  0  0  0  0  0  0  0  0
  -31.9419  -23.4621   20.5103 C   0  0  0  0  0  0  0  0  0  0  0  0
  -23.9088  -18.6646   20.8554 C   0  0  0  0  0  0  0  0  0  1  0  0
  -22.0566  -13.5689   18.2613 C   0  0  0  0  0  0  0  0  0  0  0  0
  -28.6688  -25.6570   18.1758 C   0  0  1  0  0  0  0  0  0  0  0  0
  -32.0816  -24.0099   18.0774 C   0  0  2  0  0  0  0  0  0  0  0  0
  -23.4500  -14.1829   18.6515 C   0  0  1  0  0  0  0  0  0  0  0  0
  -28.3029  -26.7883   17.1739 C   0  0  0  0  0  0  0  0  0  0  0  0
  -24.2085  -12.6271   22.0478 N   0  0  0  0  0  0  0  0  0  0  0  0
  -22.1912  -16.2391   18.5977 N   0  0  0  0  0  0  0  0  0  0  0  0
  -29.4230  -16.0982   21.7482 N   0  0  0  0  0  0  0  0  0  0  0  0
  -25.3267  -12.8033   19.4817 N   0  0  0  0  0  0  0  0  0  0  0  0
  -23.2419  -15.5479   19.0713 N   0  0  0  0  0  0  0  0  0  0  0  0
  -29.3040  -15.9057   20.4234 N   0  0  0  0  0  0  0  0  0  0  0  0
  -28.3820  -12.2015   20.3398 N   0  0  0  0  0  0  0  0  0  0  0  0
  -27.3464  -25.1049   20.1933 N   0  0  0  0  0  0  0  0  0  0  0  0
  -29.1850  -17.0482   18.3519 N   0  0  0  0  0  0  0  0  0  0  0  0
  -29.5881  -20.3898   21.3632 N   0  0  0  0  0  0  0  0  0  0  0  0
  -25.3611  -27.4500   21.5820 N   0  0  0  0  0  0  0  0  0  0  0  0
  -30.0926  -25.3430   18.2286 N   0  0  0  0  0  0  0  0  0  0  0  0
  -32.4761  -23.0842   19.1766 N   0  3  0  0  0  0  0  0  0  0  0  0
  -29.3642  -19.9112   19.1317 O   0  0  0  0  0  0  0  0  0  0  0  0
  -27.1350  -10.3227   19.7212 O   0  0  0  0  0  0  0  0  0  0  0  0
  -24.5499  -25.4827   20.6366 O   0  0  0  0  0  0  0  0  0  0  0  0
  -28.7287  -26.9819   20.1424 O   0  0  0  0  0  0  0  0  0  0  0  0
  -29.8807  -23.1050   17.6598 O   0  0  0  0  0  0  0  0  0  0  0  0
  -30.0224  -19.8108   26.8869 O   0  0  0  0  0  0  0  0  0  0  0  0
  -24.5122  -19.6295   19.9945 O   0  0  0  0  0  0  0  0  0  1  0  0
  -26.8456  -24.1777   28.0014 F   0  0  0  0  0  0  0  0  0  0  0  0
  -30.1744  -22.1043   25.3508 F   0  0  0  0  0  0  0  0  0  0  0  0
  1  2  1  0  0  0  0
  1  5  2  0  0  0  0
  2  6  2  0  0  0  0
  3  8  2  0  0  0  0
  3 18  1  0  0  0  0
  4  9  1  0  0  0  0
  4 18  2  0  0  0  0
  5 20  1  0  0  0  0
  6 22  1  0  0  0  0
  7 10  2  0  0  0  0
  7 21  1  0  0  0  0
  8 25  1  0  0  0  0
  9 25  2  0  0  0  0
 10 26  1  0  0  0  0
 11 12  2  0  0  0  0
 11 27  1  0  0  0  0
 12 28  1  0  0  0  0
 13 23  1  0  0  0  0
 13 26  2  0  0  0  0
 14 28  2  0  0  0  0
 14 29  1  0  0  0  0
 15 24  1  0  0  0  0
 15 67  2  0  0  0  0
 16 31  1  0  0  0  0
 16 66  2  0  0  0  0
 17 24  2  0  0  0  0
 17 70  1  0  0  0  0
 18 30  1  0  0  0  0
 19 30  1  0  0  0  0
 19 34  2  0  0  0  0
 19 35  1  0  0  0  0
 20 22  2  0  0  0  0
 20 40  1  0  0  0  0
 21 23  2  0  0  0  0
 21 41  1  0  0  0  0
 22 49  1  0  0  0  0
 23 42  1  0  0  0  0
 24 60  1  0  0  0  0
 25 84  1  0  0  0  0
 26 85  1  0  0  0  0
 27 29  2  0  0  0  0
 27 84  1  0  0  0  0
 28 86  1  0  0  0  0
 29 87  1  0  0  0  0
 30 68  2  0  0  0  0
 31 36  1  0  0  0  0
 31 69  2  0  0  0  0
 32 33  2  0  0  0  0
 32 52  1  0  0  0  0
 32 66  1  0  0  0  0
 33 64  1  0  0  0  0
 33 69  1  0  0  0  0
 34 71  1  0  0  0  0
 34 74  1  0  0  0  0
 35 75  1  0  0  0  0
 35 79  2  0  0  0  0
 36 72  1  0  0  0  0
 36 80  2  0  0  0  0
 37 50  1  0  0  0  0
 37 76  1  0  0  0  0
 37 81  2  0  0  0  0
 38 62  1  0  0  0  0
 38 73  1  0  0  0  0
 38 82  2  0  0  0  0
 39 63  1  0  0  0  0
 39 77  1  0  0  0  0
 39 83  2  0  0  0  0
 40 43  1  0  0  0  0
 41 50  1  0  0  0  0
 42 73  1  0  0  0  0
 43 45  1  0  0  0  0
 44 46  1  0  0  0  0
 44 47  1  0  0  0  0
 45 49  1  0  0  0  0
 46 51  1  0  0  0  0
 47 72  1  0  0  0  0
 48 51  1  0  0  0  0
 48 72  1  0  0  0  0
 49 76  1  0  0  0  0
 50 73  1  0  0  0  0
 51 71  1  0  0  0  0
 53 61  1  0  0  0  0
 54 63  1  0  0  0  0
 55 64  1  0  0  0  0
 56 65  1  0  0  0  0
 57 65  1  0  0  0  0
 58 65  1  0  0  0  0
 59 78  1  0  0  0  0
 60 85  1  0  0  0  0
 61 64  1  0  0  0  0
 62 65  1  0  0  0  0
 62 77  1  0  0  0  0
 63 78  1  0  0  0  0
 64 70  1  0  0  0  0
 67 70  1  0  0  0  0
 68 71  1  0  0  0  0
M  CHG  1  78   1
M  ISO  4  31 100  36 100  60 101  85 101
M  END
> <Batch ID>
0057

> <Smiles>
CCC(C)(c1n[100c:0]([100C:0](=O)N2CCCC(n3nc(-c4ccc(Oc5ccc(F)cc5F)cc4)c(C(N)=O)c3N)C2)cnc1C)n1cc([101CH2:1][101O:1]c2ccc3c(c2)CN(C(=O)C(NC(=O)C(C)NC)C(C)(C)C)C(C(=O)NC2CCCc4ccccc42)C3)cn1

> <Shape>
0.208

> <Color>
0.068

> <Negative vol penalty>
0.000

$$$$

  -OEChem-04052317483D

 83 91  0     1  0  0  0  0  0999 V2000
  -21.2501  -25.0956   35.6523 C   0  0  0  0  0  0  0  0  0  0  0  0
  -22.1517  -24.5818   34.7257 C   0  0  0  0  0  0  0  0  0  0  0  0
  -22.9549   -9.9719   20.0008 C   0  0  0  0  0  0  0  0  0  0  0  0
  -23.7480   -9.9687   22.2829 C   0  0  0  0  0  0  0  0  0  0  0  0
  -19.9190  -25.2978   35.2898 C   0  0  0  0  0  0  0  0  0  0  0  0
  -21.7225  -24.2688   33.4364 C   0  0  0  0  0  0  0  0  0  0  0  0
  -24.9355  -24.8180   28.2518 C   0  0  0  0  0  0  0  0  0  0  0  0
  -22.1845   -8.8400   20.2669 C   0  0  0  0  0  0  0  0  0  0  0  0
  -22.9775   -8.8367   22.5490 C   0  0  0  0  0  0  0  0  0  0  0  0
  -25.6558  -23.8968   27.4926 C   0  0  0  0  0  0  0  0  0  0  0  0
  -23.1723   -5.5058   22.0032 C   0  0  0  0  0  0  0  0  0  0  0  0
  -23.7708   -4.4677   22.7170 C   0  0  0  0  0  0  0  0  0  0  0  0
  -23.7402  -23.5895   26.0590 C   0  0  0  0  0  0  0  0  0  0  0  0
  -27.9752  -18.9005   24.2334 C   0  0  0  0  0  0  0  0  0  0  0  0
  -22.0996   -4.6937   24.4471 C   0  0  0  0  0  0  0  0  0  0  0  0
  -28.6250  -21.5494   24.1526 C   0  0  0  0  0  0  0  0  0  0  0  0
  -23.7367  -10.5362   21.0088 C   0  0  0  0  0  0  0  0  0  0  0  0
  -24.1435  -13.0509   20.8720 C   0  0  0  0  0  0  0  0  0  0  0  0
  -19.4755  -24.9961   33.9926 C   0  0  0  0  0  0  0  0  0  0  0  0
  -23.6063  -25.1243   27.9262 C   0  0  0  0  0  0  0  0  0  0  0  0
  -20.3840  -24.4658   33.0567 C   0  0  0  0  0  0  0  0  0  0  0  0
  -23.0060  -24.5169   26.8141 C   0  0  0  0  0  0  0  0  0  0  0  0
  -27.3838  -19.7758   25.1375 C   0  0  0  0  0  0  0  0  0  0  0  0
  -27.7095  -21.1271   25.1029 C   0  0  0  0  0  0  0  0  0  0  0  0
  -22.1958   -8.2724   21.5410 C   0  0  0  0  0  0  0  0  0  0  0  0
  -25.0572  -23.2802   26.3977 C   0  0  0  0  0  0  0  0  0  0  0  0
  -22.0375   -6.1380   22.5114 C   0  0  0  0  0  0  0  0  0  0  0  0
  -23.2345   -4.0616   23.9390 C   0  0  0  0  0  0  0  0  0  0  0  0
  -21.5011   -5.7320   23.7333 C   0  0  0  0  0  0  0  0  0  0  0  0
  -24.5332  -11.7052   20.7344 C   0  0  0  0  0  0  0  0  0  0  0  0
  -28.8788  -19.4225   23.3219 C   0  0  0  0  0  0  0  0  0  0  0  0
  -25.2497  -13.7695   20.4894 C   0  0  0  0  0  0  0  0  0  0  0  0
  -22.8933  -13.6020   21.3067 C   0  0  0  0  0  0  0  0  0  0  0  0
  -20.8081  -24.8214   29.4035 C   0  0  0  0  0  0  0  0  0  0  0  0
  -30.7811  -14.5770   20.6908 C   0  0  0  0  0  0  0  0  0  0  0  0
  -19.7120  -26.4605   26.8278 C   0  0  0  0  0  0  0  0  0  0  0  0
  -20.1468  -27.3548   23.5631 C   0  0  0  0  0  0  0  0  0  0  0  0
  -18.0165  -25.1872   33.6615 C   0  0  0  0  0  0  0  0  0  0  0  0
  -22.8516  -26.1401   28.7392 C   0  0  0  0  0  0  0  0  0  0  0  0
  -21.5883  -24.8263   26.4105 C   0  0  0  0  0  0  0  0  0  0  0  0
  -17.7262  -25.1815   32.1628 C   0  0  0  0  0  0  0  0  0  0  0  0
  -29.5198  -12.3013   18.2269 C   0  0  0  0  0  0  0  0  0  0  0  0
  -18.4413  -24.0170   31.4850 C   0  0  0  0  0  0  0  0  0  0  0  0
  -28.0882  -12.0305   18.6879 C   0  0  0  0  0  0  0  0  0  0  0  0
  -30.4627  -12.4847   19.4120 C   0  0  0  0  0  0  0  0  0  0  0  0
  -28.6000  -13.2757   20.8356 C   0  0  0  0  0  0  0  0  0  0  0  0
  -19.9620  -24.1373   31.6411 C   0  0  1  0  0  0  0  0  0  0  0  0
  -21.3376  -25.9920   28.6242 C   0  0  1  0  0  0  0  0  0  0  0  0
  -27.6090  -13.1149   19.6692 C   0  0  2  0  0  0  0  0  0  0  0  0
  -26.4056  -19.2449   26.1323 C   0  0  0  0  0  0  0  0  0  0  0  0
  -19.0655  -28.6712   21.7204 C   0  0  0  0  0  0  0  0  0  0  0  0
  -17.6759  -24.2235   26.4277 C   0  0  0  0  0  0  0  0  0  0  0  0
  -17.2901  -25.0841   24.1085 C   0  0  0  0  0  0  0  0  0  0  0  0
  -16.7748  -26.5297   26.0751 C   0  0  0  0  0  0  0  0  0  0  0  0
  -22.4679  -29.1780   23.3461 C   0  0  0  0  0  0  0  0  0  0  0  0
  -31.6700  -18.4774   23.6149 C   0  0  0  0  0  0  0  0  0  0  0  0
  -27.1018  -22.1149   26.0550 C   0  0  0  0  0  0  0  0  0  1  0  0
  -29.5332  -18.5124   22.3369 C   0  0  0  0  0  0  0  0  0  0  0  0
  -30.1934  -15.5914   21.6392 C   0  0  0  0  0  0  0  0  0  0  0  0
  -31.1899  -16.6957   21.9425 C   0  0  0  0  0  0  0  0  0  0  0  0
  -19.1869  -26.0820   25.4639 C   0  0  1  0  0  0  0  0  0  0  0  0
  -20.0631  -28.7017   22.8679 C   0  0  2  0  0  0  0  0  0  0  0  0
  -17.7580  -25.4723   25.5273 C   0  0  0  0  0  0  0  0  0  0  0  0
  -29.2202  -20.7290   23.2580 N   0  0  0  0  0  0  0  0  0  0  0  0
  -25.7889  -11.5740   20.2983 N   0  0  0  0  0  0  0  0  0  0  0  0
  -26.1977  -12.8465   20.1585 N   0  0  0  0  0  0  0  0  0  0  0  0
  -20.8898  -25.8216   27.2406 N   0  0  0  0  0  0  0  0  0  0  0  0
  -29.9611  -13.5070   20.3321 N   0  0  0  0  0  0  0  0  0  0  0  0
  -25.4942  -15.0946   20.4071 N   0  0  0  0  0  0  0  0  0  0  0  0
  -21.8627  -12.7215   21.6629 N   0  0  0  0  0  0  0  0  0  0  0  0
  -20.4892  -25.1167   30.7151 N   0  0  0  0  0  0  0  0  0  0  0  0
  -19.2887  -27.2816   24.6400 N   0  0  0  0  0  0  0  0  0  0  0  0
  -21.3954  -29.0866   22.3222 N   0  3  0  0  0  0  0  0  0  0  0  0
  -30.5990  -17.6630   22.9358 N   0  3  1  0  0  0  0  0  0  0  0  0
  -22.6906  -14.8387   21.3617 O   0  0  0  0  0  0  0  0  0  0  0  0
  -20.6959  -23.7315   28.8548 O   0  0  0  0  0  0  0  0  0  0  0  0
  -31.9338  -14.7341   20.2798 O   0  0  0  0  0  0  0  0  0  0  0  0
  -19.1036  -27.2977   27.4990 O   0  0  0  0  0  0  0  0  0  0  0  0
  -20.8955  -26.4560   23.1861 O   0  0  0  0  0  0  0  0  0  0  0  0
  -21.4439   -7.1680   21.8011 O   0  0  0  0  0  0  0  0  0  0  0  0
  -25.7578  -22.3802   25.6554 O   0  0  0  0  0  0  0  0  0  1  0  0
  -23.8084   -3.0636   24.6236 F   0  0  0  0  0  0  0  0  0  0  0  0
  -20.4104   -6.3347   24.2260 F   0  0  0  0  0  0  0  0  0  0  0  0
  1  2  1  0  0  0  0
  1  5  2  0  0  0  0
  2  6  2  0  0  0  0
  3  8  2  0  0  0  0
  3 17  1  0  0  0  0
  4  9  1  0  0  0  0
  4 17  2  0  0  0  0
  5 19  1  0  0  0  0
  6 21  1  0  0  0  0
  7 10  2  0  0  0  0
  7 20  1  0  0  0  0
  8 25  1  0  0  0  0
  9 25  2  0  0  0  0
 10 26  1  0  0  0  0
 11 12  2  0  0  0  0
 11 27  1  0  0  0  0
 12 28  1  0  0  0  0
 13 22  1  0  0  0  0
 13 26  2  0  0  0  0
 14 23  1  0  0  0  0
 14 31  2  0  0  0  0
 15 28  2  0  0  0  0
 15 29  1  0  0  0  0
 16 24  1  0  0  0  0
 16 64  2  0  0  0  0
 17 30  1  0  0  0  0
 18 30  1  0  0  0  0
 18 32  2  0  0  0  0
 18 33  1  0  0  0  0
 19 21  2  0  0  0  0
 19 38  1  0  0  0  0
 20 22  2  0  0  0  0
 20 39  1  0  0  0  0
 21 47  1  0  0  0  0
 22 40  1  0  0  0  0
 23 24  2  0  0  0  0
 23 50  1  0  0  0  0
 24 57  1  0  0  0  0
 25 80  1  0  0  0  0
 26 81  1  0  0  0  0
 27 29  2  0  0  0  0
 27 80  1  0  0  0  0
 28 82  1  0  0  0  0
 29 83  1  0  0  0  0
 30 65  2  0  0  0  0
 31 58  1  0  0  0  0
 31 64  1  0  0  0  0
 32 66  1  0  0  0  0
 32 69  1  0  0  0  0
 33 70  1  0  0  0  0
 33 75  2  0  0  0  0
 34 48  1  0  0  0  0
 34 71  1  0  0  0  0
 34 76  2  0  0  0  0
 35 59  1  0  0  0  0
 35 68  1  0  0  0  0
 35 77  2  0  0  0  0
 36 61  1  0  0  0  0
 36 67  1  0  0  0  0
 36 78  2  0  0  0  0
 37 62  1  0  0  0  0
 37 72  1  0  0  0  0
 37 79  2  0  0  0  0
 38 41  1  0  0  0  0
 39 48  1  0  0  0  0
 40 67  1  0  0  0  0
 41 43  1  0  0  0  0
 42 44  1  0  0  0  0
 42 45  1  0  0  0  0
 43 47  1  0  0  0  0
 44 49  1  0  0  0  0
 45 68  1  0  0  0  0
 46 49  1  0  0  0  0
 46 68  1  0  0  0  0
 47 71  1  0  0  0  0
 48 67  1  0  0  0  0
 49 66  1  0  0  0  0
 51 62  1  0  0  0  0
 52 63  1  0  0  0  0
 53 63  1  0  0  0  0
 54 63  1  0  0  0  0
 55 73  1  0  0  0  0
 56 74  1  0  0  0  0
 57 81  1  0  0  0  0
 58 74  1  0  0  0  0
 59 60  1  0  0  0  0
 60 74  1  0  0  0  0
 61 63  1  0  0  0  0
 61 72  1  0  0  0  0
 62 73  1  0  0  0  0
 65 66  1  0  0  0  0
M  CHG  2  73   1  74   1
M  ISO  4  35 100  57 101  59 100  81 101
M  END
> <Batch ID>
0057

> <Smiles>
CNC(C)C(=O)NC(C(=O)N1Cc2cc([101O:1][101CH2:1]c3cnc(CN(C)C[100CH2:0][100C:0](=O)N4CCCC(n5nc(-c6ccc(Oc7ccc(F)cc7F)cc6)c(C(N)=O)c5N)C4)cc3C)ccc2CC1C(=O)NC1CCCc2ccccc21)C(C)(C)C

> <Shape>
0.215

> <Color>
0.219

> <Negative vol penalty>
0.000

$$$$

  -OEChem-04052317483D

 86 94  0     1  0  0  0  0  0999 V2000
  -20.3974  -21.0455   16.3418 C   0  0  0  0  0  0  0  0  0  0  0  0
  -21.3328  -20.0823   16.7062 C   0  0  0  0  0  0  0  0  0  0  0  0
  -27.3111  -25.6069   17.9979 C   0  0  0  0  0  0  0  0  0  0  0  0
  -27.2792  -25.6775   20.4127 C   0  0  0  0  0  0  0  0  0  0  0  0
  -20.4377  -22.3108   16.9261 C   0  0  0  0  0  0  0  0  0  0  0  0
  -22.3098  -20.3843   17.6542 C   0  0  0  0  0  0  0  0  0  0  0  0
  -22.9056  -16.6956   21.0724 C   0  0  0  0  0  0  0  0  0  0  0  0
  -26.2614  -26.5246   17.9572 C   0  0  0  0  0  0  0  0  0  0  0  0
  -26.2295  -26.5952   20.3720 C   0  0  0  0  0  0  0  0  0  0  0  0
  -23.6412  -15.5777   20.6811 C   0  0  0  0  0  0  0  0  0  0  0  0
  -25.8383  -29.9069   19.8240 C   0  0  0  0  0  0  0  0  0  0  0  0
  -25.9160  -31.0160   20.6663 C   0  0  0  0  0  0  0  0  0  0  0  0
  -25.5715  -16.4519   21.8338 C   0  0  0  0  0  0  0  0  0  0  0  0
  -23.8611  -30.3421   21.7434 C   0  0  0  0  0  0  0  0  0  0  0  0
  -27.8199  -25.1834   19.2257 C   0  0  0  0  0  0  0  0  0  0  0  0
  -30.2825  -24.5196   19.2785 C   0  0  0  0  0  0  0  0  0  0  0  0
  -21.4096  -22.6253   17.8889 C   0  0  0  0  0  0  0  0  0  0  0  0
  -23.5016  -17.7070   21.8394 C   0  0  0  0  0  0  0  0  0  0  0  0
  -22.3639  -21.6554   18.2509 C   0  0  0  0  0  0  0  0  0  0  0  0
  -24.8407  -17.5804   22.2357 C   0  0  0  0  0  0  0  0  0  0  0  0
  -25.7206  -27.0188   19.1442 C   0  0  0  0  0  0  0  0  0  0  0  0
  -24.9751  -15.4571   21.0594 C   0  0  0  0  0  0  0  0  0  0  0  0
  -24.7718  -29.0154   19.9413 C   0  0  0  0  0  0  0  0  0  0  0  0
  -24.9275  -31.2336   21.6261 C   0  0  0  0  0  0  0  0  0  0  0  0
  -23.7833  -29.2330   20.9010 C   0  0  0  0  0  0  0  0  0  0  0  0
  -28.9039  -24.2350   19.2684 C   0  0  0  0  0  0  0  0  0  0  0  0
  -30.8872  -23.2873   19.3233 C   0  0  0  0  0  0  0  0  0  0  0  0
  -29.7400  -13.2292   19.6952 C   0  0  0  0  0  0  0  0  0  0  0  0
  -28.3457  -14.0167   18.3563 C   0  0  0  0  0  0  0  0  0  0  0  0
  -30.9563  -25.7849   19.2499 C   0  0  0  0  0  0  0  0  0  0  0  0
  -24.0875  -20.8009   21.4056 C   0  0  0  0  0  0  0  0  0  0  0  0
  -25.0446  -20.6549   24.5015 C   0  0  0  0  0  0  0  0  0  0  0  0
  -26.2110  -18.7570   27.0870 C   0  0  0  0  0  0  0  0  0  0  0  0
  -30.1601  -18.1775   21.7262 C   0  0  0  0  0  0  0  0  0  0  0  0
  -21.4425  -24.0216   18.4580 C   0  0  0  0  0  0  0  0  0  0  0  0
  -22.6870  -18.8937   22.2759 C   0  0  0  0  0  0  0  0  0  0  0  0
  -25.5215  -18.6285   23.0761 C   0  0  0  0  0  0  0  0  0  0  0  0
  -22.2786  -24.1416   19.7295 C   0  0  0  0  0  0  0  0  0  0  0  0
  -29.4913  -18.6771   18.2048 C   0  0  0  0  0  0  0  0  0  0  0  0
  -23.6193  -23.4352   19.5554 C   0  0  0  0  0  0  0  0  0  0  0  0
  -29.4065  -20.2024   18.1247 C   0  0  0  0  0  0  0  0  0  0  0  0
  -28.8783  -18.1567   19.5015 C   0  0  0  0  0  0  0  0  0  0  0  0
  -29.3759  -20.2735   20.6612 C   0  0  0  0  0  0  0  0  0  0  0  0
  -23.4236  -21.9370   19.2938 C   0  0  1  0  0  0  0  0  0  0  0  0
  -23.5408  -20.1096   22.6225 C   0  0  1  0  0  0  0  0  0  0  0  0
  -29.9994  -20.8634   19.3831 C   0  0  2  0  0  0  0  0  0  0  0  0
  -27.6211  -14.7627   17.3118 C   0  0  0  0  0  0  0  0  0  0  0  0
  -26.9356  -18.9251   29.4837 C   0  0  0  0  0  0  0  0  0  0  0  0
  -27.6849  -21.8998   23.6134 C   0  0  0  0  0  0  0  0  0  0  0  0
  -28.6801  -21.1743   25.7932 C   0  0  0  0  0  0  0  0  0  0  0  0
  -26.7827  -22.7935   25.7678 C   0  0  0  0  0  0  0  0  0  0  0  0
  -25.8707  -11.9722   17.7559 C   0  0  0  0  0  0  0  0  0  0  0  0
  -26.1181  -11.4758   20.1787 C   0  0  0  0  0  0  0  0  0  0  0  0
  -24.0837  -16.9039   27.9812 C   0  0  0  0  0  0  0  0  0  0  0  0
  -33.0370  -14.1500   21.2905 C   0  0  0  0  0  0  0  0  0  0  0  0
  -31.0123  -13.0113   20.3936 C   0  0  0  0  0  0  0  0  0  0  0  0
  -30.8807  -15.9997   22.6721 C   0  0  0  0  0  0  0  0  0  0  0  0
  -30.8226  -14.5138   22.3702 C   0  0  0  0  0  0  0  0  0  0  0  0
  -25.3354  -13.7502   19.4430 C   0  0  0  0  0  0  0  0  0  1  0  0
  -26.3491  -20.3672   25.2048 C   0  0  1  0  0  0  0  0  0  0  0  0
  -25.7759  -18.6547   28.5378 C   0  0  2  0  0  0  0  0  0  0  0  0
  -27.3622  -21.5397   25.0773 C   0  0  0  0  0  0  0  0  0  0  0  0
  -26.2989  -12.5811   19.1129 C   0  0  0  0  0  0  0  0  0  0  0  0
  -28.6476  -22.9246   19.3038 N   0  0  0  0  0  0  0  0  0  0  0  0
  -29.6098  -14.1417   18.6878 N   0  0  0  0  0  0  0  0  0  0  0  0
  -28.6360  -12.5474   20.0079 N   0  0  0  0  0  0  0  0  0  0  0  0
  -29.8735  -22.3749   19.3365 N   0  0  0  0  0  0  0  0  0  0  0  0
  -27.7592  -13.0700   19.1371 N   0  0  0  0  0  0  0  0  0  0  0  0
  -24.6848  -19.7732   23.4725 N   0  0  0  0  0  0  0  0  0  0  0  0
  -29.4992  -18.8120   20.6613 N   0  0  0  0  0  0  0  0  0  0  0  0
  -32.1819  -22.9059   19.3523 N   0  0  0  0  0  0  0  0  0  0  0  0
  -30.1829  -26.9529   19.2048 N   0  0  0  0  0  0  0  0  0  0  0  0
  -23.1174  -21.2444   20.5271 N   0  0  0  0  0  0  0  0  0  0  0  0
  -26.0042  -20.0224   26.5798 N   0  0  0  0  0  0  0  0  0  0  0  0
  -30.2273  -16.7915   21.6538 N   0  0  0  0  0  0  0  0  0  0  0  0
  -25.2436  -17.2925   28.8241 N   0  3  0  0  0  0  0  0  0  0  0  0
  -31.5496  -14.2269   21.0860 N   0  3  1  0  0  0  0  0  0  0  0  0
  -32.2073  -25.8766   19.2474 O   0  0  0  0  0  0  0  0  0  0  0  0
  -25.2996  -20.9242   21.2741 O   0  0  0  0  0  0  0  0  0  0  0  0
  -24.3664  -21.6219   24.8570 O   0  0  0  0  0  0  0  0  0  0  0  0
  -26.6901  -17.8102   26.4669 O   0  0  0  0  0  0  0  0  0  0  0  0
  -30.6586  -18.8007   22.6698 O   0  0  0  0  0  0  0  0  0  0  0  0
  -24.6965  -27.9144   19.1049 O   0  0  0  0  0  0  0  0  0  0  0  0
  -25.6955  -14.3673   20.6783 O   0  0  0  0  0  0  0  0  0  1  0  0
  -25.0031  -32.2978   22.4359 F   0  0  0  0  0  0  0  0  0  0  0  0
  -22.7570  -28.3794   21.0193 F   0  0  0  0  0  0  0  0  0  0  0  0
  1  2  1  0  0  0  0
  1  5  2  0  0  0  0
  2  6  2  0  0  0  0
  3  8  2  0  0  0  0
  3 15  1  0  0  0  0
  4  9  1  0  0  0  0
  4 15  2  0  0  0  0
  5 17  1  0  0  0  0
  6 19  1  0  0  0  0
  7 10  2  0  0  0  0
  7 18  1  0  0  0  0
  8 21  1  0  0  0  0
  9 21  2  0  0  0  0
 10 22  1  0  0  0  0
 11 12  2  0  0  0  0
 11 23  1  0  0  0  0
 12 24  1  0  0  0  0
 13 20  1  0  0  0  0
 13 22  2  0  0  0  0
 14 24  2  0  0  0  0
 14 25  1  0  0  0  0
 15 26  1  0  0  0  0
 16 26  1  0  0  0  0
 16 27  2  0  0  0  0
 16 30  1  0  0  0  0
 17 19  2  0  0  0  0
 17 35  1  0  0  0  0
 18 20  2  0  0  0  0
 18 36  1  0  0  0  0
 19 44  1  0  0  0  0
 20 37  1  0  0  0  0
 21 83  1  0  0  0  0
 22 84  1  0  0  0  0
 23 25  2  0  0  0  0
 23 83  1  0  0  0  0
 24 85  1  0  0  0  0
 25 86  1  0  0  0  0
 26 64  2  0  0  0  0
 27 67  1  0  0  0  0
 27 71  1  0  0  0  0
 28 56  1  0  0  0  0
 28 65  1  0  0  0  0
 28 66  2  0  0  0  0
 29 47  1  0  0  0  0
 29 65  2  0  0  0  0
 29 68  1  0  0  0  0
 30 72  1  0  0  0  0
 30 78  2  0  0  0  0
 31 45  1  0  0  0  0
 31 73  1  0  0  0  0
 31 79  2  0  0  0  0
 32 60  1  0  0  0  0
 32 69  1  0  0  0  0
 32 80  2  0  0  0  0
 33 61  1  0  0  0  0
 33 74  1  0  0  0  0
 33 81  2  0  0  0  0
 34 70  1  0  0  0  0
 34 75  1  0  0  0  0
 34 82  2  0  0  0  0
 35 38  1  0  0  0  0
 36 45  1  0  0  0  0
 37 69  1  0  0  0  0
 38 40  1  0  0  0  0
 39 41  1  0  0  0  0
 39 42  1  0  0  0  0
 40 44  1  0  0  0  0
 41 46  1  0  0  0  0
 42 70  1  0  0  0  0
 43 46  1  0  0  0  0
 43 70  1  0  0  0  0
 44 73  1  0  0  0  0
 45 69  1  0  0  0  0
 46 67  1  0  0  0  0
 48 61  1  0  0  0  0
 49 62  1  0  0  0  0
 50 62  1  0  0  0  0
 51 62  1  0  0  0  0
 52 63  1  0  0  0  0
 53 63  1  0  0  0  0
 54 76  1  0  0  0  0
 55 77  1  0  0  0  0
 56 77  1  0  0  0  0
 57 58  1  0  0  0  0
 57 75  1  0  0  0  0
 58 77  1  0  0  0  0
 59 63  1  0  0  0  0
 59 84  1  0  0  0  0
 60 62  1  0  0  0  0
 60 74  1  0  0  0  0
 61 76  1  0  0  0  0
 63 68  1  0  0  0  0
 64 67  1  0  0  0  0
 66 68  1  0  0  0  0
M  CHG  2  76   1  77   1
M  ISO  4  34 100  59 101  75 100  84 101
M  END
> <Batch ID>
0057

> <Smiles>
CNC(C)C(=O)NC(C(=O)N1Cc2cc([101O:1][101CH2:1]C(C)(C)n3nc(CN(C)CC[100NH:0][100C:0](=O)N4CCCC(n5nc(-c6ccc(Oc7ccc(F)cc7F)cc6)c(C(N)=O)c5N)C4)nc3C)ccc2CC1C(=O)NC1CCCc2ccccc21)C(C)(C)C

> <Shape>
0.227

> <Color>
0.049

> <Negative vol penalty>
0.000

$$$$

  -OEChem-04052317483D

 80 88  0     1  0  0  0  0  0999 V2000
  -21.8751  -11.5409   21.1109 C   0  0  0  0  0  0  0  0  0  0  0  0
  -21.8259  -12.8071   21.6851 C   0  0  0  0  0  0  0  0  0  0  0  0
  -26.1914  -28.3129   21.3402 C   0  0  0  0  0  0  0  0  0  0  0  0
  -24.9779  -27.7263   19.3351 C   0  0  0  0  0  0  0  0  0  0  0  0
  -23.0727  -11.0633   20.5803 C   0  0  0  0  0  0  0  0  0  0  0  0
  -22.9748  -13.5961   21.7301 C   0  0  0  0  0  0  0  0  0  0  0  0
  -22.0870  -18.3986   20.3910 C   0  0  0  0  0  0  0  0  0  0  0  0
  -27.1711  -28.9339   20.5656 C   0  0  0  0  0  0  0  0  0  0  0  0
  -25.9577  -28.3473   18.5604 C   0  0  0  0  0  0  0  0  0  0  0  0
  -21.4909  -19.2251   21.3424 C   0  0  0  0  0  0  0  0  0  0  0  0
  -30.1754  -30.3609   19.0952 C   0  0  0  0  0  0  0  0  0  0  0  0
  -31.5103  -30.1110   19.4128 C   0  0  0  0  0  0  0  0  0  0  0  0
  -23.6500  -20.1608   21.8735 C   0  0  0  0  0  0  0  0  0  0  0  0
  -31.1647  -27.7539   19.0107 C   0  0  0  0  0  0  0  0  0  0  0  0
  -19.9855  -21.6991   25.6149 C   0  0  0  0  0  0  0  0  0  0  0  0
  -19.1791  -22.9815   24.0211 C   0  0  0  0  0  0  0  0  0  0  0  0
  -25.0948  -27.7091   20.7249 C   0  0  0  0  0  0  0  0  0  0  0  0
  -24.2575  -25.9867   22.4101 C   0  0  0  0  0  0  0  0  0  0  0  0
  -24.2345  -11.8507   20.6101 C   0  0  0  0  0  0  0  0  0  0  0  0
  -23.4729  -18.4393   20.1810 C   0  0  0  0  0  0  0  0  0  0  0  0
  -24.1894  -13.1281   21.2006 C   0  0  0  0  0  0  0  0  0  0  0  0
  -24.2609  -19.3356   20.9170 C   0  0  0  0  0  0  0  0  0  0  0  0
  -19.8311  -21.7889   24.2185 C   0  0  0  0  0  0  0  0  0  0  0  0
  -27.0543  -28.9512   19.1757 C   0  0  0  0  0  0  0  0  0  0  0  0
  -22.2728  -20.1043   22.0859 C   0  0  0  0  0  0  0  0  0  0  0  0
  -29.3350  -29.3073   18.7354 C   0  0  0  0  0  0  0  0  0  0  0  0
  -32.0050  -28.8075   19.3705 C   0  0  0  0  0  0  0  0  0  0  0  0
  -29.8297  -28.0038   18.6931 C   0  0  0  0  0  0  0  0  0  0  0  0
  -24.0827  -27.0669   21.5245 C   0  0  0  0  0  0  0  0  0  0  0  0
  -23.0030  -25.7528   22.9183 C   0  0  0  0  0  0  0  0  0  0  0  0
  -25.4474  -25.2596   22.7437 C   0  0  0  0  0  0  0  0  0  0  0  0
  -25.8494  -16.3498   20.4811 C   0  0  0  0  0  0  0  0  0  0  0  0
  -27.5951  -18.7337   19.1424 C   0  0  0  0  0  0  0  0  0  0  0  0
  -28.5168  -22.1959   18.7174 C   0  0  0  0  0  0  0  0  0  0  0  0
  -18.3517  -28.1123   25.1800 C   0  0  0  0  0  0  0  0  0  0  0  0
  -25.5172  -11.2729   20.0665 C   0  0  0  0  0  0  0  0  0  0  0  0
  -24.0971  -17.5603   19.1320 C   0  0  0  0  0  0  0  0  0  0  0  0
  -25.7504  -19.4323   20.7154 C   0  0  0  0  0  0  0  0  0  0  0  0
  -26.5996  -12.3201   19.8175 C   0  0  0  0  0  0  0  0  0  0  0  0
  -18.4847  -27.5264   21.5275 C   0  0  0  0  0  0  0  0  0  0  0  0
  -26.7179  -13.2603   21.0128 C   0  0  0  0  0  0  0  0  0  0  0  0
  -19.9796  -27.3380   21.2746 C   0  0  0  0  0  0  0  0  0  0  0  0
  -18.2221  -28.4215   22.7347 C   0  0  0  0  0  0  0  0  0  0  0  0
  -20.3940  -27.7791   23.7270 C   0  0  0  0  0  0  0  0  0  0  0  0
  -25.4085  -14.0236   21.2460 C   0  0  1  0  0  0  0  0  0  0  0  0
  -25.5855  -17.3187   19.3634 C   0  0  1  0  0  0  0  0  0  0  0  0
  -20.6930  -26.8444   22.5453 C   0  0  2  0  0  0  0  0  0  0  0  0
  -30.1804  -23.2635   17.1714 C   0  0  0  0  0  0  0  0  0  0  0  0
  -29.5125  -18.4856   21.5029 C   0  0  0  0  0  0  0  0  0  0  0  0
  -30.4576  -20.7188   20.8803 C   0  0  0  0  0  0  0  0  0  0  0  0
  -30.6237  -18.8077   19.2857 C   0  0  0  0  0  0  0  0  0  0  0  0
  -18.0641  -27.2712   27.4798 C   0  0  0  0  0  0  0  0  0  0  0  0
  -26.4745  -24.0168   17.5894 C   0  0  0  0  0  0  0  0  0  0  0  0
  -20.2797  -20.8057   23.1775 C   0  0  0  0  0  0  0  0  0  1  0  0
  -18.3440  -24.7668   25.5682 C   0  0  0  0  0  0  0  0  0  0  0  0
  -19.3328  -25.8873   25.8795 C   0  0  0  0  0  0  0  0  0  0  0  0
  -28.3809  -19.9095   19.6705 C   0  0  1  0  0  0  0  0  0  0  0  0
  -28.7151  -22.9288   17.4029 C   0  0  2  0  0  0  0  0  0  0  0  0
  -29.7159  -19.4775   20.3402 C   0  0  0  0  0  0  0  0  0  0  0  0
  -19.4729  -22.7509   26.2590 N   0  0  0  0  0  0  0  0  0  0  0  0
  -22.8169  -27.4900   21.4707 N   0  0  0  0  0  0  0  0  0  0  0  0
  -18.9902  -23.5130   25.2628 N   0  0  0  0  0  0  0  0  0  0  0  0
  -22.1849  -26.6712   22.3289 N   0  0  0  0  0  0  0  0  0  0  0  0
  -26.3147  -18.5478   19.6826 N   0  0  0  0  0  0  0  0  0  0  0  0
  -18.9463  -27.9543   23.9173 N   0  0  0  0  0  0  0  0  0  0  0  0
  -22.5310  -24.8532   23.8073 N   0  0  0  0  0  0  0  0  0  0  0  0
  -25.7770  -24.1313   21.9804 N   0  0  0  0  0  0  0  0  0  0  0  0
  -25.2779  -15.1057   20.2940 N   0  0  0  0  0  0  0  0  0  0  0  0
  -28.5450  -20.8277   18.5487 N   0  0  0  0  0  0  0  0  0  0  0  0
  -18.6648  -27.1567   26.1584 N   0  0  0  0  0  0  0  0  0  0  0  0
  -27.9360  -24.1992   17.3954 N   0  3  0  0  0  0  0  0  0  0  0  0
  -26.1874  -25.5909   23.7008 O   0  0  0  0  0  0  0  0  0  0  0  0
  -26.5231  -16.7042   21.4415 O   0  0  0  0  0  0  0  0  0  0  0  0
  -28.0960  -18.0111   18.2772 O   0  0  0  0  0  0  0  0  0  0  0  0
  -28.3569  -22.7789   19.7875 O   0  0  0  0  0  0  0  0  0  0  0  0
  -17.5773  -29.0485   25.4162 O   0  0  0  0  0  0  0  0  0  0  0  0
  -28.0100  -29.5572   18.4196 O   0  0  0  0  0  0  0  0  0  0  0  0
  -21.6935  -20.9117   23.0157 O   0  0  0  0  0  0  0  0  0  1  0  0
  -33.2874  -28.5678   19.6741 F   0  0  0  0  0  0  0  0  0  0  0  0
  -29.0274  -26.9877   18.3470 F   0  0  0  0  0  0  0  0  0  0  0  0
  1  2  1  0  0  0  0
  1  5  2  0  0  0  0
  2  6  2  0  0  0  0
  3  8  2  0  0  0  0
  3 17  1  0  0  0  0
  4  9  1  0  0  0  0
  4 17  2  0  0  0  0
  5 19  1  0  0  0  0
  6 21  1  0  0  0  0
  7 10  2  0  0  0  0
  7 20  1  0  0  0  0
  8 24  1  0  0  0  0
  9 24  2  0  0  0  0
 10 25  1  0  0  0  0
 11 12  2  0  0  0  0
 11 26  1  0  0  0  0
 12 27  1  0  0  0  0
 13 22  1  0  0  0  0
 13 25  2  0  0  0  0
 14 27  2  0  0  0  0
 14 28  1  0  0  0  0
 15 23  1  0  0  0  0
 15 60  2  0  0  0  0
 16 23  2  0  0  0  0
 16 62  1  0  0  0  0
 17 29  1  0  0  0  0
 18 29  1  0  0  0  0
 18 30  2  0  0  0  0
 18 31  1  0  0  0  0
 19 21  2  0  0  0  0
 19 36  1  0  0  0  0
 20 22  2  0  0  0  0
 20 37  1  0  0  0  0
 21 45  1  0  0  0  0
 22 38  1  0  0  0  0
 23 54  1  0  0  0  0
 24 77  1  0  0  0  0
 25 78  1  0  0  0  0
 26 28  2  0  0  0  0
 26 77  1  0  0  0  0
 27 79  1  0  0  0  0
 28 80  1  0  0  0  0
 29 61  2  0  0  0  0
 30 63  1  0  0  0  0
 30 66  1  0  0  0  0
 31 67  1  0  0  0  0
 31 72  2  0  0  0  0
 32 46  1  0  0  0  0
 32 68  1  0  0  0  0
 32 73  2  0  0  0  0
 33 57  1  0  0  0  0
 33 64  1  0  0  0  0
 33 74  2  0  0  0  0
 34 58  1  0  0  0  0
 34 69  1  0  0  0  0
 34 75  2  0  0  0  0
 35 65  1  0  0  0  0
 35 70  1  0  0  0  0
 35 76  2  0  0  0  0
 36 39  1  0  0  0  0
 37 46  1  0  0  0  0
 38 64  1  0  0  0  0
 39 41  1  0  0  0  0
 40 42  1  0  0  0  0
 40 43  1  0  0  0  0
 41 45  1  0  0  0  0
 42 47  1  0  0  0  0
 43 65  1  0  0  0  0
 44 47  1  0  0  0  0
 44 65  1  0  0  0  0
 45 68  1  0  0  0  0
 46 64  1  0  0  0  0
 47 63  1  0  0  0  0
 48 58  1  0  0  0  0
 49 59  1  0  0  0  0
 50 59  1  0  0  0  0
 51 59  1  0  0  0  0
 52 70  1  0  0  0  0
 53 71  1  0  0  0  0
 54 78  1  0  0  0  0
 55 56  1  0  0  0  0
 55 62  1  0  0  0  0
 56 70  1  0  0  0  0
 57 59  1  0  0  0  0
 57 69  1  0  0  0  0
 58 71  1  0  0  0  0
 60 62  1  0  0  0  0
 61 63  1  0  0  0  0
M  CHG  1  71   1
M  ISO  4  35 100  54 101  70 100  78 101
M  END
> <Batch ID>
0057

> <Smiles>
CNC(C)C(=O)NC(C(=O)N1Cc2cc([101O:1][101CH2:1]c3cnn(CC[100N:0](C)[100C:0](=O)N4CCCC(n5nc(-c6ccc(Oc7ccc(F)cc7F)cc6)c(C(N)=O)c5N)C4)c3)ccc2CC1C(=O)NC1CCCc2ccccc21)C(C)(C)C

> <Shape>
0.196

> <Color>
0.084

> <Negative vol penalty>
0.000

$$$$

  -OEChem-04052317483D

 83 91  0     1  0  0  0  0  0999 V2000
  -20.2390  -30.6797   24.4930 C   0  0  0  0  0  0  0  0  0  0  0  0
  -21.5221  -30.1806   24.2929 C   0  0  0  0  0  0  0  0  0  0  0  0
  -26.1746  -18.7372   20.5871 C   0  0  0  0  0  0  0  0  0  0  0  0
  -28.2430  -17.5211   20.8700 C   0  0  0  0  0  0  0  0  0  0  0  0
  -19.1379  -29.9935   23.9825 C   0  0  0  0  0  0  0  0  0  0  0  0
  -21.7048  -28.9943   23.5832 C   0  0  0  0  0  0  0  0  0  0  0  0
  -25.4749  -29.3054   20.2166 C   0  0  0  0  0  0  0  0  0  0  0  0
  -25.4890  -17.5333   20.4249 C   0  0  0  0  0  0  0  0  0  0  0  0
  -27.5574  -16.3172   20.7078 C   0  0  0  0  0  0  0  0  0  0  0  0
  -26.7762  -29.2041   20.7067 C   0  0  0  0  0  0  0  0  0  0  0  0
  -26.2939  -12.9082   20.7275 C   0  0  0  0  0  0  0  0  0  0  0  0
  -26.5837  -11.8714   21.6144 C   0  0  0  0  0  0  0  0  0  0  0  0
  -26.8484  -26.8928   20.0198 C   0  0  0  0  0  0  0  0  0  0  0  0
  -25.8845  -13.2588   23.4647 C   0  0  0  0  0  0  0  0  0  0  0  0
  -31.0962  -28.1160   20.5856 C   0  0  0  0  0  0  0  0  0  0  0  0
  -30.8695  -28.7297   18.4812 C   0  0  0  0  0  0  0  0  0  0  0  0
  -27.5517  -18.7310   20.8096 C   0  0  0  0  0  0  0  0  0  0  0  0
  -28.4998  -20.6611   22.1820 C   0  0  0  0  0  0  0  0  0  0  0  0
  -19.3078  -28.8033   23.2578 C   0  0  0  0  0  0  0  0  0  0  0  0
  -24.8456  -28.1963   19.6332 C   0  0  0  0  0  0  0  0  0  0  0  0
  -20.6048  -28.2908   23.0637 C   0  0  0  0  0  0  0  0  0  0  0  0
  -25.5401  -26.9834   19.5207 C   0  0  0  0  0  0  0  0  0  0  0  0
  -26.1804  -16.3234   20.4852 C   0  0  0  0  0  0  0  0  0  0  0  0
  -27.4621  -27.9968   20.6110 C   0  0  0  0  0  0  0  0  0  0  0  0
  -25.7995  -14.1204   21.2091 C   0  0  0  0  0  0  0  0  0  0  0  0
  -26.3790  -12.0467   22.9830 C   0  0  0  0  0  0  0  0  0  0  0  0
  -25.5948  -14.2956   22.5777 C   0  0  0  0  0  0  0  0  0  0  0  0
  -28.2606  -19.9743   20.9767 C   0  0  0  0  0  0  0  0  0  0  0  0
  -29.7721  -28.1830   20.2211 C   0  0  0  0  0  0  0  0  0  1  0  0
  -29.2079  -21.7766   21.8069 C   0  0  0  0  0  0  0  0  0  0  0  0
  -28.1163  -20.3212   23.5211 C   0  0  0  0  0  0  0  0  0  0  0  0
  -22.2614  -26.4724   20.3065 C   0  0  0  0  0  0  0  0  0  0  0  0
  -33.3297  -24.0189   18.9327 C   0  0  0  0  0  0  0  0  0  0  0  0
  -22.9522  -25.0471   17.4757 C   0  0  0  0  0  0  0  0  0  0  0  0
  -25.2934  -24.2760   15.1154 C   0  0  0  0  0  0  0  0  0  0  0  0
  -18.0840  -28.0719   22.7659 C   0  0  0  0  0  0  0  0  0  0  0  0
  -23.4512  -28.3294   19.0852 C   0  0  0  0  0  0  0  0  0  0  0  0
  -24.9166  -25.7687   18.8849 C   0  0  0  0  0  0  0  0  0  0  0  0
  -18.3895  -27.0194   21.7033 C   0  0  0  0  0  0  0  0  0  0  0  0
  -30.1251  -23.7242   17.2383 C   0  0  0  0  0  0  0  0  0  0  0  0
  -19.5813  -26.1656   22.1246 C   0  0  0  0  0  0  0  0  0  0  0  0
  -29.3846  -22.7489   18.1524 C   0  0  0  0  0  0  0  0  0  0  0  0
  -31.6148  -23.4002   17.1612 C   0  0  0  0  0  0  0  0  0  0  0  0
  -31.5498  -22.3678   19.4094 C   0  0  0  0  0  0  0  0  0  0  0  0
  -20.8454  -27.0202   22.2777 C   0  0  1  0  0  0  0  0  0  0  0  0
  -22.7226  -26.9937   18.9749 C   0  0  1  0  0  0  0  0  0  0  0  0
  -30.0492  -22.6787   19.5384 C   0  0  2  0  0  0  0  0  0  0  0  0
  -35.4869  -24.9309   18.1606 C   0  0  0  0  0  0  0  0  0  0  0  0
  -25.5663  -23.0693   12.9321 C   0  0  0  0  0  0  0  0  0  0  0  0
  -33.5833  -27.1303   16.6431 C   0  0  0  0  0  0  0  0  0  0  0  0
  -22.8801  -22.3747   18.9464 C   0  0  0  0  0  0  0  0  0  0  0  0
  -24.0655  -21.3479   16.9948 C   0  0  0  0  0  0  0  0  0  0  0  0
  -21.8028  -22.3528   16.6895 C   0  0  0  0  0  0  0  0  0  0  0  0
  -26.1318  -26.7482   13.7210 C   0  0  0  0  0  0  0  0  0  0  0  0
  -33.2214  -28.5475   19.3283 C   0  0  0  0  0  0  0  0  0  0  0  0
  -33.9772  -24.9382   17.9280 C   0  0  2  0  0  0  0  0  0  0  0  0
  -23.7940  -23.8687   17.0493 C   0  0  1  0  0  0  0  0  0  0  0  0
  -25.2788  -24.4036   13.6028 C   0  0  2  0  0  0  0  0  0  0  0  0
  -33.3637  -26.3647   17.9542 C   0  0  1  0  0  0  0  0  0  0  0  0
  -23.1469  -22.5082   17.4338 C   0  0  0  0  0  0  0  0  0  0  0  0
  -33.8637  -27.1669   19.1767 C   0  0  0  0  0  0  0  0  0  0  0  0
  -29.6378  -28.5655   18.9099 N   0  0  0  0  0  0  0  0  0  0  0  0
  -28.7748  -20.6011   19.9152 N   0  0  0  0  0  0  0  0  0  0  0  0
  -31.7870  -28.4691   19.4608 N   0  0  0  0  0  0  0  0  0  0  0  0
  -29.3442  -21.6935   20.4523 N   0  0  0  0  0  0  0  0  0  0  0  0
  -23.5490  -25.9473   18.3697 N   0  0  0  0  0  0  0  0  0  0  0  0
  -32.2046  -23.3150   18.5026 N   0  0  0  0  0  0  0  0  0  0  0  0
  -29.7210  -22.8107   22.5068 N   0  0  0  0  0  0  0  0  0  0  0  0
  -27.3921  -19.1393   23.7290 N   0  0  0  0  0  0  0  0  0  0  0  0
  -21.4089  -27.3261   20.9803 N   0  0  0  0  0  0  0  0  0  0  0  0
  -24.0331  -24.0338   15.6197 N   0  0  0  0  0  0  0  0  0  0  0  0
  -26.3069  -25.3855   13.1558 N   0  3  0  0  0  0  0  0  0  0  0  0
  -28.3929  -21.0523   24.5021 O   0  0  0  0  0  0  0  0  0  0  0  0
  -22.6490  -25.3761   20.6934 O   0  0  0  0  0  0  0  0  0  0  0  0
  -33.8094  -23.9323   20.0661 O   0  0  0  0  0  0  0  0  0  0  0  0
  -21.8099  -25.1684   17.0263 O   0  0  0  0  0  0  0  0  0  0  0  0
  -26.3207  -24.3770   15.7825 O   0  0  0  0  0  0  0  0  0  0  0  0
  -25.5116  -15.1485   20.3272 O   0  0  0  0  0  0  0  0  0  0  0  0
  -28.7321  -27.8950   21.0892 O   0  0  0  0  0  0  0  0  0  1  0  0
  -26.6558  -11.0504   23.8344 F   0  0  0  0  0  0  0  0  0  0  0  0
  -25.1190  -15.4575   23.0462 F   0  0  0  0  0  0  0  0  0  0  0  0
  -35.2130  -27.3096   19.1102 F   0  0  0  0  0  0  0  0  0  0  0  0
  -33.6045  -26.4416   20.3002 F   0  0  0  0  0  0  0  0  0  0  0  0
  1  2  1  0  0  0  0
  1  5  2  0  0  0  0
  2  6  2  0  0  0  0
  3  8  2  0  0  0  0
  3 17  1  0  0  0  0
  4  9  1  0  0  0  0
  4 17  2  0  0  0  0
  5 19  1  0  0  0  0
  6 21  1  0  0  0  0
  7 10  2  0  0  0  0
  7 20  1  0  0  0  0
  8 23  1  0  0  0  0
  9 23  2  0  0  0  0
 10 24  1  0  0  0  0
 11 12  2  0  0  0  0
 11 25  1  0  0  0  0
 12 26  1  0  0  0  0
 13 22  1  0  0  0  0
 13 24  2  0  0  0  0
 14 26  2  0  0  0  0
 14 27  1  0  0  0  0
 15 29  2  0  0  0  0
 15 64  1  0  0  0  0
 16 62  2  0  0  0  0
 16 64  1  0  0  0  0
 17 28  1  0  0  0  0
 18 28  1  0  0  0  0
 18 30  2  0  0  0  0
 18 31  1  0  0  0  0
 19 21  2  0  0  0  0
 19 36  1  0  0  0  0
 20 22  2  0  0  0  0
 20 37  1  0  0  0  0
 21 45  1  0  0  0  0
 22 38  1  0  0  0  0
 23 78  1  0  0  0  0
 24 79  1  0  0  0  0
 25 27  2  0  0  0  0
 25 78  1  0  0  0  0
 26 80  1  0  0  0  0
 27 81  1  0  0  0  0
 28 63  2  0  0  0  0
 29 62  1  0  0  0  0
 29 79  1  0  0  0  0
 30 65  1  0  0  0  0
 30 68  1  0  0  0  0
 31 69  1  0  0  0  0
 31 73  2  0  0  0  0
 32 46  1  0  0  0  0
 32 70  1  0  0  0  0
 32 74  2  0  0  0  0
 33 56  1  0  0  0  0
 33 67  1  0  0  0  0
 33 75  2  0  0  0  0
 34 57  1  0  0  0  0
 34 66  1  0  0  0  0
 34 76  2  0  0  0  0
 35 58  1  0  0  0  0
 35 71  1  0  0  0  0
 35 77  2  0  0  0  0
 36 39  1  0  0  0  0
 37 46  1  0  0  0  0
 38 66  1  0  0  0  0
 39 41  1  0  0  0  0
 40 42  1  0  0  0  0
 40 43  1  0  0  0  0
 41 45  1  0  0  0  0
 42 47  1  0  0  0  0
 43 67  1  0  0  0  0
 44 47  1  0  0  0  0
 44 67  1  0  0  0  0
 45 70  1  0  0  0  0
 46 66  1  0  0  0  0
 47 65  1  0  0  0  0
 48 56  1  0  0  0  0
 49 58  1  0  0  0  0
 50 59  1  0  0  0  0
 51 60  1  0  0  0  0
 52 60  1  0  0  0  0
 53 60  1  0  0  0  0
 54 72  1  0  0  0  0
 55 61  1  0  0  0  0
 55 64  1  0  0  0  0
 56 59  1  0  0  0  0
 57 60  1  0  0  0  0
 57 71  1  0  0  0  0
 58 72  1  0  0  0  0
 59 61  1  0  0  0  0
 61 82  1  0  0  0  0
 61 83  1  0  0  0  0
 63 65  1  0  0  0  0
M  CHG  1  72   1
M  ISO  4  29 101  33 100  56 100  79 101
M  END
> <Batch ID>
0057

> <Smiles>
CNC(C)C(=O)NC(C(=O)N1Cc2cc([101O:1][101c:1]3cn(CC(F)(F)C(C)[100CH:0](C)[100C:0](=O)N4CCCC(n5nc(-c6ccc(Oc7ccc(F)cc7F)cc6)c(C(N)=O)c5N)C4)cn3)ccc2CC1C(=O)NC1CCCc2ccccc21)C(C)(C)C

> <Shape>
0.205

> <Color>
0.071

> <Negative vol penalty>
0.000

$$$$

  -OEChem-04052317483D

 83 91  0     1  0  0  0  0  0999 V2000
  -18.2729  -31.3696   19.5318 C   0  0  0  0  0  0  0  0  0  0  0  0
  -19.6211  -31.1954   19.2364 C   0  0  0  0  0  0  0  0  0  0  0  0
  -27.8517  -18.7700   21.3950 C   0  0  0  0  0  0  0  0  0  0  0  0
  -29.9989  -18.0574   20.5471 C   0  0  0  0  0  0  0  0  0  0  0  0
  -17.8029  -31.1087   20.8183 C   0  0  0  0  0  0  0  0  0  0  0  0
  -20.5004  -30.7611   20.2277 C   0  0  0  0  0  0  0  0  0  0  0  0
  -25.3712  -27.1226   19.4916 C   0  0  0  0  0  0  0  0  0  0  0  0
  -27.5448  -17.4504   21.7266 C   0  0  0  0  0  0  0  0  0  0  0  0
  -29.6920  -16.7378   20.8788 C   0  0  0  0  0  0  0  0  0  0  0  0
  -26.7335  -27.3924   19.3678 C   0  0  0  0  0  0  0  0  0  0  0  0
  -27.8450  -14.2122   19.5979 C   0  0  0  0  0  0  0  0  0  0  0  0
  -28.1258  -13.2246   18.6538 C   0  0  0  0  0  0  0  0  0  0  0  0
  -27.0207  -26.9943   21.7296 C   0  0  0  0  0  0  0  0  0  0  0  0
  -29.6089  -12.1439   20.2254 C   0  0  0  0  0  0  0  0  0  0  0  0
  -29.0788  -19.0735   20.8051 C   0  0  0  0  0  0  0  0  0  0  0  0
  -30.0347  -21.3914   21.2755 C   0  0  0  0  0  0  0  0  0  0  0  0
  -18.6751  -30.6617   21.8233 C   0  0  0  0  0  0  0  0  0  0  0  0
  -24.8207  -26.7966   20.7394 C   0  0  0  0  0  0  0  0  0  0  0  0
  -20.0419  -30.4952   21.5291 C   0  0  0  0  0  0  0  0  0  0  0  0
  -25.6517  -26.7182   21.8661 C   0  0  0  0  0  0  0  0  0  0  0  0
  -28.4649  -16.4343   21.4685 C   0  0  0  0  0  0  0  0  0  0  0  0
  -27.5579  -27.3311   20.4874 C   0  0  0  0  0  0  0  0  0  0  0  0
  -28.4462  -14.1657   20.8558 C   0  0  0  0  0  0  0  0  0  0  0  0
  -29.0077  -12.1904   18.9675 C   0  0  0  0  0  0  0  0  0  0  0  0
  -29.3281  -13.1316   21.1695 C   0  0  0  0  0  0  0  0  0  0  0  0
  -29.3963  -20.4364   20.4618 C   0  0  0  0  0  0  0  0  0  0  0  0
  -30.1012  -22.5189   20.4940 C   0  0  0  0  0  0  0  0  0  0  0  0
  -33.4130  -26.6633   20.2364 C   0  0  0  0  0  0  0  0  0  0  0  0
  -31.7433  -28.1622   20.2789 C   0  0  0  0  0  0  0  0  0  0  0  0
  -32.6526  -27.5506   18.3203 C   0  0  0  0  0  0  0  0  0  0  0  0
  -30.5240  -21.2701   22.6177 C   0  0  0  0  0  0  0  0  0  0  0  0
  -22.6353  -28.1085   22.6386 C   0  0  0  0  0  0  0  0  0  0  0  0
  -23.0764  -25.3995   24.3675 C   0  0  0  0  0  0  0  0  0  0  0  0
  -25.1131  -22.7883   25.1923 C   0  0  0  0  0  0  0  0  0  0  0  0
  -31.1356  -24.9945   15.6004 C   0  0  0  0  0  0  0  0  0  0  0  0
  -18.1294  -30.4379   23.2114 C   0  0  0  0  0  0  0  0  0  0  0  0
  -23.3541  -26.4822   20.8512 C   0  0  0  0  0  0  0  0  0  0  0  0
  -25.1135  -26.3530   23.2245 C   0  0  0  0  0  0  0  0  0  0  0  0
  -19.0581  -29.6217   24.1067 C   0  0  0  0  0  0  0  0  0  0  0  0
  -27.8964  -23.5932   16.0701 C   0  0  0  0  0  0  0  0  0  0  0  0
  -20.4897  -30.1378   24.0025 C   0  0  0  0  0  0  0  0  0  0  0  0
  -28.0523  -22.7214   17.3173 C   0  0  0  0  0  0  0  0  0  0  0  0
  -29.1520  -23.5652   15.2014 C   0  0  0  0  0  0  0  0  0  0  0  0
  -30.5573  -23.0335   17.1549 C   0  0  0  0  0  0  0  0  0  0  0  0
  -21.0224  -30.0018   22.5710 C   0  0  1  0  0  0  0  0  0  0  0  0
  -22.8102  -26.6636   22.2650 C   0  0  1  0  0  0  0  0  0  0  0  0
  -29.3371  -23.0739   18.0908 C   0  0  2  0  0  0  0  0  0  0  0  0
  -34.3451  -25.7482   20.9550 C   0  0  0  0  0  0  0  0  0  0  0  0
  -33.6278  -28.8075   16.3727 C   0  0  0  0  0  0  0  0  0  0  0  0
  -25.8108  -20.6253   26.2563 C   0  0  0  0  0  0  0  0  0  0  0  0
  -23.6028  -27.1799   26.7889 C   0  0  0  0  0  0  0  0  0  0  0  0
  -24.6069  -25.1968   27.9412 C   0  0  0  0  0  0  0  0  0  0  0  0
  -22.2066  -25.1599   27.2631 C   0  0  0  0  0  0  0  0  0  0  0  0
  -24.1043  -21.2038   22.9053 C   0  0  0  0  0  0  0  0  0  0  0  0
  -30.7418  -28.9818   21.0557 C   0  0  0  0  0  0  0  0  0  0  0  0
  -33.1475  -26.3440   16.1391 C   0  0  0  0  0  0  0  0  0  0  0  0
  -29.5420  -28.1558   21.5068 C   0  0  0  0  0  0  0  0  0  1  0  0
  -32.7096  -27.6563   16.8343 C   0  0  1  0  0  0  0  0  0  0  0  0
  -23.9987  -24.9849   25.4884 C   0  0  1  0  0  0  0  0  0  0  0  0
  -24.8496  -21.2964   25.2874 C   0  0  2  0  0  0  0  0  0  0  0  0
  -23.6138  -25.6392   26.8453 C   0  0  0  0  0  0  0  0  0  0  0  0
  -29.0796  -20.9155   19.2559 N   0  0  0  0  0  0  0  0  0  0  0  0
  -32.5498  -27.3606   20.9928 N   0  0  0  0  0  0  0  0  0  0  0  0
  -33.5220  -26.7065   18.8987 N   0  0  0  0  0  0  0  0  0  0  0  0
  -31.7370  -28.3091   18.9442 N   0  0  0  0  0  0  0  0  0  0  0  0
  -29.5209  -22.1839   19.3061 N   0  0  0  0  0  0  0  0  0  0  0  0
  -23.6718  -26.0605   23.2838 N   0  0  0  0  0  0  0  0  0  0  0  0
  -30.3344  -23.9101   15.9944 N   0  0  0  0  0  0  0  0  0  0  0  0
  -30.5989  -23.7544   20.7139 N   0  0  0  0  0  0  0  0  0  0  0  0
  -30.3748  -20.0412   23.2748 N   0  0  0  0  0  0  0  0  0  0  0  0
  -21.4017  -28.6315   22.3009 N   0  0  0  0  0  0  0  0  0  0  0  0
  -23.9910  -23.5261   25.5049 N   0  0  0  0  0  0  0  0  0  0  0  0
  -32.2332  -25.2573   16.4109 N   0  0  0  0  0  0  0  0  0  0  0  0
  -25.0067  -20.6563   23.9508 N   0  3  0  0  0  0  0  0  0  0  0  0
  -31.0624  -22.2282   23.2225 O   0  0  0  0  0  0  0  0  0  0  0  0
  -23.5512  -28.7042   23.1935 O   0  0  0  0  0  0  0  0  0  0  0  0
  -21.8731  -25.1399   24.4472 O   0  0  0  0  0  0  0  0  0  0  0  0
  -26.2062  -23.2529   24.8762 O   0  0  0  0  0  0  0  0  0  0  0  0
  -30.8878  -25.6812   14.6034 O   0  0  0  0  0  0  0  0  0  0  0  0
  -28.1658  -15.1465   21.7923 O   0  0  0  0  0  0  0  0  0  0  0  0
  -28.8878  -27.5947   20.3696 O   0  0  0  0  0  0  0  0  0  1  0  0
  -29.2760  -11.2412   18.0613 F   0  0  0  0  0  0  0  0  0  0  0  0
  -29.9078  -13.0810   22.3766 F   0  0  0  0  0  0  0  0  0  0  0  0
  1  2  1  0  0  0  0
  1  5  2  0  0  0  0
  2  6  2  0  0  0  0
  3  8  2  0  0  0  0
  3 15  1  0  0  0  0
  4  9  1  0  0  0  0
  4 15  2  0  0  0  0
  5 17  1  0  0  0  0
  6 19  1  0  0  0  0
  7 10  2  0  0  0  0
  7 18  1  0  0  0  0
  8 21  1  0  0  0  0
  9 21  2  0  0  0  0
 10 22  1  0  0  0  0
 11 12  2  0  0  0  0
 11 23  1  0  0  0  0
 12 24  1  0  0  0  0
 13 20  1  0  0  0  0
 13 22  2  0  0  0  0
 14 24  2  0  0  0  0
 14 25  1  0  0  0  0
 15 26  1  0  0  0  0
 16 26  1  0  0  0  0
 16 27  2  0  0  0  0
 16 31  1  0  0  0  0
 17 19  2  0  0  0  0
 17 36  1  0  0  0  0
 18 20  2  0  0  0  0
 18 37  1  0  0  0  0
 19 45  1  0  0  0  0
 20 38  1  0  0  0  0
 21 80  1  0  0  0  0
 22 81  1  0  0  0  0
 23 25  2  0  0  0  0
 23 80  1  0  0  0  0
 24 82  1  0  0  0  0
 25 83  1  0  0  0  0
 26 62  2  0  0  0  0
 27 66  1  0  0  0  0
 27 69  1  0  0  0  0
 28 48  1  0  0  0  0
 28 63  2  0  0  0  0
 28 64  1  0  0  0  0
 29 55  1  0  0  0  0
 29 63  1  0  0  0  0
 29 65  2  0  0  0  0
 30 58  1  0  0  0  0
 30 64  2  0  0  0  0
 30 65  1  0  0  0  0
 31 70  1  0  0  0  0
 31 75  2  0  0  0  0
 32 46  1  0  0  0  0
 32 71  1  0  0  0  0
 32 76  2  0  0  0  0
 33 59  1  0  0  0  0
 33 67  1  0  0  0  0
 33 77  2  0  0  0  0
 34 60  1  0  0  0  0
 34 72  1  0  0  0  0
 34 78  2  0  0  0  0
 35 68  1  0  0  0  0
 35 73  1  0  0  0  0
 35 79  2  0  0  0  0
 36 39  1  0  0  0  0
 37 46  1  0  0  0  0
 38 67  1  0  0  0  0
 39 41  1  0  0  0  0
 40 42  1  0  0  0  0
 40 43  1  0  0  0  0
 41 45  1  0  0  0  0
 42 47  1  0  0  0  0
 43 68  1  0  0  0  0
 44 47  1  0  0  0  0
 44 68  1  0  0  0  0
 45 71  1  0  0  0  0
 46 67  1  0  0  0  0
 47 66  1  0  0  0  0
 49 58  1  0  0  0  0
 50 60  1  0  0  0  0
 51 61  1  0  0  0  0
 52 61  1  0  0  0  0
 53 61  1  0  0  0  0
 54 74  1  0  0  0  0
 55 57  1  0  0  0  0
 56 58  1  0  0  0  0
 56 73  1  0  0  0  0
 57 81  1  0  0  0  0
 59 61  1  0  0  0  0
 59 72  1  0  0  0  0
 60 74  1  0  0  0  0
 62 66  1  0  0  0  0
M  CHG  1  74   1
M  ISO  4  35 100  57 101  73 100  81 101
M  END
> <Batch ID>
0057

> <Smiles>
CNC(C)C(=O)NC(C(=O)N1Cc2cc([101O:1][101CH2:1]Cc3nc(C)nc(C(C)C[100NH:0][100C:0](=O)N4CCCC(n5nc(-c6ccc(Oc7ccc(F)cc7F)cc6)c(C(N)=O)c5N)C4)n3)ccc2CC1C(=O)NC1CCCc2ccccc21)C(C)(C)C

> <Shape>
0.195

> <Color>
0.060

> <Negative vol penalty>
0.000

$$$$

  -OEChem-04052317483D

 80 88  0     1  0  0  0  0  0999 V2000
  -20.3688  -18.1747   23.4032 C   0  0  0  0  0  0  0  0  0  0  0  0
  -21.7176  -18.5128   23.4472 C   0  0  0  0  0  0  0  0  0  0  0  0
  -24.5561  -13.0723   20.5718 C   0  0  0  0  0  0  0  0  0  0  0  0
  -22.9850  -14.2909   21.9443 C   0  0  0  0  0  0  0  0  0  0  0  0
  -19.4933  -18.9077   22.6032 C   0  0  0  0  0  0  0  0  0  0  0  0
  -22.1918  -19.5837   22.6904 C   0  0  0  0  0  0  0  0  0  0  0  0
  -27.1255  -24.7753   22.8418 C   0  0  0  0  0  0  0  0  0  0  0  0
  -24.2630  -11.9034   21.2741 C   0  0  0  0  0  0  0  0  0  0  0  0
  -22.6919  -13.1220   22.6467 C   0  0  0  0  0  0  0  0  0  0  0  0
  -28.1546  -25.3060   22.0653 C   0  0  0  0  0  0  0  0  0  0  0  0
  -23.6624   -8.5228   22.4682 C   0  0  0  0  0  0  0  0  0  0  0  0
  -23.4580   -7.3569   21.7304 C   0  0  0  0  0  0  0  0  0  0  0  0
  -26.5357  -26.5504   20.7809 C   0  0  0  0  0  0  0  0  0  0  0  0
  -21.6083   -8.4066   20.5841 C   0  0  0  0  0  0  0  0  0  0  0  0
  -31.7381  -21.7233   19.1233 C   0  0  0  0  0  0  0  0  0  0  0  0
  -23.9171  -14.2661   20.9069 C   0  0  0  0  0  0  0  0  0  0  0  0
  -23.5795  -15.9536   19.0238 C   0  0  0  0  0  0  0  0  0  0  0  0
  -19.9553  -19.9942   21.8436 C   0  0  0  0  0  0  0  0  0  0  0  0
  -25.7905  -25.1202   22.5861 C   0  0  0  0  0  0  0  0  0  0  0  0
  -21.3219  -20.3312   21.8785 C   0  0  0  0  0  0  0  0  0  0  0  0
  -25.4917  -26.0247   21.5571 C   0  0  0  0  0  0  0  0  0  0  0  0
  -23.3309  -11.9282   22.3115 C   0  0  0  0  0  0  0  0  0  0  0  0
  -27.8596  -26.1915   21.0328 C   0  0  0  0  0  0  0  0  0  0  0  0
  -22.8397   -9.6306   22.2641 C   0  0  0  0  0  0  0  0  0  0  0  0
  -22.4310   -7.2988   20.7883 C   0  0  0  0  0  0  0  0  0  0  0  0
  -21.8127   -9.5725   21.3220 C   0  0  0  0  0  0  0  0  0  0  0  0
  -24.2199  -15.4741   20.1822 C   0  0  0  0  0  0  0  0  0  0  0  0
  -24.2321  -17.1262   18.7312 C   0  0  0  0  0  0  0  0  0  0  0  0
  -30.3817  -20.2089   19.5964 C   0  0  0  0  0  0  0  0  0  0  0  0
  -22.4920  -15.3896   18.2790 C   0  0  0  0  0  0  0  0  0  0  0  0
  -29.7221  -18.9623   20.0038 C   0  0  0  0  0  0  0  0  0  0  0  0
  -23.1860  -23.5175   21.7192 C   0  0  0  0  0  0  0  0  0  0  0  0
  -21.7382  -26.3801   22.2001 C   0  0  0  0  0  0  0  0  0  0  0  0
  -22.0174  -29.7777   22.3583 C   0  0  0  0  0  0  0  0  0  0  0  0
  -18.9798  -20.7273   20.9573 C   0  0  0  0  0  0  0  0  0  0  0  0
  -24.6941  -24.5598   23.4499 C   0  0  0  0  0  0  0  0  0  0  0  0
  -24.0766  -26.4428   21.2550 C   0  0  0  0  0  0  0  0  0  0  0  0
  -19.4937  -22.0816   20.4755 C   0  0  0  0  0  0  0  0  0  0  0  0
  -26.6388  -20.6986   20.8072 C   0  0  0  0  0  0  0  0  0  0  0  0
  -20.9281  -21.9596   19.9709 C   0  0  0  0  0  0  0  0  0  0  0  0
  -25.6090  -19.5799   20.6446 C   0  0  0  0  0  0  0  0  0  0  0  0
  -27.9496  -20.1684   21.3802 C   0  0  0  0  0  0  0  0  0  0  0  0
  -27.5189  -17.9258   20.4323 C   0  0  0  0  0  0  0  0  0  0  0  0
  -21.8699  -21.5016   21.0911 C   0  0  1  0  0  0  0  0  0  0  0  0
  -23.3282  -24.5814   22.7707 C   0  0  1  0  0  0  0  0  0  0  0  0
  -26.1857  -18.4056   19.8326 C   0  0  1  0  0  0  0  0  0  0  0  0
  -20.6538  -31.8511   22.7314 C   0  0  0  0  0  0  0  0  0  0  0  0
  -20.6049  -26.1398   19.3773 C   0  0  0  0  0  0  0  0  0  0  0  0
  -20.0745  -28.5853   19.4571 C   0  0  0  0  0  0  0  0  0  0  0  0
  -18.9959  -27.0235   21.0757 C   0  0  0  0  0  0  0  0  0  0  0  0
  -30.3685  -26.7347   18.4038 C   0  0  0  0  0  0  0  0  0  0  0  0
  -28.0104  -25.9092   18.1852 C   0  0  0  0  0  0  0  0  0  0  0  0
  -23.5915  -30.5222   24.7514 C   0  0  0  0  0  0  0  0  0  0  0  0
  -29.6479  -24.5587   19.5290 C   0  0  0  0  0  0  0  0  0  0  0  0
  -30.1564  -23.6762   18.3802 C   0  0  0  0  0  0  0  0  0  0  0  0
  -21.4459  -27.5877   21.3426 C   0  0  1  0  0  0  0  0  0  0  0  0
  -21.5194  -30.7828   23.3812 C   0  0  2  0  0  0  0  0  0  0  0  0
  -20.3069  -27.3249   20.3174 C   0  0  0  0  0  0  0  0  0  0  0  0
  -29.2346  -25.9823   19.1037 C   0  0  0  0  0  0  0  0  0  1  0  0
  -31.6747  -20.4342   19.5694 N   0  0  0  0  0  0  0  0  0  0  0  0
  -25.2038  -16.2764   20.5970 N   0  0  0  0  0  0  0  0  0  0  0  0
  -29.7147  -21.3199   19.1833 N   0  0  0  0  0  0  0  0  0  0  0  0
  -30.5656  -22.3098   18.8726 N   0  0  0  0  0  0  0  0  0  0  0  0
  -25.1867  -17.2719   19.6943 N   0  0  0  0  0  0  0  0  0  0  0  0
  -28.4506  -19.0461   20.5767 N   0  0  0  0  0  0  0  0  0  0  0  0
  -23.0390  -25.8627   22.1235 N   0  0  0  0  0  0  0  0  0  0  0  0
  -24.0768  -18.0365   17.7465 N   0  0  0  0  0  0  0  0  0  0  0  0
  -21.9380  -14.1793   18.7182 N   0  0  0  0  0  0  0  0  0  0  0  0
  -22.1795  -22.6056   21.9740 N   0  0  0  0  0  0  0  0  0  0  0  0
  -21.1789  -28.6873   22.2635 N   0  0  0  0  0  0  0  0  0  0  0  0
  -22.6695  -31.4532   24.0511 N   0  3  0  0  0  0  0  0  0  0  0  0
  -22.0360  -15.9340   17.2450 O   0  0  0  0  0  0  0  0  0  0  0  0
  -30.3481  -17.9241   19.7954 O   0  0  0  0  0  0  0  0  0  0  0  0
  -23.9331  -23.5243   20.7479 O   0  0  0  0  0  0  0  0  0  0  0  0
  -20.8473  -25.9175   22.9169 O   0  0  0  0  0  0  0  0  0  0  0  0
  -23.0453  -29.9451   21.7057 O   0  0  0  0  0  0  0  0  0  0  0  0
  -23.0444  -10.7877   22.9969 O   0  0  0  0  0  0  0  0  0  0  0  0
  -28.8622  -26.7105   20.2730 O   0  0  0  0  0  0  0  0  0  1  0  0
  -22.2358   -6.1796   20.0787 F   0  0  0  0  0  0  0  0  0  0  0  0
  -21.0199  -10.6340   21.1207 F   0  0  0  0  0  0  0  0  0  0  0  0
  1  2  1  0  0  0  0
  1  5  2  0  0  0  0
  2  6  2  0  0  0  0
  3  8  2  0  0  0  0
  3 16  1  0  0  0  0
  4  9  1  0  0  0  0
  4 16  2  0  0  0  0
  5 18  1  0  0  0  0
  6 20  1  0  0  0  0
  7 10  2  0  0  0  0
  7 19  1  0  0  0  0
  8 22  1  0  0  0  0
  9 22  2  0  0  0  0
 10 23  1  0  0  0  0
 11 12  2  0  0  0  0
 11 24  1  0  0  0  0
 12 25  1  0  0  0  0
 13 21  1  0  0  0  0
 13 23  2  0  0  0  0
 14 25  2  0  0  0  0
 14 26  1  0  0  0  0
 15 60  2  0  0  0  0
 15 63  1  0  0  0  0
 16 27  1  0  0  0  0
 17 27  1  0  0  0  0
 17 28  2  0  0  0  0
 17 30  1  0  0  0  0
 18 20  2  0  0  0  0
 18 35  1  0  0  0  0
 19 21  2  0  0  0  0
 19 36  1  0  0  0  0
 20 44  1  0  0  0  0
 21 37  1  0  0  0  0
 22 77  1  0  0  0  0
 23 78  1  0  0  0  0
 24 26  2  0  0  0  0
 24 77  1  0  0  0  0
 25 79  1  0  0  0  0
 26 80  1  0  0  0  0
 27 61  2  0  0  0  0
 28 64  1  0  0  0  0
 28 67  1  0  0  0  0
 29 31  1  0  0  0  0
 29 60  1  0  0  0  0
 29 62  2  0  0  0  0
 30 68  1  0  0  0  0
 30 72  2  0  0  0  0
 31 65  1  0  0  0  0
 31 73  2  0  0  0  0
 32 45  1  0  0  0  0
 32 69  1  0  0  0  0
 32 74  2  0  0  0  0
 33 56  1  0  0  0  0
 33 66  1  0  0  0  0
 33 75  2  0  0  0  0
 34 57  1  0  0  0  0
 34 70  1  0  0  0  0
 34 76  2  0  0  0  0
 35 38  1  0  0  0  0
 36 45  1  0  0  0  0
 37 66  1  0  0  0  0
 38 40  1  0  0  0  0
 39 41  1  0  0  0  0
 39 42  1  0  0  0  0
 40 44  1  0  0  0  0
 41 46  1  0  0  0  0
 42 65  1  0  0  0  0
 43 46  1  0  0  0  0
 43 65  1  0  0  0  0
 44 69  1  0  0  0  0
 45 66  1  0  0  0  0
 46 64  1  0  0  0  0
 47 57  1  0  0  0  0
 48 58  1  0  0  0  0
 49 58  1  0  0  0  0
 50 58  1  0  0  0  0
 51 59  1  0  0  0  0
 52 59  1  0  0  0  0
 53 71  1  0  0  0  0
 54 55  1  0  0  0  0
 54 59  1  0  0  0  0
 55 63  1  0  0  0  0
 56 58  1  0  0  0  0
 56 70  1  0  0  0  0
 57 71  1  0  0  0  0
 59 78  1  0  0  0  0
 61 64  1  0  0  0  0
 62 63  1  0  0  0  0
M  CHG  1  71   1
M  ISO  4  29 100  31 100  59 101  78 101
M  END
> <Batch ID>
0057

> <Smiles>
CNC(C)C(=O)NC(C(=O)N1Cc2cc([101O:1][101C:1](C)(C)CCn3cn[100c:0]([100C:0](=O)N4CCCC(n5nc(-c6ccc(Oc7ccc(F)cc7F)cc6)c(C(N)=O)c5N)C4)n3)ccc2CC1C(=O)NC1CCCc2ccccc21)C(C)(C)C

> <Shape>
0.198

> <Color>
0.061

> <Negative vol penalty>
0.000

$$$$

  -OEChem-04052317483D

 87 95  0     1  0  0  0  0  0999 V2000
  -32.0524  -32.8068   19.8857 C   0  0  0  0  0  0  0  0  0  0  0  0
  -31.0586  -31.9259   20.3003 C   0  0  0  0  0  0  0  0  0  0  0  0
  -23.2908   -9.6893   21.1103 C   0  0  0  0  0  0  0  0  0  0  0  0
  -24.2269  -10.4289   23.2112 C   0  0  0  0  0  0  0  0  0  0  0  0
  -33.1061  -32.3461   19.0973 C   0  0  0  0  0  0  0  0  0  0  0  0
  -31.1175  -30.5840   19.9258 C   0  0  0  0  0  0  0  0  0  0  0  0
  -29.4451  -24.0419   22.3177 C   0  0  0  0  0  0  0  0  0  0  0  0
  -22.6763   -8.6193   21.7607 C   0  0  0  0  0  0  0  0  0  0  0  0
  -23.6124   -9.3588   23.8617 C   0  0  0  0  0  0  0  0  0  0  0  0
  -28.7546  -22.8958   21.9260 C   0  0  0  0  0  0  0  0  0  0  0  0
  -24.1569   -6.0472   24.2706 C   0  0  0  0  0  0  0  0  0  0  0  0
  -24.9176   -5.3239   25.1892 C   0  0  0  0  0  0  0  0  0  0  0  0
  -30.6641  -22.1963   20.6283 C   0  0  0  0  0  0  0  0  0  0  0  0
  -23.3485   -5.8925   26.9362 C   0  0  0  0  0  0  0  0  0  0  0  0
  -31.1912  -17.2271   17.4332 C   0  0  0  0  0  0  0  0  0  0  0  0
  -24.0661  -10.5941   21.8355 C   0  0  0  0  0  0  0  0  0  0  0  0
  -24.1678  -12.9842   20.9498 C   0  0  0  0  0  0  0  0  0  0  0  0
  -33.1830  -30.9959   18.7210 C   0  0  0  0  0  0  0  0  0  0  0  0
  -30.7485  -24.2796   21.8582 C   0  0  0  0  0  0  0  0  0  0  0  0
  -32.1724  -30.1051   19.1305 C   0  0  0  0  0  0  0  0  0  0  0  0
  -31.3699  -23.3449   21.0178 C   0  0  0  0  0  0  0  0  0  0  0  0
  -22.8371   -8.4540   23.1364 C   0  0  0  0  0  0  0  0  0  0  0  0
  -29.3630  -21.9742   21.0789 C   0  0  0  0  0  0  0  0  0  0  0  0
  -22.9920   -6.6932   24.6848 C   0  0  0  0  0  0  0  0  0  0  0  0
  -24.5134   -5.2466   26.5220 C   0  0  0  0  0  0  0  0  0  0  0  0
  -22.5879   -6.6158   26.0176 C   0  0  0  0  0  0  0  0  0  0  0  0
  -24.7015  -11.6993   21.1641 C   0  0  0  0  0  0  0  0  0  0  0  0
  -31.2719  -18.2048   16.4236 C   0  0  0  0  0  0  0  0  0  0  0  0
  -29.9310  -17.3788   17.9581 C   0  0  0  0  0  0  0  0  0  0  0  0
  -25.1555  -13.6579   20.2736 C   0  0  0  0  0  0  0  0  0  0  0  0
  -22.8933  -13.5209   21.3282 C   0  0  0  0  0  0  0  0  0  0  0  0
  -32.1306  -26.5406   20.1028 C   0  0  0  0  0  0  0  0  0  0  0  0
  -34.8431  -24.9408   20.8810 C   0  0  0  0  0  0  0  0  0  0  0  0
  -36.3020  -22.0127   21.8529 C   0  0  0  0  0  0  0  0  0  0  0  0
  -30.7055  -14.8728   20.0777 C   0  0  0  0  0  0  0  0  0  0  0  0
  -34.3159  -30.5544   17.8287 C   0  0  0  0  0  0  0  0  0  0  0  0
  -31.4896  -25.5075   22.3114 C   0  0  0  0  0  0  0  0  0  0  0  0
  -32.7749  -23.5434   20.5128 C   0  0  0  0  0  0  0  0  0  0  0  0
  -34.5041  -29.0401   17.7875 C   0  0  0  0  0  0  0  0  0  0  0  0
  -29.4155  -12.0047   18.1254 C   0  0  0  0  0  0  0  0  0  0  0  0
  -33.1621  -28.3403   17.5970 C   0  0  0  0  0  0  0  0  0  0  0  0
  -28.0609  -11.7386   18.7798 C   0  0  0  0  0  0  0  0  0  0  0  0
  -30.4071  -12.6239   19.1057 C   0  0  0  0  0  0  0  0  0  0  0  0
  -28.5526  -13.5927   20.4233 C   0  0  0  0  0  0  0  0  0  0  0  0
  -32.2145  -28.6371   18.7655 C   0  0  1  0  0  0  0  0  0  0  0  0
  -32.6237  -25.9022   21.3705 C   0  0  1  0  0  0  0  0  0  0  0  0
  -27.5159  -13.0118   19.4501 C   0  0  2  0  0  0  0  0  0  0  0  0
  -38.5407  -21.0040   22.3707 C   0  0  0  0  0  0  0  0  0  0  0  0
  -35.4674  -24.8010   17.8976 C   0  0  0  0  0  0  0  0  0  0  0  0
  -37.1466  -23.0142   18.4037 C   0  0  0  0  0  0  0  0  0  0  0  0
  -37.4381  -25.3024   19.3534 C   0  0  0  0  0  0  0  0  0  0  0  0
  -26.8118  -17.9314   17.2360 C   0  0  0  0  0  0  0  0  0  0  0  0
  -27.7141  -20.0824   16.3975 C   0  0  0  0  0  0  0  0  0  0  0  0
  -30.7076  -17.1769   20.9555 C   0  0  0  0  0  0  0  0  0  0  0  0
  -35.5113  -21.4000   24.6383 C   0  0  0  0  0  0  0  0  0  0  0  0
  -29.2400  -16.6568   19.0421 C   0  0  0  0  0  0  0  0  0  0  0  0
  -27.7739  -19.6014   18.8661 C   0  0  0  0  0  0  0  0  0  0  0  0
  -29.0102  -20.3138   19.4132 C   0  0  0  0  0  0  0  0  0  1  0  0
  -35.6237  -23.8008   20.2727 C   0  0  1  0  0  0  0  0  0  0  0  0
  -37.3166  -21.7048   22.9393 C   0  0  2  0  0  0  0  0  0  0  0  0
  -32.4134  -18.4872   15.5372 C   0  0  0  0  0  0  0  0  0  0  0  0
  -36.3918  -24.2265   18.9896 C   0  0  0  0  0  0  0  0  0  0  0  0
  -27.9394  -18.9693   17.4512 C   0  0  0  0  0  0  0  0  0  0  0  0
  -25.9326  -11.5624   20.6644 N   0  0  0  0  0  0  0  0  0  0  0  0
  -30.1522  -18.9244   16.3120 N   0  0  0  0  0  0  0  0  0  0  0  0
  -29.3559  -18.3983   17.2581 N   0  0  0  0  0  0  0  0  0  0  0  0
  -26.1806  -12.7700   20.1293 N   0  0  0  0  0  0  0  0  0  0  0  0
  -33.4558  -24.7626   20.9790 N   0  0  0  0  0  0  0  0  0  0  0  0
  -29.8476  -13.8070   19.7602 N   0  0  0  0  0  0  0  0  0  0  0  0
  -25.2383  -14.9171   19.7942 N   0  0  0  0  0  0  0  0  0  0  0  0
  -21.9977  -12.6925   22.0181 N   0  0  0  0  0  0  0  0  0  0  0  0
  -32.5687  -27.8382   19.9190 N   0  0  0  0  0  0  0  0  0  0  0  0
  -36.4772  -23.2782   21.3343 N   0  0  0  0  0  0  0  0  0  0  0  0
  -30.1530  -16.1625   20.0705 N   0  0  0  0  0  0  0  0  0  0  0  0
  -36.7117  -20.8246   23.9787 N   0  3  0  0  0  0  0  0  0  0  0  0
  -22.5522  -14.6951   21.0481 O   0  0  0  0  0  0  0  0  0  0  0  0
  -31.4075  -25.9026   19.3467 O   0  0  0  0  0  0  0  0  0  0  0  0
  -35.4429  -25.9491   21.2618 O   0  0  0  0  0  0  0  0  0  0  0  0
  -35.4425  -21.2094   21.4972 O   0  0  0  0  0  0  0  0  0  0  0  0
  -31.8996  -14.6834   20.3427 O   0  0  0  0  0  0  0  0  0  0  0  0
  -22.2375   -7.4101   23.7714 O   0  0  0  0  0  0  0  0  0  0  0  0
  -28.6911  -20.8550   20.6944 O   0  0  0  0  0  0  0  0  0  1  0  0
  -25.2432   -4.5507   27.4037 F   0  0  0  0  0  0  0  0  0  0  0  0
  -21.4691   -7.2333   26.4211 F   0  0  0  0  0  0  0  0  0  0  0  0
  -33.5073  -17.6839   15.7492 F   0  0  0  0  0  0  0  0  0  0  0  0
  -32.1401  -18.3409   14.1991 F   0  0  0  0  0  0  0  0  0  0  0  0
  -32.8921  -19.7676   15.6578 F   0  0  0  0  0  0  0  0  0  0  0  0
  1  2  1  0  0  0  0
  1  5  2  0  0  0  0
  2  6  2  0  0  0  0
  3  8  2  0  0  0  0
  3 16  1  0  0  0  0
  4  9  1  0  0  0  0
  4 16  2  0  0  0  0
  5 18  1  0  0  0  0
  6 20  1  0  0  0  0
  7 10  2  0  0  0  0
  7 19  1  0  0  0  0
  8 22  1  0  0  0  0
  9 22  2  0  0  0  0
 10 23  1  0  0  0  0
 11 12  2  0  0  0  0
 11 24  1  0  0  0  0
 12 25  1  0  0  0  0
 13 21  1  0  0  0  0
 13 23  2  0  0  0  0
 14 25  2  0  0  0  0
 14 26  1  0  0  0  0
 15 28  1  0  0  0  0
 15 29  2  0  0  0  0
 16 27  1  0  0  0  0
 17 27  1  0  0  0  0
 17 30  2  0  0  0  0
 17 31  1  0  0  0  0
 18 20  2  0  0  0  0
 18 36  1  0  0  0  0
 19 21  2  0  0  0  0
 19 37  1  0  0  0  0
 20 45  1  0  0  0  0
 21 38  1  0  0  0  0
 22 81  1  0  0  0  0
 23 82  1  0  0  0  0
 24 26  2  0  0  0  0
 24 81  1  0  0  0  0
 25 83  1  0  0  0  0
 26 84  1  0  0  0  0
 27 64  2  0  0  0  0
 28 61  1  0  0  0  0
 28 65  2  0  0  0  0
 29 56  1  0  0  0  0
 29 66  1  0  0  0  0
 30 67  1  0  0  0  0
 30 70  1  0  0  0  0
 31 71  1  0  0  0  0
 31 76  2  0  0  0  0
 32 46  1  0  0  0  0
 32 72  1  0  0  0  0
 32 77  2  0  0  0  0
 33 59  1  0  0  0  0
 33 68  1  0  0  0  0
 33 78  2  0  0  0  0
 34 60  1  0  0  0  0
 34 73  1  0  0  0  0
 34 79  2  0  0  0  0
 35 69  1  0  0  0  0
 35 74  1  0  0  0  0
 35 80  2  0  0  0  0
 36 39  1  0  0  0  0
 37 46  1  0  0  0  0
 38 68  1  0  0  0  0
 39 41  1  0  0  0  0
 40 42  1  0  0  0  0
 40 43  1  0  0  0  0
 41 45  1  0  0  0  0
 42 47  1  0  0  0  0
 43 69  1  0  0  0  0
 44 47  1  0  0  0  0
 44 69  1  0  0  0  0
 45 72  1  0  0  0  0
 46 68  1  0  0  0  0
 47 67  1  0  0  0  0
 48 60  1  0  0  0  0
 49 62  1  0  0  0  0
 50 62  1  0  0  0  0
 51 62  1  0  0  0  0
 52 63  1  0  0  0  0
 53 63  1  0  0  0  0
 54 74  1  0  0  0  0
 55 75  1  0  0  0  0
 56 74  1  0  0  0  0
 57 58  1  0  0  0  0
 57 63  1  0  0  0  0
 58 82  1  0  0  0  0
 59 62  1  0  0  0  0
 59 73  1  0  0  0  0
 60 75  1  0  0  0  0
 61 85  1  0  0  0  0
 61 86  1  0  0  0  0
 61 87  1  0  0  0  0
 63 66  1  0  0  0  0
 64 67  1  0  0  0  0
 65 66  1  0  0  0  0
M  CHG  1  75   1
M  ISO  4  35 100  58 101  74 100  82 101
M  END
> <Batch ID>
0057

> <Smiles>
CNC(C)C(=O)NC(C(=O)N1Cc2cc([101O:1][101CH2:1]CC(C)(C)n3nc(C(F)(F)F)cc3C[100N:0](C)[100C:0](=O)N3CCCC(n4nc(-c5ccc(Oc6ccc(F)cc6F)cc5)c(C(N)=O)c4N)C3)ccc2CC1C(=O)NC1CCCc2ccccc21)C(C)(C)C

> <Shape>
0.187

> <Color>
0.164

> <Negative vol penalty>
0.000

$$$$

  -OEChem-04052317483D

 80 88  0     1  0  0  0  0  0999 V2000
  -27.7510  -20.9098   27.7038 C   0  0  0  0  0  0  0  0  0  0  0  0
  -27.7875  -19.5699   27.3347 C   0  0  0  0  0  0  0  0  0  0  0  0
  -26.1372  -27.5351   18.8649 C   0  0  0  0  0  0  0  0  0  0  0  0
  -26.3826  -27.1466   21.2367 C   0  0  0  0  0  0  0  0  0  0  0  0
  -27.9412  -21.8993   26.7416 C   0  0  0  0  0  0  0  0  0  0  0  0
  -28.0260  -19.2188   26.0055 C   0  0  0  0  0  0  0  0  0  0  0  0
  -28.0611  -13.7617   23.2951 C   0  0  0  0  0  0  0  0  0  0  0  0
  -25.5863  -28.7894   19.1273 C   0  0  0  0  0  0  0  0  0  0  0  0
  -25.8317  -28.4009   21.4992 C   0  0  0  0  0  0  0  0  0  0  0  0
  -27.1556  -12.9387   22.6269 C   0  0  0  0  0  0  0  0  0  0  0  0
  -22.7558  -29.8013   21.5914 C   0  0  0  0  0  0  0  0  0  0  0  0
  -21.7899  -29.8880   22.5939 C   0  0  0  0  0  0  0  0  0  0  0  0
  -27.9481  -13.7922   20.5144 C   0  0  0  0  0  0  0  0  0  0  0  0
  -23.1896  -31.4381   23.8084 C   0  0  0  0  0  0  0  0  0  0  0  0
  -22.2154  -15.4680   21.3014 C   0  0  0  0  0  0  0  0  0  0  0  0
  -26.5352  -26.7137   19.9196 C   0  0  0  0  0  0  0  0  0  0  0  0
  -28.4640  -25.1091   19.4581 C   0  0  0  0  0  0  0  0  0  0  0  0
  -28.1696  -21.5595   25.3979 C   0  0  0  0  0  0  0  0  0  0  0  0
  -28.9108  -14.6155   22.5772 C   0  0  0  0  0  0  0  0  0  0  0  0
  -28.2441  -20.2023   25.0239 C   0  0  0  0  0  0  0  0  0  0  0  0
  -28.8653  -14.6231   21.1758 C   0  0  0  0  0  0  0  0  0  0  0  0
  -25.4336  -29.2223   20.4444 C   0  0  0  0  0  0  0  0  0  0  0  0
  -27.0970  -12.9560   21.2364 C   0  0  0  0  0  0  0  0  0  0  0  0
  -23.9387  -30.5329   21.6974 C   0  0  0  0  0  0  0  0  0  0  0  0
  -22.0067  -30.7064   23.7024 C   0  0  0  0  0  0  0  0  0  0  0  0
  -24.1555  -31.3513   22.8059 C   0  0  0  0  0  0  0  0  0  0  0  0
  -27.1038  -25.4176   19.6491 C   0  0  0  0  0  0  0  0  0  0  0  0
  -23.5258  -15.9366   21.1323 C   0  0  0  0  0  0  0  0  0  0  0  0
  -28.4807  -23.7539   19.2352 C   0  0  0  0  0  0  0  0  0  0  0  0
  -29.6100  -25.9705   19.4802 C   0  0  0  0  0  0  0  0  0  0  0  0
  -29.3190  -17.7640   22.4235 C   0  0  0  0  0  0  0  0  0  0  0  0
  -31.8288  -16.9544   20.5345 C   0  0  0  0  0  0  0  0  0  0  0  0
  -33.2712  -14.6619   18.4583 C   0  0  0  0  0  0  0  0  0  0  0  0
  -24.7924  -19.4503   20.8877 C   0  0  0  0  0  0  0  0  0  0  0  0
  -28.3767  -22.6707   24.3991 C   0  0  0  0  0  0  0  0  0  0  0  0
  -29.9006  -15.4774   23.3119 C   0  0  0  0  0  0  0  0  0  0  0  0
  -29.7701  -15.5066   20.3578 C   0  0  0  0  0  0  0  0  0  0  0  0
  -28.1801  -22.2173   22.9562 C   0  0  0  0  0  0  0  0  0  0  0  0
  -25.7757  -20.2124   17.4893 C   0  0  0  0  0  0  0  0  0  0  0  0
  -28.9761  -20.9470   22.6974 C   0  0  0  0  0  0  0  0  0  0  0  0
  -26.3609  -21.6167   17.6496 C   0  0  0  0  0  0  0  0  0  0  0  0
  -24.5627  -20.0125   18.3930 C   0  0  0  0  0  0  0  0  0  0  0  0
  -25.4042  -21.6816   19.9991 C   0  0  0  0  0  0  0  0  0  0  0  0
  -28.4716  -19.7973   23.5787 C   0  0  1  0  0  0  0  0  0  0  0  0
  -30.3608  -16.6840   22.4996 C   0  0  1  0  0  0  0  0  0  0  0  0
  -26.6473  -21.9389   19.1282 C   0  0  2  0  0  0  0  0  0  0  0  0
  -35.3061  -14.2984   17.0355 C   0  0  0  0  0  0  0  0  0  0  0  0
  -30.6853  -18.8365   18.4227 C   0  0  0  0  0  0  0  0  0  0  0  0
  -32.1705  -17.7335   16.7357 C   0  0  0  0  0  0  0  0  0  0  0  0
  -33.1711  -18.9402   18.6762 C   0  0  0  0  0  0  0  0  0  0  0  0
  -34.0904  -12.2926   20.0312 C   0  0  0  0  0  0  0  0  0  0  0  0
  -24.1395  -17.1746   21.6306 C   0  0  0  0  0  0  0  0  0  0  0  0
  -23.8970  -11.6459   20.2192 C   0  0  0  0  0  0  0  0  0  0  0  0
  -23.6377  -12.8909   19.3680 C   0  0  0  0  0  0  0  0  0  0  0  0
  -24.9959  -11.8419   21.2571 C   0  0  0  0  0  0  0  0  0  1  0  0
  -32.0220  -16.7203   19.0557 C   0  0  1  0  0  0  0  0  0  0  0  0
  -34.6787  -14.0955   18.4058 C   0  0  2  0  0  0  0  0  0  0  0  0
  -31.9937  -18.0423   18.2378 C   0  0  0  0  0  0  0  0  0  0  0  0
  -22.0709  -14.2930   20.6821 N   0  0  0  0  0  0  0  0  0  0  0  0
  -26.3137  -24.3448   19.5556 N   0  0  0  0  0  0  0  0  0  0  0  0
  -24.2285  -15.0638   20.4049 N   0  0  0  0  0  0  0  0  0  0  0  0
  -27.1801  -23.3489   19.3033 N   0  0  0  0  0  0  0  0  0  0  0  0
  -23.3023  -14.1192   20.1756 N   0  0  0  0  0  0  0  0  0  0  0  0
  -30.7163  -16.3358   21.1224 N   0  0  0  0  0  0  0  0  0  0  0  0
  -24.9074  -20.3177   19.7888 N   0  0  0  0  0  0  0  0  0  0  0  0
  -29.4808  -22.8812   18.9895 N   0  0  0  0  0  0  0  0  0  0  0  0
  -29.4142  -27.3368   19.7235 N   0  0  0  0  0  0  0  0  0  0  0  0
  -29.3788  -18.6773   23.4588 N   0  0  0  0  0  0  0  0  0  0  0  0
  -33.2603  -15.9608   18.9211 N   0  0  0  0  0  0  0  0  0  0  0  0
  -24.3075  -18.1794   20.6044 N   0  0  0  0  0  0  0  0  0  0  0  0
  -34.6608  -12.6353   18.7030 N   0  3  0  0  0  0  0  0  0  0  0  0
  -30.7714  -25.5440   19.2735 O   0  0  0  0  0  0  0  0  0  0  0  0
  -28.5210  -17.7693   21.4935 O   0  0  0  0  0  0  0  0  0  0  0  0
  -32.6391  -17.6544   21.1470 O   0  0  0  0  0  0  0  0  0  0  0  0
  -32.2809  -14.0179   18.1190 O   0  0  0  0  0  0  0  0  0  0  0  0
  -25.1042  -19.7822   22.0366 O   0  0  0  0  0  0  0  0  0  0  0  0
  -24.8963  -30.4463   20.7009 O   0  0  0  0  0  0  0  0  0  0  0  0
  -26.2136  -12.1542   20.5817 O   0  0  0  0  0  0  0  0  0  1  0  0
  -21.0784  -30.7907   24.6643 F   0  0  0  0  0  0  0  0  0  0  0  0
  -25.2894  -32.0575   22.9128 F   0  0  0  0  0  0  0  0  0  0  0  0
  1  2  1  0  0  0  0
  1  5  2  0  0  0  0
  2  6  2  0  0  0  0
  3  8  2  0  0  0  0
  3 16  1  0  0  0  0
  4  9  1  0  0  0  0
  4 16  2  0  0  0  0
  5 18  1  0  0  0  0
  6 20  1  0  0  0  0
  7 10  2  0  0  0  0
  7 19  1  0  0  0  0
  8 22  1  0  0  0  0
  9 22  2  0  0  0  0
 10 23  1  0  0  0  0
 11 12  2  0  0  0  0
 11 24  1  0  0  0  0
 12 25  1  0  0  0  0
 13 21  1  0  0  0  0
 13 23  2  0  0  0  0
 14 25  2  0  0  0  0
 14 26  1  0  0  0  0
 15 28  1  0  0  0  0
 15 59  2  0  0  0  0
 16 27  1  0  0  0  0
 17 27  1  0  0  0  0
 17 29  2  0  0  0  0
 17 30  1  0  0  0  0
 18 20  2  0  0  0  0
 18 35  1  0  0  0  0
 19 21  2  0  0  0  0
 19 36  1  0  0  0  0
 20 44  1  0  0  0  0
 21 37  1  0  0  0  0
 22 77  1  0  0  0  0
 23 78  1  0  0  0  0
 24 26  2  0  0  0  0
 24 77  1  0  0  0  0
 25 79  1  0  0  0  0
 26 80  1  0  0  0  0
 27 60  2  0  0  0  0
 28 52  1  0  0  0  0
 28 61  2  0  0  0  0
 29 62  1  0  0  0  0
 29 66  1  0  0  0  0
 30 67  1  0  0  0  0
 30 72  2  0  0  0  0
 31 45  1  0  0  0  0
 31 68  1  0  0  0  0
 31 73  2  0  0  0  0
 32 56  1  0  0  0  0
 32 64  1  0  0  0  0
 32 74  2  0  0  0  0
 33 57  1  0  0  0  0
 33 69  1  0  0  0  0
 33 75  2  0  0  0  0
 34 65  1  0  0  0  0
 34 70  1  0  0  0  0
 34 76  2  0  0  0  0
 35 38  1  0  0  0  0
 36 45  1  0  0  0  0
 37 64  1  0  0  0  0
 38 40  1  0  0  0  0
 39 41  1  0  0  0  0
 39 42  1  0  0  0  0
 40 44  1  0  0  0  0
 41 46  1  0  0  0  0
 42 65  1  0  0  0  0
 43 46  1  0  0  0  0
 43 65  1  0  0  0  0
 44 68  1  0  0  0  0
 45 64  1  0  0  0  0
 46 62  1  0  0  0  0
 47 57  1  0  0  0  0
 48 58  1  0  0  0  0
 49 58  1  0  0  0  0
 50 58  1  0  0  0  0
 51 71  1  0  0  0  0
 52 70  1  0  0  0  0
 53 54  1  0  0  0  0
 53 55  1  0  0  0  0
 54 63  1  0  0  0  0
 55 78  1  0  0  0  0
 56 58  1  0  0  0  0
 56 69  1  0  0  0  0
 57 71  1  0  0  0  0
 59 63  1  0  0  0  0
 60 62  1  0  0  0  0
 61 63  1  0  0  0  0
M  CHG  1  71   1
M  ISO  4  34 100  55 101  70 100  78 101
M  END
> <Batch ID>
0057

> <Smiles>
CNC(C)C(=O)NC(C(=O)N1Cc2cc([101O:1][101CH2:1]CCn3ncc(C[100NH:0][100C:0](=O)N4CCCC(n5nc(-c6ccc(Oc7ccc(F)cc7F)cc6)c(C(N)=O)c5N)C4)n3)ccc2CC1C(=O)NC1CCCc2ccccc21)C(C)(C)C

> <Shape>
0.200

> <Color>
0.086

> <Negative vol penalty>
0.000

$$$$

  -OEChem-04052317483D

 83 91  0     1  0  0  0  0  0999 V2000
  -28.3239   -9.2491   21.9305 C   0  0  0  0  0  0  0  0  0  0  0  0
  -28.8589  -10.4789   21.5605 C   0  0  0  0  0  0  0  0  0  0  0  0
  -22.8222  -29.4441   21.8656 C   0  0  0  0  0  0  0  0  0  0  0  0
  -23.2555  -27.0687   21.9502 C   0  0  0  0  0  0  0  0  0  0  0  0
  -26.9428   -9.0587   21.9170 C   0  0  0  0  0  0  0  0  0  0  0  0
  -28.0131  -11.5186   21.1758 C   0  0  0  0  0  0  0  0  0  0  0  0
  -28.8338  -17.5012   22.1963 C   0  0  0  0  0  0  0  0  0  0  0  0
  -21.4516  -29.1920   21.8066 C   0  0  0  0  0  0  0  0  0  0  0  0
  -21.8849  -26.8166   21.8913 C   0  0  0  0  0  0  0  0  0  0  0  0
  -29.3295  -18.5298   21.3964 C   0  0  0  0  0  0  0  0  0  0  0  0
  -17.8214  -29.1837   21.9978 C   0  0  0  0  0  0  0  0  0  0  0  0
  -16.9856  -29.9495   22.8105 C   0  0  0  0  0  0  0  0  0  0  0  0
  -27.0755  -19.1294   20.7810 C   0  0  0  0  0  0  0  0  0  0  0  0
  -18.1392  -29.1301   24.7688 C   0  0  0  0  0  0  0  0  0  0  0  0
  -23.7242  -28.3824   21.9373 C   0  0  0  0  0  0  0  0  0  0  0  0
  -25.9223  -28.8259   23.1537 C   0  0  0  0  0  0  0  0  0  0  0  0
  -26.0791  -10.0996   21.5412 C   0  0  0  0  0  0  0  0  0  0  0  0
  -27.4533  -17.2716   22.2862 C   0  0  0  0  0  0  0  0  0  0  0  0
  -26.6192  -11.3415   21.1560 C   0  0  0  0  0  0  0  0  0  0  0  0
  -26.5646  -18.0988   21.5847 C   0  0  0  0  0  0  0  0  0  0  0  0
  -20.9830  -27.8783   21.8195 C   0  0  0  0  0  0  0  0  0  0  0  0
  -28.4505  -19.3423   20.6863 C   0  0  0  0  0  0  0  0  0  0  0  0
  -18.8161  -28.3910   22.5705 C   0  0  0  0  0  0  0  0  0  0  0  0
  -17.1445  -29.9227   24.1960 C   0  0  0  0  0  0  0  0  0  0  0  0
  -18.9750  -28.3642   23.9561 C   0  0  0  0  0  0  0  0  0  0  0  0
  -25.1402  -28.6422   21.9977 C   0  0  0  0  0  0  0  0  0  0  0  0
  -27.1929  -29.0399   22.6782 C   0  0  0  0  0  0  0  0  0  0  0  0
  -29.7714  -23.8040   17.6598 C   0  0  0  0  0  0  0  0  0  0  0  0
  -28.6970  -22.1664   18.3818 C   0  0  0  0  0  0  0  0  0  0  0  0
  -25.5348  -28.8048   24.5340 C   0  0  0  0  0  0  0  0  0  0  0  0
  -25.5297  -14.8498   21.5526 C   0  0  0  0  0  0  0  0  0  0  0  0
  -23.2873  -16.7076   22.9819 C   0  0  0  0  0  0  0  0  0  0  0  0
  -22.2788  -19.8317   23.9143 C   0  0  0  0  0  0  0  0  0  0  0  0
  -29.9637  -27.4827   17.6039 C   0  0  0  0  0  0  0  0  0  0  0  0
  -24.5956   -9.8317   21.4967 C   0  0  0  0  0  0  0  0  0  0  0  0
  -26.9332  -16.1749   23.1744 C   0  0  0  0  0  0  0  0  0  0  0  0
  -25.0728  -17.9069   21.6632 C   0  0  0  0  0  0  0  0  0  0  0  0
  -23.7490  -11.1005   21.4361 C   0  0  0  0  0  0  0  0  0  0  0  0
  -29.5264  -30.7776   18.8801 C   0  0  0  0  0  0  0  0  0  0  0  0
  -24.3078  -12.0659   20.3956 C   0  0  0  0  0  0  0  0  0  0  0  0
  -28.4232  -30.6206   19.9281 C   0  0  0  0  0  0  0  0  0  0  0  0
  -29.2951  -29.8668   17.6764 C   0  0  0  0  0  0  0  0  0  0  0  0
  -28.0012  -28.2848   19.0536 C   0  0  0  0  0  0  0  0  0  0  0  0
  -25.7332  -12.5013   20.7563 C   0  0  1  0  0  0  0  0  0  0  0  0
  -25.5341  -15.7056   22.7876 C   0  0  1  0  0  0  0  0  0  0  0  0
  -28.2206  -29.1424   20.3116 C   0  0  2  0  0  0  0  0  0  0  0  0
  -31.8190  -25.0231   18.4860 C   0  0  0  0  0  0  0  0  0  0  0  0
  -20.3833  -21.0382   25.0318 C   0  0  0  0  0  0  0  0  0  0  0  0
  -21.6122  -16.4174   20.4483 C   0  0  0  0  0  0  0  0  0  0  0  0
  -20.2309  -18.3565   21.2230 C   0  0  0  0  0  0  0  0  0  0  0  0
  -20.3139  -16.2652   22.5803 C   0  0  0  0  0  0  0  0  0  0  0  0
  -26.8127  -20.9574   16.2440 C   0  0  0  0  0  0  0  0  0  0  0  0
  -28.9716  -19.6819   16.5474 C   0  0  0  0  0  0  0  0  0  0  0  0
  -28.7000  -21.2727   14.6593 C   0  0  0  0  0  0  0  0  0  0  0  0
  -24.0342  -20.8233   26.0810 C   0  0  0  0  0  0  0  0  0  0  0  0
  -27.9745  -21.1405   19.2044 C   0  0  0  0  0  0  0  0  0  1  0  0
  -30.5221  -25.0650   17.6472 C   0  0  2  0  0  0  0  0  0  0  0  0
  -22.3351  -17.7827   22.5169 C   0  0  1  0  0  0  0  0  0  0  0  0
  -21.7324  -20.3640   25.2268 C   0  0  2  0  0  0  0  0  0  0  0  0
  -21.1512  -17.2081   21.6889 C   0  0  0  0  0  0  0  0  0  0  0  0
  -28.3525  -21.0408   16.1507 C   0  0  0  0  0  0  0  0  0  0  0  0
  -25.8542  -28.7319   20.8725 N   0  0  0  0  0  0  0  0  0  0  0  0
  -29.2817  -23.2600   18.8126 N   0  0  0  0  0  0  0  0  0  0  0  0
  -29.5264  -23.1158   16.5428 N   0  0  0  0  0  0  0  0  0  0  0  0
  -27.0983  -28.9743   21.3192 N   0  0  0  0  0  0  0  0  0  0  0  0
  -28.8381  -22.0733   17.0323 N   0  0  0  0  0  0  0  0  0  0  0  0
  -24.6135  -16.8171   22.5401 N   0  0  0  0  0  0  0  0  0  0  0  0
  -29.1119  -28.4792   18.1085 N   0  0  0  0  0  0  0  0  0  0  0  0
  -28.3707  -29.2759   23.2942 N   0  0  0  0  0  0  0  0  0  0  0  0
  -24.1887  -28.5712   24.8466 N   0  0  0  0  0  0  0  0  0  0  0  0
  -25.7067  -13.5021   21.8014 N   0  0  0  0  0  0  0  0  0  0  0  0
  -21.9290  -18.5133   23.7126 N   0  0  0  0  0  0  0  0  0  0  0  0
  -29.7256  -26.1954   18.0697 N   0  0  0  0  0  0  0  0  0  0  0  0
  -22.6741  -21.3582   25.8148 N   0  3  0  0  0  0  0  0  0  0  0  0
  -26.3549  -29.0041   25.4620 O   0  0  0  0  0  0  0  0  0  0  0  0
  -25.3755  -15.3732   20.4553 O   0  0  0  0  0  0  0  0  0  0  0  0
  -22.8715  -15.8077   23.7162 O   0  0  0  0  0  0  0  0  0  0  0  0
  -22.9459  -20.5180   23.1433 O   0  0  0  0  0  0  0  0  0  0  0  0
  -30.8726  -27.7233   16.8020 O   0  0  0  0  0  0  0  0  0  0  0  0
  -19.6456  -27.6319   21.7622 O   0  0  0  0  0  0  0  0  0  0  0  0
  -28.9318  -20.3466   19.9042 O   0  0  0  0  0  0  0  0  0  1  0  0
  -16.3428  -30.6593   24.9763 F   0  0  0  0  0  0  0  0  0  0  0  0
  -19.9296  -27.6056   24.5120 F   0  0  0  0  0  0  0  0  0  0  0  0
  1  2  1  0  0  0  0
  1  5  2  0  0  0  0
  2  6  2  0  0  0  0
  3  8  2  0  0  0  0
  3 15  1  0  0  0  0
  4  9  1  0  0  0  0
  4 15  2  0  0  0  0
  5 17  1  0  0  0  0
  6 19  1  0  0  0  0
  7 10  2  0  0  0  0
  7 18  1  0  0  0  0
  8 21  1  0  0  0  0
  9 21  2  0  0  0  0
 10 22  1  0  0  0  0
 11 12  2  0  0  0  0
 11 23  1  0  0  0  0
 12 24  1  0  0  0  0
 13 20  1  0  0  0  0
 13 22  2  0  0  0  0
 14 24  2  0  0  0  0
 14 25  1  0  0  0  0
 15 26  1  0  0  0  0
 16 26  1  0  0  0  0
 16 27  2  0  0  0  0
 16 30  1  0  0  0  0
 17 19  2  0  0  0  0
 17 35  1  0  0  0  0
 18 20  2  0  0  0  0
 18 36  1  0  0  0  0
 19 44  1  0  0  0  0
 20 37  1  0  0  0  0
 21 80  1  0  0  0  0
 22 81  1  0  0  0  0
 23 25  2  0  0  0  0
 23 80  1  0  0  0  0
 24 82  1  0  0  0  0
 25 83  1  0  0  0  0
 26 62  2  0  0  0  0
 27 65  1  0  0  0  0
 27 69  1  0  0  0  0
 28 57  1  0  0  0  0
 28 63  1  0  0  0  0
 28 64  2  0  0  0  0
 29 56  1  0  0  0  0
 29 63  2  0  0  0  0
 29 66  1  0  0  0  0
 30 70  1  0  0  0  0
 30 75  2  0  0  0  0
 31 45  1  0  0  0  0
 31 71  1  0  0  0  0
 31 76  2  0  0  0  0
 32 58  1  0  0  0  0
 32 67  1  0  0  0  0
 32 77  2  0  0  0  0
 33 59  1  0  0  0  0
 33 72  1  0  0  0  0
 33 78  2  0  0  0  0
 34 68  1  0  0  0  0
 34 73  1  0  0  0  0
 34 79  2  0  0  0  0
 35 38  1  0  0  0  0
 36 45  1  0  0  0  0
 37 67  1  0  0  0  0
 38 40  1  0  0  0  0
 39 41  1  0  0  0  0
 39 42  1  0  0  0  0
 40 44  1  0  0  0  0
 41 46  1  0  0  0  0
 42 68  1  0  0  0  0
 43 46  1  0  0  0  0
 43 68  1  0  0  0  0
 44 71  1  0  0  0  0
 45 67  1  0  0  0  0
 46 65  1  0  0  0  0
 47 57  1  0  0  0  0
 48 59  1  0  0  0  0
 49 60  1  0  0  0  0
 50 60  1  0  0  0  0
 51 60  1  0  0  0  0
 52 61  1  0  0  0  0
 53 61  1  0  0  0  0
 54 61  1  0  0  0  0
 55 74  1  0  0  0  0
 56 81  1  0  0  0  0
 57 73  1  0  0  0  0
 58 60  1  0  0  0  0
 58 72  1  0  0  0  0
 59 74  1  0  0  0  0
 61 66  1  0  0  0  0
 62 65  1  0  0  0  0
 64 66  1  0  0  0  0
M  CHG  1  74   1
M  ISO  4  34 100  56 101  73 100  81 101
M  END
> <Batch ID>
0057

> <Smiles>
CNC(C)C(=O)NC(C(=O)N1Cc2cc([101O:1][101CH2:1]c3nc(C(C)[100NH:0][100C:0](=O)N4CCCC(n5nc(-c6ccc(Oc7ccc(F)cc7F)cc6)c(C(N)=O)c5N)C4)nn3C(C)(C)C)ccc2CC1C(=O)NC1CCCc2ccccc21)C(C)(C)C

> <Shape>
0.211

> <Color>
0.069

> <Negative vol penalty>
0.000

$$$$

  -OEChem-04052317483D

 82 90  0     1  0  0  0  0  0999 V2000
  -21.6661  -12.2939   21.2166 C   0  0  0  0  0  0  0  0  0  0  0  0
  -21.7663  -13.6043   21.6730 C   0  0  0  0  0  0  0  0  0  0  0  0
  -23.7117  -30.5327   20.4149 C   0  0  0  0  0  0  0  0  0  0  0  0
  -24.4737  -28.9430   22.0669 C   0  0  0  0  0  0  0  0  0  0  0  0
  -22.8058  -11.6199   20.7800 C   0  0  0  0  0  0  0  0  0  0  0  0
  -23.0067  -14.2411   21.6942 C   0  0  0  0  0  0  0  0  0  0  0  0
  -22.7933  -18.9706   19.8968 C   0  0  0  0  0  0  0  0  0  0  0  0
  -24.9703  -31.1340   20.4128 C   0  0  0  0  0  0  0  0  0  0  0  0
  -25.7324  -29.5442   22.0648 C   0  0  0  0  0  0  0  0  0  0  0  0
  -22.2831  -19.9520   20.7456 C   0  0  0  0  0  0  0  0  0  0  0  0
  -26.7000  -33.2974   22.3499 C   0  0  0  0  0  0  0  0  0  0  0  0
  -26.7519  -34.6907   22.3901 C   0  0  0  0  0  0  0  0  0  0  0  0
  -24.5297  -20.6504   21.2786 C   0  0  0  0  0  0  0  0  0  0  0  0
  -27.9279  -34.7077   20.2796 C   0  0  0  0  0  0  0  0  0  0  0  0
  -20.4068  -24.1649   22.8316 C   0  0  0  0  0  0  0  0  0  0  0  0
  -23.4634  -29.4373   21.2419 C   0  0  0  0  0  0  0  0  0  0  0  0
  -21.7254  -27.7568   20.4278 C   0  0  0  0  0  0  0  0  0  0  0  0
  -24.0592  -12.2521   20.7868 C   0  0  0  0  0  0  0  0  0  0  0  0
  -24.1780  -18.8144   19.7406 C   0  0  0  0  0  0  0  0  0  0  0  0
  -24.1645  -13.5744   21.2585 C   0  0  0  0  0  0  0  0  0  0  0  0
  -25.0549  -19.6680   20.4252 C   0  0  0  0  0  0  0  0  0  0  0  0
  -20.8904  -22.9647   23.3113 C   0  0  0  0  0  0  0  0  0  0  0  0
  -25.9807  -30.6397   21.2378 C   0  0  0  0  0  0  0  0  0  0  0  0
  -23.1514  -20.7901   21.4389 C   0  0  0  0  0  0  0  0  0  0  0  0
  -27.2621  -32.6092   21.2746 C   0  0  0  0  0  0  0  0  0  0  0  0
  -27.3659  -35.3958   21.3549 C   0  0  0  0  0  0  0  0  0  0  0  0
  -27.8760  -33.3143   20.2395 C   0  0  0  0  0  0  0  0  0  0  0  0
  -22.1633  -28.8162   21.2449 C   0  0  0  0  0  0  0  0  0  0  0  0
  -21.0285  -22.8817   24.6818 C   0  0  0  0  0  0  0  0  0  0  0  0
  -20.4266  -27.5373   20.8168 C   0  0  0  0  0  0  0  0  0  0  0  0
  -20.2591  -25.0052   24.9385 C   0  0  0  0  0  0  0  0  0  0  0  0
  -22.4297  -27.0356   19.4082 C   0  0  0  0  0  0  0  0  0  0  0  0
  -26.2514  -16.4765   20.3226 C   0  0  0  0  0  0  0  0  0  0  0  0
  -28.3316  -18.4822   18.8488 C   0  0  0  0  0  0  0  0  0  0  0  0
  -29.1397  -21.6765   17.9599 C   0  0  0  0  0  0  0  0  0  0  0  0
  -17.7418  -29.0070   26.1244 C   0  0  0  0  0  0  0  0  0  0  0  0
  -25.2705  -11.4670   20.3496 C   0  0  0  0  0  0  0  0  0  0  0  0
  -24.7120  -17.7686   18.8006 C   0  0  0  0  0  0  0  0  0  0  0  0
  -26.5494  -19.5547   20.2766 C   0  0  0  0  0  0  0  0  0  0  0  0
  -26.4872  -12.3397   20.0524 C   0  0  0  0  0  0  0  0  0  0  0  0
  -16.6337  -29.7715   22.6763 C   0  0  0  0  0  0  0  0  0  0  0  0
  -26.6929  -13.3650   21.1629 C   0  0  0  0  0  0  0  0  0  0  0  0
  -17.9161  -29.5893   21.8662 C   0  0  0  0  0  0  0  0  0  0  0  0
  -16.9259  -30.1857   24.1153 C   0  0  0  0  0  0  0  0  0  0  0  0
  -19.1390  -29.0872   24.0186 C   0  0  0  0  0  0  0  0  0  0  0  0
  -25.4883  -14.3075   21.2735 C   0  0  1  0  0  0  0  0  0  0  0  0
  -26.1488  -17.3619   19.1131 C   0  0  1  0  0  0  0  0  0  0  0  0
  -18.8814  -28.6246   22.5767 C   0  0  2  0  0  0  0  0  0  0  0  0
  -21.5427  -21.6305   25.3139 C   0  0  0  0  0  0  0  0  0  0  0  0
  -30.9205  -23.0063   16.7946 C   0  0  0  0  0  0  0  0  0  0  0  0
  -30.1312  -18.2140   21.2981 C   0  0  0  0  0  0  0  0  0  0  0  0
  -31.3776  -20.2403   20.5177 C   0  0  0  0  0  0  0  0  0  0  0  0
  -31.3385  -18.1825   19.1082 C   0  0  0  0  0  0  0  0  0  0  0  0
  -18.0249  -27.4133   27.9843 C   0  0  0  0  0  0  0  0  0  0  0  0
  -27.2415  -22.6315   15.8998 C   0  0  0  0  0  0  0  0  0  0  0  0
  -21.2364  -21.8392   22.3814 C   0  0  0  0  0  0  0  0  0  1  0  0
  -19.9079  -26.1382   25.8425 C   0  0  0  0  0  0  0  0  0  0  0  0
  -18.4602  -26.6202   25.6893 C   0  0  0  0  0  0  0  0  0  0  0  0
  -29.2488  -19.5925   19.3014 C   0  0  1  0  0  0  0  0  0  0  0  0
  -29.5993  -22.2691   16.6400 C   0  0  2  0  0  0  0  0  0  0  0  0
  -30.4960  -19.0585   20.0609 C   0  0  0  0  0  0  0  0  0  0  0  0
  -20.0799  -25.2101   23.6197 N   0  0  0  0  0  0  0  0  0  0  0  0
  -21.2192  -29.2403   22.0893 N   0  0  0  0  0  0  0  0  0  0  0  0
  -20.7215  -23.8864   25.5284 N   0  0  0  0  0  0  0  0  0  0  0  0
  -20.1751  -28.4435   21.8047 N   0  0  0  0  0  0  0  0  0  0  0  0
  -27.0228  -18.5125   19.3508 N   0  0  0  0  0  0  0  0  0  0  0  0
  -17.8790  -29.2767   24.7528 N   0  0  0  0  0  0  0  0  0  0  0  0
  -19.4864  -26.6595   20.4069 N   0  0  0  0  0  0  0  0  0  0  0  0
  -23.7580  -27.3900   19.1355 N   0  0  0  0  0  0  0  0  0  0  0  0
  -25.5278  -15.3034   20.2241 N   0  0  0  0  0  0  0  0  0  0  0  0
  -29.5638  -20.3730   18.1097 N   0  0  0  0  0  0  0  0  0  0  0  0
  -18.1578  -27.7442   26.5727 N   0  0  0  0  0  0  0  0  0  0  0  0
  -28.5837  -23.2284   16.1213 N   0  3  0  0  0  0  0  0  0  0  0  0
  -21.8917  -26.1154   18.7470 O   0  0  0  0  0  0  0  0  0  0  0  0
  -26.9376  -16.8306   21.2742 O   0  0  0  0  0  0  0  0  0  0  0  0
  -28.7585  -17.6237   18.0726 O   0  0  0  0  0  0  0  0  0  0  0  0
  -28.4744  -22.3080   18.7778 O   0  0  0  0  0  0  0  0  0  0  0  0
  -17.2652  -29.8436   26.9022 O   0  0  0  0  0  0  0  0  0  0  0  0
  -27.2090  -31.2259   21.2358 O   0  0  0  0  0  0  0  0  0  0  0  0
  -22.6560  -21.7484   22.2685 O   0  0  0  0  0  0  0  0  0  1  0  0
  -27.4143  -36.7339   21.3929 F   0  0  0  0  0  0  0  0  0  0  0  0
  -28.4167  -32.6588   19.2033 F   0  0  0  0  0  0  0  0  0  0  0  0
  1  2  1  0  0  0  0
  1  5  2  0  0  0  0
  2  6  2  0  0  0  0
  3  8  2  0  0  0  0
  3 16  1  0  0  0  0
  4  9  1  0  0  0  0
  4 16  2  0  0  0  0
  5 18  1  0  0  0  0
  6 20  1  0  0  0  0
  7 10  2  0  0  0  0
  7 19  1  0  0  0  0
  8 23  1  0  0  0  0
  9 23  2  0  0  0  0
 10 24  1  0  0  0  0
 11 12  2  0  0  0  0
 11 25  1  0  0  0  0
 12 26  1  0  0  0  0
 13 21  1  0  0  0  0
 13 24  2  0  0  0  0
 14 26  2  0  0  0  0
 14 27  1  0  0  0  0
 15 22  1  0  0  0  0
 15 62  2  0  0  0  0
 16 28  1  0  0  0  0
 17 28  1  0  0  0  0
 17 30  2  0  0  0  0
 17 32  1  0  0  0  0
 18 20  2  0  0  0  0
 18 37  1  0  0  0  0
 19 21  2  0  0  0  0
 19 38  1  0  0  0  0
 20 46  1  0  0  0  0
 21 39  1  0  0  0  0
 22 29  2  0  0  0  0
 22 56  1  0  0  0  0
 23 79  1  0  0  0  0
 24 80  1  0  0  0  0
 25 27  2  0  0  0  0
 25 79  1  0  0  0  0
 26 81  1  0  0  0  0
 27 82  1  0  0  0  0
 28 63  2  0  0  0  0
 29 49  1  0  0  0  0
 29 64  1  0  0  0  0
 30 65  1  0  0  0  0
 30 68  1  0  0  0  0
 31 57  1  0  0  0  0
 31 62  1  0  0  0  0
 31 64  2  0  0  0  0
 32 69  1  0  0  0  0
 32 74  2  0  0  0  0
 33 47  1  0  0  0  0
 33 70  1  0  0  0  0
 33 75  2  0  0  0  0
 34 59  1  0  0  0  0
 34 66  1  0  0  0  0
 34 76  2  0  0  0  0
 35 60  1  0  0  0  0
 35 71  1  0  0  0  0
 35 77  2  0  0  0  0
 36 67  1  0  0  0  0
 36 72  1  0  0  0  0
 36 78  2  0  0  0  0
 37 40  1  0  0  0  0
 38 47  1  0  0  0  0
 39 66  1  0  0  0  0
 40 42  1  0  0  0  0
 41 43  1  0  0  0  0
 41 44  1  0  0  0  0
 42 46  1  0  0  0  0
 43 48  1  0  0  0  0
 44 67  1  0  0  0  0
 45 48  1  0  0  0  0
 45 67  1  0  0  0  0
 46 70  1  0  0  0  0
 47 66  1  0  0  0  0
 48 65  1  0  0  0  0
 50 60  1  0  0  0  0
 51 61  1  0  0  0  0
 52 61  1  0  0  0  0
 53 61  1  0  0  0  0
 54 72  1  0  0  0  0
 55 73  1  0  0  0  0
 56 80  1  0  0  0  0
 57 58  1  0  0  0  0
 58 72  1  0  0  0  0
 59 61  1  0  0  0  0
 59 71  1  0  0  0  0
 60 73  1  0  0  0  0
 63 65  1  0  0  0  0
M  CHG  1  73   1
M  ISO  4  36 100  56 101  72 100  80 101
M  END
> <Batch ID>
0057

> <Smiles>
CNC(C)C(=O)NC(C(=O)N1Cc2cc([101O:1][101CH2:1]c3cnc(CC[100N:0](C)[100C:0](=O)N4CCCC(n5nc(-c6ccc(Oc7ccc(F)cc7F)cc6)c(C(N)=O)c5N)C4)nc3C)ccc2CC1C(=O)NC1CCCc2ccccc21)C(C)(C)C

> <Shape>
0.215

> <Color>
0.084

> <Negative vol penalty>
0.000

$$$$

  -OEChem-04052317483D

 80 88  0     1  0  0  0  0  0999 V2000
  -24.8557  -31.7605   21.2819 C   0  0  0  0  0  0  0  0  0  0  0  0
  -25.9368  -30.9194   21.5254 C   0  0  0  0  0  0  0  0  0  0  0  0
  -21.7700  -17.8817   21.0965 C   0  0  0  0  0  0  0  0  0  0  0  0
  -23.8230  -18.9323   20.3764 C   0  0  0  0  0  0  0  0  0  0  0  0
  -23.6544  -31.2314   20.8119 C   0  0  0  0  0  0  0  0  0  0  0  0
  -25.8169  -29.5486   21.3001 C   0  0  0  0  0  0  0  0  0  0  0  0
  -29.6613  -23.8774   19.2085 C   0  0  0  0  0  0  0  0  0  0  0  0
  -21.4092  -19.0485   21.7703 C   0  0  0  0  0  0  0  0  0  0  0  0
  -23.4621  -20.0992   21.0501 C   0  0  0  0  0  0  0  0  0  0  0  0
  -29.9809  -22.5831   19.6164 C   0  0  0  0  0  0  0  0  0  0  0  0
  -19.7801  -21.8718   23.3797 C   0  0  0  0  0  0  0  0  0  0  0  0
  -18.4688  -22.3248   23.2356 C   0  0  0  0  0  0  0  0  0  0  0  0
  -27.8823  -21.7916   18.7282 C   0  0  0  0  0  0  0  0  0  0  0  0
  -18.8009  -22.5274   20.8511 C   0  0  0  0  0  0  0  0  0  0  0  0
  -28.2190  -16.8837   20.5104 C   0  0  0  0  0  0  0  0  0  0  0  0
  -30.3846  -16.4880   20.6108 C   0  0  0  0  0  0  0  0  0  0  0  0
  -22.9769  -17.8236   20.3996 C   0  0  0  0  0  0  0  0  0  0  0  0
  -23.0553  -16.2809   18.3694 C   0  0  0  0  0  0  0  0  0  0  0  0
  -23.5228  -29.8546   20.5714 C   0  0  0  0  0  0  0  0  0  0  0  0
  -28.4430  -24.1408   18.5660 C   0  0  0  0  0  0  0  0  0  0  0  0
  -24.6123  -29.0004   20.8276 C   0  0  0  0  0  0  0  0  0  0  0  0
  -27.5508  -23.0896   18.3109 C   0  0  0  0  0  0  0  0  0  0  0  0
  -22.2552  -20.1573   21.7471 C   0  0  0  0  0  0  0  0  0  0  0  0
  -29.0901  -21.5404   19.3789 C   0  0  0  0  0  0  0  0  0  0  0  0
  -20.6019  -21.7467   22.2596 C   0  0  0  0  0  0  0  0  0  0  0  0
  -17.9792  -22.6526   21.9713 C   0  0  0  0  0  0  0  0  0  0  0  0
  -20.1123  -22.0745   20.9953 C   0  0  0  0  0  0  0  0  0  0  0  0
  -23.3505  -16.6184   19.7039 C   0  0  0  0  0  0  0  0  0  0  0  0
  -28.9474  -17.9498   20.0380 C   0  0  0  0  0  0  0  0  0  0  0  0
  -23.6272  -15.0447   18.1933 C   0  0  0  0  0  0  0  0  0  0  0  0
  -22.3291  -17.0190   17.3776 C   0  0  0  0  0  0  0  0  0  0  0  0
  -25.8995  -25.9292   19.2265 C   0  0  0  0  0  0  0  0  0  0  0  0
  -24.9789  -25.0294   16.2490 C   0  0  0  0  0  0  0  0  0  0  0  0
  -28.1838  -12.2969   20.9860 C   0  0  0  0  0  0  0  0  0  0  0  0
  -25.2069  -22.7640   13.7068 C   0  0  0  0  0  0  0  0  0  0  0  0
  -22.1896  -29.3228   20.1083 C   0  0  0  0  0  0  0  0  0  0  0  0
  -28.1250  -25.5379   18.1083 C   0  0  0  0  0  0  0  0  0  0  0  0
  -26.2389  -23.3163   17.6067 C   0  0  0  0  0  0  0  0  0  0  0  0
  -22.2626  -27.9084   19.5388 C   0  0  0  0  0  0  0  0  0  0  0  0
  -24.8324  -11.0922   20.5899 C   0  0  0  0  0  0  0  0  0  0  0  0
  -23.0858  -27.0066   20.4530 C   0  0  0  0  0  0  0  0  0  0  0  0
  -24.0407  -12.3471   20.2244 C   0  0  0  0  0  0  0  0  0  0  0  0
  -25.9535  -11.4066   21.5755 C   0  0  0  0  0  0  0  0  0  0  0  0
  -26.0979  -13.7331   20.7460 C   0  0  0  0  0  0  0  0  0  0  0  0
  -24.5290  -27.5112   20.5718 C   0  0  1  0  0  0  0  0  0  0  0  0
  -26.6303  -25.7799   17.9221 C   0  0  1  0  0  0  0  0  0  0  0  0
  -24.9748  -13.4651   19.7285 C   0  0  2  0  0  0  0  0  0  0  0  0
  -24.3072  -22.2776   11.4152 C   0  0  0  0  0  0  0  0  0  0  0  0
  -28.5160  -13.7999   19.0459 C   0  0  0  0  0  0  0  0  0  0  0  0
  -30.4591  -12.9932   20.3957 C   0  0  0  0  0  0  0  0  0  0  0  0
  -22.3561  -24.0772   17.4836 C   0  0  0  0  0  0  0  0  0  0  0  0
  -21.9228  -22.7768   15.3885 C   0  0  0  0  0  0  0  0  0  0  0  0
  -22.1094  -25.2626   15.2953 C   0  0  0  0  0  0  0  0  0  0  0  0
  -27.8996  -22.9238   12.4891 C   0  0  0  0  0  0  0  0  0  0  0  0
  -28.4403  -19.2560   19.5011 C   0  0  0  0  0  0  0  0  0  1  0  0
  -28.8901  -14.6532   21.4365 C   0  0  0  0  0  0  0  0  0  0  0  0
  -24.1894  -23.8769   15.6767 C   0  0  1  0  0  0  0  0  0  0  0  0
  -25.4171  -22.9429   12.2140 C   0  0  2  0  0  0  0  0  0  0  0  0
  -28.9943  -13.4554   20.4614 C   0  0  0  0  0  0  0  0  0  0  0  0
  -22.6682  -23.9941   15.9760 C   0  0  0  0  0  0  0  0  0  0  0  0
  -30.2949  -17.6972   20.1029 N   0  0  0  0  0  0  0  0  0  0  0  0
  -24.0550  -15.6728   20.3311 N   0  0  0  0  0  0  0  0  0  0  0  0
  -29.1533  -15.9549   20.8731 N   0  0  0  0  0  0  0  0  0  0  0  0
  -24.2072  -14.7289   19.3866 N   0  0  0  0  0  0  0  0  0  0  0  0
  -25.9706  -24.7008   17.1842 N   0  0  0  0  0  0  0  0  0  0  0  0
  -26.8051  -12.4886   21.0782 N   0  0  0  0  0  0  0  0  0  0  0  0
  -23.6854  -14.2077   17.1357 N   0  0  0  0  0  0  0  0  0  0  0  0
  -21.8087  -18.2729   17.7259 N   0  0  0  0  0  0  0  0  0  0  0  0
  -25.2870  -27.1569   19.3909 N   0  0  0  0  0  0  0  0  0  0  0  0
  -24.5165  -23.8238   14.2559 N   0  0  0  0  0  0  0  0  0  0  0  0
  -26.7179  -22.3457   11.7989 N   0  3  0  0  0  0  0  0  0  0  0  0
  -22.1331  -16.5725   16.2219 O   0  0  0  0  0  0  0  0  0  0  0  0
  -25.8907  -24.9988   20.0240 O   0  0  0  0  0  0  0  0  0  0  0  0
  -24.7299  -26.1781   15.8747 O   0  0  0  0  0  0  0  0  0  0  0  0
  -28.7603  -11.2526   21.3011 O   0  0  0  0  0  0  0  0  0  0  0  0
  -25.6112  -21.7807   14.3233 O   0  0  0  0  0  0  0  0  0  0  0  0
  -21.9033  -21.2961   22.4042 O   0  0  0  0  0  0  0  0  0  0  0  0
  -29.3992  -20.2763   19.7766 O   0  0  0  0  0  0  0  0  0  1  0  0
  -16.7194  -23.0861   21.8328 F   0  0  0  0  0  0  0  0  0  0  0  0
  -20.8967  -21.9552   19.9153 F   0  0  0  0  0  0  0  0  0  0  0  0
  1  2  1  0  0  0  0
  1  5  2  0  0  0  0
  2  6  2  0  0  0  0
  3  8  2  0  0  0  0
  3 17  1  0  0  0  0
  4  9  1  0  0  0  0
  4 17  2  0  0  0  0
  5 19  1  0  0  0  0
  6 21  1  0  0  0  0
  7 10  2  0  0  0  0
  7 20  1  0  0  0  0
  8 23  1  0  0  0  0
  9 23  2  0  0  0  0
 10 24  1  0  0  0  0
 11 12  2  0  0  0  0
 11 25  1  0  0  0  0
 12 26  1  0  0  0  0
 13 22  1  0  0  0  0
 13 24  2  0  0  0  0
 14 26  2  0  0  0  0
 14 27  1  0  0  0  0
 15 29  2  0  0  0  0
 15 63  1  0  0  0  0
 16 61  2  0  0  0  0
 16 63  1  0  0  0  0
 17 28  1  0  0  0  0
 18 28  1  0  0  0  0
 18 30  2  0  0  0  0
 18 31  1  0  0  0  0
 19 21  2  0  0  0  0
 19 36  1  0  0  0  0
 20 22  2  0  0  0  0
 20 37  1  0  0  0  0
 21 45  1  0  0  0  0
 22 38  1  0  0  0  0
 23 77  1  0  0  0  0
 24 78  1  0  0  0  0
 25 27  2  0  0  0  0
 25 77  1  0  0  0  0
 26 79  1  0  0  0  0
 27 80  1  0  0  0  0
 28 62  2  0  0  0  0
 29 55  1  0  0  0  0
 29 61  1  0  0  0  0
 30 64  1  0  0  0  0
 30 67  1  0  0  0  0
 31 68  1  0  0  0  0
 31 72  2  0  0  0  0
 32 46  1  0  0  0  0
 32 69  1  0  0  0  0
 32 73  2  0  0  0  0
 33 57  1  0  0  0  0
 33 65  1  0  0  0  0
 33 74  2  0  0  0  0
 34 59  1  0  0  0  0
 34 66  1  0  0  0  0
 34 75  2  0  0  0  0
 35 58  1  0  0  0  0
 35 70  1  0  0  0  0
 35 76  2  0  0  0  0
 36 39  1  0  0  0  0
 37 46  1  0  0  0  0
 38 65  1  0  0  0  0
 39 41  1  0  0  0  0
 40 42  1  0  0  0  0
 40 43  1  0  0  0  0
 41 45  1  0  0  0  0
 42 47  1  0  0  0  0
 43 66  1  0  0  0  0
 44 47  1  0  0  0  0
 44 66  1  0  0  0  0
 45 69  1  0  0  0  0
 46 65  1  0  0  0  0
 47 64  1  0  0  0  0
 48 58  1  0  0  0  0
 49 59  1  0  0  0  0
 50 59  1  0  0  0  0
 51 60  1  0  0  0  0
 52 60  1  0  0  0  0
 53 60  1  0  0  0  0
 54 71  1  0  0  0  0
 55 78  1  0  0  0  0
 56 59  1  0  0  0  0
 56 63  1  0  0  0  0
 57 60  1  0  0  0  0
 57 70  1  0  0  0  0
 58 71  1  0  0  0  0
 62 64  1  0  0  0  0
M  CHG  1  71   1
M  ISO  4  34 100  55 101  59 100  78 101
M  END
> <Batch ID>
0057

> <Smiles>
CNC(C)C(=O)NC(C(=O)N1Cc2cc([101O:1][101CH2:1]c3cn(C[100C:0](C)(C)[100C:0](=O)N4CCCC(n5nc(-c6ccc(Oc7ccc(F)cc7F)cc6)c(C(N)=O)c5N)C4)cn3)ccc2CC1C(=O)NC1CCCc2ccccc21)C(C)(C)C

> <Shape>
0.185

> <Color>
0.075

> <Negative vol penalty>
0.000

$$$$

  -OEChem-04052317483D

 82 90  0     1  0  0  0  0  0999 V2000
  -24.2306  -34.1855   14.7958 C   0  0  0  0  0  0  0  0  0  0  0  0
  -24.9830  -33.1281   15.2969 C   0  0  0  0  0  0  0  0  0  0  0  0
  -25.6914  -13.7768   21.5805 C   0  0  0  0  0  0  0  0  0  0  0  0
  -26.0311  -13.0539   19.3004 C   0  0  0  0  0  0  0  0  0  0  0  0
  -23.8505  -35.2297   15.6379 C   0  0  0  0  0  0  0  0  0  0  0  0
  -25.3567  -33.1147   16.6402 C   0  0  0  0  0  0  0  0  0  0  0  0
  -24.6711  -28.5871   18.8026 C   0  0  0  0  0  0  0  0  0  0  0  0
  -24.7757  -12.7423   21.7721 C   0  0  0  0  0  0  0  0  0  0  0  0
  -25.1154  -12.0193   19.4920 C   0  0  0  0  0  0  0  0  0  0  0  0
  -25.6224  -27.6034   18.5356 C   0  0  0  0  0  0  0  0  0  0  0  0
  -22.6190  -10.0729   22.9713 C   0  0  0  0  0  0  0  0  0  0  0  0
  -22.7167   -9.3300   24.1478 C   0  0  0  0  0  0  0  0  0  0  0  0
  -26.6704  -28.0483   20.6624 C   0  0  0  0  0  0  0  0  0  0  0  0
  -24.9619   -8.6715   23.5456 C   0  0  0  0  0  0  0  0  0  0  0  0
  -28.6211  -23.6499   18.8172 C   0  0  0  0  0  0  0  0  0  0  0  0
  -30.3743  -23.8184   16.8109 C   0  0  0  0  0  0  0  0  0  0  0  0
  -26.3190  -13.9327   20.3446 C   0  0  0  0  0  0  0  0  0  0  0  0
  -28.6544  -14.9591   20.3661 C   0  0  0  0  0  0  0  0  0  0  0  0
  -24.2115  -35.2244   16.9945 C   0  0  0  0  0  0  0  0  0  0  0  0
  -24.7189  -29.3175   19.9986 C   0  0  0  0  0  0  0  0  0  0  0  0
  -24.9822  -34.1605   17.5010 C   0  0  0  0  0  0  0  0  0  0  0  0
  -25.7170  -29.0390   20.9432 C   0  0  0  0  0  0  0  0  0  0  0  0
  -24.4877  -11.8634   20.7279 C   0  0  0  0  0  0  0  0  0  0  0  0
  -26.6239  -27.3359   19.4643 C   0  0  0  0  0  0  0  0  0  0  0  0
  -23.6927  -10.1150   22.0819 C   0  0  0  0  0  0  0  0  0  0  0  0
  -23.8881   -8.6294   24.4350 C   0  0  0  0  0  0  0  0  0  0  0  0
  -24.8642   -9.4144   22.3691 C   0  0  0  0  0  0  0  0  0  0  0  0
  -27.2646  -15.0016   20.1458 C   0  0  0  0  0  0  0  0  0  0  0  0
  -28.5335  -24.6549   17.8792 C   0  0  0  0  0  0  0  0  0  0  0  0
  -30.4625  -22.8139   17.7493 C   0  0  0  0  0  0  0  0  0  0  0  0
  -29.0936  -16.2168   20.0319 C   0  0  0  0  0  0  0  0  0  0  0  0
  -29.4749  -13.8793   20.8312 C   0  0  0  0  0  0  0  0  0  0  0  0
  -25.0949  -32.3856   20.7398 C   0  0  0  0  0  0  0  0  0  0  0  0
  -24.4869  -31.3315   23.7467 C   0  0  0  0  0  0  0  0  0  0  0  0
  -24.4959  -28.7378   25.9648 C   0  0  0  0  0  0  0  0  0  0  0  0
  -28.8540  -20.3914   16.1806 C   0  0  0  0  0  0  0  0  0  0  0  0
  -23.8177  -36.3987   17.8551 C   0  0  0  0  0  0  0  0  0  0  0  0
  -23.6695  -30.3569   20.2833 C   0  0  0  0  0  0  0  0  0  0  0  0
  -25.8002  -29.7809   22.2513 C   0  0  0  0  0  0  0  0  0  0  0  0
  -23.9356  -36.1235   19.3520 C   0  0  0  0  0  0  0  0  0  0  0  0
  -26.5428  -20.4671   19.0710 C   0  0  0  0  0  0  0  0  0  0  0  0
  -25.2683  -35.4520   19.6679 C   0  0  0  0  0  0  0  0  0  0  0  0
  -26.5921  -19.0257   19.5748 C   0  0  0  0  0  0  0  0  0  0  0  0
  -26.8233  -20.5546   17.5739 C   0  0  0  0  0  0  0  0  0  0  0  0
  -28.1498  -18.4699   17.6655 C   0  0  0  0  0  0  0  0  0  0  0  0
  -25.3858  -34.0978   18.9581 C   0  0  1  0  0  0  0  0  0  0  0  0
  -24.1186  -31.3945   21.3075 C   0  0  1  0  0  0  0  0  0  0  0  0
  -27.9173  -18.3513   19.1792 C   0  0  2  0  0  0  0  0  0  0  0  0
  -32.4874  -21.8481   18.8855 C   0  0  0  0  0  0  0  0  0  0  0  0
  -23.9800  -28.1916   28.3591 C   0  0  0  0  0  0  0  0  0  0  0  0
  -27.0783  -32.6898   24.6124 C   0  0  0  0  0  0  0  0  0  0  0  0
  -26.9998  -31.3405   26.7199 C   0  0  0  0  0  0  0  0  0  0  0  0
  -25.1737  -32.9617   26.2102 C   0  0  0  0  0  0  0  0  0  0  0  0
  -31.0199  -20.0956   15.0400 C   0  0  0  0  0  0  0  0  0  0  0  0
  -22.4175  -26.7782   25.1910 C   0  0  0  0  0  0  0  0  0  0  0  0
  -27.4440  -25.6831   17.9638 C   0  0  0  0  0  0  0  0  0  1  0  0
  -31.0162  -20.3468   17.4941 C   0  0  0  0  0  0  0  0  0  0  0  0
  -31.5432  -21.7934   17.6651 C   0  0  1  0  0  0  0  0  0  0  0  0
  -25.3276  -30.8123   24.8880 C   0  0  1  0  0  0  0  0  0  0  0  0
  -23.4419  -28.2407   26.9375 C   0  0  2  0  0  0  0  0  0  0  0  0
  -26.1447  -31.9383   25.5823 C   0  0  0  0  0  0  0  0  0  0  0  0
  -29.4082  -24.7570   16.8590 N   0  0  0  0  0  0  0  0  0  0  0  0
  -29.5874  -22.7116   18.7693 N   0  0  0  0  0  0  0  0  0  0  0  0
  -26.8484  -16.1921   19.7058 N   0  0  0  0  0  0  0  0  0  0  0  0
  -27.9834  -16.9093   19.6471 N   0  0  0  0  0  0  0  0  0  0  0  0
  -24.7551  -30.7921   22.4806 N   0  0  0  0  0  0  0  0  0  0  0  0
  -28.0663  -19.8687   17.2194 N   0  0  0  0  0  0  0  0  0  0  0  0
  -30.3173  -16.7869   20.0327 N   0  0  0  0  0  0  0  0  0  0  0  0
  -28.8619  -12.6546   21.1290 N   0  0  0  0  0  0  0  0  0  0  0  0
  -24.6122  -33.0930   19.6553 N   0  0  0  0  0  0  0  0  0  0  0  0
  -24.4150  -30.1014   25.7769 N   0  0  0  0  0  0  0  0  0  0  0  0
  -30.2400  -20.1907   16.2658 N   0  0  0  0  0  0  0  0  0  0  0  0
  -22.9914  -26.8717   26.5581 N   0  3  0  0  0  0  0  0  0  0  0  0
  -30.7126  -14.0019   20.9940 O   0  0  0  0  0  0  0  0  0  0  0  0
  -26.2036  -32.5011   21.2490 O   0  0  0  0  0  0  0  0  0  0  0  0
  -23.6192  -32.1790   23.9715 O   0  0  0  0  0  0  0  0  0  0  0  0
  -25.3121  -27.9917   25.4283 O   0  0  0  0  0  0  0  0  0  0  0  0
  -28.3481  -21.0108   15.2359 O   0  0  0  0  0  0  0  0  0  0  0  0
  -23.5945  -10.8536   20.9146 O   0  0  0  0  0  0  0  0  0  0  0  0
  -27.5540  -26.3767   19.2060 O   0  0  0  0  0  0  0  0  0  1  0  0
  -23.9824   -7.9173   25.5656 F   0  0  0  0  0  0  0  0  0  0  0  0
  -25.8994   -9.4520   21.5190 F   0  0  0  0  0  0  0  0  0  0  0  0
  1  2  1  0  0  0  0
  1  5  2  0  0  0  0
  2  6  2  0  0  0  0
  3  8  2  0  0  0  0
  3 17  1  0  0  0  0
  4  9  1  0  0  0  0
  4 17  2  0  0  0  0
  5 19  1  0  0  0  0
  6 21  1  0  0  0  0
  7 10  2  0  0  0  0
  7 20  1  0  0  0  0
  8 23  1  0  0  0  0
  9 23  2  0  0  0  0
 10 24  1  0  0  0  0
 11 12  2  0  0  0  0
 11 25  1  0  0  0  0
 12 26  1  0  0  0  0
 13 22  1  0  0  0  0
 13 24  2  0  0  0  0
 14 26  2  0  0  0  0
 14 27  1  0  0  0  0
 15 29  1  0  0  0  0
 15 63  2  0  0  0  0
 16 30  2  0  0  0  0
 16 62  1  0  0  0  0
 17 28  1  0  0  0  0
 18 28  1  0  0  0  0
 18 31  2  0  0  0  0
 18 32  1  0  0  0  0
 19 21  2  0  0  0  0
 19 37  1  0  0  0  0
 20 22  2  0  0  0  0
 20 38  1  0  0  0  0
 21 46  1  0  0  0  0
 22 39  1  0  0  0  0
 23 79  1  0  0  0  0
 24 80  1  0  0  0  0
 25 27  2  0  0  0  0
 25 79  1  0  0  0  0
 26 81  1  0  0  0  0
 27 82  1  0  0  0  0
 28 64  2  0  0  0  0
 29 56  1  0  0  0  0
 29 62  2  0  0  0  0
 30 58  1  0  0  0  0
 30 63  1  0  0  0  0
 31 65  1  0  0  0  0
 31 68  1  0  0  0  0
 32 69  1  0  0  0  0
 32 74  2  0  0  0  0
 33 47  1  0  0  0  0
 33 70  1  0  0  0  0
 33 75  2  0  0  0  0
 34 59  1  0  0  0  0
 34 66  1  0  0  0  0
 34 76  2  0  0  0  0
 35 60  1  0  0  0  0
 35 71  1  0  0  0  0
 35 77  2  0  0  0  0
 36 67  1  0  0  0  0
 36 72  1  0  0  0  0
 36 78  2  0  0  0  0
 37 40  1  0  0  0  0
 38 47  1  0  0  0  0
 39 66  1  0  0  0  0
 40 42  1  0  0  0  0
 41 43  1  0  0  0  0
 41 44  1  0  0  0  0
 42 46  1  0  0  0  0
 43 48  1  0  0  0  0
 44 67  1  0  0  0  0
 45 48  1  0  0  0  0
 45 67  1  0  0  0  0
 46 70  1  0  0  0  0
 47 66  1  0  0  0  0
 48 65  1  0  0  0  0
 49 58  1  0  0  0  0
 50 60  1  0  0  0  0
 51 61  1  0  0  0  0
 52 61  1  0  0  0  0
 53 61  1  0  0  0  0
 54 72  1  0  0  0  0
 55 73  1  0  0  0  0
 56 80  1  0  0  0  0
 57 58  1  0  0  0  0
 57 72  1  0  0  0  0
 59 61  1  0  0  0  0
 59 71  1  0  0  0  0
 60 73  1  0  0  0  0
 64 65  1  0  0  0  0
M  CHG  1  73   1
M  ISO  4  36 100  56 101  72 100  80 101
M  END
> <Batch ID>
0057

> <Smiles>
CNC(C)C(=O)NC(C(=O)N1Cc2cc([101O:1][101CH2:1]c3cnc(C(C)C[100N:0](C)[100C:0](=O)N4CCCC(n5nc(-c6ccc(Oc7ccc(F)cc7F)cc6)c(C(N)=O)c5N)C4)cn3)ccc2CC1C(=O)NC1CCCc2ccccc21)C(C)(C)C

> <Shape>
0.242

> <Color>
0.107

> <Negative vol penalty>
0.000

$$$$

  -OEChem-04052317483D

 84 92  0     1  0  0  0  0  0999 V2000
  -13.1010  -18.5237   22.5078 C   0  0  0  0  0  0  0  0  0  0  0  0
  -14.2615  -17.7599   22.5797 C   0  0  0  0  0  0  0  0  0  0  0  0
  -27.4485  -23.5449   20.6461 C   0  0  0  0  0  0  0  0  0  0  0  0
  -28.7958  -23.4913   18.6414 C   0  0  0  0  0  0  0  0  0  0  0  0
  -13.1335  -19.7849   21.9143 C   0  0  0  0  0  0  0  0  0  0  0  0
  -15.4551  -18.2564   22.0571 C   0  0  0  0  0  0  0  0  0  0  0  0
  -21.0999  -17.3264   24.2428 C   0  0  0  0  0  0  0  0  0  0  0  0
  -27.5689  -24.9338   20.6899 C   0  0  0  0  0  0  0  0  0  0  0  0
  -28.9162  -24.8802   18.6852 C   0  0  0  0  0  0  0  0  0  0  0  0
  -22.1122  -16.4394   23.8791 C   0  0  0  0  0  0  0  0  0  0  0  0
  -26.1828  -27.6042   19.1470 C   0  0  0  0  0  0  0  0  0  0  0  0
  -25.0303  -28.3470   19.4033 C   0  0  0  0  0  0  0  0  0  0  0  0
  -23.1192  -18.1567   22.5167 C   0  0  0  0  0  0  0  0  0  0  0  0
  -26.0654  -29.2704   21.3814 C   0  0  0  0  0  0  0  0  0  0  0  0
  -27.0142  -15.0202   22.4287 C   0  0  0  0  0  0  0  0  0  0  0  0
  -28.0620  -22.8236   19.6219 C   0  0  0  0  0  0  0  0  0  0  0  0
  -26.9390  -20.6418   18.9245 C   0  0  0  0  0  0  0  0  0  0  0  0
  -14.3303  -20.3011   21.3927 C   0  0  0  0  0  0  0  0  0  0  0  0
  -21.0836  -18.6340   23.7367 C   0  0  0  0  0  0  0  0  0  0  0  0
  -15.5034  -19.5251   21.4548 C   0  0  0  0  0  0  0  0  0  0  0  0
  -22.1070  -19.0591   22.8775 C   0  0  0  0  0  0  0  0  0  0  0  0
  -28.3027  -25.6015   19.7094 C   0  0  0  0  0  0  0  0  0  0  0  0
  -23.1205  -16.8536   23.0137 C   0  0  0  0  0  0  0  0  0  0  0  0
  -27.2765  -27.6944   20.0080 C   0  0  0  0  0  0  0  0  0  0  0  0
  -24.9716  -29.1801   20.5205 C   0  0  0  0  0  0  0  0  0  0  0  0
  -27.2179  -28.5275   21.1251 C   0  0  0  0  0  0  0  0  0  0  0  0
  -27.9385  -21.3887   19.5764 C   0  0  0  0  0  0  0  0  0  0  0  0
  -27.8711  -13.9979   22.0749 C   0  0  0  0  0  0  0  0  0  0  0  0
  -26.0868  -15.3797   21.4723 C   0  0  0  0  0  0  0  0  0  0  0  0
  -27.2676  -19.3327   19.1793 C   0  0  0  0  0  0  0  0  0  0  0  0
  -26.8850  -13.8095   20.0355 C   0  0  0  0  0  0  0  0  0  0  0  0
  -25.8143  -21.0910   18.1572 C   0  0  0  0  0  0  0  0  0  0  0  0
  -19.0822  -20.3141   21.9268 C   0  0  0  0  0  0  0  0  0  0  0  0
  -21.1182  -22.7443   22.6131 C   0  0  0  0  0  0  0  0  0  0  0  0
  -24.2531  -23.7229   23.5414 C   0  0  0  0  0  0  0  0  0  0  0  0
  -31.0501  -15.2446   19.5331 C   0  0  0  0  0  0  0  0  0  0  0  0
  -14.3060  -21.6498   20.7182 C   0  0  0  0  0  0  0  0  0  0  0  0
  -19.9994  -19.5868   24.1597 C   0  0  0  0  0  0  0  0  0  0  0  0
  -22.1464  -20.4587   22.3225 C   0  0  0  0  0  0  0  0  0  0  0  0
  -15.6923  -22.2587   20.5238 C   0  0  0  0  0  0  0  0  0  0  0  0
  -30.6483  -17.3492   22.3767 C   0  0  0  0  0  0  0  0  0  0  0  0
  -16.6566  -21.2210   19.9581 C   0  0  0  0  0  0  0  0  0  0  0  0
  -29.8308  -18.5284   21.8464 C   0  0  0  0  0  0  0  0  0  0  0  0
  -31.6415  -16.8375   21.3357 C   0  0  0  0  0  0  0  0  0  0  0  0
  -30.2316  -17.6788   19.4977 C   0  0  0  0  0  0  0  0  0  0  0  0
  -16.8229  -20.0395   20.9213 C   0  0  1  0  0  0  0  0  0  0  0  0
  -19.7984  -20.7372   23.1781 C   0  0  1  0  0  0  0  0  0  0  0  0
  -29.1770  -18.1936   20.4922 C   0  0  2  0  0  0  0  0  0  0  0  0
  -28.9082  -13.5391   23.0445 C   0  0  0  0  0  0  0  0  0  0  0  0
  -25.6258  -25.7768   23.9825 C   0  0  0  0  0  0  0  0  0  0  0  0
  -21.3520  -23.2302   19.6099 C   0  0  0  0  0  0  0  0  0  0  0  0
  -23.3974  -24.6015   20.0615 C   0  0  0  0  0  0  0  0  0  0  0  0
  -21.1939  -25.3074   20.9936 C   0  0  0  0  0  0  0  0  0  0  0  0
  -24.7325  -22.9395   26.3548 C   0  0  0  0  0  0  0  0  0  0  0  0
  -27.5327  -13.3252   16.3321 C   0  0  0  0  0  0  0  0  0  0  0  0
  -25.1107  -16.4807   21.7663 C   0  0  0  0  0  0  0  0  0  1  0  0
  -26.8103  -13.1351   18.7076 C   0  0  0  0  0  0  0  0  0  0  0  0
  -30.3623  -13.7650   17.6631 C   0  0  0  0  0  0  0  0  0  0  0  0
  -29.2151  -12.8801   18.1136 C   0  0  0  0  0  0  0  0  0  0  0  0
  -22.3715  -23.2998   21.9809 C   0  0  1  0  0  0  0  0  0  0  0  0
  -24.7307  -24.7091   24.5920 C   0  0  2  0  0  0  0  0  0  0  0  0
  -22.0772  -24.0827   20.6702 C   0  0  0  0  0  0  0  0  0  0  0  0
  -28.8347  -20.6183   20.1987 N   0  0  0  0  0  0  0  0  0  0  0  0
  -27.8344  -13.3680   20.8824 N   0  0  0  0  0  0  0  0  0  0  0  0
  -25.9937  -14.7936   20.2606 N   0  0  0  0  0  0  0  0  0  0  0  0
  -28.3995  -19.3736   19.9391 N   0  0  0  0  0  0  0  0  0  0  0  0
  -21.0606  -21.3512   22.7608 N   0  0  0  0  0  0  0  0  0  0  0  0
  -30.9575  -16.5369   20.0756 N   0  0  0  0  0  0  0  0  0  0  0  0
  -26.6957  -18.1622   18.8254 N   0  0  0  0  0  0  0  0  0  0  0  0
  -25.6249  -22.4701   17.9939 N   0  0  0  0  0  0  0  0  0  0  0  0
  -17.7054  -20.3964   22.0114 N   0  0  0  0  0  0  0  0  0  0  0  0
  -23.0335  -24.0902   23.0131 N   0  0  0  0  0  0  0  0  0  0  0  0
  -30.3670  -15.0427   18.3400 N   0  0  0  0  0  0  0  0  0  0  0  0
  -25.4996  -24.0018   25.6548 N   0  3  0  0  0  0  0  0  0  0  0  0
  -27.9015  -13.5379   17.7778 N   0  3  1  0  0  0  0  0  0  0  0  0
  -24.9922  -20.2936   17.6457 O   0  0  0  0  0  0  0  0  0  0  0  0
  -19.7308  -19.9419   20.9560 O   0  0  0  0  0  0  0  0  0  0  0  0
  -20.2264  -23.5184   22.9695 O   0  0  0  0  0  0  0  0  0  0  0  0
  -24.8992  -22.7285   23.2187 O   0  0  0  0  0  0  0  0  0  0  0  0
  -31.6894  -14.3364   20.0748 O   0  0  0  0  0  0  0  0  0  0  0  0
  -28.4202  -26.9569   19.7517 O   0  0  0  0  0  0  0  0  0  0  0  0
  -24.1094  -15.9896   22.6566 O   0  0  0  0  0  0  0  0  0  1  0  0
  -23.8655  -29.8946   20.7656 F   0  0  0  0  0  0  0  0  0  0  0  0
  -28.2659  -28.6192   21.9552 F   0  0  0  0  0  0  0  0  0  0  0  0
  1  2  1  0  0  0  0
  1  5  2  0  0  0  0
  2  6  2  0  0  0  0
  3  8  2  0  0  0  0
  3 16  1  0  0  0  0
  4  9  1  0  0  0  0
  4 16  2  0  0  0  0
  5 18  1  0  0  0  0
  6 20  1  0  0  0  0
  7 10  2  0  0  0  0
  7 19  1  0  0  0  0
  8 22  1  0  0  0  0
  9 22  2  0  0  0  0
 10 23  1  0  0  0  0
 11 12  2  0  0  0  0
 11 24  1  0  0  0  0
 12 25  1  0  0  0  0
 13 21  1  0  0  0  0
 13 23  2  0  0  0  0
 14 25  2  0  0  0  0
 14 26  1  0  0  0  0
 15 28  2  0  0  0  0
 15 29  1  0  0  0  0
 16 27  1  0  0  0  0
 17 27  1  0  0  0  0
 17 30  2  0  0  0  0
 17 32  1  0  0  0  0
 18 20  2  0  0  0  0
 18 37  1  0  0  0  0
 19 21  2  0  0  0  0
 19 38  1  0  0  0  0
 20 46  1  0  0  0  0
 21 39  1  0  0  0  0
 22 81  1  0  0  0  0
 23 82  1  0  0  0  0
 24 26  2  0  0  0  0
 24 81  1  0  0  0  0
 25 83  1  0  0  0  0
 26 84  1  0  0  0  0
 27 63  2  0  0  0  0
 28 49  1  0  0  0  0
 28 64  1  0  0  0  0
 29 56  1  0  0  0  0
 29 65  2  0  0  0  0
 30 66  1  0  0  0  0
 30 69  1  0  0  0  0
 31 57  1  0  0  0  0
 31 64  2  0  0  0  0
 31 65  1  0  0  0  0
 32 70  1  0  0  0  0
 32 76  2  0  0  0  0
 33 47  1  0  0  0  0
 33 71  1  0  0  0  0
 33 77  2  0  0  0  0
 34 60  1  0  0  0  0
 34 67  1  0  0  0  0
 34 78  2  0  0  0  0
 35 61  1  0  0  0  0
 35 72  1  0  0  0  0
 35 79  2  0  0  0  0
 36 68  1  0  0  0  0
 36 73  1  0  0  0  0
 36 80  2  0  0  0  0
 37 40  1  0  0  0  0
 38 47  1  0  0  0  0
 39 67  1  0  0  0  0
 40 42  1  0  0  0  0
 41 43  1  0  0  0  0
 41 44  1  0  0  0  0
 42 46  1  0  0  0  0
 43 48  1  0  0  0  0
 44 68  1  0  0  0  0
 45 48  1  0  0  0  0
 45 68  1  0  0  0  0
 46 71  1  0  0  0  0
 47 67  1  0  0  0  0
 48 66  1  0  0  0  0
 50 61  1  0  0  0  0
 51 62  1  0  0  0  0
 52 62  1  0  0  0  0
 53 62  1  0  0  0  0
 54 74  1  0  0  0  0
 55 75  1  0  0  0  0
 56 82  1  0  0  0  0
 57 75  1  0  0  0  0
 58 59  1  0  0  0  0
 58 73  1  0  0  0  0
 59 75  1  0  0  0  0
 60 62  1  0  0  0  0
 60 72  1  0  0  0  0
 61 74  1  0  0  0  0
 63 66  1  0  0  0  0
M  CHG  2  74   1  75   1
M  ISO  4  36 100  56 101  73 100  82 101
M  END
> <Batch ID>
0057

> <Smiles>
CNC(C)C(=O)NC(C(=O)N1Cc2cc([101O:1][101CH2:1]c3cc(C)nc(CN(C)CC[100NH:0][100C:0](=O)N4CCCC(n5nc(-c6ccc(Oc7ccc(F)cc7F)cc6)c(C(N)=O)c5N)C4)n3)ccc2CC1C(=O)NC1CCCc2ccccc21)C(C)(C)C

> <Shape>
0.176

> <Color>
0.074

> <Negative vol penalty>
0.000

$$$$

  -OEChem-04052317483D

 87 95  0     1  0  0  0  0  0999 V2000
  -36.8045  -16.3012   22.7745 C   0  0  0  0  0  0  0  0  0  0  0  0
  -35.9863  -17.4143   22.9385 C   0  0  0  0  0  0  0  0  0  0  0  0
  -26.6328  -25.5200   18.6233 C   0  0  0  0  0  0  0  0  0  0  0  0
  -28.2763  -25.9161   20.3493 C   0  0  0  0  0  0  0  0  0  0  0  0
  -36.4889  -15.3409   21.8141 C   0  0  0  0  0  0  0  0  0  0  0  0
  -34.8525  -17.5684   22.1415 C   0  0  0  0  0  0  0  0  0  0  0  0
  -28.1952  -20.2048   22.3540 C   0  0  0  0  0  0  0  0  0  0  0  0
  -27.2198  -24.2851   18.3477 C   0  0  0  0  0  0  0  0  0  0  0  0
  -28.8633  -24.6812   20.0737 C   0  0  0  0  0  0  0  0  0  0  0  0
  -27.3560  -21.0690   21.6520 C   0  0  0  0  0  0  0  0  0  0  0  0
  -30.9528  -23.3774   17.7575 C   0  0  0  0  0  0  0  0  0  0  0  0
  -32.3437  -23.3271   17.6654 C   0  0  0  0  0  0  0  0  0  0  0  0
  -26.8663  -19.3064   20.0795 C   0  0  0  0  0  0  0  0  0  0  0  0
  -32.4070  -21.7423   19.4879 C   0  0  0  0  0  0  0  0  0  0  0  0
  -27.1610  -26.3356   19.6241 C   0  0  0  0  0  0  0  0  0  0  0  0
  -26.3999  -28.6952   19.0238 C   0  0  0  0  0  0  0  0  0  0  0  0
  -35.3454  -15.4785   21.0116 C   0  0  0  0  0  0  0  0  0  0  0  0
  -28.3850  -18.8859   21.9171 C   0  0  0  0  0  0  0  0  0  0  0  0
  -34.5221  -16.6098   21.1686 C   0  0  0  0  0  0  0  0  0  0  0  0
  -27.7064  -18.4267   20.7792 C   0  0  0  0  0  0  0  0  0  0  0  0
  -28.3350  -23.8657   19.0729 C   0  0  0  0  0  0  0  0  0  0  0  0
  -26.6937  -20.6207   20.5129 C   0  0  0  0  0  0  0  0  0  0  0  0
  -30.2890  -22.6102   18.7148 C   0  0  0  0  0  0  0  0  0  0  0  0
  -33.0708  -22.5096   18.5306 C   0  0  0  0  0  0  0  0  0  0  0  0
  -31.0161  -21.7926   19.5800 C   0  0  0  0  0  0  0  0  0  0  0  0
  -26.5554  -27.6116   19.9089 C   0  0  0  0  0  0  0  0  0  0  0  0
  -25.7719  -29.6615   19.7711 C   0  0  0  0  0  0  0  0  0  0  0  0
  -23.7385  -22.3336   19.5111 C   0  0  0  0  0  0  0  0  0  0  0  0
  -24.5557  -21.5089   20.1804 C   0  0  0  0  0  0  0  0  0  1  0  0
  -22.3069  -22.3979   19.8812 C   0  0  0  0  0  0  0  0  0  0  0  0
  -22.8951  -20.7441   21.5473 C   0  0  0  0  0  0  0  0  0  0  0  0
  -26.7882  -28.8174   17.6490 C   0  0  0  0  0  0  0  0  0  0  0  0
  -30.8817  -17.1914   20.9179 C   0  0  0  0  0  0  0  0  0  0  0  0
  -22.2829  -29.3227   24.6521 C   0  0  0  0  0  0  0  0  0  0  0  0
  -28.7459  -14.7502   20.9560 C   0  0  0  0  0  0  0  0  0  0  0  0
  -25.4857  -13.7508   20.8196 C   0  0  0  0  0  0  0  0  0  0  0  0
  -35.0710  -14.4383   19.9545 C   0  0  0  0  0  0  0  0  0  0  0  0
  -29.2726  -17.9583   22.7007 C   0  0  0  0  0  0  0  0  0  0  0  0
  -27.8604  -17.0140   20.2802 C   0  0  0  0  0  0  0  0  0  0  0  0
  -33.6469  -14.4872   19.4069 C   0  0  0  0  0  0  0  0  0  0  0  0
  -25.3012  -31.2147   24.2638 C   0  0  0  0  0  0  0  0  0  0  0  0
  -33.2490  -15.9235   19.0819 C   0  0  0  0  0  0  0  0  0  0  0  0
  -25.9646  -30.5850   23.0396 C   0  0  0  0  0  0  0  0  0  0  0  0
  -24.5623  -30.1719   25.0967 C   0  0  0  0  0  0  0  0  0  0  0  0
  -24.2166  -28.7503   23.1014 C   0  0  0  0  0  0  0  0  0  0  0  0
  -33.2700  -16.7999   20.3401 C   0  0  1  0  0  0  0  0  0  0  0  0
  -29.7935  -16.7880   21.8722 C   0  0  1  0  0  0  0  0  0  0  0  0
  -24.9483  -29.7743   22.2158 C   0  0  2  0  0  0  0  0  0  0  0  0
  -22.4422  -19.8549   22.6810 C   0  0  0  0  0  0  0  0  0  0  0  0
  -19.9890  -29.1557   23.7936 C   0  0  0  0  0  0  0  0  0  0  0  0
  -24.0550  -11.6892   20.8361 C   0  0  0  0  0  0  0  0  0  0  0  0
  -19.0592  -22.0137   23.3937 C   0  0  0  0  0  0  0  0  0  0  0  0
  -29.5232  -14.1906   18.0590 C   0  0  0  0  0  0  0  0  0  0  0  0
  -27.4508  -12.8023   17.8443 C   0  0  0  0  0  0  0  0  0  0  0  0
  -29.2245  -12.1489   19.4721 C   0  0  0  0  0  0  0  0  0  0  0  0
  -24.0969  -14.5936   23.2935 C   0  0  0  0  0  0  0  0  0  0  0  0
  -20.8568  -26.1201   23.0778 C   0  0  0  0  0  0  0  0  0  0  0  0
  -21.3248  -27.0559   24.2007 C   0  0  0  0  0  0  0  0  0  0  0  0
  -20.5499  -21.5541   21.3685 C   0  0  0  0  0  0  0  0  0  0  0  0
  -20.8187  -24.6533   23.4901 C   0  0  0  0  0  0  0  0  0  0  0  0
  -21.3756  -28.5220   23.7523 C   0  0  2  0  0  0  0  0  0  0  0  0
  -27.7759  -14.1628   19.9596 C   0  0  1  0  0  0  0  0  0  0  0  0
  -24.6919  -12.7832   21.6788 C   0  0  2  0  0  0  0  0  0  0  0  0
  -20.3535  -22.3432   22.6621 C   0  0  1  0  0  0  0  0  0  0  0  0
  -28.4920  -13.3534   18.8418 C   0  0  0  0  0  0  0  0  0  0  0  0
  -26.0659  -27.8651   21.1254 N   0  0  0  0  0  0  0  0  0  0  0  0
  -24.1473  -20.7004   21.2097 N   0  0  0  0  0  0  0  0  0  0  0  0
  -25.5966  -29.1191   21.0101 N   0  0  0  0  0  0  0  0  0  0  0  0
  -21.9453  -21.5557   20.9336 N   0  0  0  0  0  0  0  0  0  0  0  0
  -28.7442  -16.1471   21.0771 N   0  0  0  0  0  0  0  0  0  0  0  0
  -23.6229  -29.4082   24.2736 N   0  0  0  0  0  0  0  0  0  0  0  0
  -25.3581  -30.9137   19.4826 N   0  0  0  0  0  0  0  0  0  0  0  0
  -28.0649  -29.3166   17.3573 N   0  0  0  0  0  0  0  0  0  0  0  0
  -32.0901  -16.5599   21.1430 N   0  0  0  0  0  0  0  0  0  0  0  0
  -26.8132  -13.3880   20.7351 N   0  0  0  0  0  0  0  0  0  0  0  0
  -23.6106  -13.5047   22.4076 N   0  3  0  0  0  0  0  0  0  0  0  0
  -20.3679  -23.8016   22.3591 N   0  3  0  0  0  0  0  0  0  0  0  0
  -21.5618  -23.1559   19.2647 O   0  0  0  0  0  0  0  0  0  0  0  0
  -26.0196  -28.5089   16.7069 O   0  0  0  0  0  0  0  0  0  0  0  0
  -30.6424  -18.0135   20.0412 O   0  0  0  0  0  0  0  0  0  0  0  0
  -21.8124  -29.8579   25.6593 O   0  0  0  0  0  0  0  0  0  0  0  0
  -29.4732  -13.9970   21.6082 O   0  0  0  0  0  0  0  0  0  0  0  0
  -24.9779  -14.7284   20.2746 O   0  0  0  0  0  0  0  0  0  0  0  0
  -28.9080  -22.6606   18.8044 O   0  0  0  0  0  0  0  0  0  0  0  0
  -25.8746  -21.4623   19.8255 O   0  0  0  0  0  0  0  0  0  1  0  0
  -34.4063  -22.4602   18.4411 F   0  0  0  0  0  0  0  0  0  0  0  0
  -30.3838  -21.0524   20.5009 F   0  0  0  0  0  0  0  0  0  0  0  0
  1  2  1  0  0  0  0
  1  5  2  0  0  0  0
  2  6  2  0  0  0  0
  3  8  2  0  0  0  0
  3 15  1  0  0  0  0
  4  9  1  0  0  0  0
  4 15  2  0  0  0  0
  5 17  1  0  0  0  0
  6 19  1  0  0  0  0
  7 10  2  0  0  0  0
  7 18  1  0  0  0  0
  8 21  1  0  0  0  0
  9 21  2  0  0  0  0
 10 22  1  0  0  0  0
 11 12  2  0  0  0  0
 11 23  1  0  0  0  0
 12 24  1  0  0  0  0
 13 20  1  0  0  0  0
 13 22  2  0  0  0  0
 14 24  2  0  0  0  0
 14 25  1  0  0  0  0
 15 26  1  0  0  0  0
 16 26  1  0  0  0  0
 16 27  2  0  0  0  0
 16 32  1  0  0  0  0
 17 19  2  0  0  0  0
 17 37  1  0  0  0  0
 18 20  2  0  0  0  0
 18 38  1  0  0  0  0
 19 46  1  0  0  0  0
 20 39  1  0  0  0  0
 21 84  1  0  0  0  0
 22 85  1  0  0  0  0
 23 25  2  0  0  0  0
 23 84  1  0  0  0  0
 24 86  1  0  0  0  0
 25 87  1  0  0  0  0
 26 66  2  0  0  0  0
 27 68  1  0  0  0  0
 27 72  1  0  0  0  0
 28 29  2  0  0  0  0
 28 30  1  0  0  0  0
 29 67  1  0  0  0  0
 29 85  1  0  0  0  0
 30 69  1  0  0  0  0
 30 78  2  0  0  0  0
 31 49  1  0  0  0  0
 31 67  2  0  0  0  0
 31 69  1  0  0  0  0
 32 73  1  0  0  0  0
 32 79  2  0  0  0  0
 33 47  1  0  0  0  0
 33 74  1  0  0  0  0
 33 80  2  0  0  0  0
 34 61  1  0  0  0  0
 34 71  1  0  0  0  0
 34 81  2  0  0  0  0
 35 62  1  0  0  0  0
 35 70  1  0  0  0  0
 35 82  2  0  0  0  0
 36 63  1  0  0  0  0
 36 75  1  0  0  0  0
 36 83  2  0  0  0  0
 37 40  1  0  0  0  0
 38 47  1  0  0  0  0
 39 70  1  0  0  0  0
 40 42  1  0  0  0  0
 41 43  1  0  0  0  0
 41 44  1  0  0  0  0
 42 46  1  0  0  0  0
 43 48  1  0  0  0  0
 44 71  1  0  0  0  0
 45 48  1  0  0  0  0
 45 71  1  0  0  0  0
 46 74  1  0  0  0  0
 47 70  1  0  0  0  0
 48 68  1  0  0  0  0
 50 61  1  0  0  0  0
 51 63  1  0  0  0  0
 52 64  1  0  0  0  0
 53 65  1  0  0  0  0
 54 65  1  0  0  0  0
 55 65  1  0  0  0  0
 56 76  1  0  0  0  0
 57 58  1  0  0  0  0
 57 60  1  0  0  0  0
 58 61  1  0  0  0  0
 59 64  1  0  0  0  0
 59 69  1  0  0  0  0
 60 77  1  0  0  0  0
 62 65  1  0  0  0  0
 62 75  1  0  0  0  0
 63 76  1  0  0  0  0
 64 77  1  0  0  0  0
 66 68  1  0  0  0  0
M  CHG  2  76   1  77   1
M  ISO  4  29 101  34 100  61 100  85 101
M  END
> <Batch ID>
0057

> <Smiles>
CNC(C)C(=O)NC(C(=O)N1Cc2cc([101O:1][101c:1]3cc(=O)n(CC(C)NCCC[100CH:0](C)[100C:0](=O)N4CCCC(n5nc(-c6ccc(Oc7ccc(F)cc7F)cc6)c(C(N)=O)c5N)C4)c(C)n3)ccc2CC1C(=O)NC1CCCc2ccccc21)C(C)(C)C

> <Shape>
0.226

> <Color>
0.061

> <Negative vol penalty>
0.000

$$$$

  -OEChem-04052317483D

 83 91  0     1  0  0  0  0  0999 V2000
  -30.9592  -23.1953   22.9615 C   0  0  0  0  0  0  0  0  0  0  0  0
  -29.6001  -23.1689   22.6655 C   0  0  0  0  0  0  0  0  0  0  0  0
  -28.3701  -28.5092   21.0292 C   0  0  0  0  0  0  0  0  0  0  0  0
  -27.1009  -27.2515   19.4031 C   0  0  0  0  0  0  0  0  0  0  0  0
  -31.8132  -22.2496   22.3956 C   0  0  0  0  0  0  0  0  0  0  0  0
  -29.0944  -22.1973   21.8025 C   0  0  0  0  0  0  0  0  0  0  0  0
  -24.8188  -20.1024   23.5275 C   0  0  0  0  0  0  0  0  0  0  0  0
  -29.4940  -27.7303   20.7545 C   0  0  0  0  0  0  0  0  0  0  0  0
  -28.2249  -26.4725   19.1283 C   0  0  0  0  0  0  0  0  0  0  0  0
  -23.6438  -20.8374   23.3769 C   0  0  0  0  0  0  0  0  0  0  0  0
  -31.0776  -26.7625   17.3398 C   0  0  0  0  0  0  0  0  0  0  0  0
  -31.3788  -26.5116   16.0012 C   0  0  0  0  0  0  0  0  0  0  0  0
  -23.0731  -19.5170   21.4404 C   0  0  0  0  0  0  0  0  0  0  0  0
  -31.1607  -24.1382   16.3968 C   0  0  0  0  0  0  0  0  0  0  0  0
  -18.8992  -22.2066   22.8178 C   0  0  0  0  0  0  0  0  0  0  0  0
  -27.1734  -28.2698   20.3536 C   0  0  0  0  0  0  0  0  0  0  0  0
  -25.6330  -30.2731   20.0051 C   0  0  0  0  0  0  0  0  0  0  0  0
  -31.3162  -21.2600   21.5328 C   0  0  0  0  0  0  0  0  0  0  0  0
  -25.1357  -19.0746   22.6277 C   0  0  0  0  0  0  0  0  0  0  0  0
  -29.9428  -21.2383   21.2235 C   0  0  0  0  0  0  0  0  0  0  0  0
  -24.2515  -18.7687   21.5833 C   0  0  0  0  0  0  0  0  0  0  0  0
  -29.4215  -26.7120   19.8040 C   0  0  0  0  0  0  0  0  0  0  0  0
  -22.7721  -20.5468   22.3316 C   0  0  0  0  0  0  0  0  0  0  0  0
  -30.8179  -25.7011   18.2069 C   0  0  0  0  0  0  0  0  0  0  0  0
  -31.4204  -25.1996   15.5296 C   0  0  0  0  0  0  0  0  0  0  0  0
  -30.8594  -24.3891   17.7354 C   0  0  0  0  0  0  0  0  0  0  0  0
  -26.0119  -29.0737   20.6374 C   0  0  0  0  0  0  0  0  0  0  0  0
  -20.0609  -22.9468   22.8175 C   0  0  0  0  0  0  0  0  0  0  0  0
  -18.8689  -24.8171   22.2597 C   0  0  0  0  0  0  0  0  0  0  0  0
  -17.7073  -24.0766   22.2593 C   0  0  0  0  0  0  0  0  0  0  0  0
  -24.4666  -30.6380   20.6319 C   0  0  0  0  0  0  0  0  0  0  0  0
  -26.2777  -30.9929   18.9459 C   0  0  0  0  0  0  0  0  0  0  0  0
  -27.4998  -18.5442   20.5702 C   0  0  0  0  0  0  0  0  0  0  0  0
  -26.0374  -15.6688   20.2308 C   0  0  0  0  0  0  0  0  0  0  0  0
  -23.1768  -13.8252   20.4859 C   0  0  0  0  0  0  0  0  0  0  0  0
  -20.2679  -27.5333   23.5615 C   0  0  0  0  0  0  0  0  0  0  0  0
  -32.2855  -20.2880   20.9081 C   0  0  0  0  0  0  0  0  0  0  0  0
  -26.3941  -18.2733   22.8196 C   0  0  0  0  0  0  0  0  0  0  0  0
  -24.5356  -17.6618   20.6023 C   0  0  0  0  0  0  0  0  0  0  0  0
  -31.6108  -19.0619   20.2985 C   0  0  0  0  0  0  0  0  0  0  0  0
  -22.1884  -30.2537   24.8215 C   0  0  0  0  0  0  0  0  0  0  0  0
  -30.4097  -19.4776   19.4550 C   0  0  0  0  0  0  0  0  0  0  0  0
  -23.3519  -30.3680   23.8350 C   0  0  0  0  0  0  0  0  0  0  0  0
  -21.7866  -28.7989   25.0542 C   0  0  0  0  0  0  0  0  0  0  0  0
  -22.6553  -28.1484   22.8415 C   0  0  0  0  0  0  0  0  0  0  0  0
  -29.3525  -20.1849   20.3114 C   0  0  1  0  0  0  0  0  0  0  0  0
  -26.8670  -17.5881   21.5413 C   0  0  1  0  0  0  0  0  0  0  0  0
  -23.0597  -29.5999   22.5319 C   0  0  2  0  0  0  0  0  0  0  0  0
  -22.2833  -11.5119   20.1017 C   0  0  0  0  0  0  0  0  0  0  0  0
  -25.9850  -16.1908   17.2250 C   0  0  0  0  0  0  0  0  0  0  0  0
  -24.2843  -14.3663   17.0082 C   0  0  0  0  0  0  0  0  0  0  0  0
  -26.5677  -13.8448   17.8664 C   0  0  0  0  0  0  0  0  0  0  0  0
  -22.4723  -13.4976   23.3417 C   0  0  0  0  0  0  0  0  0  0  0  0
  -18.8611  -26.2751   21.9500 C   0  0  0  0  0  0  0  0  0  0  0  0
  -21.3769  -22.2985   23.1322 C   0  0  0  0  0  0  0  0  0  1  0  0
  -24.9528  -15.1200   19.3355 C   0  0  1  0  0  0  0  0  0  0  0  0
  -22.9057  -12.4673   21.1080 C   0  0  2  0  0  0  0  0  0  0  0  0
  -16.3889  -24.6989   21.9490 C   0  0  0  0  0  0  0  0  0  0  0  0
  -25.4428  -14.9027   17.8759 C   0  0  0  0  0  0  0  0  0  0  0  0
  -17.7016  -22.7581   22.5386 N   0  0  0  0  0  0  0  0  0  0  0  0
  -25.1557  -28.7016   21.5926 N   0  0  0  0  0  0  0  0  0  0  0  0
  -20.0666  -24.2654   22.5385 N   0  0  0  0  0  0  0  0  0  0  0  0
  -24.2273  -29.6729   21.5654 N   0  0  0  0  0  0  0  0  0  0  0  0
  -25.7818  -16.9112   20.8282 N   0  0  0  0  0  0  0  0  0  0  0  0
  -21.5218  -28.1278   23.7793 N   0  0  0  0  0  0  0  0  0  0  0  0
  -23.6327  -31.6872   20.4702 N   0  0  0  0  0  0  0  0  0  0  0  0
  -27.4685  -30.4775   18.4161 N   0  0  0  0  0  0  0  0  0  0  0  0
  -28.5938  -19.2193   21.0772 N   0  0  0  0  0  0  0  0  0  0  0  0
  -24.4590  -13.9112   19.9862 N   0  0  0  0  0  0  0  0  0  0  0  0
  -20.0979  -26.9240   22.3243 N   0  0  0  0  0  0  0  0  0  0  0  0
  -21.9754  -12.6036   22.2643 N   0  3  0  0  0  0  0  0  0  0  0  0
  -25.8202  -32.0700   18.4941 O   0  0  0  0  0  0  0  0  0  0  0  0
  -27.0313  -18.6598   19.4438 O   0  0  0  0  0  0  0  0  0  0  0  0
  -27.0701  -15.0157   20.3997 O   0  0  0  0  0  0  0  0  0  0  0  0
  -22.3341  -14.7188   20.4439 O   0  0  0  0  0  0  0  0  0  0  0  0
  -19.3650  -27.5493   24.4049 O   0  0  0  0  0  0  0  0  0  0  0  0
  -30.5182  -25.9518   19.5355 O   0  0  0  0  0  0  0  0  0  0  0  0
  -21.6248  -21.2631   22.1819 O   0  0  0  0  0  0  0  0  0  1  0  0
  -31.7082  -24.9589   14.2438 F   0  0  0  0  0  0  0  0  0  0  0  0
  -30.6097  -23.3654   18.5634 F   0  0  0  0  0  0  0  0  0  0  0  0
  -16.4641  -26.0356   21.6762 F   0  0  0  0  0  0  0  0  0  0  0  0
  -15.7658  -24.1496   20.8644 F   0  0  0  0  0  0  0  0  0  0  0  0
  -15.4988  -24.5857   22.9780 F   0  0  0  0  0  0  0  0  0  0  0  0
  1  2  1  0  0  0  0
  1  5  2  0  0  0  0
  2  6  2  0  0  0  0
  3  8  2  0  0  0  0
  3 16  1  0  0  0  0
  4  9  1  0  0  0  0
  4 16  2  0  0  0  0
  5 18  1  0  0  0  0
  6 20  1  0  0  0  0
  7 10  2  0  0  0  0
  7 19  1  0  0  0  0
  8 22  1  0  0  0  0
  9 22  2  0  0  0  0
 10 23  1  0  0  0  0
 11 12  2  0  0  0  0
 11 24  1  0  0  0  0
 12 25  1  0  0  0  0
 13 21  1  0  0  0  0
 13 23  2  0  0  0  0
 14 25  2  0  0  0  0
 14 26  1  0  0  0  0
 15 28  1  0  0  0  0
 15 60  2  0  0  0  0
 16 27  1  0  0  0  0
 17 27  1  0  0  0  0
 17 31  2  0  0  0  0
 17 32  1  0  0  0  0
 18 20  2  0  0  0  0
 18 37  1  0  0  0  0
 19 21  2  0  0  0  0
 19 38  1  0  0  0  0
 20 46  1  0  0  0  0
 21 39  1  0  0  0  0
 22 77  1  0  0  0  0
 23 78  1  0  0  0  0
 24 26  2  0  0  0  0
 24 77  1  0  0  0  0
 25 79  1  0  0  0  0
 26 80  1  0  0  0  0
 27 61  2  0  0  0  0
 28 55  1  0  0  0  0
 28 62  2  0  0  0  0
 29 30  2  0  0  0  0
 29 54  1  0  0  0  0
 29 62  1  0  0  0  0
 30 58  1  0  0  0  0
 30 60  1  0  0  0  0
 31 63  1  0  0  0  0
 31 66  1  0  0  0  0
 32 67  1  0  0  0  0
 32 72  2  0  0  0  0
 33 47  1  0  0  0  0
 33 68  1  0  0  0  0
 33 73  2  0  0  0  0
 34 56  1  0  0  0  0
 34 64  1  0  0  0  0
 34 74  2  0  0  0  0
 35 57  1  0  0  0  0
 35 69  1  0  0  0  0
 35 75  2  0  0  0  0
 36 65  1  0  0  0  0
 36 70  1  0  0  0  0
 36 76  2  0  0  0  0
 37 40  1  0  0  0  0
 38 47  1  0  0  0  0
 39 64  1  0  0  0  0
 40 42  1  0  0  0  0
 41 43  1  0  0  0  0
 41 44  1  0  0  0  0
 42 46  1  0  0  0  0
 43 48  1  0  0  0  0
 44 65  1  0  0  0  0
 45 48  1  0  0  0  0
 45 65  1  0  0  0  0
 46 68  1  0  0  0  0
 47 64  1  0  0  0  0
 48 63  1  0  0  0  0
 49 57  1  0  0  0  0
 50 59  1  0  0  0  0
 51 59  1  0  0  0  0
 52 59  1  0  0  0  0
 53 71  1  0  0  0  0
 54 70  1  0  0  0  0
 55 78  1  0  0  0  0
 56 59  1  0  0  0  0
 56 69  1  0  0  0  0
 57 71  1  0  0  0  0
 58 81  1  0  0  0  0
 58 82  1  0  0  0  0
 58 83  1  0  0  0  0
 61 63  1  0  0  0  0
M  CHG  1  71   1
M  ISO  4  36 100  55 101  70 100  78 101
M  END
> <Batch ID>
0057

> <Smiles>
CNC(C)C(=O)NC(C(=O)N1Cc2cc([101O:1][101CH2:1]c3cnc(C(F)(F)F)c(C[100NH:0][100C:0](=O)N4CCCC(n5nc(-c6ccc(Oc7ccc(F)cc7F)cc6)c(C(N)=O)c5N)C4)n3)ccc2CC1C(=O)NC1CCCc2ccccc21)C(C)(C)C

> <Shape>
0.221

> <Color>
0.063

> <Negative vol penalty>
0.000

$$$$

  -OEChem-04052317483D

 80 88  0     1  0  0  0  0  0999 V2000
  -34.8964  -30.8571   21.5182 C   0  0  0  0  0  0  0  0  0  0  0  0
  -35.2200  -29.5143   21.3525 C   0  0  0  0  0  0  0  0  0  0  0  0
  -23.2080   -9.8515   19.8583 C   0  0  0  0  0  0  0  0  0  0  0  0
  -23.7076   -9.8552   22.2221 C   0  0  0  0  0  0  0  0  0  0  0  0
  -33.6800  -31.2132   22.0992 C   0  0  0  0  0  0  0  0  0  0  0  0
  -34.3279  -28.5267   21.7689 C   0  0  0  0  0  0  0  0  0  0  0  0
  -32.1051  -21.9334   20.0650 C   0  0  0  0  0  0  0  0  0  0  0  0
  -22.4475   -8.6936   20.0208 C   0  0  0  0  0  0  0  0  0  0  0  0
  -22.9471   -8.6973   22.3846 C   0  0  0  0  0  0  0  0  0  0  0  0
  -31.9218  -20.6764   20.6397 C   0  0  0  0  0  0  0  0  0  0  0  0
  -19.3605   -7.8764   21.1324 C   0  0  0  0  0  0  0  0  0  0  0  0
  -18.1161   -7.8247   20.5045 C   0  0  0  0  0  0  0  0  0  0  0  0
  -29.8154  -21.4102   21.5582 C   0  0  0  0  0  0  0  0  0  0  0  0
  -18.8308   -5.8890   19.2478 C   0  0  0  0  0  0  0  0  0  0  0  0
  -30.7529  -15.7537   21.8846 C   0  0  0  0  0  0  0  0  0  0  0  0
  -23.8381  -10.4323   20.9589 C   0  0  0  0  0  0  0  0  0  0  0  0
  -24.1768  -12.9596   20.8843 C   0  0  0  0  0  0  0  0  0  0  0  0
  -32.7684  -30.2296   22.5141 C   0  0  0  0  0  0  0  0  0  0  0  0
  -31.1484  -22.9433   20.2420 C   0  0  0  0  0  0  0  0  0  0  0  0
  -33.0988  -28.8700   22.3573 C   0  0  0  0  0  0  0  0  0  0  0  0
  -29.9877  -22.6783   20.9826 C   0  0  0  0  0  0  0  0  0  0  0  0
  -22.3170   -8.1165   21.2839 C   0  0  0  0  0  0  0  0  0  0  0  0
  -30.7782  -20.4156   21.3888 C   0  0  0  0  0  0  0  0  0  0  0  0
  -20.3401   -6.9345   20.8180 C   0  0  0  0  0  0  0  0  0  0  0  0
  -17.8512   -6.8310   19.5622 C   0  0  0  0  0  0  0  0  0  0  0  0
  -20.0752   -5.9407   19.8757 C   0  0  0  0  0  0  0  0  0  0  0  0
  -24.6243  -11.6281   20.7916 C   0  0  0  0  0  0  0  0  0  0  0  0
  -30.5645  -14.9260   23.0076 C   0  0  0  0  0  0  0  0  0  0  0  0
  -31.2247  -16.9345   22.4036 C   0  0  0  0  0  0  0  0  0  0  0  0
  -25.2983  -13.7162   20.6469 C   0  0  0  0  0  0  0  0  0  0  0  0
  -22.8646  -13.4673   21.1604 C   0  0  0  0  0  0  0  0  0  0  0  0
  -31.1524  -25.8275   21.5781 C   0  0  0  0  0  0  0  0  0  0  0  0
  -28.1555  -25.9747   20.3456 C   0  0  0  0  0  0  0  0  0  0  0  0
  -25.3938  -24.3045   19.2362 C   0  0  0  0  0  0  0  0  0  0  0  0
  -31.1776  -12.1057   21.2623 C   0  0  0  0  0  0  0  0  0  0  0  0
  -31.4864  -30.6627   23.1801 C   0  0  0  0  0  0  0  0  0  0  0  0
  -31.3483  -24.2855   19.5932 C   0  0  0  0  0  0  0  0  0  0  0  0
  -28.9209  -23.7221   21.1854 C   0  0  0  0  0  0  0  0  0  0  0  0
  -30.4344  -29.5589   23.2523 C   0  0  0  0  0  0  0  0  0  0  0  0
  -29.4804  -13.6113   18.3375 C   0  0  0  0  0  0  0  0  0  0  0  0
  -31.0602  -28.2562   23.7403 C   0  0  0  0  0  0  0  0  0  0  0  0
  -28.0079  -13.3171   18.6190 C   0  0  0  0  0  0  0  0  0  0  0  0
  -30.3977  -12.5670   18.9665 C   0  0  0  0  0  0  0  0  0  0  0  0
  -28.7106  -12.0841   20.7085 C   0  0  0  0  0  0  0  0  0  0  0  0
  -32.1467  -27.7699   22.7736 C   0  0  1  0  0  0  0  0  0  0  0  0
  -30.5540  -25.3996   20.2680 C   0  0  1  0  0  0  0  0  0  0  0  0
  -27.7619  -13.1434   20.1278 C   0  0  2  0  0  0  0  0  0  0  0  0
  -23.0881  -24.6962   18.3263 C   0  0  0  0  0  0  0  0  0  0  0  0
  -27.1735  -26.6840   23.1460 C   0  0  0  0  0  0  0  0  0  0  0  0
  -24.8499  -26.1307   22.3958 C   0  0  0  0  0  0  0  0  0  0  0  0
  -26.1019  -27.9909   21.3026 C   0  0  0  0  0  0  0  0  0  0  0  0
  -31.7261  -17.7079   24.7414 C   0  0  0  0  0  0  0  0  0  0  0  0
  -32.1481  -12.3082   23.5199 C   0  0  0  0  0  0  0  0  0  0  0  0
  -26.0355  -22.9253   16.6975 C   0  0  0  0  0  0  0  0  0  0  0  0
  -30.0681  -13.5397   23.0274 C   0  0  0  0  0  0  0  0  0  0  0  0
  -31.6190  -18.2179   21.7337 C   0  0  0  0  0  0  0  0  0  1  0  0
  -26.7780  -25.5997   20.8365 C   0  0  1  0  0  0  0  0  0  0  0  0
  -24.5524  -24.4697   17.9835 C   0  0  2  0  0  0  0  0  0  0  0  0
  -26.2466  -26.5821   21.9182 C   0  0  0  0  0  0  0  0  0  0  0  0
  -25.9284  -11.5405   20.5166 N   0  0  0  0  0  0  0  0  0  0  0  0
  -30.8902  -15.5297   24.1536 N   0  0  0  0  0  0  0  0  0  0  0  0
  -31.2881  -16.7494   23.7534 N   0  0  0  0  0  0  0  0  0  0  0  0
  -26.3099  -12.8265   20.4344 N   0  0  0  0  0  0  0  0  0  0  0  0
  -29.1652  -25.0208   20.5364 N   0  0  0  0  0  0  0  0  0  0  0  0
  -30.1134  -12.3908   20.3911 N   0  0  0  0  0  0  0  0  0  0  0  0
  -25.5079  -15.0490   20.6013 N   0  0  0  0  0  0  0  0  0  0  0  0
  -21.8266  -12.5516   21.3804 N   0  0  0  0  0  0  0  0  0  0  0  0
  -31.5480  -27.1511   21.6103 N   0  0  0  0  0  0  0  0  0  0  0  0
  -25.9341  -25.5037   19.6503 N   0  0  0  0  0  0  0  0  0  0  0  0
  -31.0653  -12.5689   22.5820 N   0  0  0  0  0  0  0  0  0  0  0  0
  -24.6521  -23.2533   17.1284 N   0  3  0  0  0  0  0  0  0  0  0  0
  -22.6164  -14.6964   21.1943 O   0  0  0  0  0  0  0  0  0  0  0  0
  -31.2468  -25.0172   22.4926 O   0  0  0  0  0  0  0  0  0  0  0  0
  -28.3277  -27.0705   19.8061 O   0  0  0  0  0  0  0  0  0  0  0  0
  -25.5527  -23.2209   19.7938 O   0  0  0  0  0  0  0  0  0  0  0  0
  -32.1756  -11.4816   20.8797 O   0  0  0  0  0  0  0  0  0  0  0  0
  -21.5748   -6.9867   21.4429 O   0  0  0  0  0  0  0  0  0  0  0  0
  -30.5971  -19.1898   21.9514 O   0  0  0  0  0  0  0  0  0  1  0  0
  -16.6556   -6.7805   18.9603 F   0  0  0  0  0  0  0  0  0  0  0  0
  -21.0119   -5.0323   19.5704 F   0  0  0  0  0  0  0  0  0  0  0  0
  1  2  1  0  0  0  0
  1  5  2  0  0  0  0
  2  6  2  0  0  0  0
  3  8  2  0  0  0  0
  3 16  1  0  0  0  0
  4  9  1  0  0  0  0
  4 16  2  0  0  0  0
  5 18  1  0  0  0  0
  6 20  1  0  0  0  0
  7 10  2  0  0  0  0
  7 19  1  0  0  0  0
  8 22  1  0  0  0  0
  9 22  2  0  0  0  0
 10 23  1  0  0  0  0
 11 12  2  0  0  0  0
 11 24  1  0  0  0  0
 12 25  1  0  0  0  0
 13 21  1  0  0  0  0
 13 23  2  0  0  0  0
 14 25  2  0  0  0  0
 14 26  1  0  0  0  0
 15 28  1  0  0  0  0
 15 29  2  0  0  0  0
 16 27  1  0  0  0  0
 17 27  1  0  0  0  0
 17 30  2  0  0  0  0
 17 31  1  0  0  0  0
 18 20  2  0  0  0  0
 18 36  1  0  0  0  0
 19 21  2  0  0  0  0
 19 37  1  0  0  0  0
 20 45  1  0  0  0  0
 21 38  1  0  0  0  0
 22 77  1  0  0  0  0
 23 78  1  0  0  0  0
 24 26  2  0  0  0  0
 24 77  1  0  0  0  0
 25 79  1  0  0  0  0
 26 80  1  0  0  0  0
 27 60  2  0  0  0  0
 28 55  1  0  0  0  0
 28 61  2  0  0  0  0
 29 56  1  0  0  0  0
 29 62  1  0  0  0  0
 30 63  1  0  0  0  0
 30 66  1  0  0  0  0
 31 67  1  0  0  0  0
 31 72  2  0  0  0  0
 32 46  1  0  0  0  0
 32 68  1  0  0  0  0
 32 73  2  0  0  0  0
 33 57  1  0  0  0  0
 33 64  1  0  0  0  0
 33 74  2  0  0  0  0
 34 58  1  0  0  0  0
 34 69  1  0  0  0  0
 34 75  2  0  0  0  0
 35 65  1  0  0  0  0
 35 70  1  0  0  0  0
 35 76  2  0  0  0  0
 36 39  1  0  0  0  0
 37 46  1  0  0  0  0
 38 64  1  0  0  0  0
 39 41  1  0  0  0  0
 40 42  1  0  0  0  0
 40 43  1  0  0  0  0
 41 45  1  0  0  0  0
 42 47  1  0  0  0  0
 43 65  1  0  0  0  0
 44 47  1  0  0  0  0
 44 65  1  0  0  0  0
 45 68  1  0  0  0  0
 46 64  1  0  0  0  0
 47 63  1  0  0  0  0
 48 58  1  0  0  0  0
 49 59  1  0  0  0  0
 50 59  1  0  0  0  0
 51 59  1  0  0  0  0
 52 62  1  0  0  0  0
 53 70  1  0  0  0  0
 54 71  1  0  0  0  0
 55 70  1  0  0  0  0
 56 78  1  0  0  0  0
 57 59  1  0  0  0  0
 57 69  1  0  0  0  0
 58 71  1  0  0  0  0
 60 63  1  0  0  0  0
 61 62  1  0  0  0  0
M  CHG  1  71   1
M  ISO  4  35 100  56 101  70 100  78 101
M  END
> <Batch ID>
0057

> <Smiles>
CNC(C)C(=O)NC(C(=O)N1Cc2cc([101O:1][101CH2:1]c3cc(C[100N:0](C)[100C:0](=O)N4CCCC(n5nc(-c6ccc(Oc7ccc(F)cc7F)cc6)c(C(N)=O)c5N)C4)nn3C)ccc2CC1C(=O)NC1CCCc2ccccc21)C(C)(C)C

> <Shape>
0.202

> <Color>
0.199

> <Negative vol penalty>
0.000

$$$$

  -OEChem-04052317483D

 78 86  0     1  0  0  0  0  0999 V2000
  -23.5684   -8.8698   21.7540 C   0  0  0  0  0  0  0  0  0  0  0  0
  -24.7945   -9.4357   21.4195 C   0  0  0  0  0  0  0  0  0  0  0  0
  -26.3714  -27.1074   22.7631 C   0  0  0  0  0  0  0  0  0  0  0  0
  -24.9571  -26.6557   20.8572 C   0  0  0  0  0  0  0  0  0  0  0  0
  -22.4066   -9.6379   21.6893 C   0  0  0  0  0  0  0  0  0  0  0  0
  -24.8593  -10.7698   21.0189 C   0  0  0  0  0  0  0  0  0  0  0  0
  -29.1673  -16.4854   21.3175 C   0  0  0  0  0  0  0  0  0  0  0  0
  -25.3794  -27.9241   23.3058 C   0  0  0  0  0  0  0  0  0  0  0  0
  -23.9650  -27.4723   21.3999 C   0  0  0  0  0  0  0  0  0  0  0  0
  -29.7503  -17.4394   20.4846 C   0  0  0  0  0  0  0  0  0  0  0  0
  -21.5831  -27.2444   23.7863 C   0  0  0  0  0  0  0  0  0  0  0  0
  -20.2717  -26.7697   23.7650 C   0  0  0  0  0  0  0  0  0  0  0  0
  -27.6887  -18.6921   20.4862 C   0  0  0  0  0  0  0  0  0  0  0  0
  -19.6043  -28.6731   22.4351 C   0  0  0  0  0  0  0  0  0  0  0  0
  -32.4672  -21.8793   17.0045 C   0  0  0  0  0  0  0  0  0  0  0  0
  -26.1603  -26.4733   21.5388 C   0  0  0  0  0  0  0  0  0  0  0  0
  -27.3533  -24.2472   21.1800 C   0  0  0  0  0  0  0  0  0  0  0  0
  -22.4584  -10.9848   21.2971 C   0  0  0  0  0  0  0  0  0  0  0  0
  -27.8349  -16.6222   21.7329 C   0  0  0  0  0  0  0  0  0  0  0  0
  -23.6969  -11.5562   20.9476 C   0  0  0  0  0  0  0  0  0  0  0  0
  -27.0919  -17.7398   21.3265 C   0  0  0  0  0  0  0  0  0  0  0  0
  -24.1761  -28.1065   22.6242 C   0  0  0  0  0  0  0  0  0  0  0  0
  -29.0102  -18.5414   20.0665 C   0  0  0  0  0  0  0  0  0  0  0  0
  -21.9051  -28.4335   23.1321 C   0  0  0  0  0  0  0  0  0  0  0  0
  -19.2823  -27.4840   23.0894 C   0  0  0  0  0  0  0  0  0  0  0  0
  -20.9158  -29.1479   22.4565 C   0  0  0  0  0  0  0  0  0  0  0  0
  -27.1850  -25.6301   20.9774 C   0  0  0  0  0  0  0  0  0  0  0  0
  -28.4603  -23.9232   20.4343 C   0  0  0  0  0  0  0  0  0  0  0  0
  -31.3817  -20.4013   18.0015 C   0  0  0  0  0  0  0  0  0  0  0  0
  -26.5783  -23.3369   21.9714 C   0  0  0  0  0  0  0  0  0  0  0  0
  -25.1801  -14.9162   21.3520 C   0  0  0  0  0  0  0  0  0  0  0  0
  -31.3432  -24.3275   15.6578 C   0  0  0  0  0  0  0  0  0  0  0  0
  -23.9451  -17.1030   23.4051 C   0  0  0  0  0  0  0  0  0  0  0  0
  -24.1163  -20.2350   24.7496 C   0  0  0  0  0  0  0  0  0  0  0  0
  -21.1697  -11.7618   21.1968 C   0  0  0  0  0  0  0  0  0  0  0  0
  -27.2290  -15.5982   22.6531 C   0  0  0  0  0  0  0  0  0  0  0  0
  -25.6643  -17.9436   21.7609 C   0  0  0  0  0  0  0  0  0  0  0  0
  -21.3737  -13.2729   21.1232 C   0  0  0  0  0  0  0  0  0  0  0  0
  -31.8690  -26.8591   18.1387 C   0  0  0  0  0  0  0  0  0  0  0  0
  -22.4667  -13.6155   20.1159 C   0  0  0  0  0  0  0  0  0  0  0  0
  -30.6945  -26.6709   19.0981 C   0  0  0  0  0  0  0  0  0  0  0  0
  -31.4643  -26.5680   16.6969 C   0  0  0  0  0  0  0  0  0  0  0  0
  -29.6842  -25.0261   17.4553 C   0  0  0  0  0  0  0  0  0  0  0  0
  -23.8112  -13.0070   20.5324 C   0  0  1  0  0  0  0  0  0  0  0  0
  -25.7046  -15.5727   22.5976 C   0  0  1  0  0  0  0  0  0  0  0  0
  -30.0578  -25.2803   18.9264 C   0  0  2  0  0  0  0  0  0  0  0  0
  -30.6747  -22.4552   14.1669 C   0  0  0  0  0  0  0  0  0  0  0  0
  -22.9469  -21.7477   26.3750 C   0  0  0  0  0  0  0  0  0  0  0  0
  -21.7417  -17.5997   21.3538 C   0  0  0  0  0  0  0  0  0  0  0  0
  -21.1877  -19.7195   22.5653 C   0  0  0  0  0  0  0  0  0  0  0  0
  -20.9591  -17.5243   23.7278 C   0  0  0  0  0  0  0  0  0  0  0  0
  -26.5166  -20.4343   26.4695 C   0  0  0  0  0  0  0  0  0  0  0  0
  -30.9335  -19.2599   18.8662 C   0  0  0  0  0  0  0  0  0  1  0  0
  -30.6540  -22.9876   15.5975 C   0  0  1  0  0  0  0  0  0  0  0  0
  -23.2669  -18.4437   23.2583 C   0  0  1  0  0  0  0  0  0  0  0  0
  -24.0513  -20.7191   26.1869 C   0  0  2  0  0  0  0  0  0  0  0  0
  -21.8151  -18.3172   22.7164 C   0  0  0  0  0  0  0  0  0  0  0  0
  -32.6061  -20.8655   17.9087 N   0  0  0  0  0  0  0  0  0  0  0  0
  -28.1110  -26.1489   20.1667 N   0  0  0  0  0  0  0  0  0  0  0  0
  -30.5591  -21.1135   17.1856 N   0  0  0  0  0  0  0  0  0  0  0  0
  -31.2338  -22.0716   16.5320 N   0  0  0  0  0  0  0  0  0  0  0  0
  -28.8719  -25.0864   19.8533 N   0  0  0  0  0  0  0  0  0  0  0  0
  -25.1144  -16.9116   22.6555 N   0  0  0  0  0  0  0  0  0  0  0  0
  -30.8433  -25.2475   16.5796 N   0  0  0  0  0  0  0  0  0  0  0  0
  -29.1121  -22.7596   20.2255 N   0  0  0  0  0  0  0  0  0  0  0  0
  -25.4732  -23.8362   22.6741 N   0  0  0  0  0  0  0  0  0  0  0  0
  -24.4149  -13.7903   21.5890 N   0  0  0  0  0  0  0  0  0  0  0  0
  -23.3642  -19.0950   24.5601 N   0  0  0  0  0  0  0  0  0  0  0  0
  -25.3460  -21.3420   26.5828 N   0  3  0  0  0  0  0  0  0  0  0  0
  -26.8672  -22.1199   22.0662 O   0  0  0  0  0  0  0  0  0  0  0  0
  -25.4484  -15.3965   20.2570 O   0  0  0  0  0  0  0  0  0  0  0  0
  -32.2991  -24.5470   14.9092 O   0  0  0  0  0  0  0  0  0  0  0  0
  -23.4594  -16.2592   24.1626 O   0  0  0  0  0  0  0  0  0  0  0  0
  -24.7662  -20.8126   23.8810 O   0  0  0  0  0  0  0  0  0  0  0  0
  -23.2077  -28.9031   23.1536 O   0  0  0  0  0  0  0  0  0  0  0  0
  -29.5766  -19.4737   19.2529 O   0  0  0  0  0  0  0  0  0  1  0  0
  -18.0233  -27.0272   23.0677 F   0  0  0  0  0  0  0  0  0  0  0  0
  -21.2193  -30.2903   21.8252 F   0  0  0  0  0  0  0  0  0  0  0  0
  1  2  1  0  0  0  0
  1  5  2  0  0  0  0
  2  6  2  0  0  0  0
  3  8  2  0  0  0  0
  3 16  1  0  0  0  0
  4  9  1  0  0  0  0
  4 16  2  0  0  0  0
  5 18  1  0  0  0  0
  6 20  1  0  0  0  0
  7 10  2  0  0  0  0
  7 19  1  0  0  0  0
  8 22  1  0  0  0  0
  9 22  2  0  0  0  0
 10 23  1  0  0  0  0
 11 12  2  0  0  0  0
 11 24  1  0  0  0  0
 12 25  1  0  0  0  0
 13 21  1  0  0  0  0
 13 23  2  0  0  0  0
 14 25  2  0  0  0  0
 14 26  1  0  0  0  0
 15 58  2  0  0  0  0
 15 61  1  0  0  0  0
 16 27  1  0  0  0  0
 17 27  1  0  0  0  0
 17 28  2  0  0  0  0
 17 30  1  0  0  0  0
 18 20  2  0  0  0  0
 18 35  1  0  0  0  0
 19 21  2  0  0  0  0
 19 36  1  0  0  0  0
 20 44  1  0  0  0  0
 21 37  1  0  0  0  0
 22 75  1  0  0  0  0
 23 76  1  0  0  0  0
 24 26  2  0  0  0  0
 24 75  1  0  0  0  0
 25 77  1  0  0  0  0
 26 78  1  0  0  0  0
 27 59  2  0  0  0  0
 28 62  1  0  0  0  0
 28 65  1  0  0  0  0
 29 53  1  0  0  0  0
 29 58  1  0  0  0  0
 29 60  2  0  0  0  0
 30 66  1  0  0  0  0
 30 70  2  0  0  0  0
 31 45  1  0  0  0  0
 31 67  1  0  0  0  0
 31 71  2  0  0  0  0
 32 54  1  0  0  0  0
 32 64  1  0  0  0  0
 32 72  2  0  0  0  0
 33 55  1  0  0  0  0
 33 63  1  0  0  0  0
 33 73  2  0  0  0  0
 34 56  1  0  0  0  0
 34 68  1  0  0  0  0
 34 74  2  0  0  0  0
 35 38  1  0  0  0  0
 36 45  1  0  0  0  0
 37 63  1  0  0  0  0
 38 40  1  0  0  0  0
 39 41  1  0  0  0  0
 39 42  1  0  0  0  0
 40 44  1  0  0  0  0
 41 46  1  0  0  0  0
 42 64  1  0  0  0  0
 43 46  1  0  0  0  0
 43 64  1  0  0  0  0
 44 67  1  0  0  0  0
 45 63  1  0  0  0  0
 46 62  1  0  0  0  0
 47 54  1  0  0  0  0
 48 56  1  0  0  0  0
 49 57  1  0  0  0  0
 50 57  1  0  0  0  0
 51 57  1  0  0  0  0
 52 69  1  0  0  0  0
 53 76  1  0  0  0  0
 54 61  1  0  0  0  0
 55 57  1  0  0  0  0
 55 68  1  0  0  0  0
 56 69  1  0  0  0  0
 59 62  1  0  0  0  0
 60 61  1  0  0  0  0
M  CHG  1  69   1
M  ISO  4  32 100  53 101  54 100  76 101
M  END
> <Batch ID>
0057

> <Smiles>
CNC(C)C(=O)NC(C(=O)N1Cc2cc([101O:1][101CH2:1]c3ncn([100CH:0](C)[100C:0](=O)N4CCCC(n5nc(-c6ccc(Oc7ccc(F)cc7F)cc6)c(C(N)=O)c5N)C4)n3)ccc2CC1C(=O)NC1CCCc2ccccc21)C(C)(C)C

> <Shape>
0.198

> <Color>
0.065

> <Negative vol penalty>
0.000

$$$$

  -OEChem-04052317483D

 81 89  0     1  0  0  0  0  0999 V2000
  -22.4107  -31.3131   24.7478 C   0  0  0  0  0  0  0  0  0  0  0  0
  -22.2201  -29.9952   24.3449 C   0  0  0  0  0  0  0  0  0  0  0  0
  -24.3878   -9.4902   21.3024 C   0  0  0  0  0  0  0  0  0  0  0  0
  -24.9781  -10.5311   23.4013 C   0  0  0  0  0  0  0  0  0  0  0  0
  -23.2152  -32.1631   23.9900 C   0  0  0  0  0  0  0  0  0  0  0  0
  -22.8330  -29.5269   23.1832 C   0  0  0  0  0  0  0  0  0  0  0  0
  -24.9468  -24.9672   23.8047 C   0  0  0  0  0  0  0  0  0  0  0  0
  -24.0960   -8.3027   21.9734 C   0  0  0  0  0  0  0  0  0  0  0  0
  -24.6863   -9.3436   24.0723 C   0  0  0  0  0  0  0  0  0  0  0  0
  -24.0951  -23.8635   23.7917 C   0  0  0  0  0  0  0  0  0  0  0  0
  -22.8507   -5.1063   23.1765 C   0  0  0  0  0  0  0  0  0  0  0  0
  -21.6756   -4.4385   22.8317 C   0  0  0  0  0  0  0  0  0  0  0  0
  -24.7074  -23.4257   21.4998 C   0  0  0  0  0  0  0  0  0  0  0  0
  -20.3849   -6.3758   23.4784 C   0  0  0  0  0  0  0  0  0  0  0  0
  -24.8289  -10.6045   22.0164 C   0  0  0  0  0  0  0  0  0  0  0  0
  -24.2468  -12.8912   21.0470 C   0  0  0  0  0  0  0  0  0  0  0  0
  -23.8460  -31.7022   22.8237 C   0  0  0  0  0  0  0  0  0  0  0  0
  -25.6781  -25.3155   22.6601 C   0  0  0  0  0  0  0  0  0  0  0  0
  -23.6456  -30.3719   22.4084 C   0  0  0  0  0  0  0  0  0  0  0  0
  -25.5696  -24.5328   21.5017 C   0  0  0  0  0  0  0  0  0  0  0  0
  -24.2453   -8.2294   23.3583 C   0  0  0  0  0  0  0  0  0  0  0  0
  -23.9731  -23.0942   22.6383 C   0  0  0  0  0  0  0  0  0  0  0  0
  -22.7929   -6.4089   23.6723 C   0  0  0  0  0  0  0  0  0  0  0  0
  -20.4428   -5.0732   22.9827 C   0  0  0  0  0  0  0  0  0  0  0  0
  -21.5600   -7.0436   23.8232 C   0  0  0  0  0  0  0  0  0  0  0  0
  -25.1310  -11.8313   21.3237 C   0  0  0  0  0  0  0  0  0  0  0  0
  -25.0138  -13.8118   20.3757 C   0  0  0  0  0  0  0  0  0  0  0  0
  -26.6196  -17.7877   20.5587 C   0  0  0  0  0  0  0  0  0  0  0  0
  -22.8565  -13.0311   21.3681 C   0  0  0  0  0  0  0  0  0  0  0  0
  -25.7763  -27.8517   20.7465 C   0  0  0  0  0  0  0  0  0  0  0  0
  -28.2650  -26.2590   19.4080 C   0  0  0  0  0  0  0  0  0  0  0  0
  -29.8258  -23.2785   18.8354 C   0  0  0  0  0  0  0  0  0  0  0  0
  -29.9513  -16.6282   20.2975 C   0  0  0  0  0  0  0  0  0  0  0  0
  -24.6683  -32.6714   22.0118 C   0  0  0  0  0  0  0  0  0  0  0  0
  -26.6128  -26.4934   22.6987 C   0  0  0  0  0  0  0  0  0  0  0  0
  -26.3483  -24.8525   20.2528 C   0  0  0  0  0  0  0  0  0  0  0  0
  -25.5838  -31.9921   20.9966 C   0  0  0  0  0  0  0  0  0  0  0  0
  -29.6531  -13.4552   18.4148 C   0  0  0  0  0  0  0  0  0  0  0  0
  -24.8226  -30.9180   20.2261 C   0  0  0  0  0  0  0  0  0  0  0  0
  -28.4153  -12.8127   19.0387 C   0  0  0  0  0  0  0  0  0  0  0  0
  -30.3758  -14.3685   19.4003 C   0  0  0  0  0  0  0  0  0  0  0  0
  -28.2670  -14.7714   20.6268 C   0  0  0  0  0  0  0  0  0  0  0  0
  -24.3135  -29.8199   21.1677 C   0  0  1  0  0  0  0  0  0  0  0  0
  -26.9189  -27.0589   21.3153 C   0  0  1  0  0  0  0  0  0  0  0  0
  -27.4895  -13.8813   19.6456 C   0  0  2  0  0  0  0  0  0  0  0  0
  -31.6111  -21.6973   18.0547 C   0  0  0  0  0  0  0  0  0  0  0  0
  -26.8537  -26.5662   16.7203 C   0  0  0  0  0  0  0  0  0  0  0  0
  -28.3607  -24.7890   15.8046 C   0  0  0  0  0  0  0  0  0  0  0  0
  -29.3271  -26.9288   16.6473 C   0  0  0  0  0  0  0  0  0  0  0  0
  -29.5004  -19.0420   20.5211 C   0  0  0  0  0  0  0  0  0  0  0  0
  -31.2955  -23.4904   21.3955 C   0  0  0  0  0  0  0  0  0  0  0  0
  -27.7190  -17.6000   19.6085 C   0  0  0  0  0  0  0  0  0  0  0  0
  -22.9978  -19.6337   22.3847 C   0  0  0  0  0  0  0  0  0  0  0  0
  -23.3093  -18.3983   21.5371 C   0  0  0  0  0  0  0  0  0  0  0  0
  -23.4996  -20.9331   21.7658 C   0  0  0  0  0  0  0  0  0  1  0  0
  -28.4135  -25.2462   18.2984 C   0  0  1  0  0  0  0  0  0  0  0  0
  -31.2772  -22.8575   18.9793 C   0  0  2  0  0  0  0  0  0  0  0  0
  -28.2225  -25.8774   16.8904 C   0  0  0  0  0  0  0  0  0  0  0  0
  -26.3653  -12.0564   20.8655 N   0  0  0  0  0  0  0  0  0  0  0  0
  -26.7890  -17.7393   21.9106 N   0  0  0  0  0  0  0  0  0  0  0  0
  -25.3638  -18.0311   20.1751 N   0  0  0  0  0  0  0  0  0  0  0  0
  -25.5910  -17.9607   22.4373 N   0  0  0  0  0  0  0  0  0  0  0  0
  -26.2621  -13.2684   20.2940 N   0  0  0  0  0  0  0  0  0  0  0  0
  -24.7841  -18.1263   21.3800 N   0  0  0  0  0  0  0  0  0  0  0  0
  -27.2442  -26.0177   20.3384 N   0  0  0  0  0  0  0  0  0  0  0  0
  -29.4637  -15.3463   19.9944 N   0  0  0  0  0  0  0  0  0  0  0  0
  -24.7355  -15.0250   19.8531 N   0  0  0  0  0  0  0  0  0  0  0  0
  -22.2229  -11.9908   22.0614 N   0  0  0  0  0  0  0  0  0  0  0  0
  -25.3911  -28.9239   21.5286 N   0  0  0  0  0  0  0  0  0  0  0  0
  -29.7115  -24.6104   18.4971 N   0  0  0  0  0  0  0  0  0  0  0  0
  -29.0397  -17.6925   20.2269 N   0  0  0  0  0  0  0  0  0  0  0  0
  -31.5580  -22.4372   20.3813 N   0  3  0  0  0  0  0  0  0  0  0  0
  -22.1916  -14.0414   21.0354 O   0  0  0  0  0  0  0  0  0  0  0  0
  -25.2817  -27.5165   19.6766 O   0  0  0  0  0  0  0  0  0  0  0  0
  -29.0313  -27.2246   19.4519 O   0  0  0  0  0  0  0  0  0  0  0  0
  -28.8875  -22.5026   19.0025 O   0  0  0  0  0  0  0  0  0  0  0  0
  -31.1363  -16.8122   20.6040 O   0  0  0  0  0  0  0  0  0  0  0  0
  -23.9604   -7.0708   24.0134 O   0  0  0  0  0  0  0  0  0  0  0  0
  -23.1421  -22.0168   22.6227 O   0  0  0  0  0  0  0  0  0  1  0  0
  -19.3145   -4.4324   22.6501 F   0  0  0  0  0  0  0  0  0  0  0  0
  -21.4982   -8.2952   24.2979 F   0  0  0  0  0  0  0  0  0  0  0  0
  1  2  1  0  0  0  0
  1  5  2  0  0  0  0
  2  6  2  0  0  0  0
  3  8  2  0  0  0  0
  3 15  1  0  0  0  0
  4  9  1  0  0  0  0
  4 15  2  0  0  0  0
  5 17  1  0  0  0  0
  6 19  1  0  0  0  0
  7 10  2  0  0  0  0
  7 18  1  0  0  0  0
  8 21  1  0  0  0  0
  9 21  2  0  0  0  0
 10 22  1  0  0  0  0
 11 12  2  0  0  0  0
 11 23  1  0  0  0  0
 12 24  1  0  0  0  0
 13 20  1  0  0  0  0
 13 22  2  0  0  0  0
 14 24  2  0  0  0  0
 14 25  1  0  0  0  0
 15 26  1  0  0  0  0
 16 26  1  0  0  0  0
 16 27  2  0  0  0  0
 16 29  1  0  0  0  0
 17 19  2  0  0  0  0
 17 34  1  0  0  0  0
 18 20  2  0  0  0  0
 18 35  1  0  0  0  0
 19 43  1  0  0  0  0
 20 36  1  0  0  0  0
 21 78  1  0  0  0  0
 22 79  1  0  0  0  0
 23 25  2  0  0  0  0
 23 78  1  0  0  0  0
 24 80  1  0  0  0  0
 25 81  1  0  0  0  0
 26 59  2  0  0  0  0
 27 63  1  0  0  0  0
 27 67  1  0  0  0  0
 28 52  1  0  0  0  0
 28 60  1  0  0  0  0
 28 61  2  0  0  0  0
 29 68  1  0  0  0  0
 29 73  2  0  0  0  0
 30 44  1  0  0  0  0
 30 69  1  0  0  0  0
 30 74  2  0  0  0  0
 31 56  1  0  0  0  0
 31 65  1  0  0  0  0
 31 75  2  0  0  0  0
 32 57  1  0  0  0  0
 32 70  1  0  0  0  0
 32 76  2  0  0  0  0
 33 66  1  0  0  0  0
 33 71  1  0  0  0  0
 33 77  2  0  0  0  0
 34 37  1  0  0  0  0
 35 44  1  0  0  0  0
 36 65  1  0  0  0  0
 37 39  1  0  0  0  0
 38 40  1  0  0  0  0
 38 41  1  0  0  0  0
 39 43  1  0  0  0  0
 40 45  1  0  0  0  0
 41 66  1  0  0  0  0
 42 45  1  0  0  0  0
 42 66  1  0  0  0  0
 43 69  1  0  0  0  0
 44 65  1  0  0  0  0
 45 63  1  0  0  0  0
 46 57  1  0  0  0  0
 47 58  1  0  0  0  0
 48 58  1  0  0  0  0
 49 58  1  0  0  0  0
 50 71  1  0  0  0  0
 51 72  1  0  0  0  0
 52 71  1  0  0  0  0
 53 54  1  0  0  0  0
 53 55  1  0  0  0  0
 54 64  1  0  0  0  0
 55 79  1  0  0  0  0
 56 58  1  0  0  0  0
 56 70  1  0  0  0  0
 57 72  1  0  0  0  0
 59 63  1  0  0  0  0
 60 62  2  0  0  0  0
 61 64  1  0  0  0  0
 62 64  1  0  0  0  0
M  CHG  1  72   1
M  ISO  4  33 100  55 101  71 100  79 101
M  END
> <Batch ID>
0057

> <Smiles>
CNC(C)C(=O)NC(C(=O)N1Cc2cc([101O:1][101CH2:1]CCn3nnc(C[100N:0](C)[100C:0](=O)N4CCCC(n5nc(-c6ccc(Oc7ccc(F)cc7F)cc6)c(C(N)=O)c5N)C4)n3)ccc2CC1C(=O)NC1CCCc2ccccc21)C(C)(C)C

> <Shape>
0.268

> <Color>
0.120

> <Negative vol penalty>
0.000

$$$$

  -OEChem-04052317483D

 81 89  0     1  0  0  0  0  0999 V2000
  -29.0210  -36.7571   24.3394 C   0  0  0  0  0  0  0  0  0  0  0  0
  -29.2609  -35.9672   23.2196 C   0  0  0  0  0  0  0  0  0  0  0  0
  -28.1353  -14.0805   22.3056 C   0  0  0  0  0  0  0  0  0  0  0  0
  -26.7947  -15.3782   20.7708 C   0  0  0  0  0  0  0  0  0  0  0  0
  -28.3983  -36.2067   25.4589 C   0  0  0  0  0  0  0  0  0  0  0  0
  -28.8791  -34.6260   23.2191 C   0  0  0  0  0  0  0  0  0  0  0  0
  -26.5119  -29.4970   18.8139 C   0  0  0  0  0  0  0  0  0  0  0  0
  -27.4422  -12.9277   21.9363 C   0  0  0  0  0  0  0  0  0  0  0  0
  -26.1016  -14.2255   20.4014 C   0  0  0  0  0  0  0  0  0  0  0  0
  -26.8023  -28.1887   18.4297 C   0  0  0  0  0  0  0  0  0  0  0  0
  -26.2693   -9.5819   21.1333 C   0  0  0  0  0  0  0  0  0  0  0  0
  -27.0141   -8.4292   20.8844 C   0  0  0  0  0  0  0  0  0  0  0  0
  -25.6625  -27.3664   20.3903 C   0  0  0  0  0  0  0  0  0  0  0  0
  -28.1982   -9.5758   19.1179 C   0  0  0  0  0  0  0  0  0  0  0  0
  -25.1816  -20.7080   20.6172 C   0  0  0  0  0  0  0  0  0  0  0  0
  -27.8115  -15.3058   21.7229 C   0  0  0  0  0  0  0  0  0  0  0  0
  -29.6977  -17.0108   21.5156 C   0  0  0  0  0  0  0  0  0  0  0  0
  -28.0000  -34.8606   25.4685 C   0  0  0  0  0  0  0  0  0  0  0  0
  -25.8028  -29.7507   19.9968 C   0  0  0  0  0  0  0  0  0  0  0  0
  -28.2517  -34.0568   24.3403 C   0  0  0  0  0  0  0  0  0  0  0  0
  -25.3621  -28.6788   20.7860 C   0  0  0  0  0  0  0  0  0  0  0  0
  -26.4254  -13.0002   20.9842 C   0  0  0  0  0  0  0  0  0  0  0  0
  -26.3801  -27.1232   19.2194 C   0  0  0  0  0  0  0  0  0  0  0  0
  -26.4888  -10.7316   20.3745 C   0  0  0  0  0  0  0  0  0  0  0  0
  -27.9786   -8.4261   19.8767 C   0  0  0  0  0  0  0  0  0  0  0  0
  -27.4533  -10.7285   19.3668 C   0  0  0  0  0  0  0  0  0  0  0  0
  -28.5267  -16.4970   22.1044 C   0  0  0  0  0  0  0  0  0  0  0  0
  -29.9733  -18.1479   22.2350 C   0  0  0  0  0  0  0  0  0  0  0  0
  -26.2849  -21.7334   22.0623 C   0  0  0  0  0  0  0  0  0  0  0  0
  -30.4674  -16.5054   20.4167 C   0  0  0  0  0  0  0  0  0  0  0  0
  -26.4397  -31.2800   22.7097 C   0  0  0  0  0  0  0  0  0  0  0  0
  -23.3162  -30.6663   23.3340 C   0  0  0  0  0  0  0  0  0  0  0  0
  -20.5712  -28.7255   22.7464 C   0  0  0  0  0  0  0  0  0  0  0  0
  -26.1429  -21.5477   25.5977 C   0  0  0  0  0  0  0  0  0  0  0  0
  -27.3729  -34.2980   26.7194 C   0  0  0  0  0  0  0  0  0  0  0  0
  -25.4744  -31.1667   20.3835 C   0  0  0  0  0  0  0  0  0  0  0  0
  -24.5801  -28.8968   22.0546 C   0  0  0  0  0  0  0  0  0  0  0  0
  -26.6616  -32.9657   26.4980 C   0  0  0  0  0  0  0  0  0  0  0  0
  -29.4014  -20.0832   26.5666 C   0  0  0  0  0  0  0  0  0  0  0  0
  -27.5379  -32.0220   25.6804 C   0  0  0  0  0  0  0  0  0  0  0  0
  -29.6021  -18.9927   25.5157 C   0  0  0  0  0  0  0  0  0  0  0  0
  -27.9229  -20.3570   26.8246 C   0  0  0  0  0  0  0  0  0  0  0  0
  -27.3475  -19.5894   24.5456 C   0  0  0  0  0  0  0  0  0  0  0  0
  -27.8300  -32.6042   24.2922 C   0  0  1  0  0  0  0  0  0  0  0  0
  -25.1920  -31.3290   21.8739 C   0  0  1  0  0  0  0  0  0  0  0  0
  -28.8264  -19.3219   24.2284 C   0  0  2  0  0  0  0  0  0  0  0  0
  -18.1737  -28.4449   23.4324 C   0  0  0  0  0  0  0  0  0  0  0  0
  -24.2183  -29.4083   25.9633 C   0  0  0  0  0  0  0  0  0  0  0  0
  -21.9660  -28.3293   26.1392 C   0  0  0  0  0  0  0  0  0  0  0  0
  -22.1585  -30.8163   26.1331 C   0  0  0  0  0  0  0  0  0  0  0  0
  -24.8280  -23.2498   24.3921 C   0  0  0  0  0  0  0  0  0  0  0  0
  -19.6058  -29.2008   19.9894 C   0  0  0  0  0  0  0  0  0  0  0  0
  -26.8355  -22.3293   23.2929 C   0  0  0  0  0  0  0  0  0  0  0  0
  -27.7922  -23.8067   19.4176 C   0  0  0  0  0  0  0  0  0  0  0  0
  -28.0584  -22.7274   20.4693 C   0  0  0  0  0  0  0  0  0  0  0  0
  -26.8247  -24.8854   19.8906 C   0  0  0  0  0  0  0  0  0  1  0  0
  -22.5588  -29.5369   23.9896 C   0  0  1  0  0  0  0  0  0  0  0  0
  -19.1293  -29.0869   22.4387 C   0  0  2  0  0  0  0  0  0  0  0  0
  -22.7418  -29.5183   25.5335 C   0  0  0  0  0  0  0  0  0  0  0  0
  -25.2265  -20.9638   21.9578 N   0  0  0  0  0  0  0  0  0  0  0  0
  -26.1457  -21.2710   19.8857 N   0  0  0  0  0  0  0  0  0  0  0  0
  -28.0886  -17.2462   23.1197 N   0  0  0  0  0  0  0  0  0  0  0  0
  -28.9891  -18.2422   23.1746 N   0  0  0  0  0  0  0  0  0  0  0  0
  -26.8375  -21.9210   20.8338 N   0  0  0  0  0  0  0  0  0  0  0  0
  -24.2893  -30.2997   22.3935 N   0  0  0  0  0  0  0  0  0  0  0  0
  -27.2010  -20.6243   25.5801 N   0  0  0  0  0  0  0  0  0  0  0  0
  -30.9590  -19.0662   22.1493 N   0  0  0  0  0  0  0  0  0  0  0  0
  -30.0433  -15.3254   19.7906 N   0  0  0  0  0  0  0  0  0  0  0  0
  -26.6848  -32.4377   23.4232 N   0  0  0  0  0  0  0  0  0  0  0  0
  -21.1728  -29.6678   23.5536 N   0  0  0  0  0  0  0  0  0  0  0  0
  -25.9067  -22.2723   24.4196 N   0  0  0  0  0  0  0  0  0  0  0  0
  -18.7613  -28.6283   21.0693 N   0  3  0  0  0  0  0  0  0  0  0  0
  -31.5099  -17.0742   20.0127 O   0  0  0  0  0  0  0  0  0  0  0  0
  -27.1282  -30.2662   22.7086 O   0  0  0  0  0  0  0  0  0  0  0  0
  -23.0492  -31.8312   23.6396 O   0  0  0  0  0  0  0  0  0  0  0  0
  -21.1090  -27.7073   22.3169 O   0  0  0  0  0  0  0  0  0  0  0  0
  -25.4549  -21.7219   26.6117 O   0  0  0  0  0  0  0  0  0  0  0  0
  -25.7491  -11.8755   20.6234 O   0  0  0  0  0  0  0  0  0  0  0  0
  -26.6628  -25.8452   18.8471 O   0  0  0  0  0  0  0  0  0  1  0  0
  -28.6949   -7.3195   19.6387 F   0  0  0  0  0  0  0  0  0  0  0  0
  -27.6696  -11.8303   18.6353 F   0  0  0  0  0  0  0  0  0  0  0  0
  1  2  1  0  0  0  0
  1  5  2  0  0  0  0
  2  6  2  0  0  0  0
  3  8  2  0  0  0  0
  3 16  1  0  0  0  0
  4  9  1  0  0  0  0
  4 16  2  0  0  0  0
  5 18  1  0  0  0  0
  6 20  1  0  0  0  0
  7 10  2  0  0  0  0
  7 19  1  0  0  0  0
  8 22  1  0  0  0  0
  9 22  2  0  0  0  0
 10 23  1  0  0  0  0
 11 12  2  0  0  0  0
 11 24  1  0  0  0  0
 12 25  1  0  0  0  0
 13 21  1  0  0  0  0
 13 23  2  0  0  0  0
 14 25  2  0  0  0  0
 14 26  1  0  0  0  0
 15 60  1  0  0  0  0
 15 61  2  0  0  0  0
 16 27  1  0  0  0  0
 17 27  1  0  0  0  0
 17 28  2  0  0  0  0
 17 30  1  0  0  0  0
 18 20  2  0  0  0  0
 18 35  1  0  0  0  0
 19 21  2  0  0  0  0
 19 36  1  0  0  0  0
 20 44  1  0  0  0  0
 21 37  1  0  0  0  0
 22 78  1  0  0  0  0
 23 79  1  0  0  0  0
 24 26  2  0  0  0  0
 24 78  1  0  0  0  0
 25 80  1  0  0  0  0
 26 81  1  0  0  0  0
 27 62  2  0  0  0  0
 28 63  1  0  0  0  0
 28 67  1  0  0  0  0
 29 53  1  0  0  0  0
 29 60  2  0  0  0  0
 29 64  1  0  0  0  0
 30 68  1  0  0  0  0
 30 73  2  0  0  0  0
 31 45  1  0  0  0  0
 31 69  1  0  0  0  0
 31 74  2  0  0  0  0
 32 57  1  0  0  0  0
 32 65  1  0  0  0  0
 32 75  2  0  0  0  0
 33 58  1  0  0  0  0
 33 70  1  0  0  0  0
 33 76  2  0  0  0  0
 34 66  1  0  0  0  0
 34 71  1  0  0  0  0
 34 77  2  0  0  0  0
 35 38  1  0  0  0  0
 36 45  1  0  0  0  0
 37 65  1  0  0  0  0
 38 40  1  0  0  0  0
 39 41  1  0  0  0  0
 39 42  1  0  0  0  0
 40 44  1  0  0  0  0
 41 46  1  0  0  0  0
 42 66  1  0  0  0  0
 43 46  1  0  0  0  0
 43 66  1  0  0  0  0
 44 69  1  0  0  0  0
 45 65  1  0  0  0  0
 46 63  1  0  0  0  0
 47 58  1  0  0  0  0
 48 59  1  0  0  0  0
 49 59  1  0  0  0  0
 50 59  1  0  0  0  0
 51 71  1  0  0  0  0
 52 72  1  0  0  0  0
 53 71  1  0  0  0  0
 54 55  1  0  0  0  0
 54 56  1  0  0  0  0
 55 64  1  0  0  0  0
 56 79  1  0  0  0  0
 57 59  1  0  0  0  0
 57 70  1  0  0  0  0
 58 72  1  0  0  0  0
 61 64  1  0  0  0  0
 62 63  1  0  0  0  0
M  CHG  1  72   1
M  ISO  4  34 100  56 101  71 100  79 101
M  END
> <Batch ID>
0057

> <Smiles>
CNC(C)C(=O)NC(C(=O)N1Cc2cc([101O:1][101CH2:1]CCn3ncnc3C[100N:0](C)[100C:0](=O)N3CCCC(n4nc(-c5ccc(Oc6ccc(F)cc6F)cc5)c(C(N)=O)c4N)C3)ccc2CC1C(=O)NC1CCCc2ccccc21)C(C)(C)C

> <Shape>
0.224

> <Color>
0.070

> <Negative vol penalty>
0.000

$$$$

  -OEChem-04052317483D

 87 95  0     1  0  0  0  0  0999 V2000
  -20.5624  -15.0749   21.5484 C   0  0  0  0  0  0  0  0  0  0  0  0
  -21.2932  -16.2579   21.5916 C   0  0  0  0  0  0  0  0  0  0  0  0
  -22.6685  -23.7222   21.2080 C   0  0  0  0  0  0  0  0  0  0  0  0
  -23.2465  -23.9341   23.5443 C   0  0  0  0  0  0  0  0  0  0  0  0
  -21.2246  -13.8481   21.5296 C   0  0  0  0  0  0  0  0  0  0  0  0
  -22.6867  -16.2147   21.6171 C   0  0  0  0  0  0  0  0  0  0  0  0
  -26.5415  -20.1994   19.0153 C   0  0  0  0  0  0  0  0  0  0  0  0
  -22.8875  -22.3465   21.2786 C   0  0  0  0  0  0  0  0  0  0  0  0
  -23.4655  -22.5584   23.6149 C   0  0  0  0  0  0  0  0  0  0  0  0
  -27.2533  -21.2848   19.5243 C   0  0  0  0  0  0  0  0  0  0  0  0
  -25.8975  -20.3752   22.7488 C   0  0  0  0  0  0  0  0  0  0  0  0
  -27.0459  -19.9347   23.4066 C   0  0  0  0  0  0  0  0  0  0  0  0
  -29.1898  -19.8744   19.8072 C   0  0  0  0  0  0  0  0  0  0  0  0
  -25.6770  -18.7129   24.9784 C   0  0  0  0  0  0  0  0  0  0  0  0
  -30.4825  -27.4080   22.8876 C   0  0  0  0  0  0  0  0  0  0  0  0
  -30.4259  -27.2867   25.0873 C   0  0  0  0  0  0  0  0  0  0  0  0
  -22.8480  -24.5161   22.3408 C   0  0  0  0  0  0  0  0  0  0  0  0
  -21.4141  -26.6195   22.5057 C   0  0  0  0  0  0  0  0  0  0  0  0
  -22.6271  -13.7901   21.5450 C   0  0  0  0  0  0  0  0  0  0  0  0
  -27.1462  -18.9387   18.9085 C   0  0  0  0  0  0  0  0  0  0  0  0
  -23.3683  -14.9860   21.5997 C   0  0  0  0  0  0  0  0  0  0  0  0
  -28.4843  -18.7753   19.2942 C   0  0  0  0  0  0  0  0  0  0  0  0
  -23.2860  -21.7646   22.4820 C   0  0  0  0  0  0  0  0  0  0  0  0
  -28.5767  -21.1217   19.9231 C   0  0  0  0  0  0  0  0  0  0  0  0
  -24.6388  -19.9846   23.2059 C   0  0  0  0  0  0  0  0  0  0  0  0
  -26.9357  -19.1035   24.5213 C   0  0  0  0  0  0  0  0  0  0  0  0
  -24.5286  -19.1534   24.3206 C   0  0  0  0  0  0  0  0  0  0  0  0
  -22.6225  -25.9373   22.2684 C   0  0  0  0  0  0  0  0  0  0  0  0
  -31.0532  -26.2425   23.3419 C   0  0  0  0  0  0  0  0  0  0  0  0
  -21.7230  -27.9434   22.3100 C   0  0  0  0  0  0  0  0  0  0  0  0
  -20.1274  -26.1026   22.8704 C   0  0  0  0  0  0  0  0  0  0  0  0
  -26.5975  -16.0734   20.1706 C   0  0  0  0  0  0  0  0  0  0  0  0
  -28.9586  -15.1589   18.1431 C   0  0  0  0  0  0  0  0  0  0  0  0
  -31.7047  -16.0292   16.3132 C   0  0  0  0  0  0  0  0  0  0  0  0
  -26.6734  -31.1102   22.6866 C   0  0  0  0  0  0  0  0  0  0  0  0
  -23.2975  -12.4394   21.5712 C   0  0  0  0  0  0  0  0  0  0  0  0
  -26.3731  -17.7842   18.3324 C   0  0  0  0  0  0  0  0  0  0  0  0
  -29.1858  -17.4473   19.1808 C   0  0  0  0  0  0  0  0  0  0  0  0
  -24.7827  -12.4897   21.2219 C   0  0  0  0  0  0  0  0  0  0  0  0
  -24.6815  -30.7866   19.8664 C   0  0  0  0  0  0  0  0  0  0  0  0
  -25.4722  -13.6176   21.9830 C   0  0  0  0  0  0  0  0  0  0  0  0
  -23.8062  -29.5720   20.1720 C   0  0  0  0  0  0  0  0  0  0  0  0
  -26.1123  -30.5595   20.3396 C   0  0  0  0  0  0  0  0  0  0  0  0
  -25.3488  -29.0199   22.1194 C   0  0  0  0  0  0  0  0  0  0  0  0
  -24.8816  -14.9809   21.6034 C   0  0  1  0  0  0  0  0  0  0  0  0
  -26.9293  -16.4258   18.7481 C   0  0  1  0  0  0  0  0  0  0  0  0
  -23.8863  -29.1959   21.6619 C   0  0  2  0  0  0  0  0  0  0  0  0
  -33.4445  -15.0574   14.7881 C   0  0  0  0  0  0  0  0  0  0  0  0
  -27.5752  -32.5379   25.2772 C   0  0  0  0  0  0  0  0  0  0  0  0
  -25.6367  -30.9674   25.5912 C   0  0  0  0  0  0  0  0  0  0  0  0
  -32.8560  -25.6861   21.6957 C   0  0  0  0  0  0  0  0  0  0  0  0
  -32.2719  -23.9609   23.3764 C   0  0  0  0  0  0  0  0  0  0  0  0
  -30.3763  -13.9284   20.5485 C   0  0  0  0  0  0  0  0  0  0  0  0
  -32.4696  -13.8339   19.1784 C   0  0  0  0  0  0  0  0  0  0  0  0
  -30.4571  -12.5422   18.4685 C   0  0  0  0  0  0  0  0  0  0  0  0
  -30.8759  -17.7702   14.0680 C   0  0  0  0  0  0  0  0  0  0  0  0
  -29.4263  -23.8259   22.1619 C   0  0  0  0  0  0  0  0  0  0  0  0
  -30.6458  -24.4943   21.5157 C   0  0  0  0  0  0  0  0  0  0  0  0
  -29.4319  -29.3514   24.0719 C   0  0  0  0  0  0  0  0  0  0  0  0
  -27.9437  -29.2789   23.7403 C   0  0  0  0  0  0  0  0  0  0  0  0
  -28.5284  -23.1801   21.1134 C   0  0  0  0  0  0  0  0  0  1  0  0
  -30.4625  -15.0591   18.2290 C   0  0  1  0  0  0  0  0  0  0  0  0
  -32.0884  -15.7404   14.8731 C   0  0  2  0  0  0  0  0  0  0  0  0
  -27.0983  -31.0942   25.1814 C   0  0  0  0  0  0  0  0  0  0  0  0
  -31.6782  -25.1030   22.5167 C   0  0  0  0  0  0  0  0  0  0  0  0
  -30.9279  -13.8656   19.1101 C   0  0  0  0  0  0  0  0  0  0  0  0
  -31.0146  -26.1729   24.7120 N   0  0  0  0  0  0  0  0  0  0  0  0
  -23.6243  -26.7599   21.9465 N   0  0  0  0  0  0  0  0  0  0  0  0
  -30.0849  -28.0663   24.0171 N   0  0  0  0  0  0  0  0  0  0  0  0
  -23.0461  -27.9726   21.9800 N   0  0  0  0  0  0  0  0  0  0  0  0
  -28.3856  -16.3474   18.6174 N   0  0  0  0  0  0  0  0  0  0  0  0
  -26.1503  -30.1990   21.7572 N   0  0  0  0  0  0  0  0  0  0  0  0
  -20.9893  -29.0737   22.3898 N   0  0  0  0  0  0  0  0  0  0  0  0
  -19.9847  -24.7176   23.0306 N   0  0  0  0  0  0  0  0  0  0  0  0
  -25.3927  -15.4136   20.3204 N   0  0  0  0  0  0  0  0  0  0  0  0
  -30.9476  -15.0115   16.8539 N   0  0  0  0  0  0  0  0  0  0  0  0
  -27.2928  -30.5784   23.8276 N   0  0  0  0  0  0  0  0  0  0  0  0
  -32.1500  -17.0066   14.0896 N   0  3  0  0  0  0  0  0  0  0  0  0
  -19.1298  -26.8455   23.0329 O   0  0  0  0  0  0  0  0  0  0  0  0
  -27.3775  -16.3764   21.0658 O   0  0  0  0  0  0  0  0  0  0  0  0
  -28.3165  -14.2199   17.6659 O   0  0  0  0  0  0  0  0  0  0  0  0
  -32.0457  -17.0533   16.9009 O   0  0  0  0  0  0  0  0  0  0  0  0
  -26.5986  -32.3323   22.5045 O   0  0  0  0  0  0  0  0  0  0  0  0
  -23.4996  -20.4221   22.5513 O   0  0  0  0  0  0  0  0  0  0  0  0
  -29.2735  -22.1794   20.4208 O   0  0  0  0  0  0  0  0  0  1  0  0
  -28.0387  -18.6794   25.1519 F   0  0  0  0  0  0  0  0  0  0  0  0
  -23.3221  -18.7739   24.7636 F   0  0  0  0  0  0  0  0  0  0  0  0
  1  2  1  0  0  0  0
  1  5  2  0  0  0  0
  2  6  2  0  0  0  0
  3  8  2  0  0  0  0
  3 17  1  0  0  0  0
  4  9  1  0  0  0  0
  4 17  2  0  0  0  0
  5 19  1  0  0  0  0
  6 21  1  0  0  0  0
  7 10  2  0  0  0  0
  7 20  1  0  0  0  0
  8 23  1  0  0  0  0
  9 23  2  0  0  0  0
 10 24  1  0  0  0  0
 11 12  2  0  0  0  0
 11 25  1  0  0  0  0
 12 26  1  0  0  0  0
 13 22  1  0  0  0  0
 13 24  2  0  0  0  0
 14 26  2  0  0  0  0
 14 27  1  0  0  0  0
 15 29  2  0  0  0  0
 15 69  1  0  0  0  0
 16 67  2  0  0  0  0
 16 69  1  0  0  0  0
 17 28  1  0  0  0  0
 18 28  1  0  0  0  0
 18 30  2  0  0  0  0
 18 31  1  0  0  0  0
 19 21  2  0  0  0  0
 19 36  1  0  0  0  0
 20 22  2  0  0  0  0
 20 37  1  0  0  0  0
 21 45  1  0  0  0  0
 22 38  1  0  0  0  0
 23 84  1  0  0  0  0
 24 85  1  0  0  0  0
 25 27  2  0  0  0  0
 25 84  1  0  0  0  0
 26 86  1  0  0  0  0
 27 87  1  0  0  0  0
 28 68  2  0  0  0  0
 29 65  1  0  0  0  0
 29 67  1  0  0  0  0
 30 70  1  0  0  0  0
 30 73  1  0  0  0  0
 31 74  1  0  0  0  0
 31 79  2  0  0  0  0
 32 46  1  0  0  0  0
 32 75  1  0  0  0  0
 32 80  2  0  0  0  0
 33 62  1  0  0  0  0
 33 71  1  0  0  0  0
 33 81  2  0  0  0  0
 34 63  1  0  0  0  0
 34 76  1  0  0  0  0
 34 82  2  0  0  0  0
 35 72  1  0  0  0  0
 35 77  1  0  0  0  0
 35 83  2  0  0  0  0
 36 39  1  0  0  0  0
 37 46  1  0  0  0  0
 38 71  1  0  0  0  0
 39 41  1  0  0  0  0
 40 42  1  0  0  0  0
 40 43  1  0  0  0  0
 41 45  1  0  0  0  0
 42 47  1  0  0  0  0
 43 72  1  0  0  0  0
 44 47  1  0  0  0  0
 44 72  1  0  0  0  0
 45 75  1  0  0  0  0
 46 71  1  0  0  0  0
 47 70  1  0  0  0  0
 48 63  1  0  0  0  0
 49 64  1  0  0  0  0
 50 64  1  0  0  0  0
 51 65  1  0  0  0  0
 52 65  1  0  0  0  0
 53 66  1  0  0  0  0
 54 66  1  0  0  0  0
 55 66  1  0  0  0  0
 56 78  1  0  0  0  0
 57 58  1  0  0  0  0
 57 61  1  0  0  0  0
 58 65  1  0  0  0  0
 59 60  1  0  0  0  0
 59 69  1  0  0  0  0
 60 77  1  0  0  0  0
 61 85  1  0  0  0  0
 62 66  1  0  0  0  0
 62 76  1  0  0  0  0
 63 78  1  0  0  0  0
 64 77  1  0  0  0  0
 68 70  1  0  0  0  0
M  CHG  1  78   1
M  ISO  4  35 100  61 101  77 100  85 101
M  END
> <Batch ID>
0057

> <Smiles>
CNC(C)C(=O)NC(C(=O)N1Cc2cc([101O:1][101CH2:1]CCC(C)(C)c3cn(CC[100N:0](C(C)C)[100C:0](=O)N4CCCC(n5nc(-c6ccc(Oc7ccc(F)cc7F)cc6)c(C(N)=O)c5N)C4)cn3)ccc2CC1C(=O)NC1CCCc2ccccc21)C(C)(C)C

> <Shape>
0.222

> <Color>
0.069

> <Negative vol penalty>
0.000

$$$$

  -OEChem-04052317483D

 81 89  0     1  0  0  0  0  0999 V2000
  -16.9026  -30.4243   23.4336 C   0  0  0  0  0  0  0  0  0  0  0  0
  -18.1475  -30.7992   22.9385 C   0  0  0  0  0  0  0  0  0  0  0  0
  -26.0399  -13.9308   21.9576 C   0  0  0  0  0  0  0  0  0  0  0  0
  -24.8122  -15.3133   20.4025 C   0  0  0  0  0  0  0  0  0  0  0  0
  -16.7099  -29.1354   23.9289 C   0  0  0  0  0  0  0  0  0  0  0  0
  -19.2009  -29.8855   22.9396 C   0  0  0  0  0  0  0  0  0  0  0  0
  -25.0117  -28.0601   19.1688 C   0  0  0  0  0  0  0  0  0  0  0  0
  -24.9993  -13.0020   21.9535 C   0  0  0  0  0  0  0  0  0  0  0  0
  -23.7716  -14.3845   20.3983 C   0  0  0  0  0  0  0  0  0  0  0  0
  -26.3775  -27.8355   19.3360 C   0  0  0  0  0  0  0  0  0  0  0  0
  -22.8231  -10.0925   22.0734 C   0  0  0  0  0  0  0  0  0  0  0  0
  -23.1589   -8.7429   21.9668 C   0  0  0  0  0  0  0  0  0  0  0  0
  -25.9067  -25.6117   20.1436 C   0  0  0  0  0  0  0  0  0  0  0  0
  -24.2147   -9.1738   19.8369 C   0  0  0  0  0  0  0  0  0  0  0  0
  -25.9463  -15.0865   21.1822 C   0  0  0  0  0  0  0  0  0  0  0  0
  -28.1379  -16.0761   20.3304 C   0  0  0  0  0  0  0  0  0  0  0  0
  -17.7588  -28.2024   23.9272 C   0  0  0  0  0  0  0  0  0  0  0  0
  -24.0810  -27.0643   19.4986 C   0  0  0  0  0  0  0  0  0  0  0  0
  -19.0225  -28.5833   23.4366 C   0  0  0  0  0  0  0  0  0  0  0  0
  -24.5299  -25.8252   19.9772 C   0  0  0  0  0  0  0  0  0  0  0  0
  -23.8652  -13.2288   21.1738 C   0  0  0  0  0  0  0  0  0  0  0  0
  -26.8250  -26.6122   19.8262 C   0  0  0  0  0  0  0  0  0  0  0  0
  -23.1831  -10.9828   21.0617 C   0  0  0  0  0  0  0  0  0  0  0  0
  -23.8547   -8.2836   20.8486 C   0  0  0  0  0  0  0  0  0  0  0  0
  -23.8789  -10.5234   19.9434 C   0  0  0  0  0  0  0  0  0  0  0  0
  -27.0207  -16.0467   21.1865 C   0  0  0  0  0  0  0  0  0  0  0  0
  -28.8548  -17.1741   20.7392 C   0  0  0  0  0  0  0  0  0  0  0  0
  -29.6932  -23.4381   16.9588 C   0  0  0  0  0  0  0  0  0  0  0  0
  -30.0695  -23.7022   18.9949 C   0  0  0  0  0  0  0  0  0  0  0  0
  -28.4956  -15.1903   19.2613 C   0  0  0  0  0  0  0  0  0  0  0  0
  -21.6940  -26.8271   21.5841 C   0  0  0  0  0  0  0  0  0  0  0  0
  -21.1647  -24.0097   20.0661 C   0  0  0  0  0  0  0  0  0  0  0  0
  -22.4160  -21.4541   18.1820 C   0  0  0  0  0  0  0  0  0  0  0  0
  -29.0856  -22.5146   22.3427 C   0  0  0  0  0  0  0  0  0  0  0  0
  -17.5156  -26.8356   24.5165 C   0  0  0  0  0  0  0  0  0  0  0  0
  -22.6127  -27.3127   19.2871 C   0  0  0  0  0  0  0  0  0  0  0  0
  -23.5726  -24.7161   20.3268 C   0  0  0  0  0  0  0  0  0  0  0  0
  -18.5809  -25.8103   24.1369 C   0  0  0  0  0  0  0  0  0  0  0  0
  -28.3597  -20.0875   24.8445 C   0  0  0  0  0  0  0  0  0  0  0  0
  -19.9765  -26.4001   24.3136 C   0  0  0  0  0  0  0  0  0  0  0  0
  -28.0329  -18.8248   24.0453 C   0  0  0  0  0  0  0  0  0  0  0  0
  -27.8512  -21.3458   24.1446 C   0  0  0  0  0  0  0  0  0  0  0  0
  -27.9680  -20.2362   21.9471 C   0  0  0  0  0  0  0  0  0  0  0  0
  -20.1830  -27.6128   23.3981 C   0  0  1  0  0  0  0  0  0  0  0  0
  -21.7253  -26.4117   20.1405 C   0  0  1  0  0  0  0  0  0  0  0  0
  -28.5101  -18.9460   22.5855 C   0  0  2  0  0  0  0  0  0  0  0  0
  -29.4032  -22.7710   15.6841 C   0  0  0  0  0  0  0  0  0  0  0  0
  -31.7828  -23.3560   20.8132 C   0  0  0  0  0  0  0  0  0  0  0  0
  -21.7526  -19.2749   17.1293 C   0  0  0  0  0  0  0  0  0  0  0  0
  -21.2653  -22.6607   22.8011 C   0  0  0  0  0  0  0  0  0  0  0  0
  -21.5530  -20.4663   21.6306 C   0  0  0  0  0  0  0  0  0  0  0  0
  -19.4758  -21.8021   21.2796 C   0  0  0  0  0  0  0  0  0  0  0  0
  -23.0275  -22.4486   15.4624 C   0  0  0  0  0  0  0  0  0  0  0  0
  -30.3312  -26.2724   18.9455 C   0  0  0  0  0  0  0  0  0  0  0  0
  -29.0440  -27.0740   19.1059 C   0  0  0  0  0  0  0  0  0  1  0  0
  -30.2985  -23.5540   20.4434 C   0  0  2  0  0  0  0  0  0  0  0  0
  -21.6454  -22.5903   20.2483 C   0  0  1  0  0  0  0  0  0  0  0  0
  -21.8917  -20.7760   16.9291 C   0  0  2  0  0  0  0  0  0  0  0  0
  -21.0031  -21.9012   21.4852 C   0  0  0  0  0  0  0  0  0  0  0  0
  -27.0233  -17.0463   22.0723 N   0  0  0  0  0  0  0  0  0  0  0  0
  -29.8218  -22.7468   18.1293 N   0  0  0  0  0  0  0  0  0  0  0  0
  -29.8460  -24.7612   17.0457 N   0  0  0  0  0  0  0  0  0  0  0  0
  -28.1510  -17.7142   21.7751 N   0  0  0  0  0  0  0  0  0  0  0  0
  -30.0857  -24.9038   18.3581 N   0  0  0  0  0  0  0  0  0  0  0  0
  -22.1465  -25.0097   20.1086 N   0  0  0  0  0  0  0  0  0  0  0  0
  -28.3407  -21.4011   22.7650 N   0  0  0  0  0  0  0  0  0  0  0  0
  -30.0122  -17.7204   20.3100 N   0  0  0  0  0  0  0  0  0  0  0  0
  -27.6469  -14.1125   18.9743 N   0  0  0  0  0  0  0  0  0  0  0  0
  -20.4390  -27.1830   22.0401 N   0  0  0  0  0  0  0  0  0  0  0  0
  -21.3905  -21.9076   18.9845 N   0  0  0  0  0  0  0  0  0  0  0  0
  -29.5168  -22.4841   21.0221 N   0  0  0  0  0  0  0  0  0  0  0  0
  -22.8171  -21.0139   15.7855 N   0  3  0  0  0  0  0  0  0  0  0  0
  -29.5454  -15.3404   18.5913 O   0  0  0  0  0  0  0  0  0  0  0  0
  -22.7313  -26.8235   22.2365 O   0  0  0  0  0  0  0  0  0  0  0  0
  -19.9632  -24.2228   19.8853 O   0  0  0  0  0  0  0  0  0  0  0  0
  -23.6152  -21.5667   18.4263 O   0  0  0  0  0  0  0  0  0  0  0  0
  -29.3516  -23.4629   23.0889 O   0  0  0  0  0  0  0  0  0  0  0  0
  -22.8496  -12.3226   21.1693 O   0  0  0  0  0  0  0  0  0  0  0  0
  -28.1576  -26.3906   19.9911 O   0  0  0  0  0  0  0  0  0  1  0  0
  -24.1785   -6.9878   20.7471 F   0  0  0  0  0  0  0  0  0  0  0  0
  -24.2284  -11.3742   18.9688 F   0  0  0  0  0  0  0  0  0  0  0  0
  1  2  1  0  0  0  0
  1  5  2  0  0  0  0
  2  6  2  0  0  0  0
  3  8  2  0  0  0  0
  3 15  1  0  0  0  0
  4  9  1  0  0  0  0
  4 15  2  0  0  0  0
  5 17  1  0  0  0  0
  6 19  1  0  0  0  0
  7 10  2  0  0  0  0
  7 18  1  0  0  0  0
  8 21  1  0  0  0  0
  9 21  2  0  0  0  0
 10 22  1  0  0  0  0
 11 12  2  0  0  0  0
 11 23  1  0  0  0  0
 12 24  1  0  0  0  0
 13 20  1  0  0  0  0
 13 22  2  0  0  0  0
 14 24  2  0  0  0  0
 14 25  1  0  0  0  0
 15 26  1  0  0  0  0
 16 26  1  0  0  0  0
 16 27  2  0  0  0  0
 16 30  1  0  0  0  0
 17 19  2  0  0  0  0
 17 35  1  0  0  0  0
 18 20  2  0  0  0  0
 18 36  1  0  0  0  0
 19 44  1  0  0  0  0
 20 37  1  0  0  0  0
 21 78  1  0  0  0  0
 22 79  1  0  0  0  0
 23 25  2  0  0  0  0
 23 78  1  0  0  0  0
 24 80  1  0  0  0  0
 25 81  1  0  0  0  0
 26 60  2  0  0  0  0
 27 63  1  0  0  0  0
 27 67  1  0  0  0  0
 28 47  1  0  0  0  0
 28 61  1  0  0  0  0
 28 62  2  0  0  0  0
 29 56  1  0  0  0  0
 29 61  2  0  0  0  0
 29 64  1  0  0  0  0
 30 68  1  0  0  0  0
 30 73  2  0  0  0  0
 31 45  1  0  0  0  0
 31 69  1  0  0  0  0
 31 74  2  0  0  0  0
 32 57  1  0  0  0  0
 32 65  1  0  0  0  0
 32 75  2  0  0  0  0
 33 58  1  0  0  0  0
 33 70  1  0  0  0  0
 33 76  2  0  0  0  0
 34 66  1  0  0  0  0
 34 71  1  0  0  0  0
 34 77  2  0  0  0  0
 35 38  1  0  0  0  0
 36 45  1  0  0  0  0
 37 65  1  0  0  0  0
 38 40  1  0  0  0  0
 39 41  1  0  0  0  0
 39 42  1  0  0  0  0
 40 44  1  0  0  0  0
 41 46  1  0  0  0  0
 42 66  1  0  0  0  0
 43 46  1  0  0  0  0
 43 66  1  0  0  0  0
 44 69  1  0  0  0  0
 45 65  1  0  0  0  0
 46 63  1  0  0  0  0
 48 56  1  0  0  0  0
 49 58  1  0  0  0  0
 50 59  1  0  0  0  0
 51 59  1  0  0  0  0
 52 59  1  0  0  0  0
 53 72  1  0  0  0  0
 54 55  1  0  0  0  0
 54 64  1  0  0  0  0
 55 79  1  0  0  0  0
 56 71  1  0  0  0  0
 57 59  1  0  0  0  0
 57 70  1  0  0  0  0
 58 72  1  0  0  0  0
 60 63  1  0  0  0  0
 62 64  1  0  0  0  0
M  CHG  1  72   1
M  ISO  4  34 100  55 101  71 100  79 101
M  END
> <Batch ID>
0057

> <Smiles>
CNC(C)C(=O)NC(C(=O)N1Cc2cc([101O:1][101CH2:1]Cn3nc(C)nc3C(C)[100NH:0][100C:0](=O)N3CCCC(n4nc(-c5ccc(Oc6ccc(F)cc6F)cc5)c(C(N)=O)c4N)C3)ccc2CC1C(=O)NC1CCCc2ccccc21)C(C)(C)C

> <Shape>
0.236

> <Color>
0.074

> <Negative vol penalty>
0.000

$$$$

  -OEChem-04052317483D

 77 85  0     1  0  0  0  0  0999 V2000
  -22.1335  -11.6271   19.1009 C   0  0  0  0  0  0  0  0  0  0  0  0
  -21.7595  -12.8799   19.5764 C   0  0  0  0  0  0  0  0  0  0  0  0
  -26.0037  -27.7033   21.5190 C   0  0  0  0  0  0  0  0  0  0  0  0
  -26.0571  -28.6096   23.7579 C   0  0  0  0  0  0  0  0  0  0  0  0
  -23.4313  -11.1624   19.3100 C   0  0  0  0  0  0  0  0  0  0  0  0
  -22.6828  -13.6682   20.2623 C   0  0  0  0  0  0  0  0  0  0  0  0
  -22.6183  -18.4995   18.7457 C   0  0  0  0  0  0  0  0  0  0  0  0
  -27.1816  -28.3856   21.2146 C   0  0  0  0  0  0  0  0  0  0  0  0
  -27.2351  -29.2919   23.4536 C   0  0  0  0  0  0  0  0  0  0  0  0
  -21.5857  -19.3038   19.2260 C   0  0  0  0  0  0  0  0  0  0  0  0
  -30.3693  -29.6016   19.9597 C   0  0  0  0  0  0  0  0  0  0  0  0
  -31.3643  -28.9041   19.2749 C   0  0  0  0  0  0  0  0  0  0  0  0
  -23.0818  -20.2283   20.8771 C   0  0  0  0  0  0  0  0  0  0  0  0
  -31.4913  -27.3083   21.0844 C   0  0  0  0  0  0  0  0  0  0  0  0
  -17.7682  -23.6802   20.3897 C   0  0  0  0  0  0  0  0  0  0  0  0
  -25.4414  -27.8153   22.7906 C   0  0  0  0  0  0  0  0  0  0  0  0
  -24.1065  -25.8120   23.6344 C   0  0  0  0  0  0  0  0  0  0  0  0
  -24.3738  -11.9494   19.9903 C   0  0  0  0  0  0  0  0  0  0  0  0
  -23.8896  -18.5457   19.3356 C   0  0  0  0  0  0  0  0  0  0  0  0
  -23.9941  -13.2130   20.4818 C   0  0  0  0  0  0  0  0  0  0  0  0
  -24.1295  -19.4254   20.4008 C   0  0  0  0  0  0  0  0  0  0  0  0
  -27.7973  -29.1799   22.1819 C   0  0  0  0  0  0  0  0  0  0  0  0
  -21.8166  -20.1663   20.2936 C   0  0  0  0  0  0  0  0  0  0  0  0
  -29.9353  -29.1525   21.2070 C   0  0  0  0  0  0  0  0  0  0  0  0
  -31.9253  -27.7575   19.8372 C   0  0  0  0  0  0  0  0  0  0  0  0
  -30.4963  -28.0059   21.7693 C   0  0  0  0  0  0  0  0  0  0  0  0
  -24.2244  -27.1112   23.1054 C   0  0  0  0  0  0  0  0  0  0  0  0
  -17.9852  -24.5406   21.4750 C   0  0  0  0  0  0  0  0  0  0  0  0
  -22.7528  -25.6097   23.7495 C   0  0  0  0  0  0  0  0  0  0  0  0
  -25.1291  -24.8720   23.9900 C   0  0  0  0  0  0  0  0  0  0  0  0
  -17.6176  -25.9548   21.6235 C   0  0  0  0  0  0  0  0  0  0  0  0
  -25.7337  -16.4511   20.8575 C   0  0  0  0  0  0  0  0  0  0  0  0
  -27.8971  -18.8657   20.7483 C   0  0  0  0  0  0  0  0  0  0  0  0
  -28.4872  -22.2179   20.5005 C   0  0  0  0  0  0  0  0  0  0  0  0
  -25.7510  -11.3848   20.2335 C   0  0  0  0  0  0  0  0  0  0  0  0
  -25.0000  -17.6911   18.7886 C   0  0  0  0  0  0  0  0  0  0  0  0
  -25.4819  -19.5274   21.0559 C   0  0  0  0  0  0  0  0  0  0  0  0
  -26.7776  -12.4379   20.6423 C   0  0  0  0  0  0  0  0  0  0  0  0
  -18.8795  -28.8326   23.3168 C   0  0  0  0  0  0  0  0  0  0  0  0
  -26.2051  -13.3507   21.7220 C   0  0  0  0  0  0  0  0  0  0  0  0
  -20.3771  -28.5463   23.4403 C   0  0  0  0  0  0  0  0  0  0  0  0
  -18.3096  -28.2967   22.0058 C   0  0  0  0  0  0  0  0  0  0  0  0
  -20.0764  -26.5738   21.8850 C   0  0  0  0  0  0  0  0  0  0  0  0
  -24.9743  -14.1079   21.2087 C   0  0  1  0  0  0  0  0  0  0  0  0
  -26.1172  -17.4450   19.7979 C   0  0  1  0  0  0  0  0  0  0  0  0
  -20.6800  -27.0529   23.2154 C   0  0  1  0  0  0  0  0  0  0  0  0
  -30.3558  -23.8928   20.4789 C   0  0  0  0  0  0  0  0  0  0  0  0
  -28.1984  -18.5649   23.7697 C   0  0  0  0  0  0  0  0  0  0  0  0
  -29.3010  -20.8123   23.8134 C   0  0  0  0  0  0  0  0  0  0  0  0
  -30.3435  -18.9380   22.5394 C   0  0  0  0  0  0  0  0  0  0  0  0
  -27.7857  -23.1387   17.7767 C   0  0  0  0  0  0  0  0  0  0  0  0
  -19.4277  -21.5498   22.6523 C   0  0  0  0  0  0  0  0  0  0  0  0
  -20.8440  -21.2888   22.1510 C   0  0  0  0  0  0  0  0  0  1  0  0
  -28.2462  -20.0297   21.6441 C   0  0  1  0  0  0  0  0  0  0  0  0
  -29.4503  -23.0098   19.6345 C   0  0  2  0  0  0  0  0  0  0  0  0
  -28.9961  -19.5831   22.9308 C   0  0  0  0  0  0  0  0  0  0  0  0
  -18.2629  -22.4702   20.6649 N   0  0  0  0  0  0  0  0  0  0  0  0
  -23.0401  -27.6932   22.8986 N   0  0  0  0  0  0  0  0  0  0  0  0
  -18.6199  -23.8866   22.4517 N   0  0  0  0  0  0  0  0  0  0  0  0
  -22.1652  -26.7553   23.2997 N   0  0  0  0  0  0  0  0  0  0  0  0
  -18.7499  -22.6693   21.9003 N   0  0  0  0  0  0  0  0  0  0  0  0
  -18.6401  -26.8821   21.8379 N   0  0  0  0  0  0  0  0  0  0  0  0
  -26.5336  -18.6669   20.4892 N   0  0  0  0  0  0  0  0  0  0  0  0
  -22.0199  -24.5653   24.1906 N   0  0  0  0  0  0  0  0  0  0  0  0
  -26.4687  -25.2414   23.8077 N   0  0  0  0  0  0  0  0  0  0  0  0
  -25.3762  -15.2113   20.3629 N   0  0  0  0  0  0  0  0  0  0  0  0
  -28.9896  -20.9732   20.8162 N   0  0  0  0  0  0  0  0  0  0  0  0
  -28.6987  -23.8788   18.6853 N   0  3  0  0  0  0  0  0  0  0  0  0
  -24.8624  -23.7320   24.4403 O   0  0  0  0  0  0  0  0  0  0  0  0
  -16.4169  -26.2139   21.5583 O   0  0  0  0  0  0  0  0  0  0  0  0
  -25.7616  -16.7839   22.0365 O   0  0  0  0  0  0  0  0  0  0  0  0
  -28.8013  -18.1633   20.2895 O   0  0  0  0  0  0  0  0  0  0  0  0
  -27.3998  -22.6607   20.8638 O   0  0  0  0  0  0  0  0  0  0  0  0
  -28.9468  -29.8456   21.8854 O   0  0  0  0  0  0  0  0  0  0  0  0
  -20.8103  -20.9520   20.7647 O   0  0  0  0  0  0  0  0  0  1  0  0
  -32.8797  -27.0869   19.1787 F   0  0  0  0  0  0  0  0  0  0  0  0
  -30.0826  -27.5689   22.9667 F   0  0  0  0  0  0  0  0  0  0  0  0
  1  2  1  0  0  0  0
  1  5  2  0  0  0  0
  2  6  2  0  0  0  0
  3  8  2  0  0  0  0
  3 16  1  0  0  0  0
  4  9  1  0  0  0  0
  4 16  2  0  0  0  0
  5 18  1  0  0  0  0
  6 20  1  0  0  0  0
  7 10  2  0  0  0  0
  7 19  1  0  0  0  0
  8 22  1  0  0  0  0
  9 22  2  0  0  0  0
 10 23  1  0  0  0  0
 11 12  2  0  0  0  0
 11 24  1  0  0  0  0
 12 25  1  0  0  0  0
 13 21  1  0  0  0  0
 13 23  2  0  0  0  0
 14 25  2  0  0  0  0
 14 26  1  0  0  0  0
 15 28  1  0  0  0  0
 15 57  2  0  0  0  0
 16 27  1  0  0  0  0
 17 27  1  0  0  0  0
 17 29  2  0  0  0  0
 17 30  1  0  0  0  0
 18 20  2  0  0  0  0
 18 35  1  0  0  0  0
 19 21  2  0  0  0  0
 19 36  1  0  0  0  0
 20 44  1  0  0  0  0
 21 37  1  0  0  0  0
 22 74  1  0  0  0  0
 23 75  1  0  0  0  0
 24 26  2  0  0  0  0
 24 74  1  0  0  0  0
 25 76  1  0  0  0  0
 26 77  1  0  0  0  0
 27 58  2  0  0  0  0
 28 31  1  0  0  0  0
 28 59  2  0  0  0  0
 29 60  1  0  0  0  0
 29 64  1  0  0  0  0
 30 65  1  0  0  0  0
 30 69  2  0  0  0  0
 31 62  1  0  0  0  0
 31 70  2  0  0  0  0
 32 45  1  0  0  0  0
 32 66  1  0  0  0  0
 32 71  2  0  0  0  0
 33 54  1  0  0  0  0
 33 63  1  0  0  0  0
 33 72  2  0  0  0  0
 34 55  1  0  0  0  0
 34 67  1  0  0  0  0
 34 73  2  0  0  0  0
 35 38  1  0  0  0  0
 36 45  1  0  0  0  0
 37 63  1  0  0  0  0
 38 40  1  0  0  0  0
 39 41  1  0  0  0  0
 39 42  1  0  0  0  0
 40 44  1  0  0  0  0
 41 46  1  0  0  0  0
 42 62  1  0  0  0  0
 43 46  1  0  0  0  0
 43 62  1  0  0  0  0
 44 66  1  0  0  0  0
 45 63  1  0  0  0  0
 46 60  1  0  0  0  0
 47 55  1  0  0  0  0
 48 56  1  0  0  0  0
 49 56  1  0  0  0  0
 50 56  1  0  0  0  0
 51 68  1  0  0  0  0
 52 53  1  0  0  0  0
 52 61  1  0  0  0  0
 53 75  1  0  0  0  0
 54 56  1  0  0  0  0
 54 67  1  0  0  0  0
 55 68  1  0  0  0  0
 57 61  1  0  0  0  0
 58 60  1  0  0  0  0
 59 61  1  0  0  0  0
M  CHG  1  68   1
M  ISO  4  28 100  31 100  53 101  75 101
M  END
> <Batch ID>
0057

> <Smiles>
CNC(C)C(=O)NC(C(=O)N1Cc2cc([101O:1][101CH2:1]Cn3nc[100c:0]([100C:0](=O)N4CCCC(n5nc(-c6ccc(Oc7ccc(F)cc7F)cc6)c(C(N)=O)c5N)C4)n3)ccc2CC1C(=O)NC1CCCc2ccccc21)C(C)(C)C

> <Shape>
0.188

> <Color>
0.063

> <Negative vol penalty>
0.000

$$$$

  -OEChem-04052317483D

 77 85  0     1  0  0  0  0  0999 V2000
  -29.9402  -35.7042   19.0054 C   0  0  0  0  0  0  0  0  0  0  0  0
  -30.1944  -34.4250   18.5212 C   0  0  0  0  0  0  0  0  0  0  0  0
  -24.5036   -9.3568   21.3034 C   0  0  0  0  0  0  0  0  0  0  0  0
  -24.9227  -10.3929   23.4453 C   0  0  0  0  0  0  0  0  0  0  0  0
  -29.2895  -35.8692   20.2274 C   0  0  0  0  0  0  0  0  0  0  0  0
  -29.7990  -33.3100   19.2594 C   0  0  0  0  0  0  0  0  0  0  0  0
  -27.4683  -26.5901   18.4066 C   0  0  0  0  0  0  0  0  0  0  0  0
  -24.3069   -8.1292   21.9357 C   0  0  0  0  0  0  0  0  0  0  0  0
  -24.7259   -9.1653   24.0777 C   0  0  0  0  0  0  0  0  0  0  0  0
  -27.7530  -25.2903   18.8231 C   0  0  0  0  0  0  0  0  0  0  0  0
  -21.8479   -6.5856   23.6687 C   0  0  0  0  0  0  0  0  0  0  0  0
  -20.7526   -5.8194   23.2703 C   0  0  0  0  0  0  0  0  0  0  0  0
  -26.5656  -25.6968   20.8832 C   0  0  0  0  0  0  0  0  0  0  0  0
  -22.2405   -4.0299   22.6213 C   0  0  0  0  0  0  0  0  0  0  0  0
  -27.8816  -20.2208   19.8788 C   0  0  0  0  0  0  0  0  0  0  0  0
  -24.8116  -10.4887   22.0582 C   0  0  0  0  0  0  0  0  0  0  0  0
  -24.0420  -12.7341   21.1236 C   0  0  0  0  0  0  0  0  0  0  0  0
  -28.8773  -34.7557   20.9763 C   0  0  0  0  0  0  0  0  0  0  0  0
  -26.7383  -27.4580   19.2314 C   0  0  0  0  0  0  0  0  0  0  0  0
  -29.1434  -33.4603   20.4932 C   0  0  0  0  0  0  0  0  0  0  0  0
  -26.2708  -27.0063   20.4738 C   0  0  0  0  0  0  0  0  0  0  0  0
  -24.4180   -8.0334   23.3228 C   0  0  0  0  0  0  0  0  0  0  0  0
  -27.3041  -24.8445   20.0627 C   0  0  0  0  0  0  0  0  0  0  0  0
  -23.1396   -6.0740   23.5434 C   0  0  0  0  0  0  0  0  0  0  0  0
  -20.9489   -4.5415   22.7466 C   0  0  0  0  0  0  0  0  0  0  0  0
  -23.3358   -4.7962   23.0197 C   0  0  0  0  0  0  0  0  0  0  0  0
  -25.0154  -11.7570   21.4056 C   0  0  0  0  0  0  0  0  0  0  0  0
  -28.5109  -21.3987   20.1943 C   0  0  0  0  0  0  0  0  0  0  0  0
  -24.7374  -13.7418   20.5011 C   0  0  0  0  0  0  0  0  0  0  0  0
  -22.6351  -12.7312   21.3997 C   0  0  0  0  0  0  0  0  0  0  0  0
  -27.3361  -30.2410   20.6459 C   0  0  0  0  0  0  0  0  0  0  0  0
  -29.2220  -17.0773   20.2718 C   0  0  0  0  0  0  0  0  0  0  0  0
  -24.1946  -30.0709   21.4359 C   0  0  0  0  0  0  0  0  0  0  0  0
  -21.4422  -28.1246   21.9678 C   0  0  0  0  0  0  0  0  0  0  0  0
  -28.2195  -34.9838   22.3142 C   0  0  0  0  0  0  0  0  0  0  0  0
  -26.4166  -28.8483   18.7562 C   0  0  0  0  0  0  0  0  0  0  0  0
  -25.4658  -27.8921   21.3880 C   0  0  0  0  0  0  0  0  0  0  0  0
  -27.4991  -33.7521   22.8566 C   0  0  0  0  0  0  0  0  0  0  0  0
  -29.4502  -13.8702   18.6898 C   0  0  0  0  0  0  0  0  0  0  0  0
  -28.3820  -32.5154   22.7233 C   0  0  0  0  0  0  0  0  0  0  0  0
  -28.2544  -13.1051   19.2553 C   0  0  0  0  0  0  0  0  0  0  0  0
  -30.0518  -14.8124   19.7279 C   0  0  0  0  0  0  0  0  0  0  0  0
  -27.8736  -15.0091   20.8847 C   0  0  0  0  0  0  0  0  0  0  0  0
  -28.7078  -32.2261   21.2530 C   0  0  1  0  0  0  0  0  0  0  0  0
  -26.1061  -29.8127   19.8967 C   0  0  1  0  0  0  0  0  0  0  0  0
  -27.2170  -14.0685   19.8587 C   0  0  2  0  0  0  0  0  0  0  0  0
  -19.0287  -28.2673   22.6399 C   0  0  0  0  0  0  0  0  0  0  0  0
  -25.0307  -30.4937   24.3397 C   0  0  0  0  0  0  0  0  0  0  0  0
  -22.7643  -29.6896   25.0364 C   0  0  0  0  0  0  0  0  0  0  0  0
  -22.9824  -31.7520   23.6502 C   0  0  0  0  0  0  0  0  0  0  0  0
  -20.5373  -26.9805   19.3927 C   0  0  0  0  0  0  0  0  0  0  0  0
  -28.3363  -22.7568   19.5808 C   0  0  0  0  0  0  0  0  0  1  0  0
  -28.1248  -17.9218   20.8692 C   0  0  0  0  0  0  0  0  0  0  0  0
  -23.4127  -29.4963   22.5924 C   0  0  1  0  0  0  0  0  0  0  0  0
  -20.0106  -28.2493   21.4788 C   0  0  2  0  0  0  0  0  0  0  0  0
  -23.5643  -30.3416   23.8885 C   0  0  0  0  0  0  0  0  0  0  0  0
  -26.2361  -12.1119   20.9957 N   0  0  0  0  0  0  0  0  0  0  0  0
  -29.3904  -21.1894   21.2200 N   0  0  0  0  0  0  0  0  0  0  0  0
  -29.3282  -19.9054   21.5555 N   0  0  0  0  0  0  0  0  0  0  0  0
  -28.4231  -19.3264   20.7500 N   0  0  0  0  0  0  0  0  0  0  0  0
  -26.0344  -13.3232   20.4497 N   0  0  0  0  0  0  0  0  0  0  0  0
  -25.1826  -29.2451   20.8812 N   0  0  0  0  0  0  0  0  0  0  0  0
  -29.0304  -15.6957   20.2934 N   0  0  0  0  0  0  0  0  0  0  0  0
  -24.3597  -14.9363   19.9980 N   0  0  0  0  0  0  0  0  0  0  0  0
  -22.0834  -11.6166   22.0460 N   0  0  0  0  0  0  0  0  0  0  0  0
  -27.5787  -31.6006   20.5987 N   0  0  0  0  0  0  0  0  0  0  0  0
  -22.0370  -29.3584   22.1266 N   0  0  0  0  0  0  0  0  0  0  0  0
  -19.6655  -27.1045   20.5892 N   0  3  0  0  0  0  0  0  0  0  0  0
  -21.8864  -13.6815   21.0681 O   0  0  0  0  0  0  0  0  0  0  0  0
  -28.0141  -29.4005   21.2251 O   0  0  0  0  0  0  0  0  0  0  0  0
  -30.2175  -17.6310   19.7978 O   0  0  0  0  0  0  0  0  0  0  0  0
  -23.9334  -31.2078   21.0348 O   0  0  0  0  0  0  0  0  0  0  0  0
  -21.9780  -27.0411   22.1906 O   0  0  0  0  0  0  0  0  0  0  0  0
  -24.2259   -6.8357   23.9401 O   0  0  0  0  0  0  0  0  0  0  0  0
  -27.5811  -23.5765   20.4719 O   0  0  0  0  0  0  0  0  0  1  0  0
  -19.8968   -3.8052   22.3655 F   0  0  0  0  0  0  0  0  0  0  0  0
  -24.5743   -4.2989   22.8980 F   0  0  0  0  0  0  0  0  0  0  0  0
  1  2  1  0  0  0  0
  1  5  2  0  0  0  0
  2  6  2  0  0  0  0
  3  8  2  0  0  0  0
  3 16  1  0  0  0  0
  4  9  1  0  0  0  0
  4 16  2  0  0  0  0
  5 18  1  0  0  0  0
  6 20  1  0  0  0  0
  7 10  2  0  0  0  0
  7 19  1  0  0  0  0
  8 22  1  0  0  0  0
  9 22  2  0  0  0  0
 10 23  1  0  0  0  0
 11 12  2  0  0  0  0
 11 24  1  0  0  0  0
 12 25  1  0  0  0  0
 13 21  1  0  0  0  0
 13 23  2  0  0  0  0
 14 25  2  0  0  0  0
 14 26  1  0  0  0  0
 15 28  2  0  0  0  0
 15 60  1  0  0  0  0
 16 27  1  0  0  0  0
 17 27  1  0  0  0  0
 17 29  2  0  0  0  0
 17 30  1  0  0  0  0
 18 20  2  0  0  0  0
 18 35  1  0  0  0  0
 19 21  2  0  0  0  0
 19 36  1  0  0  0  0
 20 44  1  0  0  0  0
 21 37  1  0  0  0  0
 22 74  1  0  0  0  0
 23 75  1  0  0  0  0
 24 26  2  0  0  0  0
 24 74  1  0  0  0  0
 25 76  1  0  0  0  0
 26 77  1  0  0  0  0
 27 57  2  0  0  0  0
 28 52  1  0  0  0  0
 28 58  1  0  0  0  0
 29 61  1  0  0  0  0
 29 64  1  0  0  0  0
 30 65  1  0  0  0  0
 30 69  2  0  0  0  0
 31 45  1  0  0  0  0
 31 66  1  0  0  0  0
 31 70  2  0  0  0  0
 32 53  1  0  0  0  0
 32 63  1  0  0  0  0
 32 71  2  0  0  0  0
 33 54  1  0  0  0  0
 33 62  1  0  0  0  0
 33 72  2  0  0  0  0
 34 55  1  0  0  0  0
 34 67  1  0  0  0  0
 34 73  2  0  0  0  0
 35 38  1  0  0  0  0
 36 45  1  0  0  0  0
 37 62  1  0  0  0  0
 38 40  1  0  0  0  0
 39 41  1  0  0  0  0
 39 42  1  0  0  0  0
 40 44  1  0  0  0  0
 41 46  1  0  0  0  0
 42 63  1  0  0  0  0
 43 46  1  0  0  0  0
 43 63  1  0  0  0  0
 44 66  1  0  0  0  0
 45 62  1  0  0  0  0
 46 61  1  0  0  0  0
 47 55  1  0  0  0  0
 48 56  1  0  0  0  0
 49 56  1  0  0  0  0
 50 56  1  0  0  0  0
 51 68  1  0  0  0  0
 52 75  1  0  0  0  0
 53 60  1  0  0  0  0
 54 56  1  0  0  0  0
 54 67  1  0  0  0  0
 55 68  1  0  0  0  0
 57 61  1  0  0  0  0
 58 59  2  0  0  0  0
 59 60  1  0  0  0  0
M  CHG  1  68   1
M  ISO  4  32 100  52 101  53 100  75 101
M  END
> <Batch ID>
0057

> <Smiles>
CNC(C)C(=O)NC(C(=O)N1Cc2cc([101O:1][101CH2:1]c3cn([100CH2:0][100C:0](=O)N4CCCC(n5nc(-c6ccc(Oc7ccc(F)cc7F)cc6)c(C(N)=O)c5N)C4)nn3)ccc2CC1C(=O)NC1CCCc2ccccc21)C(C)(C)C

> <Shape>
0.300

> <Color>
0.125

> <Negative vol penalty>
0.000

$$$$

  -OEChem-04052317483D

 83 91  0     1  0  0  0  0  0999 V2000
  -32.0884  -24.6611    9.4797 C   0  0  0  0  0  0  0  0  0  0  0  0
  -32.1061  -24.1271   10.7642 C   0  0  0  0  0  0  0  0  0  0  0  0
  -23.0965   -9.8788   19.9391 C   0  0  0  0  0  0  0  0  0  0  0  0
  -23.8652   -9.8898   22.2295 C   0  0  0  0  0  0  0  0  0  0  0  0
  -32.5467  -25.9593    9.2593 C   0  0  0  0  0  0  0  0  0  0  0  0
  -32.5831  -24.8907   11.8290 C   0  0  0  0  0  0  0  0  0  0  0  0
  -29.6085  -24.5963   15.9168 C   0  0  0  0  0  0  0  0  0  0  0  0
  -22.3688   -8.7153   20.1888 C   0  0  0  0  0  0  0  0  0  0  0  0
  -23.1374   -8.7263   22.4793 C   0  0  0  0  0  0  0  0  0  0  0  0
  -29.7159  -23.4487   16.7011 C   0  0  0  0  0  0  0  0  0  0  0  0
  -21.1936   -5.9600   23.8163 C   0  0  0  0  0  0  0  0  0  0  0  0
  -20.4425   -5.9035   24.9903 C   0  0  0  0  0  0  0  0  0  0  0  0
  -31.1108  -24.6513   18.2591 C   0  0  0  0  0  0  0  0  0  0  0  0
  -19.1699   -7.8262   24.2686 C   0  0  0  0  0  0  0  0  0  0  0  0
  -31.3131  -19.4213   19.2310 C   0  0  0  0  0  0  0  0  0  0  0  0
  -23.8448  -10.4660   20.9594 C   0  0  0  0  0  0  0  0  0  0  0  0
  -24.1531  -12.9957   20.8447 C   0  0  0  0  0  0  0  0  0  0  0  0
  -33.0206  -26.7426   10.3235 C   0  0  0  0  0  0  0  0  0  0  0  0
  -30.2614  -25.7790   16.2927 C   0  0  0  0  0  0  0  0  0  0  0  0
  -33.0494  -26.2001   11.6224 C   0  0  0  0  0  0  0  0  0  0  0  0
  -31.0079  -25.8133   17.4792 C   0  0  0  0  0  0  0  0  0  0  0  0
  -22.3892   -8.1391   21.4590 C   0  0  0  0  0  0  0  0  0  0  0  0
  -30.4695  -23.4752   17.8709 C   0  0  0  0  0  0  0  0  0  0  0  0
  -20.9329   -6.9497   22.8685 C   0  0  0  0  0  0  0  0  0  0  0  0
  -19.4306   -6.8366   25.2165 C   0  0  0  0  0  0  0  0  0  0  0  0
  -19.9210   -7.8828   23.0947 C   0  0  0  0  0  0  0  0  0  0  0  0
  -24.5972  -11.6675   20.7019 C   0  0  0  0  0  0  0  0  0  0  0  0
  -30.1052  -20.0810   19.1722 C   0  0  0  0  0  0  0  0  0  0  0  0
  -30.5113  -18.1036   20.9193 C   0  0  0  0  0  0  0  0  0  0  0  0
  -29.3037  -18.7637   20.8611 C   0  0  0  0  0  0  0  0  0  0  0  0
  -25.2339  -13.7603   20.4792 C   0  0  0  0  0  0  0  0  0  0  0  0
  -22.8776  -13.4937   21.2699 C   0  0  0  0  0  0  0  0  0  0  0  0
  -32.5252  -27.5992   15.0019 C   0  0  0  0  0  0  0  0  0  0  0  0
  -31.8423  -29.5458   17.5052 C   0  0  0  0  0  0  0  0  0  0  0  0
  -30.5930  -29.8731   20.6641 C   0  0  0  0  0  0  0  0  0  0  0  0
  -30.7046  -14.8506   20.6492 C   0  0  0  0  0  0  0  0  0  0  0  0
  -33.5498  -28.1238   10.0287 C   0  0  0  0  0  0  0  0  0  0  0  0
  -30.1137  -27.0159   15.4497 C   0  0  0  0  0  0  0  0  0  0  0  0
  -31.7116  -27.0636   17.9375 C   0  0  0  0  0  0  0  0  0  0  0  0
  -33.6901  -29.0002   11.2707 C   0  0  0  0  0  0  0  0  0  0  0  0
  -29.5890  -12.4575   18.2606 C   0  0  0  0  0  0  0  0  0  0  0  0
  -34.3690  -28.2263   12.3963 C   0  0  0  0  0  0  0  0  0  0  0  0
  -28.1572  -12.1439   18.6982 C   0  0  0  0  0  0  0  0  0  0  0  0
  -30.5078  -12.6872   19.4585 C   0  0  0  0  0  0  0  0  0  0  0  0
  -28.6021  -13.3898   20.8543 C   0  0  0  0  0  0  0  0  0  0  0  0
  -33.5363  -27.0060   12.8072 C   0  0  1  0  0  0  0  0  0  0  0  0
  -31.2421  -28.0208   15.6603 C   0  0  1  0  0  0  0  0  0  0  0  0
  -27.6257  -13.2055   19.6800 C   0  0  2  0  0  0  0  0  0  0  0  0
  -30.2024  -31.5808   22.4609 C   0  0  0  0  0  0  0  0  0  0  0  0
  -34.8164  -29.5068   18.1854 C   0  0  0  0  0  0  0  0  0  0  0  0
  -34.2386  -30.4002   20.4517 C   0  0  0  0  0  0  0  0  0  0  0  0
  -33.7232  -31.7444   18.4145 C   0  0  0  0  0  0  0  0  0  0  0  0
  -27.6676  -29.4276   20.6131 C   0  0  0  0  0  0  0  0  0  0  0  0
  -30.7471  -16.9986   21.8915 C   0  0  0  0  0  0  0  0  0  0  0  0
  -29.8907  -21.1899   18.1845 C   0  0  0  0  0  0  0  0  0  1  0  0
  -32.3479  -29.6842   18.9208 C   0  0  1  0  0  0  0  0  0  0  0  0
  -29.6074  -30.8619   21.2601 C   0  0  2  0  0  0  0  0  0  0  0  0
  -28.1767  -18.4035   21.7677 C   0  0  0  0  0  0  0  0  0  0  0  0
  -33.7700  -30.3096   18.9837 C   0  0  0  0  0  0  0  0  0  0  0  0
  -31.5378  -18.4207   20.1056 N   0  0  0  0  0  0  0  0  0  0  0  0
  -25.8616  -11.5893   20.2785 N   0  0  0  0  0  0  0  0  0  0  0  0
  -29.0788  -19.7640   19.9862 N   0  0  0  0  0  0  0  0  0  0  0  0
  -26.2212  -12.8780   20.1521 N   0  0  0  0  0  0  0  0  0  0  0  0
  -31.5422  -28.2453   17.0758 N   0  0  0  0  0  0  0  0  0  0  0  0
  -29.9473  -13.7062   20.3493 N   0  0  0  0  0  0  0  0  0  0  0  0
  -25.4266  -15.0946   20.4089 N   0  0  0  0  0  0  0  0  0  0  0  0
  -21.8790  -12.5705   21.6086 N   0  0  0  0  0  0  0  0  0  0  0  0
  -32.4217  -27.4108   13.6369 N   0  0  0  0  0  0  0  0  0  0  0  0
  -31.3309  -30.4383   19.6457 N   0  0  0  0  0  0  0  0  0  0  0  0
  -30.0966  -15.7693   21.4960 N   0  0  0  0  0  0  0  0  0  0  0  0
  -28.3694  -30.1583   21.6996 N   0  3  0  0  0  0  0  0  0  0  0  0
  -22.6255  -14.7210   21.3314 O   0  0  0  0  0  0  0  0  0  0  0  0
  -33.5348  -27.4567   15.6817 O   0  0  0  0  0  0  0  0  0  0  0  0
  -31.7114  -30.5553   16.8084 O   0  0  0  0  0  0  0  0  0  0  0  0
  -30.7004  -28.7161   21.0647 O   0  0  0  0  0  0  0  0  0  0  0  0
  -31.8364  -15.0420   20.1917 O   0  0  0  0  0  0  0  0  0  0  0  0
  -21.6789   -7.0040   21.7031 O   0  0  0  0  0  0  0  0  0  0  0  0
  -30.5765  -22.3563   18.6380 O   0  0  0  0  0  0  0  0  0  1  0  0
  -18.7084   -6.7813   26.3432 F   0  0  0  0  0  0  0  0  0  0  0  0
  -19.6651   -8.8351   22.1872 F   0  0  0  0  0  0  0  0  0  0  0  0
  -28.4697  -17.3835   22.6283 F   0  0  0  0  0  0  0  0  0  0  0  0
  -27.7647  -19.4336   22.5650 F   0  0  0  0  0  0  0  0  0  0  0  0
  -27.0635  -17.9997   21.0883 F   0  0  0  0  0  0  0  0  0  0  0  0
  1  2  1  0  0  0  0
  1  5  2  0  0  0  0
  2  6  2  0  0  0  0
  3  8  2  0  0  0  0
  3 16  1  0  0  0  0
  4  9  1  0  0  0  0
  4 16  2  0  0  0  0
  5 18  1  0  0  0  0
  6 20  1  0  0  0  0
  7 10  2  0  0  0  0
  7 19  1  0  0  0  0
  8 22  1  0  0  0  0
  9 22  2  0  0  0  0
 10 23  1  0  0  0  0
 11 12  2  0  0  0  0
 11 24  1  0  0  0  0
 12 25  1  0  0  0  0
 13 21  1  0  0  0  0
 13 23  2  0  0  0  0
 14 25  2  0  0  0  0
 14 26  1  0  0  0  0
 15 28  1  0  0  0  0
 15 60  2  0  0  0  0
 16 27  1  0  0  0  0
 17 27  1  0  0  0  0
 17 31  2  0  0  0  0
 17 32  1  0  0  0  0
 18 20  2  0  0  0  0
 18 37  1  0  0  0  0
 19 21  2  0  0  0  0
 19 38  1  0  0  0  0
 20 46  1  0  0  0  0
 21 39  1  0  0  0  0
 22 77  1  0  0  0  0
 23 78  1  0  0  0  0
 24 26  2  0  0  0  0
 24 77  1  0  0  0  0
 25 79  1  0  0  0  0
 26 80  1  0  0  0  0
 27 61  2  0  0  0  0
 28 55  1  0  0  0  0
 28 62  2  0  0  0  0
 29 30  2  0  0  0  0
 29 54  1  0  0  0  0
 29 60  1  0  0  0  0
 30 58  1  0  0  0  0
 30 62  1  0  0  0  0
 31 63  1  0  0  0  0
 31 66  1  0  0  0  0
 32 67  1  0  0  0  0
 32 72  2  0  0  0  0
 33 47  1  0  0  0  0
 33 68  1  0  0  0  0
 33 73  2  0  0  0  0
 34 56  1  0  0  0  0
 34 64  1  0  0  0  0
 34 74  2  0  0  0  0
 35 57  1  0  0  0  0
 35 69  1  0  0  0  0
 35 75  2  0  0  0  0
 36 65  1  0  0  0  0
 36 70  1  0  0  0  0
 36 76  2  0  0  0  0
 37 40  1  0  0  0  0
 38 47  1  0  0  0  0
 39 64  1  0  0  0  0
 40 42  1  0  0  0  0
 41 43  1  0  0  0  0
 41 44  1  0  0  0  0
 42 46  1  0  0  0  0
 43 48  1  0  0  0  0
 44 65  1  0  0  0  0
 45 48  1  0  0  0  0
 45 65  1  0  0  0  0
 46 68  1  0  0  0  0
 47 64  1  0  0  0  0
 48 63  1  0  0  0  0
 49 57  1  0  0  0  0
 50 59  1  0  0  0  0
 51 59  1  0  0  0  0
 52 59  1  0  0  0  0
 53 71  1  0  0  0  0
 54 70  1  0  0  0  0
 55 78  1  0  0  0  0
 56 59  1  0  0  0  0
 56 69  1  0  0  0  0
 57 71  1  0  0  0  0
 58 81  1  0  0  0  0
 58 82  1  0  0  0  0
 58 83  1  0  0  0  0
 61 63  1  0  0  0  0
M  CHG  1  71   1
M  ISO  4  36 100  55 101  70 100  78 101
M  END
> <Batch ID>
0057

> <Smiles>
CNC(C)C(=O)NC(C(=O)N1Cc2cc([101O:1][101CH2:1]c3cnc(C[100NH:0][100C:0](=O)N4CCCC(n5nc(-c6ccc(Oc7ccc(F)cc7F)cc6)c(C(N)=O)c5N)C4)c(C(F)(F)F)n3)ccc2CC1C(=O)NC1CCCc2ccccc21)C(C)(C)C

> <Shape>
0.240

> <Color>
0.211

> <Negative vol penalty>
0.000

$$$$

  -OEChem-04052317483D

 81 89  0     1  0  0  0  0  0999 V2000
  -16.5415   -7.5745   19.2586 C   0  0  0  0  0  0  0  0  0  0  0  0
  -17.5571   -8.2147   18.5557 C   0  0  0  0  0  0  0  0  0  0  0  0
  -23.2885   -9.7948   19.9077 C   0  0  0  0  0  0  0  0  0  0  0  0
  -23.7157   -9.9370   22.2814 C   0  0  0  0  0  0  0  0  0  0  0  0
  -15.2114   -7.9292   19.0372 C   0  0  0  0  0  0  0  0  0  0  0  0
  -17.2431   -9.2092   17.6301 C   0  0  0  0  0  0  0  0  0  0  0  0
  -20.2456  -13.2662   18.0442 C   0  0  0  0  0  0  0  0  0  0  0  0
  -22.5552   -8.6257   20.1096 C   0  0  0  0  0  0  0  0  0  0  0  0
  -22.9823   -8.7678   22.4834 C   0  0  0  0  0  0  0  0  0  0  0  0
  -21.5243  -13.1705   17.4968 C   0  0  0  0  0  0  0  0  0  0  0  0
  -20.9195   -6.0179   23.6671 C   0  0  0  0  0  0  0  0  0  0  0  0
  -20.0069   -5.9979   24.7218 C   0  0  0  0  0  0  0  0  0  0  0  0
  -20.7753  -14.3833   15.5507 C   0  0  0  0  0  0  0  0  0  0  0  0
  -18.8152   -7.8486   23.7259 C   0  0  0  0  0  0  0  0  0  0  0  0
  -23.8688  -10.4505   20.9936 C   0  0  0  0  0  0  0  0  0  0  0  0
  -24.1408  -12.9791   20.7941 C   0  0  0  0  0  0  0  0  0  0  0  0
  -14.8816   -8.9353   18.1155 C   0  0  0  0  0  0  0  0  0  0  0  0
  -19.2177  -13.9127   17.3429 C   0  0  0  0  0  0  0  0  0  0  0  0
  -15.9073   -9.5768   17.3952 C   0  0  0  0  0  0  0  0  0  0  0  0
  -19.4851  -14.4881   16.0925 C   0  0  0  0  0  0  0  0  0  0  0  0
  -22.4020   -8.1121   21.3974 C   0  0  0  0  0  0  0  0  0  0  0  0
  -21.7886  -13.7266   16.2486 C   0  0  0  0  0  0  0  0  0  0  0  0
  -20.7800   -6.9533   22.6418 C   0  0  0  0  0  0  0  0  0  0  0  0
  -18.9548   -6.9133   24.7512 C   0  0  0  0  0  0  0  0  0  0  0  0
  -19.7278   -7.8687   22.6712 C   0  0  0  0  0  0  0  0  0  0  0  0
  -24.6270  -11.6580   20.7855 C   0  0  0  0  0  0  0  0  0  0  0  0
  -25.2481  -13.7540   20.5493 C   0  0  0  0  0  0  0  0  0  0  0  0
  -28.9184  -15.6928   17.1116 C   0  0  0  0  0  0  0  0  0  0  0  0
  -27.6652  -17.5421   17.3254 C   0  0  0  0  0  0  0  0  0  0  0  0
  -27.5633  -16.3294   15.4398 C   0  0  0  0  0  0  0  0  0  0  0  0
  -22.8075  -13.4626   21.0046 C   0  0  0  0  0  0  0  0  0  0  0  0
  -29.9040  -14.7536   17.6625 C   0  0  0  0  0  0  0  0  0  0  0  0
  -16.4073  -13.0213   16.1551 C   0  0  0  0  0  0  0  0  0  0  0  0
  -16.1067  -16.1897   15.5277 C   0  0  0  0  0  0  0  0  0  0  0  0
  -17.6336  -19.1913   14.9749 C   0  0  0  0  0  0  0  0  0  0  0  0
  -13.4265   -9.2514   17.8756 C   0  0  0  0  0  0  0  0  0  0  0  0
  -17.8506  -14.0307   17.9590 C   0  0  0  0  0  0  0  0  0  0  0  0
  -18.4215  -15.2104   15.3081 C   0  0  0  0  0  0  0  0  0  0  0  0
  -13.2024  -10.5762   17.1511 C   0  0  0  0  0  0  0  0  0  0  0  0
  -30.1634  -12.5663   20.4714 C   0  0  0  0  0  0  0  0  0  0  0  0
  -14.1413  -10.6960   15.9549 C   0  0  0  0  0  0  0  0  0  0  0  0
  -28.7075  -12.2258   20.7947 C   0  0  0  0  0  0  0  0  0  0  0  0
  -30.3878  -12.7114   18.9684 C   0  0  0  0  0  0  0  0  0  0  0  0
  -28.0207  -13.3308   18.6250 C   0  0  0  0  0  0  0  0  0  0  0  0
  -15.6084  -10.6778   16.4010 C   0  0  1  0  0  0  0  0  0  0  0  0
  -16.7492  -14.2629   16.9292 C   0  0  1  0  0  0  0  0  0  0  0  0
  -27.7407  -13.2258   20.1331 C   0  0  1  0  0  0  0  0  0  0  0  0
  -27.2235  -18.7168   18.1307 C   0  0  0  0  0  0  0  0  0  0  0  0
  -17.1263  -21.5929   14.4529 C   0  0  0  0  0  0  0  0  0  0  0  0
  -15.5127  -15.4324   12.6323 C   0  0  0  0  0  0  0  0  0  0  0  0
  -15.9563  -17.8118   11.9921 C   0  0  0  0  0  0  0  0  0  0  0  0
  -14.0811  -17.2687   13.5450 C   0  0  0  0  0  0  0  0  0  0  0  0
  -18.8995  -20.1244   17.4821 C   0  0  0  0  0  0  0  0  0  0  0  0
  -26.9981  -16.1059   14.0598 C   0  0  0  0  0  0  0  0  0  0  0  0
  -25.4726  -15.9593   14.0318 C   0  0  0  0  0  0  0  0  0  0  0  0
  -24.9632  -14.8302   14.9289 C   0  0  0  0  0  0  0  0  0  0  0  0
  -23.4494  -14.6893   14.8447 C   0  0  0  0  0  0  0  0  0  1  0  0
  -16.4646  -17.0888   14.3690 C   0  0  1  0  0  0  0  0  0  0  0  0
  -17.3790  -20.5723   15.5517 C   0  0  2  0  0  0  0  0  0  0  0  0
  -15.5234  -16.8852   13.1483 C   0  0  0  0  0  0  0  0  0  0  0  0
  -25.9408  -11.5935   20.5535 N   0  0  0  0  0  0  0  0  0  0  0  0
  -28.5682  -16.7267   17.8935 N   0  0  0  0  0  0  0  0  0  0  0  0
  -28.4594  -15.4301   15.8774 N   0  0  0  0  0  0  0  0  0  0  0  0
  -27.1195  -17.4075   16.1059 N   0  0  0  0  0  0  0  0  0  0  0  0
  -26.2895  -12.8838   20.4139 N   0  0  0  0  0  0  0  0  0  0  0  0
  -29.4344  -13.6587   18.3920 N   0  0  0  0  0  0  0  0  0  0  0  0
  -17.0991  -15.2939   15.9500 N   0  0  0  0  0  0  0  0  0  0  0  0
  -25.4227  -15.0881   20.4387 N   0  0  0  0  0  0  0  0  0  0  0  0
  -21.7886  -12.5303   21.2430 N   0  0  0  0  0  0  0  0  0  0  0  0
  -15.9881  -11.9654   16.9417 N   0  0  0  0  0  0  0  0  0  0  0  0
  -16.4741  -18.4492   14.8958 N   0  0  0  0  0  0  0  0  0  0  0  0
  -18.5525  -21.0238   16.3517 N   0  3  0  0  0  0  0  0  0  0  0  0
  -22.5251  -14.6842   20.9656 O   0  0  0  0  0  0  0  0  0  0  0  0
  -31.0858  -15.0161   17.4445 O   0  0  0  0  0  0  0  0  0  0  0  0
  -16.5144  -13.0218   14.9344 O   0  0  0  0  0  0  0  0  0  0  0  0
  -14.9903  -16.2839   16.0439 O   0  0  0  0  0  0  0  0  0  0  0  0
  -18.7487  -18.8105   14.6258 O   0  0  0  0  0  0  0  0  0  0  0  0
  -21.6863   -6.9714   21.5949 O   0  0  0  0  0  0  0  0  0  0  0  0
  -23.0356  -13.6341   15.7117 O   0  0  0  0  0  0  0  0  0  1  0  0
  -18.0777   -6.8929   25.7633 F   0  0  0  0  0  0  0  0  0  0  0  0
  -19.5879   -8.7689   21.6884 F   0  0  0  0  0  0  0  0  0  0  0  0
  1  2  1  0  0  0  0
  1  5  2  0  0  0  0
  2  6  2  0  0  0  0
  3  8  2  0  0  0  0
  3 15  1  0  0  0  0
  4  9  1  0  0  0  0
  4 15  2  0  0  0  0
  5 17  1  0  0  0  0
  6 19  1  0  0  0  0
  7 10  2  0  0  0  0
  7 18  1  0  0  0  0
  8 21  1  0  0  0  0
  9 21  2  0  0  0  0
 10 22  1  0  0  0  0
 11 12  2  0  0  0  0
 11 23  1  0  0  0  0
 12 24  1  0  0  0  0
 13 20  1  0  0  0  0
 13 22  2  0  0  0  0
 14 24  2  0  0  0  0
 14 25  1  0  0  0  0
 15 26  1  0  0  0  0
 16 26  1  0  0  0  0
 16 27  2  0  0  0  0
 16 31  1  0  0  0  0
 17 19  2  0  0  0  0
 17 36  1  0  0  0  0
 18 20  2  0  0  0  0
 18 37  1  0  0  0  0
 19 45  1  0  0  0  0
 20 38  1  0  0  0  0
 21 78  1  0  0  0  0
 22 79  1  0  0  0  0
 23 25  2  0  0  0  0
 23 78  1  0  0  0  0
 24 80  1  0  0  0  0
 25 81  1  0  0  0  0
 26 61  2  0  0  0  0
 27 65  1  0  0  0  0
 27 68  1  0  0  0  0
 28 32  1  0  0  0  0
 28 62  2  0  0  0  0
 28 63  1  0  0  0  0
 29 48  1  0  0  0  0
 29 62  1  0  0  0  0
 29 64  2  0  0  0  0
 30 54  1  0  0  0  0
 30 63  2  0  0  0  0
 30 64  1  0  0  0  0
 31 69  1  0  0  0  0
 31 73  2  0  0  0  0
 32 66  1  0  0  0  0
 32 74  2  0  0  0  0
 33 46  1  0  0  0  0
 33 70  1  0  0  0  0
 33 75  2  0  0  0  0
 34 58  1  0  0  0  0
 34 67  1  0  0  0  0
 34 76  2  0  0  0  0
 35 59  1  0  0  0  0
 35 71  1  0  0  0  0
 35 77  2  0  0  0  0
 36 39  1  0  0  0  0
 37 46  1  0  0  0  0
 38 67  1  0  0  0  0
 39 41  1  0  0  0  0
 40 42  1  0  0  0  0
 40 43  1  0  0  0  0
 41 45  1  0  0  0  0
 42 47  1  0  0  0  0
 43 66  1  0  0  0  0
 44 47  1  0  0  0  0
 44 66  1  0  0  0  0
 45 70  1  0  0  0  0
 46 67  1  0  0  0  0
 47 65  1  0  0  0  0
 49 59  1  0  0  0  0
 50 60  1  0  0  0  0
 51 60  1  0  0  0  0
 52 60  1  0  0  0  0
 53 72  1  0  0  0  0
 54 55  1  0  0  0  0
 55 56  1  0  0  0  0
 56 57  1  0  0  0  0
 57 79  1  0  0  0  0
 58 60  1  0  0  0  0
 58 71  1  0  0  0  0
 59 72  1  0  0  0  0
 61 65  1  0  0  0  0
M  CHG  1  72   1
M  ISO  4  28 100  32 100  57 101  79 101
M  END
> <Batch ID>
0057

> <Smiles>
CNC(C)C(=O)NC(C(=O)N1Cc2cc([101O:1][101CH2:1]CCCc3nc(C)n[100c:0]([100C:0](=O)N4CCCC(n5nc(-c6ccc(Oc7ccc(F)cc7F)cc6)c(C(N)=O)c5N)C4)n3)ccc2CC1C(=O)NC1CCCc2ccccc21)C(C)(C)C

> <Shape>
0.131

> <Color>
0.173

> <Negative vol penalty>
0.000

$$$$

  -OEChem-04052317483D

 80 88  0     1  0  0  0  0  0999 V2000
  -23.4239  -18.5231   25.7770 C   0  0  0  0  0  0  0  0  0  0  0  0
  -24.2640  -19.6275   25.6901 C   0  0  0  0  0  0  0  0  0  0  0  0
  -24.4877  -13.4453   21.4081 C   0  0  0  0  0  0  0  0  0  0  0  0
  -26.7026  -12.8485   20.6499 C   0  0  0  0  0  0  0  0  0  0  0  0
  -22.3033  -18.4381   24.9535 C   0  0  0  0  0  0  0  0  0  0  0  0
  -23.9772  -20.6528   24.7881 C   0  0  0  0  0  0  0  0  0  0  0  0
  -27.1119  -25.6857   23.3845 C   0  0  0  0  0  0  0  0  0  0  0  0
  -23.9811  -12.2702   20.8532 C   0  0  0  0  0  0  0  0  0  0  0  0
  -26.1960  -11.6733   20.0950 C   0  0  0  0  0  0  0  0  0  0  0  0
  -28.0740  -26.0724   22.4524 C   0  0  0  0  0  0  0  0  0  0  0  0
  -22.1651   -9.2531   19.9506 C   0  0  0  0  0  0  0  0  0  0  0  0
  -21.2729   -8.5053   20.7188 C   0  0  0  0  0  0  0  0  0  0  0  0
  -26.3373  -26.9794   21.0451 C   0  0  0  0  0  0  0  0  0  0  0  0
  -22.9640   -8.2391   22.4236 C   0  0  0  0  0  0  0  0  0  0  0  0
  -31.4313  -24.1409   19.0172 C   0  0  0  0  0  0  0  0  0  0  0  0
  -25.8485  -13.7345   21.3064 C   0  0  0  0  0  0  0  0  0  0  0  0
  -26.8678  -15.1281   23.1844 C   0  0  0  0  0  0  0  0  0  0  0  0
  -22.0102  -19.4574   24.0326 C   0  0  0  0  0  0  0  0  0  0  0  0
  -25.7521  -25.9336   23.1484 C   0  0  0  0  0  0  0  0  0  0  0  0
  -22.8377  -20.5967   23.9653 C   0  0  0  0  0  0  0  0  0  0  0  0
  -25.3602  -26.5972   21.9770 C   0  0  0  0  0  0  0  0  0  0  0  0
  -24.8352  -11.3842   20.1967 C   0  0  0  0  0  0  0  0  0  0  0  0
  -27.6865  -26.7168   21.2812 C   0  0  0  0  0  0  0  0  0  0  0  0
  -23.4568   -9.4939   20.4188 C   0  0  0  0  0  0  0  0  0  0  0  0
  -21.6723   -7.9982   21.9553 C   0  0  0  0  0  0  0  0  0  0  0  0
  -23.8563   -8.9869   21.6553 C   0  0  0  0  0  0  0  0  0  0  0  0
  -26.3724  -14.9486   21.8790 C   0  0  0  0  0  0  0  0  0  0  0  0
  -30.4022  -23.5140   18.3007 C   0  0  0  0  0  0  0  0  0  0  0  0
  -27.2408  -16.4491   23.2315 C   0  0  0  0  0  0  0  0  0  0  0  0
  -26.9809  -14.1850   24.2584 C   0  0  0  0  0  0  0  0  0  0  0  0
  -23.1690  -24.1154   22.7942 C   0  0  0  0  0  0  0  0  0  0  0  0
  -21.6375  -26.9749   22.7690 C   0  0  0  0  0  0  0  0  0  0  0  0
  -21.7896  -30.3381   22.2102 C   0  0  0  0  0  0  0  0  0  0  0  0
  -28.9249  -20.2136   19.0068 C   0  0  0  0  0  0  0  0  0  0  0  0
  -20.7799  -19.3178   23.1710 C   0  0  0  0  0  0  0  0  0  0  0  0
  -24.7290  -25.5341   24.1761 C   0  0  0  0  0  0  0  0  0  0  0  0
  -23.9149  -26.9049   21.6855 C   0  0  0  0  0  0  0  0  0  0  0  0
  -20.8041  -20.2290   21.9481 C   0  0  0  0  0  0  0  0  0  0  0  0
  -26.1861  -20.7084   21.3202 C   0  0  0  0  0  0  0  0  0  0  0  0
  -21.1543  -21.6495   22.3652 C   0  0  0  0  0  0  0  0  0  0  0  0
  -25.9751  -19.2889   21.8498 C   0  0  0  0  0  0  0  0  0  0  0  0
  -26.5438  -20.6976   19.8369 C   0  0  0  0  0  0  0  0  0  0  0  0
  -27.5205  -18.4426   20.0235 C   0  0  0  0  0  0  0  0  0  0  0  0
  -22.5626  -21.7096   22.9702 C   0  0  1  0  0  0  0  0  0  0  0  0
  -23.3274  -25.3773   23.5944 C   0  0  1  0  0  0  0  0  0  0  0  0
  -27.1782  -18.3844   21.5234 C   0  0  2  0  0  0  0  0  0  0  0  0
  -30.1913  -21.7601   16.5005 C   0  0  0  0  0  0  0  0  0  0  0  0
  -20.3677  -32.4056   22.2361 C   0  0  0  0  0  0  0  0  0  0  0  0
  -20.3581  -26.1250   20.1326 C   0  0  0  0  0  0  0  0  0  0  0  0
  -19.7360  -28.5187   19.7432 C   0  0  0  0  0  0  0  0  0  0  0  0
  -18.8130  -27.2964   21.7121 C   0  0  0  0  0  0  0  0  0  0  0  0
  -23.4646  -31.6043   24.2959 C   0  0  0  0  0  0  0  0  0  0  0  0
  -29.4339  -26.8957   18.1034 C   0  0  0  0  0  0  0  0  0  0  0  0
  -28.2223  -27.1248   19.0003 C   0  0  0  0  0  0  0  0  0  1  0  0
  -30.2107  -22.0871   18.0099 C   0  0  2  0  0  0  0  0  0  0  0  0
  -21.2497  -27.9706   21.7027 C   0  0  1  0  0  0  0  0  0  0  0  0
  -21.3102  -31.5190   23.0349 C   0  0  2  0  0  0  0  0  0  0  0  0
  -20.0663  -27.4703   20.8269 C   0  0  0  0  0  0  0  0  0  0  0  0
  -31.2246  -25.4605   19.0460 N   0  0  0  0  0  0  0  0  0  0  0  0
  -26.4243  -16.0662   21.1495 N   0  0  0  0  0  0  0  0  0  0  0  0
  -29.5298  -24.4284   17.8676 N   0  0  0  0  0  0  0  0  0  0  0  0
  -26.9568  -16.9607   21.9995 N   0  0  0  0  0  0  0  0  0  0  0  0
  -30.0825  -25.5545   18.3462 N   0  0  0  0  0  0  0  0  0  0  0  0
  -22.9516  -26.4886   22.7181 N   0  0  0  0  0  0  0  0  0  0  0  0
  -27.7080  -19.8332   19.5966 N   0  0  0  0  0  0  0  0  0  0  0  0
  -27.7806  -17.2114   24.2061 N   0  0  0  0  0  0  0  0  0  0  0  0
  -26.5508  -12.8690   24.0401 N   0  0  0  0  0  0  0  0  0  0  0  0
  -22.7756  -23.0213   23.5410 N   0  0  0  0  0  0  0  0  0  0  0  0
  -20.9912  -29.2291   22.3939 N   0  0  0  0  0  0  0  0  0  0  0  0
  -29.0188  -21.5462   18.6244 N   0  0  0  0  0  0  0  0  0  0  0  0
  -22.4685  -32.3446   23.4795 N   0  3  0  0  0  0  0  0  0  0  0  0
  -27.4343  -14.5040   25.3837 O   0  0  0  0  0  0  0  0  0  0  0  0
  -23.3860  -24.1335   21.5883 O   0  0  0  0  0  0  0  0  0  0  0  0
  -20.8074  -26.6462   23.6202 O   0  0  0  0  0  0  0  0  0  0  0  0
  -22.7719  -30.3950   21.4736 O   0  0  0  0  0  0  0  0  0  0  0  0
  -29.8612  -19.4250   18.8382 O   0  0  0  0  0  0  0  0  0  0  0  0
  -24.3412  -10.2373   19.6552 O   0  0  0  0  0  0  0  0  0  0  0  0
  -28.6234  -27.0947   20.3695 O   0  0  0  0  0  0  0  0  0  1  0  0
  -20.8149   -7.2814   22.6937 F   0  0  0  0  0  0  0  0  0  0  0  0
  -25.0955   -9.2159   22.1110 F   0  0  0  0  0  0  0  0  0  0  0  0
  1  2  1  0  0  0  0
  1  5  2  0  0  0  0
  2  6  2  0  0  0  0
  3  8  2  0  0  0  0
  3 16  1  0  0  0  0
  4  9  1  0  0  0  0
  4 16  2  0  0  0  0
  5 18  1  0  0  0  0
  6 20  1  0  0  0  0
  7 10  2  0  0  0  0
  7 19  1  0  0  0  0
  8 22  1  0  0  0  0
  9 22  2  0  0  0  0
 10 23  1  0  0  0  0
 11 12  2  0  0  0  0
 11 24  1  0  0  0  0
 12 25  1  0  0  0  0
 13 21  1  0  0  0  0
 13 23  2  0  0  0  0
 14 25  2  0  0  0  0
 14 26  1  0  0  0  0
 15 28  1  0  0  0  0
 15 59  2  0  0  0  0
 16 27  1  0  0  0  0
 17 27  1  0  0  0  0
 17 29  2  0  0  0  0
 17 30  1  0  0  0  0
 18 20  2  0  0  0  0
 18 35  1  0  0  0  0
 19 21  2  0  0  0  0
 19 36  1  0  0  0  0
 20 44  1  0  0  0  0
 21 37  1  0  0  0  0
 22 77  1  0  0  0  0
 23 78  1  0  0  0  0
 24 26  2  0  0  0  0
 24 77  1  0  0  0  0
 25 79  1  0  0  0  0
 26 80  1  0  0  0  0
 27 60  2  0  0  0  0
 28 55  1  0  0  0  0
 28 61  2  0  0  0  0
 29 62  1  0  0  0  0
 29 66  1  0  0  0  0
 30 67  1  0  0  0  0
 30 72  2  0  0  0  0
 31 45  1  0  0  0  0
 31 68  1  0  0  0  0
 31 73  2  0  0  0  0
 32 56  1  0  0  0  0
 32 64  1  0  0  0  0
 32 74  2  0  0  0  0
 33 57  1  0  0  0  0
 33 69  1  0  0  0  0
 33 75  2  0  0  0  0
 34 65  1  0  0  0  0
 34 70  1  0  0  0  0
 34 76  2  0  0  0  0
 35 38  1  0  0  0  0
 36 45  1  0  0  0  0
 37 64  1  0  0  0  0
 38 40  1  0  0  0  0
 39 41  1  0  0  0  0
 39 42  1  0  0  0  0
 40 44  1  0  0  0  0
 41 46  1  0  0  0  0
 42 65  1  0  0  0  0
 43 46  1  0  0  0  0
 43 65  1  0  0  0  0
 44 68  1  0  0  0  0
 45 64  1  0  0  0  0
 46 62  1  0  0  0  0
 47 55  1  0  0  0  0
 48 57  1  0  0  0  0
 49 58  1  0  0  0  0
 50 58  1  0  0  0  0
 51 58  1  0  0  0  0
 52 71  1  0  0  0  0
 53 54  1  0  0  0  0
 53 63  1  0  0  0  0
 54 78  1  0  0  0  0
 55 70  1  0  0  0  0
 56 58  1  0  0  0  0
 56 69  1  0  0  0  0
 57 71  1  0  0  0  0
 59 63  1  0  0  0  0
 60 62  1  0  0  0  0
 61 63  1  0  0  0  0
M  CHG  1  71   1
M  ISO  4  34 100  54 101  70 100  78 101
M  END
> <Batch ID>
0057

> <Smiles>
CNC(C)C(=O)NC(C(=O)N1Cc2cc([101O:1][101CH2:1]Cn3ncc(C(C)[100NH:0][100C:0](=O)N4CCCC(n5nc(-c6ccc(Oc7ccc(F)cc7F)cc6)c(C(N)=O)c5N)C4)n3)ccc2CC1C(=O)NC1CCCc2ccccc21)C(C)(C)C

> <Shape>
0.216

> <Color>
0.077

> <Negative vol penalty>
0.000

$$$$

  -OEChem-04052317483D

 82 90  0     1  0  0  0  0  0999 V2000
  -18.0291  -31.1521   19.9565 C   0  0  0  0  0  0  0  0  0  0  0  0
  -19.3410  -30.9286   19.5511 C   0  0  0  0  0  0  0  0  0  0  0  0
  -26.2799  -13.1330   21.7782 C   0  0  0  0  0  0  0  0  0  0  0  0
  -25.6836  -14.2610   19.7266 C   0  0  0  0  0  0  0  0  0  0  0  0
  -17.6603  -30.9175   21.2804 C   0  0  0  0  0  0  0  0  0  0  0  0
  -20.2852  -30.4715   20.4697 C   0  0  0  0  0  0  0  0  0  0  0  0
  -24.9499  -26.6596   19.3666 C   0  0  0  0  0  0  0  0  0  0  0  0
  -25.0704  -12.4389   21.7481 C   0  0  0  0  0  0  0  0  0  0  0  0
  -24.4741  -13.5668   19.6965 C   0  0  0  0  0  0  0  0  0  0  0  0
  -26.3053  -26.8808   19.1264 C   0  0  0  0  0  0  0  0  0  0  0  0
  -23.7699   -9.7694   20.1308 C   0  0  0  0  0  0  0  0  0  0  0  0
  -23.8015   -8.4003   20.3956 C   0  0  0  0  0  0  0  0  0  0  0  0
  -26.7763  -26.4909   21.4600 C   0  0  0  0  0  0  0  0  0  0  0  0
  -22.3296   -8.7313   22.2827 C   0  0  0  0  0  0  0  0  0  0  0  0
  -31.0364  -25.1227   21.0189 C   0  0  0  0  0  0  0  0  0  0  0  0
  -26.5865  -14.0441   20.7674 C   0  0  0  0  0  0  0  0  0  0  0  0
  -29.0583  -14.3651   20.2245 C   0  0  0  0  0  0  0  0  0  0  0  0
  -18.5981  -30.4480   22.2135 C   0  0  0  0  0  0  0  0  0  0  0  0
  -24.4953  -26.3626   20.6596 C   0  0  0  0  0  0  0  0  0  0  0  0
  -19.9289  -30.2316   21.8077 C   0  0  0  0  0  0  0  0  0  0  0  0
  -25.4149  -26.2638   21.7135 C   0  0  0  0  0  0  0  0  0  0  0  0
  -24.1675  -12.6558   20.7073 C   0  0  0  0  0  0  0  0  0  0  0  0
  -27.2184  -26.7993   20.1737 C   0  0  0  0  0  0  0  0  0  0  0  0
  -23.0183  -10.6195   20.9421 C   0  0  0  0  0  0  0  0  0  0  0  0
  -23.0813   -7.8812   21.4714 C   0  0  0  0  0  0  0  0  0  0  0  0
  -22.2981  -10.1004   22.0180 C   0  0  0  0  0  0  0  0  0  0  0  0
  -27.8355  -14.7618   20.7982 C   0  0  0  0  0  0  0  0  0  0  0  0
  -30.7809  -25.1470   19.6407 C   0  0  0  0  0  0  0  0  0  0  0  0
  -29.9277  -15.3834   20.5307 C   0  0  0  0  0  0  0  0  0  0  0  0
  -29.3796  -13.1820   19.4811 C   0  0  0  0  0  0  0  0  0  0  0  0
  -22.5233  -27.7643   22.7212 C   0  0  0  0  0  0  0  0  0  0  0  0
  -23.0154  -25.0548   24.4354 C   0  0  0  0  0  0  0  0  0  0  0  0
  -25.0239  -22.3805   25.1142 C   0  0  0  0  0  0  0  0  0  0  0  0
  -28.6284  -21.1962   21.9665 C   0  0  0  0  0  0  0  0  0  0  0  0
  -18.1637  -30.2540   23.6447 C   0  0  0  0  0  0  0  0  0  0  0  0
  -23.0334  -26.1004   20.8971 C   0  0  0  0  0  0  0  0  0  0  0  0
  -24.9806  -25.9280   23.1160 C   0  0  0  0  0  0  0  0  0  0  0  0
  -19.1359  -29.4126   24.4676 C   0  0  0  0  0  0  0  0  0  0  0  0
  -30.7411  -18.7723   23.8001 C   0  0  0  0  0  0  0  0  0  0  0  0
  -20.5705  -29.8776   24.2385 C   0  0  0  0  0  0  0  0  0  0  0  0
  -30.2795  -17.4314   23.2318 C   0  0  0  0  0  0  0  0  0  0  0  0
  -29.6334  -19.8202   23.7520 C   0  0  0  0  0  0  0  0  0  0  0  0
  -28.5830  -18.6719   21.8305 C   0  0  0  0  0  0  0  0  0  0  0  0
  -20.9760  -29.7122   22.7689 C   0  0  1  0  0  0  0  0  0  0  0  0
  -22.6168  -26.3115   22.3494 C   0  0  1  0  0  0  0  0  0  0  0  0
  -29.6900  -17.6070   21.8215 C   0  0  2  0  0  0  0  0  0  0  0  0
  -25.1786  -20.3577   26.5913 C   0  0  0  0  0  0  0  0  0  0  0  0
  -32.3301  -21.3251   19.3398 C   0  0  0  0  0  0  0  0  0  0  0  0
  -23.8039  -26.8341   26.7854 C   0  0  0  0  0  0  0  0  0  0  0  0
  -24.8330  -24.8261   27.8704 C   0  0  0  0  0  0  0  0  0  0  0  0
  -22.3843  -24.8678   27.3960 C   0  0  0  0  0  0  0  0  0  0  0  0
  -27.7574  -22.3689   19.9800 C   0  0  0  0  0  0  0  0  0  0  0  0
  -25.0284  -20.5432   22.7940 C   0  0  0  0  0  0  0  0  0  0  0  0
  -30.5214  -26.3304   18.7404 C   0  0  0  0  0  0  0  0  0  0  0  0
  -29.8549  -21.0898   19.7558 C   0  0  0  0  0  0  0  0  0  0  0  0
  -29.0389  -26.6750   18.6485 C   0  0  0  0  0  0  0  0  0  1  0  0
  -24.0140  -24.6168   25.4795 C   0  0  1  0  0  0  0  0  0  0  0  0
  -24.7186  -20.8994   25.2468 C   0  0  2  0  0  0  0  0  0  0  0  0
  -31.1564  -21.7601   20.2239 C   0  0  2  0  0  0  0  0  0  0  0  0
  -23.7671  -25.2945   26.8569 C   0  0  0  0  0  0  0  0  0  0  0  0
  -31.2103  -23.8619   21.4253 N   0  0  0  0  0  0  0  0  0  0  0  0
  -27.9168  -15.9402   21.4219 N   0  0  0  0  0  0  0  0  0  0  0  0
  -30.7909  -23.9021   19.1561 N   0  0  0  0  0  0  0  0  0  0  0  0
  -29.2011  -16.2926   21.2418 N   0  0  0  0  0  0  0  0  0  0  0  0
  -31.0507  -23.1977   20.2692 N   0  0  0  0  0  0  0  0  0  0  0  0
  -23.5399  -25.6864   23.2988 N   0  0  0  0  0  0  0  0  0  0  0  0
  -29.0615  -19.9359   22.4101 N   0  0  0  0  0  0  0  0  0  0  0  0
  -31.2350  -15.5809   20.2584 N   0  0  0  0  0  0  0  0  0  0  0  0
  -28.3679  -12.2383   19.2572 N   0  0  0  0  0  0  0  0  0  0  0  0
  -21.2843  -28.3276   22.4825 N   0  0  0  0  0  0  0  0  0  0  0  0
  -23.9579  -23.1594   25.5119 N   0  0  0  0  0  0  0  0  0  0  0  0
  -28.7109  -21.4527   20.5895 N   0  0  0  0  0  0  0  0  0  0  0  0
  -25.4053  -20.1306   24.1705 N   0  3  0  0  0  0  0  0  0  0  0  0
  -30.5339  -12.9602   19.0429 O   0  0  0  0  0  0  0  0  0  0  0  0
  -23.5024  -28.3319   23.1912 O   0  0  0  0  0  0  0  0  0  0  0  0
  -21.8149  -24.8380   24.6183 O   0  0  0  0  0  0  0  0  0  0  0  0
  -26.1018  -22.8042   24.7028 O   0  0  0  0  0  0  0  0  0  0  0  0
  -28.2017  -22.0474   22.7573 O   0  0  0  0  0  0  0  0  0  0  0  0
  -22.9873  -11.9785   20.6775 O   0  0  0  0  0  0  0  0  0  0  0  0
  -28.5418  -27.0154   19.9421 O   0  0  0  0  0  0  0  0  0  1  0  0
  -23.1105   -6.5662   21.7246 F   0  0  0  0  0  0  0  0  0  0  0  0
  -21.5732  -10.9119   22.8002 F   0  0  0  0  0  0  0  0  0  0  0  0
  1  2  1  0  0  0  0
  1  5  2  0  0  0  0
  2  6  2  0  0  0  0
  3  8  2  0  0  0  0
  3 16  1  0  0  0  0
  4  9  1  0  0  0  0
  4 16  2  0  0  0  0
  5 18  1  0  0  0  0
  6 20  1  0  0  0  0
  7 10  2  0  0  0  0
  7 19  1  0  0  0  0
  8 22  1  0  0  0  0
  9 22  2  0  0  0  0
 10 23  1  0  0  0  0
 11 12  2  0  0  0  0
 11 24  1  0  0  0  0
 12 25  1  0  0  0  0
 13 21  1  0  0  0  0
 13 23  2  0  0  0  0
 14 25  2  0  0  0  0
 14 26  1  0  0  0  0
 15 28  1  0  0  0  0
 15 61  2  0  0  0  0
 16 27  1  0  0  0  0
 17 27  1  0  0  0  0
 17 29  2  0  0  0  0
 17 30  1  0  0  0  0
 18 20  2  0  0  0  0
 18 35  1  0  0  0  0
 19 21  2  0  0  0  0
 19 36  1  0  0  0  0
 20 44  1  0  0  0  0
 21 37  1  0  0  0  0
 22 79  1  0  0  0  0
 23 80  1  0  0  0  0
 24 26  2  0  0  0  0
 24 79  1  0  0  0  0
 25 81  1  0  0  0  0
 26 82  1  0  0  0  0
 27 62  2  0  0  0  0
 28 54  1  0  0  0  0
 28 63  2  0  0  0  0
 29 64  1  0  0  0  0
 29 68  1  0  0  0  0
 30 69  1  0  0  0  0
 30 74  2  0  0  0  0
 31 45  1  0  0  0  0
 31 70  1  0  0  0  0
 31 75  2  0  0  0  0
 32 57  1  0  0  0  0
 32 66  1  0  0  0  0
 32 76  2  0  0  0  0
 33 58  1  0  0  0  0
 33 71  1  0  0  0  0
 33 77  2  0  0  0  0
 34 67  1  0  0  0  0
 34 72  1  0  0  0  0
 34 78  2  0  0  0  0
 35 38  1  0  0  0  0
 36 45  1  0  0  0  0
 37 66  1  0  0  0  0
 38 40  1  0  0  0  0
 39 41  1  0  0  0  0
 39 42  1  0  0  0  0
 40 44  1  0  0  0  0
 41 46  1  0  0  0  0
 42 67  1  0  0  0  0
 43 46  1  0  0  0  0
 43 67  1  0  0  0  0
 44 70  1  0  0  0  0
 45 66  1  0  0  0  0
 46 64  1  0  0  0  0
 47 58  1  0  0  0  0
 48 59  1  0  0  0  0
 49 60  1  0  0  0  0
 50 60  1  0  0  0  0
 51 60  1  0  0  0  0
 52 72  1  0  0  0  0
 53 73  1  0  0  0  0
 54 56  1  0  0  0  0
 55 59  1  0  0  0  0
 55 72  1  0  0  0  0
 56 80  1  0  0  0  0
 57 60  1  0  0  0  0
 57 71  1  0  0  0  0
 58 73  1  0  0  0  0
 59 65  1  0  0  0  0
 61 65  1  0  0  0  0
 62 64  1  0  0  0  0
 63 65  1  0  0  0  0
M  CHG  1  73   1
M  ISO  4  34 100  56 101  72 100  80 101
M  END
> <Batch ID>
0057

> <Smiles>
CNC(C)C(=O)NC(C(=O)N1Cc2cc([101O:1][101CH2:1]Cc3cnn(C(C)C[100N:0](C)[100C:0](=O)N4CCCC(n5nc(-c6ccc(Oc7ccc(F)cc7F)cc6)c(C(N)=O)c5N)C4)n3)ccc2CC1C(=O)NC1CCCc2ccccc21)C(C)(C)C

> <Shape>
0.241

> <Color>
0.082

> <Negative vol penalty>
0.000

$$$$

  -OEChem-04052317483D

 82 90  0     1  0  0  0  0  0999 V2000
  -29.2247  -11.9150   21.0948 C   0  0  0  0  0  0  0  0  0  0  0  0
  -29.2952  -13.2368   20.6666 C   0  0  0  0  0  0  0  0  0  0  0  0
  -23.8351  -29.8484   20.8360 C   0  0  0  0  0  0  0  0  0  0  0  0
  -23.0544  -27.6564   20.1858 C   0  0  0  0  0  0  0  0  0  0  0  0
  -28.0056  -11.2390   21.0686 C   0  0  0  0  0  0  0  0  0  0  0  0
  -28.1466  -13.8830   20.2109 C   0  0  0  0  0  0  0  0  0  0  0  0
  -27.6806  -18.5657   22.0817 C   0  0  0  0  0  0  0  0  0  0  0  0
  -22.5395  -30.1967   21.2177 C   0  0  0  0  0  0  0  0  0  0  0  0
  -21.7587  -28.0047   20.5675 C   0  0  0  0  0  0  0  0  0  0  0  0
  -28.4631  -19.5636   21.5024 C   0  0  0  0  0  0  0  0  0  0  0  0
  -19.9967  -28.2719   23.4388 C   0  0  0  0  0  0  0  0  0  0  0  0
  -19.2723  -27.3450   24.1884 C   0  0  0  0  0  0  0  0  0  0  0  0
  -26.5641  -20.2914   20.2051 C   0  0  0  0  0  0  0  0  0  0  0  0
  -17.5872  -27.2635   22.4590 C   0  0  0  0  0  0  0  0  0  0  0  0
  -31.0425  -23.8669   20.1524 C   0  0  0  0  0  0  0  0  0  0  0  0
  -24.0925  -28.5782   20.3200 C   0  0  0  0  0  0  0  0  0  0  0  0
  -26.4237  -27.6259   20.7281 C   0  0  0  0  0  0  0  0  0  0  0  0
  -26.8397  -11.8803   20.6215 C   0  0  0  0  0  0  0  0  0  0  0  0
  -26.3345  -18.4160   21.7183 C   0  0  0  0  0  0  0  0  0  0  0  0
  -26.9110  -13.2146   20.1775 C   0  0  0  0  0  0  0  0  0  0  0  0
  -25.7659  -19.2924   20.7831 C   0  0  0  0  0  0  0  0  0  0  0  0
  -21.5013  -29.2748   21.0835 C   0  0  0  0  0  0  0  0  0  0  0  0
  -27.9057  -20.4248   20.5618 C   0  0  0  0  0  0  0  0  0  0  0  0
  -19.5163  -28.6946   22.1994 C   0  0  0  0  0  0  0  0  0  0  0  0
  -18.0676  -26.8408   23.6985 C   0  0  0  0  0  0  0  0  0  0  0  0
  -18.3115  -28.1904   21.7095 C   0  0  0  0  0  0  0  0  0  0  0  0
  -25.4306  -28.2181   19.9250 C   0  0  0  0  0  0  0  0  0  0  0  0
  -30.6894  -22.6276   19.6982 C   0  0  0  0  0  0  0  0  0  0  0  0
  -27.5045  -27.4881   19.8918 C   0  0  0  0  0  0  0  0  0  0  0  0
  -31.6173  -23.7318   18.0188 C   0  0  0  0  0  0  0  0  0  0  0  0
  -26.3737  -27.2353   22.1067 C   0  0  0  0  0  0  0  0  0  0  0  0
  -24.6207  -16.1082   20.3615 C   0  0  0  0  0  0  0  0  0  0  0  0
  -22.1423  -18.0928   21.0260 C   0  0  0  0  0  0  0  0  0  0  0  0
  -21.0594  -21.2704   21.6399 C   0  0  0  0  0  0  0  0  0  0  0  0
  -29.6888  -26.0730   14.9550 C   0  0  0  0  0  0  0  0  0  0  0  0
  -25.5539  -11.0938   20.5670 C   0  0  0  0  0  0  0  0  0  0  0  0
  -25.4967  -17.3515   22.3722 C   0  0  0  0  0  0  0  0  0  0  0  0
  -24.3203  -19.1866   20.3738 C   0  0  0  0  0  0  0  0  0  0  0  0
  -24.3109  -11.9680   20.4222 C   0  0  0  0  0  0  0  0  0  0  0  0
  -28.3487  -29.3567   15.2677 C   0  0  0  0  0  0  0  0  0  0  0  0
  -24.5222  -13.0215   19.3395 C   0  0  0  0  0  0  0  0  0  0  0  0
  -27.5473  -29.3023   16.5696 C   0  0  0  0  0  0  0  0  0  0  0  0
  -28.2591  -28.0429   14.4945 C   0  0  0  0  0  0  0  0  0  0  0  0
  -27.8247  -26.7880   16.5707 C   0  0  0  0  0  0  0  0  0  0  0  0
  -25.6823  -13.9575   19.6996 C   0  0  1  0  0  0  0  0  0  0  0  0
  -24.2735  -16.9633   21.5473 C   0  0  1  0  0  0  0  0  0  0  0  0
  -27.9302  -28.0711   17.4126 C   0  0  2  0  0  0  0  0  0  0  0  0
  -18.9737  -22.5846   22.1091 C   0  0  0  0  0  0  0  0  0  0  0  0
  -33.3182  -23.1818   16.1477 C   0  0  0  0  0  0  0  0  0  0  0  0
  -32.7564  -25.5352   16.6968 C   0  0  0  0  0  0  0  0  0  0  0  0
  -21.3601  -17.8976   18.0832 C   0  0  0  0  0  0  0  0  0  0  0  0
  -19.9110  -19.9134   18.4067 C   0  0  0  0  0  0  0  0  0  0  0  0
  -19.4376  -17.8218   19.6809 C   0  0  0  0  0  0  0  0  0  0  0  0
  -30.8684  -21.4346   17.4936 C   0  0  0  0  0  0  0  0  0  0  0  0
  -22.0740  -22.1609   24.2736 C   0  0  0  0  0  0  0  0  0  0  0  0
  -30.0304  -21.4824   20.4091 C   0  0  0  0  0  0  0  0  0  1  0  0
  -31.0465  -24.0858   15.5611 C   0  0  0  0  0  0  0  0  0  0  0  0
  -21.4511  -19.2206   20.2985 C   0  0  1  0  0  0  0  0  0  0  0  0
  -20.1490  -21.8341   22.7159 C   0  0  2  0  0  0  0  0  0  0  0  0
  -32.1518  -24.0902   16.6816 C   0  0  0  0  0  0  0  0  0  0  0  0
  -20.5677  -18.7144   19.1234 C   0  0  0  0  0  0  0  0  0  0  0  0
  -25.8438  -28.4412   18.6746 N   0  0  0  0  0  0  0  0  0  0  0  0
  -31.0563  -22.5717   18.3752 N   0  0  0  0  0  0  0  0  0  0  0  0
  -27.1086  -27.9869   18.6857 N   0  0  0  0  0  0  0  0  0  0  0  0
  -31.6145  -24.5284   19.0925 N   0  3  0  0  0  0  0  0  0  0  0  0
  -23.5440  -18.1257   21.0366 N   0  0  0  0  0  0  0  0  0  0  0  0
  -28.6365  -26.9153   15.3502 N   0  0  0  0  0  0  0  0  0  0  0  0
  -28.7454  -26.9901   20.0778 N   0  0  0  0  0  0  0  0  0  0  0  0
  -25.1854  -27.4482   22.8187 N   0  0  0  0  0  0  0  0  0  0  0  0
  -25.2610  -14.9278   20.6872 N   0  0  0  0  0  0  0  0  0  0  0  0
  -20.7218  -19.9742   21.3127 N   0  0  0  0  0  0  0  0  0  0  0  0
  -29.9861  -25.0324   15.8265 N   0  0  0  0  0  0  0  0  0  0  0  0
  -20.9037  -22.7730   23.5933 N   0  3  0  0  0  0  0  0  0  0  0  0
  -27.3590  -26.7280   22.6943 O   0  0  0  0  0  0  0  0  0  0  0  0
  -24.3280  -16.4905   19.2346 O   0  0  0  0  0  0  0  0  0  0  0  0
  -21.4636  -17.2189   21.5711 O   0  0  0  0  0  0  0  0  0  0  0  0
  -21.9759  -21.9167   21.1370 O   0  0  0  0  0  0  0  0  0  0  0  0
  -30.3204  -26.2394   13.9060 O   0  0  0  0  0  0  0  0  0  0  0  0
  -20.2370  -29.6142   21.4561 O   0  0  0  0  0  0  0  0  0  0  0  0
  -28.6675  -21.3993   19.9944 O   0  0  0  0  0  0  0  0  0  1  0  0
  -17.3728  -25.9496   24.4177 F   0  0  0  0  0  0  0  0  0  0  0  0
  -17.8455  -28.5919   20.5189 F   0  0  0  0  0  0  0  0  0  0  0  0
  1  2  1  0  0  0  0
  1  5  2  0  0  0  0
  2  6  2  0  0  0  0
  3  8  2  0  0  0  0
  3 16  1  0  0  0  0
  4  9  1  0  0  0  0
  4 16  2  0  0  0  0
  5 18  1  0  0  0  0
  6 20  1  0  0  0  0
  7 10  2  0  0  0  0
  7 19  1  0  0  0  0
  8 22  1  0  0  0  0
  9 22  2  0  0  0  0
 10 23  1  0  0  0  0
 11 12  2  0  0  0  0
 11 24  1  0  0  0  0
 12 25  1  0  0  0  0
 13 21  1  0  0  0  0
 13 23  2  0  0  0  0
 14 25  2  0  0  0  0
 14 26  1  0  0  0  0
 15 28  2  0  0  0  0
 15 65  1  0  0  0  0
 16 27  1  0  0  0  0
 17 27  1  0  0  0  0
 17 29  2  0  0  0  0
 17 31  1  0  0  0  0
 18 20  2  0  0  0  0
 18 36  1  0  0  0  0
 19 21  2  0  0  0  0
 19 37  1  0  0  0  0
 20 45  1  0  0  0  0
 21 38  1  0  0  0  0
 22 79  1  0  0  0  0
 23 80  1  0  0  0  0
 24 26  2  0  0  0  0
 24 79  1  0  0  0  0
 25 81  1  0  0  0  0
 26 82  1  0  0  0  0
 27 62  2  0  0  0  0
 28 56  1  0  0  0  0
 28 63  1  0  0  0  0
 29 64  1  0  0  0  0
 29 68  1  0  0  0  0
 30 60  1  0  0  0  0
 30 63  1  0  0  0  0
 30 65  2  0  0  0  0
 31 69  1  0  0  0  0
 31 74  2  0  0  0  0
 32 46  1  0  0  0  0
 32 70  1  0  0  0  0
 32 75  2  0  0  0  0
 33 58  1  0  0  0  0
 33 66  1  0  0  0  0
 33 76  2  0  0  0  0
 34 59  1  0  0  0  0
 34 71  1  0  0  0  0
 34 77  2  0  0  0  0
 35 67  1  0  0  0  0
 35 72  1  0  0  0  0
 35 78  2  0  0  0  0
 36 39  1  0  0  0  0
 37 46  1  0  0  0  0
 38 66  1  0  0  0  0
 39 41  1  0  0  0  0
 40 42  1  0  0  0  0
 40 43  1  0  0  0  0
 41 45  1  0  0  0  0
 42 47  1  0  0  0  0
 43 67  1  0  0  0  0
 44 47  1  0  0  0  0
 44 67  1  0  0  0  0
 45 70  1  0  0  0  0
 46 66  1  0  0  0  0
 47 64  1  0  0  0  0
 48 59  1  0  0  0  0
 49 60  1  0  0  0  0
 50 60  1  0  0  0  0
 51 61  1  0  0  0  0
 52 61  1  0  0  0  0
 53 61  1  0  0  0  0
 54 63  1  0  0  0  0
 55 73  1  0  0  0  0
 56 80  1  0  0  0  0
 57 60  1  0  0  0  0
 57 72  1  0  0  0  0
 58 61  1  0  0  0  0
 58 71  1  0  0  0  0
 59 73  1  0  0  0  0
 62 64  1  0  0  0  0
M  CHG  2  65   1  73   1
M  ISO  4  35 100  56 101  72 100  80 101
M  END
> <Batch ID>
0057

> <Smiles>
CNC(C)C(=O)NC(C(=O)N1Cc2cc([101O:1][101CH2:1]c3cnc(C(C)(C)C[100NH:0][100C:0](=O)N4CCCC(n5nc(-c6ccc(Oc7ccc(F)cc7F)cc6)c(C(N)=O)c5N)C4)n3C)ccc2CC1C(=O)NC1CCCc2ccccc21)C(C)(C)C

> <Shape>
0.197

> <Color>
0.074

> <Negative vol penalty>
0.000

$$$$

  -OEChem-04052317483D

 84 92  0     1  0  0  0  0  0999 V2000
  -36.8525  -26.3567   19.6884 C   0  0  0  0  0  0  0  0  0  0  0  0
  -36.2263  -25.3003   20.3421 C   0  0  0  0  0  0  0  0  0  0  0  0
  -23.1888   -9.8309   19.9604 C   0  0  0  0  0  0  0  0  0  0  0  0
  -23.5801  -10.0483   22.3346 C   0  0  0  0  0  0  0  0  0  0  0  0
  -36.0870  -27.3423   19.0668 C   0  0  0  0  0  0  0  0  0  0  0  0
  -34.8341  -25.2296   20.3756 C   0  0  0  0  0  0  0  0  0  0  0  0
  -33.1009  -20.5752   19.3866 C   0  0  0  0  0  0  0  0  0  0  0  0
  -22.4203   -8.6900   20.1915 C   0  0  0  0  0  0  0  0  0  0  0  0
  -22.8116   -8.9074   22.5657 C   0  0  0  0  0  0  0  0  0  0  0  0
  -33.1660  -19.6391   20.4178 C   0  0  0  0  0  0  0  0  0  0  0  0
  -23.2014   -5.5557   22.3533 C   0  0  0  0  0  0  0  0  0  0  0  0
  -23.7016   -4.6071   23.2452 C   0  0  0  0  0  0  0  0  0  0  0  0
  -30.8296  -20.0076   20.8916 C   0  0  0  0  0  0  0  0  0  0  0  0
  -21.7531   -4.8953   24.6444 C   0  0  0  0  0  0  0  0  0  0  0  0
  -32.6971  -15.3739   23.9106 C   0  0  0  0  0  0  0  0  0  0  0  0
  -23.7688  -10.5100   21.0319 C   0  0  0  0  0  0  0  0  0  0  0  0
  -24.1136  -13.0214   20.7461 C   0  0  0  0  0  0  0  0  0  0  0  0
  -34.6848  -27.2785   19.0844 C   0  0  0  0  0  0  0  0  0  0  0  0
  -31.9004  -21.2437   19.1069 C   0  0  0  0  0  0  0  0  0  0  0  0
  -34.0491  -26.2161   19.7548 C   0  0  0  0  0  0  0  0  0  0  0  0
  -30.7513  -20.9498   19.8548 C   0  0  0  0  0  0  0  0  0  0  0  0
  -22.2316   -8.2283   21.4941 C   0  0  0  0  0  0  0  0  0  0  0  0
  -32.0310  -19.3573   21.1723 C   0  0  0  0  0  0  0  0  0  0  0  0
  -21.9771   -6.1742   22.6069 C   0  0  0  0  0  0  0  0  0  0  0  0
  -22.9775   -4.2769   24.3907 C   0  0  0  0  0  0  0  0  0  0  0  0
  -21.2530   -5.8440   23.7524 C   0  0  0  0  0  0  0  0  0  0  0  0
  -24.5633  -11.6882   20.7938 C   0  0  0  0  0  0  0  0  0  0  0  0
  -31.6983  -14.4869   24.1979 C   0  0  0  0  0  0  0  0  0  0  0  0
  -25.2457  -13.7567   20.4930 C   0  0  0  0  0  0  0  0  0  0  0  0
  -31.0952  -16.4701   24.9748 C   0  0  0  0  0  0  0  0  0  0  0  0
  -22.7908  -13.5479   20.9154 C   0  0  0  0  0  0  0  0  0  0  0  0
  -30.9605  -24.2798   19.1508 C   0  0  0  0  0  0  0  0  0  0  0  0
  -28.2440  -23.0510   17.8730 C   0  0  0  0  0  0  0  0  0  0  0  0
  -26.2038  -20.3472   17.4557 C   0  0  0  0  0  0  0  0  0  0  0  0
  -31.0629  -12.7658   21.5076 C   0  0  0  0  0  0  0  0  0  0  0  0
  -33.8993  -28.3926   18.4390 C   0  0  0  0  0  0  0  0  0  0  0  0
  -31.8400  -22.2311   17.9739 C   0  0  0  0  0  0  0  0  0  0  0  0
  -29.4330  -21.6251   19.5814 C   0  0  0  0  0  0  0  0  0  0  0  0
  -32.4326  -28.0440   18.1990 C   0  0  0  0  0  0  0  0  0  0  0  0
  -29.5212  -13.4375   18.3694 C   0  0  0  0  0  0  0  0  0  0  0  0
  -31.8260  -27.4020   19.4427 C   0  0  0  0  0  0  0  0  0  0  0  0
  -28.0351  -13.1856   18.6306 C   0  0  0  0  0  0  0  0  0  0  0  0
  -30.4035  -12.4577   19.1398 C   0  0  0  0  0  0  0  0  0  0  0  0
  -28.6580  -12.1475   20.8517 C   0  0  0  0  0  0  0  0  0  0  0  0
  -32.5414  -26.0912   19.7916 C   0  0  1  0  0  0  0  0  0  0  0  0
  -30.6938  -23.2285   18.1110 C   0  0  1  0  0  0  0  0  0  0  0  0
  -27.7298  -13.1467   20.1401 C   0  0  2  0  0  0  0  0  0  0  0  0
  -24.0362  -19.6603   16.3942 C   0  0  0  0  0  0  0  0  0  0  0  0
  -34.4265  -17.7591   25.0631 C   0  0  0  0  0  0  0  0  0  0  0  0
  -28.9708  -17.0286   26.1724 C   0  0  0  0  0  0  0  0  0  0  0  0
  -26.7089  -24.4484   20.1093 C   0  0  0  0  0  0  0  0  0  0  0  0
  -24.7449  -22.9894   19.5780 C   0  0  0  0  0  0  0  0  0  0  0  0
  -25.6207  -24.5729   17.8610 C   0  0  0  0  0  0  0  0  0  0  0  0
  -27.5487  -18.3621   15.7209 C   0  0  0  0  0  0  0  0  0  0  0  0
  -31.5665  -13.0543   23.9206 C   0  0  0  0  0  0  0  0  0  0  0  0
  -33.3431  -18.3003   22.8507 C   0  0  0  0  0  0  0  0  0  1  0  0
  -26.9534  -22.5015   18.4312 C   0  0  1  0  0  0  0  0  0  0  0  0
  -25.5432  -19.7652   16.2191 C   0  0  2  0  0  0  0  0  0  0  0  0
  -33.1006  -17.8806   24.3070 C   0  0  1  0  0  0  0  0  0  0  0  0
  -30.3042  -17.5431   25.6275 C   0  0  0  0  0  0  0  0  0  0  0  0
  -26.0321  -23.6166   19.0015 C   0  0  0  0  0  0  0  0  0  0  0  0
  -25.8785  -11.5799   20.5875 N   0  0  0  0  0  0  0  0  0  0  0  0
  -32.2971  -16.5931   24.4022 N   0  0  0  0  0  0  0  0  0  0  0  0
  -26.2649  -12.8544   20.4075 N   0  0  0  0  0  0  0  0  0  0  0  0
  -30.7203  -15.1923   24.8567 N   0  3  0  0  0  0  0  0  0  0  0  0
  -29.4263  -22.5875   18.4673 N   0  0  0  0  0  0  0  0  0  0  0  0
  -30.0645  -12.4705   20.5648 N   0  0  0  0  0  0  0  0  0  0  0  0
  -25.4589  -15.0806   20.3374 N   0  0  0  0  0  0  0  0  0  0  0  0
  -21.7428  -12.6527   21.1694 N   0  0  0  0  0  0  0  0  0  0  0  0
  -32.0997  -25.0261   18.9170 N   0  0  0  0  0  0  0  0  0  0  0  0
  -26.3482  -21.7153   17.3616 N   0  0  0  0  0  0  0  0  0  0  0  0
  -30.6556  -12.7630   22.8361 N   0  0  0  0  0  0  0  0  0  0  0  0
  -26.0795  -18.4035   15.9376 N   0  3  0  0  0  0  0  0  0  0  0  0
  -22.5429  -14.7744   20.8274 O   0  0  0  0  0  0  0  0  0  0  0  0
  -30.1890  -24.4057   20.0946 O   0  0  0  0  0  0  0  0  0  0  0  0
  -28.2048  -23.8561   16.9393 O   0  0  0  0  0  0  0  0  0  0  0  0
  -26.5532  -19.6577   18.4113 O   0  0  0  0  0  0  0  0  0  0  0  0
  -32.2296  -13.0190   21.1887 O   0  0  0  0  0  0  0  0  0  0  0  0
  -21.4815   -7.1153   21.7200 O   0  0  0  0  0  0  0  0  0  0  0  0
  -32.0920  -18.4445   22.1798 O   0  0  0  0  0  0  0  0  0  1  0  0
  -23.4572   -3.3648   25.2464 F   0  0  0  0  0  0  0  0  0  0  0  0
  -20.0757   -6.4340   24.0008 F   0  0  0  0  0  0  0  0  0  0  0  0
  -30.0097  -18.5896   24.7863 F   0  0  0  0  0  0  0  0  0  0  0  0
  -30.9586  -18.1369   26.6805 F   0  0  0  0  0  0  0  0  0  0  0  0
  1  2  1  0  0  0  0
  1  5  2  0  0  0  0
  2  6  2  0  0  0  0
  3  8  2  0  0  0  0
  3 16  1  0  0  0  0
  4  9  1  0  0  0  0
  4 16  2  0  0  0  0
  5 18  1  0  0  0  0
  6 20  1  0  0  0  0
  7 10  2  0  0  0  0
  7 19  1  0  0  0  0
  8 22  1  0  0  0  0
  9 22  2  0  0  0  0
 10 23  1  0  0  0  0
 11 12  2  0  0  0  0
 11 24  1  0  0  0  0
 12 25  1  0  0  0  0
 13 21  1  0  0  0  0
 13 23  2  0  0  0  0
 14 25  2  0  0  0  0
 14 26  1  0  0  0  0
 15 28  2  0  0  0  0
 15 63  1  0  0  0  0
 16 27  1  0  0  0  0
 17 27  1  0  0  0  0
 17 29  2  0  0  0  0
 17 31  1  0  0  0  0
 18 20  2  0  0  0  0
 18 36  1  0  0  0  0
 19 21  2  0  0  0  0
 19 37  1  0  0  0  0
 20 45  1  0  0  0  0
 21 38  1  0  0  0  0
 22 79  1  0  0  0  0
 23 80  1  0  0  0  0
 24 26  2  0  0  0  0
 24 79  1  0  0  0  0
 25 81  1  0  0  0  0
 26 82  1  0  0  0  0
 27 62  2  0  0  0  0
 28 55  1  0  0  0  0
 28 65  1  0  0  0  0
 29 64  1  0  0  0  0
 29 68  1  0  0  0  0
 30 60  1  0  0  0  0
 30 63  1  0  0  0  0
 30 65  2  0  0  0  0
 31 69  1  0  0  0  0
 31 74  2  0  0  0  0
 32 46  1  0  0  0  0
 32 70  1  0  0  0  0
 32 75  2  0  0  0  0
 33 57  1  0  0  0  0
 33 66  1  0  0  0  0
 33 76  2  0  0  0  0
 34 58  1  0  0  0  0
 34 71  1  0  0  0  0
 34 77  2  0  0  0  0
 35 67  1  0  0  0  0
 35 72  1  0  0  0  0
 35 78  2  0  0  0  0
 36 39  1  0  0  0  0
 37 46  1  0  0  0  0
 38 66  1  0  0  0  0
 39 41  1  0  0  0  0
 40 42  1  0  0  0  0
 40 43  1  0  0  0  0
 41 45  1  0  0  0  0
 42 47  1  0  0  0  0
 43 67  1  0  0  0  0
 44 47  1  0  0  0  0
 44 67  1  0  0  0  0
 45 70  1  0  0  0  0
 46 66  1  0  0  0  0
 47 64  1  0  0  0  0
 48 58  1  0  0  0  0
 49 59  1  0  0  0  0
 50 60  1  0  0  0  0
 51 61  1  0  0  0  0
 52 61  1  0  0  0  0
 53 61  1  0  0  0  0
 54 73  1  0  0  0  0
 55 72  1  0  0  0  0
 56 59  1  0  0  0  0
 56 80  1  0  0  0  0
 57 61  1  0  0  0  0
 57 71  1  0  0  0  0
 58 73  1  0  0  0  0
 59 63  1  0  0  0  0
 60 83  1  0  0  0  0
 60 84  1  0  0  0  0
 62 64  1  0  0  0  0
M  CHG  2  65   1  73   1
M  ISO  4  35 100  56 101  72 100  80 101
M  END
> <Batch ID>
0057

> <Smiles>
CNC(C)C(=O)NC(C(=O)N1Cc2cc([101O:1][101CH2:1]C(C)n3cc(C[100NH:0][100C:0](=O)N4CCCC(n5nc(-c6ccc(Oc7ccc(F)cc7F)cc6)c(C(N)=O)c5N)C4)nc3C(C)(F)F)ccc2CC1C(=O)NC1CCCc2ccccc21)C(C)(C)C

> <Shape>
0.200

> <Color>
0.187

> <Negative vol penalty>
0.000

$$$$

  -OEChem-04052317483D

 81 89  0     1  0  0  0  0  0999 V2000
  -26.6973  -28.5401   22.8693 C   0  0  0  0  0  0  0  0  0  0  0  0
  -26.9851  -27.2225   23.2105 C   0  0  0  0  0  0  0  0  0  0  0  0
  -23.2871   -9.7962   19.9176 C   0  0  0  0  0  0  0  0  0  0  0  0
  -23.7249   -9.9491   22.2887 C   0  0  0  0  0  0  0  0  0  0  0  0
  -25.6111  -28.8236   22.0425 C   0  0  0  0  0  0  0  0  0  0  0  0
  -26.1860  -26.1876   22.7259 C   0  0  0  0  0  0  0  0  0  0  0  0
  -28.9042  -22.2731   21.0132 C   0  0  0  0  0  0  0  0  0  0  0  0
  -22.5564   -8.6269   20.1279 C   0  0  0  0  0  0  0  0  0  0  0  0
  -22.9942   -8.7797   22.4990 C   0  0  0  0  0  0  0  0  0  0  0  0
  -29.4394  -21.4051   21.9639 C   0  0  0  0  0  0  0  0  0  0  0  0
  -20.2724   -5.7991   20.0837 C   0  0  0  0  0  0  0  0  0  0  0  0
  -19.0483   -5.6723   19.4270 C   0  0  0  0  0  0  0  0  0  0  0  0
  -27.6365  -19.8554   21.5550 C   0  0  0  0  0  0  0  0  0  0  0  0
  -18.2408   -7.6532   20.5500 C   0  0  0  0  0  0  0  0  0  0  0  0
  -23.8715  -10.4573   20.9980 C   0  0  0  0  0  0  0  0  0  0  0  0
  -24.1389  -12.9854   20.7865 C   0  0  0  0  0  0  0  0  0  0  0  0
  -24.8041  -27.7909   21.5397 C   0  0  0  0  0  0  0  0  0  0  0  0
  -27.7232  -21.9432   20.3329 C   0  0  0  0  0  0  0  0  0  0  0  0
  -25.0871  -26.4576   21.8927 C   0  0  0  0  0  0  0  0  0  0  0  0
  -27.0898  -20.7198   20.5943 C   0  0  0  0  0  0  0  0  0  0  0  0
  -22.4099   -8.1187   21.4186 C   0  0  0  0  0  0  0  0  0  0  0  0
  -28.8040  -20.1973   22.2370 C   0  0  0  0  0  0  0  0  0  0  0  0
  -20.4806   -6.8529   20.9736 C   0  0  0  0  0  0  0  0  0  0  0  0
  -18.0325   -6.5994   19.6601 C   0  0  0  0  0  0  0  0  0  0  0  0
  -19.4648   -7.7799   21.2067 C   0  0  0  0  0  0  0  0  0  0  0  0
  -24.6269  -11.6650   20.7813 C   0  0  0  0  0  0  0  0  0  0  0  0
  -25.2439  -13.7609   20.5333 C   0  0  0  0  0  0  0  0  0  0  0  0
  -33.0541  -14.2313   24.8701 C   0  0  0  0  0  0  0  0  0  0  0  0
  -31.3067  -14.8875   23.9355 C   0  0  0  0  0  0  0  0  0  0  0  0
  -22.8059  -13.4680   21.0011 C   0  0  0  0  0  0  0  0  0  0  0  0
  -24.8204  -23.2220   20.1284 C   0  0  0  0  0  0  0  0  0  0  0  0
  -31.1113  -12.7873   21.3922 C   0  0  0  0  0  0  0  0  0  0  0  0
  -24.3827  -20.9068   17.8989 C   0  0  0  0  0  0  0  0  0  0  0  0
  -25.3002  -17.8585   16.6689 C   0  0  0  0  0  0  0  0  0  0  0  0
  -23.6125  -28.1501   20.6877 C   0  0  0  0  0  0  0  0  0  0  0  0
  -27.1734  -22.8784   19.2911 C   0  0  0  0  0  0  0  0  0  0  0  0
  -25.8307  -20.3096   19.8768 C   0  0  0  0  0  0  0  0  0  0  0  0
  -23.0392  -26.9667   19.9124 C   0  0  0  0  0  0  0  0  0  0  0  0
  -29.4772  -13.6528   18.3229 C   0  0  0  0  0  0  0  0  0  0  0  0
  -22.8959  -25.7511   20.8227 C   0  0  0  0  0  0  0  0  0  0  0  0
  -28.0078  -13.3343   18.5963 C   0  0  0  0  0  0  0  0  0  0  0  0
  -30.4029  -12.6651   19.0263 C   0  0  0  0  0  0  0  0  0  0  0  0
  -28.7044  -12.2420   20.7750 C   0  0  0  0  0  0  0  0  0  0  0  0
  -24.2585  -25.3056   21.3668 C   0  0  1  0  0  0  0  0  0  0  0  0
  -25.6847  -22.6723   19.0291 C   0  0  1  0  0  0  0  0  0  0  0  0
  -27.7358  -13.2345   20.1078 C   0  0  2  0  0  0  0  0  0  0  0  0
  -34.2772  -14.2531   25.6808 C   0  0  0  0  0  0  0  0  0  0  0  0
  -30.7996  -11.2378   23.3098 C   0  0  0  0  0  0  0  0  0  0  0  0
  -24.7353  -16.2127   14.8608 C   0  0  0  0  0  0  0  0  0  0  0  0
  -21.9030  -20.0500   19.4568 C   0  0  0  0  0  0  0  0  0  0  0  0
  -21.9390  -17.8905   18.1905 C   0  0  0  0  0  0  0  0  0  0  0  0
  -21.6271  -20.0442   16.9712 C   0  0  0  0  0  0  0  0  0  0  0  0
  -28.0066  -18.0518   15.4871 C   0  0  0  0  0  0  0  0  0  0  0  0
  -30.1228  -15.6608   23.4122 C   0  0  0  0  0  0  0  0  0  0  0  0
  -30.2542  -17.1761   23.5794 C   0  0  0  0  0  0  0  0  0  0  0  0
  -29.0929  -17.9537   22.9710 C   0  0  0  0  0  0  0  0  0  1  0  0
  -30.7197  -12.6898   22.8452 C   0  0  1  0  0  0  0  0  0  0  0  0
  -23.8994  -19.4768   17.9232 C   0  0  1  0  0  0  0  0  0  0  0  0
  -25.6083  -17.3931   15.2572 C   0  0  2  0  0  0  0  0  0  0  0  0
  -22.3648  -19.3737   18.1505 C   0  0  0  0  0  0  0  0  0  0  0  0
  -25.9397  -11.6014   20.5435 N   0  0  0  0  0  0  0  0  0  0  0  0
  -32.2681  -15.3362   24.7088 N   0  0  0  0  0  0  0  0  0  0  0  0
  -32.6395  -13.1272   24.2453 N   0  0  0  0  0  0  0  0  0  0  0  0
  -26.2860  -12.8916   20.3968 N   0  0  0  0  0  0  0  0  0  0  0  0
  -31.5204  -13.5739   23.6552 N   0  0  0  0  0  0  0  0  0  0  0  0
  -25.3286  -21.2607   18.8714 N   0  0  0  0  0  0  0  0  0  0  0  0
  -30.0978  -12.5824   20.4558 N   0  0  0  0  0  0  0  0  0  0  0  0
  -25.4161  -15.0947   20.4163 N   0  0  0  0  0  0  0  0  0  0  0  0
  -21.7894  -12.5352   21.2482 N   0  0  0  0  0  0  0  0  0  0  0  0
  -24.9918  -24.5741   20.3560 N   0  0  0  0  0  0  0  0  0  0  0  0
  -24.3616  -18.8686   16.6804 N   0  0  0  0  0  0  0  0  0  0  0  0
  -27.0359  -16.9795   15.1481 N   0  3  0  0  0  0  0  0  0  0  0  0
  -22.5216  -14.6889   20.9583 O   0  0  0  0  0  0  0  0  0  0  0  0
  -24.0536  -22.4750   20.7249 O   0  0  0  0  0  0  0  0  0  0  0  0
  -32.2829  -13.0410   21.1002 O   0  0  0  0  0  0  0  0  0  0  0  0
  -23.9426  -21.6794   17.0439 O   0  0  0  0  0  0  0  0  0  0  0  0
  -25.8356  -17.3719   17.6625 O   0  0  0  0  0  0  0  0  0  0  0  0
  -21.6967   -6.9778   21.6242 O   0  0  0  0  0  0  0  0  0  0  0  0
  -29.3238  -19.3485   23.1650 O   0  0  0  0  0  0  0  0  0  1  0  0
  -16.8577   -6.4785   19.0282 F   0  0  0  0  0  0  0  0  0  0  0  0
  -19.6594   -8.7950   22.0596 F   0  0  0  0  0  0  0  0  0  0  0  0
  1  2  1  0  0  0  0
  1  5  2  0  0  0  0
  2  6  2  0  0  0  0
  3  8  2  0  0  0  0
  3 15  1  0  0  0  0
  4  9  1  0  0  0  0
  4 15  2  0  0  0  0
  5 17  1  0  0  0  0
  6 19  1  0  0  0  0
  7 10  2  0  0  0  0
  7 18  1  0  0  0  0
  8 21  1  0  0  0  0
  9 21  2  0  0  0  0
 10 22  1  0  0  0  0
 11 12  2  0  0  0  0
 11 23  1  0  0  0  0
 12 24  1  0  0  0  0
 13 20  1  0  0  0  0
 13 22  2  0  0  0  0
 14 24  2  0  0  0  0
 14 25  1  0  0  0  0
 15 26  1  0  0  0  0
 16 26  1  0  0  0  0
 16 27  2  0  0  0  0
 16 30  1  0  0  0  0
 17 19  2  0  0  0  0
 17 35  1  0  0  0  0
 18 20  2  0  0  0  0
 18 36  1  0  0  0  0
 19 44  1  0  0  0  0
 20 37  1  0  0  0  0
 21 78  1  0  0  0  0
 22 79  1  0  0  0  0
 23 25  2  0  0  0  0
 23 78  1  0  0  0  0
 24 80  1  0  0  0  0
 25 81  1  0  0  0  0
 26 61  2  0  0  0  0
 27 64  1  0  0  0  0
 27 68  1  0  0  0  0
 28 47  1  0  0  0  0
 28 62  1  0  0  0  0
 28 63  2  0  0  0  0
 29 54  1  0  0  0  0
 29 62  2  0  0  0  0
 29 65  1  0  0  0  0
 30 69  1  0  0  0  0
 30 73  2  0  0  0  0
 31 45  1  0  0  0  0
 31 70  1  0  0  0  0
 31 74  2  0  0  0  0
 32 57  1  0  0  0  0
 32 67  1  0  0  0  0
 32 75  2  0  0  0  0
 33 58  1  0  0  0  0
 33 66  1  0  0  0  0
 33 76  2  0  0  0  0
 34 59  1  0  0  0  0
 34 71  1  0  0  0  0
 34 77  2  0  0  0  0
 35 38  1  0  0  0  0
 36 45  1  0  0  0  0
 37 66  1  0  0  0  0
 38 40  1  0  0  0  0
 39 41  1  0  0  0  0
 39 42  1  0  0  0  0
 40 44  1  0  0  0  0
 41 46  1  0  0  0  0
 42 67  1  0  0  0  0
 43 46  1  0  0  0  0
 43 67  1  0  0  0  0
 44 70  1  0  0  0  0
 45 66  1  0  0  0  0
 46 64  1  0  0  0  0
 48 57  1  0  0  0  0
 49 59  1  0  0  0  0
 50 60  1  0  0  0  0
 51 60  1  0  0  0  0
 52 60  1  0  0  0  0
 53 72  1  0  0  0  0
 54 55  1  0  0  0  0
 55 56  1  0  0  0  0
 56 79  1  0  0  0  0
 57 65  1  0  0  0  0
 58 60  1  0  0  0  0
 58 71  1  0  0  0  0
 59 72  1  0  0  0  0
 61 64  1  0  0  0  0
 63 65  1  0  0  0  0
M  CHG  1  72   1
M  ISO  4  32 100  56 101  57 100  79 101
M  END
> <Batch ID>
0057

> <Smiles>
CNC(C)C(=O)NC(C(=O)N1Cc2cc([101O:1][101CH2:1]CCc3nc(C)nn3[100CH:0](C)[100C:0](=O)N3CCCC(n4nc(-c5ccc(Oc6ccc(F)cc6F)cc5)c(C(N)=O)c4N)C3)ccc2CC1C(=O)NC1CCCc2ccccc21)C(C)(C)C

> <Shape>
0.170

> <Color>
0.177

> <Negative vol penalty>
0.000

$$$$

  -OEChem-04052317483D

 81 89  0     1  0  0  0  0  0999 V2000
  -18.0328  -27.5670   22.9903 C   0  0  0  0  0  0  0  0  0  0  0  0
  -18.8294  -26.4531   22.7451 C   0  0  0  0  0  0  0  0  0  0  0  0
  -22.2074  -14.9068   20.7327 C   0  0  0  0  0  0  0  0  0  0  0  0
  -23.3666  -15.5848   22.7411 C   0  0  0  0  0  0  0  0  0  0  0  0
  -18.5821  -28.8461   22.9127 C   0  0  0  0  0  0  0  0  0  0  0  0
  -20.1756  -26.6179   22.4211 C   0  0  0  0  0  0  0  0  0  0  0  0
  -24.8138  -22.9328   23.9746 C   0  0  0  0  0  0  0  0  0  0  0  0
  -21.0996  -14.5390   21.4962 C   0  0  0  0  0  0  0  0  0  0  0  0
  -22.2587  -15.2171   23.5046 C   0  0  0  0  0  0  0  0  0  0  0  0
  -25.4824  -21.9238   23.2827 C   0  0  0  0  0  0  0  0  0  0  0  0
  -18.5002  -16.0774   23.0160 C   0  0  0  0  0  0  0  0  0  0  0  0
  -17.2410  -16.4692   22.5617 C   0  0  0  0  0  0  0  0  0  0  0  0
  -27.1903  -23.5026   22.6426 C   0  0  0  0  0  0  0  0  0  0  0  0
  -16.5687  -14.1525   22.4270 C   0  0  0  0  0  0  0  0  0  0  0  0
  -29.4358  -19.2664   18.6050 C   0  0  0  0  0  0  0  0  0  0  0  0
  -23.3410  -15.4296   21.3551 C   0  0  0  0  0  0  0  0  0  0  0  0
  -24.7434  -17.0687   19.9934 C   0  0  0  0  0  0  0  0  0  0  0  0
  -19.9380  -29.0262   22.5971 C   0  0  0  0  0  0  0  0  0  0  0  0
  -25.3237  -24.2390   23.9965 C   0  0  0  0  0  0  0  0  0  0  0  0
  -20.7432  -27.9007   22.3379 C   0  0  0  0  0  0  0  0  0  0  0  0
  -26.5277  -24.5258   23.3376 C   0  0  0  0  0  0  0  0  0  0  0  0
  -21.1251  -14.6942   22.8822 C   0  0  0  0  0  0  0  0  0  0  0  0
  -26.6693  -22.2092   22.6142 C   0  0  0  0  0  0  0  0  0  0  0  0
  -18.7938  -14.7231   23.1757 C   0  0  0  0  0  0  0  0  0  0  0  0
  -16.2752  -15.5068   22.2673 C   0  0  0  0  0  0  0  0  0  0  0  0
  -17.8280  -13.7607   22.8812 C   0  0  0  0  0  0  0  0  0  0  0  0
  -24.4859  -15.8091   20.5670 C   0  0  0  0  0  0  0  0  0  0  0  0
  -30.0590  -18.2504   19.2955 C   0  0  0  0  0  0  0  0  0  0  0  0
  -29.7073  -19.3692   21.2588 C   0  0  0  0  0  0  0  0  0  0  0  0
  -29.0848  -20.3855   20.5681 C   0  0  0  0  0  0  0  0  0  0  0  0
  -25.9478  -16.9140   19.3515 C   0  0  0  0  0  0  0  0  0  0  0  0
  -23.9636  -18.2711   20.0369 C   0  0  0  0  0  0  0  0  0  0  0  0
  -24.2835  -27.0701   22.9933 C   0  0  0  0  0  0  0  0  0  0  0  0
  -26.9488  -28.1462   24.4968 C   0  0  0  0  0  0  0  0  0  0  0  0
  -30.0892  -27.4819   25.6559 C   0  0  0  0  0  0  0  0  0  0  0  0
  -31.2629  -14.9431   19.7786 C   0  0  0  0  0  0  0  0  0  0  0  0
  -20.4755  -30.4304   22.4785 C   0  0  0  0  0  0  0  0  0  0  0  0
  -24.6045  -25.3102   24.7697 C   0  0  0  0  0  0  0  0  0  0  0  0
  -27.1276  -25.9073   23.3476 C   0  0  0  0  0  0  0  0  0  0  0  0
  -22.0002  -30.5025   22.4967 C   0  0  0  0  0  0  0  0  0  0  0  0
  -28.6430  -12.7695   18.3248 C   0  0  0  0  0  0  0  0  0  0  0  0
  -22.5954  -29.4542   21.5621 C   0  0  0  0  0  0  0  0  0  0  0  0
  -27.3541  -13.4395   18.7978 C   0  0  0  0  0  0  0  0  0  0  0  0
  -29.7983  -13.0175   19.2899 C   0  0  0  0  0  0  0  0  0  0  0  0
  -28.7558  -15.1268   20.0502 C   0  0  0  0  0  0  0  0  0  0  0  0
  -22.2138  -28.0374   22.0078 C   0  0  1  0  0  0  0  0  0  0  0  0
  -24.9452  -26.7198   24.2960 C   0  0  1  0  0  0  0  0  0  0  0  0
  -27.5835  -14.9352   19.0763 C   0  0  2  0  0  0  0  0  0  0  0  0
  -29.8627  -19.4180   22.7405 C   0  0  0  0  0  0  0  0  0  0  0  0
  -32.0360  -28.5709   26.8054 C   0  0  0  0  0  0  0  0  0  0  0  0
  -27.7031  -29.5429   21.8910 C   0  0  0  0  0  0  0  0  0  0  0  0
  -30.0305  -29.7919   22.7794 C   0  0  0  0  0  0  0  0  0  0  0  0
  -28.1242  -30.8892   23.9560 C   0  0  0  0  0  0  0  0  0  0  0  0
  -32.8358  -16.8320   19.5852 C   0  0  0  0  0  0  0  0  0  0  0  0
  -29.9138  -25.6311   27.9587 C   0  0  0  0  0  0  0  0  0  0  0  0
  -30.5984  -17.0661   18.5728 C   0  0  0  0  0  0  0  0  0  0  0  0
  -28.5342  -21.5890   21.2750 C   0  0  0  0  0  0  0  0  0  1  0  0
  -28.3846  -28.3781   24.0921 C   0  0  1  0  0  0  0  0  0  0  0  0
  -30.7536  -27.7744   26.9891 C   0  0  2  0  0  0  0  0  0  0  0  0
  -28.5486  -29.6248   23.1776 C   0  0  0  0  0  0  0  0  0  0  0  0
  -28.9376  -20.3523   19.2289 N   0  0  0  0  0  0  0  0  0  0  0  0
  -25.4492  -14.9198   20.3119 N   0  0  0  0  0  0  0  0  0  0  0  0
  -30.2059  -18.2835   20.6349 N   0  0  0  0  0  0  0  0  0  0  0  0
  -26.3237  -15.6214   19.5708 N   0  0  0  0  0  0  0  0  0  0  0  0
  -26.3838  -26.9220   24.1122 N   0  0  0  0  0  0  0  0  0  0  0  0
  -29.9666  -14.4437   19.5708 N   0  0  0  0  0  0  0  0  0  0  0  0
  -26.7113  -17.7588   18.6265 N   0  0  0  0  0  0  0  0  0  0  0  0
  -22.7516  -18.2563   20.7406 N   0  0  0  0  0  0  0  0  0  0  0  0
  -23.0259  -27.6255   23.1326 N   0  0  0  0  0  0  0  0  0  0  0  0
  -29.1529  -28.4404   25.3307 N   0  0  0  0  0  0  0  0  0  0  0  0
  -31.5044  -16.2724   19.4002 N   0  0  0  0  0  0  0  0  0  0  0  0
  -31.0866  -26.5030   27.6918 N   0  3  0  0  0  0  0  0  0  0  0  0
  -24.3228  -19.3227   19.4550 O   0  0  0  0  0  0  0  0  0  0  0  0
  -24.8710  -26.8540   21.9399 O   0  0  0  0  0  0  0  0  0  0  0  0
  -26.3529  -29.0161   25.1369 O   0  0  0  0  0  0  0  0  0  0  0  0
  -30.3751  -26.5032   24.9697 O   0  0  0  0  0  0  0  0  0  0  0  0
  -32.1561  -14.2378   20.2652 O   0  0  0  0  0  0  0  0  0  0  0  0
  -20.0442  -14.3357   23.6275 O   0  0  0  0  0  0  0  0  0  0  0  0
  -27.3235  -21.2263   21.9376 O   0  0  0  0  0  0  0  0  0  1  0  0
  -15.0655  -15.8832   21.8326 F   0  0  0  0  0  0  0  0  0  0  0  0
  -18.1038  -12.4582   23.0338 F   0  0  0  0  0  0  0  0  0  0  0  0
  1  2  1  0  0  0  0
  1  5  2  0  0  0  0
  2  6  2  0  0  0  0
  3  8  2  0  0  0  0
  3 16  1  0  0  0  0
  4  9  1  0  0  0  0
  4 16  2  0  0  0  0
  5 18  1  0  0  0  0
  6 20  1  0  0  0  0
  7 10  2  0  0  0  0
  7 19  1  0  0  0  0
  8 22  1  0  0  0  0
  9 22  2  0  0  0  0
 10 23  1  0  0  0  0
 11 12  2  0  0  0  0
 11 24  1  0  0  0  0
 12 25  1  0  0  0  0
 13 21  1  0  0  0  0
 13 23  2  0  0  0  0
 14 25  2  0  0  0  0
 14 26  1  0  0  0  0
 15 28  1  0  0  0  0
 15 61  2  0  0  0  0
 16 27  1  0  0  0  0
 17 27  1  0  0  0  0
 17 31  2  0  0  0  0
 17 32  1  0  0  0  0
 18 20  2  0  0  0  0
 18 37  1  0  0  0  0
 19 21  2  0  0  0  0
 19 38  1  0  0  0  0
 20 46  1  0  0  0  0
 21 39  1  0  0  0  0
 22 78  1  0  0  0  0
 23 79  1  0  0  0  0
 24 26  2  0  0  0  0
 24 78  1  0  0  0  0
 25 80  1  0  0  0  0
 26 81  1  0  0  0  0
 27 62  2  0  0  0  0
 28 56  1  0  0  0  0
 28 63  2  0  0  0  0
 29 30  2  0  0  0  0
 29 49  1  0  0  0  0
 29 63  1  0  0  0  0
 30 57  1  0  0  0  0
 30 61  1  0  0  0  0
 31 64  1  0  0  0  0
 31 67  1  0  0  0  0
 32 68  1  0  0  0  0
 32 73  2  0  0  0  0
 33 47  1  0  0  0  0
 33 69  1  0  0  0  0
 33 74  2  0  0  0  0
 34 58  1  0  0  0  0
 34 65  1  0  0  0  0
 34 75  2  0  0  0  0
 35 59  1  0  0  0  0
 35 70  1  0  0  0  0
 35 76  2  0  0  0  0
 36 66  1  0  0  0  0
 36 71  1  0  0  0  0
 36 77  2  0  0  0  0
 37 40  1  0  0  0  0
 38 47  1  0  0  0  0
 39 65  1  0  0  0  0
 40 42  1  0  0  0  0
 41 43  1  0  0  0  0
 41 44  1  0  0  0  0
 42 46  1  0  0  0  0
 43 48  1  0  0  0  0
 44 66  1  0  0  0  0
 45 48  1  0  0  0  0
 45 66  1  0  0  0  0
 46 69  1  0  0  0  0
 47 65  1  0  0  0  0
 48 64  1  0  0  0  0
 50 59  1  0  0  0  0
 51 60  1  0  0  0  0
 52 60  1  0  0  0  0
 53 60  1  0  0  0  0
 54 71  1  0  0  0  0
 55 72  1  0  0  0  0
 56 71  1  0  0  0  0
 57 79  1  0  0  0  0
 58 60  1  0  0  0  0
 58 70  1  0  0  0  0
 59 72  1  0  0  0  0
 62 64  1  0  0  0  0
M  CHG  1  72   1
M  ISO  4  36 100  57 101  71 100  79 101
M  END
> <Batch ID>
0057

> <Smiles>
CNC(C)C(=O)NC(C(=O)N1Cc2cc([101O:1][101CH2:1]c3ncc(C[100N:0](C)[100C:0](=O)N4CCCC(n5nc(-c6ccc(Oc7ccc(F)cc7F)cc6)c(C(N)=O)c5N)C4)nc3C)ccc2CC1C(=O)NC1CCCc2ccccc21)C(C)(C)C

> <Shape>
0.181

> <Color>
0.072

> <Negative vol penalty>
0.000

$$$$

  -OEChem-04052317483D

 84 92  0     1  0  0  0  0  0999 V2000
  -28.8930  -25.0212   16.5050 C   0  0  0  0  0  0  0  0  0  0  0  0
  -27.7565  -25.0014   17.3071 C   0  0  0  0  0  0  0  0  0  0  0  0
  -25.1867  -13.4578   22.9861 C   0  0  0  0  0  0  0  0  0  0  0  0
  -25.0467  -14.7487   20.9487 C   0  0  0  0  0  0  0  0  0  0  0  0
  -30.0090  -25.7591   16.8974 C   0  0  0  0  0  0  0  0  0  0  0  0
  -27.7357  -25.7187   18.5027 C   0  0  0  0  0  0  0  0  0  0  0  0
  -23.4293  -28.3055   19.1415 C   0  0  0  0  0  0  0  0  0  0  0  0
  -24.2175  -12.5817   22.4976 C   0  0  0  0  0  0  0  0  0  0  0  0
  -24.0775  -13.8725   20.4601 C   0  0  0  0  0  0  0  0  0  0  0  0
  -22.3111  -27.5866   19.5618 C   0  0  0  0  0  0  0  0  0  0  0  0
  -24.0680   -9.9881   20.3333 C   0  0  0  0  0  0  0  0  0  0  0  0
  -24.2952   -8.6203   20.4849 C   0  0  0  0  0  0  0  0  0  0  0  0
  -22.6738  -28.3541   21.8198 C   0  0  0  0  0  0  0  0  0  0  0  0
  -22.2702   -8.4284   21.7887 C   0  0  0  0  0  0  0  0  0  0  0  0
  -22.0926  -24.9565   25.3822 C   0  0  0  0  0  0  0  0  0  0  0  0
  -22.9227  -22.4664   24.8945 C   0  0  0  0  0  0  0  0  0  0  0  0
  -25.6013  -14.5414   22.2116 C   0  0  0  0  0  0  0  0  0  0  0  0
  -27.9972  -15.3468   22.5563 C   0  0  0  0  0  0  0  0  0  0  0  0
  -29.9984  -26.4937   18.0937 C   0  0  0  0  0  0  0  0  0  0  0  0
  -24.1857  -29.0465   20.0607 C   0  0  0  0  0  0  0  0  0  0  0  0
  -28.8530  -26.4661   18.9121 C   0  0  0  0  0  0  0  0  0  0  0  0
  -23.7996  -29.0836   21.4082 C   0  0  0  0  0  0  0  0  0  0  0  0
  -23.6630  -12.7890   21.2346 C   0  0  0  0  0  0  0  0  0  0  0  0
  -21.9348  -27.6085   20.9016 C   0  0  0  0  0  0  0  0  0  0  0  0
  -22.9419  -10.5761   20.9095 C   0  0  0  0  0  0  0  0  0  0  0  0
  -23.3963   -7.8404   21.2125 C   0  0  0  0  0  0  0  0  0  0  0  0
  -22.0431   -9.7963   21.6372 C   0  0  0  0  0  0  0  0  0  0  0  0
  -26.6021  -15.4471   22.7159 C   0  0  0  0  0  0  0  0  0  0  0  0
  -21.3207  -24.0801   24.6516 C   0  0  0  0  0  0  0  0  0  0  0  0
  -23.6950  -23.3429   25.6244 C   0  0  0  0  0  0  0  0  0  0  0  0
  -28.4978  -16.4430   23.2154 C   0  0  0  0  0  0  0  0  0  0  0  0
  -28.7713  -14.3519   21.8733 C   0  0  0  0  0  0  0  0  0  0  0  0
  -27.1919  -28.9472   21.0888 C   0  0  0  0  0  0  0  0  0  0  0  0
  -26.3389  -31.6625   22.6451 C   0  0  0  0  0  0  0  0  0  0  0  0
  -23.8479  -33.5780   23.9763 C   0  0  0  0  0  0  0  0  0  0  0  0
  -26.3731  -21.7044   24.4032 C   0  0  0  0  0  0  0  0  0  0  0  0
  -31.2456  -27.2383   18.4994 C   0  0  0  0  0  0  0  0  0  0  0  0
  -25.3737  -29.8381   19.5867 C   0  0  0  0  0  0  0  0  0  0  0  0
  -24.5662  -29.8800   22.4312 C   0  0  0  0  0  0  0  0  0  0  0  0
  -31.0076  -28.2729   19.5963 C   0  0  0  0  0  0  0  0  0  0  0  0
  -27.5341  -19.4146   26.8282 C   0  0  0  0  0  0  0  0  0  0  0  0
  -30.1636  -27.6768   20.7184 C   0  0  0  0  0  0  0  0  0  0  0  0
  -27.5553  -18.1123   26.0291 C   0  0  0  0  0  0  0  0  0  0  0  0
  -26.3110  -20.2719   26.4974 C   0  0  0  0  0  0  0  0  0  0  0  0
  -26.1658  -19.2413   24.2525 C   0  0  0  0  0  0  0  0  0  0  0  0
  -28.7831  -27.2513   20.2039 C   0  0  1  0  0  0  0  0  0  0  0  0
  -26.3707  -30.1440   20.7002 C   0  0  1  0  0  0  0  0  0  0  0  0
  -27.4156  -18.3892   24.5222 C   0  0  2  0  0  0  0  0  0  0  0  0
  -23.4632  -35.7256   25.2162 C   0  0  0  0  0  0  0  0  0  0  0  0
  -25.5614  -24.7662   23.6650 C   0  0  0  0  0  0  0  0  0  0  0  0
  -26.7844  -25.0823   25.8393 C   0  0  0  0  0  0  0  0  0  0  0  0
  -27.3412  -30.3561   25.2139 C   0  0  0  0  0  0  0  0  0  0  0  0
  -26.0898  -32.0978   26.5055 C   0  0  0  0  0  0  0  0  0  0  0  0
  -27.9372  -32.7728   24.9712 C   0  0  0  0  0  0  0  0  0  0  0  0
  -22.1806  -34.6759   21.7915 C   0  0  0  0  0  0  0  0  0  0  0  0
  -19.9813  -24.5094   24.1082 C   0  0  0  0  0  0  0  0  0  0  0  0
  -25.0172  -22.9189   26.1614 C   0  0  0  0  0  0  0  0  0  0  0  0
  -20.0524  -25.1214   22.7075 C   0  0  0  0  0  0  0  0  0  0  0  0
  -20.8577  -26.4144   22.6537 C   0  0  0  0  0  0  0  0  0  1  0  0
  -25.7440  -31.9784   23.9961 C   0  0  1  0  0  0  0  0  0  0  0  0
  -23.5402  -35.0593   23.8514 C   0  0  2  0  0  0  0  0  0  0  0  0
  -26.5379  -24.1509   24.6595 C   0  0  0  0  0  0  0  0  0  0  0  0
  -26.7645  -31.7846   25.1530 C   0  0  0  0  0  0  0  0  0  0  0  0
  -21.7217  -22.8193   24.3949 N   0  0  0  0  0  0  0  0  0  0  0  0
  -23.2937  -24.6037   25.8815 N   0  0  0  0  0  0  0  0  0  0  0  0
  -26.2396  -16.5219   23.4212 N   0  0  0  0  0  0  0  0  0  0  0  0
  -27.4143  -17.1070   23.7108 N   0  0  0  0  0  0  0  0  0  0  0  0
  -25.7238  -30.6322   21.9197 N   0  0  0  0  0  0  0  0  0  0  0  0
  -26.1886  -20.4719   25.0469 N   0  0  0  0  0  0  0  0  0  0  0  0
  -29.7546  -16.8938   23.4139 N   0  0  0  0  0  0  0  0  0  0  0  0
  -28.0976  -13.2930   21.2496 N   0  0  0  0  0  0  0  0  0  0  0  0
  -27.9236  -28.4054   20.0493 N   0  0  0  0  0  0  0  0  0  0  0  0
  -25.2018  -33.3292   23.8976 N   0  0  0  0  0  0  0  0  0  0  0  0
  -26.0475  -22.8617   25.1263 N   0  0  0  0  0  0  0  0  0  0  0  0
  -22.2377  -35.2609   23.1558 N   0  3  0  0  0  0  0  0  0  0  0  0
  -30.0244  -14.3917   21.8317 O   0  0  0  0  0  0  0  0  0  0  0  0
  -27.1649  -28.5460   22.2464 O   0  0  0  0  0  0  0  0  0  0  0  0
  -27.3090  -32.3108   22.2449 O   0  0  0  0  0  0  0  0  0  0  0  0
  -22.9748  -32.7272   24.1323 O   0  0  0  0  0  0  0  0  0  0  0  0
  -26.7980  -21.7685   23.2424 O   0  0  0  0  0  0  0  0  0  0  0  0
  -22.7174  -11.9341   20.7575 O   0  0  0  0  0  0  0  0  0  0  0  0
  -20.8442  -26.9072   21.3145 O   0  0  0  0  0  0  0  0  0  1  0  0
  -23.6138   -6.5266   21.3566 F   0  0  0  0  0  0  0  0  0  0  0  0
  -20.9589  -10.3553   22.1920 F   0  0  0  0  0  0  0  0  0  0  0  0
  1  2  1  0  0  0  0
  1  5  2  0  0  0  0
  2  6  2  0  0  0  0
  3  8  2  0  0  0  0
  3 17  1  0  0  0  0
  4  9  1  0  0  0  0
  4 17  2  0  0  0  0
  5 19  1  0  0  0  0
  6 21  1  0  0  0  0
  7 10  2  0  0  0  0
  7 20  1  0  0  0  0
  8 23  1  0  0  0  0
  9 23  2  0  0  0  0
 10 24  1  0  0  0  0
 11 12  2  0  0  0  0
 11 25  1  0  0  0  0
 12 26  1  0  0  0  0
 13 22  1  0  0  0  0
 13 24  2  0  0  0  0
 14 26  2  0  0  0  0
 14 27  1  0  0  0  0
 15 29  1  0  0  0  0
 15 65  2  0  0  0  0
 16 30  2  0  0  0  0
 16 64  1  0  0  0  0
 17 28  1  0  0  0  0
 18 28  1  0  0  0  0
 18 31  2  0  0  0  0
 18 32  1  0  0  0  0
 19 21  2  0  0  0  0
 19 37  1  0  0  0  0
 20 22  2  0  0  0  0
 20 38  1  0  0  0  0
 21 46  1  0  0  0  0
 22 39  1  0  0  0  0
 23 81  1  0  0  0  0
 24 82  1  0  0  0  0
 25 27  2  0  0  0  0
 25 81  1  0  0  0  0
 26 83  1  0  0  0  0
 27 84  1  0  0  0  0
 28 66  2  0  0  0  0
 29 56  1  0  0  0  0
 29 64  2  0  0  0  0
 30 57  1  0  0  0  0
 30 65  1  0  0  0  0
 31 67  1  0  0  0  0
 31 70  1  0  0  0  0
 32 71  1  0  0  0  0
 32 76  2  0  0  0  0
 33 47  1  0  0  0  0
 33 72  1  0  0  0  0
 33 77  2  0  0  0  0
 34 60  1  0  0  0  0
 34 68  1  0  0  0  0
 34 78  2  0  0  0  0
 35 61  1  0  0  0  0
 35 73  1  0  0  0  0
 35 79  2  0  0  0  0
 36 69  1  0  0  0  0
 36 74  1  0  0  0  0
 36 80  2  0  0  0  0
 37 40  1  0  0  0  0
 38 47  1  0  0  0  0
 39 68  1  0  0  0  0
 40 42  1  0  0  0  0
 41 43  1  0  0  0  0
 41 44  1  0  0  0  0
 42 46  1  0  0  0  0
 43 48  1  0  0  0  0
 44 69  1  0  0  0  0
 45 48  1  0  0  0  0
 45 69  1  0  0  0  0
 46 72  1  0  0  0  0
 47 68  1  0  0  0  0
 48 67  1  0  0  0  0
 49 61  1  0  0  0  0
 50 62  1  0  0  0  0
 51 62  1  0  0  0  0
 52 63  1  0  0  0  0
 53 63  1  0  0  0  0
 54 63  1  0  0  0  0
 55 75  1  0  0  0  0
 56 58  1  0  0  0  0
 57 74  1  0  0  0  0
 58 59  1  0  0  0  0
 59 82  1  0  0  0  0
 60 63  1  0  0  0  0
 60 73  1  0  0  0  0
 61 75  1  0  0  0  0
 62 74  1  0  0  0  0
 66 67  1  0  0  0  0
M  CHG  1  75   1
M  ISO  4  36 100  59 101  74 100  82 101
M  END
> <Batch ID>
0057

> <Smiles>
CNC(C)C(=O)NC(C(=O)N1Cc2cc([101O:1][101CH2:1]CCc3cnc(C[100N:0](C(C)C)[100C:0](=O)N4CCCC(n5nc(-c6ccc(Oc7ccc(F)cc7F)cc6)c(C(N)=O)c5N)C4)cn3)ccc2CC1C(=O)NC1CCCc2ccccc21)C(C)(C)C

> <Shape>
0.247

> <Color>
0.070

> <Negative vol penalty>
0.000

$$$$

  -OEChem-04052317483D

 82 90  0     1  0  0  0  0  0999 V2000
  -28.6949  -37.4643   22.9106 C   0  0  0  0  0  0  0  0  0  0  0  0
  -29.0940  -36.2551   22.3504 C   0  0  0  0  0  0  0  0  0  0  0  0
  -23.8757  -14.0147   20.4909 C   0  0  0  0  0  0  0  0  0  0  0  0
  -26.2864  -14.0704   20.6414 C   0  0  0  0  0  0  0  0  0  0  0  0
  -27.7049  -37.4834   23.8922 C   0  0  0  0  0  0  0  0  0  0  0  0
  -28.5041  -35.0641   22.7721 C   0  0  0  0  0  0  0  0  0  0  0  0
  -27.3233  -30.1260   19.3477 C   0  0  0  0  0  0  0  0  0  0  0  0
  -23.9225  -12.6420   20.2484 C   0  0  0  0  0  0  0  0  0  0  0  0
  -26.3332  -12.6975   20.3990 C   0  0  0  0  0  0  0  0  0  0  0  0
  -28.0040  -28.9221   19.1716 C   0  0  0  0  0  0  0  0  0  0  0  0
  -24.3246   -9.8070   22.0469 C   0  0  0  0  0  0  0  0  0  0  0  0
  -23.4264   -8.9954   22.7397 C   0  0  0  0  0  0  0  0  0  0  0  0
  -26.5893  -27.8866   20.8286 C   0  0  0  0  0  0  0  0  0  0  0  0
  -22.4874   -8.2455   20.6437 C   0  0  0  0  0  0  0  0  0  0  0  0
  -25.0576  -14.7290   20.6874 C   0  0  0  0  0  0  0  0  0  0  0  0
  -24.9174  -16.7874   22.1877 C   0  0  0  0  0  0  0  0  0  0  0  0
  -27.0957  -36.2930   24.3193 C   0  0  0  0  0  0  0  0  0  0  0  0
  -26.2759  -30.2223   20.2751 C   0  0  0  0  0  0  0  0  0  0  0  0
  -27.5059  -35.0671   23.7613 C   0  0  0  0  0  0  0  0  0  0  0  0
  -25.8952  -29.0922   21.0127 C   0  0  0  0  0  0  0  0  0  0  0  0
  -25.1512  -11.9833   20.2025 C   0  0  0  0  0  0  0  0  0  0  0  0
  -27.6390  -27.8029   19.9141 C   0  0  0  0  0  0  0  0  0  0  0  0
  -24.3042   -9.8380   20.6525 C   0  0  0  0  0  0  0  0  0  0  0  0
  -22.5078   -8.2146   22.0381 C   0  0  0  0  0  0  0  0  0  0  0  0
  -23.3857   -9.0572   19.9509 C   0  0  0  0  0  0  0  0  0  0  0  0
  -25.0100  -16.1472   20.9373 C   0  0  0  0  0  0  0  0  0  0  0  0
  -24.9060  -18.1276   21.8873 C   0  0  0  0  0  0  0  0  0  0  0  0
  -30.7676  -23.3722   20.1614 C   0  0  0  0  0  0  0  0  0  0  0  0
  -28.7411  -24.3342   20.2301 C   0  0  0  0  0  0  0  0  0  0  0  0
  -28.9569  -22.2228   19.5003 C   0  0  0  0  0  0  0  0  0  0  0  0
  -24.8479  -16.2212   23.5031 C   0  0  0  0  0  0  0  0  0  0  0  0
  -25.7640  -31.9210   22.9125 C   0  0  0  0  0  0  0  0  0  0  0  0
  -22.8210  -30.5671   22.7454 C   0  0  0  0  0  0  0  0  0  0  0  0
  -20.8743  -27.9947   21.6320 C   0  0  0  0  0  0  0  0  0  0  0  0
  -26.9763  -20.9155   16.8395 C   0  0  0  0  0  0  0  0  0  0  0  0
  -26.0634  -36.3590   25.4169 C   0  0  0  0  0  0  0  0  0  0  0  0
  -25.5340  -31.5210   20.4340 C   0  0  0  0  0  0  0  0  0  0  0  0
  -24.7643  -29.1378   22.0064 C   0  0  0  0  0  0  0  0  0  0  0  0
  -25.2235  -35.0903   25.5402 C   0  0  0  0  0  0  0  0  0  0  0  0
  -23.6523  -21.1948   18.4441 C   0  0  0  0  0  0  0  0  0  0  0  0
  -26.1160  -33.8538   25.5053 C   0  0  0  0  0  0  0  0  0  0  0  0
  -23.5971  -19.9417   19.3163 C   0  0  0  0  0  0  0  0  0  0  0  0
  -24.5387  -20.9943   17.2187 C   0  0  0  0  0  0  0  0  0  0  0  0
  -25.8615  -19.2802   18.4131 C   0  0  0  0  0  0  0  0  0  0  0  0
  -26.8722  -33.7566   24.1748 C   0  0  1  0  0  0  0  0  0  0  0  0
  -24.8205  -31.6412   21.7771 C   0  0  1  0  0  0  0  0  0  0  0  0
  -25.0136  -19.4641   19.6807 C   0  0  2  0  0  0  0  0  0  0  0  0
  -32.2393  -23.4441   20.3886 C   0  0  0  0  0  0  0  0  0  0  0  0
  -29.1098  -19.7079   19.3854 C   0  0  0  0  0  0  0  0  0  0  0  0
  -18.5138  -27.1445   21.6855 C   0  0  0  0  0  0  0  0  0  0  0  0
  -23.2263  -29.6299   25.6207 C   0  0  0  0  0  0  0  0  0  0  0  0
  -21.3277  -28.0310   25.2935 C   0  0  0  0  0  0  0  0  0  0  0  0
  -20.9318  -30.4875   25.1167 C   0  0  0  0  0  0  0  0  0  0  0  0
  -29.3828  -21.4491   16.7801 C   0  0  0  0  0  0  0  0  0  0  0  0
  -20.6268  -28.1553   18.6872 C   0  0  0  0  0  0  0  0  0  0  0  0
  -27.8755  -25.5203   20.5384 C   0  0  0  0  0  0  0  0  0  1  0  0
  -28.3451  -20.9723   18.9668 C   0  0  2  0  0  0  0  0  0  0  0  0
  -22.1953  -29.3001   23.2767 C   0  0  1  0  0  0  0  0  0  0  0  0
  -19.5310  -27.9810   20.9250 C   0  0  2  0  0  0  0  0  0  0  0  0
  -21.9429  -29.3614   24.8097 C   0  0  0  0  0  0  0  0  0  0  0  0
  -25.0542  -17.0097   19.9185 N   0  0  0  0  0  0  0  0  0  0  0  0
  -30.0568  -24.4719   20.4597 N   0  0  0  0  0  0  0  0  0  0  0  0
  -30.2876  -22.2144   19.6794 N   0  0  0  0  0  0  0  0  0  0  0  0
  -28.1211  -23.2430   19.7527 N   0  0  0  0  0  0  0  0  0  0  0  0
  -24.9890  -18.2056   20.5281 N   0  0  0  0  0  0  0  0  0  0  0  0
  -24.0738  -30.4322   22.1305 N   0  0  0  0  0  0  0  0  0  0  0  0
  -25.8646  -20.4991   17.5902 N   0  0  0  0  0  0  0  0  0  0  0  0
  -24.8332  -19.2351   22.6557 N   0  0  0  0  0  0  0  0  0  0  0  0
  -24.8713  -14.8258   23.6320 N   0  0  0  0  0  0  0  0  0  0  0  0
  -25.9980  -33.2652   23.1314 N   0  0  0  0  0  0  0  0  0  0  0  0
  -20.9931  -29.0741   22.4818 N   0  0  0  0  0  0  0  0  0  0  0  0
  -28.2035  -21.0106   17.5129 N   0  0  0  0  0  0  0  0  0  0  0  0
  -19.6733  -27.4154   19.5535 N   0  3  0  0  0  0  0  0  0  0  0  0
  -24.7508  -16.9313   24.5326 O   0  0  0  0  0  0  0  0  0  0  0  0
  -26.2431  -30.9866   23.5443 O   0  0  0  0  0  0  0  0  0  0  0  0
  -22.2171  -31.6361   22.8651 O   0  0  0  0  0  0  0  0  0  0  0  0
  -21.7309  -27.1320   21.4516 O   0  0  0  0  0  0  0  0  0  0  0  0
  -26.8755  -21.1960   15.6382 O   0  0  0  0  0  0  0  0  0  0  0  0
  -25.1972  -10.6437   19.9661 O   0  0  0  0  0  0  0  0  0  0  0  0
  -28.3022  -26.6268   19.7446 O   0  0  0  0  0  0  0  0  0  1  0  0
  -21.6463   -7.4341   22.7035 F   0  0  0  0  0  0  0  0  0  0  0  0
  -23.3621   -9.0818   18.6113 F   0  0  0  0  0  0  0  0  0  0  0  0
  1  2  1  0  0  0  0
  1  5  2  0  0  0  0
  2  6  2  0  0  0  0
  3  8  2  0  0  0  0
  3 15  1  0  0  0  0
  4  9  1  0  0  0  0
  4 15  2  0  0  0  0
  5 17  1  0  0  0  0
  6 19  1  0  0  0  0
  7 10  2  0  0  0  0
  7 18  1  0  0  0  0
  8 21  1  0  0  0  0
  9 21  2  0  0  0  0
 10 22  1  0  0  0  0
 11 12  2  0  0  0  0
 11 23  1  0  0  0  0
 12 24  1  0  0  0  0
 13 20  1  0  0  0  0
 13 22  2  0  0  0  0
 14 24  2  0  0  0  0
 14 25  1  0  0  0  0
 15 26  1  0  0  0  0
 16 26  1  0  0  0  0
 16 27  2  0  0  0  0
 16 31  1  0  0  0  0
 17 19  2  0  0  0  0
 17 36  1  0  0  0  0
 18 20  2  0  0  0  0
 18 37  1  0  0  0  0
 19 45  1  0  0  0  0
 20 38  1  0  0  0  0
 21 79  1  0  0  0  0
 22 80  1  0  0  0  0
 23 25  2  0  0  0  0
 23 79  1  0  0  0  0
 24 81  1  0  0  0  0
 25 82  1  0  0  0  0
 26 61  2  0  0  0  0
 27 65  1  0  0  0  0
 27 68  1  0  0  0  0
 28 48  1  0  0  0  0
 28 62  2  0  0  0  0
 28 63  1  0  0  0  0
 29 56  1  0  0  0  0
 29 62  1  0  0  0  0
 29 64  2  0  0  0  0
 30 57  1  0  0  0  0
 30 63  2  0  0  0  0
 30 64  1  0  0  0  0
 31 69  1  0  0  0  0
 31 74  2  0  0  0  0
 32 46  1  0  0  0  0
 32 70  1  0  0  0  0
 32 75  2  0  0  0  0
 33 58  1  0  0  0  0
 33 66  1  0  0  0  0
 33 76  2  0  0  0  0
 34 59  1  0  0  0  0
 34 71  1  0  0  0  0
 34 77  2  0  0  0  0
 35 67  1  0  0  0  0
 35 72  1  0  0  0  0
 35 78  2  0  0  0  0
 36 39  1  0  0  0  0
 37 46  1  0  0  0  0
 38 66  1  0  0  0  0
 39 41  1  0  0  0  0
 40 42  1  0  0  0  0
 40 43  1  0  0  0  0
 41 45  1  0  0  0  0
 42 47  1  0  0  0  0
 43 67  1  0  0  0  0
 44 47  1  0  0  0  0
 44 67  1  0  0  0  0
 45 70  1  0  0  0  0
 46 66  1  0  0  0  0
 47 65  1  0  0  0  0
 49 57  1  0  0  0  0
 50 59  1  0  0  0  0
 51 60  1  0  0  0  0
 52 60  1  0  0  0  0
 53 60  1  0  0  0  0
 54 72  1  0  0  0  0
 55 73  1  0  0  0  0
 56 80  1  0  0  0  0
 57 72  1  0  0  0  0
 58 60  1  0  0  0  0
 58 71  1  0  0  0  0
 59 73  1  0  0  0  0
 61 65  1  0  0  0  0
M  CHG  1  73   1
M  ISO  4  35 100  56 101  72 100  80 101
M  END
> <Batch ID>
0057

> <Smiles>
CNC(C)C(=O)NC(C(=O)N1Cc2cc([101O:1][101CH2:1]c3nc(C)nc(C(C)[100N:0](C)[100C:0](=O)N4CCCC(n5nc(-c6ccc(Oc7ccc(F)cc7F)cc6)c(C(N)=O)c5N)C4)n3)ccc2CC1C(=O)NC1CCCc2ccccc21)C(C)(C)C

> <Shape>
0.278

> <Color>
0.095

> <Negative vol penalty>
0.000

$$$$

  -OEChem-04052317483D

 82 90  0     1  0  0  0  0  0999 V2000
  -25.8527  -11.3023   20.5925 C   0  0  0  0  0  0  0  0  0  0  0  0
  -26.4932  -12.4943   20.9155 C   0  0  0  0  0  0  0  0  0  0  0  0
  -22.7940  -27.7912   20.6504 C   0  0  0  0  0  0  0  0  0  0  0  0
  -24.1838  -27.3951   22.5865 C   0  0  0  0  0  0  0  0  0  0  0  0
  -24.4897  -11.3019   20.2992 C   0  0  0  0  0  0  0  0  0  0  0  0
  -25.7711  -13.6869   20.9444 C   0  0  0  0  0  0  0  0  0  0  0  0
  -26.8358  -16.5045   25.0153 C   0  0  0  0  0  0  0  0  0  0  0  0
  -21.6760  -27.3609   21.3648 C   0  0  0  0  0  0  0  0  0  0  0  0
  -23.0658  -26.9647   23.3010 C   0  0  0  0  0  0  0  0  0  0  0  0
  -28.0242  -17.2331   24.9923 C   0  0  0  0  0  0  0  0  0  0  0  0
  -19.5711  -28.6197   23.6924 C   0  0  0  0  0  0  0  0  0  0  0  0
  -18.4072  -29.3824   23.5960 C   0  0  0  0  0  0  0  0  0  0  0  0
  -26.7887  -19.2184   24.3996 C   0  0  0  0  0  0  0  0  0  0  0  0
  -17.2309  -27.4735   22.6963 C   0  0  0  0  0  0  0  0  0  0  0  0
  -24.0480  -27.8083   21.2612 C   0  0  0  0  0  0  0  0  0  0  0  0
  -25.7020  -29.5656   20.4345 C   0  0  0  0  0  0  0  0  0  0  0  0
  -23.7485  -12.4936   20.3339 C   0  0  0  0  0  0  0  0  0  0  0  0
  -25.6140  -17.1261   24.7195 C   0  0  0  0  0  0  0  0  0  0  0  0
  -24.3971  -13.7026   20.6500 C   0  0  0  0  0  0  0  0  0  0  0  0
  -25.5858  -18.4961   24.4221 C   0  0  0  0  0  0  0  0  0  0  0  0
  -21.8119  -26.9477   22.6901 C   0  0  0  0  0  0  0  0  0  0  0  0
  -28.0012  -18.5896   24.6816 C   0  0  0  0  0  0  0  0  0  0  0  0
  -19.5650  -27.2840   23.2906 C   0  0  0  0  0  0  0  0  0  0  0  0
  -17.2371  -28.8093   23.0980 C   0  0  0  0  0  0  0  0  0  0  0  0
  -18.3949  -26.7109   22.7926 C   0  0  0  0  0  0  0  0  0  0  0  0
  -25.2033  -28.2522   20.5235 C   0  0  0  0  0  0  0  0  0  0  0  0
  -26.8047  -29.4599   19.6225 C   0  0  0  0  0  0  0  0  0  0  0  0
  -30.1185  -21.6077   21.0350 C   0  0  0  0  0  0  0  0  0  0  0  0
  -25.2124  -30.7732   21.0325 C   0  0  0  0  0  0  0  0  0  0  0  0
  -23.3936  -16.7544   22.4755 C   0  0  0  0  0  0  0  0  0  0  0  0
  -21.7922  -18.9503   24.2464 C   0  0  0  0  0  0  0  0  0  0  0  0
  -30.4382  -24.8401   18.3708 C   0  0  0  0  0  0  0  0  0  0  0  0
  -21.9249  -21.5063   26.5038 C   0  0  0  0  0  0  0  0  0  0  0  0
  -22.2872  -12.4507   19.9633 C   0  0  0  0  0  0  0  0  0  0  0  0
  -24.3377  -16.3322   24.7748 C   0  0  0  0  0  0  0  0  0  0  0  0
  -24.2980  -19.2149   24.1169 C   0  0  0  0  0  0  0  0  0  0  0  0
  -21.5157  -13.6996   20.3819 C   0  0  0  0  0  0  0  0  0  0  0  0
  -28.5939  -26.8480   16.0455 C   0  0  0  0  0  0  0  0  0  0  0  0
  -22.2884  -14.9578   19.9991 C   0  0  0  0  0  0  0  0  0  0  0  0
  -27.5426  -27.5331   16.9177 C   0  0  0  0  0  0  0  0  0  0  0  0
  -28.8910  -25.4343   16.5357 C   0  0  0  0  0  0  0  0  0  0  0  0
  -28.2497  -26.0469   18.8455 C   0  0  0  0  0  0  0  0  0  0  0  0
  -23.6429  -15.0129   20.7160 C   0  0  1  0  0  0  0  0  0  0  0  0
  -23.2117  -16.9531   23.9538 C   0  0  1  0  0  0  0  0  0  0  0  0
  -27.9425  -27.4886   18.4031 C   0  0  2  0  0  0  0  0  0  0  0  0
  -20.4556  -23.1285   27.7314 C   0  0  0  0  0  0  0  0  0  0  0  0
  -30.8039  -26.3427   20.3052 C   0  0  0  0  0  0  0  0  0  0  0  0
  -32.1126  -24.2280   20.0536 C   0  0  0  0  0  0  0  0  0  0  0  0
  -21.4874  -20.5994   21.6974 C   0  0  0  0  0  0  0  0  0  0  0  0
  -20.8894  -22.5672   23.1250 C   0  0  0  0  0  0  0  0  0  0  0  0
  -19.4494  -20.5304   23.1452 C   0  0  0  0  0  0  0  0  0  0  0  0
  -22.7580  -20.4461   29.1383 C   0  0  0  0  0  0  0  0  0  0  0  0
  -30.8582  -21.7608   22.3399 C   0  0  0  0  0  0  0  0  0  0  0  0
  -30.6660  -20.5838   23.2987 C   0  0  0  0  0  0  0  0  0  0  0  0
  -29.6731  -24.0612   20.6207 C   0  0  0  0  0  0  0  0  0  0  0  0
  -29.2232  -20.4090   23.7583 C   0  0  0  0  0  0  0  0  0  1  0  0
  -21.7148  -20.4578   24.2653 C   0  0  1  0  0  0  0  0  0  0  0  0
  -21.1373  -21.7698   27.7745 C   0  0  2  0  0  0  0  0  0  0  0  0
  -30.7358  -24.8805   19.8486 C   0  0  0  0  0  0  0  0  0  0  0  0
  -20.9099  -21.0250   23.0620 C   0  0  0  0  0  0  0  0  0  0  0  0
  -25.9295  -27.3764   19.8237 N   0  0  0  0  0  0  0  0  0  0  0  0
  -29.8407  -20.4969   20.3921 N   0  0  0  0  0  0  0  0  0  0  0  0
  -29.1568  -20.8833   19.2616 N   0  0  0  0  0  0  0  0  0  0  0  0
  -29.0188  -22.2027   19.2151 N   0  0  0  0  0  0  0  0  0  0  0  0
  -26.8957  -28.1411   19.2872 N   0  0  0  0  0  0  0  0  0  0  0  0
  -29.6208  -22.6532   20.3246 N   0  0  0  0  0  0  0  0  0  0  0  0
  -23.0774  -18.3940   24.1775 N   0  0  0  0  0  0  0  0  0  0  0  0
  -29.2450  -25.4320   17.9563 N   0  0  0  0  0  0  0  0  0  0  0  0
  -27.6956  -30.3675   19.1696 N   0  0  0  0  0  0  0  0  0  0  0  0
  -24.0681  -30.7033   21.8387 N   0  0  0  0  0  0  0  0  0  0  0  0
  -23.4702  -15.4293   22.0912 N   0  0  0  0  0  0  0  0  0  0  0  0
  -21.1747  -20.8225   25.5706 N   0  0  0  0  0  0  0  0  0  0  0  0
  -22.0397  -21.7342   28.9600 N   0  3  0  0  0  0  0  0  0  0  0  0
  -25.7635  -31.8842   20.8439 O   0  0  0  0  0  0  0  0  0  0  0  0
  -23.4581  -17.7309   21.7381 O   0  0  0  0  0  0  0  0  0  0  0  0
  -20.7512  -18.2906   24.2982 O   0  0  0  0  0  0  0  0  0  0  0  0
  -31.2449  -24.3008   17.6088 O   0  0  0  0  0  0  0  0  0  0  0  0
  -23.0879  -21.8739   26.3526 O   0  0  0  0  0  0  0  0  0  0  0  0
  -20.7211  -26.5279   23.3877 O   0  0  0  0  0  0  0  0  0  0  0  0
  -29.1598  -19.3029   24.6578 O   0  0  0  0  0  0  0  0  0  1  0  0
  -16.1191  -29.5414   23.0069 F   0  0  0  0  0  0  0  0  0  0  0  0
  -18.3825  -25.4278   22.4062 F   0  0  0  0  0  0  0  0  0  0  0  0
  1  2  1  0  0  0  0
  1  5  2  0  0  0  0
  2  6  2  0  0  0  0
  3  8  2  0  0  0  0
  3 15  1  0  0  0  0
  4  9  1  0  0  0  0
  4 15  2  0  0  0  0
  5 17  1  0  0  0  0
  6 19  1  0  0  0  0
  7 10  2  0  0  0  0
  7 18  1  0  0  0  0
  8 21  1  0  0  0  0
  9 21  2  0  0  0  0
 10 22  1  0  0  0  0
 11 12  2  0  0  0  0
 11 23  1  0  0  0  0
 12 24  1  0  0  0  0
 13 20  1  0  0  0  0
 13 22  2  0  0  0  0
 14 24  2  0  0  0  0
 14 25  1  0  0  0  0
 15 26  1  0  0  0  0
 16 26  1  0  0  0  0
 16 27  2  0  0  0  0
 16 29  1  0  0  0  0
 17 19  2  0  0  0  0
 17 34  1  0  0  0  0
 18 20  2  0  0  0  0
 18 35  1  0  0  0  0
 19 43  1  0  0  0  0
 20 36  1  0  0  0  0
 21 79  1  0  0  0  0
 22 80  1  0  0  0  0
 23 25  2  0  0  0  0
 23 79  1  0  0  0  0
 24 81  1  0  0  0  0
 25 82  1  0  0  0  0
 26 61  2  0  0  0  0
 27 65  1  0  0  0  0
 27 69  1  0  0  0  0
 28 53  1  0  0  0  0
 28 62  2  0  0  0  0
 28 66  1  0  0  0  0
 29 70  1  0  0  0  0
 29 74  2  0  0  0  0
 30 44  1  0  0  0  0
 30 71  1  0  0  0  0
 30 75  2  0  0  0  0
 31 57  1  0  0  0  0
 31 67  1  0  0  0  0
 31 76  2  0  0  0  0
 32 59  1  0  0  0  0
 32 68  1  0  0  0  0
 32 77  2  0  0  0  0
 33 58  1  0  0  0  0
 33 72  1  0  0  0  0
 33 78  2  0  0  0  0
 34 37  1  0  0  0  0
 35 44  1  0  0  0  0
 36 67  1  0  0  0  0
 37 39  1  0  0  0  0
 38 40  1  0  0  0  0
 38 41  1  0  0  0  0
 39 43  1  0  0  0  0
 40 45  1  0  0  0  0
 41 68  1  0  0  0  0
 42 45  1  0  0  0  0
 42 68  1  0  0  0  0
 43 71  1  0  0  0  0
 44 67  1  0  0  0  0
 45 65  1  0  0  0  0
 46 58  1  0  0  0  0
 47 59  1  0  0  0  0
 48 59  1  0  0  0  0
 49 60  1  0  0  0  0
 50 60  1  0  0  0  0
 51 60  1  0  0  0  0
 52 73  1  0  0  0  0
 53 54  1  0  0  0  0
 54 56  1  0  0  0  0
 55 59  1  0  0  0  0
 55 66  1  0  0  0  0
 56 80  1  0  0  0  0
 57 60  1  0  0  0  0
 57 72  1  0  0  0  0
 58 73  1  0  0  0  0
 61 65  1  0  0  0  0
 62 63  1  0  0  0  0
 63 64  2  0  0  0  0
 64 66  1  0  0  0  0
M  CHG  1  73   1
M  ISO  4  32 100  56 101  59 100  80 101
M  END
> <Batch ID>
0057

> <Smiles>
CNC(C)C(=O)NC(C(=O)N1Cc2cc([101O:1][101CH2:1]CCc3nnnn3C[100C:0](C)(C)[100C:0](=O)N3CCCC(n4nc(-c5ccc(Oc6ccc(F)cc6F)cc5)c(C(N)=O)c4N)C3)ccc2CC1C(=O)NC1CCCc2ccccc21)C(C)(C)C

> <Shape>
0.215

> <Color>
0.071

> <Negative vol penalty>
0.000

$$$$

  -OEChem-04052317483D

 82 90  0     1  0  0  0  0  0999 V2000
  -20.6772  -35.2841   22.4839 C   0  0  0  0  0  0  0  0  0  0  0  0
  -21.8737  -34.7158   22.0587 C   0  0  0  0  0  0  0  0  0  0  0  0
  -29.8931  -16.5622   21.4360 C   0  0  0  0  0  0  0  0  0  0  0  0
  -32.0372  -17.1537   20.4926 C   0  0  0  0  0  0  0  0  0  0  0  0
  -19.8343  -34.5742   23.3380 C   0  0  0  0  0  0  0  0  0  0  0  0
  -22.2285  -33.4375   22.4883 C   0  0  0  0  0  0  0  0  0  0  0  0
  -25.2783  -29.1946   19.2942 C   0  0  0  0  0  0  0  0  0  0  0  0
  -30.1355  -15.2198   21.1451 C   0  0  0  0  0  0  0  0  0  0  0  0
  -32.2796  -15.8112   20.2017 C   0  0  0  0  0  0  0  0  0  0  0  0
  -26.6193  -28.8134   19.2825 C   0  0  0  0  0  0  0  0  0  0  0  0
  -30.0078  -13.1949   18.4417 C   0  0  0  0  0  0  0  0  0  0  0  0
  -28.9723  -12.4607   17.8636 C   0  0  0  0  0  0  0  0  0  0  0  0
  -31.3647  -27.7608   20.4614 C   0  0  0  0  0  0  0  0  0  0  0  0
  -26.1196  -27.0296   20.8277 C   0  0  0  0  0  0  0  0  0  0  0  0
  -28.9974  -10.9443   19.7443 C   0  0  0  0  0  0  0  0  0  0  0  0
  -32.6213  -27.1905   20.4700 C   0  0  0  0  0  0  0  0  0  0  0  0
  -30.8440  -17.5292   21.1097 C   0  0  0  0  0  0  0  0  0  0  0  0
  -30.9252  -19.6034   22.5925 C   0  0  0  0  0  0  0  0  0  0  0  0
  -20.1744  -33.2828   23.7706 C   0  0  0  0  0  0  0  0  0  0  0  0
  -24.3483  -28.5017   20.0826 C   0  0  0  0  0  0  0  0  0  0  0  0
  -21.3900  -32.7102   23.3501 C   0  0  0  0  0  0  0  0  0  0  0  0
  -24.7669  -27.4023   20.8457 C   0  0  0  0  0  0  0  0  0  0  0  0
  -31.3287  -14.8442   20.5280 C   0  0  0  0  0  0  0  0  0  0  0  0
  -27.0407  -27.7326   20.0515 C   0  0  0  0  0  0  0  0  0  0  0  0
  -30.5382  -12.8039   19.6712 C   0  0  0  0  0  0  0  0  0  0  0  0
  -28.4671  -11.3354   18.5149 C   0  0  0  0  0  0  0  0  0  0  0  0
  -30.0330  -11.6786   20.3225 C   0  0  0  0  0  0  0  0  0  0  0  0
  -30.5940  -18.9162   21.4094 C   0  0  0  0  0  0  0  0  0  0  0  0
  -30.6156  -27.5378   19.3241 C   0  0  0  0  0  0  0  0  0  0  0  0
  -30.4796  -20.8853   22.3813 C   0  0  0  0  0  0  0  0  0  0  0  0
  -32.2916  -26.3116   18.3998 C   0  0  0  0  0  0  0  0  0  0  0  0
  -31.5775  -19.1257   23.7766 C   0  0  0  0  0  0  0  0  0  0  0  0
  -22.4572  -29.2718   22.5187 C   0  0  0  0  0  0  0  0  0  0  0  0
  -21.3398  -26.2557   22.0981 C   0  0  0  0  0  0  0  0  0  0  0  0
  -21.8985  -23.0941   20.9410 C   0  0  0  0  0  0  0  0  0  0  0  0
  -29.4972  -24.0957   17.4235 C   0  0  0  0  0  0  0  0  0  0  0  0
  -19.2536  -32.5730   24.7314 C   0  0  0  0  0  0  0  0  0  0  0  0
  -22.9004  -28.9087   20.0635 C   0  0  0  0  0  0  0  0  0  0  0  0
  -23.8044  -26.6127   21.6933 C   0  0  0  0  0  0  0  0  0  0  0  0
  -19.5253  -31.0749   24.8412 C   0  0  0  0  0  0  0  0  0  0  0  0
  -27.1449  -23.3437   19.9882 C   0  0  0  0  0  0  0  0  0  0  0  0
  -21.0200  -30.8134   24.9966 C   0  0  0  0  0  0  0  0  0  0  0  0
  -27.7920  -22.1857   20.7500 C   0  0  0  0  0  0  0  0  0  0  0  0
  -27.4235  -23.2587   18.4892 C   0  0  0  0  0  0  0  0  0  0  0  0
  -29.4966  -21.9882   18.8915 C   0  0  0  0  0  0  0  0  0  0  0  0
  -21.7980  -31.3161   23.7745 C   0  0  1  0  0  0  0  0  0  0  0  0
  -22.1350  -28.4518   21.3015 C   0  0  1  0  0  0  0  0  0  0  0  0
  -29.2903  -22.0613   20.4141 C   0  0  2  0  0  0  0  0  0  0  0  0
  -20.8138  -20.8374   20.7733 C   0  0  0  0  0  0  0  0  0  0  0  0
  -33.8252  -24.3748   17.6292 C   0  0  0  0  0  0  0  0  0  0  0  0
  -33.5810  -26.4226   16.2497 C   0  0  0  0  0  0  0  0  0  0  0  0
  -21.8973  -25.7704   25.0584 C   0  0  0  0  0  0  0  0  0  0  0  0
  -21.7096  -23.3127   24.6194 C   0  0  0  0  0  0  0  0  0  0  0  0
  -19.7461  -24.8011   24.2294 C   0  0  0  0  0  0  0  0  0  0  0  0
  -22.0016  -23.1358   17.9836 C   0  0  0  0  0  0  0  0  0  0  0  0
  -29.2359  -28.1186   19.2221 C   0  0  0  0  0  0  0  0  0  1  0  0
  -31.6566  -24.8175   16.4360 C   0  0  0  0  0  0  0  0  0  0  0  0
  -21.7077  -24.8944   22.6371 C   0  0  1  0  0  0  0  0  0  0  0  0
  -21.0521  -22.1713   20.0828 C   0  0  2  0  0  0  0  0  0  0  0  0
  -32.8067  -25.5077   17.2545 C   0  0  0  0  0  0  0  0  0  0  0  0
  -21.2839  -24.7105   24.1217 C   0  0  0  0  0  0  0  0  0  0  0  0
  -33.1186  -26.4571   19.4526 N   0  0  0  0  0  0  0  0  0  0  0  0
  -29.9848  -19.6969   20.5130 N   0  0  0  0  0  0  0  0  0  0  0  0
  -31.0495  -26.8156   18.2704 N   0  0  0  0  0  0  0  0  0  0  0  0
  -29.9296  -20.8879   21.1332 N   0  0  0  0  0  0  0  0  0  0  0  0
  -22.4004  -27.0536   21.6461 N   0  0  0  0  0  0  0  0  0  0  0  0
  -28.8623  -23.1441   18.2386 N   0  0  0  0  0  0  0  0  0  0  0  0
  -30.5084  -21.9993   23.1433 N   0  0  0  0  0  0  0  0  0  0  0  0
  -31.9698  -17.7811   23.8270 N   0  0  0  0  0  0  0  0  0  0  0  0
  -21.6596  -30.3898   22.6712 N   0  0  0  0  0  0  0  0  0  0  0  0
  -21.1201  -23.9210   21.7230 N   0  0  0  0  0  0  0  0  0  0  0  0
  -30.8633  -23.9171   17.2427 N   0  0  0  0  0  0  0  0  0  0  0  0
  -21.7271  -21.9120   18.7797 N   0  3  0  0  0  0  0  0  0  0  0  0
  -31.7910  -19.8651   24.7672 O   0  0  0  0  0  0  0  0  0  0  0  0
  -23.3616  -28.9156   23.2650 O   0  0  0  0  0  0  0  0  0  0  0  0
  -20.1543  -26.5957   22.0722 O   0  0  0  0  0  0  0  0  0  0  0  0
  -23.1273  -23.0800   20.9225 O   0  0  0  0  0  0  0  0  0  0  0  0
  -28.8926  -25.0378   16.9003 O   0  0  0  0  0  0  0  0  0  0  0  0
  -31.5656  -13.5343   20.2442 O   0  0  0  0  0  0  0  0  0  0  0  0
  -28.3492  -27.3589   20.0424 O   0  0  0  0  0  0  0  0  0  1  0  0
  -27.4717  -10.6313   17.9603 F   0  0  0  0  0  0  0  0  0  0  0  0
  -30.5376  -11.2987   21.5043 F   0  0  0  0  0  0  0  0  0  0  0  0
  1  2  1  0  0  0  0
  1  5  2  0  0  0  0
  2  6  2  0  0  0  0
  3  8  2  0  0  0  0
  3 17  1  0  0  0  0
  4  9  1  0  0  0  0
  4 17  2  0  0  0  0
  5 19  1  0  0  0  0
  6 21  1  0  0  0  0
  7 10  2  0  0  0  0
  7 20  1  0  0  0  0
  8 23  1  0  0  0  0
  9 23  2  0  0  0  0
 10 24  1  0  0  0  0
 11 12  2  0  0  0  0
 11 25  1  0  0  0  0
 12 26  1  0  0  0  0
 13 16  2  0  0  0  0
 13 29  1  0  0  0  0
 14 22  1  0  0  0  0
 14 24  2  0  0  0  0
 15 26  2  0  0  0  0
 15 27  1  0  0  0  0
 16 62  1  0  0  0  0
 17 28  1  0  0  0  0
 18 28  1  0  0  0  0
 18 30  2  0  0  0  0
 18 32  1  0  0  0  0
 19 21  2  0  0  0  0
 19 37  1  0  0  0  0
 20 22  2  0  0  0  0
 20 38  1  0  0  0  0
 21 46  1  0  0  0  0
 22 39  1  0  0  0  0
 23 79  1  0  0  0  0
 24 80  1  0  0  0  0
 25 27  2  0  0  0  0
 25 79  1  0  0  0  0
 26 81  1  0  0  0  0
 27 82  1  0  0  0  0
 28 63  2  0  0  0  0
 29 56  1  0  0  0  0
 29 64  2  0  0  0  0
 30 65  1  0  0  0  0
 30 68  1  0  0  0  0
 31 60  1  0  0  0  0
 31 62  2  0  0  0  0
 31 64  1  0  0  0  0
 32 69  1  0  0  0  0
 32 74  2  0  0  0  0
 33 47  1  0  0  0  0
 33 70  1  0  0  0  0
 33 75  2  0  0  0  0
 34 58  1  0  0  0  0
 34 66  1  0  0  0  0
 34 76  2  0  0  0  0
 35 59  1  0  0  0  0
 35 71  1  0  0  0  0
 35 77  2  0  0  0  0
 36 67  1  0  0  0  0
 36 72  1  0  0  0  0
 36 78  2  0  0  0  0
 37 40  1  0  0  0  0
 38 47  1  0  0  0  0
 39 66  1  0  0  0  0
 40 42  1  0  0  0  0
 41 43  1  0  0  0  0
 41 44  1  0  0  0  0
 42 46  1  0  0  0  0
 43 48  1  0  0  0  0
 44 67  1  0  0  0  0
 45 48  1  0  0  0  0
 45 67  1  0  0  0  0
 46 70  1  0  0  0  0
 47 66  1  0  0  0  0
 48 65  1  0  0  0  0
 49 59  1  0  0  0  0
 50 60  1  0  0  0  0
 51 60  1  0  0  0  0
 52 61  1  0  0  0  0
 53 61  1  0  0  0  0
 54 61  1  0  0  0  0
 55 73  1  0  0  0  0
 56 80  1  0  0  0  0
 57 60  1  0  0  0  0
 57 72  1  0  0  0  0
 58 61  1  0  0  0  0
 58 71  1  0  0  0  0
 59 73  1  0  0  0  0
 63 65  1  0  0  0  0
M  CHG  1  73   1
M  ISO  4  36 100  56 101  72 100  80 101
M  END
> <Batch ID>
0057

> <Smiles>
CNC(C)C(=O)NC(C(=O)N1Cc2cc([101O:1][101CH2:1]c3ccnc(C(C)(C)C[100NH:0][100C:0](=O)N4CCCC(n5nc(-c6ccc(Oc7ccc(F)cc7F)cc6)c(C(N)=O)c5N)C4)n3)ccc2CC1C(=O)NC1CCCc2ccccc21)C(C)(C)C

> <Shape>
0.224

> <Color>
0.071

> <Negative vol penalty>
0.000

$$$$
