
  -OEChem-04052317503D

 80 88  0     1  0  0  0  0  0999 V2000
  -17.1987  -28.4761   19.8523 C   0  0  0  0  0  0  0  0  0  0  0  0
  -18.4831  -28.4443   19.3188 C   0  0  0  0  0  0  0  0  0  0  0  0
  -25.6576  -12.9994   19.5931 C   0  0  0  0  0  0  0  0  0  0  0  0
  -25.7664  -13.9493   21.8118 C   0  0  0  0  0  0  0  0  0  0  0  0
  -16.9673  -29.1098   21.0725 C   0  0  0  0  0  0  0  0  0  0  0  0
  -19.5369  -29.0473   20.0048 C   0  0  0  0  0  0  0  0  0  0  0  0
  -23.6863  -26.1471   20.1290 C   0  0  0  0  0  0  0  0  0  0  0  0
  -25.3568  -11.7527   20.1415 C   0  0  0  0  0  0  0  0  0  0  0  0
  -25.4655  -12.7026   22.3603 C   0  0  0  0  0  0  0  0  0  0  0  0
  -24.4695  -26.1064   18.9763 C   0  0  0  0  0  0  0  0  0  0  0  0
  -22.6526  -10.1863   21.4326 C   0  0  0  0  0  0  0  0  0  0  0  0
  -21.6202   -9.4529   20.8480 C   0  0  0  0  0  0  0  0  0  0  0  0
  -25.9966  -27.6904   19.9652 C   0  0  0  0  0  0  0  0  0  0  0  0
  -23.1688   -7.6648   20.3565 C   0  0  0  0  0  0  0  0  0  0  0  0
  -30.1824  -25.9246   17.1731 C   0  0  0  0  0  0  0  0  0  0  0  0
  -25.8625  -14.0977   20.4282 C   0  0  0  0  0  0  0  0  0  0  0  0
  -25.2631  -16.3880   19.4779 C   0  0  0  0  0  0  0  0  0  0  0  0
  -18.0205  -29.7125   21.7784 C   0  0  0  0  0  0  0  0  0  0  0  0
  -24.0472  -26.9694   21.2060 C   0  0  0  0  0  0  0  0  0  0  0  0
  -19.3192  -29.6909   21.2349 C   0  0  0  0  0  0  0  0  0  0  0  0
  -25.2178  -27.7378   21.1315 C   0  0  0  0  0  0  0  0  0  0  0  0
  -25.2607  -11.6043   21.5252 C   0  0  0  0  0  0  0  0  0  0  0  0
  -25.6233  -26.8803   18.8931 C   0  0  0  0  0  0  0  0  0  0  0  0
  -23.9432   -9.6590   21.4792 C   0  0  0  0  0  0  0  0  0  0  0  0
  -21.8783   -8.1922   20.3099 C   0  0  0  0  0  0  0  0  0  0  0  0
  -24.2012   -8.3982   20.9411 C   0  0  0  0  0  0  0  0  0  0  0  0
  -26.1738  -15.3856   19.8622 C   0  0  0  0  0  0  0  0  0  0  0  0
  -28.9073  -25.4572   17.1915 C   0  0  0  0  0  0  0  0  0  0  0  0
  -26.0533  -17.4065   19.0040 C   0  0  0  0  0  0  0  0  0  0  0  0
  -23.8309  -16.3975   19.5436 C   0  0  0  0  0  0  0  0  0  0  0  0
  -22.7073  -29.4418   22.6878 C   0  0  0  0  0  0  0  0  0  0  0  0
  -25.2222  -29.0953   24.7071 C   0  0  0  0  0  0  0  0  0  0  0  0
  -28.4063  -27.9715   25.2029 C   0  0  0  0  0  0  0  0  0  0  0  0
  -30.5381  -20.6978   19.4510 C   0  0  0  0  0  0  0  0  0  0  0  0
  -17.7132  -30.4267   23.0708 C   0  0  0  0  0  0  0  0  0  0  0  0
  -23.2061  -26.9817   22.4530 C   0  0  0  0  0  0  0  0  0  0  0  0
  -25.6599  -28.6217   22.2680 C   0  0  0  0  0  0  0  0  0  0  0  0
  -18.9510  -30.7161   23.9159 C   0  0  0  0  0  0  0  0  0  0  0  0
  -30.9948  -17.5119   17.9285 C   0  0  0  0  0  0  0  0  0  0  0  0
  -20.0630  -31.3013   23.0512 C   0  0  0  0  0  0  0  0  0  0  0  0
  -29.7094  -16.7559   18.2694 C   0  0  0  0  0  0  0  0  0  0  0  0
  -31.4361  -18.4201   19.0741 C   0  0  0  0  0  0  0  0  0  0  0  0
  -29.1191  -18.6032   19.8935 C   0  0  0  0  0  0  0  0  0  0  0  0
  -20.4926  -30.3121   21.9610 C   0  0  1  0  0  0  0  0  0  0  0  0
  -23.3920  -28.2458   23.2866 C   0  0  1  0  0  0  0  0  0  0  0  0
  -28.6038  -17.7165   18.7470 C   0  0  2  0  0  0  0  0  0  0  0  0
  -30.2090  -27.8656   26.9454 C   0  0  0  0  0  0  0  0  0  0  0  0
  -25.8401  -32.0472   24.2439 C   0  0  0  0  0  0  0  0  0  0  0  0
  -28.1171  -31.6499   25.2061 C   0  0  0  0  0  0  0  0  0  0  0  0
  -26.0896  -31.2886   26.6138 C   0  0  0  0  0  0  0  0  0  0  0  0
  -30.5911  -26.5020   19.4191 C   0  0  0  0  0  0  0  0  0  0  0  0
  -28.4170  -25.0121   25.1784 C   0  0  0  0  0  0  0  0  0  0  0  0
  -27.7128  -25.4897   16.2693 C   0  0  0  0  0  0  0  0  0  0  0  0
  -29.0531  -23.5232   18.5351 C   0  0  0  0  0  0  0  0  0  0  0  0
  -29.4938  -22.9113   19.8623 C   0  0  0  0  0  0  0  0  0  0  0  0
  -26.3974  -25.6229   17.0288 C   0  0  0  0  0  0  0  0  0  1  0  0
  -26.6269  -29.6449   24.7695 C   0  0  1  0  0  0  0  0  0  0  0  0
  -29.0217  -27.1494   26.3208 C   0  0  2  0  0  0  0  0  0  0  0  0
  -26.6593  -31.1426   25.1860 C   0  0  0  0  0  0  0  0  0  0  0  0
  -27.4453  -15.7356   19.6506 N   0  0  0  0  0  0  0  0  0  0  0  0
  -30.4338  -25.3897   18.4937 N   0  0  0  0  0  0  0  0  0  0  0  0
  -29.0658  -24.9791   18.5478 N   0  0  0  0  0  0  0  0  0  0  0  0
  -27.3392  -16.9693   19.1281 N   0  0  0  0  0  0  0  0  0  0  0  0
  -24.8007  -28.6043   23.4634 N   0  0  0  0  0  0  0  0  0  0  0  0
  -30.3426  -19.3071   19.4784 N   0  0  0  0  0  0  0  0  0  0  0  0
  -25.7667  -18.6245   18.4974 N   0  0  0  0  0  0  0  0  0  0  0  0
  -23.1781  -15.2690   20.0580 N   0  0  0  0  0  0  0  0  0  0  0  0
  -21.3450  -29.2841   22.5187 N   0  0  0  0  0  0  0  0  0  0  0  0
  -27.3720  -28.7610   25.6593 N   0  0  0  0  0  0  0  0  0  0  0  0
  -29.4489  -21.4661   19.8435 N   0  0  0  0  0  0  0  0  0  0  0  0
  -29.4878  -25.8333   25.7997 N   0  3  0  0  0  0  0  0  0  0  0  0
  -23.1494  -17.3712   19.1423 O   0  0  0  0  0  0  0  0  0  0  0  0
  -23.3661  -30.4348   22.4019 O   0  0  0  0  0  0  0  0  0  0  0  0
  -24.5272  -29.0949   25.7263 O   0  0  0  0  0  0  0  0  0  0  0  0
  -28.8057  -27.9215   24.0417 O   0  0  0  0  0  0  0  0  0  0  0  0
  -31.6025  -21.2165   19.0975 O   0  0  0  0  0  0  0  0  0  0  0  0
  -24.9669  -10.3880   22.0607 O   0  0  0  0  0  0  0  0  0  0  0  0
  -26.3891  -26.8430   17.7688 O   0  0  0  0  0  0  0  0  0  1  0  0
  -20.8864   -7.4873   19.7498 F   0  0  0  0  0  0  0  0  0  0  0  0
  -25.4388   -7.8858   20.9840 F   0  0  0  0  0  0  0  0  0  0  0  0
  1  2  1  0  0  0  0
  1  5  2  0  0  0  0
  2  6  2  0  0  0  0
  3  8  2  0  0  0  0
  3 16  1  0  0  0  0
  4  9  1  0  0  0  0
  4 16  2  0  0  0  0
  5 18  1  0  0  0  0
  6 20  1  0  0  0  0
  7 10  2  0  0  0  0
  7 19  1  0  0  0  0
  8 22  1  0  0  0  0
  9 22  2  0  0  0  0
 10 23  1  0  0  0  0
 11 12  2  0  0  0  0
 11 24  1  0  0  0  0
 12 25  1  0  0  0  0
 13 21  1  0  0  0  0
 13 23  2  0  0  0  0
 14 25  2  0  0  0  0
 14 26  1  0  0  0  0
 15 28  2  0  0  0  0
 15 61  1  0  0  0  0
 16 27  1  0  0  0  0
 17 27  1  0  0  0  0
 17 29  2  0  0  0  0
 17 30  1  0  0  0  0
 18 20  2  0  0  0  0
 18 35  1  0  0  0  0
 19 21  2  0  0  0  0
 19 36  1  0  0  0  0
 20 44  1  0  0  0  0
 21 37  1  0  0  0  0
 22 77  1  0  0  0  0
 23 78  1  0  0  0  0
 24 26  2  0  0  0  0
 24 77  1  0  0  0  0
 25 79  1  0  0  0  0
 26 80  1  0  0  0  0
 27 60  2  0  0  0  0
 28 53  1  0  0  0  0
 28 62  1  0  0  0  0
 29 63  1  0  0  0  0
 29 66  1  0  0  0  0
 30 67  1  0  0  0  0
 30 72  2  0  0  0  0
 31 45  1  0  0  0  0
 31 68  1  0  0  0  0
 31 73  2  0  0  0  0
 32 57  1  0  0  0  0
 32 64  1  0  0  0  0
 32 74  2  0  0  0  0
 33 58  1  0  0  0  0
 33 69  1  0  0  0  0
 33 75  2  0  0  0  0
 34 65  1  0  0  0  0
 34 70  1  0  0  0  0
 34 76  2  0  0  0  0
 35 38  1  0  0  0  0
 36 45  1  0  0  0  0
 37 64  1  0  0  0  0
 38 40  1  0  0  0  0
 39 41  1  0  0  0  0
 39 42  1  0  0  0  0
 40 44  1  0  0  0  0
 41 46  1  0  0  0  0
 42 65  1  0  0  0  0
 43 46  1  0  0  0  0
 43 65  1  0  0  0  0
 44 68  1  0  0  0  0
 45 64  1  0  0  0  0
 46 63  1  0  0  0  0
 47 58  1  0  0  0  0
 48 59  1  0  0  0  0
 49 59  1  0  0  0  0
 50 59  1  0  0  0  0
 51 61  1  0  0  0  0
 52 71  1  0  0  0  0
 53 56  1  0  0  0  0
 54 55  1  0  0  0  0
 54 62  1  0  0  0  0
 55 70  1  0  0  0  0
 56 78  1  0  0  0  0
 57 59  1  0  0  0  0
 57 69  1  0  0  0  0
 58 71  1  0  0  0  0
 60 63  1  0  0  0  0
 61 62  1  0  0  0  0
M  CHG  1  71   1
M  ISO  4  34 100  56 101  70 100  78 101
M  END
> <Batch ID>
0058

> <Smiles>
CNC(C)C(=O)NC(C(=O)N1Cc2cc([101O:1][101CH2:1]Cc3cn(C)n3CC[100NH:0][100C:0](=O)N3CCCC(n4nc(-c5ccc(Oc6ccc(F)cc6F)cc5)c(C(N)=O)c4N)C3)ccc2CC1C(=O)NC1CCCc2ccccc21)C(C)(C)C

> <Shape>
0.261

> <Color>
0.073

> <Negative vol penalty>
0.000

$$$$

  -OEChem-04052317503D

 86 94  0     1  0  0  0  0  0999 V2000
  -22.8365   -8.1809   20.5779 C   0  0  0  0  0  0  0  0  0  0  0  0
  -22.3119   -9.3242   19.9836 C   0  0  0  0  0  0  0  0  0  0  0  0
  -28.4346  -26.4087   18.9451 C   0  0  0  0  0  0  0  0  0  0  0  0
  -26.4649  -25.2619   19.7465 C   0  0  0  0  0  0  0  0  0  0  0  0
  -23.6311   -8.2913   21.7182 C   0  0  0  0  0  0  0  0  0  0  0  0
  -22.5808  -10.5786   20.5302 C   0  0  0  0  0  0  0  0  0  0  0  0
  -23.5915  -17.4052   18.6087 C   0  0  0  0  0  0  0  0  0  0  0  0
  -29.0904  -25.1854   18.8065 C   0  0  0  0  0  0  0  0  0  0  0  0
  -27.1207  -24.0386   19.6078 C   0  0  0  0  0  0  0  0  0  0  0  0
  -23.1284  -18.6869   18.9030 C   0  0  0  0  0  0  0  0  0  0  0  0
  -27.8965  -21.8993   17.1094 C   0  0  0  0  0  0  0  0  0  0  0  0
  -27.1929  -20.8522   16.5143 C   0  0  0  0  0  0  0  0  0  0  0  0
  -24.5789  -18.7621   20.8290 C   0  0  0  0  0  0  0  0  0  0  0  0
  -27.4467  -19.5384   18.5259 C   0  0  0  0  0  0  0  0  0  0  0  0
  -20.4979  -28.8170   20.5732 C   0  0  0  0  0  0  0  0  0  0  0  0
  -27.1218  -26.4469   19.4151 C   0  0  0  0  0  0  0  0  0  0  0  0
  -25.6648  -28.3719   18.5913 C   0  0  0  0  0  0  0  0  0  0  0  0
  -23.9177   -9.5484   22.2734 C   0  0  0  0  0  0  0  0  0  0  0  0
  -24.5454  -16.7871   19.4298 C   0  0  0  0  0  0  0  0  0  0  0  0
  -23.3788  -10.7058   21.6798 C   0  0  0  0  0  0  0  0  0  0  0  0
  -25.0544  -17.4736   20.5415 C   0  0  0  0  0  0  0  0  0  0  0  0
  -28.4335  -24.0004   19.1378 C   0  0  0  0  0  0  0  0  0  0  0  0
  -23.6200  -19.3644   20.0150 C   0  0  0  0  0  0  0  0  0  0  0  0
  -28.3753  -21.7659   18.4128 C   0  0  0  0  0  0  0  0  0  0  0  0
  -26.9679  -19.6718   17.2226 C   0  0  0  0  0  0  0  0  0  0  0  0
  -28.1504  -20.5854   19.1210 C   0  0  0  0  0  0  0  0  0  0  0  0
  -26.4440  -27.7102   19.5591 C   0  0  0  0  0  0  0  0  0  0  0  0
  -20.8210  -28.0418   21.6510 C   0  0  0  0  0  0  0  0  0  0  0  0
  -25.2474  -29.5225   19.2146 C   0  0  0  0  0  0  0  0  0  0  0  0
  -21.5386  -30.0979   22.0487 C   0  0  0  0  0  0  0  0  0  0  0  0
  -25.3465  -27.9815   17.2489 C   0  0  0  0  0  0  0  0  0  0  0  0
  -24.5982  -14.1640   21.2244 C   0  0  0  0  0  0  0  0  0  0  0  0
  -27.7264  -14.9433   21.5839 C   0  0  0  0  0  0  0  0  0  0  0  0
  -30.1344  -17.3610   21.5309 C   0  0  0  0  0  0  0  0  0  0  0  0
  -23.6800  -31.0018   24.7317 C   0  0  0  0  0  0  0  0  0  0  0  0
  -24.7425   -9.6141   23.5343 C   0  0  0  0  0  0  0  0  0  0  0  0
  -25.0545  -15.4147   19.0835 C   0  0  0  0  0  0  0  0  0  0  0  0
  -26.0943  -16.8621   21.4433 C   0  0  0  0  0  0  0  0  0  0  0  0
  -25.2884  -11.0081   23.8332 C   0  0  0  0  0  0  0  0  0  0  0  0
  -26.7891  -32.1604   23.0908 C   0  0  0  0  0  0  0  0  0  0  0  0
  -24.1928  -12.0568   23.6693 C   0  0  0  0  0  0  0  0  0  0  0  0
  -26.9731  -31.1408   21.9680 C   0  0  0  0  0  0  0  0  0  0  0  0
  -26.0397  -31.5661   24.2795 C   0  0  0  0  0  0  0  0  0  0  0  0
  -24.9142  -29.9363   22.7992 C   0  0  0  0  0  0  0  0  0  0  0  0
  -23.6682  -12.0861   22.2286 C   0  0  1  0  0  0  0  0  0  0  0  0
  -25.6480  -14.6779   20.2803 C   0  0  1  0  0  0  0  0  0  0  0  0
  -25.6250  -30.5168   21.5674 C   0  0  2  0  0  0  0  0  0  0  0  0
  -32.4362  -18.3570   21.6144 C   0  0  0  0  0  0  0  0  0  0  0  0
  -27.2880  -14.7928   24.5997 C   0  0  0  0  0  0  0  0  0  0  0  0
  -29.4384  -16.0383   24.9043 C   0  0  0  0  0  0  0  0  0  0  0  0
  -29.4414  -13.7978   23.8076 C   0  0  0  0  0  0  0  0  0  0  0  0
  -20.8175  -31.2269   19.9652 C   0  0  0  0  0  0  0  0  0  0  0  0
  -21.2311  -31.0988   25.0022 C   0  0  0  0  0  0  0  0  0  0  0  0
  -30.5281  -16.9864   18.6217 C   0  0  0  0  0  0  0  0  0  0  0  0
  -21.7734  -23.9772   23.2758 C   0  0  0  0  0  0  0  0  0  0  0  0
  -20.5850  -26.5860   21.9321 C   0  0  0  0  0  0  0  0  0  0  0  0
  -22.1625  -31.2631   22.7238 C   0  0  0  0  0  0  0  0  0  0  0  0
  -21.2735  -21.9636   20.8895 C   0  0  0  0  0  0  0  0  0  0  0  0
  -21.7119  -25.6752   21.4555 C   0  0  0  0  0  0  0  0  0  0  0  0
  -22.0515  -23.2708   20.9040 C   0  0  0  0  0  0  0  0  0  0  0  0
  -21.8313  -20.9289   19.9200 C   0  0  0  0  0  0  0  0  0  1  0  0
  -28.5125  -15.7888   22.5566 C   0  0  1  0  0  0  0  0  0  0  0  0
  -31.5061  -17.4024   20.8820 C   0  0  2  0  0  0  0  0  0  0  0  0
  -28.6490  -15.1154   23.9513 C   0  0  0  0  0  0  0  0  0  0  0  0
  -26.5190  -28.3844   20.7097 N   0  0  0  0  0  0  0  0  0  0  0  0
  -20.9533  -30.0843   20.8467 N   0  0  0  0  0  0  0  0  0  0  0  0
  -25.7816  -29.4817   20.4688 N   0  0  0  0  0  0  0  0  0  0  0  0
  -21.4642  -28.8600   22.5482 N   0  3  0  0  0  0  0  0  0  0  0  0
  -26.5558  -15.5159   21.0664 N   0  0  0  0  0  0  0  0  0  0  0  0
  -24.7831  -30.9418   23.8644 N   0  0  0  0  0  0  0  0  0  0  0  0
  -24.4794  -30.5550   18.8066 N   0  0  0  0  0  0  0  0  0  0  0  0
  -25.8575  -26.7686   16.7669 N   0  0  0  0  0  0  0  0  0  0  0  0
  -24.5946  -12.7896   21.3677 N   0  0  0  0  0  0  0  0  0  0  0  0
  -29.7857  -16.0811   21.9070 N   0  0  0  0  0  0  0  0  0  0  0  0
  -22.4056  -31.0252   24.1449 N   0  0  0  0  0  0  0  0  0  0  0  0
  -31.3954  -17.8491   19.4645 N   0  3  0  0  0  0  0  0  0  0  0  0
  -21.4238  -24.2415   21.8310 N   0  3  1  0  0  0  0  0  0  0  0  0
  -24.6438  -28.6950   16.4936 O   0  0  0  0  0  0  0  0  0  0  0  0
  -23.8479  -14.9558   21.7827 O   0  0  0  0  0  0  0  0  0  0  0  0
  -28.1395  -13.8192   21.2885 O   0  0  0  0  0  0  0  0  0  0  0  0
  -29.4431  -18.3644   21.6917 O   0  0  0  0  0  0  0  0  0  0  0  0
  -23.8260  -31.0424   25.9600 O   0  0  0  0  0  0  0  0  0  0  0  0
  -29.0730  -22.8066   19.0025 O   0  0  0  0  0  0  0  0  0  0  0  0
  -23.1691  -20.6152   20.3049 O   0  0  0  0  0  0  0  0  0  1  0  0
  -26.2909  -18.6670   16.6515 F   0  0  0  0  0  0  0  0  0  0  0  0
  -28.6069  -20.4519   20.3738 F   0  0  0  0  0  0  0  0  0  0  0  0
  1  2  1  0  0  0  0
  1  5  2  0  0  0  0
  2  6  2  0  0  0  0
  3  8  2  0  0  0  0
  3 16  1  0  0  0  0
  4  9  1  0  0  0  0
  4 16  2  0  0  0  0
  5 18  1  0  0  0  0
  6 20  1  0  0  0  0
  7 10  2  0  0  0  0
  7 19  1  0  0  0  0
  8 22  1  0  0  0  0
  9 22  2  0  0  0  0
 10 23  1  0  0  0  0
 11 12  2  0  0  0  0
 11 24  1  0  0  0  0
 12 25  1  0  0  0  0
 13 21  1  0  0  0  0
 13 23  2  0  0  0  0
 14 25  2  0  0  0  0
 14 26  1  0  0  0  0
 15 28  2  0  0  0  0
 15 66  1  0  0  0  0
 16 27  1  0  0  0  0
 17 27  1  0  0  0  0
 17 29  2  0  0  0  0
 17 31  1  0  0  0  0
 18 20  2  0  0  0  0
 18 36  1  0  0  0  0
 19 21  2  0  0  0  0
 19 37  1  0  0  0  0
 20 45  1  0  0  0  0
 21 38  1  0  0  0  0
 22 83  1  0  0  0  0
 23 84  1  0  0  0  0
 24 26  2  0  0  0  0
 24 83  1  0  0  0  0
 25 85  1  0  0  0  0
 26 86  1  0  0  0  0
 27 65  2  0  0  0  0
 28 56  1  0  0  0  0
 28 68  1  0  0  0  0
 29 67  1  0  0  0  0
 29 71  1  0  0  0  0
 30 57  1  0  0  0  0
 30 66  1  0  0  0  0
 30 68  2  0  0  0  0
 31 72  1  0  0  0  0
 31 78  2  0  0  0  0
 32 46  1  0  0  0  0
 32 73  1  0  0  0  0
 32 79  2  0  0  0  0
 33 62  1  0  0  0  0
 33 69  1  0  0  0  0
 33 80  2  0  0  0  0
 34 63  1  0  0  0  0
 34 74  1  0  0  0  0
 34 81  2  0  0  0  0
 35 70  1  0  0  0  0
 35 75  1  0  0  0  0
 35 82  2  0  0  0  0
 36 39  1  0  0  0  0
 37 46  1  0  0  0  0
 38 69  1  0  0  0  0
 39 41  1  0  0  0  0
 40 42  1  0  0  0  0
 40 43  1  0  0  0  0
 41 45  1  0  0  0  0
 42 47  1  0  0  0  0
 43 70  1  0  0  0  0
 44 47  1  0  0  0  0
 44 70  1  0  0  0  0
 45 73  1  0  0  0  0
 46 69  1  0  0  0  0
 47 67  1  0  0  0  0
 48 63  1  0  0  0  0
 49 64  1  0  0  0  0
 50 64  1  0  0  0  0
 51 64  1  0  0  0  0
 52 66  1  0  0  0  0
 53 75  1  0  0  0  0
 54 76  1  0  0  0  0
 55 77  1  0  0  0  0
 56 59  1  0  0  0  0
 57 75  1  0  0  0  0
 58 60  1  0  0  0  0
 58 61  1  0  0  0  0
 59 77  1  0  0  0  0
 60 77  1  0  0  0  0
 61 84  1  0  0  0  0
 62 64  1  0  0  0  0
 62 74  1  0  0  0  0
 63 76  1  0  0  0  0
 65 67  1  0  0  0  0
M  CHG  3  68   1  76   1  77   1
M  ISO  4  35 100  61 101  75 100  84 101
M  END
> <Batch ID>
0058

> <Smiles>
CNC(C)C(=O)NC(C(=O)N1Cc2cc([101O:1][101CH2:1]CCN(C)CCc3cn(C)c(C[100N:0](C)[100C:0](=O)N4CCCC(n5nc(-c6ccc(Oc7ccc(F)cc7F)cc6)c(C(N)=O)c5N)C4)n3)ccc2CC1C(=O)NC1CCCc2ccccc21)C(C)(C)C

> <Shape>
0.259

> <Color>
0.063

> <Negative vol penalty>
0.000

$$$$

  -OEChem-04052317503D

 79 87  0     1  0  0  0  0  0999 V2000
  -29.7346  -12.3219   19.5535 C   0  0  0  0  0  0  0  0  0  0  0  0
  -29.6422  -13.6576   19.1756 C   0  0  0  0  0  0  0  0  0  0  0  0
  -22.1456  -27.4330   23.1832 C   0  0  0  0  0  0  0  0  0  0  0  0
  -22.8163  -28.9493   21.4259 C   0  0  0  0  0  0  0  0  0  0  0  0
  -28.5864  -11.6216   19.9211 C   0  0  0  0  0  0  0  0  0  0  0  0
  -28.4013  -14.2935   19.1641 C   0  0  0  0  0  0  0  0  0  0  0  0
  -28.5619  -18.9047   21.2514 C   0  0  0  0  0  0  0  0  0  0  0  0
  -21.2169  -28.3697   23.6369 C   0  0  0  0  0  0  0  0  0  0  0  0
  -21.8876  -29.8860   21.8796 C   0  0  0  0  0  0  0  0  0  0  0  0
  -29.0897  -19.9364   20.4763 C   0  0  0  0  0  0  0  0  0  0  0  0
  -18.4172  -30.2176   25.0375 C   0  0  0  0  0  0  0  0  0  0  0  0
  -17.1387  -29.7608   25.3574 C   0  0  0  0  0  0  0  0  0  0  0  0
  -26.8546  -20.6643   19.9341 C   0  0  0  0  0  0  0  0  0  0  0  0
  -16.8494  -28.9820   23.0887 C   0  0  0  0  0  0  0  0  0  0  0  0
  -28.8286  -25.0258   18.2237 C   0  0  0  0  0  0  0  0  0  0  0  0
  -22.9454  -27.7229   22.0777 C   0  0  0  0  0  0  0  0  0  0  0  0
  -23.6948  -25.7431   20.6542 C   0  0  0  0  0  0  0  0  0  0  0  0
  -27.3321  -12.2520   19.9234 C   0  0  0  0  0  0  0  0  0  0  0  0
  -27.1742  -18.7381   21.3650 C   0  0  0  0  0  0  0  0  0  0  0  0
  -27.2350  -13.6006   19.5309 C   0  0  0  0  0  0  0  0  0  0  0  0
  -26.3118  -19.6312   20.7133 C   0  0  0  0  0  0  0  0  0  0  0  0
  -21.0879  -29.5961   22.9851 C   0  0  0  0  0  0  0  0  0  0  0  0
  -28.2361  -20.8146   19.8152 C   0  0  0  0  0  0  0  0  0  0  0  0
  -18.9118  -30.0568   23.7432 C   0  0  0  0  0  0  0  0  0  0  0  0
  -16.3548  -29.1430   24.3830 C   0  0  0  0  0  0  0  0  0  0  0  0
  -18.1279  -29.4389   22.7688 C   0  0  0  0  0  0  0  0  0  0  0  0
  -23.9053  -26.7560   21.6089 C   0  0  0  0  0  0  0  0  0  0  0  0
  -30.0463  -24.3939   18.5123 C   0  0  0  0  0  0  0  0  0  0  0  0
  -24.9057  -25.1015   20.5617 C   0  0  0  0  0  0  0  0  0  0  0  0
  -22.5105  -25.4118   19.9170 C   0  0  0  0  0  0  0  0  0  0  0  0
  -25.1202  -16.4384   20.5927 C   0  0  0  0  0  0  0  0  0  0  0  0
  -30.5111  -26.9215   21.7356 C   0  0  0  0  0  0  0  0  0  0  0  0
  -23.0016  -18.3488   22.1368 C   0  0  0  0  0  0  0  0  0  0  0  0
  -22.1657  -21.4822   23.1996 C   0  0  0  0  0  0  0  0  0  0  0  0
  -26.1126  -11.4407   20.2832 C   0  0  0  0  0  0  0  0  0  0  0  0
  -26.6206  -17.6364   22.2266 C   0  0  0  0  0  0  0  0  0  0  0  0
  -24.8144  -19.5079   20.8194 C   0  0  0  0  0  0  0  0  0  0  0  0
  -24.8873  -12.2927   20.6043 C   0  0  0  0  0  0  0  0  0  0  0  0
  -28.8151  -24.0796   23.1093 C   0  0  0  0  0  0  0  0  0  0  0  0
  -24.7056  -13.3837   19.5539 C   0  0  0  0  0  0  0  0  0  0  0  0
  -27.3423  -24.3655   22.8187 C   0  0  0  0  0  0  0  0  0  0  0  0
  -29.5830  -25.3618   23.4149 C   0  0  0  0  0  0  0  0  0  0  0  0
  -27.9983  -26.6931   22.0593 C   0  0  0  0  0  0  0  0  0  0  0  0
  -25.9103  -14.3322   19.5295 C   0  0  1  0  0  0  0  0  0  0  0  0
  -25.1925  -17.2485   21.8561 C   0  0  1  0  0  0  0  0  0  0  0  0
  -27.1927  -25.4278   21.7153 C   0  0  2  0  0  0  0  0  0  0  0  0
  -31.6216  -28.0156   19.8004 C   0  0  0  0  0  0  0  0  0  0  0  0
  -20.3551  -22.7370   24.4016 C   0  0  0  0  0  0  0  0  0  0  0  0
  -21.2606  -18.2293   19.6338 C   0  0  0  0  0  0  0  0  0  0  0  0
  -19.9917  -20.2031   20.5068 C   0  0  0  0  0  0  0  0  0  0  0  0
  -20.0023  -18.0632   21.7887 C   0  0  0  0  0  0  0  0  0  0  0  0
  -24.0129  -22.3111   25.3583 C   0  0  0  0  0  0  0  0  0  0  0  0
  -30.5600  -23.0548   18.0419 C   0  0  0  0  0  0  0  0  0  0  0  0
  -30.1703  -21.9208   18.9838 C   0  0  0  0  0  0  0  0  0  1  0  0
  -30.3456  -27.3400   20.2963 C   0  0  1  0  0  0  0  0  0  0  0  0
  -22.0928  -19.4840   21.7313 C   0  0  1  0  0  0  0  0  0  0  0  0
  -21.6739  -21.9928   24.5420 C   0  0  2  0  0  0  0  0  0  0  0  0
  -20.8650  -18.9963   20.9114 C   0  0  0  0  0  0  0  0  0  0  0  0
  -28.7717  -26.2061   18.8468 N   0  0  0  0  0  0  0  0  0  0  0  0
  -25.1518  -26.7614   22.0886 N   0  0  0  0  0  0  0  0  0  0  0  0
  -30.7770  -25.1666   19.3210 N   0  0  0  0  0  0  0  0  0  0  0  0
  -25.7354  -25.7439   21.4328 N   0  0  0  0  0  0  0  0  0  0  0  0
  -29.9585  -26.2197   19.4750 N   0  0  0  0  0  0  0  0  0  0  0  0
  -24.3217  -18.4107   21.6685 N   0  0  0  0  0  0  0  0  0  0  0  0
  -29.3972  -26.3536   22.3542 N   0  0  0  0  0  0  0  0  0  0  0  0
  -25.3309  -24.0560   19.8209 N   0  0  0  0  0  0  0  0  0  0  0  0
  -21.3539  -26.1731   20.1334 N   0  0  0  0  0  0  0  0  0  0  0  0
  -25.8440  -15.2621   20.6364 N   0  0  0  0  0  0  0  0  0  0  0  0
  -21.7482  -20.1900   22.9605 N   0  0  0  0  0  0  0  0  0  0  0  0
  -22.6749  -22.9194   25.1421 N   0  3  0  0  0  0  0  0  0  0  0  0
  -22.4744  -24.4581   19.1028 O   0  0  0  0  0  0  0  0  0  0  0  0
  -24.4558  -16.8495   19.6486 O   0  0  0  0  0  0  0  0  0  0  0  0
  -31.5996  -27.0923   22.2908 O   0  0  0  0  0  0  0  0  0  0  0  0
  -22.5585  -17.4442   22.8488 O   0  0  0  0  0  0  0  0  0  0  0  0
  -22.8486  -22.1630   22.4376 O   0  0  0  0  0  0  0  0  0  0  0  0
  -20.1816  -30.5102   23.4274 O   0  0  0  0  0  0  0  0  0  0  0  0
  -28.7486  -21.8221   19.0574 O   0  0  0  0  0  0  0  0  0  1  0  0
  -15.1277  -28.7029   24.6907 F   0  0  0  0  0  0  0  0  0  0  0  0
  -18.5981  -29.2805   21.5240 F   0  0  0  0  0  0  0  0  0  0  0  0
  1  2  1  0  0  0  0
  1  5  2  0  0  0  0
  2  6  2  0  0  0  0
  3  8  2  0  0  0  0
  3 16  1  0  0  0  0
  4  9  1  0  0  0  0
  4 16  2  0  0  0  0
  5 18  1  0  0  0  0
  6 20  1  0  0  0  0
  7 10  2  0  0  0  0
  7 19  1  0  0  0  0
  8 22  1  0  0  0  0
  9 22  2  0  0  0  0
 10 23  1  0  0  0  0
 11 12  2  0  0  0  0
 11 24  1  0  0  0  0
 12 25  1  0  0  0  0
 13 21  1  0  0  0  0
 13 23  2  0  0  0  0
 14 25  2  0  0  0  0
 14 26  1  0  0  0  0
 15 28  1  0  0  0  0
 15 59  2  0  0  0  0
 16 27  1  0  0  0  0
 17 27  1  0  0  0  0
 17 29  2  0  0  0  0
 17 30  1  0  0  0  0
 18 20  2  0  0  0  0
 18 35  1  0  0  0  0
 19 21  2  0  0  0  0
 19 36  1  0  0  0  0
 20 44  1  0  0  0  0
 21 37  1  0  0  0  0
 22 76  1  0  0  0  0
 23 77  1  0  0  0  0
 24 26  2  0  0  0  0
 24 76  1  0  0  0  0
 25 78  1  0  0  0  0
 26 79  1  0  0  0  0
 27 60  2  0  0  0  0
 28 53  1  0  0  0  0
 28 61  2  0  0  0  0
 29 62  1  0  0  0  0
 29 66  1  0  0  0  0
 30 67  1  0  0  0  0
 30 71  2  0  0  0  0
 31 45  1  0  0  0  0
 31 68  1  0  0  0  0
 31 72  2  0  0  0  0
 32 55  1  0  0  0  0
 32 65  1  0  0  0  0
 32 73  2  0  0  0  0
 33 56  1  0  0  0  0
 33 64  1  0  0  0  0
 33 74  2  0  0  0  0
 34 57  1  0  0  0  0
 34 69  1  0  0  0  0
 34 75  2  0  0  0  0
 35 38  1  0  0  0  0
 36 45  1  0  0  0  0
 37 64  1  0  0  0  0
 38 40  1  0  0  0  0
 39 41  1  0  0  0  0
 39 42  1  0  0  0  0
 40 44  1  0  0  0  0
 41 46  1  0  0  0  0
 42 65  1  0  0  0  0
 43 46  1  0  0  0  0
 43 65  1  0  0  0  0
 44 68  1  0  0  0  0
 45 64  1  0  0  0  0
 46 62  1  0  0  0  0
 47 55  1  0  0  0  0
 48 57  1  0  0  0  0
 49 58  1  0  0  0  0
 50 58  1  0  0  0  0
 51 58  1  0  0  0  0
 52 70  1  0  0  0  0
 53 54  1  0  0  0  0
 54 77  1  0  0  0  0
 55 63  1  0  0  0  0
 56 58  1  0  0  0  0
 56 69  1  0  0  0  0
 57 70  1  0  0  0  0
 59 63  1  0  0  0  0
 60 62  1  0  0  0  0
 61 63  1  0  0  0  0
M  CHG  1  70   1
M  ISO  4  32 100  54 101  55 100  77 101
M  END
> <Batch ID>
0058

> <Smiles>
CNC(C)C(=O)NC(C(=O)N1Cc2cc([101O:1][101CH2:1]Cc3cnn([100CH:0](C)[100C:0](=O)N4CCCC(n5nc(-c6ccc(Oc7ccc(F)cc7F)cc6)c(C(N)=O)c5N)C4)n3)ccc2CC1C(=O)NC1CCCc2ccccc21)C(C)(C)C

> <Shape>
0.215

> <Color>
0.075

> <Negative vol penalty>
0.000

$$$$

  -OEChem-04052317503D

 83 91  0     1  0  0  0  0  0999 V2000
  -16.7280  -30.2054   23.1109 C   0  0  0  0  0  0  0  0  0  0  0  0
  -17.9105  -30.7695   22.6430 C   0  0  0  0  0  0  0  0  0  0  0  0
  -27.3687  -17.7086   20.6328 C   0  0  0  0  0  0  0  0  0  0  0  0
  -28.9073  -17.2777   18.8206 C   0  0  0  0  0  0  0  0  0  0  0  0
  -16.7551  -28.9735   23.7633 C   0  0  0  0  0  0  0  0  0  0  0  0
  -19.1209  -30.1025   22.8282 C   0  0  0  0  0  0  0  0  0  0  0  0
  -25.4761  -29.0907   19.6812 C   0  0  0  0  0  0  0  0  0  0  0  0
  -26.6120  -16.5999   20.2540 C   0  0  0  0  0  0  0  0  0  0  0  0
  -28.1505  -16.1689   18.4418 C   0  0  0  0  0  0  0  0  0  0  0  0
  -26.8402  -29.1776   19.9561 C   0  0  0  0  0  0  0  0  0  0  0  0
  -24.4748  -13.6716   19.9840 C   0  0  0  0  0  0  0  0  0  0  0  0
  -24.0439  -12.8063   20.9896 C   0  0  0  0  0  0  0  0  0  0  0  0
  -26.7558  -27.0177   21.0271 C   0  0  0  0  0  0  0  0  0  0  0  0
  -26.3408  -12.3735   21.6013 C   0  0  0  0  0  0  0  0  0  0  0  0
  -32.6670  -29.0809   20.9250 C   0  0  0  0  0  0  0  0  0  0  0  0
  -28.5164  -18.0476   19.9161 C   0  0  0  0  0  0  0  0  0  0  0  0
  -30.3743  -19.2188   21.2138 C   0  0  0  0  0  0  0  0  0  0  0  0
  -17.9653  -28.2865   23.9480 C   0  0  0  0  0  0  0  0  0  0  0  0
  -24.7382  -27.9696   20.0874 C   0  0  0  0  0  0  0  0  0  0  0  0
  -19.1644  -28.8609   23.4849 C   0  0  0  0  0  0  0  0  0  0  0  0
  -25.3831  -26.9178   20.7538 C   0  0  0  0  0  0  0  0  0  0  0  0
  -27.0029  -15.8300   19.1585 C   0  0  0  0  0  0  0  0  0  0  0  0
  -27.4796  -28.1423   20.6317 C   0  0  0  0  0  0  0  0  0  0  0  0
  -25.8387  -13.8878   19.7870 C   0  0  0  0  0  0  0  0  0  0  0  0
  -24.9769  -12.1573   21.7983 C   0  0  0  0  0  0  0  0  0  0  0  0
  -26.7717  -13.2388   20.5957 C   0  0  0  0  0  0  0  0  0  0  0  0
  -29.2982  -19.1932   20.3065 C   0  0  0  0  0  0  0  0  0  0  0  0
  -31.6211  -28.5811   21.6574 C   0  0  0  0  0  0  0  0  0  0  0  0
  -30.7720  -20.5332   21.2378 C   0  0  0  0  0  0  0  0  0  0  0  0
  -33.5793  -27.0157   20.8778 C   0  0  0  0  0  0  0  0  0  0  0  0
  -30.9619  -18.1499   21.9674 C   0  0  0  0  0  0  0  0  0  0  0  0
  -22.2790  -27.4914   22.0439 C   0  0  0  0  0  0  0  0  0  0  0  0
  -22.4521  -24.4644   20.8908 C   0  0  0  0  0  0  0  0  0  0  0  0
  -24.3423  -22.0190   19.4438 C   0  0  0  0  0  0  0  0  0  0  0  0
  -31.9931  -25.2973   18.6000 C   0  0  0  0  0  0  0  0  0  0  0  0
  -17.9506  -26.9797   24.7009 C   0  0  0  0  0  0  0  0  0  0  0  0
  -23.2730  -27.8791   19.7596 C   0  0  0  0  0  0  0  0  0  0  0  0
  -24.6401  -25.6836   21.1934 C   0  0  0  0  0  0  0  0  0  0  0  0
  -19.2271  -26.1612   24.5253 C   0  0  0  0  0  0  0  0  0  0  0  0
  -28.5680  -24.6748   19.3468 C   0  0  0  0  0  0  0  0  0  0  0  0
  -20.4571  -27.0459   24.7017 C   0  0  0  0  0  0  0  0  0  0  0  0
  -28.5407  -23.1946   19.7315 C   0  0  0  0  0  0  0  0  0  0  0  0
  -29.5692  -24.9484   18.2266 C   0  0  0  0  0  0  0  0  0  0  0  0
  -30.9105  -22.9842   18.8723 C   0  0  0  0  0  0  0  0  0  0  0  0
  -20.4941  -28.1563   23.6447 C   0  0  1  0  0  0  0  0  0  0  0  0
  -22.5143  -26.9217   20.6736 C   0  0  1  0  0  0  0  0  0  0  0  0
  -29.9560  -22.6683   20.0365 C   0  0  2  0  0  0  0  0  0  0  0  0
  -24.2180  -19.6392   18.6574 C   0  0  0  0  0  0  0  0  0  0  0  0
  -34.9613  -24.8927   21.4064 C   0  0  0  0  0  0  0  0  0  0  0  0
  -36.0337  -26.8772   20.3731 C   0  0  0  0  0  0  0  0  0  0  0  0
  -22.5884  -23.5039   23.7837 C   0  0  0  0  0  0  0  0  0  0  0  0
  -23.4056  -21.2936   22.9381 C   0  0  0  0  0  0  0  0  0  0  0  0
  -21.1410  -22.1149   22.2904 C   0  0  0  0  0  0  0  0  0  0  0  0
  -24.9706  -22.7858   16.6552 C   0  0  0  0  0  0  0  0  0  0  0  0
  -30.4893  -29.4705   22.1116 C   0  0  0  0  0  0  0  0  0  0  0  0
  -34.4310  -25.4911   19.0225 C   0  0  0  0  0  0  0  0  0  0  0  0
  -29.3547  -29.5301   21.0947 C   0  0  0  0  0  0  0  0  0  1  0  0
  -23.1890  -23.2088   21.2901 C   0  0  1  0  0  0  0  0  0  0  0  0
  -24.0714  -21.1012   18.2653 C   0  0  2  0  0  0  0  0  0  0  0  0
  -34.6762  -26.1032   20.4492 C   0  0  0  0  0  0  0  0  0  0  0  0
  -22.5949  -22.5543   22.5691 C   0  0  0  0  0  0  0  0  0  0  0  0
  -33.6798  -28.3029   20.5141 N   0  0  0  0  0  0  0  0  0  0  0  0
  -29.0292  -20.3959   19.7915 N   0  0  0  0  0  0  0  0  0  0  0  0
  -31.5745  -27.2791   21.9931 N   0  0  0  0  0  0  0  0  0  0  0  0
  -32.5780  -26.4695   21.5954 N   0  0  0  0  0  0  0  0  0  0  0  0
  -29.9421  -21.1896   20.3772 N   0  0  0  0  0  0  0  0  0  0  0  0
  -23.2078  -25.6449   20.8553 N   0  0  0  0  0  0  0  0  0  0  0  0
  -30.8916  -24.4260   18.5792 N   0  0  0  0  0  0  0  0  0  0  0  0
  -31.7472  -21.1801   21.9109 N   0  0  0  0  0  0  0  0  0  0  0  0
  -30.4310  -16.8608   21.8241 N   0  0  0  0  0  0  0  0  0  0  0  0
  -20.9444  -27.6298   22.3741 N   0  0  0  0  0  0  0  0  0  0  0  0
  -23.1829  -22.3415   20.1170 N   0  0  0  0  0  0  0  0  0  0  0  0
  -33.2085  -24.7222   18.9506 N   0  0  0  0  0  0  0  0  0  0  0  0
  -25.0240  -21.3881   17.1557 N   0  3  0  0  0  0  0  0  0  0  0  0
  -31.9186  -18.3356   22.7572 O   0  0  0  0  0  0  0  0  0  0  0  0
  -23.2374  -27.7825   22.7499 O   0  0  0  0  0  0  0  0  0  0  0  0
  -21.2519  -24.3989   20.6136 O   0  0  0  0  0  0  0  0  0  0  0  0
  -25.4700  -22.4077   19.7399 O   0  0  0  0  0  0  0  0  0  0  0  0
  -31.8994  -26.4998   18.3316 O   0  0  0  0  0  0  0  0  0  0  0  0
  -26.2648  -14.7478   18.7887 O   0  0  0  0  0  0  0  0  0  0  0  0
  -28.8108  -28.2249   20.9019 O   0  0  0  0  0  0  0  0  0  1  0  0
  -24.5630  -11.3276   22.7649 F   0  0  0  0  0  0  0  0  0  0  0  0
  -28.0832  -13.4435   20.4119 F   0  0  0  0  0  0  0  0  0  0  0  0
  1  2  1  0  0  0  0
  1  5  2  0  0  0  0
  2  6  2  0  0  0  0
  3  8  2  0  0  0  0
  3 16  1  0  0  0  0
  4  9  1  0  0  0  0
  4 16  2  0  0  0  0
  5 18  1  0  0  0  0
  6 20  1  0  0  0  0
  7 10  2  0  0  0  0
  7 19  1  0  0  0  0
  8 22  1  0  0  0  0
  9 22  2  0  0  0  0
 10 23  1  0  0  0  0
 11 12  2  0  0  0  0
 11 24  1  0  0  0  0
 12 25  1  0  0  0  0
 13 21  1  0  0  0  0
 13 23  2  0  0  0  0
 14 25  2  0  0  0  0
 14 26  1  0  0  0  0
 15 28  1  0  0  0  0
 15 62  2  0  0  0  0
 16 27  1  0  0  0  0
 17 27  1  0  0  0  0
 17 29  2  0  0  0  0
 17 31  1  0  0  0  0
 18 20  2  0  0  0  0
 18 36  1  0  0  0  0
 19 21  2  0  0  0  0
 19 37  1  0  0  0  0
 20 45  1  0  0  0  0
 21 38  1  0  0  0  0
 22 80  1  0  0  0  0
 23 81  1  0  0  0  0
 24 26  2  0  0  0  0
 24 80  1  0  0  0  0
 25 82  1  0  0  0  0
 26 83  1  0  0  0  0
 27 63  2  0  0  0  0
 28 55  1  0  0  0  0
 28 64  2  0  0  0  0
 29 66  1  0  0  0  0
 29 69  1  0  0  0  0
 30 60  1  0  0  0  0
 30 62  1  0  0  0  0
 30 65  2  0  0  0  0
 31 70  1  0  0  0  0
 31 75  2  0  0  0  0
 32 46  1  0  0  0  0
 32 71  1  0  0  0  0
 32 76  2  0  0  0  0
 33 58  1  0  0  0  0
 33 67  1  0  0  0  0
 33 77  2  0  0  0  0
 34 59  1  0  0  0  0
 34 72  1  0  0  0  0
 34 78  2  0  0  0  0
 35 68  1  0  0  0  0
 35 73  1  0  0  0  0
 35 79  2  0  0  0  0
 36 39  1  0  0  0  0
 37 46  1  0  0  0  0
 38 67  1  0  0  0  0
 39 41  1  0  0  0  0
 40 42  1  0  0  0  0
 40 43  1  0  0  0  0
 41 45  1  0  0  0  0
 42 47  1  0  0  0  0
 43 68  1  0  0  0  0
 44 47  1  0  0  0  0
 44 68  1  0  0  0  0
 45 71  1  0  0  0  0
 46 67  1  0  0  0  0
 47 66  1  0  0  0  0
 48 59  1  0  0  0  0
 49 60  1  0  0  0  0
 50 60  1  0  0  0  0
 51 61  1  0  0  0  0
 52 61  1  0  0  0  0
 53 61  1  0  0  0  0
 54 74  1  0  0  0  0
 55 57  1  0  0  0  0
 56 60  1  0  0  0  0
 56 73  1  0  0  0  0
 57 81  1  0  0  0  0
 58 61  1  0  0  0  0
 58 72  1  0  0  0  0
 59 74  1  0  0  0  0
 63 66  1  0  0  0  0
 64 65  1  0  0  0  0
M  CHG  1  74   1
M  ISO  4  35 100  57 101  73 100  81 101
M  END
> <Batch ID>
0058

> <Smiles>
CNC(C)C(=O)NC(C(=O)N1Cc2cc([101O:1][101CH2:1]Cc3cnc(C(C)(C)C[100NH:0][100C:0](=O)N4CCCC(n5nc(-c6ccc(Oc7ccc(F)cc7F)cc6)c(C(N)=O)c5N)C4)nn3)ccc2CC1C(=O)NC1CCCc2ccccc21)C(C)(C)C

> <Shape>
0.229

> <Color>
0.074

> <Negative vol penalty>
0.000

$$$$

  -OEChem-04052317503D

 85 93  0     1  0  0  0  0  0999 V2000
  -29.3863  -11.8470   19.0614 C   0  0  0  0  0  0  0  0  0  0  0  0
  -29.0071  -12.2075   20.3495 C   0  0  0  0  0  0  0  0  0  0  0  0
  -26.2036  -27.8946   18.6920 C   0  0  0  0  0  0  0  0  0  0  0  0
  -26.2901  -27.8448   21.1059 C   0  0  0  0  0  0  0  0  0  0  0  0
  -28.9625  -12.6095   17.9751 C   0  0  0  0  0  0  0  0  0  0  0  0
  -28.1942  -13.3236   20.5507 C   0  0  0  0  0  0  0  0  0  0  0  0
  -26.5541  -14.0987   25.1238 C   0  0  0  0  0  0  0  0  0  0  0  0
  -25.1426  -28.7982   18.7487 C   0  0  0  0  0  0  0  0  0  0  0  0
  -25.2291  -28.7485   21.1626 C   0  0  0  0  0  0  0  0  0  0  0  0
  -27.3806  -14.5400   26.1562 C   0  0  0  0  0  0  0  0  0  0  0  0
  -21.8652  -28.6649   20.8340 C   0  0  0  0  0  0  0  0  0  0  0  0
  -20.8366  -28.4008   21.7383 C   0  0  0  0  0  0  0  0  0  0  0  0
  -26.4484  -16.7551   25.9477 C   0  0  0  0  0  0  0  0  0  0  0  0
  -21.2770  -30.4991   22.8521 C   0  0  0  0  0  0  0  0  0  0  0  0
  -32.0205  -18.2856   25.5896 C   0  0  0  0  0  0  0  0  0  0  0  0
  -26.7774  -27.4178   19.8706 C   0  0  0  0  0  0  0  0  0  0  0  0
  -29.2471  -26.7870   19.7699 C   0  0  0  0  0  0  0  0  0  0  0  0
  -28.1544  -13.7426   18.1650 C   0  0  0  0  0  0  0  0  0  0  0  0
  -25.6749  -14.9864   24.4871 C   0  0  0  0  0  0  0  0  0  0  0  0
  -27.7364  -14.0921   19.4652 C   0  0  0  0  0  0  0  0  0  0  0  0
  -25.6100  -16.3220   24.9091 C   0  0  0  0  0  0  0  0  0  0  0  0
  -24.6553  -29.2252   19.9840 C   0  0  0  0  0  0  0  0  0  0  0  0
  -27.3299  -15.8690   26.5664 C   0  0  0  0  0  0  0  0  0  0  0  0
  -22.5998  -29.8461   20.9387 C   0  0  0  0  0  0  0  0  0  0  0  0
  -20.5425  -29.3178   22.7473 C   0  0  0  0  0  0  0  0  0  0  0  0
  -22.3057  -30.7631   21.9477 C   0  0  0  0  0  0  0  0  0  0  0  0
  -27.8730  -26.4839   19.8128 C   0  0  0  0  0  0  0  0  0  0  0  0
  -31.1439  -17.3038   25.9959 C   0  0  0  0  0  0  0  0  0  0  0  0
  -31.4173  -17.9239   23.4137 C   0  0  0  0  0  0  0  0  0  0  0  0
  -30.5412  -16.9415   23.8198 C   0  0  0  0  0  0  0  0  0  0  0  0
  -29.8676  -25.5626   19.7232 C   0  0  0  0  0  0  0  0  0  0  0  0
  -29.9039  -28.0615   19.7722 C   0  0  0  0  0  0  0  0  0  0  0  0
  -25.3448  -16.0737   21.5185 C   0  0  0  0  0  0  0  0  0  0  0  0
  -22.6722  -17.4512   22.7360 C   0  0  0  0  0  0  0  0  0  0  0  0
  -21.0066  -18.6211   25.4753 C   0  0  0  0  0  0  0  0  0  0  0  0
  -30.4384  -20.4455   21.5772 C   0  0  0  0  0  0  0  0  0  0  0  0
  -27.7180  -14.5274   16.9530 C   0  0  0  0  0  0  0  0  0  0  0  0
  -24.7708  -14.4885   23.3930 C   0  0  0  0  0  0  0  0  0  0  0  0
  -24.6689  -17.3102   24.2718 C   0  0  0  0  0  0  0  0  0  0  0  0
  -27.2349  -15.9326   17.2970 C   0  0  0  0  0  0  0  0  0  0  0  0
  -27.9690  -20.9333   18.9769 C   0  0  0  0  0  0  0  0  0  0  0  0
  -26.2279  -15.8718   18.4358 C   0  0  0  0  0  0  0  0  0  0  0  0
  -27.8397  -22.4576   18.9623 C   0  0  0  0  0  0  0  0  0  0  0  0
  -28.1584  -20.4082   20.3970 C   0  0  0  0  0  0  0  0  0  0  0  0
  -29.1832  -22.5318   21.1139 C   0  0  0  0  0  0  0  0  0  0  0  0
  -26.8779  -15.3197   19.7108 C   0  0  1  0  0  0  0  0  0  0  0  0
  -24.2822  -15.6001   22.4694 C   0  0  1  0  0  0  0  0  0  0  0  0
  -29.0120  -23.1265   19.7043 C   0  0  2  0  0  0  0  0  0  0  0  0
  -18.8565  -19.7248   26.1507 C   0  0  0  0  0  0  0  0  0  0  0  0
  -23.6983  -20.1106   21.6476 C   0  0  0  0  0  0  0  0  0  0  0  0
  -22.0543  -21.2740   23.1348 C   0  0  0  0  0  0  0  0  0  0  0  0
  -21.2441  -19.7368   21.3450 C   0  0  0  0  0  0  0  0  0  0  0  0
  -20.2474  -16.3449   27.2078 C   0  0  0  0  0  0  0  0  0  0  0  0
  -30.9991  -16.9647   27.4579 C   0  0  0  0  0  0  0  0  0  0  0  0
  -31.5766  -18.2767   21.9742 C   0  0  0  0  0  0  0  0  0  0  0  0
  -29.9246  -17.7835   28.1767 C   0  0  0  0  0  0  0  0  0  0  0  0
  -28.5472  -17.6683   27.5341 C   0  0  0  0  0  0  0  0  0  1  0  0
  -22.3565  -18.7700   23.3993 C   0  0  1  0  0  0  0  0  0  0  0  0
  -19.5840  -18.4033   25.9582 C   0  0  2  0  0  0  0  0  0  0  0  0
  -29.7120  -16.1857   22.8385 C   0  0  0  0  0  0  0  0  0  0  0  0
  -22.3576  -19.9549   22.3926 C   0  0  0  0  0  0  0  0  0  0  0  0
  -32.1729  -18.6134   24.2912 N   0  0  0  0  0  0  0  0  0  0  0  0
  -27.6341  -25.1699   19.7947 N   0  0  0  0  0  0  0  0  0  0  0  0
  -30.3886  -16.6140   25.1182 N   0  0  0  0  0  0  0  0  0  0  0  0
  -28.8664  -24.6365   19.7399 N   0  0  0  0  0  0  0  0  0  0  0  0
  -23.8096  -16.7767   23.2020 N   0  0  0  0  0  0  0  0  0  0  0  0
  -29.3010  -21.0716   21.0408 N   0  0  0  0  0  0  0  0  0  0  0  0
  -31.1664  -25.1985   19.6699 N   0  0  0  0  0  0  0  0  0  0  0  0
  -29.1156  -29.2193   19.8237 N   0  0  0  0  0  0  0  0  0  0  0  0
  -25.8498  -15.0817   20.6998 N   0  0  0  0  0  0  0  0  0  0  0  0
  -21.0905  -18.5821   24.0995 N   0  0  0  0  0  0  0  0  0  0  0  0
  -30.4692  -19.0602   21.4736 N   0  0  0  0  0  0  0  0  0  0  0  0
  -19.5840  -17.6732   27.2574 N   0  3  0  0  0  0  0  0  0  0  0  0
  -31.1521  -28.1708   19.7134 O   0  0  0  0  0  0  0  0  0  0  0  0
  -25.6805  -17.2522   21.5259 O   0  0  0  0  0  0  0  0  0  0  0  0
  -21.9327  -17.0314   21.8423 O   0  0  0  0  0  0  0  0  0  0  0  0
  -21.9485  -18.8108   26.2417 O   0  0  0  0  0  0  0  0  0  0  0  0
  -31.3616  -21.0752   22.1049 O   0  0  0  0  0  0  0  0  0  0  0  0
  -23.6202  -30.1072   20.0397 O   0  0  0  0  0  0  0  0  0  0  0  0
  -28.1360  -16.3024   27.5735 O   0  0  0  0  0  0  0  0  0  1  0  0
  -19.5537  -29.0648   23.6147 F   0  0  0  0  0  0  0  0  0  0  0  0
  -23.0071  -31.9002   22.0526 F   0  0  0  0  0  0  0  0  0  0  0  0
  -29.9142  -16.5658   21.5418 F   0  0  0  0  0  0  0  0  0  0  0  0
  -29.9384  -14.8384   22.8531 F   0  0  0  0  0  0  0  0  0  0  0  0
  -28.3726  -16.3334   23.0577 F   0  0  0  0  0  0  0  0  0  0  0  0
  1  2  1  0  0  0  0
  1  5  2  0  0  0  0
  2  6  2  0  0  0  0
  3  8  2  0  0  0  0
  3 16  1  0  0  0  0
  4  9  1  0  0  0  0
  4 16  2  0  0  0  0
  5 18  1  0  0  0  0
  6 20  1  0  0  0  0
  7 10  2  0  0  0  0
  7 19  1  0  0  0  0
  8 22  1  0  0  0  0
  9 22  2  0  0  0  0
 10 23  1  0  0  0  0
 11 12  2  0  0  0  0
 11 24  1  0  0  0  0
 12 25  1  0  0  0  0
 13 21  1  0  0  0  0
 13 23  2  0  0  0  0
 14 25  2  0  0  0  0
 14 26  1  0  0  0  0
 15 28  1  0  0  0  0
 15 62  2  0  0  0  0
 16 27  1  0  0  0  0
 17 27  1  0  0  0  0
 17 31  2  0  0  0  0
 17 32  1  0  0  0  0
 18 20  2  0  0  0  0
 18 37  1  0  0  0  0
 19 21  2  0  0  0  0
 19 38  1  0  0  0  0
 20 46  1  0  0  0  0
 21 39  1  0  0  0  0
 22 79  1  0  0  0  0
 23 80  1  0  0  0  0
 24 26  2  0  0  0  0
 24 79  1  0  0  0  0
 25 81  1  0  0  0  0
 26 82  1  0  0  0  0
 27 63  2  0  0  0  0
 28 54  1  0  0  0  0
 28 64  2  0  0  0  0
 29 30  2  0  0  0  0
 29 55  1  0  0  0  0
 29 62  1  0  0  0  0
 30 60  1  0  0  0  0
 30 64  1  0  0  0  0
 31 65  1  0  0  0  0
 31 68  1  0  0  0  0
 32 69  1  0  0  0  0
 32 74  2  0  0  0  0
 33 47  1  0  0  0  0
 33 70  1  0  0  0  0
 33 75  2  0  0  0  0
 34 58  1  0  0  0  0
 34 66  1  0  0  0  0
 34 76  2  0  0  0  0
 35 59  1  0  0  0  0
 35 71  1  0  0  0  0
 35 77  2  0  0  0  0
 36 67  1  0  0  0  0
 36 72  1  0  0  0  0
 36 78  2  0  0  0  0
 37 40  1  0  0  0  0
 38 47  1  0  0  0  0
 39 66  1  0  0  0  0
 40 42  1  0  0  0  0
 41 43  1  0  0  0  0
 41 44  1  0  0  0  0
 42 46  1  0  0  0  0
 43 48  1  0  0  0  0
 44 67  1  0  0  0  0
 45 48  1  0  0  0  0
 45 67  1  0  0  0  0
 46 70  1  0  0  0  0
 47 66  1  0  0  0  0
 48 65  1  0  0  0  0
 49 59  1  0  0  0  0
 50 61  1  0  0  0  0
 51 61  1  0  0  0  0
 52 61  1  0  0  0  0
 53 73  1  0  0  0  0
 54 56  1  0  0  0  0
 55 72  1  0  0  0  0
 56 57  1  0  0  0  0
 57 80  1  0  0  0  0
 58 61  1  0  0  0  0
 58 71  1  0  0  0  0
 59 73  1  0  0  0  0
 60 83  1  0  0  0  0
 60 84  1  0  0  0  0
 60 85  1  0  0  0  0
 63 65  1  0  0  0  0
M  CHG  1  73   1
M  ISO  4  36 100  57 101  72 100  80 101
M  END
> <Batch ID>
0058

> <Smiles>
CNC(C)C(=O)NC(C(=O)N1Cc2cc([101O:1][101CH2:1]CCc3cnc(C[100NH:0][100C:0](=O)N4CCCC(n5nc(-c6ccc(Oc7ccc(F)cc7F)cc6)c(C(N)=O)c5N)C4)c(C(F)(F)F)n3)ccc2CC1C(=O)NC1CCCc2ccccc21)C(C)(C)C

> <Shape>
0.214

> <Color>
0.060

> <Negative vol penalty>
0.000

$$$$

  -OEChem-04052317503D

 84 92  0     1  0  0  0  0  0999 V2000
  -27.5373  -33.9008   26.0835 C   0  0  0  0  0  0  0  0  0  0  0  0
  -27.7778  -32.6845   25.4527 C   0  0  0  0  0  0  0  0  0  0  0  0
  -25.1535  -14.9000   21.0107 C   0  0  0  0  0  0  0  0  0  0  0  0
  -27.5279  -14.4554   21.0528 C   0  0  0  0  0  0  0  0  0  0  0  0
  -26.2310  -34.2790   26.3910 C   0  0  0  0  0  0  0  0  0  0  0  0
  -26.7122  -31.8450   25.1299 C   0  0  0  0  0  0  0  0  0  0  0  0
  -27.0859  -29.9424   20.4517 C   0  0  0  0  0  0  0  0  0  0  0  0
  -24.9075  -13.5585   20.7185 C   0  0  0  0  0  0  0  0  0  0  0  0
  -27.2819  -13.1139   20.7606 C   0  0  0  0  0  0  0  0  0  0  0  0
  -27.9696  -28.8803   20.2650 C   0  0  0  0  0  0  0  0  0  0  0  0
  -24.7845  -10.6255   22.3965 C   0  0  0  0  0  0  0  0  0  0  0  0
  -23.7650   -9.9851   23.1008 C   0  0  0  0  0  0  0  0  0  0  0  0
  -26.1196  -27.3344   20.3471 C   0  0  0  0  0  0  0  0  0  0  0  0
  -22.6138   -9.5349   21.0249 C   0  0  0  0  0  0  0  0  0  0  0  0
  -30.9993  -25.2617   18.4354 C   0  0  0  0  0  0  0  0  0  0  0  0
  -26.4637  -15.3485   21.1778 C   0  0  0  0  0  0  0  0  0  0  0  0
  -26.8067  -17.3247   22.7540 C   0  0  0  0  0  0  0  0  0  0  0  0
  -25.1481  -33.4482   26.0631 C   0  0  0  0  0  0  0  0  0  0  0  0
  -25.7113  -29.7071   20.5987 C   0  0  0  0  0  0  0  0  0  0  0  0
  -25.3903  -32.2119   25.4345 C   0  0  0  0  0  0  0  0  0  0  0  0
  -25.2202  -28.3954   20.5330 C   0  0  0  0  0  0  0  0  0  0  0  0
  -30.5072  -25.5909   19.6819 C   0  0  0  0  0  0  0  0  0  0  0  0
  -25.9716  -12.6654   20.5935 C   0  0  0  0  0  0  0  0  0  0  0  0
  -27.4869  -27.5759   20.2156 C   0  0  0  0  0  0  0  0  0  0  0  0
  -24.7186  -10.7208   21.0064 C   0  0  0  0  0  0  0  0  0  0  0  0
  -22.6796   -9.4397   22.4150 C   0  0  0  0  0  0  0  0  0  0  0  0
  -23.6333  -10.1754   20.3206 C   0  0  0  0  0  0  0  0  0  0  0  0
  -26.7185  -16.7343   21.4791 C   0  0  0  0  0  0  0  0  0  0  0  0
  -30.7768  -24.6860   20.6882 C   0  0  0  0  0  0  0  0  0  0  0  0
  -27.0603  -18.6508   22.5015 C   0  0  0  0  0  0  0  0  0  0  0  0
  -31.8988  -23.3368   19.2433 C   0  0  0  0  0  0  0  0  0  0  0  0
  -26.6715  -16.7279   24.0506 C   0  0  0  0  0  0  0  0  0  0  0  0
  -23.5812  -30.2209   22.9014 C   0  0  0  0  0  0  0  0  0  0  0  0
  -21.4816  -29.1931   20.6526 C   0  0  0  0  0  0  0  0  0  0  0  0
  -20.9350  -27.3851   17.8101 C   0  0  0  0  0  0  0  0  0  0  0  0
  -29.5611  -21.5148   17.8761 C   0  0  0  0  0  0  0  0  0  0  0  0
  -23.7575  -33.8783   26.4581 C   0  0  0  0  0  0  0  0  0  0  0  0
  -24.7681  -30.8658   20.7726 C   0  0  0  0  0  0  0  0  0  0  0  0
  -23.7511  -28.0911   20.6651 C   0  0  0  0  0  0  0  0  0  0  0  0
  -22.6540  -33.1011   25.7451 C   0  0  0  0  0  0  0  0  0  0  0  0
  -26.3066  -22.0480   19.2179 C   0  0  0  0  0  0  0  0  0  0  0  0
  -22.9490  -31.6048   25.7767 C   0  0  0  0  0  0  0  0  0  0  0  0
  -26.0511  -20.7999   20.0646 C   0  0  0  0  0  0  0  0  0  0  0  0
  -27.0935  -21.7192   17.9511 C   0  0  0  0  0  0  0  0  0  0  0  0
  -28.1000  -19.7421   19.0244 C   0  0  0  0  0  0  0  0  0  0  0  0
  -24.2587  -31.2852   25.0460 C   0  0  1  0  0  0  0  0  0  0  0  0
  -23.4477  -30.4685   21.4254 C   0  0  1  0  0  0  0  0  0  0  0  0
  -27.3579  -20.0321   20.3403 C   0  0  2  0  0  0  0  0  0  0  0  0
  -29.0697  -24.0966   22.4275 C   0  0  0  0  0  0  0  0  0  0  0  0
  -19.1082  -26.7005   16.2317 C   0  0  0  0  0  0  0  0  0  0  0  0
  -32.8869  -21.1701   20.2560 C   0  0  0  0  0  0  0  0  0  0  0  0
  -34.1159  -22.4238   18.5028 C   0  0  0  0  0  0  0  0  0  0  0  0
  -20.4831  -27.1579   22.6948 C   0  0  0  0  0  0  0  0  0  0  0  0
  -19.3802  -25.9203   20.8185 C   0  0  0  0  0  0  0  0  0  0  0  0
  -18.6828  -28.2556   21.3500 C   0  0  0  0  0  0  0  0  0  0  0  0
  -22.2471  -28.7310   15.5241 C   0  0  0  0  0  0  0  0  0  0  0  0
  -29.7319  -26.8566   19.9016 C   0  0  0  0  0  0  0  0  0  1  0  0
  -30.2940  -24.9378   22.0786 C   0  0  0  0  0  0  0  0  0  0  0  0
  -32.0198  -21.1778   17.8958 C   0  0  0  0  0  0  0  0  0  0  0  0
  -20.9214  -27.8513   20.2467 C   0  0  1  0  0  0  0  0  0  0  0  0
  -20.1946  -27.7225   16.5286 C   0  0  2  0  0  0  0  0  0  0  0  0
  -32.6723  -22.0852   19.0001 C   0  0  0  0  0  0  0  0  0  0  0  0
  -19.8949  -27.3015   21.2769 C   0  0  0  0  0  0  0  0  0  0  0  0
  -31.7018  -24.1386   18.1795 N   0  0  0  0  0  0  0  0  0  0  0  0
  -26.9011  -17.6132   20.4901 N   0  0  0  0  0  0  0  0  0  0  0  0
  -31.4721  -23.5446   20.5036 N   0  0  0  0  0  0  0  0  0  0  0  0
  -27.1065  -18.7694   21.1435 N   0  0  0  0  0  0  0  0  0  0  0  0
  -22.8696  -29.2572   20.8399 N   0  0  0  0  0  0  0  0  0  0  0  0
  -28.3219  -20.9929   18.2821 N   0  0  0  0  0  0  0  0  0  0  0  0
  -27.2460  -19.7152   23.3107 N   0  0  0  0  0  0  0  0  0  0  0  0
  -26.4119  -15.3529   24.1295 N   0  0  0  0  0  0  0  0  0  0  0  0
  -24.0561  -31.3060   23.6132 N   0  0  0  0  0  0  0  0  0  0  0  0
  -20.3841  -28.0232   18.9013 N   0  0  0  0  0  0  0  0  0  0  0  0
  -30.6758  -20.7674   18.2361 N   0  0  0  0  0  0  0  0  0  0  0  0
  -21.1397  -27.7517   15.3767 N   0  3  0  0  0  0  0  0  0  0  0  0
  -26.7615  -17.3973   25.1077 O   0  0  0  0  0  0  0  0  0  0  0  0
  -23.2747  -29.1270   23.3607 O   0  0  0  0  0  0  0  0  0  0  0  0
  -20.7166  -30.1509   20.7911 O   0  0  0  0  0  0  0  0  0  0  0  0
  -21.9028  -26.6282   17.8408 O   0  0  0  0  0  0  0  0  0  0  0  0
  -29.6668  -22.5716   17.2444 O   0  0  0  0  0  0  0  0  0  0  0  0
  -25.7319  -11.3562   20.3085 O   0  0  0  0  0  0  0  0  0  0  0  0
  -28.3474  -26.5374   20.0341 O   0  0  0  0  0  0  0  0  0  1  0  0
  -21.7015   -8.8234   23.0914 F   0  0  0  0  0  0  0  0  0  0  0  0
  -23.5650  -10.2627   18.9852 F   0  0  0  0  0  0  0  0  0  0  0  0
  1  2  1  0  0  0  0
  1  5  2  0  0  0  0
  2  6  2  0  0  0  0
  3  8  2  0  0  0  0
  3 16  1  0  0  0  0
  4  9  1  0  0  0  0
  4 16  2  0  0  0  0
  5 18  1  0  0  0  0
  6 20  1  0  0  0  0
  7 10  2  0  0  0  0
  7 19  1  0  0  0  0
  8 23  1  0  0  0  0
  9 23  2  0  0  0  0
 10 24  1  0  0  0  0
 11 12  2  0  0  0  0
 11 25  1  0  0  0  0
 12 26  1  0  0  0  0
 13 21  1  0  0  0  0
 13 24  2  0  0  0  0
 14 26  2  0  0  0  0
 14 27  1  0  0  0  0
 15 22  1  0  0  0  0
 15 64  2  0  0  0  0
 16 28  1  0  0  0  0
 17 28  1  0  0  0  0
 17 30  2  0  0  0  0
 17 32  1  0  0  0  0
 18 20  2  0  0  0  0
 18 37  1  0  0  0  0
 19 21  2  0  0  0  0
 19 38  1  0  0  0  0
 20 46  1  0  0  0  0
 21 39  1  0  0  0  0
 22 29  2  0  0  0  0
 22 57  1  0  0  0  0
 23 81  1  0  0  0  0
 24 82  1  0  0  0  0
 25 27  2  0  0  0  0
 25 81  1  0  0  0  0
 26 83  1  0  0  0  0
 27 84  1  0  0  0  0
 28 65  2  0  0  0  0
 29 58  1  0  0  0  0
 29 66  1  0  0  0  0
 30 67  1  0  0  0  0
 30 70  1  0  0  0  0
 31 62  1  0  0  0  0
 31 64  1  0  0  0  0
 31 66  2  0  0  0  0
 32 71  1  0  0  0  0
 32 76  2  0  0  0  0
 33 47  1  0  0  0  0
 33 72  1  0  0  0  0
 33 77  2  0  0  0  0
 34 60  1  0  0  0  0
 34 68  1  0  0  0  0
 34 78  2  0  0  0  0
 35 61  1  0  0  0  0
 35 73  1  0  0  0  0
 35 79  2  0  0  0  0
 36 69  1  0  0  0  0
 36 74  1  0  0  0  0
 36 80  2  0  0  0  0
 37 40  1  0  0  0  0
 38 47  1  0  0  0  0
 39 68  1  0  0  0  0
 40 42  1  0  0  0  0
 41 43  1  0  0  0  0
 41 44  1  0  0  0  0
 42 46  1  0  0  0  0
 43 48  1  0  0  0  0
 44 69  1  0  0  0  0
 45 48  1  0  0  0  0
 45 69  1  0  0  0  0
 46 72  1  0  0  0  0
 47 68  1  0  0  0  0
 48 67  1  0  0  0  0
 49 58  1  0  0  0  0
 50 61  1  0  0  0  0
 51 62  1  0  0  0  0
 52 62  1  0  0  0  0
 53 63  1  0  0  0  0
 54 63  1  0  0  0  0
 55 63  1  0  0  0  0
 56 75  1  0  0  0  0
 57 82  1  0  0  0  0
 59 62  1  0  0  0  0
 59 74  1  0  0  0  0
 60 63  1  0  0  0  0
 60 73  1  0  0  0  0
 61 75  1  0  0  0  0
 65 67  1  0  0  0  0
M  CHG  1  75   1
M  ISO  4  36 100  57 101  74 100  82 101
M  END
> <Batch ID>
0058

> <Smiles>
CCc1nc(C(C)(C)C[100NH:0][100C:0](=O)N2CCCC(n3nc(-c4ccc(Oc5ccc(F)cc5F)cc4)c(C(N)=O)c3N)C2)ncc1[101CH2:1][101O:1]c1ccc2c(c1)CN(C(=O)C(NC(=O)C(C)NC)C(C)(C)C)C(C(=O)NC1CCCc3ccccc31)C2

> <Shape>
0.274

> <Color>
0.077

> <Negative vol penalty>
0.000

$$$$

  -OEChem-04052317503D

 85 93  0     1  0  0  0  0  0999 V2000
  -23.2927  -22.5568   15.7182 C   0  0  0  0  0  0  0  0  0  0  0  0
  -24.4199  -21.8057   16.0355 C   0  0  0  0  0  0  0  0  0  0  0  0
  -26.2495  -28.1104   18.9983 C   0  0  0  0  0  0  0  0  0  0  0  0
  -26.3373  -27.3963   21.3047 C   0  0  0  0  0  0  0  0  0  0  0  0
  -22.1507  -22.4675   16.5130 C   0  0  0  0  0  0  0  0  0  0  0  0
  -24.4062  -20.9658   17.1485 C   0  0  0  0  0  0  0  0  0  0  0  0
  -26.3993  -16.4140   16.1721 C   0  0  0  0  0  0  0  0  0  0  0  0
  -25.1547  -28.9233   19.2916 C   0  0  0  0  0  0  0  0  0  0  0  0
  -25.2425  -28.2093   21.5980 C   0  0  0  0  0  0  0  0  0  0  0  0
  -27.7900  -16.3236   16.1300 C   0  0  0  0  0  0  0  0  0  0  0  0
  -22.2468  -29.8205   22.8788 C   0  0  0  0  0  0  0  0  0  0  0  0
  -21.2304  -29.2799   23.6663 C   0  0  0  0  0  0  0  0  0  0  0  0
  -27.7939  -15.4344   18.3725 C   0  0  0  0  0  0  0  0  0  0  0  0
  -20.8667  -27.5557   22.0134 C   0  0  0  0  0  0  0  0  0  0  0  0
  -32.1824  -17.4479   21.8036 C   0  0  0  0  0  0  0  0  0  0  0  0
  -26.8408  -27.3468   20.0048 C   0  0  0  0  0  0  0  0  0  0  0  0
  -29.3329  -26.8597   19.7601 C   0  0  0  0  0  0  0  0  0  0  0  0
  -22.1196  -21.6188   17.6308 C   0  0  0  0  0  0  0  0  0  0  0  0
  -25.6952  -16.0249   17.3206 C   0  0  0  0  0  0  0  0  0  0  0  0
  -23.2631  -20.8662   17.9598 C   0  0  0  0  0  0  0  0  0  0  0  0
  -26.3942  -15.5185   18.4256 C   0  0  0  0  0  0  0  0  0  0  0  0
  -31.3962  -18.4425   22.3319 C   0  0  0  0  0  0  0  0  0  0  0  0
  -24.6512  -28.9728   20.5914 C   0  0  0  0  0  0  0  0  0  0  0  0
  -28.4877  -15.8364   17.2314 C   0  0  0  0  0  0  0  0  0  0  0  0
  -22.5731  -29.2288   21.6584 C   0  0  0  0  0  0  0  0  0  0  0  0
  -20.5404  -28.1475   23.2336 C   0  0  0  0  0  0  0  0  0  0  0  0
  -21.8831  -28.0964   21.2258 C   0  0  0  0  0  0  0  0  0  0  0  0
  -27.9714  -26.5064   19.7023 C   0  0  0  0  0  0  0  0  0  0  0  0
  -30.8588  -19.1001   21.2092 C   0  0  0  0  0  0  0  0  0  0  0  0
  -29.9998  -25.7198   19.3827 C   0  0  0  0  0  0  0  0  0  0  0  0
  -29.9404  -28.1068   20.1226 C   0  0  0  0  0  0  0  0  0  0  0  0
  -23.7990  -17.5052   19.3983 C   0  0  0  0  0  0  0  0  0  0  0  0
  -23.3920  -14.5074   20.5688 C   0  0  0  0  0  0  0  0  0  0  0  0
  -24.6111  -11.3373   20.9028 C   0  0  0  0  0  0  0  0  0  0  0  0
  -28.0314  -19.9206   19.5639 C   0  0  0  0  0  0  0  0  0  0  0  0
  -20.8785  -21.5915   18.4872 C   0  0  0  0  0  0  0  0  0  0  0  0
  -24.1932  -16.1035   17.3402 C   0  0  0  0  0  0  0  0  0  0  0  0
  -25.6837  -15.0685   19.6751 C   0  0  0  0  0  0  0  0  0  0  0  0
  -20.8173  -20.3948   19.4330 C   0  0  0  0  0  0  0  0  0  0  0  0
  -29.5000  -21.7824   16.7216 C   0  0  0  0  0  0  0  0  0  0  0  0
  -22.1527  -20.2093   20.1464 C   0  0  0  0  0  0  0  0  0  0  0  0
  -29.3196  -23.2382   17.1482 C   0  0  0  0  0  0  0  0  0  0  0  0
  -28.4291  -20.8779   17.3241 C   0  0  0  0  0  0  0  0  0  0  0  0
  -28.1477  -22.4246   19.2327 C   0  0  0  0  0  0  0  0  0  0  0  0
  -23.2785  -19.9250   19.1447 C   0  0  1  0  0  0  0  0  0  0  0  0
  -23.6163  -16.1614   18.7513 C   0  0  1  0  0  0  0  0  0  0  0  0
  -29.2380  -23.3549   18.6802 C   0  0  2  0  0  0  0  0  0  0  0  0
  -24.0722   -9.1193   21.9455 C   0  0  0  0  0  0  0  0  0  0  0  0
  -24.1914  -15.6012   23.3027 C   0  0  0  0  0  0  0  0  0  0  0  0
  -24.5573  -13.2435   24.0615 C   0  0  0  0  0  0  0  0  0  0  0  0
  -22.2855  -13.9824   23.3434 C   0  0  0  0  0  0  0  0  0  0  0  0
  -27.8370  -19.1811   21.9080 C   0  0  0  0  0  0  0  0  0  0  0  0
  -24.5564   -9.9830   18.2719 C   0  0  0  0  0  0  0  0  0  0  0  0
  -29.9405  -20.2522   21.1912 C   0  0  0  0  0  0  0  0  0  0  0  0
  -31.9180  -16.4817   18.1529 C   0  0  0  0  0  0  0  0  0  0  0  0
  -32.7510  -16.6999   19.4179 C   0  0  0  0  0  0  0  0  0  0  0  0
  -30.5404  -15.8916   18.4311 C   0  0  0  0  0  0  0  0  0  1  0  0
  -24.0915  -13.6597   21.6037 C   0  0  1  0  0  0  0  0  0  0  0  0
  -23.9606   -9.9812   20.6975 C   0  0  2  0  0  0  0  0  0  0  0  0
  -31.1739  -18.7433   23.7562 C   0  0  0  0  0  0  0  0  0  0  0  0
  -23.7952  -14.1319   23.0552 C   0  0  0  0  0  0  0  0  0  0  0  0
  -27.7830  -25.2411   19.3183 N   0  0  0  0  0  0  0  0  0  0  0  0
  -31.2690  -18.5682   20.0547 N   0  0  0  0  0  0  0  0  0  0  0  0
  -32.0727  -17.5659   20.4492 N   0  0  0  0  0  0  0  0  0  0  0  0
  -29.0348  -24.7894   19.1313 N   0  0  0  0  0  0  0  0  0  0  0  0
  -24.2153  -15.1708   19.6479 N   0  0  0  0  0  0  0  0  0  0  0  0
  -28.3435  -21.0405   18.7758 N   0  0  0  0  0  0  0  0  0  0  0  0
  -31.3116  -25.4327   19.2447 N   0  0  0  0  0  0  0  0  0  0  0  0
  -29.1085  -29.1751   20.4842 N   0  0  0  0  0  0  0  0  0  0  0  0
  -23.2233  -18.5491   18.6995 N   0  0  0  0  0  0  0  0  0  0  0  0
  -23.7015  -12.2802   21.3328 N   0  0  0  0  0  0  0  0  0  0  0  0
  -28.5661  -19.8820   20.8606 N   0  0  0  0  0  0  0  0  0  0  0  0
  -24.6125   -9.2596   19.5682 N   0  3  0  0  0  0  0  0  0  0  0  0
  -31.1836  -28.2738   20.1099 O   0  0  0  0  0  0  0  0  0  0  0  0
  -24.4153  -17.5885   20.4542 O   0  0  0  0  0  0  0  0  0  0  0  0
  -22.1602  -14.5727   20.5727 O   0  0  0  0  0  0  0  0  0  0  0  0
  -25.8072  -11.5391   20.7053 O   0  0  0  0  0  0  0  0  0  0  0  0
  -27.3235  -19.0028   19.1298 O   0  0  0  0  0  0  0  0  0  0  0  0
  -23.5830  -29.7662   20.8781 O   0  0  0  0  0  0  0  0  0  0  0  0
  -29.8451  -15.7477   17.1932 O   0  0  0  0  0  0  0  0  0  1  0  0
  -19.5654  -27.6276   23.9907 F   0  0  0  0  0  0  0  0  0  0  0  0
  -22.1929  -27.5228   20.0549 F   0  0  0  0  0  0  0  0  0  0  0  0
  -31.8453  -17.9143   24.6216 F   0  0  0  0  0  0  0  0  0  0  0  0
  -31.5558  -20.0076   24.1335 F   0  0  0  0  0  0  0  0  0  0  0  0
  -29.8578  -18.6490   24.1331 F   0  0  0  0  0  0  0  0  0  0  0  0
  1  2  1  0  0  0  0
  1  5  2  0  0  0  0
  2  6  2  0  0  0  0
  3  8  2  0  0  0  0
  3 16  1  0  0  0  0
  4  9  1  0  0  0  0
  4 16  2  0  0  0  0
  5 18  1  0  0  0  0
  6 20  1  0  0  0  0
  7 10  2  0  0  0  0
  7 19  1  0  0  0  0
  8 23  1  0  0  0  0
  9 23  2  0  0  0  0
 10 24  1  0  0  0  0
 11 12  2  0  0  0  0
 11 25  1  0  0  0  0
 12 26  1  0  0  0  0
 13 21  1  0  0  0  0
 13 24  2  0  0  0  0
 14 26  2  0  0  0  0
 14 27  1  0  0  0  0
 15 22  2  0  0  0  0
 15 64  1  0  0  0  0
 16 28  1  0  0  0  0
 17 28  1  0  0  0  0
 17 30  2  0  0  0  0
 17 31  1  0  0  0  0
 18 20  2  0  0  0  0
 18 36  1  0  0  0  0
 19 21  2  0  0  0  0
 19 37  1  0  0  0  0
 20 45  1  0  0  0  0
 21 38  1  0  0  0  0
 22 29  1  0  0  0  0
 22 60  1  0  0  0  0
 23 79  1  0  0  0  0
 24 80  1  0  0  0  0
 25 27  2  0  0  0  0
 25 79  1  0  0  0  0
 26 81  1  0  0  0  0
 27 82  1  0  0  0  0
 28 62  2  0  0  0  0
 29 54  1  0  0  0  0
 29 63  2  0  0  0  0
 30 65  1  0  0  0  0
 30 68  1  0  0  0  0
 31 69  1  0  0  0  0
 31 74  2  0  0  0  0
 32 46  1  0  0  0  0
 32 70  1  0  0  0  0
 32 75  2  0  0  0  0
 33 58  1  0  0  0  0
 33 66  1  0  0  0  0
 33 76  2  0  0  0  0
 34 59  1  0  0  0  0
 34 71  1  0  0  0  0
 34 77  2  0  0  0  0
 35 67  1  0  0  0  0
 35 72  1  0  0  0  0
 35 78  2  0  0  0  0
 36 39  1  0  0  0  0
 37 46  1  0  0  0  0
 38 66  1  0  0  0  0
 39 41  1  0  0  0  0
 40 42  1  0  0  0  0
 40 43  1  0  0  0  0
 41 45  1  0  0  0  0
 42 47  1  0  0  0  0
 43 67  1  0  0  0  0
 44 47  1  0  0  0  0
 44 67  1  0  0  0  0
 45 70  1  0  0  0  0
 46 66  1  0  0  0  0
 47 65  1  0  0  0  0
 48 59  1  0  0  0  0
 49 61  1  0  0  0  0
 50 61  1  0  0  0  0
 51 61  1  0  0  0  0
 52 72  1  0  0  0  0
 53 73  1  0  0  0  0
 54 72  1  0  0  0  0
 55 56  1  0  0  0  0
 55 57  1  0  0  0  0
 56 64  1  0  0  0  0
 57 80  1  0  0  0  0
 58 61  1  0  0  0  0
 58 71  1  0  0  0  0
 59 73  1  0  0  0  0
 60 83  1  0  0  0  0
 60 84  1  0  0  0  0
 60 85  1  0  0  0  0
 62 65  1  0  0  0  0
 63 64  1  0  0  0  0
M  CHG  1  73   1
M  ISO  4  35 100  57 101  72 100  80 101
M  END
> <Batch ID>
0058

> <Smiles>
CNC(C)C(=O)NC(C(=O)N1Cc2cc([101O:1][101CH2:1]CCn3cc(C(F)(F)F)c(C[100N:0](C)[100C:0](=O)N4CCCC(n5nc(-c6ccc(Oc7ccc(F)cc7F)cc6)c(C(N)=O)c5N)C4)n3)ccc2CC1C(=O)NC1CCCc2ccccc21)C(C)(C)C

> <Shape>
0.220

> <Color>
0.075

> <Negative vol penalty>
0.000

$$$$

  -OEChem-04052317503D

 83 91  0     1  0  0  0  0  0999 V2000
  -38.0248  -25.9272   11.2111 C   0  0  0  0  0  0  0  0  0  0  0  0
  -37.7931  -25.2129   12.3823 C   0  0  0  0  0  0  0  0  0  0  0  0
  -23.1272   -9.8811   19.9759 C   0  0  0  0  0  0  0  0  0  0  0  0
  -23.9851   -9.9169   22.2342 C   0  0  0  0  0  0  0  0  0  0  0  0
  -37.0016  -26.6863   10.6449 C   0  0  0  0  0  0  0  0  0  0  0  0
  -36.5382  -25.2584   12.9885 C   0  0  0  0  0  0  0  0  0  0  0  0
  -32.0358  -21.2065   16.8131 C   0  0  0  0  0  0  0  0  0  0  0  0
  -22.4405   -8.6996   20.2555 C   0  0  0  0  0  0  0  0  0  0  0  0
  -23.2984   -8.7355   22.5138 C   0  0  0  0  0  0  0  0  0  0  0  0
  -31.2981  -21.2382   17.9957 C   0  0  0  0  0  0  0  0  0  0  0  0
  -23.1542   -5.4060   20.5145 C   0  0  0  0  0  0  0  0  0  0  0  0
  -23.2204   -4.3801   19.5718 C   0  0  0  0  0  0  0  0  0  0  0  0
  -29.5830  -22.5199   16.8845 C   0  0  0  0  0  0  0  0  0  0  0  0
  -20.8182   -4.4526   19.3242 C   0  0  0  0  0  0  0  0  0  0  0  0
  -23.8996  -10.4897   20.9652 C   0  0  0  0  0  0  0  0  0  0  0  0
  -24.1369  -13.0264   20.8357 C   0  0  0  0  0  0  0  0  0  0  0  0
  -35.7307  -26.7333   11.2392 C   0  0  0  0  0  0  0  0  0  0  0  0
  -31.5568  -21.8416   15.6582 C   0  0  0  0  0  0  0  0  0  0  0  0
  -35.4973  -26.0199   12.4304 C   0  0  0  0  0  0  0  0  0  0  0  0
  -30.3153  -22.4926   15.6878 C   0  0  0  0  0  0  0  0  0  0  0  0
  -22.5261   -8.1268   21.5245 C   0  0  0  0  0  0  0  0  0  0  0  0
  -30.0729  -21.8975   18.0324 C   0  0  0  0  0  0  0  0  0  0  0  0
  -21.9200   -5.9551   20.8622 C   0  0  0  0  0  0  0  0  0  0  0  0
  -22.0525   -3.9034   18.9766 C   0  0  0  0  0  0  0  0  0  0  0  0
  -20.7520   -5.4784   20.2670 C   0  0  0  0  0  0  0  0  0  0  0  0
  -24.6096  -11.7099   20.6768 C   0  0  0  0  0  0  0  0  0  0  0  0
  -25.1822  -13.8181   20.4269 C   0  0  0  0  0  0  0  0  0  0  0  0
  -26.2604  -18.0624   17.6947 C   0  0  0  0  0  0  0  0  0  0  0  0
  -27.2552  -18.9713   19.2888 C   0  0  0  0  0  0  0  0  0  0  0  0
  -22.8667  -13.4919   21.3104 C   0  0  0  0  0  0  0  0  0  0  0  0
  -32.5830  -24.2214   13.8177 C   0  0  0  0  0  0  0  0  0  0  0  0
  -30.0553  -23.3661   11.9732 C   0  0  0  0  0  0  0  0  0  0  0  0
  -26.9923  -21.8756   11.7667 C   0  0  0  0  0  0  0  0  0  0  0  0
  -30.7776  -14.7495   20.8027 C   0  0  0  0  0  0  0  0  0  0  0  0
  -34.6697  -27.6056   10.6161 C   0  0  0  0  0  0  0  0  0  0  0  0
  -32.3520  -21.7754   14.3832 C   0  0  0  0  0  0  0  0  0  0  0  0
  -29.7472  -23.1726   14.4699 C   0  0  0  0  0  0  0  0  0  0  0  0
  -33.2599  -27.3012   11.1163 C   0  0  0  0  0  0  0  0  0  0  0  0
  -29.4773  -12.6575   18.0396 C   0  0  0  0  0  0  0  0  0  0  0  0
  -33.2478  -27.1786   12.6367 C   0  0  0  0  0  0  0  0  0  0  0  0
  -28.0826  -12.2798   18.5356 C   0  0  0  0  0  0  0  0  0  0  0  0
  -30.4419  -12.9072   19.1950 C   0  0  0  0  0  0  0  0  0  0  0  0
  -28.5626  -13.5370   20.6733 C   0  0  0  0  0  0  0  0  0  0  0  0
  -34.1423  -26.0242   13.1042 C   0  0  1  0  0  0  0  0  0  0  0  0
  -32.0086  -22.8954   13.4060 C   0  0  1  0  0  0  0  0  0  0  0  0
  -27.5541  -13.3241   19.5344 C   0  0  2  0  0  0  0  0  0  0  0  0
  -25.2450  -17.8092   16.6657 C   0  0  0  0  0  0  0  0  0  0  0  0
  -25.1562  -21.3647   10.1342 C   0  0  0  0  0  0  0  0  0  0  0  0
  -29.1469  -26.2767   12.0877 C   0  0  0  0  0  0  0  0  0  0  0  0
  -26.8947  -25.5326   11.2865 C   0  0  0  0  0  0  0  0  0  0  0  0
  -28.9032  -25.1952    9.8460 C   0  0  0  0  0  0  0  0  0  0  0  0
  -31.1547  -16.9605   21.8268 C   0  0  0  0  0  0  0  0  0  0  0  0
  -27.2921  -18.9583   12.1648 C   0  0  0  0  0  0  0  0  0  0  0  0
  -27.7111  -19.8504   20.4260 C   0  0  0  0  0  0  0  0  0  0  0  0
  -27.3023  -21.3170   20.2728 C   0  0  0  0  0  0  0  0  0  0  0  0
  -29.1917  -17.3573   19.3787 C   0  0  0  0  0  0  0  0  0  0  0  0
  -29.0143  -16.5593   20.6678 C   0  0  0  0  0  0  0  0  0  0  0  0
  -27.9311  -21.9957   19.0614 C   0  0  0  0  0  0  0  0  0  1  0  0
  -28.5996  -23.7602   11.9052 C   0  0  1  0  0  0  0  0  0  0  0  0
  -26.4311  -20.8578   10.7902 C   0  0  2  0  0  0  0  0  0  0  0  0
  -28.3974  -25.1801   11.3050 C   0  0  0  0  0  0  0  0  0  0  0  0
  -25.8579  -11.6638   20.2039 N   0  0  0  0  0  0  0  0  0  0  0  0
  -26.1714  -19.1135   18.5618 N   0  0  0  0  0  0  0  0  0  0  0  0
  -27.3311  -17.2788   17.8395 N   0  0  0  0  0  0  0  0  0  0  0  0
  -26.1784  -12.9611   20.0620 N   0  0  0  0  0  0  0  0  0  0  0  0
  -27.9507  -17.8820   18.8654 N   0  0  0  0  0  0  0  0  0  0  0  0
  -30.5652  -23.0855   13.2488 N   0  0  0  0  0  0  0  0  0  0  0  0
  -29.8963  -13.8709   20.1514 N   0  0  0  0  0  0  0  0  0  0  0  0
  -25.3370  -15.1568   20.3476 N   0  0  0  0  0  0  0  0  0  0  0  0
  -21.9066  -12.5437   21.6894 N   0  0  0  0  0  0  0  0  0  0  0  0
  -33.4745  -24.7555   12.9070 N   0  0  0  0  0  0  0  0  0  0  0  0
  -27.9233  -22.6981   11.1684 N   0  0  0  0  0  0  0  0  0  0  0  0
  -30.2760  -16.0103   21.1598 N   0  0  0  0  0  0  0  0  0  0  0  0
  -26.1221  -19.5808   11.4936 N   0  3  0  0  0  0  0  0  0  0  0  0
  -22.5852  -14.7123   21.3804 O   0  0  0  0  0  0  0  0  0  0  0  0
  -32.2414  -24.7235   14.8821 O   0  0  0  0  0  0  0  0  0  0  0  0
  -30.7139  -23.3025   10.9321 O   0  0  0  0  0  0  0  0  0  0  0  0
  -26.6373  -21.9374   12.9417 O   0  0  0  0  0  0  0  0  0  0  0  0
  -31.9488  -14.4290   21.0423 O   0  0  0  0  0  0  0  0  0  0  0  0
  -21.8560   -6.9741   21.7978 O   0  0  0  0  0  0  0  0  0  0  0  0
  -29.3512  -21.9305   19.1856 O   0  0  0  0  0  0  0  0  0  1  0  0
  -22.1164   -2.9193   18.0701 F   0  0  0  0  0  0  0  0  0  0  0  0
  -19.5635   -6.0029   20.5961 F   0  0  0  0  0  0  0  0  0  0  0  0
  1  2  1  0  0  0  0
  1  5  2  0  0  0  0
  2  6  2  0  0  0  0
  3  8  2  0  0  0  0
  3 15  1  0  0  0  0
  4  9  1  0  0  0  0
  4 15  2  0  0  0  0
  5 17  1  0  0  0  0
  6 19  1  0  0  0  0
  7 10  2  0  0  0  0
  7 18  1  0  0  0  0
  8 21  1  0  0  0  0
  9 21  2  0  0  0  0
 10 22  1  0  0  0  0
 11 12  2  0  0  0  0
 11 23  1  0  0  0  0
 12 24  1  0  0  0  0
 13 20  1  0  0  0  0
 13 22  2  0  0  0  0
 14 24  2  0  0  0  0
 14 25  1  0  0  0  0
 15 26  1  0  0  0  0
 16 26  1  0  0  0  0
 16 27  2  0  0  0  0
 16 30  1  0  0  0  0
 17 19  2  0  0  0  0
 17 35  1  0  0  0  0
 18 20  2  0  0  0  0
 18 36  1  0  0  0  0
 19 44  1  0  0  0  0
 20 37  1  0  0  0  0
 21 80  1  0  0  0  0
 22 81  1  0  0  0  0
 23 25  2  0  0  0  0
 23 80  1  0  0  0  0
 24 82  1  0  0  0  0
 25 83  1  0  0  0  0
 26 62  2  0  0  0  0
 27 65  1  0  0  0  0
 27 69  1  0  0  0  0
 28 47  1  0  0  0  0
 28 63  1  0  0  0  0
 28 64  2  0  0  0  0
 29 54  1  0  0  0  0
 29 63  2  0  0  0  0
 29 66  1  0  0  0  0
 30 70  1  0  0  0  0
 30 75  2  0  0  0  0
 31 45  1  0  0  0  0
 31 71  1  0  0  0  0
 31 76  2  0  0  0  0
 32 59  1  0  0  0  0
 32 67  1  0  0  0  0
 32 77  2  0  0  0  0
 33 60  1  0  0  0  0
 33 72  1  0  0  0  0
 33 78  2  0  0  0  0
 34 68  1  0  0  0  0
 34 73  1  0  0  0  0
 34 79  2  0  0  0  0
 35 38  1  0  0  0  0
 36 45  1  0  0  0  0
 37 67  1  0  0  0  0
 38 40  1  0  0  0  0
 39 41  1  0  0  0  0
 39 42  1  0  0  0  0
 40 44  1  0  0  0  0
 41 46  1  0  0  0  0
 42 68  1  0  0  0  0
 43 46  1  0  0  0  0
 43 68  1  0  0  0  0
 44 71  1  0  0  0  0
 45 67  1  0  0  0  0
 46 65  1  0  0  0  0
 48 60  1  0  0  0  0
 49 61  1  0  0  0  0
 50 61  1  0  0  0  0
 51 61  1  0  0  0  0
 52 73  1  0  0  0  0
 53 74  1  0  0  0  0
 54 55  1  0  0  0  0
 55 58  1  0  0  0  0
 56 57  1  0  0  0  0
 56 66  1  0  0  0  0
 57 73  1  0  0  0  0
 58 81  1  0  0  0  0
 59 61  1  0  0  0  0
 59 72  1  0  0  0  0
 60 74  1  0  0  0  0
 62 65  1  0  0  0  0
 64 66  1  0  0  0  0
M  CHG  1  74   1
M  ISO  4  34 100  58 101  73 100  81 101
M  END
> <Batch ID>
0058

> <Smiles>
CNC(C)C(=O)NC(C(=O)N1Cc2cc([101O:1][101CH2:1]CCc3nc(C)nn3CC[100N:0](C)[100C:0](=O)N3CCCC(n4nc(-c5ccc(Oc6ccc(F)cc6F)cc5)c(C(N)=O)c4N)C3)ccc2CC1C(=O)NC1CCCc2ccccc21)C(C)(C)C

> <Shape>
0.191

> <Color>
0.183

> <Negative vol penalty>
0.000

$$$$

  -OEChem-04052317503D

 81 89  0     1  0  0  0  0  0999 V2000
  -24.3415  -11.6963   20.3187 C   0  0  0  0  0  0  0  0  0  0  0  0
  -23.8045  -12.9762   20.4131 C   0  0  0  0  0  0  0  0  0  0  0  0
  -25.5403  -28.9569   20.3268 C   0  0  0  0  0  0  0  0  0  0  0  0
  -25.6338  -26.5830   19.8875 C   0  0  0  0  0  0  0  0  0  0  0  0
  -25.6777  -11.4760   20.6500 C   0  0  0  0  0  0  0  0  0  0  0  0
  -24.6033  -14.0365   20.8399 C   0  0  0  0  0  0  0  0  0  0  0  0
  -24.0123  -18.1828   17.9932 C   0  0  0  0  0  0  0  0  0  0  0  0
  -26.9213  -28.9753   20.5215 C   0  0  0  0  0  0  0  0  0  0  0  0
  -27.0149  -26.6014   20.0822 C   0  0  0  0  0  0  0  0  0  0  0  0
  -22.8754  -18.9562   18.2231 C   0  0  0  0  0  0  0  0  0  0  0  0
  -29.7072  -28.9837   18.6054 C   0  0  0  0  0  0  0  0  0  0  0  0
  -30.4332  -30.0110   18.0028 C   0  0  0  0  0  0  0  0  0  0  0  0
  -19.0892  -22.2657   18.0074 C   0  0  0  0  0  0  0  0  0  0  0  0
  -24.1937  -20.4938   19.5335 C   0  0  0  0  0  0  0  0  0  0  0  0
  -31.1989  -30.7434   20.1741 C   0  0  0  0  0  0  0  0  0  0  0  0
  -18.0868  -23.1272   18.4042 C   0  0  0  0  0  0  0  0  0  0  0  0
  -24.8965  -27.7608   20.0098 C   0  0  0  0  0  0  0  0  0  0  0  0
  -22.7789  -27.9376   18.5984 C   0  0  0  0  0  0  0  0  0  0  0  0
  -26.4959  -12.5359   21.0719 C   0  0  0  0  0  0  0  0  0  0  0  0
  -25.2484  -18.5537   18.5417 C   0  0  0  0  0  0  0  0  0  0  0  0
  -25.9514  -13.8299   21.1785 C   0  0  0  0  0  0  0  0  0  0  0  0
  -25.3454  -19.7247   19.3069 C   0  0  0  0  0  0  0  0  0  0  0  0
  -27.6586  -27.7976   20.3992 C   0  0  0  0  0  0  0  0  0  0  0  0
  -22.9653  -20.1104   18.9957 C   0  0  0  0  0  0  0  0  0  0  0  0
  -29.7270  -28.8362   19.9923 C   0  0  0  0  0  0  0  0  0  0  0  0
  -31.1791  -30.8909   18.7872 C   0  0  0  0  0  0  0  0  0  0  0  0
  -30.4729  -29.7160   20.7767 C   0  0  0  0  0  0  0  0  0  0  0  0
  -23.4698  -27.7410   19.8091 C   0  0  0  0  0  0  0  0  0  0  0  0
  -19.5449  -21.3939   18.9751 C   0  0  0  0  0  0  0  0  0  0  0  0
  -21.4528  -27.8218   18.9371 C   0  0  0  0  0  0  0  0  0  0  0  0
  -18.0904  -22.2465   20.4998 C   0  0  0  0  0  0  0  0  0  0  0  0
  -23.2900  -28.2012   17.2851 C   0  0  0  0  0  0  0  0  0  0  0  0
  -27.2775  -17.2297   20.5992 C   0  0  0  0  0  0  0  0  0  0  0  0
  -29.1389  -19.7609   19.7925 C   0  0  0  0  0  0  0  0  0  0  0  0
  -29.3319  -22.9473   18.5859 C   0  0  0  0  0  0  0  0  0  0  0  0
  -18.6134  -25.0028   23.3916 C   0  0  0  0  0  0  0  0  0  0  0  0
  -27.9218  -12.2404   21.4646 C   0  0  0  0  0  0  0  0  0  0  0  0
  -26.4708  -17.7231   18.2622 C   0  0  0  0  0  0  0  0  0  0  0  0
  -26.6530  -20.1775   19.9015 C   0  0  0  0  0  0  0  0  0  0  0  0
  -28.8007  -13.4856   21.5495 C   0  0  0  0  0  0  0  0  0  0  0  0
  -18.4555  -28.4726   22.6091 C   0  0  0  0  0  0  0  0  0  0  0  0
  -28.0870  -14.5911   22.3210 C   0  0  0  0  0  0  0  0  0  0  0  0
  -19.6604  -28.6963   21.6936 C   0  0  0  0  0  0  0  0  0  0  0  0
  -18.7616  -27.4554   23.7063 C   0  0  0  0  0  0  0  0  0  0  0  0
  -20.4870  -26.3861   22.3087 C   0  0  0  0  0  0  0  0  0  0  0  0
  -26.7925  -15.0102   21.6138 C   0  0  1  0  0  0  0  0  0  0  0  0
  -27.5748  -17.9176   19.2969 C   0  0  1  0  0  0  0  0  0  0  0  0
  -20.2090  -27.3622   21.1528 C   0  0  2  0  0  0  0  0  0  0  0  0
  -16.8491  -20.8964   22.2203 C   0  0  0  0  0  0  0  0  0  0  0  0
  -30.9864  -24.7643   18.0773 C   0  0  0  0  0  0  0  0  0  0  0  0
  -29.3722  -20.3790   22.7713 C   0  0  0  0  0  0  0  0  0  0  0  0
  -30.1959  -22.6633   22.1617 C   0  0  0  0  0  0  0  0  0  0  0  0
  -31.4975  -20.6471   21.4807 C   0  0  0  0  0  0  0  0  0  0  0  0
  -28.6173  -22.9537   15.7139 C   0  0  0  0  0  0  0  0  0  0  0  0
  -20.6346  -20.4191   18.6378 C   0  0  0  0  0  0  0  0  0  1  0  0
  -18.5904  -22.5568   22.9721 C   0  0  0  0  0  0  0  0  0  0  0  0
  -17.5366  -22.2364   21.8841 C   0  0  1  0  0  0  0  0  0  0  0  0
  -29.3160  -21.1667   20.3132 C   0  0  1  0  0  0  0  0  0  0  0  0
  -30.2219  -23.5709   17.5259 C   0  0  2  0  0  0  0  0  0  0  0  0
  -30.0702  -21.2047   21.6723 C   0  0  0  0  0  0  0  0  0  0  0  0
  -17.5621  -23.1449   19.6471 N   0  0  0  0  0  0  0  0  0  0  0  0
  -22.6504  -27.5175   20.8400 N   0  0  0  0  0  0  0  0  0  0  0  0
  -19.0665  -21.3569   20.2361 N   0  0  0  0  0  0  0  0  0  0  0  0
  -21.4310  -27.5730   20.2780 N   0  0  0  0  0  0  0  0  0  0  0  0
  -27.8185  -19.3283   19.6050 N   0  0  0  0  0  0  0  0  0  0  0  0
  -19.2765  -26.2124   23.1268 N   0  0  0  0  0  0  0  0  0  0  0  0
  -20.3151  -27.9097   18.2159 N   0  0  0  0  0  0  0  0  0  0  0  0
  -24.6783  -28.2884   17.1134 N   0  0  0  0  0  0  0  0  0  0  0  0
  -27.0878  -15.8658   20.4845 N   0  0  0  0  0  0  0  0  0  0  0  0
  -29.9686  -21.9180   19.2464 N   0  0  0  0  0  0  0  0  0  0  0  0
  -19.1634  -23.8730   22.7984 N   0  0  0  0  0  0  0  0  0  0  0  0
  -29.4041  -24.0308   16.3680 N   0  3  0  0  0  0  0  0  0  0  0  0
  -22.5373  -28.3712   16.2961 O   0  0  0  0  0  0  0  0  0  0  0  0
  -27.2257  -17.8874   21.6319 O   0  0  0  0  0  0  0  0  0  0  0  0
  -30.1357  -19.0744   19.5539 O   0  0  0  0  0  0  0  0  0  0  0  0
  -28.1877  -23.3371   18.8084 O   0  0  0  0  0  0  0  0  0  0  0  0
  -17.6028  -24.9354   24.0994 O   0  0  0  0  0  0  0  0  0  0  0  0
  -29.0063  -27.8152   20.5889 O   0  0  0  0  0  0  0  0  0  0  0  0
  -21.8570  -20.8668   19.2222 O   0  0  0  0  0  0  0  0  0  1  0  0
  -31.8774  -31.8764   18.2083 F   0  0  0  0  0  0  0  0  0  0  0  0
  -30.4967  -29.5786   22.1095 F   0  0  0  0  0  0  0  0  0  0  0  0
  1  2  1  0  0  0  0
  1  5  2  0  0  0  0
  2  6  2  0  0  0  0
  3  8  2  0  0  0  0
  3 17  1  0  0  0  0
  4  9  1  0  0  0  0
  4 17  2  0  0  0  0
  5 19  1  0  0  0  0
  6 21  1  0  0  0  0
  7 10  2  0  0  0  0
  7 20  1  0  0  0  0
  8 23  1  0  0  0  0
  9 23  2  0  0  0  0
 10 24  1  0  0  0  0
 11 12  2  0  0  0  0
 11 25  1  0  0  0  0
 12 26  1  0  0  0  0
 13 16  2  0  0  0  0
 13 29  1  0  0  0  0
 14 22  1  0  0  0  0
 14 24  2  0  0  0  0
 15 26  2  0  0  0  0
 15 27  1  0  0  0  0
 16 61  1  0  0  0  0
 17 28  1  0  0  0  0
 18 28  1  0  0  0  0
 18 30  2  0  0  0  0
 18 32  1  0  0  0  0
 19 21  2  0  0  0  0
 19 37  1  0  0  0  0
 20 22  2  0  0  0  0
 20 38  1  0  0  0  0
 21 46  1  0  0  0  0
 22 39  1  0  0  0  0
 23 78  1  0  0  0  0
 24 79  1  0  0  0  0
 25 27  2  0  0  0  0
 25 78  1  0  0  0  0
 26 80  1  0  0  0  0
 27 81  1  0  0  0  0
 28 62  2  0  0  0  0
 29 55  1  0  0  0  0
 29 63  2  0  0  0  0
 30 64  1  0  0  0  0
 30 67  1  0  0  0  0
 31 57  1  0  0  0  0
 31 61  2  0  0  0  0
 31 63  1  0  0  0  0
 32 68  1  0  0  0  0
 32 73  2  0  0  0  0
 33 47  1  0  0  0  0
 33 69  1  0  0  0  0
 33 74  2  0  0  0  0
 34 58  1  0  0  0  0
 34 65  1  0  0  0  0
 34 75  2  0  0  0  0
 35 59  1  0  0  0  0
 35 70  1  0  0  0  0
 35 76  2  0  0  0  0
 36 66  1  0  0  0  0
 36 71  1  0  0  0  0
 36 77  2  0  0  0  0
 37 40  1  0  0  0  0
 38 47  1  0  0  0  0
 39 65  1  0  0  0  0
 40 42  1  0  0  0  0
 41 43  1  0  0  0  0
 41 44  1  0  0  0  0
 42 46  1  0  0  0  0
 43 48  1  0  0  0  0
 44 66  1  0  0  0  0
 45 48  1  0  0  0  0
 45 66  1  0  0  0  0
 46 69  1  0  0  0  0
 47 65  1  0  0  0  0
 48 64  1  0  0  0  0
 49 57  1  0  0  0  0
 50 59  1  0  0  0  0
 51 60  1  0  0  0  0
 52 60  1  0  0  0  0
 53 60  1  0  0  0  0
 54 72  1  0  0  0  0
 55 79  1  0  0  0  0
 56 57  1  0  0  0  0
 56 71  1  0  0  0  0
 58 60  1  0  0  0  0
 58 70  1  0  0  0  0
 59 72  1  0  0  0  0
 62 64  1  0  0  0  0
M  CHG  1  72   1
M  ISO  4  36 100  55 101  71 100  79 101
M  END
> <Batch ID>
0058

> <Smiles>
CNC(C)C(=O)NC(C(=O)N1Cc2cc([101O:1][101CH2:1]c3ccnc(C(C)C[100NH:0][100C:0](=O)N4CCCC(n5nc(-c6ccc(Oc7ccc(F)cc7F)cc6)c(C(N)=O)c5N)C4)n3)ccc2CC1C(=O)NC1CCCc2ccccc21)C(C)(C)C

> <Shape>
0.203

> <Color>
0.066

> <Negative vol penalty>
0.000

$$$$

  -OEChem-04052317503D

 82 90  0     1  0  0  0  0  0999 V2000
  -28.5007  -34.8832   24.9934 C   0  0  0  0  0  0  0  0  0  0  0  0
  -28.6330  -33.5895   24.4993 C   0  0  0  0  0  0  0  0  0  0  0  0
  -26.0988  -12.6976   21.9358 C   0  0  0  0  0  0  0  0  0  0  0  0
  -27.4999  -12.2572   20.0174 C   0  0  0  0  0  0  0  0  0  0  0  0
  -27.2625  -35.3291   25.4537 C   0  0  0  0  0  0  0  0  0  0  0  0
  -27.5273  -32.7405   24.4662 C   0  0  0  0  0  0  0  0  0  0  0  0
  -27.1326  -30.2344   20.0834 C   0  0  0  0  0  0  0  0  0  0  0  0
  -25.6215  -11.3878   21.8879 C   0  0  0  0  0  0  0  0  0  0  0  0
  -27.0227  -10.9474   19.9696 C   0  0  0  0  0  0  0  0  0  0  0  0
  -27.9720  -29.1365   19.8999 C   0  0  0  0  0  0  0  0  0  0  0  0
  -23.3714   -9.6213   20.0876 C   0  0  0  0  0  0  0  0  0  0  0  0
  -21.9973   -9.4275   20.2278 C   0  0  0  0  0  0  0  0  0  0  0  0
  -26.1566  -27.6587   20.4827 C   0  0  0  0  0  0  0  0  0  0  0  0
  -22.3886   -8.0721   22.1891 C   0  0  0  0  0  0  0  0  0  0  0  0
  -30.1531  -24.5638   19.8447 C   0  0  0  0  0  0  0  0  0  0  0  0
  -27.0379  -13.1323   21.0005 C   0  0  0  0  0  0  0  0  0  0  0  0
  -28.6513  -14.9569   21.7589 C   0  0  0  0  0  0  0  0  0  0  0  0
  -26.1389  -34.4884   25.4173 C   0  0  0  0  0  0  0  0  0  0  0  0
  -25.7996  -30.0529   20.4792 C   0  0  0  0  0  0  0  0  0  0  0  0
  -26.2732  -33.1751   24.9277 C   0  0  0  0  0  0  0  0  0  0  0  0
  -25.3016  -28.7558   20.6681 C   0  0  0  0  0  0  0  0  0  0  0  0
  -26.0835  -10.5127   20.9048 C   0  0  0  0  0  0  0  0  0  0  0  0
  -27.4849  -27.8485   20.1024 C   0  0  0  0  0  0  0  0  0  0  0  0
  -24.2542   -9.0405   20.9981 C   0  0  0  0  0  0  0  0  0  0  0  0
  -21.5058   -8.6529   21.2786 C   0  0  0  0  0  0  0  0  0  0  0  0
  -23.7628   -8.2659   22.0489 C   0  0  0  0  0  0  0  0  0  0  0  0
  -27.5308  -14.4854   21.0491 C   0  0  0  0  0  0  0  0  0  0  0  0
  -28.7950  -24.4424   19.9324 C   0  0  0  0  0  0  0  0  0  0  0  0
  -28.6936  -16.3012   21.4802 C   0  0  0  0  0  0  0  0  0  0  0  0
  -29.6416  -22.4235   19.6041 C   0  0  0  0  0  0  0  0  0  0  0  0
  -29.5717  -14.2436   22.5955 C   0  0  0  0  0  0  0  0  0  0  0  0
  -24.0727  -30.9136   23.0052 C   0  0  0  0  0  0  0  0  0  0  0  0
  -21.6336  -29.6506   21.2795 C   0  0  0  0  0  0  0  0  0  0  0  0
  -20.6290  -27.5000   18.8274 C   0  0  0  0  0  0  0  0  0  0  0  0
  -28.4039  -20.2493   17.4003 C   0  0  0  0  0  0  0  0  0  0  0  0
  -24.8318  -34.9992   25.9698 C   0  0  0  0  0  0  0  0  0  0  0  0
  -24.8996  -31.2464   20.6470 C   0  0  0  0  0  0  0  0  0  0  0  0
  -23.8727  -28.5062   21.0736 C   0  0  0  0  0  0  0  0  0  0  0  0
  -23.6255  -34.1618   25.5530 C   0  0  0  0  0  0  0  0  0  0  0  0
  -25.3272  -19.3243   19.2389 C   0  0  0  0  0  0  0  0  0  0  0  0
  -23.9185  -32.6759   25.7352 C   0  0  0  0  0  0  0  0  0  0  0  0
  -25.7060  -17.9854   19.8697 C   0  0  0  0  0  0  0  0  0  0  0  0
  -26.0919  -19.5773   17.9431 C   0  0  0  0  0  0  0  0  0  0  0  0
  -27.9486  -18.1397   18.7176 C   0  0  0  0  0  0  0  0  0  0  0  0
  -25.0916  -32.2327   24.8526 C   0  0  1  0  0  0  0  0  0  0  0  0
  -23.7018  -30.9692   21.5502 C   0  0  1  0  0  0  0  0  0  0  0  0
  -27.2301  -17.8752   20.0492 C   0  0  2  0  0  0  0  0  0  0  0  0
  -31.5732  -19.5729   16.8793 C   0  0  0  0  0  0  0  0  0  0  0  0
  -31.0988  -20.3948   19.9541 C   0  0  0  0  0  0  0  0  0  0  0  0
  -18.5687  -26.6583   17.6680 C   0  0  0  0  0  0  0  0  0  0  0  0
  -20.9756  -27.9239   23.7076 C   0  0  0  0  0  0  0  0  0  0  0  0
  -19.5801  -26.4781   22.2141 C   0  0  0  0  0  0  0  0  0  0  0  0
  -18.9832  -28.8787   22.5357 C   0  0  0  0  0  0  0  0  0  0  0  0
  -27.1790  -22.5221   19.8038 C   0  0  0  0  0  0  0  0  0  0  0  0
  -21.5554  -28.5041   16.2021 C   0  0  0  0  0  0  0  0  0  0  0  0
  -27.7372  -25.4842   20.1492 C   0  0  0  0  0  0  0  0  0  1  0  0
  -30.7856  -20.8380   17.1540 C   0  0  0  0  0  0  0  0  0  0  0  0
  -29.7783  -20.9596   19.4026 C   0  0  2  0  0  0  0  0  0  0  0  0
  -21.0122  -28.2808   21.1508 C   0  0  1  0  0  0  0  0  0  0  0  0
  -19.6911  -27.6843   17.6481 C   0  0  2  0  0  0  0  0  0  0  0  0
  -20.1653  -27.8948   22.3963 C   0  0  0  0  0  0  0  0  0  0  0  0
  -26.9063  -15.4515   20.3705 N   0  0  0  0  0  0  0  0  0  0  0  0
  -28.5064  -23.1077   19.7796 N   0  0  0  0  0  0  0  0  0  0  0  0
  -27.6368  -16.5437   20.6528 N   0  0  0  0  0  0  0  0  0  0  0  0
  -30.6510  -23.2993   19.6418 N   0  3  0  0  0  0  0  0  0  0  0  0
  -23.0338  -29.7058   21.2313 N   0  0  0  0  0  0  0  0  0  0  0  0
  -27.5347  -19.4237   18.1323 N   0  0  0  0  0  0  0  0  0  0  0  0
  -29.5312  -17.2876   21.8646 N   0  0  0  0  0  0  0  0  0  0  0  0
  -29.3826  -12.8665   22.7744 N   0  0  0  0  0  0  0  0  0  0  0  0
  -24.6592  -32.0708   23.4810 N   0  0  0  0  0  0  0  0  0  0  0  0
  -20.2640  -28.2881   19.8984 N   0  0  0  0  0  0  0  0  0  0  0  0
  -29.6289  -20.5791   17.9996 N   0  0  0  0  0  0  0  0  0  0  0  0
  -20.4368  -27.5404   16.3659 N   0  3  0  0  0  0  0  0  0  0  0  0
  -30.5237  -14.8137   23.1805 O   0  0  0  0  0  0  0  0  0  0  0  0
  -23.8424  -29.8966   23.6490 O   0  0  0  0  0  0  0  0  0  0  0  0
  -20.9034  -30.6360   21.4107 O   0  0  0  0  0  0  0  0  0  0  0  0
  -21.5873  -26.7309   18.8025 O   0  0  0  0  0  0  0  0  0  0  0  0
  -28.0980  -20.6756   16.2793 O   0  0  0  0  0  0  0  0  0  0  0  0
  -25.6182   -9.2345   20.8580 O   0  0  0  0  0  0  0  0  0  0  0  0
  -28.3023  -26.7751   19.9246 O   0  0  0  0  0  0  0  0  0  1  0  0
  -20.1861   -8.4682   21.4140 F   0  0  0  0  0  0  0  0  0  0  0  0
  -24.6059   -7.7063   22.9274 F   0  0  0  0  0  0  0  0  0  0  0  0
  1  2  1  0  0  0  0
  1  5  2  0  0  0  0
  2  6  2  0  0  0  0
  3  8  2  0  0  0  0
  3 16  1  0  0  0  0
  4  9  1  0  0  0  0
  4 16  2  0  0  0  0
  5 18  1  0  0  0  0
  6 20  1  0  0  0  0
  7 10  2  0  0  0  0
  7 19  1  0  0  0  0
  8 22  1  0  0  0  0
  9 22  2  0  0  0  0
 10 23  1  0  0  0  0
 11 12  2  0  0  0  0
 11 24  1  0  0  0  0
 12 25  1  0  0  0  0
 13 21  1  0  0  0  0
 13 23  2  0  0  0  0
 14 25  2  0  0  0  0
 14 26  1  0  0  0  0
 15 28  2  0  0  0  0
 15 65  1  0  0  0  0
 16 27  1  0  0  0  0
 17 27  1  0  0  0  0
 17 29  2  0  0  0  0
 17 31  1  0  0  0  0
 18 20  2  0  0  0  0
 18 36  1  0  0  0  0
 19 21  2  0  0  0  0
 19 37  1  0  0  0  0
 20 45  1  0  0  0  0
 21 38  1  0  0  0  0
 22 79  1  0  0  0  0
 23 80  1  0  0  0  0
 24 26  2  0  0  0  0
 24 79  1  0  0  0  0
 25 81  1  0  0  0  0
 26 82  1  0  0  0  0
 27 62  2  0  0  0  0
 28 56  1  0  0  0  0
 28 63  1  0  0  0  0
 29 64  1  0  0  0  0
 29 68  1  0  0  0  0
 30 58  1  0  0  0  0
 30 63  1  0  0  0  0
 30 65  2  0  0  0  0
 31 69  1  0  0  0  0
 31 74  2  0  0  0  0
 32 46  1  0  0  0  0
 32 70  1  0  0  0  0
 32 75  2  0  0  0  0
 33 59  1  0  0  0  0
 33 66  1  0  0  0  0
 33 76  2  0  0  0  0
 34 60  1  0  0  0  0
 34 71  1  0  0  0  0
 34 77  2  0  0  0  0
 35 67  1  0  0  0  0
 35 72  1  0  0  0  0
 35 78  2  0  0  0  0
 36 39  1  0  0  0  0
 37 46  1  0  0  0  0
 38 66  1  0  0  0  0
 39 41  1  0  0  0  0
 40 42  1  0  0  0  0
 40 43  1  0  0  0  0
 41 45  1  0  0  0  0
 42 47  1  0  0  0  0
 43 67  1  0  0  0  0
 44 47  1  0  0  0  0
 44 67  1  0  0  0  0
 45 70  1  0  0  0  0
 46 66  1  0  0  0  0
 47 64  1  0  0  0  0
 48 57  1  0  0  0  0
 49 58  1  0  0  0  0
 50 60  1  0  0  0  0
 51 61  1  0  0  0  0
 52 61  1  0  0  0  0
 53 61  1  0  0  0  0
 54 63  1  0  0  0  0
 55 73  1  0  0  0  0
 56 80  1  0  0  0  0
 57 72  1  0  0  0  0
 58 72  1  0  0  0  0
 59 61  1  0  0  0  0
 59 71  1  0  0  0  0
 60 73  1  0  0  0  0
 62 64  1  0  0  0  0
M  CHG  2  65   1  73   1
M  ISO  4  35 100  56 101  72 100  80 101
M  END
> <Batch ID>
0058

> <Smiles>
CC[100N:0](C(C)c1ncc([101CH2:1][101O:1]c2ccc3c(c2)CN(C(=O)C(NC(=O)C(C)NC)C(C)(C)C)C(C(=O)NC2CCCc4ccccc42)C3)n1C)[100C:0](=O)N1CCCC(n2nc(-c3ccc(Oc4ccc(F)cc4F)cc3)c(C(N)=O)c2N)C1

> <Shape>
0.301

> <Color>
0.068

> <Negative vol penalty>
0.000

$$$$

  -OEChem-04052317503D

 89 97  0     1  0  0  0  0  0999 V2000
  -18.8551  -33.3449   20.1457 C   0  0  0  0  0  0  0  0  0  0  0  0
  -20.1319  -32.9238   19.7881 C   0  0  0  0  0  0  0  0  0  0  0  0
  -26.4115  -12.4978   21.5823 C   0  0  0  0  0  0  0  0  0  0  0  0
  -26.0675  -13.3341   19.3419 C   0  0  0  0  0  0  0  0  0  0  0  0
  -18.3420  -33.0224   21.4013 C   0  0  0  0  0  0  0  0  0  0  0  0
  -20.8969  -32.1808   20.6866 C   0  0  0  0  0  0  0  0  0  0  0  0
  -24.8518  -27.7054   19.3318 C   0  0  0  0  0  0  0  0  0  0  0  0
  -25.1628  -11.8774   21.5425 C   0  0  0  0  0  0  0  0  0  0  0  0
  -24.8188  -12.7137   19.3021 C   0  0  0  0  0  0  0  0  0  0  0  0
  -26.2398  -27.6878   19.2017 C   0  0  0  0  0  0  0  0  0  0  0  0
  -23.8160   -9.0725   20.2192 C   0  0  0  0  0  0  0  0  0  0  0  0
  -23.7292   -7.7598   20.6826 C   0  0  0  0  0  0  0  0  0  0  0  0
  -26.4378  -26.9248   21.4816 C   0  0  0  0  0  0  0  0  0  0  0  0
  -22.1334   -8.4565   22.3575 C   0  0  0  0  0  0  0  0  0  0  0  0
  -31.1544  -28.5102   19.6327 C   0  0  0  0  0  0  0  0  0  0  0  0
  -26.8638  -13.2262   20.4820 C   0  0  0  0  0  0  0  0  0  0  0  0
  -29.3884  -13.3193   20.1282 C   0  0  0  0  0  0  0  0  0  0  0  0
  -19.0974  -32.2668   22.3119 C   0  0  0  0  0  0  0  0  0  0  0  0
  -24.2458  -27.3426   20.5433 C   0  0  0  0  0  0  0  0  0  0  0  0
  -20.3940  -31.8490   21.9561 C   0  0  0  0  0  0  0  0  0  0  0  0
  -25.0418  -26.9361   21.6237 C   0  0  0  0  0  0  0  0  0  0  0  0
  -24.3665  -11.9854   20.4024 C   0  0  0  0  0  0  0  0  0  0  0  0
  -27.0331  -27.3002   20.2776 C   0  0  0  0  0  0  0  0  0  0  0  0
  -23.0615  -10.0773   20.8249 C   0  0  0  0  0  0  0  0  0  0  0  0
  -22.8880   -7.4518   21.7517 C   0  0  0  0  0  0  0  0  0  0  0  0
  -22.2202   -9.7693   21.8940 C   0  0  0  0  0  0  0  0  0  0  0  0
  -28.1534  -13.8677   20.5227 C   0  0  0  0  0  0  0  0  0  0  0  0
  -32.5223  -28.3280   19.6319 C   0  0  0  0  0  0  0  0  0  0  0  0
  -30.4252  -27.5609   18.9461 C   0  0  0  0  0  0  0  0  0  0  0  0
  -30.2989  -14.3209   20.3613 C   0  0  0  0  0  0  0  0  0  0  0  0
  -32.3210  -26.4431   18.3774 C   0  0  0  0  0  0  0  0  0  0  0  0
  -29.6861  -12.0208   19.5982 C   0  0  0  0  0  0  0  0  0  0  0  0
  -22.4044  -28.8308   22.6643 C   0  0  0  0  0  0  0  0  0  0  0  0
  -22.2454  -25.8843   24.0117 C   0  0  0  0  0  0  0  0  0  0  0  0
  -23.6630  -22.8077   24.4260 C   0  0  0  0  0  0  0  0  0  0  0  0
  -29.9285  -20.1047   20.4929 C   0  0  0  0  0  0  0  0  0  0  0  0
  -18.5187  -31.9830   23.6755 C   0  0  0  0  0  0  0  0  0  0  0  0
  -22.7461  -27.3413   20.6591 C   0  0  0  0  0  0  0  0  0  0  0  0
  -24.4395  -26.5180   22.9393 C   0  0  0  0  0  0  0  0  0  0  0  0
  -19.2480  -30.8728   24.4277 C   0  0  0  0  0  0  0  0  0  0  0  0
  -31.0794  -18.1061   23.1674 C   0  0  0  0  0  0  0  0  0  0  0  0
  -20.7577  -31.0757   24.3468 C   0  0  0  0  0  0  0  0  0  0  0  0
  -30.5682  -16.7262   22.7558 C   0  0  0  0  0  0  0  0  0  0  0  0
  -30.0638  -19.2092   22.8638 C   0  0  0  0  0  0  0  0  0  0  0  0
  -29.0865  -17.8428   21.0471 C   0  0  0  0  0  0  0  0  0  0  0  0
  -21.2448  -31.0202   22.8938 C   0  0  1  0  0  0  0  0  0  0  0  0
  -22.2580  -27.4456   22.1007 C   0  0  1  0  0  0  0  0  0  0  0  0
  -30.1123  -16.7242   21.2864 C   0  0  2  0  0  0  0  0  0  0  0  0
  -33.3944  -29.3034   20.3489 C   0  0  0  0  0  0  0  0  0  0  0  0
  -23.3198  -20.6246   25.6149 C   0  0  0  0  0  0  0  0  0  0  0  0
  -32.6487  -25.3122   16.1467 C   0  0  0  0  0  0  0  0  0  0  0  0
  -34.5373  -25.2669   17.7469 C   0  0  0  0  0  0  0  0  0  0  0  0
  -23.1537  -27.1683   26.6264 C   0  0  0  0  0  0  0  0  0  0  0  0
  -23.7017  -24.8790   27.4791 C   0  0  0  0  0  0  0  0  0  0  0  0
  -21.3502  -25.4540   26.8773 C   0  0  0  0  0  0  0  0  0  0  0  0
  -33.0013  -21.3040   19.5135 C   0  0  0  0  0  0  0  0  0  0  0  0
  -32.6385  -22.4572   21.7189 C   0  0  0  0  0  0  0  0  0  0  0  0
  -29.4235  -22.0000   22.0922 C   0  0  0  0  0  0  0  0  0  0  0  0
  -23.5182  -21.3098   21.8776 C   0  0  0  0  0  0  0  0  0  0  0  0
  -28.9300  -27.6737   18.8926 C   0  0  0  0  0  0  0  0  0  1  0  0
  -30.7543  -22.3853   20.0511 C   0  0  0  0  0  0  0  0  0  0  0  0
  -32.4717  -23.8937   18.2039 C   0  0  0  0  0  0  0  0  0  0  0  0
  -23.0570  -25.1337   25.0398 C   0  0  1  0  0  0  0  0  0  0  0  0
  -23.0796  -21.4092   24.3345 C   0  0  2  0  0  0  0  0  0  0  0  0
  -32.9681  -25.2928   17.6830 C   0  0  0  0  0  0  0  0  0  0  0  0
  -22.8274  -25.6684   26.4816 C   0  0  0  0  0  0  0  0  0  0  0  0
  -32.2786  -22.4470   20.2308 C   0  0  0  0  0  0  0  0  0  0  0  0
  -28.2654  -15.1203   20.9725 N   0  0  0  0  0  0  0  0  0  0  0  0
  -33.1414  -27.3018   19.0122 N   0  0  0  0  0  0  0  0  0  0  0  0
  -30.9780  -26.5106   18.3046 N   0  0  0  0  0  0  0  0  0  0  0  0
  -29.5818  -15.3674   20.8621 N   0  0  0  0  0  0  0  0  0  0  0  0
  -22.9689  -26.5394   23.0051 N   0  0  0  0  0  0  0  0  0  0  0  0
  -29.6198  -19.1417   21.4649 N   0  0  0  0  0  0  0  0  0  0  0  0
  -31.6350  -14.3997   20.1848 N   0  0  0  0  0  0  0  0  0  0  0  0
  -28.6325  -11.1134   19.4221 N   0  0  0  0  0  0  0  0  0  0  0  0
  -21.3144  -29.6490   22.4361 N   0  0  0  0  0  0  0  0  0  0  0  0
  -22.7302  -23.7225   24.8668 N   0  0  0  0  0  0  0  0  0  0  0  0
  -30.1000  -21.4267   20.9304 N   0  0  0  0  0  0  0  0  0  0  0  0
  -23.6983  -20.6628   23.2028 N   0  3  0  0  0  0  0  0  0  0  0  0
  -32.7696  -23.7252   19.6499 N   0  3  0  0  0  0  0  0  0  0  0  0
  -30.8542  -11.6696   19.3054 O   0  0  0  0  0  0  0  0  0  0  0  0
  -23.4296  -29.1343   23.2630 O   0  0  0  0  0  0  0  0  0  0  0  0
  -21.0147  -25.8833   24.0945 O   0  0  0  0  0  0  0  0  0  0  0  0
  -24.8306  -23.0624   24.1389 O   0  0  0  0  0  0  0  0  0  0  0  0
  -30.0373  -19.8028   19.2975 O   0  0  0  0  0  0  0  0  0  0  0  0
  -23.1481  -11.3800   20.3631 O   0  0  0  0  0  0  0  0  0  0  0  0
  -28.3882  -27.2828   20.1535 O   0  0  0  0  0  0  0  0  0  1  0  0
  -22.8036   -6.1908   22.1957 F   0  0  0  0  0  0  0  0  0  0  0  0
  -21.4920  -10.7301   22.4792 F   0  0  0  0  0  0  0  0  0  0  0  0
  1  2  1  0  0  0  0
  1  5  2  0  0  0  0
  2  6  2  0  0  0  0
  3  8  2  0  0  0  0
  3 16  1  0  0  0  0
  4  9  1  0  0  0  0
  4 16  2  0  0  0  0
  5 18  1  0  0  0  0
  6 20  1  0  0  0  0
  7 10  2  0  0  0  0
  7 19  1  0  0  0  0
  8 22  1  0  0  0  0
  9 22  2  0  0  0  0
 10 23  1  0  0  0  0
 11 12  2  0  0  0  0
 11 24  1  0  0  0  0
 12 25  1  0  0  0  0
 13 21  1  0  0  0  0
 13 23  2  0  0  0  0
 14 25  2  0  0  0  0
 14 26  1  0  0  0  0
 15 28  2  0  0  0  0
 15 29  1  0  0  0  0
 16 27  1  0  0  0  0
 17 27  1  0  0  0  0
 17 30  2  0  0  0  0
 17 32  1  0  0  0  0
 18 20  2  0  0  0  0
 18 37  1  0  0  0  0
 19 21  2  0  0  0  0
 19 38  1  0  0  0  0
 20 46  1  0  0  0  0
 21 39  1  0  0  0  0
 22 86  1  0  0  0  0
 23 87  1  0  0  0  0
 24 26  2  0  0  0  0
 24 86  1  0  0  0  0
 25 88  1  0  0  0  0
 26 89  1  0  0  0  0
 27 68  2  0  0  0  0
 28 49  1  0  0  0  0
 28 69  1  0  0  0  0
 29 60  1  0  0  0  0
 29 70  2  0  0  0  0
 30 71  1  0  0  0  0
 30 74  1  0  0  0  0
 31 65  1  0  0  0  0
 31 69  2  0  0  0  0
 31 70  1  0  0  0  0
 32 75  1  0  0  0  0
 32 81  2  0  0  0  0
 33 47  1  0  0  0  0
 33 76  1  0  0  0  0
 33 82  2  0  0  0  0
 34 63  1  0  0  0  0
 34 72  1  0  0  0  0
 34 83  2  0  0  0  0
 35 64  1  0  0  0  0
 35 77  1  0  0  0  0
 35 84  2  0  0  0  0
 36 73  1  0  0  0  0
 36 78  1  0  0  0  0
 36 85  2  0  0  0  0
 37 40  1  0  0  0  0
 38 47  1  0  0  0  0
 39 72  1  0  0  0  0
 40 42  1  0  0  0  0
 41 43  1  0  0  0  0
 41 44  1  0  0  0  0
 42 46  1  0  0  0  0
 43 48  1  0  0  0  0
 44 73  1  0  0  0  0
 45 48  1  0  0  0  0
 45 73  1  0  0  0  0
 46 76  1  0  0  0  0
 47 72  1  0  0  0  0
 48 71  1  0  0  0  0
 50 64  1  0  0  0  0
 51 65  1  0  0  0  0
 52 65  1  0  0  0  0
 53 66  1  0  0  0  0
 54 66  1  0  0  0  0
 55 66  1  0  0  0  0
 56 67  1  0  0  0  0
 57 67  1  0  0  0  0
 58 78  1  0  0  0  0
 59 79  1  0  0  0  0
 60 87  1  0  0  0  0
 61 67  1  0  0  0  0
 61 78  1  0  0  0  0
 62 65  1  0  0  0  0
 62 80  1  0  0  0  0
 63 66  1  0  0  0  0
 63 77  1  0  0  0  0
 64 79  1  0  0  0  0
 67 80  1  0  0  0  0
 68 71  1  0  0  0  0
M  CHG  2  79   1  80   1
M  ISO  4  36 100  60 101  78 100  87 101
M  END
> <Batch ID>
0058

> <Smiles>
CNC(C)C(=O)NC(C(=O)N1Cc2cc([101O:1][101CH2:1]c3cc(C)nc(C(C)(C)CNC(C)(C)C[100N:0](C)[100C:0](=O)N4CCCC(n5nc(-c6ccc(Oc7ccc(F)cc7F)cc6)c(C(N)=O)c5N)C4)n3)ccc2CC1C(=O)NC1CCCc2ccccc21)C(C)(C)C

> <Shape>
0.240

> <Color>
0.108

> <Negative vol penalty>
0.000

$$$$

  -OEChem-04052317503D

 83 91  0     1  0  0  0  0  0999 V2000
  -26.1636  -35.7907   22.1683 C   0  0  0  0  0  0  0  0  0  0  0  0
  -26.6599  -34.4913   22.1973 C   0  0  0  0  0  0  0  0  0  0  0  0
  -26.6193  -12.7346   20.1451 C   0  0  0  0  0  0  0  0  0  0  0  0
  -24.9514  -14.4330   19.7323 C   0  0  0  0  0  0  0  0  0  0  0  0
  -24.8244  -36.0310   22.4726 C   0  0  0  0  0  0  0  0  0  0  0  0
  -25.8175  -33.4317   22.5316 C   0  0  0  0  0  0  0  0  0  0  0  0
  -26.3788  -29.4555   19.4461 C   0  0  0  0  0  0  0  0  0  0  0  0
  -25.6408  -11.7467   20.0346 C   0  0  0  0  0  0  0  0  0  0  0  0
  -23.9729  -13.4452   19.6218 C   0  0  0  0  0  0  0  0  0  0  0  0
  -27.4849  -28.6343   19.6606 C   0  0  0  0  0  0  0  0  0  0  0  0
  -23.5161   -8.8013   20.2176 C   0  0  0  0  0  0  0  0  0  0  0  0
  -23.5089   -7.7838   21.1716 C   0  0  0  0  0  0  0  0  0  0  0  0
  -26.0812  -27.0593   20.8302 C   0  0  0  0  0  0  0  0  0  0  0  0
  -23.1815   -9.4222   22.9167 C   0  0  0  0  0  0  0  0  0  0  0  0
  -28.9006  -23.1354   20.4405 C   0  0  0  0  0  0  0  0  0  0  0  0
  -26.2746  -14.0778   19.9940 C   0  0  0  0  0  0  0  0  0  0  0  0
  -28.4406  -15.2436   19.3179 C   0  0  0  0  0  0  0  0  0  0  0  0
  -23.9627  -34.9727   22.8013 C   0  0  0  0  0  0  0  0  0  0  0  0
  -25.1155  -29.0894   19.9324 C   0  0  0  0  0  0  0  0  0  0  0  0
  -24.4657  -33.6583   22.8418 C   0  0  0  0  0  0  0  0  0  0  0  0
  -24.9602  -27.8764   20.6184 C   0  0  0  0  0  0  0  0  0  0  0  0
  -24.3176  -12.1020   19.7729 C   0  0  0  0  0  0  0  0  0  0  0  0
  -27.3367  -27.4374   20.3552 C   0  0  0  0  0  0  0  0  0  0  0  0
  -23.3560  -10.1293   20.6132 C   0  0  0  0  0  0  0  0  0  0  0  0
  -23.3416   -8.0942   22.5212 C   0  0  0  0  0  0  0  0  0  0  0  0
  -23.1886  -10.4397   21.9627 C   0  0  0  0  0  0  0  0  0  0  0  0
  -27.2849  -15.0987   20.1086 C   0  0  0  0  0  0  0  0  0  0  0  0
  -27.7484  -22.4548   20.0036 C   0  0  0  0  0  0  0  0  0  0  0  0
  -29.0551  -24.1616   19.5407 C   0  0  0  0  0  0  0  0  0  0  0  0
  -29.0651  -16.3575   19.8236 C   0  0  0  0  0  0  0  0  0  0  0  0
  -28.9077  -14.4430   18.2241 C   0  0  0  0  0  0  0  0  0  0  0  0
  -23.0608  -30.3442   22.0078 C   0  0  0  0  0  0  0  0  0  0  0  0
  -21.1535  -27.9274   20.9860 C   0  0  0  0  0  0  0  0  0  0  0  0
  -20.9070  -24.8303   19.5740 C   0  0  0  0  0  0  0  0  0  0  0  0
  -26.6260  -20.9474   23.0672 C   0  0  0  0  0  0  0  0  0  0  0  0
  -22.5341  -35.2871   23.1688 C   0  0  0  0  0  0  0  0  0  0  0  0
  -23.9273  -29.9734   19.6695 C   0  0  0  0  0  0  0  0  0  0  0  0
  -23.6215  -27.4279   21.1432 C   0  0  0  0  0  0  0  0  0  0  0  0
  -21.6172  -34.0668   23.1479 C   0  0  0  0  0  0  0  0  0  0  0  0
  -29.5842  -18.8673   23.8567 C   0  0  0  0  0  0  0  0  0  0  0  0
  -22.2734  -32.8935   23.8687 C   0  0  0  0  0  0  0  0  0  0  0  0
  -29.3801  -17.6450   22.9632 C   0  0  0  0  0  0  0  0  0  0  0  0
  -28.2582  -19.5163   24.2416 C   0  0  0  0  0  0  0  0  0  0  0  0
  -27.1963  -18.6478   22.1844 C   0  0  0  0  0  0  0  0  0  0  0  0
  -23.5772  -32.4797   23.1756 C   0  0  1  0  0  0  0  0  0  0  0  0
  -22.7855  -29.7487   20.6560 C   0  0  1  0  0  0  0  0  0  0  0  0
  -28.5154  -17.9977   21.7404 C   0  0  2  0  0  0  0  0  0  0  0  0
  -19.2176  -23.1008   18.9012 C   0  0  0  0  0  0  0  0  0  0  0  0
  -30.9203  -25.2534   18.1237 C   0  0  0  0  0  0  0  0  0  0  0  0
  -31.1372  -25.0964   20.5947 C   0  0  0  0  0  0  0  0  0  0  0  0
  -20.8071  -27.1314   23.9111 C   0  0  0  0  0  0  0  0  0  0  0  0
  -19.9373  -24.9164   23.1329 C   0  0  0  0  0  0  0  0  0  0  0  0
  -18.7173  -27.0106   22.5426 C   0  0  0  0  0  0  0  0  0  0  0  0
  -27.7532  -24.8865   17.5174 C   0  0  0  0  0  0  0  0  0  0  0  0
  -25.5587  -22.7621   21.7837 C   0  0  0  0  0  0  0  0  0  0  0  0
  -21.7127  -24.9817   16.7303 C   0  0  0  0  0  0  0  0  0  0  0  0
  -27.1265  -21.2642   20.6072 C   0  0  0  0  0  0  0  0  0  0  0  0
  -29.4507  -26.6663   19.5856 C   0  0  0  0  0  0  0  0  0  1  0  0
  -20.9192  -26.4978   21.4107 C   0  0  1  0  0  0  0  0  0  0  0  0
  -20.0337  -24.3022   18.4501 C   0  0  2  0  0  0  0  0  0  0  0  0
  -30.1171  -25.2732   19.4464 C   0  0  0  0  0  0  0  0  0  0  0  0
  -20.1210  -26.3982   22.7413 C   0  0  0  0  0  0  0  0  0  0  0  0
  -27.1792  -16.0448   21.0455 N   0  0  0  0  0  0  0  0  0  0  0  0
  -27.2090  -23.0025   18.9113 N   0  0  0  0  0  0  0  0  0  0  0  0
  -28.0259  -24.0382   18.6543 N   0  0  0  0  0  0  0  0  0  0  0  0
  -28.2765  -16.7948   20.8468 N   0  0  0  0  0  0  0  0  0  0  0  0
  -22.4913  -28.3298   20.8663 N   0  0  0  0  0  0  0  0  0  0  0  0
  -27.4380  -19.8014   23.0638 N   0  0  0  0  0  0  0  0  0  0  0  0
  -30.2065  -16.9957   19.4884 N   0  0  0  0  0  0  0  0  0  0  0  0
  -28.4976  -14.7795   16.9268 N   0  0  0  0  0  0  0  0  0  0  0  0
  -23.2936  -31.7061   21.9858 N   0  0  0  0  0  0  0  0  0  0  0  0
  -20.2795  -25.8355   20.2791 N   0  0  0  0  0  0  0  0  0  0  0  0
  -26.3852  -21.5643   21.8302 N   0  0  0  0  0  0  0  0  0  0  0  0
  -20.8745  -23.8906   17.2906 N   0  3  0  0  0  0  0  0  0  0  0  0
  -29.6531  -13.4484   18.3937 O   0  0  0  0  0  0  0  0  0  0  0  0
  -23.0604  -29.6218   22.9976 O   0  0  0  0  0  0  0  0  0  0  0  0
  -20.1853  -28.6581   20.7616 O   0  0  0  0  0  0  0  0  0  0  0  0
  -22.0316  -24.3921   19.8057 O   0  0  0  0  0  0  0  0  0  0  0  0
  -26.1515  -21.3993   24.1173 O   0  0  0  0  0  0  0  0  0  0  0  0
  -23.3625  -11.1384   19.6648 O   0  0  0  0  0  0  0  0  0  0  0  0
  -28.4148  -26.6343   20.5665 O   0  0  0  0  0  0  0  0  0  1  0  0
  -23.3332   -7.1168   23.4370 F   0  0  0  0  0  0  0  0  0  0  0  0
  -23.0332  -11.7136   22.3487 F   0  0  0  0  0  0  0  0  0  0  0  0
  1  2  1  0  0  0  0
  1  5  2  0  0  0  0
  2  6  2  0  0  0  0
  3  8  2  0  0  0  0
  3 16  1  0  0  0  0
  4  9  1  0  0  0  0
  4 16  2  0  0  0  0
  5 18  1  0  0  0  0
  6 20  1  0  0  0  0
  7 10  2  0  0  0  0
  7 19  1  0  0  0  0
  8 22  1  0  0  0  0
  9 22  2  0  0  0  0
 10 23  1  0  0  0  0
 11 12  2  0  0  0  0
 11 24  1  0  0  0  0
 12 25  1  0  0  0  0
 13 21  1  0  0  0  0
 13 23  2  0  0  0  0
 14 25  2  0  0  0  0
 14 26  1  0  0  0  0
 15 28  1  0  0  0  0
 15 29  2  0  0  0  0
 16 27  1  0  0  0  0
 17 27  1  0  0  0  0
 17 30  2  0  0  0  0
 17 31  1  0  0  0  0
 18 20  2  0  0  0  0
 18 36  1  0  0  0  0
 19 21  2  0  0  0  0
 19 37  1  0  0  0  0
 20 45  1  0  0  0  0
 21 38  1  0  0  0  0
 22 80  1  0  0  0  0
 23 81  1  0  0  0  0
 24 26  2  0  0  0  0
 24 80  1  0  0  0  0
 25 82  1  0  0  0  0
 26 83  1  0  0  0  0
 27 63  2  0  0  0  0
 28 57  1  0  0  0  0
 28 64  2  0  0  0  0
 29 61  1  0  0  0  0
 29 65  1  0  0  0  0
 30 66  1  0  0  0  0
 30 69  1  0  0  0  0
 31 70  1  0  0  0  0
 31 75  2  0  0  0  0
 32 46  1  0  0  0  0
 32 71  1  0  0  0  0
 32 76  2  0  0  0  0
 33 59  1  0  0  0  0
 33 67  1  0  0  0  0
 33 77  2  0  0  0  0
 34 60  1  0  0  0  0
 34 72  1  0  0  0  0
 34 78  2  0  0  0  0
 35 68  1  0  0  0  0
 35 73  1  0  0  0  0
 35 79  2  0  0  0  0
 36 39  1  0  0  0  0
 37 46  1  0  0  0  0
 38 67  1  0  0  0  0
 39 41  1  0  0  0  0
 40 42  1  0  0  0  0
 40 43  1  0  0  0  0
 41 45  1  0  0  0  0
 42 47  1  0  0  0  0
 43 68  1  0  0  0  0
 44 47  1  0  0  0  0
 44 68  1  0  0  0  0
 45 71  1  0  0  0  0
 46 67  1  0  0  0  0
 47 66  1  0  0  0  0
 48 60  1  0  0  0  0
 49 61  1  0  0  0  0
 50 61  1  0  0  0  0
 51 62  1  0  0  0  0
 52 62  1  0  0  0  0
 53 62  1  0  0  0  0
 54 65  1  0  0  0  0
 55 73  1  0  0  0  0
 56 74  1  0  0  0  0
 57 73  1  0  0  0  0
 58 61  1  0  0  0  0
 58 81  1  0  0  0  0
 59 62  1  0  0  0  0
 59 72  1  0  0  0  0
 60 74  1  0  0  0  0
 63 66  1  0  0  0  0
 64 65  1  0  0  0  0
M  CHG  1  74   1
M  ISO  4  35 100  58 101  73 100  81 101
M  END
> <Batch ID>
0058

> <Smiles>
CNC(C)C(=O)NC(C(=O)N1Cc2cc([101O:1][101CH2:1]C(C)(C)c3cc(C[100N:0](C)[100C:0](=O)N4CCCC(n5nc(-c6ccc(Oc7ccc(F)cc7F)cc6)c(C(N)=O)c5N)C4)nn3C)ccc2CC1C(=O)NC1CCCc2ccccc21)C(C)(C)C

> <Shape>
0.286

> <Color>
0.078

> <Negative vol penalty>
0.000

$$$$

  -OEChem-04052317503D

 80 88  0     1  0  0  0  0  0999 V2000
  -27.6529  -10.6956   21.8792 C   0  0  0  0  0  0  0  0  0  0  0  0
  -28.3123  -11.6777   21.1470 C   0  0  0  0  0  0  0  0  0  0  0  0
  -23.1295  -27.9360   20.1899 C   0  0  0  0  0  0  0  0  0  0  0  0
  -23.5983  -30.0646   21.2323 C   0  0  0  0  0  0  0  0  0  0  0  0
  -26.2608  -10.7022   21.9566 C   0  0  0  0  0  0  0  0  0  0  0  0
  -27.5799  -12.6664   20.4909 C   0  0  0  0  0  0  0  0  0  0  0  0
  -29.2042  -18.5131   19.6640 C   0  0  0  0  0  0  0  0  0  0  0  0
  -21.8019  -28.0233   20.6087 C   0  0  0  0  0  0  0  0  0  0  0  0
  -22.2706  -30.1519   21.6511 C   0  0  0  0  0  0  0  0  0  0  0  0
  -29.7720  -19.1848   18.5823 C   0  0  0  0  0  0  0  0  0  0  0  0
  -20.0505  -27.5217   23.4557 C   0  0  0  0  0  0  0  0  0  0  0  0
  -19.4726  -26.3831   24.0172 C   0  0  0  0  0  0  0  0  0  0  0  0
  -27.5755  -19.8842   17.8713 C   0  0  0  0  0  0  0  0  0  0  0  0
  -17.7972  -26.3749   22.2765 C   0  0  0  0  0  0  0  0  0  0  0  0
  -30.6742  -25.0779   18.1126 C   0  0  0  0  0  0  0  0  0  0  0  0
  -24.0277  -28.9566   20.5018 C   0  0  0  0  0  0  0  0  0  0  0  0
  -25.9426  -29.3397   18.8604 C   0  0  0  0  0  0  0  0  0  0  0  0
  -25.5114  -11.6971   21.3091 C   0  0  0  0  0  0  0  0  0  0  0  0
  -27.8145  -18.5128   19.8516 C   0  0  0  0  0  0  0  0  0  0  0  0
  -26.1764  -12.6855   20.5587 C   0  0  0  0  0  0  0  0  0  0  0  0
  -26.9927  -19.2138   18.9576 C   0  0  0  0  0  0  0  0  0  0  0  0
  -21.3724  -29.1312   21.3392 C   0  0  0  0  0  0  0  0  0  0  0  0
  -28.9575  -19.8681   17.6841 C   0  0  0  0  0  0  0  0  0  0  0  0
  -19.5016  -28.0870   22.3046 C   0  0  0  0  0  0  0  0  0  0  0  0
  -18.3460  -25.8097   23.4277 C   0  0  0  0  0  0  0  0  0  0  0  0
  -18.3750  -27.5135   21.7150 C   0  0  0  0  0  0  0  0  0  0  0  0
  -25.3994  -28.8668   20.0700 C   0  0  0  0  0  0  0  0  0  0  0  0
  -27.2747  -29.0127   18.9311 C   0  0  0  0  0  0  0  0  0  0  0  0
  -29.9683  -24.1427   19.8401 C   0  0  0  0  0  0  0  0  0  0  0  0
  -25.3004  -30.0144   17.7704 C   0  0  0  0  0  0  0  0  0  0  0  0
  -25.5607  -16.2723   19.9193 C   0  0  0  0  0  0  0  0  0  0  0  0
  -23.6639  -18.7573   20.7849 C   0  0  0  0  0  0  0  0  0  0  0  0
  -23.1149  -22.1256   20.7692 C   0  0  0  0  0  0  0  0  0  0  0  0
  -29.9693  -24.6643   22.2935 C   0  0  0  0  0  0  0  0  0  0  0  0
  -24.0063  -11.6355   21.3825 C   0  0  0  0  0  0  0  0  0  0  0  0
  -27.2197  -17.8057   21.0385 C   0  0  0  0  0  0  0  0  0  0  0  0
  -25.4968  -19.2611   19.1259 C   0  0  0  0  0  0  0  0  0  0  0  0
  -23.3225  -12.9357   20.9676 C   0  0  0  0  0  0  0  0  0  0  0  0
  -30.8094  -28.2605   22.0596 C   0  0  0  0  0  0  0  0  0  0  0  0
  -23.9294  -13.4686   19.6736 C   0  0  0  0  0  0  0  0  0  0  0  0
  -29.5277  -28.8724   21.4973 C   0  0  0  0  0  0  0  0  0  0  0  0
  -30.5259  -27.0033   22.8762 C   0  0  0  0  0  0  0  0  0  0  0  0
  -28.4675  -26.5804   21.5625 C   0  0  0  0  0  0  0  0  0  0  0  0
  -25.4181  -13.7891   19.8535 C   0  0  1  0  0  0  0  0  0  0  0  0
  -25.7510  -17.4420   20.8430 C   0  0  1  0  0  0  0  0  0  0  0  0
  -28.7302  -27.8255   20.7022 C   0  0  1  0  0  0  0  0  0  0  0  0
  -21.4603  -23.8553   21.5226 C   0  0  0  0  0  0  0  0  0  0  0  0
  -21.8066  -17.9750   18.4940 C   0  0  0  0  0  0  0  0  0  0  0  0
  -20.7306  -20.2271   18.6897 C   0  0  0  0  0  0  0  0  0  0  0  0
  -20.6390  -18.6322   20.6056 C   0  0  0  0  0  0  0  0  0  0  0  0
  -29.1828  -22.4737   21.5098 C   0  0  0  0  0  0  0  0  0  0  0  0
  -25.1156  -23.4536   22.4991 C   0  0  0  0  0  0  0  0  0  0  0  0
  -30.9847  -22.2790   15.9204 C   0  0  0  0  0  0  0  0  0  0  0  0
  -29.9767  -23.3856   16.2387 C   0  0  0  0  0  0  0  0  0  0  0  0
  -30.8259  -21.0455   16.8017 C   0  0  0  0  0  0  0  0  0  1  0  0
  -22.8254  -19.7708   20.0442 C   0  0  1  0  0  0  0  0  0  0  0  0
  -22.7245  -23.0877   21.8766 C   0  0  2  0  0  0  0  0  0  0  0  0
  -21.5284  -19.1490   19.4538 C   0  0  0  0  0  0  0  0  0  0  0  0
  -30.6008  -25.2311   19.4676 N   0  0  0  0  0  0  0  0  0  0  0  0
  -26.3119  -28.2835   20.8518 N   0  0  0  0  0  0  0  0  0  0  0  0
  -29.6827  -23.3831   18.7487 N   0  0  0  0  0  0  0  0  0  0  0  0
  -30.1269  -23.9633   17.6234 N   0  0  0  0  0  0  0  0  0  0  0  0
  -27.4419  -28.3877   20.1318 N   0  0  0  0  0  0  0  0  0  0  0  0
  -24.9623  -18.5490   20.2984 N   0  0  0  0  0  0  0  0  0  0  0  0
  -29.7152  -26.0413   22.1279 N   0  0  0  0  0  0  0  0  0  0  0  0
  -28.3076  -29.2015   18.0826 N   0  0  0  0  0  0  0  0  0  0  0  0
  -23.9257  -30.2720   17.8609 N   0  0  0  0  0  0  0  0  0  0  0  0
  -25.5838  -15.0449   20.5536 N   0  0  0  0  0  0  0  0  0  0  0  0
  -22.5911  -20.8673   20.9777 N   0  0  0  0  0  0  0  0  0  0  0  0
  -29.6408  -23.8283   21.2093 N   0  0  0  0  0  0  0  0  0  0  0  0
  -23.8186  -24.0702   22.1188 N   0  3  0  0  0  0  0  0  0  0  0  0
  -25.9239  -30.3635   16.7394 O   0  0  0  0  0  0  0  0  0  0  0  0
  -25.4030  -16.4689   18.7200 O   0  0  0  0  0  0  0  0  0  0  0  0
  -23.1871  -18.1773   21.7636 O   0  0  0  0  0  0  0  0  0  0  0  0
  -23.8116  -22.4581   19.8128 O   0  0  0  0  0  0  0  0  0  0  0  0
  -30.4068  -24.2026   23.3547 O   0  0  0  0  0  0  0  0  0  0  0  0
  -20.0769  -29.2169   21.7478 O   0  0  0  0  0  0  0  0  0  0  0  0
  -29.5091  -20.5241   16.6271 O   0  0  0  0  0  0  0  0  0  1  0  0
  -17.7922  -24.7155   23.9662 F   0  0  0  0  0  0  0  0  0  0  0  0
  -17.8440  -28.0514   20.6084 F   0  0  0  0  0  0  0  0  0  0  0  0
  1  2  1  0  0  0  0
  1  5  2  0  0  0  0
  2  6  2  0  0  0  0
  3  8  2  0  0  0  0
  3 16  1  0  0  0  0
  4  9  1  0  0  0  0
  4 16  2  0  0  0  0
  5 18  1  0  0  0  0
  6 20  1  0  0  0  0
  7 10  2  0  0  0  0
  7 19  1  0  0  0  0
  8 22  1  0  0  0  0
  9 22  2  0  0  0  0
 10 23  1  0  0  0  0
 11 12  2  0  0  0  0
 11 24  1  0  0  0  0
 12 25  1  0  0  0  0
 13 21  1  0  0  0  0
 13 23  2  0  0  0  0
 14 25  2  0  0  0  0
 14 26  1  0  0  0  0
 15 59  2  0  0  0  0
 15 62  1  0  0  0  0
 16 27  1  0  0  0  0
 17 27  1  0  0  0  0
 17 28  2  0  0  0  0
 17 30  1  0  0  0  0
 18 20  2  0  0  0  0
 18 35  1  0  0  0  0
 19 21  2  0  0  0  0
 19 36  1  0  0  0  0
 20 44  1  0  0  0  0
 21 37  1  0  0  0  0
 22 77  1  0  0  0  0
 23 78  1  0  0  0  0
 24 26  2  0  0  0  0
 24 77  1  0  0  0  0
 25 79  1  0  0  0  0
 26 80  1  0  0  0  0
 27 60  2  0  0  0  0
 28 63  1  0  0  0  0
 28 66  1  0  0  0  0
 29 59  1  0  0  0  0
 29 61  2  0  0  0  0
 29 70  1  0  0  0  0
 30 67  1  0  0  0  0
 30 72  2  0  0  0  0
 31 45  1  0  0  0  0
 31 68  1  0  0  0  0
 31 73  2  0  0  0  0
 32 56  1  0  0  0  0
 32 64  1  0  0  0  0
 32 74  2  0  0  0  0
 33 57  1  0  0  0  0
 33 69  1  0  0  0  0
 33 75  2  0  0  0  0
 34 65  1  0  0  0  0
 34 70  1  0  0  0  0
 34 76  2  0  0  0  0
 35 38  1  0  0  0  0
 36 45  1  0  0  0  0
 37 64  1  0  0  0  0
 38 40  1  0  0  0  0
 39 41  1  0  0  0  0
 39 42  1  0  0  0  0
 40 44  1  0  0  0  0
 41 46  1  0  0  0  0
 42 65  1  0  0  0  0
 43 46  1  0  0  0  0
 43 65  1  0  0  0  0
 44 68  1  0  0  0  0
 45 64  1  0  0  0  0
 46 63  1  0  0  0  0
 47 57  1  0  0  0  0
 48 58  1  0  0  0  0
 49 58  1  0  0  0  0
 50 58  1  0  0  0  0
 51 70  1  0  0  0  0
 52 71  1  0  0  0  0
 53 54  1  0  0  0  0
 53 55  1  0  0  0  0
 54 62  1  0  0  0  0
 55 78  1  0  0  0  0
 56 58  1  0  0  0  0
 56 69  1  0  0  0  0
 57 71  1  0  0  0  0
 60 63  1  0  0  0  0
 61 62  1  0  0  0  0
M  CHG  1  71   1
M  ISO  4  34 100  55 101  70 100  78 101
M  END
> <Batch ID>
0058

> <Smiles>
CNC(C)C(=O)NC(C(=O)N1Cc2cc([101O:1][101CH2:1]CCn3cnc([100N:0](C)[100C:0](=O)N4CCCC(n5nc(-c6ccc(Oc7ccc(F)cc7F)cc6)c(C(N)=O)c5N)C4)n3)ccc2CC1C(=O)NC1CCCc2ccccc21)C(C)(C)C

> <Shape>
0.235

> <Color>
0.084

> <Negative vol penalty>
0.000

$$$$

  -OEChem-04052317503D

 81 89  0     1  0  0  0  0  0999 V2000
  -21.7705  -12.5166   19.3022 C   0  0  0  0  0  0  0  0  0  0  0  0
  -21.7413  -13.7844   19.8741 C   0  0  0  0  0  0  0  0  0  0  0  0
  -29.4330  -29.0940   20.1102 C   0  0  0  0  0  0  0  0  0  0  0  0
  -29.0029  -26.9433   21.1233 C   0  0  0  0  0  0  0  0  0  0  0  0
  -22.9376  -11.7558   19.3555 C   0  0  0  0  0  0  0  0  0  0  0  0
  -22.8790  -14.2918   20.5007 C   0  0  0  0  0  0  0  0  0  0  0  0
  -23.8083  -19.1070   19.2378 C   0  0  0  0  0  0  0  0  0  0  0  0
  -30.7965  -28.9389   20.3596 C   0  0  0  0  0  0  0  0  0  0  0  0
  -30.3665  -26.7881   21.3727 C   0  0  0  0  0  0  0  0  0  0  0  0
  -23.0372  -20.0884   19.8592 C   0  0  0  0  0  0  0  0  0  0  0  0
  -34.4315  -28.9482   20.4051 C   0  0  0  0  0  0  0  0  0  0  0  0
  -35.3192  -29.2691   19.3782 C   0  0  0  0  0  0  0  0  0  0  0  0
  -24.8457  -20.5293   21.3936 C   0  0  0  0  0  0  0  0  0  0  0  0
  -34.2939  -27.5959   17.9689 C   0  0  0  0  0  0  0  0  0  0  0  0
  -19.9132  -24.0199   21.4460 C   0  0  0  0  0  0  0  0  0  0  0  0
  -28.5361  -28.0962   20.4921 C   0  0  0  0  0  0  0  0  0  0  0  0
  -26.4222  -27.8550   19.0848 C   0  0  0  0  0  0  0  0  0  0  0  0
  -24.0931  -12.2579   19.9746 C   0  0  0  0  0  0  0  0  0  0  0  0
  -25.1020  -18.8213   19.6974 C   0  0  0  0  0  0  0  0  0  0  0  0
  -24.0623  -13.5364   20.5636 C   0  0  0  0  0  0  0  0  0  0  0  0
  -25.6321  -19.5456   20.7747 C   0  0  0  0  0  0  0  0  0  0  0  0
  -31.2633  -27.7859   20.9908 C   0  0  0  0  0  0  0  0  0  0  0  0
  -23.5548  -20.7977   20.9391 C   0  0  0  0  0  0  0  0  0  0  0  0
  -33.4750  -27.9510   20.2140 C   0  0  0  0  0  0  0  0  0  0  0  0
  -35.2505  -28.5930   18.1601 C   0  0  0  0  0  0  0  0  0  0  0  0
  -33.4062  -27.2749   18.9959 C   0  0  0  0  0  0  0  0  0  0  0  0
  -27.1274  -28.2561   20.2352 C   0  0  0  0  0  0  0  0  0  0  0  0
  -20.8427  -23.0862   21.8078 C   0  0  0  0  0  0  0  0  0  0  0  0
  -25.1236  -28.2293   19.3301 C   0  0  0  0  0  0  0  0  0  0  0  0
  -20.4203  -24.3503   23.5753 C   0  0  0  0  0  0  0  0  0  0  0  0
  -26.8983  -27.2023   17.9003 C   0  0  0  0  0  0  0  0  0  0  0  0
  -26.5337  -16.2601   20.9196 C   0  0  0  0  0  0  0  0  0  0  0  0
  -29.1815  -18.1222   20.7105 C   0  0  0  0  0  0  0  0  0  0  0  0
  -30.9366  -21.2611   21.0013 C   0  0  0  0  0  0  0  0  0  0  0  0
  -20.7201  -28.5749   22.7412 C   0  0  0  0  0  0  0  0  0  0  0  0
  -25.3169  -11.3796   20.0489 C   0  0  0  0  0  0  0  0  0  0  0  0
  -25.9309  -17.7783   18.9993 C   0  0  0  0  0  0  0  0  0  0  0  0
  -27.0230  -19.2911   21.2935 C   0  0  0  0  0  0  0  0  0  0  0  0
  -26.5921  -12.1405   20.4028 C   0  0  0  0  0  0  0  0  0  0  0  0
  -23.1705  -31.1478   22.9707 C   0  0  0  0  0  0  0  0  0  0  0  0
  -26.3442  -13.0801   21.5785 C   0  0  0  0  0  0  0  0  0  0  0  0
  -24.3616  -30.5892   22.1903 C   0  0  0  0  0  0  0  0  0  0  0  0
  -22.4378  -30.0526   23.7425 C   0  0  0  0  0  0  0  0  0  0  0  0
  -23.2078  -28.3385   22.1479 C   0  0  0  0  0  0  0  0  0  0  0  0
  -25.2835  -14.1314   21.2304 C   0  0  1  0  0  0  0  0  0  0  0  0
  -27.0439  -17.2139   19.8768 C   0  0  1  0  0  0  0  0  0  0  0  0
  -23.9449  -29.3964   21.3089 C   0  0  2  0  0  0  0  0  0  0  0  0
  -20.4629  -24.8992   24.9536 C   0  0  0  0  0  0  0  0  0  0  0  0
  -33.3190  -21.8525   20.4801 C   0  0  0  0  0  0  0  0  0  0  0  0
  -17.3064  -25.4296   22.3630 C   0  0  0  0  0  0  0  0  0  0  0  0
  -29.6671  -17.5465   23.6673 C   0  0  0  0  0  0  0  0  0  0  0  0
  -31.2620  -19.4761   23.7094 C   0  0  0  0  0  0  0  0  0  0  0  0
  -31.7244  -17.5097   22.2457 C   0  0  0  0  0  0  0  0  0  0  0  0
  -30.1178  -23.4487   19.1839 C   0  0  0  0  0  0  0  0  0  0  0  0
  -21.4945  -21.9822   21.0282 C   0  0  0  0  0  0  0  0  0  1  0  0
  -19.1170  -27.0299   21.6448 C   0  0  0  0  0  0  0  0  0  0  0  0
  -29.8687  -19.1097   21.6224 C   0  0  1  0  0  0  0  0  0  0  0  0
  -31.8821  -21.8713   19.9824 C   0  0  2  0  0  0  0  0  0  0  0  0
  -18.7424  -25.9004   22.6175 C   0  0  2  0  0  0  0  0  0  0  0  0
  -30.6036  -18.4142   22.8029 C   0  0  0  0  0  0  0  0  0  0  0  0
  -26.3420  -28.8406   21.1438 N   0  0  0  0  0  0  0  0  0  0  0  0
  -19.6701  -24.7882   22.5590 N   0  0  0  0  0  0  0  0  0  0  0  0
  -25.1299  -28.8096   20.5644 N   0  0  0  0  0  0  0  0  0  0  0  0
  -21.1385  -23.3143   23.1302 N   0  3  0  0  0  0  0  0  0  0  0  0
  -27.7919  -18.2570   20.5816 N   0  0  0  0  0  0  0  0  0  0  0  0
  -22.0690  -28.9519   22.8490 N   0  0  0  0  0  0  0  0  0  0  0  0
  -23.9885  -28.1154   18.6083 N   0  0  0  0  0  0  0  0  0  0  0  0
  -28.2615  -26.8891   17.8121 N   0  0  0  0  0  0  0  0  0  0  0  0
  -25.8557  -15.1722   20.4035 N   0  0  0  0  0  0  0  0  0  0  0  0
  -30.7361  -19.9165   20.7708 N   0  0  0  0  0  0  0  0  0  0  0  0
  -20.4564  -27.5270   21.8677 N   0  0  0  0  0  0  0  0  0  0  0  0
  -31.5002  -23.2844   19.7025 N   0  3  0  0  0  0  0  0  0  0  0  0
  -26.1403  -26.9205   16.9413 O   0  0  0  0  0  0  0  0  0  0  0  0
  -26.7410  -16.4931   22.1047 O   0  0  0  0  0  0  0  0  0  0  0  0
  -29.8538  -17.2674   20.1284 O   0  0  0  0  0  0  0  0  0  0  0  0
  -30.4297  -21.9113   21.9128 O   0  0  0  0  0  0  0  0  0  0  0  0
  -19.8171  -29.1346   23.3723 O   0  0  0  0  0  0  0  0  0  0  0  0
  -32.5939  -27.6341   21.2342 O   0  0  0  0  0  0  0  0  0  0  0  0
  -22.8041  -21.7557   21.5478 O   0  0  0  0  0  0  0  0  0  1  0  0
  -36.1020  -28.9024   17.1736 F   0  0  0  0  0  0  0  0  0  0  0  0
  -32.4887  -26.3169   18.8059 F   0  0  0  0  0  0  0  0  0  0  0  0
  1  2  1  0  0  0  0
  1  5  2  0  0  0  0
  2  6  2  0  0  0  0
  3  8  2  0  0  0  0
  3 16  1  0  0  0  0
  4  9  1  0  0  0  0
  4 16  2  0  0  0  0
  5 18  1  0  0  0  0
  6 20  1  0  0  0  0
  7 10  2  0  0  0  0
  7 19  1  0  0  0  0
  8 22  1  0  0  0  0
  9 22  2  0  0  0  0
 10 23  1  0  0  0  0
 11 12  2  0  0  0  0
 11 24  1  0  0  0  0
 12 25  1  0  0  0  0
 13 21  1  0  0  0  0
 13 23  2  0  0  0  0
 14 25  2  0  0  0  0
 14 26  1  0  0  0  0
 15 28  2  0  0  0  0
 15 62  1  0  0  0  0
 16 27  1  0  0  0  0
 17 27  1  0  0  0  0
 17 29  2  0  0  0  0
 17 31  1  0  0  0  0
 18 20  2  0  0  0  0
 18 36  1  0  0  0  0
 19 21  2  0  0  0  0
 19 37  1  0  0  0  0
 20 45  1  0  0  0  0
 21 38  1  0  0  0  0
 22 78  1  0  0  0  0
 23 79  1  0  0  0  0
 24 26  2  0  0  0  0
 24 78  1  0  0  0  0
 25 80  1  0  0  0  0
 26 81  1  0  0  0  0
 27 61  2  0  0  0  0
 28 55  1  0  0  0  0
 28 64  1  0  0  0  0
 29 63  1  0  0  0  0
 29 67  1  0  0  0  0
 30 48  1  0  0  0  0
 30 62  1  0  0  0  0
 30 64  2  0  0  0  0
 31 68  1  0  0  0  0
 31 73  2  0  0  0  0
 32 46  1  0  0  0  0
 32 69  1  0  0  0  0
 32 74  2  0  0  0  0
 33 57  1  0  0  0  0
 33 65  1  0  0  0  0
 33 75  2  0  0  0  0
 34 58  1  0  0  0  0
 34 70  1  0  0  0  0
 34 76  2  0  0  0  0
 35 66  1  0  0  0  0
 35 71  1  0  0  0  0
 35 77  2  0  0  0  0
 36 39  1  0  0  0  0
 37 46  1  0  0  0  0
 38 65  1  0  0  0  0
 39 41  1  0  0  0  0
 40 42  1  0  0  0  0
 40 43  1  0  0  0  0
 41 45  1  0  0  0  0
 42 47  1  0  0  0  0
 43 66  1  0  0  0  0
 44 47  1  0  0  0  0
 44 66  1  0  0  0  0
 45 69  1  0  0  0  0
 46 65  1  0  0  0  0
 47 63  1  0  0  0  0
 49 58  1  0  0  0  0
 50 59  1  0  0  0  0
 51 60  1  0  0  0  0
 52 60  1  0  0  0  0
 53 60  1  0  0  0  0
 54 72  1  0  0  0  0
 55 79  1  0  0  0  0
 56 59  1  0  0  0  0
 56 71  1  0  0  0  0
 57 60  1  0  0  0  0
 57 70  1  0  0  0  0
 58 72  1  0  0  0  0
 59 62  1  0  0  0  0
 61 63  1  0  0  0  0
M  CHG  2  64   1  72   1
M  ISO  4  35 100  55 101  71 100  79 101
M  END
> <Batch ID>
0058

> <Smiles>
CNC(C)C(=O)NC(C(=O)N1Cc2cc([101O:1][101CH2:1]c3cn(C(C)C[100NH:0][100C:0](=O)N4CCCC(n5nc(-c6ccc(Oc7ccc(F)cc7F)cc6)c(C(N)=O)c5N)C4)c(C)n3)ccc2CC1C(=O)NC1CCCc2ccccc21)C(C)(C)C

> <Shape>
0.225

> <Color>
0.065

> <Negative vol penalty>
0.000

$$$$

  -OEChem-04052317503D

 83 91  0     1  0  0  0  0  0999 V2000
  -29.0424  -23.7306   15.7921 C   0  0  0  0  0  0  0  0  0  0  0  0
  -27.7744  -23.9683   16.3128 C   0  0  0  0  0  0  0  0  0  0  0  0
  -26.6742  -15.4140   21.5573 C   0  0  0  0  0  0  0  0  0  0  0  0
  -26.5819  -15.2224   19.1507 C   0  0  0  0  0  0  0  0  0  0  0  0
  -30.1721  -23.9779   16.5710 C   0  0  0  0  0  0  0  0  0  0  0  0
  -27.6354  -24.4523   17.6131 C   0  0  0  0  0  0  0  0  0  0  0  0
  -24.2482  -28.2029   17.9381 C   0  0  0  0  0  0  0  0  0  0  0  0
  -26.2772  -14.0824   21.6786 C   0  0  0  0  0  0  0  0  0  0  0  0
  -26.1850  -13.8907   19.2719 C   0  0  0  0  0  0  0  0  0  0  0  0
  -22.9005  -27.8458   17.9346 C   0  0  0  0  0  0  0  0  0  0  0  0
  -23.3460  -12.1905   19.9650 C   0  0  0  0  0  0  0  0  0  0  0  0
  -22.2905  -11.7535   19.1648 C   0  0  0  0  0  0  0  0  0  0  0  0
  -22.8386  -28.0794   20.3347 C   0  0  0  0  0  0  0  0  0  0  0  0
  -23.7406  -10.1085   18.1506 C   0  0  0  0  0  0  0  0  0  0  0  0
  -20.6178  -23.8524   16.0031 C   0  0  0  0  0  0  0  0  0  0  0  0
  -26.8265  -15.9841   20.2933 C   0  0  0  0  0  0  0  0  0  0  0  0
  -28.5525  -17.8501   20.0777 C   0  0  0  0  0  0  0  0  0  0  0  0
  -30.0472  -24.4743   17.8781 C   0  0  0  0  0  0  0  0  0  0  0  0
  -24.9051  -28.4908   19.1430 C   0  0  0  0  0  0  0  0  0  0  0  0
  -28.7644  -24.7052   18.4106 C   0  0  0  0  0  0  0  0  0  0  0  0
  -24.1940  -28.4424   20.3506 C   0  0  0  0  0  0  0  0  0  0  0  0
  -26.0327  -13.3207   20.5359 C   0  0  0  0  0  0  0  0  0  0  0  0
  -22.1962  -27.7811   19.1333 C   0  0  0  0  0  0  0  0  0  0  0  0
  -24.5989  -11.5866   19.8580 C   0  0  0  0  0  0  0  0  0  0  0  0
  -22.4878  -10.7124   18.2576 C   0  0  0  0  0  0  0  0  0  0  0  0
  -24.7961  -10.5456   18.9509 C   0  0  0  0  0  0  0  0  0  0  0  0
  -27.2359  -17.3598   20.1674 C   0  0  0  0  0  0  0  0  0  0  0  0
  -21.3482  -22.6494   16.0345 C   0  0  0  0  0  0  0  0  0  0  0  0
  -19.7691  -23.7671   17.0797 C   0  0  0  0  0  0  0  0  0  0  0  0
  -28.4054  -19.2118   19.9741 C   0  0  0  0  0  0  0  0  0  0  0  0
  -29.7970  -17.1383   20.0871 C   0  0  0  0  0  0  0  0  0  0  0  0
  -27.3574  -27.2238   20.7192 C   0  0  0  0  0  0  0  0  0  0  0  0
  -26.9289  -29.7857   22.6623 C   0  0  0  0  0  0  0  0  0  0  0  0
  -24.8279  -32.1924   23.8624 C   0  0  0  0  0  0  0  0  0  0  0  0
  -23.9479  -22.6939   18.0105 C   0  0  0  0  0  0  0  0  0  0  0  0
  -31.2957  -24.6814   18.6984 C   0  0  0  0  0  0  0  0  0  0  0  0
  -26.3523  -28.9004   19.1272 C   0  0  0  0  0  0  0  0  0  0  0  0
  -24.8478  -28.7618   21.6692 C   0  0  0  0  0  0  0  0  0  0  0  0
  -31.0751  -25.5486   19.9351 C   0  0  0  0  0  0  0  0  0  0  0  0
  -25.4609  -22.7666   21.2327 C   0  0  0  0  0  0  0  0  0  0  0  0
  -29.8232  -25.1023   20.6837 C   0  0  0  0  0  0  0  0  0  0  0  0
  -26.2062  -21.4334   21.3170 C   0  0  0  0  0  0  0  0  0  0  0  0
  -24.1398  -22.6280   20.4794 C   0  0  0  0  0  0  0  0  0  0  0  0
  -24.9967  -20.6880   19.2240 C   0  0  0  0  0  0  0  0  0  0  0  0
  -28.5734  -25.2535   19.8081 C   0  0  1  0  0  0  0  0  0  0  0  0
  -27.0524  -28.6726   20.4634 C   0  0  1  0  0  0  0  0  0  0  0  0
  -26.3616  -20.7889   19.9263 C   0  0  2  0  0  0  0  0  0  0  0  0
  -22.1595  -22.7182   13.6552 C   0  0  0  0  0  0  0  0  0  0  0  0
  -24.7528  -34.1196   25.4679 C   0  0  0  0  0  0  0  0  0  0  0  0
  -26.7749  -27.8297   24.9991 C   0  0  0  0  0  0  0  0  0  0  0  0
  -25.7733  -29.6640   26.3777 C   0  0  0  0  0  0  0  0  0  0  0  0
  -28.0816  -29.9106   25.4648 C   0  0  0  0  0  0  0  0  0  0  0  0
  -19.3959  -22.0148   18.8417 C   0  0  0  0  0  0  0  0  0  0  0  0
  -24.2067  -34.1181   21.7026 C   0  0  0  0  0  0  0  0  0  0  0  0
  -18.7291  -24.7271   17.5996 C   0  0  0  0  0  0  0  0  0  0  0  0
  -19.2712  -25.7278   18.6224 C   0  0  0  0  0  0  0  0  0  0  0  0
  -23.8392  -22.6197   15.5323 C   0  0  0  0  0  0  0  0  0  0  0  0
  -20.4433  -26.5504   18.0997 C   0  0  0  0  0  0  0  0  0  1  0  0
  -22.4007  -22.2140   15.1010 C   0  0  1  0  0  0  0  0  0  0  0  0
  -26.1051  -30.0659   23.8959 C   0  0  1  0  0  0  0  0  0  0  0  0
  -25.0042  -33.6908   24.0307 C   0  0  2  0  0  0  0  0  0  0  0  0
  -26.6716  -29.3596   25.1599 C   0  0  0  0  0  0  0  0  0  0  0  0
  -26.3200  -18.3310   20.1248 N   0  0  0  0  0  0  0  0  0  0  0  0
  -20.9946  -21.8579   17.0506 N   0  0  0  0  0  0  0  0  0  0  0  0
  -20.0328  -22.5651   17.6677 N   0  0  0  0  0  0  0  0  0  0  0  0
  -27.0621  -19.4452   20.0072 N   0  0  0  0  0  0  0  0  0  0  0  0
  -26.2661  -29.1510   21.6022 N   0  0  0  0  0  0  0  0  0  0  0  0
  -24.3569  -22.0118   19.1683 N   0  0  0  0  0  0  0  0  0  0  0  0
  -29.2955  -20.2202   19.8590 N   0  0  0  0  0  0  0  0  0  0  0  0
  -29.7671  -15.7417   20.2002 N   0  0  0  0  0  0  0  0  0  0  0  0
  -28.1573  -26.6386   19.7563 N   0  0  0  0  0  0  0  0  0  0  0  0
  -26.0215  -31.5179   24.0098 N   0  0  0  0  0  0  0  0  0  0  0  0
  -24.1967  -22.0423   16.8088 N   0  0  0  0  0  0  0  0  0  0  0  0
  -24.0553  -34.4264   23.1479 N   0  3  0  0  0  0  0  0  0  0  0  0
  -30.9035  -17.7248   20.0144 O   0  0  0  0  0  0  0  0  0  0  0  0
  -26.9022  -26.6776   21.7173 O   0  0  0  0  0  0  0  0  0  0  0  0
  -28.1149  -30.1240   22.6374 O   0  0  0  0  0  0  0  0  0  0  0  0
  -23.7395  -31.6720   23.6277 O   0  0  0  0  0  0  0  0  0  0  0  0
  -23.4062  -23.8040   18.0450 O   0  0  0  0  0  0  0  0  0  0  0  0
  -25.6456  -12.0212   20.6538 O   0  0  0  0  0  0  0  0  0  0  0  0
  -20.8809  -27.4322   19.1328 O   0  0  0  0  0  0  0  0  0  1  0  0
  -21.4737  -10.2918   17.4902 F   0  0  0  0  0  0  0  0  0  0  0  0
  -25.9972   -9.9608   18.8444 F   0  0  0  0  0  0  0  0  0  0  0  0
  1  2  1  0  0  0  0
  1  5  2  0  0  0  0
  2  6  2  0  0  0  0
  3  8  2  0  0  0  0
  3 16  1  0  0  0  0
  4  9  1  0  0  0  0
  4 16  2  0  0  0  0
  5 18  1  0  0  0  0
  6 20  1  0  0  0  0
  7 10  2  0  0  0  0
  7 19  1  0  0  0  0
  8 22  1  0  0  0  0
  9 22  2  0  0  0  0
 10 23  1  0  0  0  0
 11 12  2  0  0  0  0
 11 24  1  0  0  0  0
 12 25  1  0  0  0  0
 13 21  1  0  0  0  0
 13 23  2  0  0  0  0
 14 25  2  0  0  0  0
 14 26  1  0  0  0  0
 15 28  1  0  0  0  0
 15 29  2  0  0  0  0
 16 27  1  0  0  0  0
 17 27  1  0  0  0  0
 17 30  2  0  0  0  0
 17 31  1  0  0  0  0
 18 20  2  0  0  0  0
 18 36  1  0  0  0  0
 19 21  2  0  0  0  0
 19 37  1  0  0  0  0
 20 45  1  0  0  0  0
 21 38  1  0  0  0  0
 22 80  1  0  0  0  0
 23 81  1  0  0  0  0
 24 26  2  0  0  0  0
 24 80  1  0  0  0  0
 25 82  1  0  0  0  0
 26 83  1  0  0  0  0
 27 63  2  0  0  0  0
 28 59  1  0  0  0  0
 28 64  2  0  0  0  0
 29 55  1  0  0  0  0
 29 65  1  0  0  0  0
 30 66  1  0  0  0  0
 30 69  1  0  0  0  0
 31 70  1  0  0  0  0
 31 75  2  0  0  0  0
 32 46  1  0  0  0  0
 32 71  1  0  0  0  0
 32 76  2  0  0  0  0
 33 60  1  0  0  0  0
 33 67  1  0  0  0  0
 33 77  2  0  0  0  0
 34 61  1  0  0  0  0
 34 72  1  0  0  0  0
 34 78  2  0  0  0  0
 35 68  1  0  0  0  0
 35 73  1  0  0  0  0
 35 79  2  0  0  0  0
 36 39  1  0  0  0  0
 37 46  1  0  0  0  0
 38 67  1  0  0  0  0
 39 41  1  0  0  0  0
 40 42  1  0  0  0  0
 40 43  1  0  0  0  0
 41 45  1  0  0  0  0
 42 47  1  0  0  0  0
 43 68  1  0  0  0  0
 44 47  1  0  0  0  0
 44 68  1  0  0  0  0
 45 71  1  0  0  0  0
 46 67  1  0  0  0  0
 47 66  1  0  0  0  0
 48 59  1  0  0  0  0
 49 61  1  0  0  0  0
 50 62  1  0  0  0  0
 51 62  1  0  0  0  0
 52 62  1  0  0  0  0
 53 65  1  0  0  0  0
 54 74  1  0  0  0  0
 55 56  1  0  0  0  0
 56 58  1  0  0  0  0
 57 59  1  0  0  0  0
 57 73  1  0  0  0  0
 58 81  1  0  0  0  0
 60 62  1  0  0  0  0
 60 72  1  0  0  0  0
 61 74  1  0  0  0  0
 63 66  1  0  0  0  0
 64 65  1  0  0  0  0
M  CHG  1  74   1
M  ISO  4  35 100  58 101  73 100  81 101
M  END
> <Batch ID>
0058

> <Smiles>
CNC(C)C(=O)NC(C(=O)N1Cc2cc([101O:1][101CH2:1]CCc3cc(C(C)C[100NH:0][100C:0](=O)N4CCCC(n5nc(-c6ccc(Oc7ccc(F)cc7F)cc6)c(C(N)=O)c5N)C4)nn3C)ccc2CC1C(=O)NC1CCCc2ccccc21)C(C)(C)C

> <Shape>
0.215

> <Color>
0.076

> <Negative vol penalty>
0.000

$$$$

  -OEChem-04052317503D

 87 95  0     1  0  0  0  0  0999 V2000
  -23.9540  -18.4798   25.4926 C   0  0  0  0  0  0  0  0  0  0  0  0
  -24.9418  -19.2267   24.8587 C   0  0  0  0  0  0  0  0  0  0  0  0
  -26.1470  -12.5202   21.7953 C   0  0  0  0  0  0  0  0  0  0  0  0
  -25.5239  -13.1806   19.5564 C   0  0  0  0  0  0  0  0  0  0  0  0
  -22.6099  -18.7277   25.2173 C   0  0  0  0  0  0  0  0  0  0  0  0
  -24.5861  -20.2212   23.9483 C   0  0  0  0  0  0  0  0  0  0  0  0
  -27.4629  -25.5437   22.9992 C   0  0  0  0  0  0  0  0  0  0  0  0
  -25.0335  -11.6824   21.8582 C   0  0  0  0  0  0  0  0  0  0  0  0
  -24.4104  -12.3427   19.6192 C   0  0  0  0  0  0  0  0  0  0  0  0
  -28.3830  -25.9538   22.0354 C   0  0  0  0  0  0  0  0  0  0  0  0
  -22.1561   -9.6423   22.7426 C   0  0  0  0  0  0  0  0  0  0  0  0
  -21.3880   -9.6683   23.9066 C   0  0  0  0  0  0  0  0  0  0  0  0
  -26.5871  -26.9005   20.7325 C   0  0  0  0  0  0  0  0  0  0  0  0
  -20.9403  -12.0168   23.5588 C   0  0  0  0  0  0  0  0  0  0  0  0
  -26.3921  -13.2693   20.6445 C   0  0  0  0  0  0  0  0  0  0  0  0
  -28.8313  -13.8034   20.1222 C   0  0  0  0  0  0  0  0  0  0  0  0
  -22.2372  -19.7322   24.3103 C   0  0  0  0  0  0  0  0  0  0  0  0
  -26.0944  -25.7998   22.8314 C   0  0  0  0  0  0  0  0  0  0  0  0
  -23.2357  -20.4817   23.6596 C   0  0  0  0  0  0  0  0  0  0  0  0
  -25.6519  -26.4949   21.6969 C   0  0  0  0  0  0  0  0  0  0  0  0
  -24.1653  -11.5937   20.7701 C   0  0  0  0  0  0  0  0  0  0  0  0
  -27.9449  -26.6297   20.9004 C   0  0  0  0  0  0  0  0  0  0  0  0
  -22.3165  -10.8037   21.9867 C   0  0  0  0  0  0  0  0  0  0  0  0
  -20.7800  -10.8555   24.3147 C   0  0  0  0  0  0  0  0  0  0  0  0
  -21.7085  -11.9909   22.3948 C   0  0  0  0  0  0  0  0  0  0  0  0
  -27.5419  -14.1353   20.5792 C   0  0  0  0  0  0  0  0  0  0  0  0
  -29.5542  -14.9628   20.2620 C   0  0  0  0  0  0  0  0  0  0  0  0
  -30.8903  -22.5770   17.0801 C   0  0  0  0  0  0  0  0  0  0  0  0
  -29.5312  -20.9999   17.6922 C   0  0  0  0  0  0  0  0  0  0  0  0
  -29.3310  -12.5583   19.6164 C   0  0  0  0  0  0  0  0  0  0  0  0
  -23.4932  -23.9954   22.5457 C   0  0  0  0  0  0  0  0  0  0  0  0
  -21.9697  -26.8567   22.6658 C   0  0  0  0  0  0  0  0  0  0  0  0
  -22.1054  -30.2335   22.1904 C   0  0  0  0  0  0  0  0  0  0  0  0
  -27.4893  -20.7226   20.5766 C   0  0  0  0  0  0  0  0  0  0  0  0
  -20.7728  -19.9316   24.0094 C   0  0  0  0  0  0  0  0  0  0  0  0
  -25.1176  -25.3744   23.8932 C   0  0  0  0  0  0  0  0  0  0  0  0
  -24.1958  -26.8124   21.4792 C   0  0  0  0  0  0  0  0  0  0  0  0
  -20.4688  -21.2559   23.3136 C   0  0  0  0  0  0  0  0  0  0  0  0
  -29.7838  -18.9536   22.8805 C   0  0  0  0  0  0  0  0  0  0  0  0
  -21.4477  -21.4943   22.1684 C   0  0  0  0  0  0  0  0  0  0  0  0
  -29.5174  -17.4852   22.5534 C   0  0  0  0  0  0  0  0  0  0  0  0
  -28.5612  -19.8255   22.6108 C   0  0  0  0  0  0  0  0  0  0  0  0
  -27.7569  -18.2295   20.9020 C   0  0  0  0  0  0  0  0  0  0  0  0
  -22.8888  -21.5858   22.6844 C   0  0  1  0  0  0  0  0  0  0  0  0
  -23.6909  -25.2352   23.3713 C   0  0  1  0  0  0  0  0  0  0  0  0
  -28.9837  -17.3308   21.1186 C   0  0  2  0  0  0  0  0  0  0  0  0
  -31.9916  -21.7006   20.0072 C   0  0  0  0  0  0  0  0  0  0  0  0
  -20.6915  -32.3016   22.3354 C   0  0  0  0  0  0  0  0  0  0  0  0
  -25.3522  -20.1598   18.4143 C   0  0  0  0  0  0  0  0  0  0  0  0
  -26.1075  -22.5563   18.5133 C   0  0  0  0  0  0  0  0  0  0  0  0
  -20.5707  -26.0795   20.0680 C   0  0  0  0  0  0  0  0  0  0  0  0
  -19.9380  -28.4836   19.7709 C   0  0  0  0  0  0  0  0  0  0  0  0
  -19.1013  -27.2104   21.7462 C   0  0  0  0  0  0  0  0  0  0  0  0
  -23.8760  -31.4410   24.2315 C   0  0  0  0  0  0  0  0  0  0  0  0
  -31.8788  -23.7128   17.1646 C   0  0  0  0  0  0  0  0  0  0  0  0
  -28.7577  -20.0925   18.5583 C   0  0  0  0  0  0  0  0  0  0  0  0
  -31.2550  -25.0950   16.9407 C   0  0  0  0  0  0  0  0  0  0  0  0
  -30.1127  -25.4019   17.9142 C   0  0  0  0  0  0  0  0  0  0  0  0
  -29.5422  -26.7987   17.6749 C   0  0  0  0  0  0  0  0  0  0  0  0
  -30.6496  -22.2544   19.5601 C   0  0  0  0  0  0  0  0  0  0  0  0
  -28.3785  -27.0978   18.6094 C   0  0  0  0  0  0  0  0  0  1  0  0
  -21.5369  -27.8811   21.6449 C   0  0  1  0  0  0  0  0  0  0  0  0
  -21.6668  -31.3925   23.0671 C   0  0  2  0  0  0  0  0  0  0  0  0
  -26.5310  -21.1138   18.2677 C   0  0  0  0  0  0  0  0  0  0  0  0
  -20.3140  -27.4061   20.8104 C   0  0  0  0  0  0  0  0  0  0  0  0
  -27.4480  -15.4061   20.9796 N   0  0  0  0  0  0  0  0  0  0  0  0
  -30.4005  -22.0327   15.9892 N   0  0  0  0  0  0  0  0  0  0  0  0
  -29.5358  -21.0292   16.3786 N   0  0  0  0  0  0  0  0  0  0  0  0
  -28.6877  -15.8828   20.7747 N   0  0  0  0  0  0  0  0  0  0  0  0
  -30.3701  -21.9576   18.1758 N   0  0  0  0  0  0  0  0  0  0  0  0
  -23.2789  -26.3701   22.5428 N   0  0  0  0  0  0  0  0  0  0  0  0
  -28.0487  -19.6271   21.2547 N   0  0  0  0  0  0  0  0  0  0  0  0
  -30.8403  -15.2749   19.9954 N   0  0  0  0  0  0  0  0  0  0  0  0
  -28.4537  -11.4680   19.5397 N   0  0  0  0  0  0  0  0  0  0  0  0
  -23.1310  -22.8823   23.2801 N   0  0  0  0  0  0  0  0  0  0  0  0
  -21.3131  -29.1211   22.3803 N   0  0  0  0  0  0  0  0  0  0  0  0
  -27.6103  -20.7393   19.1789 N   0  0  0  0  0  0  0  0  0  0  0  0
  -22.8460  -32.2044   23.4807 N   0  3  0  0  0  0  0  0  0  0  0  0
  -30.5244  -12.4123   19.2588 O   0  0  0  0  0  0  0  0  0  0  0  0
  -23.6557  -24.0454   21.3322 O   0  0  0  0  0  0  0  0  0  0  0  0
  -21.1779  -26.5066   23.5444 O   0  0  0  0  0  0  0  0  0  0  0  0
  -23.0536  -30.3086   21.4121 O   0  0  0  0  0  0  0  0  0  0  0  0
  -26.9230  -21.6386   21.1867 O   0  0  0  0  0  0  0  0  0  0  0  0
  -23.0788  -10.7761   20.8310 O   0  0  0  0  0  0  0  0  0  0  0  0
  -28.8408  -27.0306   19.9578 O   0  0  0  0  0  0  0  0  0  1  0  0
  -20.0411  -10.8799   25.4316 F   0  0  0  0  0  0  0  0  0  0  0  0
  -21.8579  -13.1095   21.6721 F   0  0  0  0  0  0  0  0  0  0  0  0
  1  2  1  0  0  0  0
  1  5  2  0  0  0  0
  2  6  2  0  0  0  0
  3  8  2  0  0  0  0
  3 15  1  0  0  0  0
  4  9  1  0  0  0  0
  4 15  2  0  0  0  0
  5 17  1  0  0  0  0
  6 19  1  0  0  0  0
  7 10  2  0  0  0  0
  7 18  1  0  0  0  0
  8 21  1  0  0  0  0
  9 21  2  0  0  0  0
 10 22  1  0  0  0  0
 11 12  2  0  0  0  0
 11 23  1  0  0  0  0
 12 24  1  0  0  0  0
 13 20  1  0  0  0  0
 13 22  2  0  0  0  0
 14 24  2  0  0  0  0
 14 25  1  0  0  0  0
 15 26  1  0  0  0  0
 16 26  1  0  0  0  0
 16 27  2  0  0  0  0
 16 30  1  0  0  0  0
 17 19  2  0  0  0  0
 17 35  1  0  0  0  0
 18 20  2  0  0  0  0
 18 36  1  0  0  0  0
 19 44  1  0  0  0  0
 20 37  1  0  0  0  0
 21 84  1  0  0  0  0
 22 85  1  0  0  0  0
 23 25  2  0  0  0  0
 23 84  1  0  0  0  0
 24 86  1  0  0  0  0
 25 87  1  0  0  0  0
 26 66  2  0  0  0  0
 27 69  1  0  0  0  0
 27 73  1  0  0  0  0
 28 55  1  0  0  0  0
 28 67  2  0  0  0  0
 28 70  1  0  0  0  0
 29 56  1  0  0  0  0
 29 68  2  0  0  0  0
 29 70  1  0  0  0  0
 30 74  1  0  0  0  0
 30 79  2  0  0  0  0
 31 45  1  0  0  0  0
 31 75  1  0  0  0  0
 31 80  2  0  0  0  0
 32 62  1  0  0  0  0
 32 71  1  0  0  0  0
 32 81  2  0  0  0  0
 33 63  1  0  0  0  0
 33 76  1  0  0  0  0
 33 82  2  0  0  0  0
 34 72  1  0  0  0  0
 34 77  1  0  0  0  0
 34 83  2  0  0  0  0
 35 38  1  0  0  0  0
 36 45  1  0  0  0  0
 37 71  1  0  0  0  0
 38 40  1  0  0  0  0
 39 41  1  0  0  0  0
 39 42  1  0  0  0  0
 40 44  1  0  0  0  0
 41 46  1  0  0  0  0
 42 72  1  0  0  0  0
 43 46  1  0  0  0  0
 43 72  1  0  0  0  0
 44 75  1  0  0  0  0
 45 71  1  0  0  0  0
 46 69  1  0  0  0  0
 47 60  1  0  0  0  0
 48 63  1  0  0  0  0
 49 64  1  0  0  0  0
 50 64  1  0  0  0  0
 51 65  1  0  0  0  0
 52 65  1  0  0  0  0
 53 65  1  0  0  0  0
 54 78  1  0  0  0  0
 55 57  1  0  0  0  0
 56 77  1  0  0  0  0
 57 58  1  0  0  0  0
 58 59  1  0  0  0  0
 59 61  1  0  0  0  0
 60 70  1  0  0  0  0
 61 85  1  0  0  0  0
 62 65  1  0  0  0  0
 62 76  1  0  0  0  0
 63 78  1  0  0  0  0
 64 77  1  0  0  0  0
 66 69  1  0  0  0  0
 67 68  1  0  0  0  0
M  CHG  1  78   1
M  ISO  4  34 100  61 101  77 100  85 101
M  END
> <Batch ID>
0058

> <Smiles>
CCn1c(CCCC[101CH2:1][101O:1]c2ccc3c(c2)CN(C(=O)C(NC(=O)C(C)NC)C(C)(C)C)C(C(=O)NC2CCCc4ccccc42)C3)nnc1C[100N:0](C(C)C)[100C:0](=O)N1CCCC(n2nc(-c3ccc(Oc4ccc(F)cc4F)cc3)c(C(N)=O)c2N)C1

> <Shape>
0.231

> <Color>
0.054

> <Negative vol penalty>
0.000

$$$$

  -OEChem-04052317503D

 83 91  0     1  0  0  0  0  0999 V2000
  -17.4862  -30.6064   24.4850 C   0  0  0  0  0  0  0  0  0  0  0  0
  -18.8693  -30.7062   24.5968 C   0  0  0  0  0  0  0  0  0  0  0  0
  -25.6372  -11.1883   22.2689 C   0  0  0  0  0  0  0  0  0  0  0  0
  -25.2227  -12.6002   24.1850 C   0  0  0  0  0  0  0  0  0  0  0  0
  -16.9219  -29.5939   23.7102 C   0  0  0  0  0  0  0  0  0  0  0  0
  -19.6889  -29.7928   23.9347 C   0  0  0  0  0  0  0  0  0  0  0  0
  -26.0681  -29.3330   20.7081 C   0  0  0  0  0  0  0  0  0  0  0  0
  -25.5844  -10.0607   23.0883 C   0  0  0  0  0  0  0  0  0  0  0  0
  -25.1699  -11.4727   25.0045 C   0  0  0  0  0  0  0  0  0  0  0  0
  -27.2308  -28.5639   20.7252 C   0  0  0  0  0  0  0  0  0  0  0  0
  -25.2000   -6.7849   24.6169 C   0  0  0  0  0  0  0  0  0  0  0  0
  -24.4670   -5.6880   24.1642 C   0  0  0  0  0  0  0  0  0  0  0  0
  -26.1463  -26.9045   19.3508 C   0  0  0  0  0  0  0  0  0  0  0  0
  -22.4730   -7.0504   24.0921 C   0  0  0  0  0  0  0  0  0  0  0  0
  -28.3169  -23.7786   22.8436 C   0  0  0  0  0  0  0  0  0  0  0  0
  -25.4564  -12.4580   22.8172 C   0  0  0  0  0  0  0  0  0  0  0  0
  -24.4392  -14.2315   21.2915 C   0  0  0  0  0  0  0  0  0  0  0  0
  -17.7352  -28.6736   23.0304 C   0  0  0  0  0  0  0  0  0  0  0  0
  -24.9303  -28.8877   20.0200 C   0  0  0  0  0  0  0  0  0  0  0  0
  -19.1349  -28.7663   23.1511 C   0  0  0  0  0  0  0  0  0  0  0  0
  -24.9712  -27.6710   19.3243 C   0  0  0  0  0  0  0  0  0  0  0  0
  -25.3508  -10.2029   24.4561 C   0  0  0  0  0  0  0  0  0  0  0  0
  -27.2691  -27.3481   20.0489 C   0  0  0  0  0  0  0  0  0  0  0  0
  -24.5696   -8.0146   24.8072 C   0  0  0  0  0  0  0  0  0  0  0  0
  -23.1034   -5.8207   23.9018 C   0  0  0  0  0  0  0  0  0  0  0  0
  -23.2061   -8.1473   24.5448 C   0  0  0  0  0  0  0  0  0  0  0  0
  -25.5114  -13.6232   21.9714 C   0  0  0  0  0  0  0  0  0  0  0  0
  -28.9144  -24.2443   21.7065 C   0  0  0  0  0  0  0  0  0  0  0  0
  -25.0086  -15.2938   20.6329 C   0  0  0  0  0  0  0  0  0  0  0  0
  -27.5746  -22.5756   21.1400 C   0  0  0  0  0  0  0  0  0  0  0  0
  -23.0524  -13.8687   21.2583 C   0  0  0  0  0  0  0  0  0  0  0  0
  -21.9583  -28.1293   20.8542 C   0  0  0  0  0  0  0  0  0  0  0  0
  -21.5393  -27.8718   17.6478 C   0  0  0  0  0  0  0  0  0  0  0  0
  -22.9331  -27.3519   14.5764 C   0  0  0  0  0  0  0  0  0  0  0  0
  -28.4498  -19.6865   20.5441 C   0  0  0  0  0  0  0  0  0  0  0  0
  -17.0784  -27.5676   22.2429 C   0  0  0  0  0  0  0  0  0  0  0  0
  -23.6925  -29.7417   19.9889 C   0  0  0  0  0  0  0  0  0  0  0  0
  -23.7832  -27.1578   18.5537 C   0  0  0  0  0  0  0  0  0  0  0  0
  -18.0243  -26.8674   21.2707 C   0  0  0  0  0  0  0  0  0  0  0  0
  -29.8682  -16.4865   19.8925 C   0  0  0  0  0  0  0  0  0  0  0  0
  -19.3456  -26.5357   21.9570 C   0  0  0  0  0  0  0  0  0  0  0  0
  -28.7756  -15.5071   20.3249 C   0  0  0  0  0  0  0  0  0  0  0  0
  -29.9215  -17.7108   20.8036 C   0  0  0  0  0  0  0  0  0  0  0  0
  -27.5451  -17.4394   21.3977 C   0  0  0  0  0  0  0  0  0  0  0  0
  -20.0577  -27.8095   22.4279 C   0  0  1  0  0  0  0  0  0  0  0  0
  -22.4261  -28.9475   19.6840 C   0  0  1  0  0  0  0  0  0  0  0  0
  -27.4156  -16.2150   20.4755 C   0  0  2  0  0  0  0  0  0  0  0  0
  -24.7423  -23.0506   19.9249 C   0  0  0  0  0  0  0  0  0  0  0  0
  -22.3324  -27.1600   12.1475 C   0  0  0  0  0  0  0  0  0  0  0  0
  -27.2279  -21.7061   18.8144 C   0  0  0  0  0  0  0  0  0  0  0  0
  -20.4480  -25.0656   18.1419 C   0  0  0  0  0  0  0  0  0  0  0  0
  -20.7626  -24.5896   15.7041 C   0  0  0  0  0  0  0  0  0  0  0  0
  -19.1922  -26.3868   16.4297 C   0  0  0  0  0  0  0  0  0  0  0  0
  -26.6645  -21.9674   23.3620 C   0  0  0  0  0  0  0  0  0  0  0  0
  -24.6168  -29.6771   13.8569 C   0  0  0  0  0  0  0  0  0  0  0  0
  -29.9107  -25.3568   21.4874 C   0  0  0  0  0  0  0  0  0  0  0  0
  -25.2813  -21.7038   20.4029 C   0  0  0  0  0  0  0  0  0  0  0  0
  -29.2339  -26.6968   21.2200 C   0  0  0  0  0  0  0  0  0  1  0  0
  -21.6841  -26.7603   16.6366 C   0  0  1  0  0  0  0  0  0  0  0  0
  -22.7786  -28.0943   13.2614 C   0  0  2  0  0  0  0  0  0  0  0  0
  -26.8490  -21.5702   20.3242 C   0  0  2  0  0  0  0  0  0  0  0  0
  -20.5436  -25.7091   16.7441 C   0  0  0  0  0  0  0  0  0  0  0  0
  -26.6740  -14.2471   21.7637 N   0  0  0  0  0  0  0  0  0  0  0  0
  -27.4929  -22.7468   22.4634 N   0  0  0  0  0  0  0  0  0  0  0  0
  -26.3356  -15.2584   20.9459 N   0  0  0  0  0  0  0  0  0  0  0  0
  -28.4371  -23.4816   20.6680 N   0  3  0  0  0  0  0  0  0  0  0  0
  -22.5942  -28.0260   18.5585 N   0  0  0  0  0  0  0  0  0  0  0  0
  -28.6007  -18.3367   20.9025 N   0  0  0  0  0  0  0  0  0  0  0  0
  -24.4987  -16.2453   19.8224 N   0  0  0  0  0  0  0  0  0  0  0  0
  -22.6369  -12.7494   21.9923 N   0  0  0  0  0  0  0  0  0  0  0  0
  -20.7002  -28.4710   21.3125 N   0  0  0  0  0  0  0  0  0  0  0  0
  -21.7808  -27.4057   15.3318 N   0  0  0  0  0  0  0  0  0  0  0  0
  -27.1639  -20.1998   20.6614 N   0  0  0  0  0  0  0  0  0  0  0  0
  -24.0727  -28.7166   12.8627 N   0  3  0  0  0  0  0  0  0  0  0  0
  -22.2098  -14.5083   20.5842 O   0  0  0  0  0  0  0  0  0  0  0  0
  -22.6842  -27.2519   21.3067 O   0  0  0  0  0  0  0  0  0  0  0  0
  -20.5308  -28.5818   17.6259 O   0  0  0  0  0  0  0  0  0  0  0  0
  -23.9709  -26.7782   14.8995 O   0  0  0  0  0  0  0  0  0  0  0  0
  -29.3902  -20.3810   20.1439 O   0  0  0  0  0  0  0  0  0  0  0  0
  -25.2990   -9.1029   25.2559 O   0  0  0  0  0  0  0  0  0  0  0  0
  -28.4026  -26.5951   20.0646 O   0  0  0  0  0  0  0  0  0  1  0  0
  -22.3999   -4.7677   23.4656 F   0  0  0  0  0  0  0  0  0  0  0  0
  -22.5952   -9.3264   24.7247 F   0  0  0  0  0  0  0  0  0  0  0  0
  1  2  1  0  0  0  0
  1  5  2  0  0  0  0
  2  6  2  0  0  0  0
  3  8  2  0  0  0  0
  3 16  1  0  0  0  0
  4  9  1  0  0  0  0
  4 16  2  0  0  0  0
  5 18  1  0  0  0  0
  6 20  1  0  0  0  0
  7 10  2  0  0  0  0
  7 19  1  0  0  0  0
  8 22  1  0  0  0  0
  9 22  2  0  0  0  0
 10 23  1  0  0  0  0
 11 12  2  0  0  0  0
 11 24  1  0  0  0  0
 12 25  1  0  0  0  0
 13 21  1  0  0  0  0
 13 23  2  0  0  0  0
 14 25  2  0  0  0  0
 14 26  1  0  0  0  0
 15 28  2  0  0  0  0
 15 64  1  0  0  0  0
 16 27  1  0  0  0  0
 17 27  1  0  0  0  0
 17 29  2  0  0  0  0
 17 31  1  0  0  0  0
 18 20  2  0  0  0  0
 18 36  1  0  0  0  0
 19 21  2  0  0  0  0
 19 37  1  0  0  0  0
 20 45  1  0  0  0  0
 21 38  1  0  0  0  0
 22 80  1  0  0  0  0
 23 81  1  0  0  0  0
 24 26  2  0  0  0  0
 24 80  1  0  0  0  0
 25 82  1  0  0  0  0
 26 83  1  0  0  0  0
 27 63  2  0  0  0  0
 28 56  1  0  0  0  0
 28 66  1  0  0  0  0
 29 65  1  0  0  0  0
 29 69  1  0  0  0  0
 30 61  1  0  0  0  0
 30 64  1  0  0  0  0
 30 66  2  0  0  0  0
 31 70  1  0  0  0  0
 31 75  2  0  0  0  0
 32 46  1  0  0  0  0
 32 71  1  0  0  0  0
 32 76  2  0  0  0  0
 33 59  1  0  0  0  0
 33 67  1  0  0  0  0
 33 77  2  0  0  0  0
 34 60  1  0  0  0  0
 34 72  1  0  0  0  0
 34 78  2  0  0  0  0
 35 68  1  0  0  0  0
 35 73  1  0  0  0  0
 35 79  2  0  0  0  0
 36 39  1  0  0  0  0
 37 46  1  0  0  0  0
 38 67  1  0  0  0  0
 39 41  1  0  0  0  0
 40 42  1  0  0  0  0
 40 43  1  0  0  0  0
 41 45  1  0  0  0  0
 42 47  1  0  0  0  0
 43 68  1  0  0  0  0
 44 47  1  0  0  0  0
 44 68  1  0  0  0  0
 45 71  1  0  0  0  0
 46 67  1  0  0  0  0
 47 65  1  0  0  0  0
 48 57  1  0  0  0  0
 49 60  1  0  0  0  0
 50 61  1  0  0  0  0
 51 62  1  0  0  0  0
 52 62  1  0  0  0  0
 53 62  1  0  0  0  0
 54 64  1  0  0  0  0
 55 74  1  0  0  0  0
 56 58  1  0  0  0  0
 57 61  1  0  0  0  0
 58 81  1  0  0  0  0
 59 62  1  0  0  0  0
 59 72  1  0  0  0  0
 60 74  1  0  0  0  0
 61 73  1  0  0  0  0
 63 65  1  0  0  0  0
M  CHG  2  66   1  74   1
M  ISO  4  35 100  58 101  73 100  81 101
M  END
> <Batch ID>
0058

> <Smiles>
CCC(C)([100NH:0][100C:0](=O)N1CCCC(n2nc(-c3ccc(Oc4ccc(F)cc4F)cc3)c(C(N)=O)c2N)C1)c1nc(C[101CH2:1][101O:1]c2ccc3c(c2)CN(C(=O)C(NC(=O)C(C)NC)C(C)(C)C)C(C(=O)NC2CCCc4ccccc42)C3)cn1C

> <Shape>
0.241

> <Color>
0.119

> <Negative vol penalty>
0.000

$$$$

  -OEChem-04052317503D

 80 88  0     1  0  0  0  0  0999 V2000
  -24.4664  -11.6317   20.2411 C   0  0  0  0  0  0  0  0  0  0  0  0
  -23.9096  -12.9039   20.1581 C   0  0  0  0  0  0  0  0  0  0  0  0
  -25.3873  -27.4982   19.4740 C   0  0  0  0  0  0  0  0  0  0  0  0
  -26.1599  -27.7472   21.7495 C   0  0  0  0  0  0  0  0  0  0  0  0
  -25.7272  -11.4596   20.8109 C   0  0  0  0  0  0  0  0  0  0  0  0
  -24.6129  -14.0047   20.6460 C   0  0  0  0  0  0  0  0  0  0  0  0
  -24.4854  -17.9518   17.4760 C   0  0  0  0  0  0  0  0  0  0  0  0
  -26.5098  -28.1888   19.0173 C   0  0  0  0  0  0  0  0  0  0  0  0
  -27.2824  -28.4378   21.2928 C   0  0  0  0  0  0  0  0  0  0  0  0
  -23.3189  -18.7151   17.4561 C   0  0  0  0  0  0  0  0  0  0  0  0
  -28.0235  -31.5589   20.2249 C   0  0  0  0  0  0  0  0  0  0  0  0
  -28.3866  -32.7242   20.9000 C   0  0  0  0  0  0  0  0  0  0  0  0
  -24.3768  -20.3579   18.8706 C   0  0  0  0  0  0  0  0  0  0  0  0
  -30.5320  -31.7482   21.4307 C   0  0  0  0  0  0  0  0  0  0  0  0
  -17.8059  -24.5436   19.7413 C   0  0  0  0  0  0  0  0  0  0  0  0
  -25.2123  -27.2775   20.8401 C   0  0  0  0  0  0  0  0  0  0  0  0
  -17.3440  -24.8050   21.0082 C   0  0  0  0  0  0  0  0  0  0  0  0
  -23.9292  -25.1758   21.5067 C   0  0  0  0  0  0  0  0  0  0  0  0
  -26.4504  -12.5600   21.2972 C   0  0  0  0  0  0  0  0  0  0  0  0
  -25.6047  -18.3813   18.2035 C   0  0  0  0  0  0  0  0  0  0  0  0
  -25.8840  -13.8470   21.2240 C   0  0  0  0  0  0  0  0  0  0  0  0
  -25.5572  -19.5996   18.8961 C   0  0  0  0  0  0  0  0  0  0  0  0
  -27.4574  -28.6586   19.9267 C   0  0  0  0  0  0  0  0  0  0  0  0
  -23.2635  -19.9169   18.1558 C   0  0  0  0  0  0  0  0  0  0  0  0
  -28.9147  -30.4882   20.1527 C   0  0  0  0  0  0  0  0  0  0  0  0
  -29.6408  -32.8189   21.5029 C   0  0  0  0  0  0  0  0  0  0  0  0
  -30.1689  -30.5829   20.7556 C   0  0  0  0  0  0  0  0  0  0  0  0
  -24.0526  -26.5646   21.3126 C   0  0  0  0  0  0  0  0  0  0  0  0
  -17.0586  -23.5362   21.5474 C   0  0  0  0  0  0  0  0  0  0  0  0
  -22.6447  -25.0056   21.9623 C   0  0  0  0  0  0  0  0  0  0  0  0
  -17.2035  -26.1368   21.6109 C   0  0  0  0  0  0  0  0  0  0  0  0
  -24.8897  -24.1328   21.2943 C   0  0  0  0  0  0  0  0  0  0  0  0
  -27.2594  -17.2299   20.6611 C   0  0  0  0  0  0  0  0  0  0  0  0
  -29.2093  -19.7426   20.0233 C   0  0  0  0  0  0  0  0  0  0  0  0
  -29.5790  -22.8505   18.6628 C   0  0  0  0  0  0  0  0  0  0  0  0
  -27.7896  -12.3185   21.9476 C   0  0  0  0  0  0  0  0  0  0  0  0
  -26.8645  -17.5596   18.1931 C   0  0  0  0  0  0  0  0  0  0  0  0
  -26.7382  -20.1150   19.6758 C   0  0  0  0  0  0  0  0  0  0  0  0
  -28.6292  -13.5841   22.1011 C   0  0  0  0  0  0  0  0  0  0  0  0
  -19.2162  -28.3797   23.5240 C   0  0  0  0  0  0  0  0  0  0  0  0
  -27.7829  -14.7212   22.6647 C   0  0  0  0  0  0  0  0  0  0  0  0
  -20.6449  -28.0088   23.1222 C   0  0  0  0  0  0  0  0  0  0  0  0
  -18.2492  -28.2511   22.3497 C   0  0  0  0  0  0  0  0  0  0  0  0
  -19.6957  -26.5573   21.2803 C   0  0  0  0  0  0  0  0  0  0  0  0
  -26.6265  -15.0690   21.7196 C   0  0  1  0  0  0  0  0  0  0  0  0
  -27.7712  -17.8408   19.3873 C   0  0  1  0  0  0  0  0  0  0  0  0
  -20.6933  -26.6246   22.4483 C   0  0  1  0  0  0  0  0  0  0  0  0
  -16.5348  -23.2211   22.8883 C   0  0  0  0  0  0  0  0  0  0  0  0
  -31.2799  -24.6651   18.3290 C   0  0  0  0  0  0  0  0  0  0  0  0
  -28.9183  -20.5506   22.9512 C   0  0  0  0  0  0  0  0  0  0  0  0
  -29.8143  -22.8084   22.3448 C   0  0  0  0  0  0  0  0  0  0  0  0
  -31.2323  -20.7803   22.0305 C   0  0  0  0  0  0  0  0  0  0  0  0
  -29.3717  -22.6626   15.7165 C   0  0  0  0  0  0  0  0  0  0  0  0
  -19.6939  -22.2274   18.2361 C   0  0  0  0  0  0  0  0  0  0  0  0
  -20.3454  -21.5820   19.4601 C   0  0  0  0  0  0  0  0  0  0  0  0
  -18.1779  -22.3997   18.3841 C   0  0  0  0  0  0  0  0  0  0  0  0
  -21.8539  -21.4595   19.2913 C   0  0  0  0  0  0  0  0  0  1  0  0
  -29.2808  -21.1816   20.4740 C   0  0  1  0  0  0  0  0  0  0  0  0
  -30.6332  -23.4243   17.7333 C   0  0  2  0  0  0  0  0  0  0  0  0
  -29.7884  -21.3199   21.9371 C   0  0  0  0  0  0  0  0  0  0  0  0
  -22.9356  -27.2295   21.6196 N   0  0  0  0  0  0  0  0  0  0  0  0
  -17.3172  -22.5427   20.6930 N   0  0  0  0  0  0  0  0  0  0  0  0
  -17.7701  -23.1870   19.6039 N   0  0  0  0  0  0  0  0  0  0  0  0
  -22.0980  -26.2542   22.0112 N   0  0  0  0  0  0  0  0  0  0  0  0
  -18.3491  -26.9257   21.7400 N   0  0  0  0  0  0  0  0  0  0  0  0
  -27.9451  -19.2726   19.6402 N   0  0  0  0  0  0  0  0  0  0  0  0
  -21.9407  -23.9113   22.3219 N   0  0  0  0  0  0  0  0  0  0  0  0
  -26.1625  -24.4825   20.8231 N   0  0  0  0  0  0  0  0  0  0  0  0
  -27.1047  -15.8579   20.6046 N   0  0  0  0  0  0  0  0  0  0  0  0
  -30.1013  -21.8776   19.4886 N   0  0  0  0  0  0  0  0  0  0  0  0
  -30.0237  -23.7942   16.4246 N   0  3  0  0  0  0  0  0  0  0  0  0
  -16.0708  -26.4533   21.9717 O   0  0  0  0  0  0  0  0  0  0  0  0
  -24.6218  -22.9247   21.5001 O   0  0  0  0  0  0  0  0  0  0  0  0
  -27.0238  -17.9498   21.6244 O   0  0  0  0  0  0  0  0  0  0  0  0
  -30.2384  -19.0628   20.0049 O   0  0  0  0  0  0  0  0  0  0  0  0
  -28.4101  -23.2303   18.6595 O   0  0  0  0  0  0  0  0  0  0  0  0
  -28.5530  -29.3323   19.4813 O   0  0  0  0  0  0  0  0  0  0  0  0
  -22.1258  -20.6635   18.1386 O   0  0  0  0  0  0  0  0  0  1  0  0
  -29.9900  -33.9386   22.1499 F   0  0  0  0  0  0  0  0  0  0  0  0
  -31.0298  -29.5581   20.6885 F   0  0  0  0  0  0  0  0  0  0  0  0
  1  2  1  0  0  0  0
  1  5  2  0  0  0  0
  2  6  2  0  0  0  0
  3  8  2  0  0  0  0
  3 16  1  0  0  0  0
  4  9  1  0  0  0  0
  4 16  2  0  0  0  0
  5 19  1  0  0  0  0
  6 21  1  0  0  0  0
  7 10  2  0  0  0  0
  7 20  1  0  0  0  0
  8 23  1  0  0  0  0
  9 23  2  0  0  0  0
 10 24  1  0  0  0  0
 11 12  2  0  0  0  0
 11 25  1  0  0  0  0
 12 26  1  0  0  0  0
 13 22  1  0  0  0  0
 13 24  2  0  0  0  0
 14 26  2  0  0  0  0
 14 27  1  0  0  0  0
 15 17  2  0  0  0  0
 15 63  1  0  0  0  0
 16 28  1  0  0  0  0
 17 29  1  0  0  0  0
 17 31  1  0  0  0  0
 18 28  1  0  0  0  0
 18 30  2  0  0  0  0
 18 32  1  0  0  0  0
 19 21  2  0  0  0  0
 19 36  1  0  0  0  0
 20 22  2  0  0  0  0
 20 37  1  0  0  0  0
 21 45  1  0  0  0  0
 22 38  1  0  0  0  0
 23 77  1  0  0  0  0
 24 78  1  0  0  0  0
 25 27  2  0  0  0  0
 25 77  1  0  0  0  0
 26 79  1  0  0  0  0
 27 80  1  0  0  0  0
 28 61  2  0  0  0  0
 29 48  1  0  0  0  0
 29 62  2  0  0  0  0
 30 64  1  0  0  0  0
 30 67  1  0  0  0  0
 31 65  1  0  0  0  0
 31 72  2  0  0  0  0
 32 68  1  0  0  0  0
 32 73  2  0  0  0  0
 33 46  1  0  0  0  0
 33 69  1  0  0  0  0
 33 74  2  0  0  0  0
 34 58  1  0  0  0  0
 34 66  1  0  0  0  0
 34 75  2  0  0  0  0
 35 59  1  0  0  0  0
 35 70  1  0  0  0  0
 35 76  2  0  0  0  0
 36 39  1  0  0  0  0
 37 46  1  0  0  0  0
 38 66  1  0  0  0  0
 39 41  1  0  0  0  0
 40 42  1  0  0  0  0
 40 43  1  0  0  0  0
 41 45  1  0  0  0  0
 42 47  1  0  0  0  0
 43 65  1  0  0  0  0
 44 47  1  0  0  0  0
 44 65  1  0  0  0  0
 45 69  1  0  0  0  0
 46 66  1  0  0  0  0
 47 64  1  0  0  0  0
 49 59  1  0  0  0  0
 50 60  1  0  0  0  0
 51 60  1  0  0  0  0
 52 60  1  0  0  0  0
 53 71  1  0  0  0  0
 54 55  1  0  0  0  0
 54 56  1  0  0  0  0
 55 57  1  0  0  0  0
 56 63  1  0  0  0  0
 57 78  1  0  0  0  0
 58 60  1  0  0  0  0
 58 70  1  0  0  0  0
 59 71  1  0  0  0  0
 61 64  1  0  0  0  0
 62 63  1  0  0  0  0
M  CHG  1  71   1
M  ISO  4  17 100  31 100  57 101  78 101
M  END
> <Batch ID>
0058

> <Smiles>
CNC(C)C(=O)NC(C(=O)N1Cc2cc([101O:1][101CH2:1]CCCn3c[100c:0]([100C:0](=O)N4CCCC(n5nc(-c6ccc(Oc7ccc(F)cc7F)cc6)c(C(N)=O)c5N)C4)c(C)n3)ccc2CC1C(=O)NC1CCCc2ccccc21)C(C)(C)C

> <Shape>
0.192

> <Color>
0.072

> <Negative vol penalty>
0.000

$$$$

  -OEChem-04052317503D

 87 96  0     1  0  0  0  0  0999 V2000
  -20.9920  -10.7709   16.8328 C   0  0  0  0  0  0  0  0  0  0  0  0
  -21.2906  -12.1271   16.7480 C   0  0  0  0  0  0  0  0  0  0  0  0
  -25.4514  -29.8882   19.9029 C   0  0  0  0  0  0  0  0  0  0  0  0
  -25.3409  -29.0538   22.1676 C   0  0  0  0  0  0  0  0  0  0  0  0
  -21.4753  -10.0175   17.9018 C   0  0  0  0  0  0  0  0  0  0  0  0
  -22.0718  -12.7308   17.7327 C   0  0  0  0  0  0  0  0  0  0  0  0
  -25.6247  -15.7766   15.7977 C   0  0  0  0  0  0  0  0  0  0  0  0
  -24.0715  -30.0912   19.9103 C   0  0  0  0  0  0  0  0  0  0  0  0
  -23.9609  -29.2568   22.1750 C   0  0  0  0  0  0  0  0  0  0  0  0
  -25.2151  -17.0357   15.3610 C   0  0  0  0  0  0  0  0  0  0  0  0
  -21.2067  -27.6957   20.9884 C   0  0  0  0  0  0  0  0  0  0  0  0
  -20.4048  -26.6779   21.5047 C   0  0  0  0  0  0  0  0  0  0  0  0
  -26.0273  -18.0057   17.4149 C   0  0  0  0  0  0  0  0  0  0  0  0
  -19.5560  -28.1970   23.1808 C   0  0  0  0  0  0  0  0  0  0  0  0
  -26.7355  -24.1749   21.8266 C   0  0  0  0  0  0  0  0  0  0  0  0
  -28.0410  -22.8110   20.6994 C   0  0  0  0  0  0  0  0  0  0  0  0
  -26.0862  -29.3695   21.0315 C   0  0  0  0  0  0  0  0  0  0  0  0
  -28.5081  -30.0752   21.4107 C   0  0  0  0  0  0  0  0  0  0  0  0
  -22.2708  -10.6101   18.8950 C   0  0  0  0  0  0  0  0  0  0  0  0
  -26.2299  -15.6208   17.0530 C   0  0  0  0  0  0  0  0  0  0  0  0
  -22.5651  -11.9848   18.8166 C   0  0  0  0  0  0  0  0  0  0  0  0
  -26.4460  -16.7439   17.8641 C   0  0  0  0  0  0  0  0  0  0  0  0
  -26.7678  -23.3262   20.7039 C   0  0  0  0  0  0  0  0  0  0  0  0
  -23.3262  -29.7755   21.0464 C   0  0  0  0  0  0  0  0  0  0  0  0
  -25.4137  -18.1500   16.1708 C   0  0  0  0  0  0  0  0  0  0  0  0
  -21.1834  -28.9641   21.5683 C   0  0  0  0  0  0  0  0  0  0  0  0
  -19.5794  -26.9286   22.6008 C   0  0  0  0  0  0  0  0  0  0  0  0
  -20.3581  -29.2148   22.6645 C   0  0  0  0  0  0  0  0  0  0  0  0
  -27.5116  -29.1590   21.0243 C   0  0  0  0  0  0  0  0  0  0  0  0
  -29.6885  -29.3992   21.2201 C   0  0  0  0  0  0  0  0  0  0  0  0
  -28.3784  -31.4172   21.8984 C   0  0  0  0  0  0  0  0  0  0  0  0
  -25.5045  -14.0369   19.7118 C   0  0  0  0  0  0  0  0  0  0  0  0
  -28.4419  -15.0445   20.6493 C   0  0  0  0  0  0  0  0  0  0  0  0
  -30.9757  -23.5309   21.0887 C   0  0  0  0  0  0  0  0  0  0  0  0
  -30.9685  -17.3145   20.3176 C   0  0  0  0  0  0  0  0  0  0  0  0
  -22.7310   -9.7653   20.0565 C   0  0  0  0  0  0  0  0  0  0  0  0
  -26.6903  -14.2598   17.4982 C   0  0  0  0  0  0  0  0  0  0  0  0
  -27.1095  -16.6331   19.2117 C   0  0  0  0  0  0  0  0  0  0  0  0
  -23.8639  -10.3992   20.8596 C   0  0  0  0  0  0  0  0  0  0  0  0
  -31.6557  -25.9636   18.5471 C   0  0  0  0  0  0  0  0  0  0  0  0
  -23.5568  -11.8648   21.1507 C   0  0  0  0  0  0  0  0  0  0  0  0
  -30.7397  -27.1308   18.9131 C   0  0  0  0  0  0  0  0  0  0  0  0
  -26.0629  -23.4881   18.3217 C   0  0  0  0  0  0  0  0  0  0  0  0
  -25.2912  -21.5581   19.7593 C   0  0  0  0  0  0  0  0  0  0  0  0
  -31.0061  -24.6216   18.8697 C   0  0  0  0  0  0  0  0  0  0  0  0
  -29.6432  -25.6546   20.6578 C   0  0  0  0  0  0  0  0  0  0  0  0
  -24.9662  -23.1642   17.3153 C   0  0  0  0  0  0  0  0  0  0  0  0
  -24.2002  -21.2493   18.7420 C   0  0  0  0  0  0  0  0  0  0  0  0
  -25.6732  -23.0470   19.7418 C   0  0  0  0  0  0  0  0  0  0  0  0
  -23.4300  -12.6703   19.8520 C   0  0  1  0  0  0  0  0  0  0  0  0
  -26.8304  -14.1422   19.0127 C   0  0  1  0  0  0  0  0  0  0  0  0
  -30.2738  -27.0300   20.3764 C   0  0  2  0  0  0  0  0  0  0  0  0
  -33.2250  -17.9002   21.2463 C   0  0  0  0  0  0  0  0  0  0  0  0
  -22.7235  -19.3032   15.0000 C   0  0  0  0  0  0  0  0  0  0  0  0
  -30.2315  -21.6202   22.4736 C   0  0  0  0  0  0  0  0  0  0  0  0
  -30.4751  -23.9088   23.4367 C   0  0  0  0  0  0  0  0  0  0  0  0
  -27.1141  -16.1914   23.1456 C   0  0  0  0  0  0  0  0  0  0  0  0
  -29.1815  -17.5481   23.5372 C   0  0  0  0  0  0  0  0  0  0  0  0
  -29.3044  -15.0566   23.5569 C   0  0  0  0  0  0  0  0  0  0  0  0
  -32.2742  -16.9515   17.6866 C   0  0  0  0  0  0  0  0  0  0  0  0
  -23.6673  -21.2896   16.3067 C   0  0  0  0  0  0  0  0  0  0  0  0
  -28.9774  -16.2641   21.3598 C   0  0  1  0  0  0  0  0  0  0  0  0
  -32.4689  -17.1373   20.1698 C   0  0  2  0  0  0  0  0  0  0  0  0
  -23.6857  -19.7815   16.0795 C   0  0  2  0  0  0  0  0  0  1  0  0
  -30.0313  -23.1197   22.1901 C   0  0  0  0  0  0  0  0  0  0  0  0
  -28.6300  -16.2672   22.8754 C   0  0  0  0  0  0  0  0  0  0  0  0
  -27.8959  -24.2001   22.4875 N   0  0  0  0  0  0  0  0  0  0  0  0
  -28.0150  -27.9902   20.6187 N   0  0  0  0  0  0  0  0  0  0  0  0
  -28.6693  -23.3608   21.7779 N   0  0  0  0  0  0  0  0  0  0  0  0
  -29.3408  -28.1674   20.7492 N   0  0  0  0  0  0  0  0  0  0  0  0
  -27.5363  -15.2801   19.6052 N   0  0  0  0  0  0  0  0  0  0  0  0
  -30.5571  -24.5740   20.2624 N   0  0  0  0  0  0  0  0  0  0  0  0
  -30.9795  -29.7444   21.4111 N   0  0  0  0  0  0  0  0  0  0  0  0
  -27.0923  -31.9575   22.0339 N   0  0  0  0  0  0  0  0  0  0  0  0
  -24.7390  -12.9600   19.3071 N   0  0  0  0  0  0  0  0  0  0  0  0
  -30.4074  -16.3078   21.0744 N   0  0  0  0  0  0  0  0  0  0  0  0
  -24.6405  -21.6828   17.3560 N   0  3  0  0  0  0  0  0  0  0  0  0
  -32.9202  -17.6319   18.8384 N   0  3  0  0  0  0  0  0  0  0  0  0
  -29.3743  -32.1223   22.1893 O   0  0  0  0  0  0  0  0  0  0  0  0
  -25.1992  -14.8702   20.5569 O   0  0  0  0  0  0  0  0  0  0  0  0
  -28.8189  -13.9245   21.0028 O   0  0  0  0  0  0  0  0  0  0  0  0
  -32.0541  -22.9433   20.9698 O   0  0  0  0  0  0  0  0  0  0  0  0
  -30.3561  -18.2543   19.8152 O   0  0  0  0  0  0  0  0  0  0  0  0
  -21.9796  -29.9737   21.0541 O   0  0  0  0  0  0  0  0  0  0  0  0
  -25.0142  -19.3800   15.7473 O   0  0  0  0  0  0  0  0  0  1  0  0
  -18.8081  -25.9515   23.0956 F   0  0  0  0  0  0  0  0  0  0  0  0
  -20.3305  -30.4316   23.2251 F   0  0  0  0  0  0  0  0  0  0  0  0
  1  2  1  0  0  0  0
  1  5  2  0  0  0  0
  2  6  2  0  0  0  0
  3  8  2  0  0  0  0
  3 17  1  0  0  0  0
  4  9  1  0  0  0  0
  4 17  2  0  0  0  0
  5 19  1  0  0  0  0
  6 21  1  0  0  0  0
  7 10  2  0  0  0  0
  7 20  1  0  0  0  0
  8 24  1  0  0  0  0
  9 24  2  0  0  0  0
 10 25  1  0  0  0  0
 11 12  2  0  0  0  0
 11 26  1  0  0  0  0
 12 27  1  0  0  0  0
 13 22  1  0  0  0  0
 13 25  2  0  0  0  0
 14 27  2  0  0  0  0
 14 28  1  0  0  0  0
 15 23  1  0  0  0  0
 15 67  2  0  0  0  0
 16 23  2  0  0  0  0
 16 69  1  0  0  0  0
 17 29  1  0  0  0  0
 18 29  1  0  0  0  0
 18 30  2  0  0  0  0
 18 31  1  0  0  0  0
 19 21  2  0  0  0  0
 19 36  1  0  0  0  0
 20 22  2  0  0  0  0
 20 37  1  0  0  0  0
 21 50  1  0  0  0  0
 22 38  1  0  0  0  0
 23 49  1  0  0  0  0
 24 84  1  0  0  0  0
 25 85  1  0  0  0  0
 26 28  2  0  0  0  0
 26 84  1  0  0  0  0
 27 86  1  0  0  0  0
 28 87  1  0  0  0  0
 29 68  2  0  0  0  0
 30 70  1  0  0  0  0
 30 73  1  0  0  0  0
 31 74  1  0  0  0  0
 31 79  2  0  0  0  0
 32 51  1  0  0  0  0
 32 75  1  0  0  0  0
 32 80  2  0  0  0  0
 33 62  1  0  0  0  0
 33 71  1  0  0  0  0
 33 81  2  0  0  0  0
 34 65  1  0  0  0  0
 34 72  1  0  0  0  0
 34 82  2  0  0  0  0
 35 63  1  0  0  0  0
 35 76  1  0  0  0  0
 35 83  2  0  0  0  0
 36 39  1  0  0  0  0
 37 51  1  0  0  0  0
 38 71  1  0  0  0  0
 39 41  1  0  0  0  0
 40 42  1  0  0  0  0
 40 45  1  0  0  0  0
 41 50  1  0  0  0  0
 42 52  1  0  0  0  0
 43 47  1  0  0  0  0
 43 49  1  0  0  0  0
 44 48  1  0  0  0  0
 44 49  1  0  0  0  0
 45 72  1  0  0  0  0
 46 52  1  0  0  0  0
 46 72  1  0  0  0  0
 47 77  1  0  0  0  0
 48 77  1  0  0  0  0
 50 75  1  0  0  0  0
 51 71  1  0  0  0  0
 52 70  1  0  0  0  0
 53 63  1  0  0  0  0
 54 64  1  0  0  0  0
 55 65  1  0  0  0  0
 56 65  1  0  0  0  0
 57 66  1  0  0  0  0
 58 66  1  0  0  0  0
 59 66  1  0  0  0  0
 60 78  1  0  0  0  0
 61 64  1  0  0  0  0
 61 77  1  0  0  0  0
 62 66  1  0  0  0  0
 62 76  1  0  0  0  0
 63 78  1  0  0  0  0
 64 85  1  0  0  0  0
 65 69  1  0  0  0  0
 67 69  1  0  0  0  0
 68 70  1  0  0  0  0
M  CHG  2  77   1  78   1
M  ISO  4  34 100  64 101  65 100  85 101
M  END
> <Batch ID>
0058

> <Smiles>
CNC(C)C(=O)NC(C(=O)N1Cc2cc([101O:1][101CH:1](C)CN3CCC(c4cnn([100C:0](C)(C)[100C:0](=O)N5CCCC(n6nc(-c7ccc(Oc8ccc(F)cc8F)cc7)c(C(N)=O)c6N)C5)c4)CC3)ccc2CC1C(=O)NC1CCCc2ccccc21)C(C)(C)C

> <Shape>
0.231

> <Color>
0.049

> <Negative vol penalty>
0.000

$$$$

  -OEChem-04052317503D

 82 90  0     1  0  0  0  0  0999 V2000
  -20.3708  -30.8582   22.7119 C   0  0  0  0  0  0  0  0  0  0  0  0
  -21.6373  -30.2942   22.5968 C   0  0  0  0  0  0  0  0  0  0  0  0
  -27.2074  -18.0726   19.9498 C   0  0  0  0  0  0  0  0  0  0  0  0
  -28.9144  -17.7270   21.6243 C   0  0  0  0  0  0  0  0  0  0  0  0
  -19.2439  -30.0377   22.7438 C   0  0  0  0  0  0  0  0  0  0  0  0
  -21.7778  -28.9093   22.5146 C   0  0  0  0  0  0  0  0  0  0  0  0
  -25.0513  -27.4987   18.9175 C   0  0  0  0  0  0  0  0  0  0  0  0
  -26.9952  -16.6957   19.8819 C   0  0  0  0  0  0  0  0  0  0  0  0
  -28.7021  -16.3500   21.5564 C   0  0  0  0  0  0  0  0  0  0  0  0
  -26.4092  -27.6117   19.2126 C   0  0  0  0  0  0  0  0  0  0  0  0
  -25.3831  -14.3319   21.6838 C   0  0  0  0  0  0  0  0  0  0  0  0
  -24.0639  -13.8789   21.6772 C   0  0  0  0  0  0  0  0  0  0  0  0
  -26.4943  -25.2502   19.6974 C   0  0  0  0  0  0  0  0  0  0  0  0
  -24.4301  -12.8437   19.5251 C   0  0  0  0  0  0  0  0  0  0  0  0
  -31.0958  -27.6595   21.3747 C   0  0  0  0  0  0  0  0  0  0  0  0
  -31.5653  -27.8243   19.2328 C   0  0  0  0  0  0  0  0  0  0  0  0
  -28.1671  -18.5883   20.8210 C   0  0  0  0  0  0  0  0  0  0  0  0
  -27.7414  -20.9298   21.7395 C   0  0  0  0  0  0  0  0  0  0  0  0
  -19.3700  -28.6426   22.6523 C   0  0  0  0  0  0  0  0  0  0  0  0
  -24.4011  -26.2606   19.0209 C   0  0  0  0  0  0  0  0  0  0  0  0
  -20.6517  -28.0694   22.5467 C   0  0  0  0  0  0  0  0  0  0  0  0
  -25.1286  -25.1236   19.4006 C   0  0  0  0  0  0  0  0  0  0  0  0
  -30.5043  -27.7971   20.1046 C   0  0  0  0  0  0  0  0  0  0  0  0
  -27.7425  -15.8344   20.6852 C   0  0  0  0  0  0  0  0  0  0  0  0
  -27.1303  -26.4879   19.6054 C   0  0  0  0  0  0  0  0  0  0  0  0
  -26.2258  -14.0409   20.6110 C   0  0  0  0  0  0  0  0  0  0  0  0
  -23.5874  -13.1348   20.5979 C   0  0  0  0  0  0  0  0  0  0  0  0
  -25.7494  -13.2968   19.5317 C   0  0  0  0  0  0  0  0  0  0  0  0
  -28.3872  -20.0105   20.8912 C   0  0  0  0  0  0  0  0  0  0  0  0
  -28.3010  -22.1429   21.4207 C   0  0  0  0  0  0  0  0  0  0  0  0
  -26.7265  -20.7071   22.7275 C   0  0  0  0  0  0  0  0  0  0  0  0
  -22.0092  -25.1228   20.7782 C   0  0  0  0  0  0  0  0  0  0  0  0
  -22.3830  -22.5098   18.8929 C   0  0  0  0  0  0  0  0  0  0  0  0
  -24.4236  -20.6572   16.8802 C   0  0  0  0  0  0  0  0  0  0  0  0
  -33.1733  -24.5023   20.0305 C   0  0  0  0  0  0  0  0  0  0  0  0
  -18.1262  -27.7941   22.7387 C   0  0  0  0  0  0  0  0  0  0  0  0
  -22.9419  -26.1502   18.6733 C   0  0  0  0  0  0  0  0  0  0  0  0
  -24.4820  -23.7675   19.5074 C   0  0  0  0  0  0  0  0  0  0  0  0
  -18.3355  -26.3567   22.2692 C   0  0  0  0  0  0  0  0  0  0  0  0
  -30.7382  -23.9550   17.5318 C   0  0  0  0  0  0  0  0  0  0  0  0
  -19.6100  -25.7775   22.8751 C   0  0  0  0  0  0  0  0  0  0  0  0
  -29.8124  -22.9565   18.2251 C   0  0  0  0  0  0  0  0  0  0  0  0
  -32.2122  -23.6759   17.8316 C   0  0  0  0  0  0  0  0  0  0  0  0
  -31.5972  -22.5932   19.9699 C   0  0  0  0  0  0  0  0  0  0  0  0
  -20.8433  -26.5728   22.4302 C   0  0  1  0  0  0  0  0  0  0  0  0
  -22.2661  -24.9393   19.3092 C   0  0  1  0  0  0  0  0  0  0  0  0
  -30.1079  -22.8878   19.7334 C   0  0  2  0  0  0  0  0  0  0  0  0
  -24.4594  -18.5534   15.5127 C   0  0  0  0  0  0  0  0  0  0  0  0
  -22.6269  -20.8571   21.4461 C   0  0  0  0  0  0  0  0  0  0  0  0
  -23.5888  -19.0003   20.0695 C   0  0  0  0  0  0  0  0  0  0  0  0
  -21.2625  -19.7925   19.6408 C   0  0  0  0  0  0  0  0  0  0  0  0
  -34.1842  -27.8115   17.9971 C   0  0  0  0  0  0  0  0  0  0  0  0
  -34.8041  -28.8891   20.1443 C   0  0  0  0  0  0  0  0  0  0  0  0
  -34.9896  -24.6171   18.2719 C   0  0  0  0  0  0  0  0  0  0  0  0
  -24.9576  -22.1520   14.3824 C   0  0  0  0  0  0  0  0  0  0  0  0
  -29.0436  -27.8903   19.7745 C   0  0  0  0  0  0  0  0  0  1  0  0
  -34.7680  -26.3819   19.9814 C   0  0  0  0  0  0  0  0  0  0  0  0
  -23.2133  -21.2509   18.9628 C   0  0  1  0  0  0  0  0  0  0  0  0
  -24.2032  -20.0524   15.5054 C   0  0  2  0  0  0  0  0  0  0  0  0
  -22.6849  -20.2510   20.0298 C   0  0  0  0  0  0  0  0  0  0  0  0
  -34.0488  -27.6838   19.5343 C   0  0  0  0  0  0  0  0  0  0  0  0
  -32.4291  -27.6031   21.3191 N   0  0  0  0  0  0  0  0  0  0  0  0
  -29.2880  -20.5900   20.0932 N   0  0  0  0  0  0  0  0  0  0  0  0
  -32.6842  -27.7057   20.0036 N   0  0  0  0  0  0  0  0  0  0  0  0
  -29.2122  -21.8865   20.4387 N   0  0  0  0  0  0  0  0  0  0  0  0
  -23.0516  -23.7121   19.1631 N   0  0  0  0  0  0  0  0  0  0  0  0
  -32.4414  -23.5710   19.2791 N   0  0  0  0  0  0  0  0  0  0  0  0
  -28.0976  -23.3933   21.8872 N   0  0  0  0  0  0  0  0  0  0  0  0
  -26.2644  -19.3991   22.9275 N   0  0  0  0  0  0  0  0  0  0  0  0
  -21.2158  -26.2135   21.0786 N   0  0  0  0  0  0  0  0  0  0  0  0
  -23.2534  -20.7126   17.6074 N   0  0  0  0  0  0  0  0  0  0  0  0
  -34.2151  -25.1778   19.3773 N   0  0  0  0  0  0  0  0  0  0  0  0
  -25.1177  -20.6807   14.5105 N   0  3  0  0  0  0  0  0  0  0  0  0
  -26.2320  -21.6426   23.4011 O   0  0  0  0  0  0  0  0  0  0  0  0
  -22.4938  -24.3325   21.5797 O   0  0  0  0  0  0  0  0  0  0  0  0
  -21.1869  -22.4299   18.6019 O   0  0  0  0  0  0  0  0  0  0  0  0
  -25.5245  -21.0387   17.2714 O   0  0  0  0  0  0  0  0  0  0  0  0
  -32.9161  -24.7140   21.2226 O   0  0  0  0  0  0  0  0  0  0  0  0
  -27.5355  -14.4907   20.6194 O   0  0  0  0  0  0  0  0  0  0  0  0
  -28.4557  -26.5956   19.8945 O   0  0  0  0  0  0  0  0  0  1  0  0
  -22.3210  -12.6985   20.5924 F   0  0  0  0  0  0  0  0  0  0  0  0
  -26.5546  -13.0131   18.4988 F   0  0  0  0  0  0  0  0  0  0  0  0
  1  2  1  0  0  0  0
  1  5  2  0  0  0  0
  2  6  2  0  0  0  0
  3  8  2  0  0  0  0
  3 17  1  0  0  0  0
  4  9  1  0  0  0  0
  4 17  2  0  0  0  0
  5 19  1  0  0  0  0
  6 21  1  0  0  0  0
  7 10  2  0  0  0  0
  7 20  1  0  0  0  0
  8 24  1  0  0  0  0
  9 24  2  0  0  0  0
 10 25  1  0  0  0  0
 11 12  2  0  0  0  0
 11 26  1  0  0  0  0
 12 27  1  0  0  0  0
 13 22  1  0  0  0  0
 13 25  2  0  0  0  0
 14 27  2  0  0  0  0
 14 28  1  0  0  0  0
 15 23  1  0  0  0  0
 15 62  2  0  0  0  0
 16 23  2  0  0  0  0
 16 64  1  0  0  0  0
 17 29  1  0  0  0  0
 18 29  1  0  0  0  0
 18 30  2  0  0  0  0
 18 31  1  0  0  0  0
 19 21  2  0  0  0  0
 19 36  1  0  0  0  0
 20 22  2  0  0  0  0
 20 37  1  0  0  0  0
 21 45  1  0  0  0  0
 22 38  1  0  0  0  0
 23 56  1  0  0  0  0
 24 79  1  0  0  0  0
 25 80  1  0  0  0  0
 26 28  2  0  0  0  0
 26 79  1  0  0  0  0
 27 81  1  0  0  0  0
 28 82  1  0  0  0  0
 29 63  2  0  0  0  0
 30 65  1  0  0  0  0
 30 68  1  0  0  0  0
 31 69  1  0  0  0  0
 31 74  2  0  0  0  0
 32 46  1  0  0  0  0
 32 70  1  0  0  0  0
 32 75  2  0  0  0  0
 33 58  1  0  0  0  0
 33 66  1  0  0  0  0
 33 76  2  0  0  0  0
 34 59  1  0  0  0  0
 34 71  1  0  0  0  0
 34 77  2  0  0  0  0
 35 67  1  0  0  0  0
 35 72  1  0  0  0  0
 35 78  2  0  0  0  0
 36 39  1  0  0  0  0
 37 46  1  0  0  0  0
 38 66  1  0  0  0  0
 39 41  1  0  0  0  0
 40 42  1  0  0  0  0
 40 43  1  0  0  0  0
 41 45  1  0  0  0  0
 42 47  1  0  0  0  0
 43 67  1  0  0  0  0
 44 47  1  0  0  0  0
 44 67  1  0  0  0  0
 45 70  1  0  0  0  0
 46 66  1  0  0  0  0
 47 65  1  0  0  0  0
 48 59  1  0  0  0  0
 49 60  1  0  0  0  0
 50 60  1  0  0  0  0
 51 60  1  0  0  0  0
 52 61  1  0  0  0  0
 53 61  1  0  0  0  0
 54 72  1  0  0  0  0
 55 73  1  0  0  0  0
 56 80  1  0  0  0  0
 57 61  1  0  0  0  0
 57 72  1  0  0  0  0
 58 60  1  0  0  0  0
 58 71  1  0  0  0  0
 59 73  1  0  0  0  0
 61 64  1  0  0  0  0
 62 64  1  0  0  0  0
 63 65  1  0  0  0  0
M  CHG  1  73   1
M  ISO  4  35 100  56 101  72 100  80 101
M  END
> <Batch ID>
0058

> <Smiles>
CNC(C)C(=O)NC(C(=O)N1Cc2cc([101O:1][101CH2:1]c3cnn(C(C)(C)C[100N:0](C)[100C:0](=O)N4CCCC(n5nc(-c6ccc(Oc7ccc(F)cc7F)cc6)c(C(N)=O)c5N)C4)c3)ccc2CC1C(=O)NC1CCCc2ccccc21)C(C)(C)C

> <Shape>
0.213

> <Color>
0.060

> <Negative vol penalty>
0.000

$$$$

  -OEChem-04052317503D

 81 89  0     1  0  0  0  0  0999 V2000
  -15.3205  -26.7259   24.3905 C   0  0  0  0  0  0  0  0  0  0  0  0
  -16.2553  -26.1688   23.5238 C   0  0  0  0  0  0  0  0  0  0  0  0
  -27.8172  -14.3568   22.0738 C   0  0  0  0  0  0  0  0  0  0  0  0
  -28.4703  -14.1097   19.7609 C   0  0  0  0  0  0  0  0  0  0  0  0
  -15.3899  -28.0809   24.7114 C   0  0  0  0  0  0  0  0  0  0  0  0
  -17.2596  -26.9667   22.9767 C   0  0  0  0  0  0  0  0  0  0  0  0
  -21.8072  -24.7441   23.1313 C   0  0  0  0  0  0  0  0  0  0  0  0
  -26.9362  -13.2838   21.9397 C   0  0  0  0  0  0  0  0  0  0  0  0
  -27.5893  -13.0366   19.6268 C   0  0  0  0  0  0  0  0  0  0  0  0
  -22.0713  -23.7670   22.1726 C   0  0  0  0  0  0  0  0  0  0  0  0
  -23.8555  -12.7356   20.6619 C   0  0  0  0  0  0  0  0  0  0  0  0
  -22.5753  -12.8783   21.1970 C   0  0  0  0  0  0  0  0  0  0  0  0
  -23.3140  -25.3802   20.8794 C   0  0  0  0  0  0  0  0  0  0  0  0
  -22.9681  -10.9823   22.6421 C   0  0  0  0  0  0  0  0  0  0  0  0
  -26.8757  -18.4515   17.5220 C   0  0  0  0  0  0  0  0  0  0  0  0
  -28.5842  -14.7699   20.9843 C   0  0  0  0  0  0  0  0  0  0  0  0
  -30.8464  -15.8256   21.5094 C   0  0  0  0  0  0  0  0  0  0  0  0
  -16.4013  -28.8937   24.1756 C   0  0  0  0  0  0  0  0  0  0  0  0
  -22.2862  -26.0517   22.9657 C   0  0  0  0  0  0  0  0  0  0  0  0
  -17.3418  -28.3341   23.2898 C   0  0  0  0  0  0  0  0  0  0  0  0
  -23.0568  -26.3715   21.8387 C   0  0  0  0  0  0  0  0  0  0  0  0
  -26.8223  -12.6236   20.7162 C   0  0  0  0  0  0  0  0  0  0  0  0
  -22.8223  -24.0857   21.0450 C   0  0  0  0  0  0  0  0  0  0  0  0
  -24.6920  -11.7162   21.1168 C   0  0  0  0  0  0  0  0  0  0  0  0
  -22.1316  -12.0017   22.1871 C   0  0  0  0  0  0  0  0  0  0  0  0
  -24.2483  -10.8396   22.1069 C   0  0  0  0  0  0  0  0  0  0  0  0
  -29.4940  -15.8787   21.1220 C   0  0  0  0  0  0  0  0  0  0  0  0
  -31.2619  -17.1345   21.4860 C   0  0  0  0  0  0  0  0  0  0  0  0
  -26.6017  -20.4932   17.8585 C   0  0  0  0  0  0  0  0  0  0  0  0
  -31.6548  -14.6942   21.8590 C   0  0  0  0  0  0  0  0  0  0  0  0
  -20.9361  -28.9129   22.6586 C   0  0  0  0  0  0  0  0  0  0  0  0
  -24.0071  -29.9468   22.8097 C   0  0  0  0  0  0  0  0  0  0  0  0
  -29.2472  -21.9307   18.4778 C   0  0  0  0  0  0  0  0  0  0  0  0
  -27.3208  -29.2579   22.3719 C   0  0  0  0  0  0  0  0  0  0  0  0
  -16.4074  -30.3633   24.5146 C   0  0  0  0  0  0  0  0  0  0  0  0
  -22.0152  -27.0875   24.0221 C   0  0  0  0  0  0  0  0  0  0  0  0
  -23.6111  -27.7553   21.6238 C   0  0  0  0  0  0  0  0  0  0  0  0
  -17.7263  -31.0585   24.1867 C   0  0  0  0  0  0  0  0  0  0  0  0
  -29.6415  -21.5958   22.0236 C   0  0  0  0  0  0  0  0  0  0  0  0
  -18.2017  -30.6701   22.7903 C   0  0  0  0  0  0  0  0  0  0  0  0
  -29.7426  -20.0854   22.2324 C   0  0  0  0  0  0  0  0  0  0  0  0
  -28.6851  -21.9393   20.8858 C   0  0  0  0  0  0  0  0  0  0  0  0
  -29.1177  -19.7598   19.7976 C   0  0  0  0  0  0  0  0  0  0  0  0
  -18.4607  -29.1617   22.6954 C   0  0  1  0  0  0  0  0  0  0  0  0
  -22.1176  -28.5165   23.4980 C   0  0  1  0  0  0  0  0  0  0  0  0
  -30.0975  -19.3681   20.9179 C   0  0  2  0  0  0  0  0  0  0  0  0
  -29.5912  -30.3138   22.5392 C   0  0  0  0  0  0  0  0  0  0  0  0
  -28.4801  -22.2465   16.1466 C   0  0  0  0  0  0  0  0  0  0  0  0
  -30.2562  -20.5905   16.7193 C   0  0  0  0  0  0  0  0  0  0  0  0
  -23.4982  -31.4483   20.2027 C   0  0  0  0  0  0  0  0  0  0  0  0
  -25.9766  -31.6774   19.9320 C   0  0  0  0  0  0  0  0  0  0  0  0
  -24.8365  -32.7161   21.8926 C   0  0  0  0  0  0  0  0  0  0  0  0
  -28.1993  -27.3181   24.4272 C   0  0  0  0  0  0  0  0  0  0  0  0
  -26.0873  -21.8706   18.1930 C   0  0  0  0  0  0  0  0  0  0  0  0
  -24.7688  -21.8638   18.9696 C   0  0  0  0  0  0  0  0  0  0  0  0
  -24.3011  -23.2561   19.3773 C   0  0  0  0  0  0  0  0  0  1  0  0
  -25.0997  -30.2033   21.8000 C   0  0  1  0  0  0  0  0  0  0  0  0
  -28.5265  -29.5026   23.2612 C   0  0  2  0  0  0  0  0  0  0  0  0
  -28.9272  -21.2097   17.1926 C   0  0  0  0  0  0  0  0  0  0  0  0
  -24.8408  -31.4856   20.9596 C   0  0  0  0  0  0  0  0  0  0  0  0
  -25.9433  -19.3600   17.9342 N   0  0  0  0  0  0  0  0  0  0  0  0
  -28.0696  -18.9513   17.1960 N   0  0  0  0  0  0  0  0  0  0  0  0
  -29.0780  -17.1228   20.8711 N   0  0  0  0  0  0  0  0  0  0  0  0
  -30.1754  -17.8637   21.1014 N   0  0  0  0  0  0  0  0  0  0  0  0
  -27.8676  -20.2587   17.4200 N   0  0  0  0  0  0  0  0  0  0  0  0
  -23.3137  -28.7349   22.6819 N   0  0  0  0  0  0  0  0  0  0  0  0
  -29.0425  -21.2210   19.6612 N   0  0  0  0  0  0  0  0  0  0  0  0
  -32.4470  -17.7214   21.7572 N   0  0  0  0  0  0  0  0  0  0  0  0
  -31.0699  -13.4208   21.8307 N   0  0  0  0  0  0  0  0  0  0  0  0
  -19.7241  -28.8258   23.3164 N   0  0  0  0  0  0  0  0  0  0  0  0
  -26.3514  -30.2224   22.5490 N   0  0  0  0  0  0  0  0  0  0  0  0
  -29.1294  -28.2071   23.6845 N   0  3  0  0  0  0  0  0  0  0  0  0
  -32.8556  -14.8108   22.2026 O   0  0  0  0  0  0  0  0  0  0  0  0
  -21.1114  -29.2728   21.5004 O   0  0  0  0  0  0  0  0  0  0  0  0
  -23.7821  -30.7874   23.6840 O   0  0  0  0  0  0  0  0  0  0  0  0
  -29.6692  -23.0891   18.4292 O   0  0  0  0  0  0  0  0  0  0  0  0
  -27.2479  -28.3084   21.5949 O   0  0  0  0  0  0  0  0  0  0  0  0
  -25.9629  -11.5763   20.5851 O   0  0  0  0  0  0  0  0  0  0  0  0
  -23.0810  -23.1340   20.1073 O   0  0  0  0  0  0  0  0  0  1  0  0
  -20.9028  -12.1398   22.7020 F   0  0  0  0  0  0  0  0  0  0  0  0
  -25.0478   -9.8591   22.5488 F   0  0  0  0  0  0  0  0  0  0  0  0
  1  2  1  0  0  0  0
  1  5  2  0  0  0  0
  2  6  2  0  0  0  0
  3  8  2  0  0  0  0
  3 16  1  0  0  0  0
  4  9  1  0  0  0  0
  4 16  2  0  0  0  0
  5 18  1  0  0  0  0
  6 20  1  0  0  0  0
  7 10  2  0  0  0  0
  7 19  1  0  0  0  0
  8 22  1  0  0  0  0
  9 22  2  0  0  0  0
 10 23  1  0  0  0  0
 11 12  2  0  0  0  0
 11 24  1  0  0  0  0
 12 25  1  0  0  0  0
 13 21  1  0  0  0  0
 13 23  2  0  0  0  0
 14 25  2  0  0  0  0
 14 26  1  0  0  0  0
 15 61  1  0  0  0  0
 15 62  2  0  0  0  0
 16 27  1  0  0  0  0
 17 27  1  0  0  0  0
 17 28  2  0  0  0  0
 17 30  1  0  0  0  0
 18 20  2  0  0  0  0
 18 35  1  0  0  0  0
 19 21  2  0  0  0  0
 19 36  1  0  0  0  0
 20 44  1  0  0  0  0
 21 37  1  0  0  0  0
 22 78  1  0  0  0  0
 23 79  1  0  0  0  0
 24 26  2  0  0  0  0
 24 78  1  0  0  0  0
 25 80  1  0  0  0  0
 26 81  1  0  0  0  0
 27 63  2  0  0  0  0
 28 64  1  0  0  0  0
 28 68  1  0  0  0  0
 29 54  1  0  0  0  0
 29 61  2  0  0  0  0
 29 65  1  0  0  0  0
 30 69  1  0  0  0  0
 30 73  2  0  0  0  0
 31 45  1  0  0  0  0
 31 70  1  0  0  0  0
 31 74  2  0  0  0  0
 32 57  1  0  0  0  0
 32 66  1  0  0  0  0
 32 75  2  0  0  0  0
 33 59  1  0  0  0  0
 33 67  1  0  0  0  0
 33 76  2  0  0  0  0
 34 58  1  0  0  0  0
 34 71  1  0  0  0  0
 34 77  2  0  0  0  0
 35 38  1  0  0  0  0
 36 45  1  0  0  0  0
 37 66  1  0  0  0  0
 38 40  1  0  0  0  0
 39 41  1  0  0  0  0
 39 42  1  0  0  0  0
 40 44  1  0  0  0  0
 41 46  1  0  0  0  0
 42 67  1  0  0  0  0
 43 46  1  0  0  0  0
 43 67  1  0  0  0  0
 44 70  1  0  0  0  0
 45 66  1  0  0  0  0
 46 64  1  0  0  0  0
 47 58  1  0  0  0  0
 48 59  1  0  0  0  0
 49 59  1  0  0  0  0
 50 60  1  0  0  0  0
 51 60  1  0  0  0  0
 52 60  1  0  0  0  0
 53 72  1  0  0  0  0
 54 55  1  0  0  0  0
 55 56  1  0  0  0  0
 56 79  1  0  0  0  0
 57 60  1  0  0  0  0
 57 71  1  0  0  0  0
 58 72  1  0  0  0  0
 59 65  1  0  0  0  0
 62 65  1  0  0  0  0
 63 64  1  0  0  0  0
M  CHG  1  72   1
M  ISO  4  33 100  56 101  59 100  79 101
M  END
> <Batch ID>
0058

> <Smiles>
CNC(C)C(=O)NC(C(=O)N1Cc2cc([101O:1][101CH2:1]CCc3ncnn3[100C:0](C)(C)[100C:0](=O)N3CCCC(n4nc(-c5ccc(Oc6ccc(F)cc6F)cc5)c(C(N)=O)c4N)C3)ccc2CC1C(=O)NC1CCCc2ccccc21)C(C)(C)C

> <Shape>
0.276

> <Color>
0.047

> <Negative vol penalty>
0.000

$$$$

  -OEChem-04052317503D

 81 89  0     1  0  0  0  0  0999 V2000
  -30.5215  -25.0057   18.1832 C   0  0  0  0  0  0  0  0  0  0  0  0
  -29.1317  -25.0091   18.2447 C   0  0  0  0  0  0  0  0  0  0  0  0
  -22.4014  -14.1742   21.2461 C   0  0  0  0  0  0  0  0  0  0  0  0
  -24.6014  -14.9011   21.9306 C   0  0  0  0  0  0  0  0  0  0  0  0
  -31.2649  -25.5912   19.2072 C   0  0  0  0  0  0  0  0  0  0  0  0
  -28.4844  -25.5971   19.3309 C   0  0  0  0  0  0  0  0  0  0  0  0
  -23.1505  -28.6051   19.2503 C   0  0  0  0  0  0  0  0  0  0  0  0
  -22.9406  -12.9712   20.7904 C   0  0  0  0  0  0  0  0  0  0  0  0
  -25.1406  -13.6981   21.4750 C   0  0  0  0  0  0  0  0  0  0  0  0
  -21.8496  -28.2165   19.5673 C   0  0  0  0  0  0  0  0  0  0  0  0
  -23.6846   -9.5607   19.7756 C   0  0  0  0  0  0  0  0  0  0  0  0
  -23.0117   -8.3834   20.1024 C   0  0  0  0  0  0  0  0  0  0  0  0
  -22.1233  -29.1300   21.7832 C   0  0  0  0  0  0  0  0  0  0  0  0
  -23.3088   -8.8655   22.4511 C   0  0  0  0  0  0  0  0  0  0  0  0
  -19.6494  -26.0559   24.8920 C   0  0  0  0  0  0  0  0  0  0  0  0
  -23.2318  -15.1392   21.8162 C   0  0  0  0  0  0  0  0  0  0  0  0
  -22.1829  -16.6593   23.5759 C   0  0  0  0  0  0  0  0  0  0  0  0
  -30.6262  -26.1951   20.3017 C   0  0  0  0  0  0  0  0  0  0  0  0
  -23.9526  -29.2504   20.2024 C   0  0  0  0  0  0  0  0  0  0  0  0
  -29.2200  -26.1899   20.3711 C   0  0  0  0  0  0  0  0  0  0  0  0
  -23.4331  -29.5280   21.4749 C   0  0  0  0  0  0  0  0  0  0  0  0
  -24.3102  -12.7331   20.9049 C   0  0  0  0  0  0  0  0  0  0  0  0
  -21.3368  -28.4764   20.8349 C   0  0  0  0  0  0  0  0  0  0  0  0
  -24.1696  -10.3904   20.7866 C   0  0  0  0  0  0  0  0  0  0  0  0
  -22.8238   -8.0358   21.4401 C   0  0  0  0  0  0  0  0  0  0  0  0
  -23.9817  -10.0428   22.1243 C   0  0  0  0  0  0  0  0  0  0  0  0
  -22.6754  -16.3823   22.2865 C   0  0  0  0  0  0  0  0  0  0  0  0
  -21.7711  -17.9681   23.5123 C   0  0  0  0  0  0  0  0  0  0  0  0
  -19.2738  -25.7638   22.6988 C   0  0  0  0  0  0  0  0  0  0  0  0
  -20.6328  -24.3587   23.8015 C   0  0  0  0  0  0  0  0  0  0  0  0
  -22.1046  -15.8096   24.7281 C   0  0  0  0  0  0  0  0  0  0  0  0
  -26.7030  -28.5758   21.6461 C   0  0  0  0  0  0  0  0  0  0  0  0
  -26.3631  -31.5730   22.8393 C   0  0  0  0  0  0  0  0  0  0  0  0
  -24.2773  -34.1506   23.6467 C   0  0  0  0  0  0  0  0  0  0  0  0
  -23.1331  -23.2304   21.8479 C   0  0  0  0  0  0  0  0  0  0  0  0
  -31.4730  -26.7735   21.4077 C   0  0  0  0  0  0  0  0  0  0  0  0
  -25.3446  -29.6870   19.8361 C   0  0  0  0  0  0  0  0  0  0  0  0
  -24.2464  -30.2361   22.5263 C   0  0  0  0  0  0  0  0  0  0  0  0
  -30.7036  -27.7061   22.3396 C   0  0  0  0  0  0  0  0  0  0  0  0
  -21.1808  -21.0645   19.5678 C   0  0  0  0  0  0  0  0  0  0  0  0
  -29.3737  -27.0782   22.7446 C   0  0  0  0  0  0  0  0  0  0  0  0
  -21.4207  -19.6707   20.1457 C   0  0  0  0  0  0  0  0  0  0  0  0
  -22.3468  -22.0057   19.8546 C   0  0  0  0  0  0  0  0  0  0  0  0
  -22.9416  -20.7094   21.8745 C   0  0  0  0  0  0  0  0  0  0  0  0
  -28.4809  -26.8397   21.5208 C   0  0  1  0  0  0  0  0  0  0  0  0
  -26.2496  -29.8781   21.0493 C   0  0  1  0  0  0  0  0  0  0  0  0
  -21.7648  -19.7495   21.6432 C   0  0  2  0  0  0  0  0  0  0  0  0
  -24.2866  -36.4551   24.6399 C   0  0  0  0  0  0  0  0  0  0  0  0
  -26.7105  -30.3698   25.6216 C   0  0  0  0  0  0  0  0  0  0  0  0
  -25.7802  -32.4884   26.5778 C   0  0  0  0  0  0  0  0  0  0  0  0
  -27.9021  -32.5398   25.2672 C   0  0  0  0  0  0  0  0  0  0  0  0
  -23.7355  -24.2587   24.0065 C   0  0  0  0  0  0  0  0  0  0  0  0
  -23.1941  -35.3495   21.1671 C   0  0  0  0  0  0  0  0  0  0  0  0
  -18.6025  -26.1970   21.4182 C   0  0  0  0  0  0  0  0  0  0  0  0
  -21.5314  -23.1691   23.8058 C   0  0  0  0  0  0  0  0  0  0  0  0
  -19.5541  -26.9410   20.4876 C   0  0  0  0  0  0  0  0  0  1  0  0
  -25.7102  -32.1688   24.0631 C   0  0  1  0  0  0  0  0  0  0  0  0
  -24.3569  -35.6389   23.3586 C   0  0  2  0  0  0  0  0  0  0  0  0
  -26.5109  -31.8766   25.3635 C   0  0  0  0  0  0  0  0  0  0  0  0
  -19.0172  -26.4984   23.7929 N   0  0  0  0  0  0  0  0  0  0  0  0
  -20.4701  -24.9961   24.9721 N   0  0  0  0  0  0  0  0  0  0  0  0
  -22.5855  -17.4307   21.4639 N   0  0  0  0  0  0  0  0  0  0  0  0
  -20.0687  -24.6839   22.6272 N   0  0  0  0  0  0  0  0  0  0  0  0
  -22.0316  -18.3793   22.2382 N   0  0  0  0  0  0  0  0  0  0  0  0
  -25.6040  -30.6375   22.1220 N   0  0  0  0  0  0  0  0  0  0  0  0
  -22.6807  -22.0285   21.2791 N   0  0  0  0  0  0  0  0  0  0  0  0
  -21.2153  -18.7958   24.4225 N   0  0  0  0  0  0  0  0  0  0  0  0
  -22.5725  -14.4928   24.6202 N   0  0  0  0  0  0  0  0  0  0  0  0
  -27.8679  -28.0789   21.0932 N   0  0  0  0  0  0  0  0  0  0  0  0
  -25.5293  -33.5883   23.7790 N   0  0  0  0  0  0  0  0  0  0  0  0
  -22.8309  -23.4516   23.2001 N   0  0  0  0  0  0  0  0  0  0  0  0
  -23.2330  -36.0561   22.4733 N   0  3  0  0  0  0  0  0  0  0  0  0
  -21.6187  -16.2013   25.8162 O   0  0  0  0  0  0  0  0  0  0  0  0
  -26.0456  -28.0607   22.5428 O   0  0  0  0  0  0  0  0  0  0  0  0
  -27.5019  -31.9299   22.5270 O   0  0  0  0  0  0  0  0  0  0  0  0
  -23.2110  -33.5479   23.7481 O   0  0  0  0  0  0  0  0  0  0  0  0
  -23.7626  -24.0628   21.1824 O   0  0  0  0  0  0  0  0  0  0  0  0
  -24.8367  -11.5593   20.4606 O   0  0  0  0  0  0  0  0  0  0  0  0
  -20.0676  -28.0976   21.1472 O   0  0  0  0  0  0  0  0  0  1  0  0
  -22.1763   -6.9059   21.7538 F   0  0  0  0  0  0  0  0  0  0  0  0
  -24.4444  -10.8365   23.0999 F   0  0  0  0  0  0  0  0  0  0  0  0
  1  2  1  0  0  0  0
  1  5  2  0  0  0  0
  2  6  2  0  0  0  0
  3  8  2  0  0  0  0
  3 16  1  0  0  0  0
  4  9  1  0  0  0  0
  4 16  2  0  0  0  0
  5 18  1  0  0  0  0
  6 20  1  0  0  0  0
  7 10  2  0  0  0  0
  7 19  1  0  0  0  0
  8 22  1  0  0  0  0
  9 22  2  0  0  0  0
 10 23  1  0  0  0  0
 11 12  2  0  0  0  0
 11 24  1  0  0  0  0
 12 25  1  0  0  0  0
 13 21  1  0  0  0  0
 13 23  2  0  0  0  0
 14 25  2  0  0  0  0
 14 26  1  0  0  0  0
 15 60  2  0  0  0  0
 15 61  1  0  0  0  0
 16 27  1  0  0  0  0
 17 27  1  0  0  0  0
 17 28  2  0  0  0  0
 17 31  1  0  0  0  0
 18 20  2  0  0  0  0
 18 36  1  0  0  0  0
 19 21  2  0  0  0  0
 19 37  1  0  0  0  0
 20 45  1  0  0  0  0
 21 38  1  0  0  0  0
 22 78  1  0  0  0  0
 23 79  1  0  0  0  0
 24 26  2  0  0  0  0
 24 78  1  0  0  0  0
 25 80  1  0  0  0  0
 26 81  1  0  0  0  0
 27 62  2  0  0  0  0
 28 64  1  0  0  0  0
 28 67  1  0  0  0  0
 29 54  1  0  0  0  0
 29 60  1  0  0  0  0
 29 63  2  0  0  0  0
 30 55  1  0  0  0  0
 30 61  2  0  0  0  0
 30 63  1  0  0  0  0
 31 68  1  0  0  0  0
 31 73  2  0  0  0  0
 32 46  1  0  0  0  0
 32 69  1  0  0  0  0
 32 74  2  0  0  0  0
 33 57  1  0  0  0  0
 33 65  1  0  0  0  0
 33 75  2  0  0  0  0
 34 58  1  0  0  0  0
 34 70  1  0  0  0  0
 34 76  2  0  0  0  0
 35 66  1  0  0  0  0
 35 71  1  0  0  0  0
 35 77  2  0  0  0  0
 36 39  1  0  0  0  0
 37 46  1  0  0  0  0
 38 65  1  0  0  0  0
 39 41  1  0  0  0  0
 40 42  1  0  0  0  0
 40 43  1  0  0  0  0
 41 45  1  0  0  0  0
 42 47  1  0  0  0  0
 43 66  1  0  0  0  0
 44 47  1  0  0  0  0
 44 66  1  0  0  0  0
 45 69  1  0  0  0  0
 46 65  1  0  0  0  0
 47 64  1  0  0  0  0
 48 58  1  0  0  0  0
 49 59  1  0  0  0  0
 50 59  1  0  0  0  0
 51 59  1  0  0  0  0
 52 71  1  0  0  0  0
 53 72  1  0  0  0  0
 54 56  1  0  0  0  0
 55 71  1  0  0  0  0
 56 79  1  0  0  0  0
 57 59  1  0  0  0  0
 57 70  1  0  0  0  0
 58 72  1  0  0  0  0
 62 64  1  0  0  0  0
M  CHG  1  72   1
M  ISO  4  35 100  56 101  71 100  79 101
M  END
> <Batch ID>
0058

> <Smiles>
CNC(C)C(=O)NC(C(=O)N1Cc2cc([101O:1][101CH2:1]Cc3ncnc(C[100N:0](C)[100C:0](=O)N4CCCC(n5nc(-c6ccc(Oc7ccc(F)cc7F)cc6)c(C(N)=O)c5N)C4)n3)ccc2CC1C(=O)NC1CCCc2ccccc21)C(C)(C)C

> <Shape>
0.273

> <Color>
0.072

> <Negative vol penalty>
0.000

$$$$

  -OEChem-04052317503D

 84 92  0     1  0  0  0  0  0999 V2000
  -27.2388  -29.2126   20.4479 C   0  0  0  0  0  0  0  0  0  0  0  0
  -26.2534  -29.3768   21.4148 C   0  0  0  0  0  0  0  0  0  0  0  0
  -30.8593  -20.6012   19.9083 C   0  0  0  0  0  0  0  0  0  0  0  0
  -28.5938  -19.9312   19.4025 C   0  0  0  0  0  0  0  0  0  0  0  0
  -27.0037  -28.3849   19.3521 C   0  0  0  0  0  0  0  0  0  0  0  0
  -25.0371  -28.7041   21.2924 C   0  0  0  0  0  0  0  0  0  0  0  0
  -22.0091  -21.6980   22.2932 C   0  0  0  0  0  0  0  0  0  0  0  0
  -30.6809  -21.7669   19.1633 C   0  0  0  0  0  0  0  0  0  0  0  0
  -28.4154  -21.0969   18.6575 C   0  0  0  0  0  0  0  0  0  0  0  0
  -22.6094  -20.4525   22.1143 C   0  0  0  0  0  0  0  0  0  0  0  0
  -30.7043  -25.0916   17.6935 C   0  0  0  0  0  0  0  0  0  0  0  0
  -31.1595  -26.2894   18.2446 C   0  0  0  0  0  0  0  0  0  0  0  0
  -24.6033  -21.2637   23.2032 C   0  0  0  0  0  0  0  0  0  0  0  0
  -29.6756  -25.9872   20.1271 C   0  0  0  0  0  0  0  0  0  0  0  0
  -24.8394  -16.1839   20.4516 C   0  0  0  0  0  0  0  0  0  0  0  0
  -29.8158  -19.6833   20.0278 C   0  0  0  0  0  0  0  0  0  0  0  0
  -30.3205  -18.3837   22.1641 C   0  0  0  0  0  0  0  0  0  0  0  0
  -25.7790  -27.7119   19.2105 C   0  0  0  0  0  0  0  0  0  0  0  0
  -22.7065  -22.7408   22.9198 C   0  0  0  0  0  0  0  0  0  0  0  0
  -24.7897  -27.8456   20.2060 C   0  0  0  0  0  0  0  0  0  0  0  0
  -24.0086  -22.5208   23.3911 C   0  0  0  0  0  0  0  0  0  0  0  0
  -29.4590  -22.0148   18.5380 C   0  0  0  0  0  0  0  0  0  0  0  0
  -23.9077  -20.2360   22.5667 C   0  0  0  0  0  0  0  0  0  0  0  0
  -29.7348  -24.3416   18.3592 C   0  0  0  0  0  0  0  0  0  0  0  0
  -30.6452  -26.7372   19.4614 C   0  0  0  0  0  0  0  0  0  0  0  0
  -29.2204  -24.7894   19.5760 C   0  0  0  0  0  0  0  0  0  0  0  0
  -29.9996  -18.4787   20.7967 C   0  0  0  0  0  0  0  0  0  0  0  0
  -24.5311  -16.7500   21.6689 C   0  0  0  0  0  0  0  0  0  0  0  0
  -25.9610  -14.5006   21.5184 C   0  0  0  0  0  0  0  0  0  0  0  0
  -25.6533  -15.0670   22.7358 C   0  0  0  0  0  0  0  0  0  0  0  0
  -30.3819  -17.0336   22.4094 C   0  0  0  0  0  0  0  0  0  0  0  0
  -30.5431  -19.4228   23.1266 C   0  0  0  0  0  0  0  0  0  0  0  0
  -23.6844  -25.6336   22.0371 C   0  0  0  0  0  0  0  0  0  0  0  0
  -24.5355  -25.8717   25.1582 C   0  0  0  0  0  0  0  0  0  0  0  0
  -25.3890  -24.2866   28.0575 C   0  0  0  0  0  0  0  0  0  0  0  0
  -27.7917  -12.4682   19.2493 C   0  0  0  0  0  0  0  0  0  0  0  0
  -25.5806  -26.8223   18.0086 C   0  0  0  0  0  0  0  0  0  0  0  0
  -22.0352  -24.0705   23.1291 C   0  0  0  0  0  0  0  0  0  0  0  0
  -24.7928  -23.6013   24.0883 C   0  0  0  0  0  0  0  0  0  0  0  0
  -24.1131  -26.5070   17.7381 C   0  0  0  0  0  0  0  0  0  0  0  0
  -31.3273  -12.8664   20.2704 C   0  0  0  0  0  0  0  0  0  0  0  0
  -23.4375  -26.0390   19.0184 C   0  0  0  0  0  0  0  0  0  0  0  0
  -31.4220  -14.3622   20.5667 C   0  0  0  0  0  0  0  0  0  0  0  0
  -30.2579  -12.5618   19.2257 C   0  0  0  0  0  0  0  0  0  0  0  0
  -29.0083  -14.5988   19.8606 C   0  0  0  0  0  0  0  0  0  0  0  0
  -23.4476  -27.1479   20.0781 C   0  0  1  0  0  0  0  0  0  0  0  0
  -23.0246  -25.2158   23.3207 C   0  0  1  0  0  0  0  0  0  0  0  0
  -30.0446  -14.9350   20.9434 C   0  0  2  0  0  0  0  0  0  0  0  0
  -26.0667  -24.7483   30.4291 C   0  0  0  0  0  0  0  0  0  0  0  0
  -27.3325  -26.6355   24.2076 C   0  0  0  0  0  0  0  0  0  0  0  0
  -28.1728  -26.1547   26.5165 C   0  0  0  0  0  0  0  0  0  0  0  0
  -26.4933  -27.9631   26.1538 C   0  0  0  0  0  0  0  0  0  0  0  0
  -25.4464  -11.9381   19.7953 C   0  0  0  0  0  0  0  0  0  0  0  0
  -23.0249  -22.8667   29.1318 C   0  0  0  0  0  0  0  0  0  0  0  0
  -26.7589  -13.2450   21.4247 C   0  0  0  0  0  0  0  0  0  0  0  0
  -23.7258  -18.0141   21.7386 C   0  0  0  0  0  0  0  0  0  1  0  0
  -25.7753  -25.5471   25.9560 C   0  0  1  0  0  0  0  0  0  0  0  0
  -24.9072  -24.4701   29.4853 C   0  0  2  0  0  0  0  0  0  0  0  0
  -26.1042  -14.4506   24.0159 C   0  0  0  0  0  0  0  0  0  0  0  0
  -26.9297  -26.5551   25.6936 C   0  0  0  0  0  0  0  0  0  0  0  0
  -25.5599  -15.0490   20.3545 N   0  0  0  0  0  0  0  0  0  0  0  0
  -29.8666  -17.2842   20.2141 N   0  0  0  0  0  0  0  0  0  0  0  0
  -24.9326  -16.2017   22.8329 N   0  0  0  0  0  0  0  0  0  0  0  0
  -30.1051  -16.4258   21.2202 N   0  0  0  0  0  0  0  0  0  0  0  0
  -24.0953  -24.8859   24.2635 N   0  0  0  0  0  0  0  0  0  0  0  0
  -28.9698  -13.1543   19.5873 N   0  0  0  0  0  0  0  0  0  0  0  0
  -30.6451  -16.3191   23.5241 N   0  0  0  0  0  0  0  0  0  0  0  0
  -29.4474  -19.9035   23.8563 N   0  0  0  0  0  0  0  0  0  0  0  0
  -22.9905  -26.6021   21.3370 N   0  0  0  0  0  0  0  0  0  0  0  0
  -25.3547  -25.4701   27.3508 N   0  0  0  0  0  0  0  0  0  0  0  0
  -26.6870  -12.6379   20.0975 N   0  0  0  0  0  0  0  0  0  0  0  0
  -24.2021  -23.2443   29.9556 N   0  3  0  0  0  0  0  0  0  0  0  0
  -31.6773  -19.9220   23.3216 O   0  0  0  0  0  0  0  0  0  0  0  0
  -24.7454  -25.1168   21.7070 O   0  0  0  0  0  0  0  0  0  0  0  0
  -23.9741  -26.9569   25.3279 O   0  0  0  0  0  0  0  0  0  0  0  0
  -25.7622  -23.2026   27.6145 O   0  0  0  0  0  0  0  0  0  0  0  0
  -27.7337  -11.7377   18.2518 O   0  0  0  0  0  0  0  0  0  0  0  0
  -29.2845  -23.1523   17.8112 O   0  0  0  0  0  0  0  0  0  0  0  0
  -24.4963  -19.0215   22.3927 O   0  0  0  0  0  0  0  0  0  1  0  0
  -31.0835  -27.8867   19.9912 F   0  0  0  0  0  0  0  0  0  0  0  0
  -28.2897  -24.0726   20.2208 F   0  0  0  0  0  0  0  0  0  0  0  0
  -26.8288  -13.3046   23.8473 F   0  0  0  0  0  0  0  0  0  0  0  0
  -26.9015  -15.2679   24.7662 F   0  0  0  0  0  0  0  0  0  0  0  0
  -25.0631  -14.1080   24.8300 F   0  0  0  0  0  0  0  0  0  0  0  0
  1  2  1  0  0  0  0
  1  5  2  0  0  0  0
  2  6  2  0  0  0  0
  3  8  2  0  0  0  0
  3 16  1  0  0  0  0
  4  9  1  0  0  0  0
  4 16  2  0  0  0  0
  5 18  1  0  0  0  0
  6 20  1  0  0  0  0
  7 10  2  0  0  0  0
  7 19  1  0  0  0  0
  8 22  1  0  0  0  0
  9 22  2  0  0  0  0
 10 23  1  0  0  0  0
 11 12  2  0  0  0  0
 11 24  1  0  0  0  0
 12 25  1  0  0  0  0
 13 21  1  0  0  0  0
 13 23  2  0  0  0  0
 14 25  2  0  0  0  0
 14 26  1  0  0  0  0
 15 28  1  0  0  0  0
 15 61  2  0  0  0  0
 16 27  1  0  0  0  0
 17 27  1  0  0  0  0
 17 31  2  0  0  0  0
 17 32  1  0  0  0  0
 18 20  2  0  0  0  0
 18 37  1  0  0  0  0
 19 21  2  0  0  0  0
 19 38  1  0  0  0  0
 20 46  1  0  0  0  0
 21 39  1  0  0  0  0
 22 78  1  0  0  0  0
 23 79  1  0  0  0  0
 24 26  2  0  0  0  0
 24 78  1  0  0  0  0
 25 80  1  0  0  0  0
 26 81  1  0  0  0  0
 27 62  2  0  0  0  0
 28 56  1  0  0  0  0
 28 63  2  0  0  0  0
 29 30  2  0  0  0  0
 29 55  1  0  0  0  0
 29 61  1  0  0  0  0
 30 59  1  0  0  0  0
 30 63  1  0  0  0  0
 31 64  1  0  0  0  0
 31 67  1  0  0  0  0
 32 68  1  0  0  0  0
 32 73  2  0  0  0  0
 33 47  1  0  0  0  0
 33 69  1  0  0  0  0
 33 74  2  0  0  0  0
 34 57  1  0  0  0  0
 34 65  1  0  0  0  0
 34 75  2  0  0  0  0
 35 58  1  0  0  0  0
 35 70  1  0  0  0  0
 35 76  2  0  0  0  0
 36 66  1  0  0  0  0
 36 71  1  0  0  0  0
 36 77  2  0  0  0  0
 37 40  1  0  0  0  0
 38 47  1  0  0  0  0
 39 65  1  0  0  0  0
 40 42  1  0  0  0  0
 41 43  1  0  0  0  0
 41 44  1  0  0  0  0
 42 46  1  0  0  0  0
 43 48  1  0  0  0  0
 44 66  1  0  0  0  0
 45 48  1  0  0  0  0
 45 66  1  0  0  0  0
 46 69  1  0  0  0  0
 47 65  1  0  0  0  0
 48 64  1  0  0  0  0
 49 58  1  0  0  0  0
 50 60  1  0  0  0  0
 51 60  1  0  0  0  0
 52 60  1  0  0  0  0
 53 71  1  0  0  0  0
 54 72  1  0  0  0  0
 55 71  1  0  0  0  0
 56 79  1  0  0  0  0
 57 60  1  0  0  0  0
 57 70  1  0  0  0  0
 58 72  1  0  0  0  0
 59 82  1  0  0  0  0
 59 83  1  0  0  0  0
 59 84  1  0  0  0  0
 62 64  1  0  0  0  0
M  CHG  1  72   1
M  ISO  4  36 100  56 101  71 100  79 101
M  END
> <Batch ID>
0058

> <Smiles>
CNC(C)C(=O)NC(C(=O)N1Cc2cc([101O:1][101CH2:1]c3cnc(C[100N:0](C)[100C:0](=O)N4CCCC(n5nc(-c6ccc(Oc7ccc(F)cc7F)cc6)c(C(N)=O)c5N)C4)c(C(F)(F)F)n3)ccc2CC1C(=O)NC1CCCc2ccccc21)C(C)(C)C

> <Shape>
0.213

> <Color>
0.055

> <Negative vol penalty>
0.000

$$$$

  -OEChem-04052317503D

 85 93  0     1  0  0  0  0  0999 V2000
  -27.9157  -21.1030   12.5555 C   0  0  0  0  0  0  0  0  0  0  0  0
  -27.8809  -20.8730   13.9271 C   0  0  0  0  0  0  0  0  0  0  0  0
  -22.6997  -10.2585   20.1553 C   0  0  0  0  0  0  0  0  0  0  0  0
  -24.3028   -9.5290   21.8091 C   0  0  0  0  0  0  0  0  0  0  0  0
  -28.4727  -22.2817   12.0614 C   0  0  0  0  0  0  0  0  0  0  0  0
  -28.4041  -21.8214   14.8054 C   0  0  0  0  0  0  0  0  0  0  0  0
  -25.3775  -22.6708   18.7757 C   0  0  0  0  0  0  0  0  0  0  0  0
  -21.9808   -9.0761   20.3305 C   0  0  0  0  0  0  0  0  0  0  0  0
  -23.5838   -8.3466   21.9844 C   0  0  0  0  0  0  0  0  0  0  0  0
  -25.3907  -21.7253   19.8002 C   0  0  0  0  0  0  0  0  0  0  0  0
  -22.2092   -5.8526   19.3398 C   0  0  0  0  0  0  0  0  0  0  0  0
  -21.7706   -5.1861   18.1957 C   0  0  0  0  0  0  0  0  0  0  0  0
  -26.8576  -23.1461   21.0843 C   0  0  0  0  0  0  0  0  0  0  0  0
  -19.4826   -5.4226   18.9350 C   0  0  0  0  0  0  0  0  0  0  0  0
  -29.2718  -20.0002   20.4421 C   0  0  0  0  0  0  0  0  0  0  0  0
  -23.8607  -10.4849   20.8945 C   0  0  0  0  0  0  0  0  0  0  0  0
  -24.1436  -13.0201   20.9202 C   0  0  0  0  0  0  0  0  0  0  0  0
  -28.9942  -23.2493   12.9345 C   0  0  0  0  0  0  0  0  0  0  0  0
  -26.1142  -23.8582   18.8934 C   0  0  0  0  0  0  0  0  0  0  0  0
  -28.9698  -23.0136   14.3224 C   0  0  0  0  0  0  0  0  0  0  0  0
  -26.8500  -24.1062   20.0610 C   0  0  0  0  0  0  0  0  0  0  0  0
  -22.4229   -8.1201   21.2451 C   0  0  0  0  0  0  0  0  0  0  0  0
  -26.1331  -21.9616   20.9535 C   0  0  0  0  0  0  0  0  0  0  0  0
  -21.2845   -6.3041   20.2815 C   0  0  0  0  0  0  0  0  0  0  0  0
  -20.4073   -4.9711   17.9933 C   0  0  0  0  0  0  0  0  0  0  0  0
  -19.9213   -6.0891   20.0791 C   0  0  0  0  0  0  0  0  0  0  0  0
  -24.6041  -11.7059   20.7136 C   0  0  0  0  0  0  0  0  0  0  0  0
  -29.8560  -18.2111   19.4479 C   0  0  0  0  0  0  0  0  0  0  0  0
  -29.2926  -17.8050   20.6346 C   0  0  0  0  0  0  0  0  0  0  0  0
  -25.2217  -13.8139   20.6133 C   0  0  0  0  0  0  0  0  0  0  0  0
  -22.8565  -13.4820   21.3512 C   0  0  0  0  0  0  0  0  0  0  0  0
  -28.5208  -25.1735   17.2865 C   0  0  0  0  0  0  0  0  0  0  0  0
  -27.9631  -27.6789   19.2701 C   0  0  0  0  0  0  0  0  0  0  0  0
  -26.7124  -28.7994   22.2411 C   0  0  0  0  0  0  0  0  0  0  0  0
  -30.8017  -14.6204   21.3412 C   0  0  0  0  0  0  0  0  0  0  0  0
  -29.6288  -24.4869   12.3511 C   0  0  0  0  0  0  0  0  0  0  0  0
  -26.0681  -24.8800   17.7906 C   0  0  0  0  0  0  0  0  0  0  0  0
  -27.6416  -25.3742   20.2451 C   0  0  0  0  0  0  0  0  0  0  0  0
  -29.8231  -25.6089   13.3678 C   0  0  0  0  0  0  0  0  0  0  0  0
  -29.6228  -12.7080   18.3993 C   0  0  0  0  0  0  0  0  0  0  0  0
  -30.4311  -25.0628   14.6558 C   0  0  0  0  0  0  0  0  0  0  0  0
  -28.1974  -12.3292   18.7976 C   0  0  0  0  0  0  0  0  0  0  0  0
  -30.5264  -12.8759   19.6171 C   0  0  0  0  0  0  0  0  0  0  0  0
  -28.5788  -13.4577   21.0251 C   0  0  0  0  0  0  0  0  0  0  0  0
  -29.5049  -24.0294   15.3083 C   0  0  1  0  0  0  0  0  0  0  0  0
  -27.2670  -25.8234   17.7996 C   0  0  1  0  0  0  0  0  0  0  0  0
  -27.6311  -13.3264   19.8234 C   0  0  2  0  0  0  0  0  0  0  0  0
  -26.0135  -30.4471   24.0001 C   0  0  0  0  0  0  0  0  0  0  0  0
  -30.9193  -27.5824   20.0193 C   0  0  0  0  0  0  0  0  0  0  0  0
  -30.3893  -29.0035   22.0112 C   0  0  0  0  0  0  0  0  0  0  0  0
  -29.9958  -29.8860   19.7114 C   0  0  0  0  0  0  0  0  0  0  0  0
  -31.1560  -16.7643   22.5063 C   0  0  0  0  0  0  0  0  0  0  0  0
  -24.0137  -29.0900   21.0615 C   0  0  0  0  0  0  0  0  0  0  0  0
  -29.0764  -16.4669   21.2132 C   0  0  0  0  0  0  0  0  0  0  0  0
  -26.7499  -18.8013   22.5731 C   0  0  0  0  0  0  0  0  0  0  0  0
  -28.2523  -19.0904   22.6049 C   0  0  0  0  0  0  0  0  0  0  0  0
  -25.9880  -19.6722   21.5810 C   0  0  0  0  0  0  0  0  0  1  0  0
  -28.4644  -28.0970   20.6313 C   0  0  1  0  0  0  0  0  0  0  0  0
  -25.7986  -29.9650   22.5738 C   0  0  2  0  0  0  0  0  0  0  0  0
  -30.4279  -17.3822   18.3750 C   0  0  0  0  0  0  0  0  0  0  0  0
  -29.9289  -28.6174   20.5893 C   0  0  0  0  0  0  0  0  0  0  0  0
  -29.8403  -19.5788   19.3343 N   0  0  0  0  0  0  0  0  0  0  0  0
  -25.8755  -11.6630   20.3066 N   0  0  0  0  0  0  0  0  0  0  0  0
  -28.9235  -18.9621   21.2608 N   0  0  0  0  0  0  0  0  0  0  0  0
  -26.2232  -12.9602   20.2551 N   0  0  0  0  0  0  0  0  0  0  0  0
  -27.5699  -26.3398   19.1360 N   0  0  0  0  0  0  0  0  0  0  0  0
  -29.9440  -13.7953   20.5952 N   0  0  0  0  0  0  0  0  0  0  0  0
  -25.4011  -15.1518   20.6175 N   0  0  0  0  0  0  0  0  0  0  0  0
  -22.6303  -13.6436   22.7249 N   0  0  0  0  0  0  0  0  0  0  0  0
  -28.4163  -24.6896   15.9964 N   0  0  0  0  0  0  0  0  0  0  0  0
  -27.5004  -29.0659   21.1414 N   0  0  0  0  0  0  0  0  0  0  0  0
  -30.3007  -15.8686   21.7409 N   0  0  0  0  0  0  0  0  0  0  0  0
  -24.3713  -29.5636   22.4234 N   0  3  0  0  0  0  0  0  0  0  0  0
  -21.9292  -13.7279   20.5432 O   0  0  0  0  0  0  0  0  0  0  0  0
  -29.5103  -25.1167   18.0072 O   0  0  0  0  0  0  0  0  0  0  0  0
  -27.9153  -28.5116   18.3612 O   0  0  0  0  0  0  0  0  0  0  0  0
  -26.7285  -27.7582   22.8938 O   0  0  0  0  0  0  0  0  0  0  0  0
  -31.9530  -14.2658   21.6251 O   0  0  0  0  0  0  0  0  0  0  0  0
  -21.7215   -6.9663   21.4165 O   0  0  0  0  0  0  0  0  0  0  0  0
  -26.1483  -21.0401   21.9547 O   0  0  0  0  0  0  0  0  0  1  0  0
  -19.9862   -4.3324   16.8938 F   0  0  0  0  0  0  0  0  0  0  0  0
  -19.0282   -6.5215   20.9798 F   0  0  0  0  0  0  0  0  0  0  0  0
  -30.3800  -16.0302   18.6157 F   0  0  0  0  0  0  0  0  0  0  0  0
  -29.8124  -17.5301   17.1555 F   0  0  0  0  0  0  0  0  0  0  0  0
  -31.7528  -17.6454   18.1304 F   0  0  0  0  0  0  0  0  0  0  0  0
  1  2  1  0  0  0  0
  1  5  2  0  0  0  0
  2  6  2  0  0  0  0
  3  8  2  0  0  0  0
  3 16  1  0  0  0  0
  4  9  1  0  0  0  0
  4 16  2  0  0  0  0
  5 18  1  0  0  0  0
  6 20  1  0  0  0  0
  7 10  2  0  0  0  0
  7 19  1  0  0  0  0
  8 22  1  0  0  0  0
  9 22  2  0  0  0  0
 10 23  1  0  0  0  0
 11 12  2  0  0  0  0
 11 24  1  0  0  0  0
 12 25  1  0  0  0  0
 13 21  1  0  0  0  0
 13 23  2  0  0  0  0
 14 25  2  0  0  0  0
 14 26  1  0  0  0  0
 15 62  2  0  0  0  0
 15 64  1  0  0  0  0
 16 27  1  0  0  0  0
 17 27  1  0  0  0  0
 17 30  2  0  0  0  0
 17 31  1  0  0  0  0
 18 20  2  0  0  0  0
 18 36  1  0  0  0  0
 19 21  2  0  0  0  0
 19 37  1  0  0  0  0
 20 45  1  0  0  0  0
 21 38  1  0  0  0  0
 22 79  1  0  0  0  0
 23 80  1  0  0  0  0
 24 26  2  0  0  0  0
 24 79  1  0  0  0  0
 25 81  1  0  0  0  0
 26 82  1  0  0  0  0
 27 63  2  0  0  0  0
 28 29  2  0  0  0  0
 28 60  1  0  0  0  0
 28 62  1  0  0  0  0
 29 54  1  0  0  0  0
 29 64  1  0  0  0  0
 30 65  1  0  0  0  0
 30 68  1  0  0  0  0
 31 69  1  0  0  0  0
 31 74  2  0  0  0  0
 32 46  1  0  0  0  0
 32 70  1  0  0  0  0
 32 75  2  0  0  0  0
 33 58  1  0  0  0  0
 33 66  1  0  0  0  0
 33 76  2  0  0  0  0
 34 59  1  0  0  0  0
 34 71  1  0  0  0  0
 34 77  2  0  0  0  0
 35 67  1  0  0  0  0
 35 72  1  0  0  0  0
 35 78  2  0  0  0  0
 36 39  1  0  0  0  0
 37 46  1  0  0  0  0
 38 66  1  0  0  0  0
 39 41  1  0  0  0  0
 40 42  1  0  0  0  0
 40 43  1  0  0  0  0
 41 45  1  0  0  0  0
 42 47  1  0  0  0  0
 43 67  1  0  0  0  0
 44 47  1  0  0  0  0
 44 67  1  0  0  0  0
 45 70  1  0  0  0  0
 46 66  1  0  0  0  0
 47 65  1  0  0  0  0
 48 59  1  0  0  0  0
 49 61  1  0  0  0  0
 50 61  1  0  0  0  0
 51 61  1  0  0  0  0
 52 72  1  0  0  0  0
 53 73  1  0  0  0  0
 54 72  1  0  0  0  0
 55 56  1  0  0  0  0
 55 57  1  0  0  0  0
 56 64  1  0  0  0  0
 57 80  1  0  0  0  0
 58 61  1  0  0  0  0
 58 71  1  0  0  0  0
 59 73  1  0  0  0  0
 60 83  1  0  0  0  0
 60 84  1  0  0  0  0
 60 85  1  0  0  0  0
 63 65  1  0  0  0  0
M  CHG  1  73   1
M  ISO  4  35 100  57 101  72 100  80 101
M  END
> <Batch ID>
0058

> <Smiles>
CNC(C)C(=O)NC(C(=O)N1Cc2cc([101O:1][101CH2:1]CCn3cnc(C(F)(F)F)c3C[100N:0](C)[100C:0](=O)N3CCCC(n4nc(-c5ccc(Oc6ccc(F)cc6F)cc5)c(C(N)=O)c4N)C3)ccc2CC1C(=O)NC1CCCc2ccccc21)C(C)(C)C

> <Shape>
0.267

> <Color>
0.162

> <Negative vol penalty>
0.000

$$$$

  -OEChem-04052317503D

 86 94  0     1  0  0  0  0  0999 V2000
  -22.1752  -11.9785   20.2868 C   0  0  0  0  0  0  0  0  0  0  0  0
  -21.8791  -13.2381   20.7979 C   0  0  0  0  0  0  0  0  0  0  0  0
  -26.8249  -28.3094   21.0932 C   0  0  0  0  0  0  0  0  0  0  0  0
  -26.1418  -26.2806   19.9732 C   0  0  0  0  0  0  0  0  0  0  0  0
  -23.5029  -11.6038   20.0851 C   0  0  0  0  0  0  0  0  0  0  0  0
  -22.9107  -14.1233   21.1087 C   0  0  0  0  0  0  0  0  0  0  0  0
  -22.8239  -20.2210   20.5460 C   0  0  0  0  0  0  0  0  0  0  0  0
  -25.8227  -29.0147   20.4270 C   0  0  0  0  0  0  0  0  0  0  0  0
  -25.1396  -26.9859   19.3070 C   0  0  0  0  0  0  0  0  0  0  0  0
  -22.5973  -21.2446   21.4650 C   0  0  0  0  0  0  0  0  0  0  0  0
  -22.4815  -29.4539   20.7029 C   0  0  0  0  0  0  0  0  0  0  0  0
  -21.7063  -30.3405   21.4504 C   0  0  0  0  0  0  0  0  0  0  0  0
  -24.9777  -21.4886   21.7710 C   0  0  0  0  0  0  0  0  0  0  0  0
  -22.4347  -32.1640   20.0428 C   0  0  0  0  0  0  0  0  0  0  0  0
  -23.2687  -20.9162   25.9347 C   0  0  0  0  0  0  0  0  0  0  0  0
  -23.0948  -23.4942   25.2635 C   0  0  0  0  0  0  0  0  0  0  0  0
  -26.9845  -26.9424   20.8663 C   0  0  0  0  0  0  0  0  0  0  0  0
  -29.4069  -26.4469   21.4939 C   0  0  0  0  0  0  0  0  0  0  0  0
  -24.5509  -12.4884   20.3845 C   0  0  0  0  0  0  0  0  0  0  0  0
  -24.1310  -19.8154   20.2402 C   0  0  0  0  0  0  0  0  0  0  0  0
  -24.2537  -13.7596   20.9120 C   0  0  0  0  0  0  0  0  0  0  0  0
  -25.2182  -20.4613   20.8458 C   0  0  0  0  0  0  0  0  0  0  0  0
  -24.9800  -28.3529   19.5340 C   0  0  0  0  0  0  0  0  0  0  0  0
  -23.6742  -21.8767   22.0798 C   0  0  0  0  0  0  0  0  0  0  0  0
  -23.2334  -29.9223   19.6255 C   0  0  0  0  0  0  0  0  0  0  0  0
  -21.6829  -31.6955   21.1203 C   0  0  0  0  0  0  0  0  0  0  0  0
  -23.2099  -31.2774   19.2954 C   0  0  0  0  0  0  0  0  0  0  0  0
  -28.0199  -26.2134   21.5537 C   0  0  0  0  0  0  0  0  0  0  0  0
  -23.0464  -21.8855   26.8880 C   0  0  0  0  0  0  0  0  0  0  0  0
  -23.3175  -22.5249   24.3103 C   0  0  0  0  0  0  0  0  0  1  0  0
  -29.9515  -25.4928   22.3183 C   0  0  0  0  0  0  0  0  0  0  0  0
  -30.1377  -27.4377   20.7590 C   0  0  0  0  0  0  0  0  0  0  0  0
  -25.7700  -17.1094   20.5485 C   0  0  0  0  0  0  0  0  0  0  0  0
  -28.0349  -18.7501   18.9051 C   0  0  0  0  0  0  0  0  0  0  0  0
  -29.3420  -21.7710   18.0038 C   0  0  0  0  0  0  0  0  0  0  0  0
  -27.7529  -22.5911   26.9660 C   0  0  0  0  0  0  0  0  0  0  0  0
  -25.9722  -12.0211   20.1939 C   0  0  0  0  0  0  0  0  0  0  0  0
  -24.3594  -18.7277   19.2267 C   0  0  0  0  0  0  0  0  0  0  0  0
  -26.6414  -20.0771   20.5369 C   0  0  0  0  0  0  0  0  0  0  0  0
  -26.9923  -13.1567   20.1969 C   0  0  0  0  0  0  0  0  0  0  0  0
  -29.1417  -21.0800   23.9852 C   0  0  0  0  0  0  0  0  0  0  0  0
  -26.7284  -14.1084   21.3594 C   0  0  0  0  0  0  0  0  0  0  0  0
  -29.1402  -22.2631   23.0155 C   0  0  0  0  0  0  0  0  0  0  0  0
  -27.9075  -21.0989   24.8823 C   0  0  0  0  0  0  0  0  0  0  0  0
  -27.7194  -23.5478   24.6800 C   0  0  0  0  0  0  0  0  0  0  0  0
  -25.3441  -14.7570   21.2380 C   0  0  1  0  0  0  0  0  0  0  0  0
  -25.7167  -18.0474   19.3759 C   0  0  1  0  0  0  0  0  0  0  0  0
  -28.9531  -23.5980   23.7605 C   0  0  2  0  0  0  0  0  0  0  0  0
  -31.2170  -22.7915   16.6845 C   0  0  0  0  0  0  0  0  0  0  0  0
  -21.5183  -21.9449   28.8674 C   0  0  0  0  0  0  0  0  0  0  0  0
  -29.9873  -18.0502   21.1431 C   0  0  0  0  0  0  0  0  0  0  0  0
  -31.5113  -19.8383   20.2781 C   0  0  0  0  0  0  0  0  0  0  0  0
  -30.9406  -17.8837   18.8370 C   0  0  0  0  0  0  0  0  0  0  0  0
  -28.9856  -22.3233   29.6920 C   0  0  0  0  0  0  0  0  0  0  0  0
  -27.9338  -20.0564   29.7239 C   0  0  0  0  0  0  0  0  0  0  0  0
  -27.4629  -23.1475   16.1781 C   0  0  0  0  0  0  0  0  0  0  0  0
  -23.9925  -22.0985   29.2471 C   0  0  0  0  0  0  0  0  0  0  0  0
  -26.4537  -22.0654   29.6715 C   0  0  0  0  0  0  0  0  0  0  0  0
  -29.1871  -19.6501   19.2813 C   0  0  1  0  0  0  0  0  0  0  0  0
  -29.7711  -22.3210   16.6555 C   0  0  2  0  0  0  0  0  0  0  0  0
  -22.8973  -21.5144   28.3222 C   0  0  2  0  0  0  0  0  0  0  0  0
  -30.3798  -18.8617   19.8924 C   0  0  0  0  0  0  0  0  0  0  0  0
  -27.7976  -21.4900   29.1892 C   0  0  0  0  0  0  0  0  0  0  0  0
  -22.9552  -23.1919   26.5695 N   0  0  0  0  0  0  0  0  0  0  0  0
  -23.4083  -21.2185   24.6287 N   0  0  0  0  0  0  0  0  0  0  0  0
  -27.7031  -25.1911   22.3527 N   0  0  0  0  0  0  0  0  0  0  0  0
  -28.8987  -24.7736   22.8025 N   0  0  0  0  0  0  0  0  0  0  0  0
  -26.8128  -19.0037   19.5439 N   0  0  0  0  0  0  0  0  0  0  0  0
  -27.7980  -22.3897   25.5765 N   0  0  0  0  0  0  0  0  0  0  0  0
  -31.2235  -25.2071   22.6688 N   0  0  0  0  0  0  0  0  0  0  0  0
  -30.5673  -27.1256   19.4620 N   0  0  0  0  0  0  0  0  0  0  0  0
  -25.3684  -15.8200   20.2562 N   0  0  0  0  0  0  0  0  0  0  0  0
  -29.5235  -20.4063   18.0799 N   0  0  0  0  0  0  0  0  0  0  0  0
  -27.8259  -21.4423   27.7443 N   0  0  0  0  0  0  0  0  0  0  0  0
  -28.9095  -23.4736   16.2683 N   0  3  0  0  0  0  0  0  0  0  0  0
  -25.3192  -21.5526   28.8580 N   0  3  0  0  0  0  0  0  0  0  0  0
  -30.4160  -28.5603   21.2445 O   0  0  0  0  0  0  0  0  0  0  0  0
  -26.1490  -17.5245   21.6375 O   0  0  0  0  0  0  0  0  0  0  0  0
  -28.2108  -17.8596   18.0698 O   0  0  0  0  0  0  0  0  0  0  0  0
  -28.8943  -22.4815   18.9011 O   0  0  0  0  0  0  0  0  0  0  0  0
  -27.6598  -23.7128   27.4761 O   0  0  0  0  0  0  0  0  0  0  0  0
  -24.0018  -29.0408   18.8839 O   0  0  0  0  0  0  0  0  0  0  0  0
  -23.4557  -22.8757   22.9777 O   0  0  0  0  0  0  0  0  0  1  0  0
  -20.9373  -32.5465   21.8372 F   0  0  0  0  0  0  0  0  0  0  0  0
  -23.9292  -31.7331   18.2606 F   0  0  0  0  0  0  0  0  0  0  0  0
  -22.9384  -20.1453   28.5387 F   0  0  0  0  0  0  0  0  0  0  0  0
  1  2  1  0  0  0  0
  1  5  2  0  0  0  0
  2  6  2  0  0  0  0
  3  8  2  0  0  0  0
  3 17  1  0  0  0  0
  4  9  1  0  0  0  0
  4 17  2  0  0  0  0
  5 19  1  0  0  0  0
  6 21  1  0  0  0  0
  7 10  2  0  0  0  0
  7 20  1  0  0  0  0
  8 23  1  0  0  0  0
  9 23  2  0  0  0  0
 10 24  1  0  0  0  0
 11 12  2  0  0  0  0
 11 25  1  0  0  0  0
 12 26  1  0  0  0  0
 13 22  1  0  0  0  0
 13 24  2  0  0  0  0
 14 26  2  0  0  0  0
 14 27  1  0  0  0  0
 15 29  2  0  0  0  0
 15 65  1  0  0  0  0
 16 30  1  0  0  0  0
 16 64  2  0  0  0  0
 17 28  1  0  0  0  0
 18 28  1  0  0  0  0
 18 31  2  0  0  0  0
 18 32  1  0  0  0  0
 19 21  2  0  0  0  0
 19 37  1  0  0  0  0
 20 22  2  0  0  0  0
 20 38  1  0  0  0  0
 21 46  1  0  0  0  0
 22 39  1  0  0  0  0
 23 82  1  0  0  0  0
 24 83  1  0  0  0  0
 25 27  2  0  0  0  0
 25 82  1  0  0  0  0
 26 84  1  0  0  0  0
 27 85  1  0  0  0  0
 28 66  2  0  0  0  0
 29 61  1  0  0  0  0
 29 64  1  0  0  0  0
 30 65  2  0  0  0  0
 30 83  1  0  0  0  0
 31 67  1  0  0  0  0
 31 70  1  0  0  0  0
 32 71  1  0  0  0  0
 32 77  2  0  0  0  0
 33 47  1  0  0  0  0
 33 72  1  0  0  0  0
 33 78  2  0  0  0  0
 34 59  1  0  0  0  0
 34 68  1  0  0  0  0
 34 79  2  0  0  0  0
 35 60  1  0  0  0  0
 35 73  1  0  0  0  0
 35 80  2  0  0  0  0
 36 69  1  0  0  0  0
 36 74  1  0  0  0  0
 36 81  2  0  0  0  0
 37 40  1  0  0  0  0
 38 47  1  0  0  0  0
 39 68  1  0  0  0  0
 40 42  1  0  0  0  0
 41 43  1  0  0  0  0
 41 44  1  0  0  0  0
 42 46  1  0  0  0  0
 43 48  1  0  0  0  0
 44 69  1  0  0  0  0
 45 48  1  0  0  0  0
 45 69  1  0  0  0  0
 46 72  1  0  0  0  0
 47 68  1  0  0  0  0
 48 67  1  0  0  0  0
 49 60  1  0  0  0  0
 50 61  1  0  0  0  0
 51 62  1  0  0  0  0
 52 62  1  0  0  0  0
 53 62  1  0  0  0  0
 54 63  1  0  0  0  0
 55 63  1  0  0  0  0
 56 75  1  0  0  0  0
 57 61  1  0  0  0  0
 57 76  1  0  0  0  0
 58 63  1  0  0  0  0
 58 76  1  0  0  0  0
 59 62  1  0  0  0  0
 59 73  1  0  0  0  0
 60 75  1  0  0  0  0
 61 86  1  0  0  0  0
 63 74  1  0  0  0  0
 66 67  1  0  0  0  0
M  CHG  2  75   1  76   1
M  ISO  4  30 101  36 100  74 100  83 101
M  END
> <Batch ID>
0058

> <Smiles>
CNC(C)C(=O)NC(C(=O)N1Cc2cc([101O:1][101c:1]3cnc(C(C)(F)CNCC(C)(C)[100NH:0][100C:0](=O)N4CCCC(n5nc(-c6ccc(Oc7ccc(F)cc7F)cc6)c(C(N)=O)c5N)C4)cn3)ccc2CC1C(=O)NC1CCCc2ccccc21)C(C)(C)C

> <Shape>
0.181

> <Color>
0.047

> <Negative vol penalty>
0.000

$$$$

  -OEChem-04052317503D

 82 90  0     1  0  0  0  0  0999 V2000
  -19.9608  -12.1474   18.7824 C   0  0  0  0  0  0  0  0  0  0  0  0
  -20.4520  -13.3101   18.1974 C   0  0  0  0  0  0  0  0  0  0  0  0
  -19.5168  -25.1605   21.4929 C   0  0  0  0  0  0  0  0  0  0  0  0
  -20.9511  -23.6634   22.7333 C   0  0  0  0  0  0  0  0  0  0  0  0
  -20.5382  -11.6604   19.9543 C   0  0  0  0  0  0  0  0  0  0  0  0
  -21.5202  -13.9872   18.7847 C   0  0  0  0  0  0  0  0  0  0  0  0
  -27.2375  -17.9494   17.0730 C   0  0  0  0  0  0  0  0  0  0  0  0
  -18.5808  -24.1376   21.3407 C   0  0  0  0  0  0  0  0  0  0  0  0
  -20.0150  -22.6405   22.5812 C   0  0  0  0  0  0  0  0  0  0  0  0
  -27.8319  -19.1722   17.3815 C   0  0  0  0  0  0  0  0  0  0  0  0
  -18.1662  -19.5334   22.2109 C   0  0  0  0  0  0  0  0  0  0  0  0
  -18.6376  -18.2720   21.8471 C   0  0  0  0  0  0  0  0  0  0  0  0
  -28.8016  -18.1943   19.3621 C   0  0  0  0  0  0  0  0  0  0  0  0
  -19.5457  -19.1991   19.8092 C   0  0  0  0  0  0  0  0  0  0  0  0
  -30.8608  -23.1723   17.7799 C   0  0  0  0  0  0  0  0  0  0  0  0
  -20.7020  -24.9234   22.1892 C   0  0  0  0  0  0  0  0  0  0  0  0
  -21.7423  -26.9168   23.3939 C   0  0  0  0  0  0  0  0  0  0  0  0
  -21.6203  -12.3265   20.5509 C   0  0  0  0  0  0  0  0  0  0  0  0
  -27.4120  -16.8409   17.9139 C   0  0  0  0  0  0  0  0  0  0  0  0
  -22.1117  -13.5094   19.9664 C   0  0  0  0  0  0  0  0  0  0  0  0
  -28.2104  -16.9579   19.0607 C   0  0  0  0  0  0  0  0  0  0  0  0
  -18.8298  -22.8777   21.8849 C   0  0  0  0  0  0  0  0  0  0  0  0
  -28.6117  -19.2956   18.5276 C   0  0  0  0  0  0  0  0  0  0  0  0
  -18.3845  -20.6276   21.3738 C   0  0  0  0  0  0  0  0  0  0  0  0
  -19.3273  -18.1049   20.6463 C   0  0  0  0  0  0  0  0  0  0  0  0
  -19.0743  -20.4605   20.1730 C   0  0  0  0  0  0  0  0  0  0  0  0
  -21.6696  -25.9794   22.3462 C   0  0  0  0  0  0  0  0  0  0  0  0
  -31.4767  -24.2951   18.2940 C   0  0  0  0  0  0  0  0  0  0  0  0
  -29.7028  -22.7805   18.4201 C   0  0  0  0  0  0  0  0  0  0  0  0
  -22.8285  -27.6973   23.0816 C   0  0  0  0  0  0  0  0  0  0  0  0
  -29.8704  -24.5078   19.8883 C   0  0  0  0  0  0  0  0  0  0  0  0
  -20.9031  -27.0685   24.5465 C   0  0  0  0  0  0  0  0  0  0  0  0
  -25.4728  -15.0100   19.6434 C   0  0  0  0  0  0  0  0  0  0  0  0
  -28.1771  -13.2887   20.1399 C   0  0  0  0  0  0  0  0  0  0  0  0
  -31.5876  -13.2154   20.2378 C   0  0  0  0  0  0  0  0  0  0  0  0
  -27.7487  -26.7174   19.8132 C   0  0  0  0  0  0  0  0  0  0  0  0
  -22.1809  -11.7879   21.8433 C   0  0  0  0  0  0  0  0  0  0  0  0
  -26.7859  -15.5217   17.5530 C   0  0  0  0  0  0  0  0  0  0  0  0
  -28.4454  -15.7927   19.9856 C   0  0  0  0  0  0  0  0  0  0  0  0
  -23.5519  -12.3584   22.1971 C   0  0  0  0  0  0  0  0  0  0  0  0
  -25.3386  -29.2939   19.3344 C   0  0  0  0  0  0  0  0  0  0  0  0
  -23.5622  -13.8732   22.0182 C   0  0  0  0  0  0  0  0  0  0  0  0
  -24.1315  -28.8212   20.1466 C   0  0  0  0  0  0  0  0  0  0  0  0
  -26.0631  -28.1262   18.6685 C   0  0  0  0  0  0  0  0  0  0  0  0
  -25.2519  -26.5671   20.3962 C   0  0  0  0  0  0  0  0  0  0  0  0
  -23.2851  -14.2584   20.5599 C   0  0  1  0  0  0  0  0  0  0  0  0
  -26.6097  -14.5958   18.7526 C   0  0  1  0  0  0  0  0  0  0  0  0
  -24.5219  -27.7035   21.1323 C   0  0  2  0  0  0  0  0  0  0  0  0
  -32.7348  -24.7956   17.6672 C   0  0  0  0  0  0  0  0  0  0  0  0
  -33.5120  -11.6758   20.7109 C   0  0  0  0  0  0  0  0  0  0  0  0
  -30.1321  -26.4998   21.5107 C   0  0  0  0  0  0  0  0  0  0  0  0
  -29.2188  -24.3199   22.2988 C   0  0  0  0  0  0  0  0  0  0  0  0
  -27.6332  -13.5324   23.1324 C   0  0  0  0  0  0  0  0  0  0  0  0
  -30.0029  -12.8398   23.5486 C   0  0  0  0  0  0  0  0  0  0  0  0
  -28.4332  -11.2798   22.3975 C   0  0  0  0  0  0  0  0  0  0  0  0
  -32.6544  -13.5173   17.4938 C   0  0  0  0  0  0  0  0  0  0  0  0
  -28.9610  -21.5712   17.9316 C   0  0  0  0  0  0  0  0  0  1  0  0
  -29.2875  -13.3136   21.1622 C   0  0  1  0  0  0  0  0  0  0  0  0
  -32.5918  -12.2450   19.6423 C   0  0  2  0  0  0  0  0  0  0  0  0
  -29.3179  -25.2512   21.0570 C   0  0  0  0  0  0  0  0  0  0  0  0
  -28.8334  -12.7641   22.5440 C   0  0  0  0  0  0  0  0  0  0  0  0
  -22.6328  -26.1474   21.4362 N   0  0  0  0  0  0  0  0  0  0  0  0
  -31.0073  -24.9898   19.3510 N   0  0  0  0  0  0  0  0  0  0  0  0
  -29.1774  -23.4273   19.4813 N   0  0  0  0  0  0  0  0  0  0  0  0
  -23.3210  -27.1995   21.9112 N   0  0  0  0  0  0  0  0  0  0  0  0
  -27.8068  -14.5255   19.5930 N   0  0  0  0  0  0  0  0  0  0  0  0
  -26.4067  -27.1020   19.6579 N   0  0  0  0  0  0  0  0  0  0  0  0
  -23.4008  -28.7540   23.6966 N   0  0  0  0  0  0  0  0  0  0  0  0
  -19.8311  -26.1813   24.7139 N   0  0  0  0  0  0  0  0  0  0  0  0
  -24.4703  -14.0652   19.7522 N   0  0  0  0  0  0  0  0  0  0  0  0
  -30.4052  -12.5878   20.5686 N   0  0  0  0  0  0  0  0  0  0  0  0
  -27.9882  -25.7454   20.7769 N   0  0  0  0  0  0  0  0  0  0  0  0
  -33.4290  -12.9302   18.6174 N   0  3  0  0  0  0  0  0  0  0  0  0
  -21.0883  -27.9745   25.3941 O   0  0  0  0  0  0  0  0  0  0  0  0
  -25.5035  -16.1051   20.1926 O   0  0  0  0  0  0  0  0  0  0  0  0
  -27.6621  -12.2108   19.8325 O   0  0  0  0  0  0  0  0  0  0  0  0
  -31.8294  -14.4098   20.3974 O   0  0  0  0  0  0  0  0  0  0  0  0
  -28.6662  -27.2080   19.1464 O   0  0  0  0  0  0  0  0  0  0  0  0
  -17.9166  -21.8794   21.7368 O   0  0  0  0  0  0  0  0  0  0  0  0
  -29.1926  -20.4881   18.8314 O   0  0  0  0  0  0  0  0  0  1  0  0
  -19.7813  -16.8938   20.2978 F   0  0  0  0  0  0  0  0  0  0  0  0
  -19.2881  -21.5082   19.3653 F   0  0  0  0  0  0  0  0  0  0  0  0
  1  2  1  0  0  0  0
  1  5  2  0  0  0  0
  2  6  2  0  0  0  0
  3  8  2  0  0  0  0
  3 16  1  0  0  0  0
  4  9  1  0  0  0  0
  4 16  2  0  0  0  0
  5 18  1  0  0  0  0
  6 20  1  0  0  0  0
  7 10  2  0  0  0  0
  7 19  1  0  0  0  0
  8 22  1  0  0  0  0
  9 22  2  0  0  0  0
 10 23  1  0  0  0  0
 11 12  2  0  0  0  0
 11 24  1  0  0  0  0
 12 25  1  0  0  0  0
 13 21  1  0  0  0  0
 13 23  2  0  0  0  0
 14 25  2  0  0  0  0
 14 26  1  0  0  0  0
 15 28  2  0  0  0  0
 15 29  1  0  0  0  0
 16 27  1  0  0  0  0
 17 27  1  0  0  0  0
 17 30  2  0  0  0  0
 17 32  1  0  0  0  0
 18 20  2  0  0  0  0
 18 37  1  0  0  0  0
 19 21  2  0  0  0  0
 19 38  1  0  0  0  0
 20 46  1  0  0  0  0
 21 39  1  0  0  0  0
 22 79  1  0  0  0  0
 23 80  1  0  0  0  0
 24 26  2  0  0  0  0
 24 79  1  0  0  0  0
 25 81  1  0  0  0  0
 26 82  1  0  0  0  0
 27 62  2  0  0  0  0
 28 49  1  0  0  0  0
 28 63  1  0  0  0  0
 29 57  1  0  0  0  0
 29 64  2  0  0  0  0
 30 65  1  0  0  0  0
 30 68  1  0  0  0  0
 31 60  1  0  0  0  0
 31 63  2  0  0  0  0
 31 64  1  0  0  0  0
 32 69  1  0  0  0  0
 32 74  2  0  0  0  0
 33 47  1  0  0  0  0
 33 70  1  0  0  0  0
 33 75  2  0  0  0  0
 34 58  1  0  0  0  0
 34 66  1  0  0  0  0
 34 76  2  0  0  0  0
 35 59  1  0  0  0  0
 35 71  1  0  0  0  0
 35 77  2  0  0  0  0
 36 67  1  0  0  0  0
 36 72  1  0  0  0  0
 36 78  2  0  0  0  0
 37 40  1  0  0  0  0
 38 47  1  0  0  0  0
 39 66  1  0  0  0  0
 40 42  1  0  0  0  0
 41 43  1  0  0  0  0
 41 44  1  0  0  0  0
 42 46  1  0  0  0  0
 43 48  1  0  0  0  0
 44 67  1  0  0  0  0
 45 48  1  0  0  0  0
 45 67  1  0  0  0  0
 46 70  1  0  0  0  0
 47 66  1  0  0  0  0
 48 65  1  0  0  0  0
 50 59  1  0  0  0  0
 51 60  1  0  0  0  0
 52 60  1  0  0  0  0
 53 61  1  0  0  0  0
 54 61  1  0  0  0  0
 55 61  1  0  0  0  0
 56 73  1  0  0  0  0
 57 80  1  0  0  0  0
 58 61  1  0  0  0  0
 58 71  1  0  0  0  0
 59 73  1  0  0  0  0
 60 72  1  0  0  0  0
 62 65  1  0  0  0  0
M  CHG  1  73   1
M  ISO  4  36 100  57 101  72 100  80 101
M  END
> <Batch ID>
0058

> <Smiles>
CNC(C)C(=O)NC(C(=O)N1Cc2cc([101O:1][101CH2:1]c3cc(C)nc(C(C)(C)[100NH:0][100C:0](=O)N4CCCC(n5nc(-c6ccc(Oc7ccc(F)cc7F)cc6)c(C(N)=O)c5N)C4)n3)ccc2CC1C(=O)NC1CCCc2ccccc21)C(C)(C)C

> <Shape>
0.216

> <Color>
0.090

> <Negative vol penalty>
0.000

$$$$

  -OEChem-04052317503D

 79 87  0     1  0  0  0  0  0999 V2000
  -29.7853  -36.0600   23.1956 C   0  0  0  0  0  0  0  0  0  0  0  0
  -29.9170  -34.8815   22.4682 C   0  0  0  0  0  0  0  0  0  0  0  0
  -26.4116  -13.3535   21.6904 C   0  0  0  0  0  0  0  0  0  0  0  0
  -26.1382  -13.8505   19.3420 C   0  0  0  0  0  0  0  0  0  0  0  0
  -28.9092  -36.1152   24.2787 C   0  0  0  0  0  0  0  0  0  0  0  0
  -29.1733  -33.7570   22.8243 C   0  0  0  0  0  0  0  0  0  0  0  0
  -26.8483  -29.5335   19.0477 C   0  0  0  0  0  0  0  0  0  0  0  0
  -25.1060  -12.8653   21.7391 C   0  0  0  0  0  0  0  0  0  0  0  0
  -24.8325  -13.3622   19.3907 C   0  0  0  0  0  0  0  0  0  0  0  0
  -27.2929  -28.2676   18.6687 C   0  0  0  0  0  0  0  0  0  0  0  0
  -21.9664  -11.1549   22.3973 C   0  0  0  0  0  0  0  0  0  0  0  0
  -21.7489   -9.9510   23.0673 C   0  0  0  0  0  0  0  0  0  0  0  0
  -25.8820  -27.2741   20.3545 C   0  0  0  0  0  0  0  0  0  0  0  0
  -23.2520   -8.8310   21.5431 C   0  0  0  0  0  0  0  0  0  0  0  0
  -29.7341  -23.7594   17.6821 C   0  0  0  0  0  0  0  0  0  0  0  0
  -26.9277  -13.8462   20.4918 C   0  0  0  0  0  0  0  0  0  0  0  0
  -29.4460  -13.6240   20.1507 C   0  0  0  0  0  0  0  0  0  0  0  0
  -28.1471  -34.9937   24.6423 C   0  0  0  0  0  0  0  0  0  0  0  0
  -25.9240  -29.6802   20.0920 C   0  0  0  0  0  0  0  0  0  0  0  0
  -28.2870  -33.7968   23.9142 C   0  0  0  0  0  0  0  0  0  0  0  0
  -25.4254  -28.5428   20.7431 C   0  0  0  0  0  0  0  0  0  0  0  0
  -24.3164  -12.8696   20.5893 C   0  0  0  0  0  0  0  0  0  0  0  0
  -26.8119  -27.1378   19.3241 C   0  0  0  0  0  0  0  0  0  0  0  0
  -22.8268  -11.1968   21.3001 C   0  0  0  0  0  0  0  0  0  0  0  0
  -22.3917   -8.7891   22.6402 C   0  0  0  0  0  0  0  0  0  0  0  0
  -23.4696  -10.0349   20.8730 C   0  0  0  0  0  0  0  0  0  0  0  0
  -28.2762  -14.3513   20.4410 C   0  0  0  0  0  0  0  0  0  0  0  0
  -28.5202  -24.3961   17.6177 C   0  0  0  0  0  0  0  0  0  0  0  0
  -30.4556  -14.5520   20.2286 C   0  0  0  0  0  0  0  0  0  0  0  0
  -29.6058  -12.2338   19.8383 C   0  0  0  0  0  0  0  0  0  0  0  0
  -25.9595  -31.0988   22.9363 C   0  0  0  0  0  0  0  0  0  0  0  0
  -30.4707  -20.5276   19.5938 C   0  0  0  0  0  0  0  0  0  0  0  0
  -22.8252  -30.2635   22.9581 C   0  0  0  0  0  0  0  0  0  0  0  0
  -20.3705  -28.1929   21.8029 C   0  0  0  0  0  0  0  0  0  0  0  0
  -27.2484  -35.0872   25.8498 C   0  0  0  0  0  0  0  0  0  0  0  0
  -25.4342  -31.0509   20.4709 C   0  0  0  0  0  0  0  0  0  0  0  0
  -24.4167  -28.6450   21.8569 C   0  0  0  0  0  0  0  0  0  0  0  0
  -26.2183  -33.9635   25.9310 C   0  0  0  0  0  0  0  0  0  0  0  0
  -31.6376  -18.6367   22.4049 C   0  0  0  0  0  0  0  0  0  0  0  0
  -26.8781  -32.6143   25.6642 C   0  0  0  0  0  0  0  0  0  0  0  0
  -30.9913  -17.2659   22.2087 C   0  0  0  0  0  0  0  0  0  0  0  0
  -30.7203  -19.7595   21.9309 C   0  0  0  0  0  0  0  0  0  0  0  0
  -29.6159  -18.2435   20.3173 C   0  0  0  0  0  0  0  0  0  0  0  0
  -27.4791  -32.5633   24.2543 C   0  0  1  0  0  0  0  0  0  0  0  0
  -24.8803  -31.1161   21.8909 C   0  0  1  0  0  0  0  0  0  0  0  0
  -30.5219  -17.0791   20.7551 C   0  0  2  0  0  0  0  0  0  0  0  0
  -17.9146  -27.7305   22.0308 C   0  0  0  0  0  0  0  0  0  0  0  0
  -30.4147  -20.8436   15.7907 C   0  0  0  0  0  0  0  0  0  0  0  0
  -23.3297  -28.9246   25.6531 C   0  0  0  0  0  0  0  0  0  0  0  0
  -21.1627  -27.7024   25.3730 C   0  0  0  0  0  0  0  0  0  0  0  0
  -21.1797  -30.1934   25.5048 C   0  0  0  0  0  0  0  0  0  0  0  0
  -19.8809  -28.7545   18.9387 C   0  0  0  0  0  0  0  0  0  0  0  0
  -28.1921  -25.8344   17.8916 C   0  0  0  0  0  0  0  0  0  1  0  0
  -29.9928  -20.2206   18.1969 C   0  0  0  0  0  0  0  0  0  0  0  0
  -22.0435  -29.0567   23.4183 C   0  0  1  0  0  0  0  0  0  0  0  0
  -18.9849  -28.4815   21.2542 C   0  0  2  0  0  0  0  0  0  0  0  0
  -30.3483  -21.3625   17.2313 C   0  0  2  0  0  0  0  0  0  0  0  0
  -21.9494  -28.9672   24.9676 C   0  0  0  0  0  0  0  0  0  0  0  0
  -28.5188  -15.6418   20.6854 N   0  0  0  0  0  0  0  0  0  0  0  0
  -27.5536  -23.5054   17.2409 N   0  0  0  0  0  0  0  0  0  0  0  0
  -28.1335  -22.3226   17.0681 N   0  0  0  0  0  0  0  0  0  0  0  0
  -29.4408  -22.4770   17.3333 N   0  0  0  0  0  0  0  0  0  0  0  0
  -29.8526  -15.7327   20.5488 N   0  0  0  0  0  0  0  0  0  0  0  0
  -23.9733  -30.0075   22.1952 N   0  0  0  0  0  0  0  0  0  0  0  0
  -30.2783  -19.5337   20.5536 N   0  0  0  0  0  0  0  0  0  0  0  0
  -31.7914  -14.4650   20.0540 N   0  0  0  0  0  0  0  0  0  0  0  0
  -28.4639  -11.4220   19.8003 N   0  0  0  0  0  0  0  0  0  0  0  0
  -26.4401  -32.3508   23.2695 N   0  0  0  0  0  0  0  0  0  0  0  0
  -20.7516  -29.1258   22.7441 N   0  0  0  0  0  0  0  0  0  0  0  0
  -18.8995  -28.0748   19.8230 N   0  3  0  0  0  0  0  0  0  0  0  0
  -30.7298  -11.7231   19.6162 O   0  0  0  0  0  0  0  0  0  0  0  0
  -26.3278  -30.0289   23.4068 O   0  0  0  0  0  0  0  0  0  0  0  0
  -31.0015  -21.6177   19.8225 O   0  0  0  0  0  0  0  0  0  0  0  0
  -22.4275  -31.3920   23.2582 O   0  0  0  0  0  0  0  0  0  0  0  0
  -21.0457  -27.2336   21.4363 O   0  0  0  0  0  0  0  0  0  0  0  0
  -23.0423  -12.3929   20.6364 O   0  0  0  0  0  0  0  0  0  0  0  0
  -27.2446  -25.9011   18.9566 O   0  0  0  0  0  0  0  0  0  1  0  0
  -22.1838   -7.6334   23.2847 F   0  0  0  0  0  0  0  0  0  0  0  0
  -24.2981  -10.0692   19.8203 F   0  0  0  0  0  0  0  0  0  0  0  0
  1  2  1  0  0  0  0
  1  5  2  0  0  0  0
  2  6  2  0  0  0  0
  3  8  2  0  0  0  0
  3 16  1  0  0  0  0
  4  9  1  0  0  0  0
  4 16  2  0  0  0  0
  5 18  1  0  0  0  0
  6 20  1  0  0  0  0
  7 10  2  0  0  0  0
  7 19  1  0  0  0  0
  8 22  1  0  0  0  0
  9 22  2  0  0  0  0
 10 23  1  0  0  0  0
 11 12  2  0  0  0  0
 11 24  1  0  0  0  0
 12 25  1  0  0  0  0
 13 21  1  0  0  0  0
 13 23  2  0  0  0  0
 14 25  2  0  0  0  0
 14 26  1  0  0  0  0
 15 28  2  0  0  0  0
 15 62  1  0  0  0  0
 16 27  1  0  0  0  0
 17 27  1  0  0  0  0
 17 29  2  0  0  0  0
 17 30  1  0  0  0  0
 18 20  2  0  0  0  0
 18 35  1  0  0  0  0
 19 21  2  0  0  0  0
 19 36  1  0  0  0  0
 20 44  1  0  0  0  0
 21 37  1  0  0  0  0
 22 76  1  0  0  0  0
 23 77  1  0  0  0  0
 24 26  2  0  0  0  0
 24 76  1  0  0  0  0
 25 78  1  0  0  0  0
 26 79  1  0  0  0  0
 27 59  2  0  0  0  0
 28 53  1  0  0  0  0
 28 60  1  0  0  0  0
 29 63  1  0  0  0  0
 29 66  1  0  0  0  0
 30 67  1  0  0  0  0
 30 71  2  0  0  0  0
 31 45  1  0  0  0  0
 31 68  1  0  0  0  0
 31 72  2  0  0  0  0
 32 54  1  0  0  0  0
 32 65  1  0  0  0  0
 32 73  2  0  0  0  0
 33 55  1  0  0  0  0
 33 64  1  0  0  0  0
 33 74  2  0  0  0  0
 34 56  1  0  0  0  0
 34 69  1  0  0  0  0
 34 75  2  0  0  0  0
 35 38  1  0  0  0  0
 36 45  1  0  0  0  0
 37 64  1  0  0  0  0
 38 40  1  0  0  0  0
 39 41  1  0  0  0  0
 39 42  1  0  0  0  0
 40 44  1  0  0  0  0
 41 46  1  0  0  0  0
 42 65  1  0  0  0  0
 43 46  1  0  0  0  0
 43 65  1  0  0  0  0
 44 68  1  0  0  0  0
 45 64  1  0  0  0  0
 46 63  1  0  0  0  0
 47 56  1  0  0  0  0
 48 57  1  0  0  0  0
 49 58  1  0  0  0  0
 50 58  1  0  0  0  0
 51 58  1  0  0  0  0
 52 70  1  0  0  0  0
 53 77  1  0  0  0  0
 54 57  1  0  0  0  0
 55 58  1  0  0  0  0
 55 69  1  0  0  0  0
 56 70  1  0  0  0  0
 57 62  1  0  0  0  0
 59 63  1  0  0  0  0
 60 61  2  0  0  0  0
 61 62  1  0  0  0  0
M  CHG  1  70   1
M  ISO  4  32 100  53 101  54 100  77 101
M  END
> <Batch ID>
0058

> <Smiles>
CNC(C)C(=O)NC(C(=O)N1Cc2cc([101O:1][101CH2:1]c3cn(C(C)[100CH2:0][100C:0](=O)N4CCCC(n5nc(-c6ccc(Oc7ccc(F)cc7F)cc6)c(C(N)=O)c5N)C4)nn3)ccc2CC1C(=O)NC1CCCc2ccccc21)C(C)(C)C

> <Shape>
0.316

> <Color>
0.079

> <Negative vol penalty>
0.000

$$$$

  -OEChem-04052317503D

 84 92  0     1  0  0  0  0  0999 V2000
  -18.6019  -24.1688   23.5896 C   0  0  0  0  0  0  0  0  0  0  0  0
  -19.9434  -24.1077   23.2263 C   0  0  0  0  0  0  0  0  0  0  0  0
  -25.3310  -15.6318   21.5095 C   0  0  0  0  0  0  0  0  0  0  0  0
  -25.4977  -15.0728   19.1650 C   0  0  0  0  0  0  0  0  0  0  0  0
  -17.9009  -25.3675   23.4645 C   0  0  0  0  0  0  0  0  0  0  0  0
  -20.5845  -25.2450   22.7365 C   0  0  0  0  0  0  0  0  0  0  0  0
  -25.1635  -25.9294   24.7882 C   0  0  0  0  0  0  0  0  0  0  0  0
  -24.2949  -14.7096   21.6558 C   0  0  0  0  0  0  0  0  0  0  0  0
  -24.4615  -14.1505   19.3112 C   0  0  0  0  0  0  0  0  0  0  0  0
  -26.2044  -25.1411   24.2995 C   0  0  0  0  0  0  0  0  0  0  0  0
  -23.9684  -11.3588   21.9698 C   0  0  0  0  0  0  0  0  0  0  0  0
  -24.0092  -10.5076   23.0740 C   0  0  0  0  0  0  0  0  0  0  0  0
  -26.9494  -26.9833   22.9318 C   0  0  0  0  0  0  0  0  0  0  0  0
  -21.8907  -11.3883   23.8313 C   0  0  0  0  0  0  0  0  0  0  0  0
  -30.4709  -23.4155   22.0821 C   0  0  0  0  0  0  0  0  0  0  0  0
  -25.9324  -15.8135   20.2641 C   0  0  0  0  0  0  0  0  0  0  0  0
  -28.3813  -16.5282   20.2668 C   0  0  0  0  0  0  0  0  0  0  0  0
  -18.5362  -26.5226   22.9820 C   0  0  0  0  0  0  0  0  0  0  0  0
  -25.0009  -27.2493   24.3434 C   0  0  0  0  0  0  0  0  0  0  0  0
  -19.8910  -26.4600   22.6036 C   0  0  0  0  0  0  0  0  0  0  0  0
  -25.9071  -27.7871   23.4183 C   0  0  0  0  0  0  0  0  0  0  0  0
  -23.8601  -13.9689   20.5567 C   0  0  0  0  0  0  0  0  0  0  0  0
  -27.0958  -25.6671   23.3690 C   0  0  0  0  0  0  0  0  0  0  0  0
  -22.8887  -12.2248   21.7963 C   0  0  0  0  0  0  0  0  0  0  0  0
  -22.9704  -10.5223   24.0048 C   0  0  0  0  0  0  0  0  0  0  0  0
  -21.8499  -12.2395   22.7270 C   0  0  0  0  0  0  0  0  0  0  0  0
  -27.0025  -16.7664   20.1122 C   0  0  0  0  0  0  0  0  0  0  0  0
  -31.2535  -22.2937   21.7491 C   0  0  0  0  0  0  0  0  0  0  0  0
  -29.3978  -22.8955   22.7636 C   0  0  0  0  0  0  0  0  0  0  0  0
  -28.9698  -17.7440   20.0179 C   0  0  0  0  0  0  0  0  0  0  0  0
  -29.0686  -15.3163   20.6051 C   0  0  0  0  0  0  0  0  0  0  0  0
  -22.7213  -28.8280   22.7894 C   0  0  0  0  0  0  0  0  0  0  0  0
  -24.6171  -31.3877   23.4028 C   0  0  0  0  0  0  0  0  0  0  0  0
  -27.7378  -32.5812   24.0980 C   0  0  0  0  0  0  0  0  0  0  0  0
  -29.1504  -22.2344   16.5365 C   0  0  0  0  0  0  0  0  0  0  0  0
  -17.7247  -27.7835   22.8199 C   0  0  0  0  0  0  0  0  0  0  0  0
  -23.8888  -28.0952   24.9003 C   0  0  0  0  0  0  0  0  0  0  0  0
  -25.7882  -29.2048   22.9240 C   0  0  0  0  0  0  0  0  0  0  0  0
  -18.5768  -29.0380   22.6452 C   0  0  0  0  0  0  0  0  0  0  0  0
  -26.9659  -22.3520   19.5224 C   0  0  0  0  0  0  0  0  0  0  0  0
  -19.6840  -28.7935   21.6249 C   0  0  0  0  0  0  0  0  0  0  0  0
  -26.8431  -20.8777   19.9035 C   0  0  0  0  0  0  0  0  0  0  0  0
  -27.2057  -22.5331   18.0266 C   0  0  0  0  0  0  0  0  0  0  0  0
  -28.2507  -20.2964   17.8883 C   0  0  0  0  0  0  0  0  0  0  0  0
  -20.6278  -27.6786   22.0915 C   0  0  1  0  0  0  0  0  0  0  0  0
  -23.5122  -29.2611   23.9913 C   0  0  1  0  0  0  0  0  0  0  0  0
  -28.0550  -20.0771   19.3960 C   0  0  2  0  0  0  0  0  0  0  0  0
  -28.9821  -34.7215   24.5084 C   0  0  0  0  0  0  0  0  0  0  0  0
  -24.5418  -32.0015   20.4149 C   0  0  0  0  0  0  0  0  0  0  0  0
  -26.5077  -33.5158   20.7473 C   0  0  0  0  0  0  0  0  0  0  0  0
  -24.3489  -34.0066   21.8970 C   0  0  0  0  0  0  0  0  0  0  0  0
  -28.7359  -20.5580   23.4055 C   0  0  0  0  0  0  0  0  0  0  0  0
  -31.3874  -22.3607   15.5071 C   0  0  0  0  0  0  0  0  0  0  0  0
  -28.5271  -31.7356   26.8221 C   0  0  0  0  0  0  0  0  0  0  0  0
  -33.8495  -21.0089   19.3209 C   0  0  0  0  0  0  0  0  0  0  0  0
  -32.5256  -22.2752   21.0075 C   0  0  0  0  0  0  0  0  0  0  0  0
  -28.2063  -23.5641   23.3839 C   0  0  0  0  0  0  0  0  0  1  0  0
  -31.1614  -21.2017   17.6731 C   0  0  0  0  0  0  0  0  0  0  0  0
  -31.7745  -22.2027   18.6345 C   0  0  0  0  0  0  0  0  0  0  0  0
  -25.7619  -32.0656   22.6894 C   0  0  1  0  0  0  0  0  0  0  0  0
  -28.2304  -33.5632   25.1456 C   0  0  2  0  0  0  0  0  0  0  0  0
  -25.2914  -32.8700   21.4448 C   0  0  0  0  0  0  0  0  0  0  0  0
  -26.7311  -18.0340   19.7902 N   0  0  0  0  0  0  0  0  0  0  0  0
  -30.7228  -21.1475   22.1834 N   0  0  0  0  0  0  0  0  0  0  0  0
  -29.5953  -21.5464   22.7964 N   0  0  0  0  0  0  0  0  0  0  0  0
  -27.9475  -18.6032   19.7405 N   0  0  0  0  0  0  0  0  0  0  0  0
  -24.6806  -29.9900   23.4935 N   0  0  0  0  0  0  0  0  0  0  0  0
  -28.3360  -21.7279   17.5626 N   0  0  0  0  0  0  0  0  0  0  0  0
  -30.2569  -18.1513   20.0115 N   0  0  0  0  0  0  0  0  0  0  0  0
  -28.3110  -14.1584   20.8281 N   0  0  0  0  0  0  0  0  0  0  0  0
  -21.5415  -28.1776   23.0968 N   0  0  0  0  0  0  0  0  0  0  0  0
  -26.4511  -32.8681   23.6941 N   0  0  0  0  0  0  0  0  0  0  0  0
  -30.5004  -21.8522   16.5438 N   0  0  0  0  0  0  0  0  0  0  0  0
  -29.1440  -32.8815   26.1056 N   0  3  0  0  0  0  0  0  0  0  0  0
  -32.4832  -21.4747   19.7437 N   0  3  1  0  0  0  0  0  0  0  0  0
  -30.3165  -15.2656   20.7227 O   0  0  0  0  0  0  0  0  0  0  0  0
  -23.1489  -29.0676   21.6663 O   0  0  0  0  0  0  0  0  0  0  0  0
  -23.7039  -32.0736   23.8688 O   0  0  0  0  0  0  0  0  0  0  0  0
  -28.4271  -31.6548   23.6771 O   0  0  0  0  0  0  0  0  0  0  0  0
  -28.6988  -22.9931   15.6691 O   0  0  0  0  0  0  0  0  0  0  0  0
  -22.8492  -13.0687   20.6991 O   0  0  0  0  0  0  0  0  0  0  0  0
  -28.1123  -24.8996   22.8899 O   0  0  0  0  0  0  0  0  0  1  0  0
  -23.0090   -9.7037   25.0643 F   0  0  0  0  0  0  0  0  0  0  0  0
  -20.8094  -13.0684   22.5651 F   0  0  0  0  0  0  0  0  0  0  0  0
  1  2  1  0  0  0  0
  1  5  2  0  0  0  0
  2  6  2  0  0  0  0
  3  8  2  0  0  0  0
  3 16  1  0  0  0  0
  4  9  1  0  0  0  0
  4 16  2  0  0  0  0
  5 18  1  0  0  0  0
  6 20  1  0  0  0  0
  7 10  2  0  0  0  0
  7 19  1  0  0  0  0
  8 22  1  0  0  0  0
  9 22  2  0  0  0  0
 10 23  1  0  0  0  0
 11 12  2  0  0  0  0
 11 24  1  0  0  0  0
 12 25  1  0  0  0  0
 13 21  1  0  0  0  0
 13 23  2  0  0  0  0
 14 25  2  0  0  0  0
 14 26  1  0  0  0  0
 15 28  1  0  0  0  0
 15 29  2  0  0  0  0
 16 27  1  0  0  0  0
 17 27  1  0  0  0  0
 17 30  2  0  0  0  0
 17 31  1  0  0  0  0
 18 20  2  0  0  0  0
 18 36  1  0  0  0  0
 19 21  2  0  0  0  0
 19 37  1  0  0  0  0
 20 45  1  0  0  0  0
 21 38  1  0  0  0  0
 22 81  1  0  0  0  0
 23 82  1  0  0  0  0
 24 26  2  0  0  0  0
 24 81  1  0  0  0  0
 25 83  1  0  0  0  0
 26 84  1  0  0  0  0
 27 63  2  0  0  0  0
 28 56  1  0  0  0  0
 28 64  2  0  0  0  0
 29 57  1  0  0  0  0
 29 65  1  0  0  0  0
 30 66  1  0  0  0  0
 30 69  1  0  0  0  0
 31 70  1  0  0  0  0
 31 76  2  0  0  0  0
 32 46  1  0  0  0  0
 32 71  1  0  0  0  0
 32 77  2  0  0  0  0
 33 60  1  0  0  0  0
 33 67  1  0  0  0  0
 33 78  2  0  0  0  0
 34 61  1  0  0  0  0
 34 72  1  0  0  0  0
 34 79  2  0  0  0  0
 35 68  1  0  0  0  0
 35 73  1  0  0  0  0
 35 80  2  0  0  0  0
 36 39  1  0  0  0  0
 37 46  1  0  0  0  0
 38 67  1  0  0  0  0
 39 41  1  0  0  0  0
 40 42  1  0  0  0  0
 40 43  1  0  0  0  0
 41 45  1  0  0  0  0
 42 47  1  0  0  0  0
 43 68  1  0  0  0  0
 44 47  1  0  0  0  0
 44 68  1  0  0  0  0
 45 71  1  0  0  0  0
 46 67  1  0  0  0  0
 47 66  1  0  0  0  0
 48 61  1  0  0  0  0
 49 62  1  0  0  0  0
 50 62  1  0  0  0  0
 51 62  1  0  0  0  0
 52 65  1  0  0  0  0
 53 73  1  0  0  0  0
 54 74  1  0  0  0  0
 55 75  1  0  0  0  0
 56 75  1  0  0  0  0
 57 82  1  0  0  0  0
 58 59  1  0  0  0  0
 58 73  1  0  0  0  0
 59 75  1  0  0  0  0
 60 62  1  0  0  0  0
 60 72  1  0  0  0  0
 61 74  1  0  0  0  0
 63 66  1  0  0  0  0
 64 65  1  0  0  0  0
M  CHG  2  74   1  75   1
M  ISO  4  35 100  57 101  73 100  82 101
M  END
> <Batch ID>
0058

> <Smiles>
CNC(C)C(=O)NC(C(=O)N1Cc2cc([101O:1][101CH2:1]c3cc(CN(C)CC[100N:0](C)[100C:0](=O)N4CCCC(n5nc(-c6ccc(Oc7ccc(F)cc7F)cc6)c(C(N)=O)c5N)C4)nn3C)ccc2CC1C(=O)NC1CCCc2ccccc21)C(C)(C)C

> <Shape>
0.229

> <Color>
0.061

> <Negative vol penalty>
0.000

$$$$

  -OEChem-04052317503D

 84 92  0     1  0  0  0  0  0999 V2000
  -22.6314  -33.8297   21.9976 C   0  0  0  0  0  0  0  0  0  0  0  0
  -23.5893  -32.8229   22.0625 C   0  0  0  0  0  0  0  0  0  0  0  0
  -25.1167  -13.9938   21.1473 C   0  0  0  0  0  0  0  0  0  0  0  0
  -25.9137  -13.7954   18.8752 C   0  0  0  0  0  0  0  0  0  0  0  0
  -21.3211  -33.5704   22.3970 C   0  0  0  0  0  0  0  0  0  0  0  0
  -23.2376  -31.5564   22.5280 C   0  0  0  0  0  0  0  0  0  0  0  0
  -25.1153  -27.8377   19.6486 C   0  0  0  0  0  0  0  0  0  0  0  0
  -24.2327  -12.9370   20.9295 C   0  0  0  0  0  0  0  0  0  0  0  0
  -25.0298  -12.7385   18.6574 C   0  0  0  0  0  0  0  0  0  0  0  0
  -26.4617  -27.5185   19.8190 C   0  0  0  0  0  0  0  0  0  0  0  0
  -24.3707   -9.5612   20.7963 C   0  0  0  0  0  0  0  0  0  0  0  0
  -24.2844   -8.5753   21.7792 C   0  0  0  0  0  0  0  0  0  0  0  0
  -25.8355  -25.6370   21.1927 C   0  0  0  0  0  0  0  0  0  0  0  0
  -21.9363   -9.0667   22.0659 C   0  0  0  0  0  0  0  0  0  0  0  0
  -32.9218  -25.5043   20.9173 C   0  0  0  0  0  0  0  0  0  0  0  0
  -31.0515  -26.6096   21.6314 C   0  0  0  0  0  0  0  0  0  0  0  0
  -25.9572  -14.4230   20.1201 C   0  0  0  0  0  0  0  0  0  0  0  0
  -28.1941  -15.4330   20.8157 C   0  0  0  0  0  0  0  0  0  0  0  0
  -20.9509  -32.2973   22.8585 C   0  0  0  0  0  0  0  0  0  0  0  0
  -24.1176  -27.0641   20.2589 C   0  0  0  0  0  0  0  0  0  0  0  0
  -21.9214  -31.2802   22.9353 C   0  0  0  0  0  0  0  0  0  0  0  0
  -24.4771  -25.9470   21.0264 C   0  0  0  0  0  0  0  0  0  0  0  0
  -24.1893  -12.3094   19.6846 C   0  0  0  0  0  0  0  0  0  0  0  0
  -26.8221  -26.4198   20.5935 C   0  0  0  0  0  0  0  0  0  0  0  0
  -23.2398  -10.3000   20.4483 C   0  0  0  0  0  0  0  0  0  0  0  0
  -23.0672   -8.3280   22.4139 C   0  0  0  0  0  0  0  0  0  0  0  0
  -22.0227  -10.0527   21.0831 C   0  0  0  0  0  0  0  0  0  0  0  0
  -26.8701  -15.5150   20.3443 C   0  0  0  0  0  0  0  0  0  0  0  0
  -32.3403  -25.3179   19.6826 C   0  0  0  0  0  0  0  0  0  0  0  0
  -30.4702  -26.4239   20.3964 C   0  0  0  0  0  0  0  0  0  0  0  0
  -28.6266  -16.7361   20.8527 C   0  0  0  0  0  0  0  0  0  0  0  0
  -28.9641  -14.2819   21.1868 C   0  0  0  0  0  0  0  0  0  0  0  0
  -21.8537  -27.6220   22.4193 C   0  0  0  0  0  0  0  0  0  0  0  0
  -20.9684  -24.5842   21.7049 C   0  0  0  0  0  0  0  0  0  0  0  0
  -21.7430  -21.9737   20.1252 C   0  0  0  0  0  0  0  0  0  0  0  0
  -29.0436  -21.7934   18.5301 C   0  0  0  0  0  0  0  0  0  0  0  0
  -19.5331  -32.0778   23.3239 C   0  0  0  0  0  0  0  0  0  0  0  0
  -22.6688  -27.4059   20.0434 C   0  0  0  0  0  0  0  0  0  0  0  0
  -23.4437  -25.0723   21.6862 C   0  0  0  0  0  0  0  0  0  0  0  0
  -19.1553  -30.6044   23.4517 C   0  0  0  0  0  0  0  0  0  0  0  0
  -26.0679  -21.0700   20.3463 C   0  0  0  0  0  0  0  0  0  0  0  0
  -20.2495  -29.8342   24.1842 C   0  0  0  0  0  0  0  0  0  0  0  0
  -26.1177  -19.5536   20.5408 C   0  0  0  0  0  0  0  0  0  0  0  0
  -26.6289  -21.4834   18.9874 C   0  0  0  0  0  0  0  0  0  0  0  0
  -28.0327  -19.4601   18.8908 C   0  0  0  0  0  0  0  0  0  0  0  0
  -21.5728  -29.8866   23.4112 C   0  0  1  0  0  0  0  0  0  0  0  0
  -21.7557  -26.8519   21.1329 C   0  0  1  0  0  0  0  0  0  0  0  0
  -27.5293  -18.9994   20.2694 C   0  0  2  0  0  0  0  0  0  0  0  0
  -21.5361  -19.5390   19.5534 C   0  0  0  0  0  0  0  0  0  0  0  0
  -32.6962  -21.2127   20.2192 C   0  0  0  0  0  0  0  0  0  0  0  0
  -21.1124  -23.9731   24.6908 C   0  0  0  0  0  0  0  0  0  0  0  0
  -21.1192  -21.5353   24.1207 C   0  0  0  0  0  0  0  0  0  0  0  0
  -19.1587  -22.9518   23.5100 C   0  0  0  0  0  0  0  0  0  0  0  0
  -21.1215  -22.5722   17.2942 C   0  0  0  0  0  0  0  0  0  0  0  0
  -34.2374  -22.5153   17.8912 C   0  0  0  0  0  0  0  0  0  0  0  0
  -33.0700  -24.5959   18.6045 C   0  0  0  0  0  0  0  0  0  0  0  0
  -29.0917  -26.9464   20.1166 C   0  0  0  0  0  0  0  0  0  1  0  0
  -31.4824  -21.9435   18.0954 C   0  0  0  0  0  0  0  0  0  0  0  0
  -21.3242  -23.2150   22.2319 C   0  0  1  0  0  0  0  0  0  0  0  0
  -21.1081  -20.9541   19.1969 C   0  0  2  0  0  0  0  0  0  0  0  0
  -32.2281  -22.3762   19.3559 C   0  0  2  0  0  0  0  0  0  0  0  0
  -20.6984  -22.9362   23.6277 C   0  0  0  0  0  0  0  0  0  0  0  0
  -32.2878  -26.1535   21.9139 N   0  0  0  0  0  0  0  0  0  0  0  0
  -26.4867  -16.7708   20.0996 N   0  0  0  0  0  0  0  0  0  0  0  0
  -31.1040  -25.7744   19.4000 N   0  0  0  0  0  0  0  0  0  0  0  0
  -27.5763  -17.4900   20.4185 N   0  0  0  0  0  0  0  0  0  0  0  0
  -22.0406  -25.4513   21.4509 N   0  0  0  0  0  0  0  0  0  0  0  0
  -27.9699  -20.9268   18.7931 N   0  0  0  0  0  0  0  0  0  0  0  0
  -29.7991  -17.2991   21.2141 N   0  0  0  0  0  0  0  0  0  0  0  0
  -28.3663  -13.0181   21.0883 N   0  0  0  0  0  0  0  0  0  0  0  0
  -21.5443  -28.9632   22.2971 N   0  0  0  0  0  0  0  0  0  0  0  0
  -20.9279  -22.2643   21.1987 N   0  0  0  0  0  0  0  0  0  0  0  0
  -30.2817  -21.1844   18.3651 N   0  0  0  0  0  0  0  0  0  0  0  0
  -21.5024  -21.2228   17.7851 N   0  3  0  0  0  0  0  0  0  0  0  0
  -33.4305  -23.1960   18.9661 N   0  3  1  0  0  0  0  0  0  0  0  0
  -30.1416  -14.3728   21.6093 O   0  0  0  0  0  0  0  0  0  0  0  0
  -22.1841  -27.0420   23.4470 O   0  0  0  0  0  0  0  0  0  0  0  0
  -19.7833  -24.8713   21.5185 O   0  0  0  0  0  0  0  0  0  0  0  0
  -22.8528  -22.4606   19.9206 O   0  0  0  0  0  0  0  0  0  0  0  0
  -28.9099  -23.0195   18.4535 O   0  0  0  0  0  0  0  0  0  0  0  0
  -23.3270  -11.2780   19.4718 O   0  0  0  0  0  0  0  0  0  0  0  0
  -28.1356  -26.1064   20.7621 O   0  0  0  0  0  0  0  0  0  1  0  0
  -22.9841   -7.3801   23.3567 F   0  0  0  0  0  0  0  0  0  0  0  0
  -20.9326  -10.7584   20.7522 F   0  0  0  0  0  0  0  0  0  0  0  0
  1  2  1  0  0  0  0
  1  5  2  0  0  0  0
  2  6  2  0  0  0  0
  3  8  2  0  0  0  0
  3 17  1  0  0  0  0
  4  9  1  0  0  0  0
  4 17  2  0  0  0  0
  5 19  1  0  0  0  0
  6 21  1  0  0  0  0
  7 10  2  0  0  0  0
  7 20  1  0  0  0  0
  8 23  1  0  0  0  0
  9 23  2  0  0  0  0
 10 24  1  0  0  0  0
 11 12  2  0  0  0  0
 11 25  1  0  0  0  0
 12 26  1  0  0  0  0
 13 22  1  0  0  0  0
 13 24  2  0  0  0  0
 14 26  2  0  0  0  0
 14 27  1  0  0  0  0
 15 29  2  0  0  0  0
 15 63  1  0  0  0  0
 16 30  1  0  0  0  0
 16 63  2  0  0  0  0
 17 28  1  0  0  0  0
 18 28  1  0  0  0  0
 18 31  2  0  0  0  0
 18 32  1  0  0  0  0
 19 21  2  0  0  0  0
 19 37  1  0  0  0  0
 20 22  2  0  0  0  0
 20 38  1  0  0  0  0
 21 46  1  0  0  0  0
 22 39  1  0  0  0  0
 23 81  1  0  0  0  0
 24 82  1  0  0  0  0
 25 27  2  0  0  0  0
 25 81  1  0  0  0  0
 26 83  1  0  0  0  0
 27 84  1  0  0  0  0
 28 64  2  0  0  0  0
 29 56  1  0  0  0  0
 29 65  1  0  0  0  0
 30 57  1  0  0  0  0
 30 65  2  0  0  0  0
 31 66  1  0  0  0  0
 31 69  1  0  0  0  0
 32 70  1  0  0  0  0
 32 76  2  0  0  0  0
 33 47  1  0  0  0  0
 33 71  1  0  0  0  0
 33 77  2  0  0  0  0
 34 59  1  0  0  0  0
 34 67  1  0  0  0  0
 34 78  2  0  0  0  0
 35 60  1  0  0  0  0
 35 72  1  0  0  0  0
 35 79  2  0  0  0  0
 36 68  1  0  0  0  0
 36 73  1  0  0  0  0
 36 80  2  0  0  0  0
 37 40  1  0  0  0  0
 38 47  1  0  0  0  0
 39 67  1  0  0  0  0
 40 42  1  0  0  0  0
 41 43  1  0  0  0  0
 41 44  1  0  0  0  0
 42 46  1  0  0  0  0
 43 48  1  0  0  0  0
 44 68  1  0  0  0  0
 45 48  1  0  0  0  0
 45 68  1  0  0  0  0
 46 71  1  0  0  0  0
 47 67  1  0  0  0  0
 48 66  1  0  0  0  0
 49 60  1  0  0  0  0
 50 61  1  0  0  0  0
 51 62  1  0  0  0  0
 52 62  1  0  0  0  0
 53 62  1  0  0  0  0
 54 74  1  0  0  0  0
 55 75  1  0  0  0  0
 56 75  1  0  0  0  0
 57 82  1  0  0  0  0
 58 61  1  0  0  0  0
 58 73  1  0  0  0  0
 59 62  1  0  0  0  0
 59 72  1  0  0  0  0
 60 74  1  0  0  0  0
 61 75  1  0  0  0  0
 64 66  1  0  0  0  0
M  CHG  2  74   1  75   1
M  ISO  4  36 100  57 101  73 100  82 101
M  END
> <Batch ID>
0058

> <Smiles>
CNC(C)C(=O)NC(C(=O)N1Cc2cc([101O:1][101CH2:1]c3cncc(CN(C)C(C)C[100NH:0][100C:0](=O)N4CCCC(n5nc(-c6ccc(Oc7ccc(F)cc7F)cc6)c(C(N)=O)c5N)C4)n3)ccc2CC1C(=O)NC1CCCc2ccccc21)C(C)(C)C

> <Shape>
0.227

> <Color>
0.079

> <Negative vol penalty>
0.000

$$$$

  -OEChem-04052317503D

 82 90  0     1  0  0  0  0  0999 V2000
  -29.5480  -10.7381   16.0628 C   0  0  0  0  0  0  0  0  0  0  0  0
  -28.5762  -11.6638   15.6966 C   0  0  0  0  0  0  0  0  0  0  0  0
  -25.2523  -30.5705   20.2261 C   0  0  0  0  0  0  0  0  0  0  0  0
  -24.0558  -28.9359   21.5428 C   0  0  0  0  0  0  0  0  0  0  0  0
  -30.0598  -10.7425   17.3597 C   0  0  0  0  0  0  0  0  0  0  0  0
  -28.1148  -12.5938   16.6275 C   0  0  0  0  0  0  0  0  0  0  0  0
  -26.3971  -18.3674   15.5224 C   0  0  0  0  0  0  0  0  0  0  0  0
  -25.0049  -31.5369   21.2010 C   0  0  0  0  0  0  0  0  0  0  0  0
  -23.8084  -29.9023   22.5177 C   0  0  0  0  0  0  0  0  0  0  0  0
  -25.1459  -18.9558   15.3435 C   0  0  0  0  0  0  0  0  0  0  0  0
  -26.2481  -32.4002   24.2246 C   0  0  0  0  0  0  0  0  0  0  0  0
  -27.3088  -33.2209   24.6077 C   0  0  0  0  0  0  0  0  0  0  0  0
  -25.1153  -19.5846   17.6722 C   0  0  0  0  0  0  0  0  0  0  0  0
  -26.0620  -35.1644   23.8969 C   0  0  0  0  0  0  0  0  0  0  0  0
  -20.1742  -20.4168   15.4388 C   0  0  0  0  0  0  0  0  0  0  0  0
  -24.7777  -29.2700   20.3970 C   0  0  0  0  0  0  0  0  0  0  0  0
  -26.1372  -27.4020   19.3152 C   0  0  0  0  0  0  0  0  0  0  0  0
  -29.6115  -11.6793   18.3042 C   0  0  0  0  0  0  0  0  0  0  0  0
  -27.0130  -18.3736   16.7822 C   0  0  0  0  0  0  0  0  0  0  0  0
  -28.6202  -12.6100   17.9386 C   0  0  0  0  0  0  0  0  0  0  0  0
  -26.3755  -18.9978   17.8639 C   0  0  0  0  0  0  0  0  0  0  0  0
  -24.2830  -31.2028   22.3468 C   0  0  0  0  0  0  0  0  0  0  0  0
  -24.5035  -19.5620   16.4191 C   0  0  0  0  0  0  0  0  0  0  0  0
  -25.0942  -32.9616   23.6776 C   0  0  0  0  0  0  0  0  0  0  0  0
  -27.2158  -34.6030   24.4439 C   0  0  0  0  0  0  0  0  0  0  0  0
  -25.0012  -34.3437   23.5138 C   0  0  0  0  0  0  0  0  0  0  0  0
  -25.0324  -28.2713   19.3900 C   0  0  0  0  0  0  0  0  0  0  0  0
  -21.3933  -20.7888   14.9465 C   0  0  0  0  0  0  0  0  0  0  0  0
  -25.9109  -26.6557   18.1846 C   0  0  0  0  0  0  0  0  0  0  0  0
  -19.9632  -22.4291   14.5406 C   0  0  0  0  0  0  0  0  0  0  0  0
  -27.2669  -27.2800   20.1896 C   0  0  0  0  0  0  0  0  0  0  0  0
  -27.9499  -16.1321   18.8320 C   0  0  0  0  0  0  0  0  0  0  0  0
  -29.1874  -18.6661   20.4351 C   0  0  0  0  0  0  0  0  0  0  0  0
  -29.1021  -22.0195   21.0627 C   0  0  0  0  0  0  0  0  0  0  0  0
  -20.9310  -25.1751   15.3804 C   0  0  0  0  0  0  0  0  0  0  0  0
  -30.1602  -11.6148   19.7076 C   0  0  0  0  0  0  0  0  0  0  0  0
  -28.3747  -17.7579   16.9526 C   0  0  0  0  0  0  0  0  0  0  0  0
  -27.0032  -19.0493   19.2320 C   0  0  0  0  0  0  0  0  0  0  0  0
  -29.8891  -12.8746   20.5260 C   0  0  0  0  0  0  0  0  0  0  0  0
  -23.7630  -26.8854   13.9136 C   0  0  0  0  0  0  0  0  0  0  0  0
  -28.4348  -13.3083   20.3725 C   0  0  0  0  0  0  0  0  0  0  0  0
  -24.5156  -27.3525   15.1609 C   0  0  0  0  0  0  0  0  0  0  0  0
  -22.2530  -26.9749   14.1133 C   0  0  0  0  0  0  0  0  0  0  0  0
  -22.4947  -26.7010   16.5505 C   0  0  0  0  0  0  0  0  0  0  0  0
  -28.1123  -13.6506   18.9129 C   0  0  1  0  0  0  0  0  0  0  0  0
  -28.6793  -17.3715   18.3966 C   0  0  1  0  0  0  0  0  0  0  0  0
  -24.0261  -26.6133   16.4203 C   0  0  2  0  0  0  0  0  0  0  0  0
  -18.8396  -23.6546   12.6439 C   0  0  0  0  0  0  0  0  0  0  0  0
  -30.2117  -23.7931   22.4485 C   0  0  0  0  0  0  0  0  0  0  0  0
  -17.6954  -21.4262   17.0447 C   0  0  0  0  0  0  0  0  0  0  0  0
  -17.1157  -20.3710   14.8183 C   0  0  0  0  0  0  0  0  0  0  0  0
  -27.6622  -17.6962   22.8933 C   0  0  0  0  0  0  0  0  0  0  0  0
  -28.0238  -19.9504   23.9210 C   0  0  0  0  0  0  0  0  0  0  0  0
  -29.9809  -18.5096   23.3582 C   0  0  0  0  0  0  0  0  0  0  0  0
  -30.0118  -23.4904   18.6611 C   0  0  0  0  0  0  0  0  0  0  0  0
  -22.7167  -20.0818   14.9382 C   0  0  0  0  0  0  0  0  0  1  0  0
  -19.4018  -23.7215   14.0743 C   0  0  2  0  0  0  0  0  0  0  0  0
  -28.6777  -19.6136   21.4941 C   0  0  1  0  0  0  0  0  0  0  0  0
  -30.2035  -23.0630   21.1145 C   0  0  2  0  0  0  0  0  0  0  0  0
  -17.9034  -21.4728   15.5296 C   0  0  0  0  0  0  0  0  0  0  0  0
  -28.5732  -18.9400   22.8914 C   0  0  0  0  0  0  0  0  0  0  0  0
  -24.1686  -28.0948   18.3867 N   0  0  0  0  0  0  0  0  0  0  0  0
  -19.3085  -21.4506   15.1743 N   0  0  0  0  0  0  0  0  0  0  0  0
  -24.7305  -27.1061   17.6708 N   0  0  0  0  0  0  0  0  0  0  0  0
  -21.2334  -22.0376   14.3962 N   0  3  0  0  0  0  0  0  0  0  0  0
  -28.3327  -18.4279   19.3496 N   0  0  0  0  0  0  0  0  0  0  0  0
  -21.8504  -26.2354   15.3179 N   0  0  0  0  0  0  0  0  0  0  0  0
  -26.6085  -25.6648   17.5897 N   0  0  0  0  0  0  0  0  0  0  0  0
  -27.3425  -28.1247   21.3054 N   0  0  0  0  0  0  0  0  0  0  0  0
  -28.6316  -14.9582   18.5738 N   0  0  0  0  0  0  0  0  0  0  0  0
  -29.5556  -20.7783   21.4564 N   0  0  0  0  0  0  0  0  0  0  0  0
  -20.3605  -24.7998   14.1703 N   0  0  0  0  0  0  0  0  0  0  0  0
  -30.0165  -24.0677   20.0299 N   0  3  0  0  0  0  0  0  0  0  0  0
  -28.1905  -26.4579   19.9783 O   0  0  0  0  0  0  0  0  0  0  0  0
  -26.8507  -16.2335   19.3642 O   0  0  0  0  0  0  0  0  0  0  0  0
  -30.3058  -18.1615   20.5628 O   0  0  0  0  0  0  0  0  0  0  0  0
  -27.9534  -22.2803   20.7120 O   0  0  0  0  0  0  0  0  0  0  0  0
  -20.6435  -24.6012   16.4364 O   0  0  0  0  0  0  0  0  0  0  0  0
  -24.0416  -32.1456   23.2984 O   0  0  0  0  0  0  0  0  0  0  0  0
  -23.2820  -20.1366   16.2473 O   0  0  0  0  0  0  0  0  0  1  0  0
  -28.2340  -35.3911   24.8133 F   0  0  0  0  0  0  0  0  0  0  0  0
  -23.8948  -34.8889   22.9899 F   0  0  0  0  0  0  0  0  0  0  0  0
  1  2  1  0  0  0  0
  1  5  2  0  0  0  0
  2  6  2  0  0  0  0
  3  8  2  0  0  0  0
  3 16  1  0  0  0  0
  4  9  1  0  0  0  0
  4 16  2  0  0  0  0
  5 18  1  0  0  0  0
  6 20  1  0  0  0  0
  7 10  2  0  0  0  0
  7 19  1  0  0  0  0
  8 22  1  0  0  0  0
  9 22  2  0  0  0  0
 10 23  1  0  0  0  0
 11 12  2  0  0  0  0
 11 24  1  0  0  0  0
 12 25  1  0  0  0  0
 13 21  1  0  0  0  0
 13 23  2  0  0  0  0
 14 25  2  0  0  0  0
 14 26  1  0  0  0  0
 15 28  2  0  0  0  0
 15 63  1  0  0  0  0
 16 27  1  0  0  0  0
 17 27  1  0  0  0  0
 17 29  2  0  0  0  0
 17 31  1  0  0  0  0
 18 20  2  0  0  0  0
 18 36  1  0  0  0  0
 19 21  2  0  0  0  0
 19 37  1  0  0  0  0
 20 45  1  0  0  0  0
 21 38  1  0  0  0  0
 22 79  1  0  0  0  0
 23 80  1  0  0  0  0
 24 26  2  0  0  0  0
 24 79  1  0  0  0  0
 25 81  1  0  0  0  0
 26 82  1  0  0  0  0
 27 62  2  0  0  0  0
 28 56  1  0  0  0  0
 28 65  1  0  0  0  0
 29 64  1  0  0  0  0
 29 68  1  0  0  0  0
 30 57  1  0  0  0  0
 30 63  1  0  0  0  0
 30 65  2  0  0  0  0
 31 69  1  0  0  0  0
 31 74  2  0  0  0  0
 32 46  1  0  0  0  0
 32 70  1  0  0  0  0
 32 75  2  0  0  0  0
 33 58  1  0  0  0  0
 33 66  1  0  0  0  0
 33 76  2  0  0  0  0
 34 59  1  0  0  0  0
 34 71  1  0  0  0  0
 34 77  2  0  0  0  0
 35 67  1  0  0  0  0
 35 72  1  0  0  0  0
 35 78  2  0  0  0  0
 36 39  1  0  0  0  0
 37 46  1  0  0  0  0
 38 66  1  0  0  0  0
 39 41  1  0  0  0  0
 40 42  1  0  0  0  0
 40 43  1  0  0  0  0
 41 45  1  0  0  0  0
 42 47  1  0  0  0  0
 43 67  1  0  0  0  0
 44 47  1  0  0  0  0
 44 67  1  0  0  0  0
 45 70  1  0  0  0  0
 46 66  1  0  0  0  0
 47 64  1  0  0  0  0
 48 57  1  0  0  0  0
 49 59  1  0  0  0  0
 50 60  1  0  0  0  0
 51 60  1  0  0  0  0
 52 61  1  0  0  0  0
 53 61  1  0  0  0  0
 54 61  1  0  0  0  0
 55 73  1  0  0  0  0
 56 80  1  0  0  0  0
 57 72  1  0  0  0  0
 58 61  1  0  0  0  0
 58 71  1  0  0  0  0
 59 73  1  0  0  0  0
 60 63  1  0  0  0  0
 62 64  1  0  0  0  0
M  CHG  2  65   1  73   1
M  ISO  4  35 100  56 101  72 100  80 101
M  END
> <Batch ID>
0058

> <Smiles>
CNC(C)C(=O)NC(C(=O)N1Cc2cc([101O:1][101CH2:1]c3cn(C(C)C)c(C(C)[100NH:0][100C:0](=O)N4CCCC(n5nc(-c6ccc(Oc7ccc(F)cc7F)cc6)c(C(N)=O)c5N)C4)n3)ccc2CC1C(=O)NC1CCCc2ccccc21)C(C)(C)C

> <Shape>
0.226

> <Color>
0.072

> <Negative vol penalty>
0.000

$$$$

  -OEChem-04052317503D

 84 92  0     1  0  0  0  0  0999 V2000
  -19.5673  -27.5609   26.6501 C   0  0  0  0  0  0  0  0  0  0  0  0
  -20.8288  -27.2070   26.1825 C   0  0  0  0  0  0  0  0  0  0  0  0
  -27.6843  -12.2671   20.3138 C   0  0  0  0  0  0  0  0  0  0  0  0
  -25.5685  -13.3295   20.7950 C   0  0  0  0  0  0  0  0  0  0  0  0
  -18.5981  -28.0197   25.7589 C   0  0  0  0  0  0  0  0  0  0  0  0
  -21.1216  -27.3106   24.8231 C   0  0  0  0  0  0  0  0  0  0  0  0
  -26.5009  -28.8298   22.3211 C   0  0  0  0  0  0  0  0  0  0  0  0
  -27.2029  -11.0691   20.8415 C   0  0  0  0  0  0  0  0  0  0  0  0
  -25.0870  -12.1315   21.3228 C   0  0  0  0  0  0  0  0  0  0  0  0
  -27.5334  -28.0647   21.7805 C   0  0  0  0  0  0  0  0  0  0  0  0
  -23.1774   -9.2573   22.4677 C   0  0  0  0  0  0  0  0  0  0  0  0
  -21.8938   -8.8549   22.0991 C   0  0  0  0  0  0  0  0  0  0  0  0
  -26.6185  -28.4003   19.5738 C   0  0  0  0  0  0  0  0  0  0  0  0
  -22.5750   -8.8047   19.7816 C   0  0  0  0  0  0  0  0  0  0  0  0
  -26.8671  -13.3974   20.2905 C   0  0  0  0  0  0  0  0  0  0  0  0
  -27.2789  -15.0713   18.4102 C   0  0  0  0  0  0  0  0  0  0  0  0
  -18.8822  -28.1381   24.3893 C   0  0  0  0  0  0  0  0  0  0  0  0
  -25.5117  -29.3778   21.4919 C   0  0  0  0  0  0  0  0  0  0  0  0
  -20.1549  -27.7701   23.9125 C   0  0  0  0  0  0  0  0  0  0  0  0
  -25.5760  -29.1741   20.1061 C   0  0  0  0  0  0  0  0  0  0  0  0
  -25.9042  -11.0013   21.3460 C   0  0  0  0  0  0  0  0  0  0  0  0
  -27.5907  -27.8474   20.4069 C   0  0  0  0  0  0  0  0  0  0  0  0
  -24.1598   -9.4335   21.4933 C   0  0  0  0  0  0  0  0  0  0  0  0
  -21.5925   -8.6286   20.7561 C   0  0  0  0  0  0  0  0  0  0  0  0
  -23.8586   -9.2072   20.1503 C   0  0  0  0  0  0  0  0  0  0  0  0
  -27.3641  -14.6353   19.7460 C   0  0  0  0  0  0  0  0  0  0  0  0
  -27.8944  -16.2992   18.4099 C   0  0  0  0  0  0  0  0  0  0  0  0
  -25.3676  -23.6590   20.4816 C   0  0  0  0  0  0  0  0  0  0  0  0
  -27.4647  -23.6594   19.6822 C   0  0  0  0  0  0  0  0  0  0  0  0
  -26.7162  -21.9070   20.8679 C   0  0  0  0  0  0  0  0  0  0  0  0
  -26.6956  -14.4243   17.2714 C   0  0  0  0  0  0  0  0  0  0  0  0
  -22.3612  -29.0428   21.2357 C   0  0  0  0  0  0  0  0  0  0  0  0
  -22.6736  -31.4413   19.0743 C   0  0  0  0  0  0  0  0  0  0  0  0
  -24.6762  -33.1218   16.8805 C   0  0  0  0  0  0  0  0  0  0  0  0
  -28.8043  -20.1033   23.1258 C   0  0  0  0  0  0  0  0  0  0  0  0
  -17.7874  -28.5940   23.4576 C   0  0  0  0  0  0  0  0  0  0  0  0
  -24.4195  -30.2231   22.0877 C   0  0  0  0  0  0  0  0  0  0  0  0
  -24.5499  -29.7573   19.1704 C   0  0  0  0  0  0  0  0  0  0  0  0
  -18.2969  -29.0300   22.0862 C   0  0  0  0  0  0  0  0  0  0  0  0
  -31.2654  -18.8118   20.6811 C   0  0  0  0  0  0  0  0  0  0  0  0
  -19.2908  -28.0112   21.5374 C   0  0  0  0  0  0  0  0  0  0  0  0
  -30.5540  -17.5877   20.1072 C   0  0  0  0  0  0  0  0  0  0  0  0
  -30.8215  -19.1075   22.1105 C   0  0  0  0  0  0  0  0  0  0  0  0
  -28.6370  -18.0272   21.6923 C   0  0  0  0  0  0  0  0  0  0  0  0
  -20.5185  -27.8921   22.4486 C   0  0  1  0  0  0  0  0  0  0  0  0
  -23.1777  -30.3038   21.2053 C   0  0  1  0  0  0  0  0  0  0  0  0
  -29.0274  -17.7295   20.2368 C   0  0  2  0  0  0  0  0  0  0  0  0
  -24.0462  -24.3307   20.6401 C   0  0  0  0  0  0  0  0  0  0  0  0
  -25.6685  -19.7141   21.5423 C   0  0  0  0  0  0  0  0  0  0  0  0
  -24.6395  -35.0125   15.2309 C   0  0  0  0  0  0  0  0  0  0  0  0
  -21.1881  -29.6710   17.0820 C   0  0  0  0  0  0  0  0  0  0  0  0
  -22.0056  -31.1675   15.2489 C   0  0  0  0  0  0  0  0  0  0  0  0
  -20.5224  -32.0812   17.0344 C   0  0  0  0  0  0  0  0  0  0  0  0
  -26.9416  -21.6119   23.7036 C   0  0  0  0  0  0  0  0  0  0  0  0
  -26.7321  -34.6279   18.3851 C   0  0  0  0  0  0  0  0  0  0  0  0
  -28.5686  -24.3392   18.9122 C   0  0  0  0  0  0  0  0  0  0  0  0
  -29.6549  -24.9483   19.8012 C   0  0  0  0  0  0  0  0  0  0  0  0
  -29.1428  -26.0692   20.6983 C   0  0  0  0  0  0  0  0  0  1  0  0
  -26.9463  -20.5631   21.4707 C   0  0  2  0  0  0  0  0  0  0  0  0
  -22.9235  -31.5146   17.5873 C   0  0  1  0  0  0  0  0  0  0  0  0
  -24.9166  -34.6058   16.6698 C   0  0  2  0  0  0  0  0  0  0  0  0
  -21.6783  -31.0958   16.7557 C   0  0  0  0  0  0  0  0  0  0  0  0
  -27.9849  -15.5146   20.5368 N   0  0  0  0  0  0  0  0  0  0  0  0
  -26.3025  -24.3240   19.7836 N   0  0  0  0  0  0  0  0  0  0  0  0
  -25.5020  -22.4504   21.0513 N   0  0  0  0  0  0  0  0  0  0  0  0
  -27.7441  -22.4510   20.1968 N   0  0  0  0  0  0  0  0  0  0  0  0
  -28.2955  -16.5154   19.6954 N   0  0  0  0  0  0  0  0  0  0  0  0
  -23.4980  -30.5713   19.8018 N   0  0  0  0  0  0  0  0  0  0  0  0
  -29.3644  -19.1943   22.2132 N   0  0  0  0  0  0  0  0  0  0  0  0
  -28.1264  -17.2042   17.4354 N   0  0  0  0  0  0  0  0  0  0  0  0
  -26.1046  -13.1658   17.4480 N   0  0  0  0  0  0  0  0  0  0  0  0
  -21.4129  -29.0106   22.2403 N   0  0  0  0  0  0  0  0  0  0  0  0
  -23.3934  -32.8694   17.3186 N   0  0  0  0  0  0  0  0  0  0  0  0
  -27.5577  -20.6558   22.7947 N   0  0  0  0  0  0  0  0  0  0  0  0
  -26.3297  -34.9526   16.9924 N   0  3  0  0  0  0  0  0  0  0  0  0
  -26.7127  -14.9395   16.1278 O   0  0  0  0  0  0  0  0  0  0  0  0
  -22.5746  -28.1647   20.4079 O   0  0  0  0  0  0  0  0  0  0  0  0
  -21.7846  -32.1359   19.5730 O   0  0  0  0  0  0  0  0  0  0  0  0
  -25.5388  -32.2713   16.6734 O   0  0  0  0  0  0  0  0  0  0  0  0
  -29.3897  -20.4111   24.1719 O   0  0  0  0  0  0  0  0  0  0  0  0
  -25.4340   -9.8324   21.8609 O   0  0  0  0  0  0  0  0  0  0  0  0
  -28.5971  -27.1004   19.8767 O   0  0  0  0  0  0  0  0  0  1  0  0
  -20.3602   -8.2406   20.4024 F   0  0  0  0  0  0  0  0  0  0  0  0
  -24.7986   -9.3737   19.2098 F   0  0  0  0  0  0  0  0  0  0  0  0
  1  2  1  0  0  0  0
  1  5  2  0  0  0  0
  2  6  2  0  0  0  0
  3  8  2  0  0  0  0
  3 15  1  0  0  0  0
  4  9  1  0  0  0  0
  4 15  2  0  0  0  0
  5 17  1  0  0  0  0
  6 19  1  0  0  0  0
  7 10  2  0  0  0  0
  7 18  1  0  0  0  0
  8 21  1  0  0  0  0
  9 21  2  0  0  0  0
 10 22  1  0  0  0  0
 11 12  2  0  0  0  0
 11 23  1  0  0  0  0
 12 24  1  0  0  0  0
 13 20  1  0  0  0  0
 13 22  2  0  0  0  0
 14 24  2  0  0  0  0
 14 25  1  0  0  0  0
 15 26  1  0  0  0  0
 16 26  1  0  0  0  0
 16 27  2  0  0  0  0
 16 31  1  0  0  0  0
 17 19  2  0  0  0  0
 17 36  1  0  0  0  0
 18 20  2  0  0  0  0
 18 37  1  0  0  0  0
 19 45  1  0  0  0  0
 20 38  1  0  0  0  0
 21 81  1  0  0  0  0
 22 82  1  0  0  0  0
 23 25  2  0  0  0  0
 23 81  1  0  0  0  0
 24 83  1  0  0  0  0
 25 84  1  0  0  0  0
 26 63  2  0  0  0  0
 27 67  1  0  0  0  0
 27 70  1  0  0  0  0
 28 48  1  0  0  0  0
 28 64  2  0  0  0  0
 28 65  1  0  0  0  0
 29 56  1  0  0  0  0
 29 64  1  0  0  0  0
 29 66  2  0  0  0  0
 30 59  1  0  0  0  0
 30 65  2  0  0  0  0
 30 66  1  0  0  0  0
 31 71  1  0  0  0  0
 31 76  2  0  0  0  0
 32 46  1  0  0  0  0
 32 72  1  0  0  0  0
 32 77  2  0  0  0  0
 33 60  1  0  0  0  0
 33 68  1  0  0  0  0
 33 78  2  0  0  0  0
 34 61  1  0  0  0  0
 34 73  1  0  0  0  0
 34 79  2  0  0  0  0
 35 69  1  0  0  0  0
 35 74  1  0  0  0  0
 35 80  2  0  0  0  0
 36 39  1  0  0  0  0
 37 46  1  0  0  0  0
 38 68  1  0  0  0  0
 39 41  1  0  0  0  0
 40 42  1  0  0  0  0
 40 43  1  0  0  0  0
 41 45  1  0  0  0  0
 42 47  1  0  0  0  0
 43 69  1  0  0  0  0
 44 47  1  0  0  0  0
 44 69  1  0  0  0  0
 45 72  1  0  0  0  0
 46 68  1  0  0  0  0
 47 67  1  0  0  0  0
 49 59  1  0  0  0  0
 50 61  1  0  0  0  0
 51 62  1  0  0  0  0
 52 62  1  0  0  0  0
 53 62  1  0  0  0  0
 54 74  1  0  0  0  0
 55 75  1  0  0  0  0
 56 57  1  0  0  0  0
 57 58  1  0  0  0  0
 58 82  1  0  0  0  0
 59 74  1  0  0  0  0
 60 62  1  0  0  0  0
 60 73  1  0  0  0  0
 61 75  1  0  0  0  0
 63 67  1  0  0  0  0
M  CHG  1  75   1
M  ISO  4  35 100  58 101  74 100  82 101
M  END
> <Batch ID>
0058

> <Smiles>
CNC(C)C(=O)NC(C(=O)N1Cc2cc([101O:1][101CH2:1]CCc3nc(C)nc(C(C)[100N:0](C)[100C:0](=O)N4CCCC(n5nc(-c6ccc(Oc7ccc(F)cc7F)cc6)c(C(N)=O)c5N)C4)n3)ccc2CC1C(=O)NC1CCCc2ccccc21)C(C)(C)C

> <Shape>
0.232

> <Color>
0.089

> <Negative vol penalty>
0.000

$$$$

  -OEChem-04052317503D

 81 89  0     1  0  0  0  0  0999 V2000
  -16.6278  -29.1860   23.9247 C   0  0  0  0  0  0  0  0  0  0  0  0
  -17.0963  -28.3786   22.8932 C   0  0  0  0  0  0  0  0  0  0  0  0
  -24.2440  -14.2965   22.6096 C   0  0  0  0  0  0  0  0  0  0  0  0
  -26.4895  -14.3335   21.7189 C   0  0  0  0  0  0  0  0  0  0  0  0
  -17.4280  -30.2135   24.4226 C   0  0  0  0  0  0  0  0  0  0  0  0
  -18.3650  -28.5990   22.3581 C   0  0  0  0  0  0  0  0  0  0  0  0
  -23.8922  -25.0783   19.4648 C   0  0  0  0  0  0  0  0  0  0  0  0
  -23.9330  -13.2185   21.7809 C   0  0  0  0  0  0  0  0  0  0  0  0
  -26.1786  -13.2554   20.8902 C   0  0  0  0  0  0  0  0  0  0  0  0
  -24.7082  -25.0968   18.3345 C   0  0  0  0  0  0  0  0  0  0  0  0
  -24.4533   -9.8778   21.7387 C   0  0  0  0  0  0  0  0  0  0  0  0
  -23.7557   -8.8085   22.3004 C   0  0  0  0  0  0  0  0  0  0  0  0
  -26.0338  -26.8507   19.3275 C   0  0  0  0  0  0  0  0  0  0  0  0
  -21.9577   -9.1534   20.7239 C   0  0  0  0  0  0  0  0  0  0  0  0
  -29.4991  -22.4365   17.6070 C   0  0  0  0  0  0  0  0  0  0  0  0
  -25.5223  -14.8540   22.5786 C   0  0  0  0  0  0  0  0  0  0  0  0
  -26.3636  -15.9137   24.7413 C   0  0  0  0  0  0  0  0  0  0  0  0
  -18.7110  -30.4404   23.8999 C   0  0  0  0  0  0  0  0  0  0  0  0
  -24.1347  -25.9550   20.5322 C   0  0  0  0  0  0  0  0  0  0  0  0
  -19.1826  -29.6313   22.8486 C   0  0  0  0  0  0  0  0  0  0  0  0
  -25.2209  -26.8396   20.4713 C   0  0  0  0  0  0  0  0  0  0  0  0
  -24.9003  -12.6979   20.9212 C   0  0  0  0  0  0  0  0  0  0  0  0
  -25.7774  -25.9850   18.2645 C   0  0  0  0  0  0  0  0  0  0  0  0
  -23.9031  -10.5850   20.6697 C   0  0  0  0  0  0  0  0  0  0  0  0
  -22.5079   -8.4462   21.7930 C   0  0  0  0  0  0  0  0  0  0  0  0
  -22.6553  -10.2228   20.1623 C   0  0  0  0  0  0  0  0  0  0  0  0
  -25.8440  -15.9680   23.4340 C   0  0  0  0  0  0  0  0  0  0  0  0
  -26.4911  -17.2292   25.1150 C   0  0  0  0  0  0  0  0  0  0  0  0
  -29.4690  -22.6623   19.6819 C   0  0  0  0  0  0  0  0  0  0  0  0
  -26.7010  -14.7758   25.5457 C   0  0  0  0  0  0  0  0  0  0  0  0
  -22.5036  -28.3029   21.9215 C   0  0  0  0  0  0  0  0  0  0  0  0
  -24.9817  -28.2606   24.0142 C   0  0  0  0  0  0  0  0  0  0  0  0
  -28.2495  -27.4850   24.6197 C   0  0  0  0  0  0  0  0  0  0  0  0
  -27.1661  -22.3034   22.0089 C   0  0  0  0  0  0  0  0  0  0  0  0
  -19.5208  -31.5931   24.4384 C   0  0  0  0  0  0  0  0  0  0  0  0
  -23.2614  -25.9041   21.7557 C   0  0  0  0  0  0  0  0  0  0  0  0
  -25.5361  -27.7871   21.5989 C   0  0  0  0  0  0  0  0  0  0  0  0
  -21.0007  -31.5221   24.0709 C   0  0  0  0  0  0  0  0  0  0  0  0
  -24.5797  -21.5454   24.3354 C   0  0  0  0  0  0  0  0  0  0  0  0
  -21.1680  -31.1926   22.5909 C   0  0  0  0  0  0  0  0  0  0  0  0
  -24.6573  -20.0251   24.4862 C   0  0  0  0  0  0  0  0  0  0  0  0
  -24.8782  -21.9866   22.9042 C   0  0  0  0  0  0  0  0  0  0  0  0
  -26.2288  -19.9641   22.5049 C   0  0  0  0  0  0  0  0  0  0  0  0
  -20.5630  -29.8232   22.2588 C   0  0  1  0  0  0  0  0  0  0  0  0
  -23.2911  -27.1969   22.5651 C   0  0  1  0  0  0  0  0  0  0  0  0
  -25.9902  -19.4752   23.9438 C   0  0  2  0  0  0  0  0  0  0  0  0
  -30.7781  -21.8024   21.6589 C   0  0  0  0  0  0  0  0  0  0  0  0
  -30.3653  -27.1799   25.9342 C   0  0  0  0  0  0  0  0  0  0  0  0
  -25.3032  -31.2511   23.5007 C   0  0  0  0  0  0  0  0  0  0  0  0
  -27.5804  -31.1125   24.5319 C   0  0  0  0  0  0  0  0  0  0  0  0
  -25.5617  -30.5696   25.8931 C   0  0  0  0  0  0  0  0  0  0  0  0
  -27.5122  -24.7232   25.3861 C   0  0  0  0  0  0  0  0  0  0  0  0
  -28.1017  -24.7705   15.7836 C   0  0  0  0  0  0  0  0  0  0  0  0
  -29.2593  -24.9089   16.7749 C   0  0  0  0  0  0  0  0  0  0  0  0
  -26.7311  -24.7785   16.4504 C   0  0  0  0  0  0  0  0  0  1  0  0
  -29.4810  -22.4597   21.1280 C   0  0  2  0  0  0  0  0  0  0  0  0
  -26.3194  -28.9548   24.1013 C   0  0  1  0  0  0  0  0  0  0  0  0
  -28.9145  -26.7538   25.7719 C   0  0  2  0  0  0  0  0  0  0  0  0
  -26.1844  -30.4556   24.4845 C   0  0  0  0  0  0  0  0  0  0  0  0
  -29.5637  -21.7231   18.7696 N   0  0  0  0  0  0  0  0  0  0  0  0
  -25.6542  -17.2189   23.0062 N   0  0  0  0  0  0  0  0  0  0  0  0
  -29.3537  -23.8760   19.0791 N   0  0  0  0  0  0  0  0  0  0  0  0
  -29.3704  -23.7580   17.7427 N   0  0  0  0  0  0  0  0  0  0  0  0
  -26.0567  -17.9629   24.0505 N   0  0  0  0  0  0  0  0  0  0  0  0
  -24.6493  -27.7038   22.7711 N   0  0  0  0  0  0  0  0  0  0  0  0
  -26.1563  -21.4327   22.4508 N   0  0  0  0  0  0  0  0  0  0  0  0
  -26.9312  -17.8183   26.2471 N   0  0  0  0  0  0  0  0  0  0  0  0
  -26.5078  -13.4962   25.0076 N   0  0  0  0  0  0  0  0  0  0  0  0
  -21.4489  -28.7620   22.6872 N   0  0  0  0  0  0  0  0  0  0  0  0
  -27.1263  -28.1712   25.0304 N   0  0  0  0  0  0  0  0  0  0  0  0
  -28.3482  -21.6965   21.6025 N   0  0  0  0  0  0  0  0  0  0  0  0
  -28.8800  -25.2820   25.5402 N   0  3  0  0  0  0  0  0  0  0  0  0
  -27.1447  -14.8902   26.7135 O   0  0  0  0  0  0  0  0  0  0  0  0
  -22.8297  -28.7107   20.8128 O   0  0  0  0  0  0  0  0  0  0  0  0
  -24.2615  -28.2079   25.0142 O   0  0  0  0  0  0  0  0  0  0  0  0
  -28.6853  -27.4539   23.4709 O   0  0  0  0  0  0  0  0  0  0  0  0
  -27.0266  -23.5309   21.9838 O   0  0  0  0  0  0  0  0  0  0  0  0
  -24.5972  -11.6459   20.1126 O   0  0  0  0  0  0  0  0  0  0  0  0
  -26.5751  -26.0055   17.1621 O   0  0  0  0  0  0  0  0  0  1  0  0
  -21.8388   -7.4184   22.3315 F   0  0  0  0  0  0  0  0  0  0  0  0
  -22.1221  -10.8977   19.1346 F   0  0  0  0  0  0  0  0  0  0  0  0
  1  2  1  0  0  0  0
  1  5  2  0  0  0  0
  2  6  2  0  0  0  0
  3  8  2  0  0  0  0
  3 16  1  0  0  0  0
  4  9  1  0  0  0  0
  4 16  2  0  0  0  0
  5 18  1  0  0  0  0
  6 20  1  0  0  0  0
  7 10  2  0  0  0  0
  7 19  1  0  0  0  0
  8 22  1  0  0  0  0
  9 22  2  0  0  0  0
 10 23  1  0  0  0  0
 11 12  2  0  0  0  0
 11 24  1  0  0  0  0
 12 25  1  0  0  0  0
 13 21  1  0  0  0  0
 13 23  2  0  0  0  0
 14 25  2  0  0  0  0
 14 26  1  0  0  0  0
 15 60  2  0  0  0  0
 15 63  1  0  0  0  0
 16 27  1  0  0  0  0
 17 27  1  0  0  0  0
 17 28  2  0  0  0  0
 17 30  1  0  0  0  0
 18 20  2  0  0  0  0
 18 35  1  0  0  0  0
 19 21  2  0  0  0  0
 19 36  1  0  0  0  0
 20 44  1  0  0  0  0
 21 37  1  0  0  0  0
 22 78  1  0  0  0  0
 23 79  1  0  0  0  0
 24 26  2  0  0  0  0
 24 78  1  0  0  0  0
 25 80  1  0  0  0  0
 26 81  1  0  0  0  0
 27 61  2  0  0  0  0
 28 64  1  0  0  0  0
 28 67  1  0  0  0  0
 29 56  1  0  0  0  0
 29 60  1  0  0  0  0
 29 62  2  0  0  0  0
 30 68  1  0  0  0  0
 30 73  2  0  0  0  0
 31 45  1  0  0  0  0
 31 69  1  0  0  0  0
 31 74  2  0  0  0  0
 32 57  1  0  0  0  0
 32 65  1  0  0  0  0
 32 75  2  0  0  0  0
 33 58  1  0  0  0  0
 33 70  1  0  0  0  0
 33 76  2  0  0  0  0
 34 66  1  0  0  0  0
 34 71  1  0  0  0  0
 34 77  2  0  0  0  0
 35 38  1  0  0  0  0
 36 45  1  0  0  0  0
 37 65  1  0  0  0  0
 38 40  1  0  0  0  0
 39 41  1  0  0  0  0
 39 42  1  0  0  0  0
 40 44  1  0  0  0  0
 41 46  1  0  0  0  0
 42 66  1  0  0  0  0
 43 46  1  0  0  0  0
 43 66  1  0  0  0  0
 44 69  1  0  0  0  0
 45 65  1  0  0  0  0
 46 64  1  0  0  0  0
 47 56  1  0  0  0  0
 48 58  1  0  0  0  0
 49 59  1  0  0  0  0
 50 59  1  0  0  0  0
 51 59  1  0  0  0  0
 52 72  1  0  0  0  0
 53 54  1  0  0  0  0
 53 55  1  0  0  0  0
 54 63  1  0  0  0  0
 55 79  1  0  0  0  0
 56 71  1  0  0  0  0
 57 59  1  0  0  0  0
 57 70  1  0  0  0  0
 58 72  1  0  0  0  0
 61 64  1  0  0  0  0
 62 63  1  0  0  0  0
M  CHG  1  72   1
M  ISO  4  34 100  55 101  71 100  79 101
M  END
> <Batch ID>
0058

> <Smiles>
CNC(C)C(=O)NC(C(=O)N1Cc2cc([101O:1][101CH2:1]CCn3cnc(C(C)[100NH:0][100C:0](=O)N4CCCC(n5nc(-c6ccc(Oc7ccc(F)cc7F)cc6)c(C(N)=O)c5N)C4)n3)ccc2CC1C(=O)NC1CCCc2ccccc21)C(C)(C)C

> <Shape>
0.222

> <Color>
0.071

> <Negative vol penalty>
0.000

$$$$

  -OEChem-04052317503D

 81 89  0     1  0  0  0  0  0999 V2000
  -28.9558  -36.7365   24.4364 C   0  0  0  0  0  0  0  0  0  0  0  0
  -29.2181  -35.9527   23.3173 C   0  0  0  0  0  0  0  0  0  0  0  0
  -28.1255  -14.0757   22.3227 C   0  0  0  0  0  0  0  0  0  0  0  0
  -26.8078  -15.3721   20.7670 C   0  0  0  0  0  0  0  0  0  0  0  0
  -28.3125  -36.1794   25.5409 C   0  0  0  0  0  0  0  0  0  0  0  0
  -28.8384  -34.6111   23.3025 C   0  0  0  0  0  0  0  0  0  0  0  0
  -26.5632  -29.5020   18.8262 C   0  0  0  0  0  0  0  0  0  0  0  0
  -27.4354  -12.9233   21.9470 C   0  0  0  0  0  0  0  0  0  0  0  0
  -26.1177  -14.2196   20.3912 C   0  0  0  0  0  0  0  0  0  0  0  0
  -26.8627  -28.1961   18.4409 C   0  0  0  0  0  0  0  0  0  0  0  0
  -26.2673   -9.5776   21.1365 C   0  0  0  0  0  0  0  0  0  0  0  0
  -27.0133   -8.4230   20.9003 C   0  0  0  0  0  0  0  0  0  0  0  0
  -25.6867  -27.3621   20.3749 C   0  0  0  0  0  0  0  0  0  0  0  0
  -28.2228   -9.5631   19.1470 C   0  0  0  0  0  0  0  0  0  0  0  0
  -26.0866  -21.2146   19.9389 C   0  0  0  0  0  0  0  0  0  0  0  0
  -27.8117  -15.3002   21.7327 C   0  0  0  0  0  0  0  0  0  0  0  0
  -29.7035  -17.0013   21.5465 C   0  0  0  0  0  0  0  0  0  0  0  0
  -27.9160  -34.8328   25.5358 C   0  0  0  0  0  0  0  0  0  0  0  0
  -25.8312  -29.7487   19.9966 C   0  0  0  0  0  0  0  0  0  0  0  0
  -28.1904  -34.0352   24.4085 C   0  0  0  0  0  0  0  0  0  0  0  0
  -25.3770  -28.6720   20.7716 C   0  0  0  0  0  0  0  0  0  0  0  0
  -26.4315  -12.9952   20.9812 C   0  0  0  0  0  0  0  0  0  0  0  0
  -26.4270  -27.1260   19.2168 C   0  0  0  0  0  0  0  0  0  0  0  0
  -26.4989  -10.7250   20.3779 C   0  0  0  0  0  0  0  0  0  0  0  0
  -27.9911   -8.4157   19.9055 C   0  0  0  0  0  0  0  0  0  0  0  0
  -27.4767  -10.7178   19.3832 C   0  0  0  0  0  0  0  0  0  0  0  0
  -28.5239  -16.4911   22.1208 C   0  0  0  0  0  0  0  0  0  0  0  0
  -29.9716  -18.1397   22.2668 C   0  0  0  0  0  0  0  0  0  0  0  0
  -26.2925  -21.7312   22.0364 C   0  0  0  0  0  0  0  0  0  0  0  0
  -30.4869  -16.4919   20.4591 C   0  0  0  0  0  0  0  0  0  0  0  0
  -26.4139  -31.2645   22.7291 C   0  0  0  0  0  0  0  0  0  0  0  0
  -23.2799  -30.6436   23.2902 C   0  0  0  0  0  0  0  0  0  0  0  0
  -20.5494  -28.7023   22.6400 C   0  0  0  0  0  0  0  0  0  0  0  0
  -26.1028  -21.5544   25.5699 C   0  0  0  0  0  0  0  0  0  0  0  0
  -27.2659  -34.2628   26.7716 C   0  0  0  0  0  0  0  0  0  0  0  0
  -25.4935  -31.1622   20.3842 C   0  0  0  0  0  0  0  0  0  0  0  0
  -24.5706  -28.8824   22.0261 C   0  0  0  0  0  0  0  0  0  0  0  0
  -26.5608  -32.9307   26.5296 C   0  0  0  0  0  0  0  0  0  0  0  0
  -29.3456  -20.0866   26.5856 C   0  0  0  0  0  0  0  0  0  0  0  0
  -27.4540  -31.9925   25.7241 C   0  0  0  0  0  0  0  0  0  0  0  0
  -29.5583  -18.9931   25.5401 C   0  0  0  0  0  0  0  0  0  0  0  0
  -27.8642  -20.3636   26.8233 C   0  0  0  0  0  0  0  0  0  0  0  0
  -27.3178  -19.5914   24.5387 C   0  0  0  0  0  0  0  0  0  0  0  0
  -27.7717  -32.5823   24.3448 C   0  0  1  0  0  0  0  0  0  0  0  0
  -25.1824  -31.3163   21.8698 C   0  0  1  0  0  0  0  0  0  0  0  0
  -28.8004  -19.3206   24.2418 C   0  0  2  0  0  0  0  0  0  0  0  0
  -18.1396  -28.4149   23.2785 C   0  0  0  0  0  0  0  0  0  0  0  0
  -24.1332  -29.3730   25.9298 C   0  0  0  0  0  0  0  0  0  0  0  0
  -21.8794  -28.2901   26.0569 C   0  0  0  0  0  0  0  0  0  0  0  0
  -22.0685  -30.7775   26.0674 C   0  0  0  0  0  0  0  0  0  0  0  0
  -24.8072  -23.2559   24.3428 C   0  0  0  0  0  0  0  0  0  0  0  0
  -19.6363  -29.1907   19.8676 C   0  0  0  0  0  0  0  0  0  0  0  0
  -26.8275  -22.3292   23.2727 C   0  0  0  0  0  0  0  0  0  0  0  0
  -27.8397  -23.8103   19.4248 C   0  0  0  0  0  0  0  0  0  0  0  0
  -28.0872  -22.7259   20.4757 C   0  0  0  0  0  0  0  0  0  0  0  0
  -26.8618  -24.8853   19.8848 C   0  0  0  0  0  0  0  0  0  1  0  0
  -22.5117  -29.5098   23.9253 C   0  0  1  0  0  0  0  0  0  0  0  0
  -19.1131  -29.0633   22.3066 C   0  0  2  0  0  0  0  0  0  0  0  0
  -22.6650  -29.4834   25.4723 C   0  0  0  0  0  0  0  0  0  0  0  0
  -25.1021  -20.6338   20.5869 N   0  0  0  0  0  0  0  0  0  0  0  0
  -28.0736  -17.2435   23.1284 N   0  0  0  0  0  0  0  0  0  0  0  0
  -25.2331  -20.9625   21.9214 N   0  0  0  0  0  0  0  0  0  0  0  0
  -26.8607  -21.9160   20.8126 N   0  0  0  0  0  0  0  0  0  0  0  0
  -28.9752  -18.2381   23.1929 N   0  0  0  0  0  0  0  0  0  0  0  0
  -24.2713  -30.2831   22.3666 N   0  0  0  0  0  0  0  0  0  0  0  0
  -27.1595  -20.6291   25.5687 N   0  0  0  0  0  0  0  0  0  0  0  0
  -30.9600  -19.0561   22.1920 N   0  0  0  0  0  0  0  0  0  0  0  0
  -30.0690  -15.3111   19.8303 N   0  0  0  0  0  0  0  0  0  0  0  0
  -26.6436  -32.4188   23.4531 N   0  0  0  0  0  0  0  0  0  0  0  0
  -21.1340  -29.6411   23.4635 N   0  0  0  0  0  0  0  0  0  0  0  0
  -25.8836  -22.2765   24.3870 N   0  0  0  0  0  0  0  0  0  0  0  0
  -18.7721  -28.6114   20.9280 N   0  3  0  0  0  0  0  0  0  0  0  0
  -31.5357  -17.0579   20.0677 O   0  0  0  0  0  0  0  0  0  0  0  0
  -27.1037  -30.2517   22.7359 O   0  0  0  0  0  0  0  0  0  0  0  0
  -23.0054  -31.8065   23.5967 O   0  0  0  0  0  0  0  0  0  0  0  0
  -21.0967  -27.6870   22.2157 O   0  0  0  0  0  0  0  0  0  0  0  0
  -25.4018  -21.7323   26.5743 O   0  0  0  0  0  0  0  0  0  0  0  0
  -25.7580  -11.8708   20.6142 O   0  0  0  0  0  0  0  0  0  0  0  0
  -26.7186  -25.8503   18.8433 O   0  0  0  0  0  0  0  0  0  1  0  0
  -28.7085   -7.3073   19.6798 F   0  0  0  0  0  0  0  0  0  0  0  0
  -27.7047  -11.8174   18.6520 F   0  0  0  0  0  0  0  0  0  0  0  0
  1  2  1  0  0  0  0
  1  5  2  0  0  0  0
  2  6  2  0  0  0  0
  3  8  2  0  0  0  0
  3 16  1  0  0  0  0
  4  9  1  0  0  0  0
  4 16  2  0  0  0  0
  5 18  1  0  0  0  0
  6 20  1  0  0  0  0
  7 10  2  0  0  0  0
  7 19  1  0  0  0  0
  8 22  1  0  0  0  0
  9 22  2  0  0  0  0
 10 23  1  0  0  0  0
 11 12  2  0  0  0  0
 11 24  1  0  0  0  0
 12 25  1  0  0  0  0
 13 21  1  0  0  0  0
 13 23  2  0  0  0  0
 14 25  2  0  0  0  0
 14 26  1  0  0  0  0
 15 60  2  0  0  0  0
 15 63  1  0  0  0  0
 16 27  1  0  0  0  0
 17 27  1  0  0  0  0
 17 28  2  0  0  0  0
 17 30  1  0  0  0  0
 18 20  2  0  0  0  0
 18 35  1  0  0  0  0
 19 21  2  0  0  0  0
 19 36  1  0  0  0  0
 20 44  1  0  0  0  0
 21 37  1  0  0  0  0
 22 78  1  0  0  0  0
 23 79  1  0  0  0  0
 24 26  2  0  0  0  0
 24 78  1  0  0  0  0
 25 80  1  0  0  0  0
 26 81  1  0  0  0  0
 27 61  2  0  0  0  0
 28 64  1  0  0  0  0
 28 67  1  0  0  0  0
 29 53  1  0  0  0  0
 29 62  2  0  0  0  0
 29 63  1  0  0  0  0
 30 68  1  0  0  0  0
 30 73  2  0  0  0  0
 31 45  1  0  0  0  0
 31 69  1  0  0  0  0
 31 74  2  0  0  0  0
 32 57  1  0  0  0  0
 32 65  1  0  0  0  0
 32 75  2  0  0  0  0
 33 58  1  0  0  0  0
 33 70  1  0  0  0  0
 33 76  2  0  0  0  0
 34 66  1  0  0  0  0
 34 71  1  0  0  0  0
 34 77  2  0  0  0  0
 35 38  1  0  0  0  0
 36 45  1  0  0  0  0
 37 65  1  0  0  0  0
 38 40  1  0  0  0  0
 39 41  1  0  0  0  0
 39 42  1  0  0  0  0
 40 44  1  0  0  0  0
 41 46  1  0  0  0  0
 42 66  1  0  0  0  0
 43 46  1  0  0  0  0
 43 66  1  0  0  0  0
 44 69  1  0  0  0  0
 45 65  1  0  0  0  0
 46 64  1  0  0  0  0
 47 58  1  0  0  0  0
 48 59  1  0  0  0  0
 49 59  1  0  0  0  0
 50 59  1  0  0  0  0
 51 71  1  0  0  0  0
 52 72  1  0  0  0  0
 53 71  1  0  0  0  0
 54 55  1  0  0  0  0
 54 56  1  0  0  0  0
 55 63  1  0  0  0  0
 56 79  1  0  0  0  0
 57 59  1  0  0  0  0
 57 70  1  0  0  0  0
 58 72  1  0  0  0  0
 60 62  1  0  0  0  0
 61 64  1  0  0  0  0
M  CHG  1  72   1
M  ISO  4  34 100  56 101  71 100  79 101
M  END
> <Batch ID>
0058

> <Smiles>
CNC(C)C(=O)NC(C(=O)N1Cc2cc([101O:1][101CH2:1]CCn3cnnc3C[100N:0](C)[100C:0](=O)N3CCCC(n4nc(-c5ccc(Oc6ccc(F)cc6F)cc5)c(C(N)=O)c4N)C3)ccc2CC1C(=O)NC1CCCc2ccccc21)C(C)(C)C

> <Shape>
0.225

> <Color>
0.069

> <Negative vol penalty>
0.000

$$$$

  -OEChem-04052317503D

 83 91  0     1  0  0  0  0  0999 V2000
  -27.4115  -17.9791   25.0286 C   0  0  0  0  0  0  0  0  0  0  0  0
  -27.8335  -19.2990   24.9047 C   0  0  0  0  0  0  0  0  0  0  0  0
  -26.7300  -12.5908   20.6092 C   0  0  0  0  0  0  0  0  0  0  0  0
  -25.2134  -14.4422   20.2786 C   0  0  0  0  0  0  0  0  0  0  0  0
  -26.4156  -17.4849   24.1873 C   0  0  0  0  0  0  0  0  0  0  0  0
  -27.2605  -20.1251   23.9384 C   0  0  0  0  0  0  0  0  0  0  0  0
  -26.1800  -26.1351   24.4050 C   0  0  0  0  0  0  0  0  0  0  0  0
  -25.7043  -11.8569   21.2048 C   0  0  0  0  0  0  0  0  0  0  0  0
  -24.1876  -13.7082   20.8741 C   0  0  0  0  0  0  0  0  0  0  0  0
  -26.8811  -27.2521   23.9527 C   0  0  0  0  0  0  0  0  0  0  0  0
  -23.0190  -10.0629   20.2029 C   0  0  0  0  0  0  0  0  0  0  0  0
  -22.8663   -8.7313   19.8170 C   0  0  0  0  0  0  0  0  0  0  0  0
  -25.4737  -27.3356   21.9954 C   0  0  0  0  0  0  0  0  0  0  0  0
  -23.2379   -8.0276   22.0982 C   0  0  0  0  0  0  0  0  0  0  0  0
  -31.0367  -26.2376   20.0299 C   0  0  0  0  0  0  0  0  0  0  0  0
  -29.1738  -25.6124   21.0168 C   0  0  0  0  0  0  0  0  0  0  0  0
  -26.4846  -13.8835   20.1462 C   0  0  0  0  0  0  0  0  0  0  0  0
  -28.2738  -14.3022   18.3766 C   0  0  0  0  0  0  0  0  0  0  0  0
  -25.8233  -18.3082   23.2167 C   0  0  0  0  0  0  0  0  0  0  0  0
  -25.1257  -25.6025   23.6492 C   0  0  0  0  0  0  0  0  0  0  0  0
  -26.2567  -19.6411   23.0824 C   0  0  0  0  0  0  0  0  0  0  0  0
  -24.7591  -26.2134   22.4415 C   0  0  0  0  0  0  0  0  0  0  0  0
  -30.1029  -26.6241   21.0099 C   0  0  0  0  0  0  0  0  0  0  0  0
  -24.4331  -12.4155   21.3372 C   0  0  0  0  0  0  0  0  0  0  0  0
  -26.5299  -27.8508   22.7464 C   0  0  0  0  0  0  0  0  0  0  0  0
  -23.2812  -10.3769   21.5364 C   0  0  0  0  0  0  0  0  0  0  0  0
  -22.9757   -7.7136   20.7646 C   0  0  0  0  0  0  0  0  0  0  0  0
  -23.3907   -9.3593   22.4841 C   0  0  0  0  0  0  0  0  0  0  0  0
  -27.5440  -14.6424   19.5314 C   0  0  0  0  0  0  0  0  0  0  0  0
  -29.1561  -15.3415   18.2094 C   0  0  0  0  0  0  0  0  0  0  0  0
  -28.1640  -13.1498   17.5307 C   0  0  0  0  0  0  0  0  0  0  0  0
  -24.5710  -22.8154   22.2252 C   0  0  0  0  0  0  0  0  0  0  0  0
  -21.6513  -24.1187   21.6782 C   0  0  0  0  0  0  0  0  0  0  0  0
  -28.8678  -21.0115   19.9539 C   0  0  0  0  0  0  0  0  0  0  0  0
  -19.7531  -26.9343   21.3380 C   0  0  0  0  0  0  0  0  0  0  0  0
  -24.7837  -17.7157   22.2987 C   0  0  0  0  0  0  0  0  0  0  0  0
  -24.3620  -24.4133   24.1639 C   0  0  0  0  0  0  0  0  0  0  0  0
  -23.6218  -25.6925   21.6026 C   0  0  0  0  0  0  0  0  0  0  0  0
  -23.9638  -18.7635   21.5503 C   0  0  0  0  0  0  0  0  0  0  0  0
  -31.5510  -18.6632   20.6700 C   0  0  0  0  0  0  0  0  0  0  0  0
  -24.8764  -19.8340   20.9603 C   0  0  0  0  0  0  0  0  0  0  0  0
  -30.8730  -17.3256   20.3765 C   0  0  0  0  0  0  0  0  0  0  0  0
  -30.5734  -19.6672   21.2752 C   0  0  0  0  0  0  0  0  0  0  0  0
  -28.6694  -18.5534   20.1532 C   0  0  0  0  0  0  0  0  0  0  0  0
  -25.6418  -20.5753   22.0630 C   0  0  1  0  0  0  0  0  0  0  0  0
  -23.6388  -23.6451   23.0620 C   0  0  1  0  0  0  0  0  0  0  0  0
  -29.6144  -17.5225   19.5135 C   0  0  2  0  0  0  0  0  0  0  0  0
  -17.6858  -28.3290   21.0577 C   0  0  0  0  0  0  0  0  0  0  0  0
  -27.2809  -29.8463   20.0808 C   0  0  0  0  0  0  0  0  0  0  0  0
  -22.0550  -23.4728   18.7236 C   0  0  0  0  0  0  0  0  0  0  0  0
  -20.1845  -25.0508   18.1948 C   0  0  0  0  0  0  0  0  0  0  0  0
  -19.7498  -23.0249   19.5839 C   0  0  0  0  0  0  0  0  0  0  0  0
  -19.2924  -27.0465   24.2593 C   0  0  0  0  0  0  0  0  0  0  0  0
  -30.1182  -27.8669   21.8635 C   0  0  0  0  0  0  0  0  0  0  0  0
  -29.3769  -29.0572   21.2375 C   0  0  0  0  0  0  0  0  0  0  0  0
  -28.9359  -23.4810   19.7211 C   0  0  0  0  0  0  0  0  0  0  0  0
  -21.0432  -24.9559   20.5790 C   0  0  1  0  0  0  0  0  0  0  0  0
  -18.4144  -27.3252   21.9376 C   0  0  2  0  0  0  0  0  0  0  0  0
  -27.8736  -28.8245   21.0427 C   0  0  1  0  0  0  0  0  0  1  0  0
  -29.6227  -22.2621   20.3282 C   0  0  0  0  0  0  0  0  0  0  0  0
  -20.7808  -24.1350   19.2849 C   0  0  0  0  0  0  0  0  0  0  0  0
  -30.7291  -25.0714   19.4560 N   0  0  0  0  0  0  0  0  0  0  0  0
  -27.9293  -15.8067   20.0604 N   0  0  0  0  0  0  0  0  0  0  0  0
  -29.5916  -24.7163   20.0774 N   0  0  0  0  0  0  0  0  0  0  0  0
  -28.9108  -16.2072   19.2345 N   0  0  0  0  0  0  0  0  0  0  0  0
  -22.9097  -24.5238   22.1453 N   0  0  0  0  0  0  0  0  0  0  0  0
  -29.3760  -19.8057   20.4376 N   0  0  0  0  0  0  0  0  0  0  0  0
  -30.1100  -15.5902   17.2871 N   0  0  0  0  0  0  0  0  0  0  0  0
  -27.2857  -13.2030   16.4398 N   0  0  0  0  0  0  0  0  0  0  0  0
  -24.7818  -21.5403   22.7140 N   0  0  0  0  0  0  0  0  0  0  0  0
  -19.8494  -25.5720   21.1481 N   0  0  0  0  0  0  0  0  0  0  0  0
  -18.6078  -27.9339   23.2841 N   0  3  0  0  0  0  0  0  0  0  0  0
  -28.8130  -12.0980   17.7457 O   0  0  0  0  0  0  0  0  0  0  0  0
  -25.0614  -23.2960   21.2102 O   0  0  0  0  0  0  0  0  0  0  0  0
  -21.0295  -23.1455   22.1115 O   0  0  0  0  0  0  0  0  0  0  0  0
  -27.8586  -21.1053   19.2505 O   0  0  0  0  0  0  0  0  0  0  0  0
  -20.6246  -27.7558   21.0619 O   0  0  0  0  0  0  0  0  0  0  0  0
  -23.4318  -11.6996   21.9181 O   0  0  0  0  0  0  0  0  0  0  0  0
  -27.2131  -28.9407   22.3023 O   0  0  0  0  0  0  0  0  0  1  0  0
  -22.8275   -6.4349   20.3942 F   0  0  0  0  0  0  0  0  0  0  0  0
  -23.6414   -9.6549   23.7669 F   0  0  0  0  0  0  0  0  0  0  0  0
  -29.6808  -22.3915   21.6791 F   0  0  0  0  0  0  0  0  0  0  0  0
  -30.9053  -22.1887   19.8876 F   0  0  0  0  0  0  0  0  0  0  0  0
  1  2  1  0  0  0  0
  1  5  2  0  0  0  0
  2  6  2  0  0  0  0
  3  8  2  0  0  0  0
  3 17  1  0  0  0  0
  4  9  1  0  0  0  0
  4 17  2  0  0  0  0
  5 19  1  0  0  0  0
  6 21  1  0  0  0  0
  7 10  2  0  0  0  0
  7 20  1  0  0  0  0
  8 24  1  0  0  0  0
  9 24  2  0  0  0  0
 10 25  1  0  0  0  0
 11 12  2  0  0  0  0
 11 26  1  0  0  0  0
 12 27  1  0  0  0  0
 13 22  1  0  0  0  0
 13 25  2  0  0  0  0
 14 27  2  0  0  0  0
 14 28  1  0  0  0  0
 15 23  1  0  0  0  0
 15 62  2  0  0  0  0
 16 23  2  0  0  0  0
 16 64  1  0  0  0  0
 17 29  1  0  0  0  0
 18 29  1  0  0  0  0
 18 30  2  0  0  0  0
 18 31  1  0  0  0  0
 19 21  2  0  0  0  0
 19 36  1  0  0  0  0
 20 22  2  0  0  0  0
 20 37  1  0  0  0  0
 21 45  1  0  0  0  0
 22 38  1  0  0  0  0
 23 54  1  0  0  0  0
 24 78  1  0  0  0  0
 25 79  1  0  0  0  0
 26 28  2  0  0  0  0
 26 78  1  0  0  0  0
 27 80  1  0  0  0  0
 28 81  1  0  0  0  0
 29 63  2  0  0  0  0
 30 65  1  0  0  0  0
 30 68  1  0  0  0  0
 31 69  1  0  0  0  0
 31 73  2  0  0  0  0
 32 46  1  0  0  0  0
 32 70  1  0  0  0  0
 32 74  2  0  0  0  0
 33 57  1  0  0  0  0
 33 66  1  0  0  0  0
 33 75  2  0  0  0  0
 34 60  1  0  0  0  0
 34 67  1  0  0  0  0
 34 76  2  0  0  0  0
 35 58  1  0  0  0  0
 35 71  1  0  0  0  0
 35 77  2  0  0  0  0
 36 39  1  0  0  0  0
 37 46  1  0  0  0  0
 38 66  1  0  0  0  0
 39 41  1  0  0  0  0
 40 42  1  0  0  0  0
 40 43  1  0  0  0  0
 41 45  1  0  0  0  0
 42 47  1  0  0  0  0
 43 67  1  0  0  0  0
 44 47  1  0  0  0  0
 44 67  1  0  0  0  0
 45 70  1  0  0  0  0
 46 66  1  0  0  0  0
 47 65  1  0  0  0  0
 48 58  1  0  0  0  0
 49 59  1  0  0  0  0
 50 61  1  0  0  0  0
 51 61  1  0  0  0  0
 52 61  1  0  0  0  0
 53 72  1  0  0  0  0
 54 55  1  0  0  0  0
 55 59  1  0  0  0  0
 56 60  1  0  0  0  0
 56 64  1  0  0  0  0
 57 61  1  0  0  0  0
 57 71  1  0  0  0  0
 58 72  1  0  0  0  0
 59 79  1  0  0  0  0
 60 82  1  0  0  0  0
 60 83  1  0  0  0  0
 62 64  1  0  0  0  0
 63 65  1  0  0  0  0
M  CHG  1  72   1
M  ISO  4  34 100  59 101  60 100  79 101
M  END
> <Batch ID>
0058

> <Smiles>
CNC(C)C(=O)NC(C(=O)N1Cc2cc([101O:1][101CH:1](C)CCc3cnn(C[100C:0](F)(F)[100C:0](=O)N4CCCC(n5nc(-c6ccc(Oc7ccc(F)cc7F)cc6)c(C(N)=O)c5N)C4)c3)ccc2CC1C(=O)NC1CCCc2ccccc21)C(C)(C)C

> <Shape>
0.234

> <Color>
0.052

> <Negative vol penalty>
0.000

$$$$

  -OEChem-04052317503D

 77 85  0     1  0  0  0  0  0999 V2000
  -19.9895  -34.8627   22.4091 C   0  0  0  0  0  0  0  0  0  0  0  0
  -21.3226  -34.4666   22.3724 C   0  0  0  0  0  0  0  0  0  0  0  0
  -25.3038  -16.0011   21.5456 C   0  0  0  0  0  0  0  0  0  0  0  0
  -25.1824  -15.5667   19.1720 C   0  0  0  0  0  0  0  0  0  0  0  0
  -19.0027  -33.9514   22.7831 C   0  0  0  0  0  0  0  0  0  0  0  0
  -21.6698  -33.1591   22.7108 C   0  0  0  0  0  0  0  0  0  0  0  0
  -26.1681  -29.7956   20.2699 C   0  0  0  0  0  0  0  0  0  0  0  0
  -24.1287  -15.2748   21.7386 C   0  0  0  0  0  0  0  0  0  0  0  0
  -24.0073  -14.8404   19.3651 C   0  0  0  0  0  0  0  0  0  0  0  0
  -27.4670  -29.5175   20.6934 C   0  0  0  0  0  0  0  0  0  0  0  0
  -21.3567  -13.2310   22.9021 C   0  0  0  0  0  0  0  0  0  0  0  0
  -21.3222  -12.3227   23.9600 C   0  0  0  0  0  0  0  0  0  0  0  0
  -26.6990  -27.4506   21.6718 C   0  0  0  0  0  0  0  0  0  0  0  0
  -23.1753  -11.1171   22.9855 C   0  0  0  0  0  0  0  0  0  0  0  0
  -30.8315  -25.1799   21.5027 C   0  0  0  0  0  0  0  0  0  0  0  0
  -25.8306  -16.1472   20.2622 C   0  0  0  0  0  0  0  0  0  0  0  0
  -28.3624  -16.4045   20.0848 C   0  0  0  0  0  0  0  0  0  0  0  0
  -19.3370  -32.6295   23.1169 C   0  0  0  0  0  0  0  0  0  0  0  0
  -25.1212  -28.9070   20.5541 C   0  0  0  0  0  0  0  0  0  0  0  0
  -20.6868  -32.2297   23.0909 C   0  0  0  0  0  0  0  0  0  0  0  0
  -25.3882  -27.7185   21.2485 C   0  0  0  0  0  0  0  0  0  0  0  0
  -23.4805  -14.6944   20.6484 C   0  0  0  0  0  0  0  0  0  0  0  0
  -27.7321  -28.3463   21.3969 C   0  0  0  0  0  0  0  0  0  0  0  0
  -22.3005  -13.0823   21.8857 C   0  0  0  0  0  0  0  0  0  0  0  0
  -22.2315  -11.2657   24.0018 C   0  0  0  0  0  0  0  0  0  0  0  0
  -23.2098  -12.0254   21.9275 C   0  0  0  0  0  0  0  0  0  0  0  0
  -27.0441  -16.8978   20.0621 C   0  0  0  0  0  0  0  0  0  0  0  0
  -30.6585  -24.1667   20.5935 C   0  0  0  0  0  0  0  0  0  0  0  0
  -29.1456  -17.5064   19.8422 C   0  0  0  0  0  0  0  0  0  0  0  0
  -28.8366  -15.0695   20.3053 C   0  0  0  0  0  0  0  0  0  0  0  0
  -30.3950  -22.7524   20.8857 C   0  0  0  0  0  0  0  0  0  0  0  0
  -22.4171  -29.0845   22.2155 C   0  0  0  0  0  0  0  0  0  0  0  0
  -21.9211  -26.1259   20.9813 C   0  0  0  0  0  0  0  0  0  0  0  0
  -23.2565  -23.2763   19.6611 C   0  0  0  0  0  0  0  0  0  0  0  0
  -18.2408  -31.6935   23.5607 C   0  0  0  0  0  0  0  0  0  0  0  0
  -23.7304  -29.2087   20.0671 C   0  0  0  0  0  0  0  0  0  0  0  0
  -24.3031  -26.7219   21.5613 C   0  0  0  0  0  0  0  0  0  0  0  0
  -18.6510  -30.2232   23.5427 C   0  0  0  0  0  0  0  0  0  0  0  0
  -27.9083  -22.1619   18.3099 C   0  0  0  0  0  0  0  0  0  0  0  0
  -20.0187  -30.0425   24.1934 C   0  0  0  0  0  0  0  0  0  0  0  0
  -27.5581  -20.6939   18.5566 C   0  0  0  0  0  0  0  0  0  0  0  0
  -28.1891  -22.8938   19.6187 C   0  0  0  0  0  0  0  0  0  0  0  0
  -28.9023  -20.7900   20.7044 C   0  0  0  0  0  0  0  0  0  0  0  0
  -21.1004  -30.8134   23.4271 C   0  0  1  0  0  0  0  0  0  0  0  0
  -22.6489  -28.4807   20.8592 C   0  0  1  0  0  0  0  0  0  0  0  0
  -28.6349  -20.0004   19.4112 C   0  0  1  0  0  0  0  0  0  0  0  0
  -22.6034  -21.0184   18.7820 C   0  0  0  0  0  0  0  0  0  0  0  0
  -21.4719  -25.1470   23.8362 C   0  0  0  0  0  0  0  0  0  0  0  0
  -21.7723  -22.8042   23.0059 C   0  0  0  0  0  0  0  0  0  0  0  0
  -19.8904  -24.1983   22.1470 C   0  0  0  0  0  0  0  0  0  0  0  0
  -24.3759  -23.8657   16.9855 C   0  0  0  0  0  0  0  0  0  0  0  0
  -31.2969  -27.6933   21.1743 C   0  0  0  0  0  0  0  0  0  0  0  0
  -30.0676  -28.5812   21.0149 C   0  0  0  0  0  0  0  0  0  1  0  0
  -22.2533  -24.7180   21.4131 C   0  0  1  0  0  0  0  0  0  0  0  0
  -22.8902  -22.4694   18.4285 C   0  0  2  0  0  0  0  0  0  0  0  0
  -21.3673  -24.2364   22.5965 C   0  0  0  0  0  0  0  0  0  0  0  0
  -26.9890  -18.2109   19.8241 N   0  0  0  0  0  0  0  0  0  0  0  0
  -30.7676  -24.6645   19.3247 N   0  0  0  0  0  0  0  0  0  0  0  0
  -31.0053  -25.9683   19.4166 N   0  0  0  0  0  0  0  0  0  0  0  0
  -31.0432  -26.2753   20.7235 N   0  0  0  0  0  0  0  0  0  0  0  0
  -28.2824  -18.5521   19.6951 N   0  0  0  0  0  0  0  0  0  0  0  0
  -29.2137  -22.1877   20.3985 N   0  0  0  0  0  0  0  0  0  0  0  0
  -22.9585  -27.0650   21.0694 N   0  0  0  0  0  0  0  0  0  0  0  0
  -30.4815  -17.6732   19.7426 N   0  0  0  0  0  0  0  0  0  0  0  0
  -27.8966  -14.0567   20.5395 N   0  0  0  0  0  0  0  0  0  0  0  0
  -21.4772  -30.0974   22.2272 N   0  0  0  0  0  0  0  0  0  0  0  0
  -22.1534  -23.8897   20.2162 N   0  0  0  0  0  0  0  0  0  0  0  0
  -24.0043  -22.5007   17.4391 N   0  3  0  0  0  0  0  0  0  0  0  0
  -30.0586  -14.7862   20.3113 O   0  0  0  0  0  0  0  0  0  0  0  0
  -31.2553  -22.1640   21.5390 O   0  0  0  0  0  0  0  0  0  0  0  0
  -23.0435  -28.6617   23.1801 O   0  0  0  0  0  0  0  0  0  0  0  0
  -20.7851  -26.3814   20.5740 O   0  0  0  0  0  0  0  0  0  0  0  0
  -24.4055  -23.3515   20.0908 O   0  0  0  0  0  0  0  0  0  0  0  0
  -22.3340  -13.9854   20.8364 O   0  0  0  0  0  0  0  0  0  0  0  0
  -28.9989  -28.0727   21.8120 O   0  0  0  0  0  0  0  0  0  1  0  0
  -22.1992  -10.3944   25.0187 F   0  0  0  0  0  0  0  0  0  0  0  0
  -24.1195  -11.8781   20.9546 F   0  0  0  0  0  0  0  0  0  0  0  0
  1  2  1  0  0  0  0
  1  5  2  0  0  0  0
  2  6  2  0  0  0  0
  3  8  2  0  0  0  0
  3 16  1  0  0  0  0
  4  9  1  0  0  0  0
  4 16  2  0  0  0  0
  5 18  1  0  0  0  0
  6 20  1  0  0  0  0
  7 10  2  0  0  0  0
  7 19  1  0  0  0  0
  8 22  1  0  0  0  0
  9 22  2  0  0  0  0
 10 23  1  0  0  0  0
 11 12  2  0  0  0  0
 11 24  1  0  0  0  0
 12 25  1  0  0  0  0
 13 21  1  0  0  0  0
 13 23  2  0  0  0  0
 14 25  2  0  0  0  0
 14 26  1  0  0  0  0
 15 28  2  0  0  0  0
 15 60  1  0  0  0  0
 16 27  1  0  0  0  0
 17 27  1  0  0  0  0
 17 29  2  0  0  0  0
 17 30  1  0  0  0  0
 18 20  2  0  0  0  0
 18 35  1  0  0  0  0
 19 21  2  0  0  0  0
 19 36  1  0  0  0  0
 20 44  1  0  0  0  0
 21 37  1  0  0  0  0
 22 74  1  0  0  0  0
 23 75  1  0  0  0  0
 24 26  2  0  0  0  0
 24 74  1  0  0  0  0
 25 76  1  0  0  0  0
 26 77  1  0  0  0  0
 27 57  2  0  0  0  0
 28 31  1  0  0  0  0
 28 58  1  0  0  0  0
 29 61  1  0  0  0  0
 29 64  1  0  0  0  0
 30 65  1  0  0  0  0
 30 69  2  0  0  0  0
 31 62  1  0  0  0  0
 31 70  2  0  0  0  0
 32 45  1  0  0  0  0
 32 66  1  0  0  0  0
 32 71  2  0  0  0  0
 33 54  1  0  0  0  0
 33 63  1  0  0  0  0
 33 72  2  0  0  0  0
 34 55  1  0  0  0  0
 34 67  1  0  0  0  0
 34 73  2  0  0  0  0
 35 38  1  0  0  0  0
 36 45  1  0  0  0  0
 37 63  1  0  0  0  0
 38 40  1  0  0  0  0
 39 41  1  0  0  0  0
 39 42  1  0  0  0  0
 40 44  1  0  0  0  0
 41 46  1  0  0  0  0
 42 62  1  0  0  0  0
 43 46  1  0  0  0  0
 43 62  1  0  0  0  0
 44 66  1  0  0  0  0
 45 63  1  0  0  0  0
 46 61  1  0  0  0  0
 47 55  1  0  0  0  0
 48 56  1  0  0  0  0
 49 56  1  0  0  0  0
 50 56  1  0  0  0  0
 51 68  1  0  0  0  0
 52 53  1  0  0  0  0
 52 60  1  0  0  0  0
 53 75  1  0  0  0  0
 54 56  1  0  0  0  0
 54 67  1  0  0  0  0
 55 68  1  0  0  0  0
 57 61  1  0  0  0  0
 58 59  2  0  0  0  0
 59 60  1  0  0  0  0
M  CHG  1  68   1
M  ISO  4  28 100  31 100  53 101  75 101
M  END
> <Batch ID>
0058

> <Smiles>
CNC(C)C(=O)NC(C(=O)N1Cc2cc([101O:1][101CH2:1]Cn3c[100c:0]([100C:0](=O)N4CCCC(n5nc(-c6ccc(Oc7ccc(F)cc7F)cc6)c(C(N)=O)c5N)C4)nn3)ccc2CC1C(=O)NC1CCCc2ccccc21)C(C)(C)C

> <Shape>
0.235

> <Color>
0.093

> <Negative vol penalty>
0.000

$$$$

  -OEChem-04052317503D

 84 92  0     1  0  0  0  0  0999 V2000
  -35.5119  -13.2384   20.5796 C   0  0  0  0  0  0  0  0  0  0  0  0
  -34.7667  -14.3694   20.2621 C   0  0  0  0  0  0  0  0  0  0  0  0
  -24.4347  -27.5007   23.9222 C   0  0  0  0  0  0  0  0  0  0  0  0
  -25.1925  -28.5386   21.8763 C   0  0  0  0  0  0  0  0  0  0  0  0
  -34.9818  -11.9691   20.3519 C   0  0  0  0  0  0  0  0  0  0  0  0
  -33.4912  -14.2317   19.7156 C   0  0  0  0  0  0  0  0  0  0  0  0
  -30.1156  -17.3429   21.8535 C   0  0  0  0  0  0  0  0  0  0  0  0
  -25.1742  -28.4222   24.6636 C   0  0  0  0  0  0  0  0  0  0  0  0
  -25.9319  -29.4602   22.6177 C   0  0  0  0  0  0  0  0  0  0  0  0
  -30.1360  -18.6777   21.4514 C   0  0  0  0  0  0  0  0  0  0  0  0
  -25.3456  -32.2933   24.3642 C   0  0  0  0  0  0  0  0  0  0  0  0
  -25.2732  -33.6340   23.9863 C   0  0  0  0  0  0  0  0  0  0  0  0
  -28.2674  -18.2581   19.9845 C   0  0  0  0  0  0  0  0  0  0  0  0
  -27.6580  -33.6537   23.5996 C   0  0  0  0  0  0  0  0  0  0  0  0
  -29.5057  -23.6571   20.9438 C   0  0  0  0  0  0  0  0  0  0  0  0
  -24.4439  -27.5589   22.5285 C   0  0  0  0  0  0  0  0  0  0  0  0
  -22.3462  -26.7357   21.3329 C   0  0  0  0  0  0  0  0  0  0  0  0
  -33.6953  -11.8158   19.8114 C   0  0  0  0  0  0  0  0  0  0  0  0
  -29.1764  -16.4516   21.3151 C   0  0  0  0  0  0  0  0  0  0  0  0
  -32.9439  -12.9592   19.4792 C   0  0  0  0  0  0  0  0  0  0  0  0
  -28.2356  -16.9131   20.3833 C   0  0  0  0  0  0  0  0  0  0  0  0
  -25.9227  -29.4019   24.0114 C   0  0  0  0  0  0  0  0  0  0  0  0
  -29.2137  -19.1348   20.5146 C   0  0  0  0  0  0  0  0  0  0  0  0
  -26.5741  -31.6327   24.3598 C   0  0  0  0  0  0  0  0  0  0  0  0
  -26.4294  -34.3142   23.6040 C   0  0  0  0  0  0  0  0  0  0  0  0
  -27.7303  -32.3130   23.9775 C   0  0  0  0  0  0  0  0  0  0  0  0
  -23.6807  -26.6069   21.7621 C   0  0  0  0  0  0  0  0  0  0  0  0
  -30.0619  -22.6715   20.1694 C   0  0  0  0  0  0  0  0  0  0  0  0
  -22.0921  -25.5727   20.6478 C   0  0  0  0  0  0  0  0  0  0  0  0
  -30.3034  -24.1676   18.4951 C   0  0  0  0  0  0  0  0  0  0  0  0
  -21.4191  -27.8105   21.5354 C   0  0  0  0  0  0  0  0  0  0  0  0
  -29.3447  -13.7879   19.5889 C   0  0  0  0  0  0  0  0  0  0  0  0
  -26.1394  -13.7280   20.0836 C   0  0  0  0  0  0  0  0  0  0  0  0
  -23.2841  -15.4587   20.7900 C   0  0  0  0  0  0  0  0  0  0  0  0
  -25.6209  -21.6700   17.7899 C   0  0  0  0  0  0  0  0  0  0  0  0
  -33.1834  -10.4235   19.5392 C   0  0  0  0  0  0  0  0  0  0  0  0
  -29.1504  -15.0211   21.7791 C   0  0  0  0  0  0  0  0  0  0  0  0
  -27.1937  -16.0013   19.7903 C   0  0  0  0  0  0  0  0  0  0  0  0
  -31.6761  -10.3636   19.3054 C   0  0  0  0  0  0  0  0  0  0  0  0
  -23.3877  -20.9703   20.4732 C   0  0  0  0  0  0  0  0  0  0  0  0
  -31.2420  -11.4602   18.3381 C   0  0  0  0  0  0  0  0  0  0  0  0
  -23.0892  -22.3472   21.0691 C   0  0  0  0  0  0  0  0  0  0  0  0
  -24.8345  -20.8635   19.9961 C   0  0  0  0  0  0  0  0  0  0  0  0
  -24.9607  -23.3017   19.6602 C   0  0  0  0  0  0  0  0  0  0  0  0
  -31.5468  -12.8509   18.9079 C   0  0  1  0  0  0  0  0  0  0  0  0
  -28.4797  -14.0815   20.7818 C   0  0  1  0  0  0  0  0  0  0  0  0
  -23.4983  -23.4764   20.1043 C   0  0  2  0  0  0  0  0  0  0  0  0
  -20.8128  -15.1431   21.0911 C   0  0  0  0  0  0  0  0  0  0  0  0
  -25.8032  -13.4949   17.0599 C   0  0  0  0  0  0  0  0  0  0  0  0
  -23.4000  -14.1353   17.3477 C   0  0  0  0  0  0  0  0  0  0  0  0
  -24.2656  -12.0435   18.3954 C   0  0  0  0  0  0  0  0  0  0  0  0
  -23.3852  -16.4176   23.5880 C   0  0  0  0  0  0  0  0  0  0  0  0
  -30.5643  -23.9638   14.6795 C   0  0  0  0  0  0  0  0  0  0  0  0
  -30.2229  -21.2797   20.7063 C   0  0  0  0  0  0  0  0  0  1  0  0
  -30.7431  -24.4859   17.1077 C   0  0  0  0  0  0  0  0  0  0  0  0
  -27.8982  -22.5798   15.5519 C   0  0  0  0  0  0  0  0  0  0  0  0
  -26.3761  -22.6301   15.6295 C   0  0  0  0  0  0  0  0  0  0  0  0
  -28.5474  -23.8288   16.1342 C   0  0  0  0  0  0  0  0  0  0  0  0
  -24.9355  -14.2822   19.3606 C   0  0  1  0  0  0  0  0  0  0  0  0
  -22.1662  -15.1955   21.7827 C   0  0  2  0  0  0  0  0  0  0  0  0
  -24.6218  -13.5060   18.0505 C   0  0  0  0  0  0  0  0  0  0  0  0
  -29.3559  -24.9062   20.4673 N   0  0  0  0  0  0  0  0  0  0  0  0
  -24.2357  -25.4531   21.3817 N   0  0  0  0  0  0  0  0  0  0  0  0
  -30.4777  -22.9058   18.9155 N   0  0  0  0  0  0  0  0  0  0  0  0
  -29.7638  -25.1748   19.2095 N   0  0  0  0  0  0  0  0  0  0  0  0
  -23.2449  -24.8462   20.7063 N   0  0  0  0  0  0  0  0  0  0  0  0
  -27.2131  -14.6099   20.2712 N   0  0  0  0  0  0  0  0  0  0  0  0
  -25.1580  -21.9626   19.0834 N   0  0  0  0  0  0  0  0  0  0  0  0
  -20.9973  -25.1108   20.0071 N   0  0  0  0  0  0  0  0  0  0  0  0
  -21.8437  -28.9312   22.2621 N   0  0  0  0  0  0  0  0  0  0  0  0
  -30.5624  -13.2157   19.9040 N   0  0  0  0  0  0  0  0  0  0  0  0
  -23.8441  -14.2861   20.3287 N   0  0  0  0  0  0  0  0  0  0  0  0
  -25.8983  -22.7697   16.9871 N   0  0  0  0  0  0  0  0  0  0  0  0
  -22.1257  -16.2704   22.8141 N   0  3  0  0  0  0  0  0  0  0  0  0
  -30.0455  -23.6817   16.0658 N   0  3  1  0  0  0  0  0  0  0  0  0
  -20.2436  -27.7709   21.0992 O   0  0  0  0  0  0  0  0  0  0  0  0
  -28.9369  -14.0589   18.4655 O   0  0  0  0  0  0  0  0  0  0  0  0
  -26.1247  -12.5580   20.4739 O   0  0  0  0  0  0  0  0  0  0  0  0
  -23.6239  -16.5911   20.4543 O   0  0  0  0  0  0  0  0  0  0  0  0
  -25.7704  -20.5142   17.3789 O   0  0  0  0  0  0  0  0  0  0  0  0
  -26.6442  -30.3014   24.7345 O   0  0  0  0  0  0  0  0  0  0  0  0
  -29.2318  -20.4370   20.1199 O   0  0  0  0  0  0  0  0  0  1  0  0
  -26.3595  -35.6013   23.2397 F   0  0  0  0  0  0  0  0  0  0  0  0
  -28.9133  -31.6834   23.9701 F   0  0  0  0  0  0  0  0  0  0  0  0
  1  2  1  0  0  0  0
  1  5  2  0  0  0  0
  2  6  2  0  0  0  0
  3  8  2  0  0  0  0
  3 16  1  0  0  0  0
  4  9  1  0  0  0  0
  4 16  2  0  0  0  0
  5 18  1  0  0  0  0
  6 20  1  0  0  0  0
  7 10  2  0  0  0  0
  7 19  1  0  0  0  0
  8 22  1  0  0  0  0
  9 22  2  0  0  0  0
 10 23  1  0  0  0  0
 11 12  2  0  0  0  0
 11 24  1  0  0  0  0
 12 25  1  0  0  0  0
 13 21  1  0  0  0  0
 13 23  2  0  0  0  0
 14 25  2  0  0  0  0
 14 26  1  0  0  0  0
 15 28  1  0  0  0  0
 15 62  2  0  0  0  0
 16 27  1  0  0  0  0
 17 27  1  0  0  0  0
 17 29  2  0  0  0  0
 17 31  1  0  0  0  0
 18 20  2  0  0  0  0
 18 36  1  0  0  0  0
 19 21  2  0  0  0  0
 19 37  1  0  0  0  0
 20 45  1  0  0  0  0
 21 38  1  0  0  0  0
 22 81  1  0  0  0  0
 23 82  1  0  0  0  0
 24 26  2  0  0  0  0
 24 81  1  0  0  0  0
 25 83  1  0  0  0  0
 26 84  1  0  0  0  0
 27 63  2  0  0  0  0
 28 54  1  0  0  0  0
 28 64  2  0  0  0  0
 29 66  1  0  0  0  0
 29 69  1  0  0  0  0
 30 55  1  0  0  0  0
 30 64  1  0  0  0  0
 30 65  2  0  0  0  0
 31 70  1  0  0  0  0
 31 76  2  0  0  0  0
 32 46  1  0  0  0  0
 32 71  1  0  0  0  0
 32 77  2  0  0  0  0
 33 59  1  0  0  0  0
 33 67  1  0  0  0  0
 33 78  2  0  0  0  0
 34 60  1  0  0  0  0
 34 72  1  0  0  0  0
 34 79  2  0  0  0  0
 35 68  1  0  0  0  0
 35 73  1  0  0  0  0
 35 80  2  0  0  0  0
 36 39  1  0  0  0  0
 37 46  1  0  0  0  0
 38 67  1  0  0  0  0
 39 41  1  0  0  0  0
 40 42  1  0  0  0  0
 40 43  1  0  0  0  0
 41 45  1  0  0  0  0
 42 47  1  0  0  0  0
 43 68  1  0  0  0  0
 44 47  1  0  0  0  0
 44 68  1  0  0  0  0
 45 71  1  0  0  0  0
 46 67  1  0  0  0  0
 47 66  1  0  0  0  0
 48 60  1  0  0  0  0
 49 61  1  0  0  0  0
 50 61  1  0  0  0  0
 51 61  1  0  0  0  0
 52 74  1  0  0  0  0
 53 75  1  0  0  0  0
 54 82  1  0  0  0  0
 55 75  1  0  0  0  0
 56 57  1  0  0  0  0
 56 58  1  0  0  0  0
 57 73  1  0  0  0  0
 58 75  1  0  0  0  0
 59 61  1  0  0  0  0
 59 72  1  0  0  0  0
 60 74  1  0  0  0  0
 62 65  1  0  0  0  0
 63 66  1  0  0  0  0
M  CHG  2  74   1  75   1
M  ISO  4  35 100  54 101  73 100  82 101
M  END
> <Batch ID>
0058

> <Smiles>
CNC(C)C(=O)NC(C(=O)N1Cc2cc([101O:1][101CH2:1]c3cnnc(CN(C)CCC[100NH:0][100C:0](=O)N4CCCC(n5nc(-c6ccc(Oc7ccc(F)cc7F)cc6)c(C(N)=O)c5N)C4)n3)ccc2CC1C(=O)NC1CCCc2ccccc21)C(C)(C)C

> <Shape>
0.234

> <Color>
0.046

> <Negative vol penalty>
0.000

$$$$

  -OEChem-04052317503D

 82 90  0     1  0  0  0  0  0999 V2000
  -29.0394  -37.5301   24.2425 C   0  0  0  0  0  0  0  0  0  0  0  0
  -28.7867  -36.7551   25.3699 C   0  0  0  0  0  0  0  0  0  0  0  0
  -25.2230  -13.9122   20.3821 C   0  0  0  0  0  0  0  0  0  0  0  0
  -26.0798  -13.4447   18.1721 C   0  0  0  0  0  0  0  0  0  0  0  0
  -28.0847  -37.6180   23.2302 C   0  0  0  0  0  0  0  0  0  0  0  0
  -27.5786  -36.0685   25.4861 C   0  0  0  0  0  0  0  0  0  0  0  0
  -27.4425  -28.9073   26.2549 C   0  0  0  0  0  0  0  0  0  0  0  0
  -24.4130  -12.7791   20.3078 C   0  0  0  0  0  0  0  0  0  0  0  0
  -25.2699  -12.3115   18.0978 C   0  0  0  0  0  0  0  0  0  0  0  0
  -27.3404  -27.5637   26.6159 C   0  0  0  0  0  0  0  0  0  0  0  0
  -24.7685   -9.4354   20.6632 C   0  0  0  0  0  0  0  0  0  0  0  0
  -24.7240   -8.5962   21.7765 C   0  0  0  0  0  0  0  0  0  0  0  0
  -24.9280  -27.7196   26.5552 C   0  0  0  0  0  0  0  0  0  0  0  0
  -22.3438   -8.9672   21.9609 C   0  0  0  0  0  0  0  0  0  0  0  0
  -23.6061  -21.6828   21.2591 C   0  0  0  0  0  0  0  0  0  0  0  0
  -25.4550  -20.6246   22.8681 C   0  0  0  0  0  0  0  0  0  0  0  0
  -26.0564  -14.2450   19.3142 C   0  0  0  0  0  0  0  0  0  0  0  0
  -28.2089  -15.4896   19.8846 C   0  0  0  0  0  0  0  0  0  0  0  0
  -26.8683  -36.9244   23.3296 C   0  0  0  0  0  0  0  0  0  0  0  0
  -26.2864  -29.6591   26.0273 C   0  0  0  0  0  0  0  0  0  0  0  0
  -26.6062  -36.1483   24.4748 C   0  0  0  0  0  0  0  0  0  0  0  0
  -25.0241  -29.0626   26.1812 C   0  0  0  0  0  0  0  0  0  0  0  0
  -24.4365  -11.9787   19.1657 C   0  0  0  0  0  0  0  0  0  0  0  0
  -26.0862  -26.9714   26.7660 C   0  0  0  0  0  0  0  0  0  0  0  0
  -23.6007  -10.0405   20.1988 C   0  0  0  0  0  0  0  0  0  0  0  0
  -23.5116   -8.3621   22.4253 C   0  0  0  0  0  0  0  0  0  0  0  0
  -22.3883   -9.8065   20.8476 C   0  0  0  0  0  0  0  0  0  0  0  0
  -26.8929  -15.4158   19.3902 C   0  0  0  0  0  0  0  0  0  0  0  0
  -24.8954  -21.4748   20.8204 C   0  0  0  0  0  0  0  0  0  0  0  0
  -24.1659  -20.8328   23.3069 C   0  0  0  0  0  0  0  0  0  0  0  0
  -28.5567  -16.8103   19.7391 C   0  0  0  0  0  0  0  0  0  0  0  0
  -29.0425  -14.4567   20.4267 C   0  0  0  0  0  0  0  0  0  0  0  0
  -25.3042  -21.8245   19.4538 C   0  0  0  0  0  0  0  0  0  0  0  0
  -24.8120  -32.9735   25.0699 C   0  0  0  0  0  0  0  0  0  0  0  0
  -23.1321  -30.8159   23.6795 C   0  0  0  0  0  0  0  0  0  0  0  0
  -21.8009  -28.1644   21.9958 C   0  0  0  0  0  0  0  0  0  0  0  0
  -25.8475  -37.0879   22.2315 C   0  0  0  0  0  0  0  0  0  0  0  0
  -26.3479  -31.1256   25.6968 C   0  0  0  0  0  0  0  0  0  0  0  0
  -23.8074  -29.9191   25.9599 C   0  0  0  0  0  0  0  0  0  0  0  0
  -24.7477  -36.0297   22.2597 C   0  0  0  0  0  0  0  0  0  0  0  0
  -27.6538  -20.6545   17.0347 C   0  0  0  0  0  0  0  0  0  0  0  0
  -24.2141  -35.8520   23.6776 C   0  0  0  0  0  0  0  0  0  0  0  0
  -27.8352  -19.1795   17.3972 C   0  0  0  0  0  0  0  0  0  0  0  0
  -26.2187  -21.1198   17.2682 C   0  0  0  0  0  0  0  0  0  0  0  0
  -25.8853  -19.3852   18.9959 C   0  0  0  0  0  0  0  0  0  0  0  0
  -25.3179  -35.3688   24.6260 C   0  0  1  0  0  0  0  0  0  0  0  0
  -25.2352  -31.5740   24.7324 C   0  0  1  0  0  0  0  0  0  0  0  0
  -27.3303  -18.8893   18.8232 C   0  0  1  0  0  0  0  0  0  0  0  0
  -20.0232  -27.5856   20.3218 C   0  0  0  0  0  0  0  0  0  0  0  0
  -21.0033  -31.1086   25.8444 C   0  0  0  0  0  0  0  0  0  0  0  0
  -19.5003  -29.6594   24.4628 C   0  0  0  0  0  0  0  0  0  0  0  0
  -20.2848  -31.8514   23.5670 C   0  0  0  0  0  0  0  0  0  0  0  0
  -23.7916  -27.1260   20.0676 C   0  0  0  0  0  0  0  0  0  0  0  0
  -24.6107  -20.4313   27.0514 C   0  0  0  0  0  0  0  0  0  0  0  0
  -23.7701  -20.4695   24.7078 C   0  0  0  0  0  0  0  0  0  0  0  0
  -25.2378  -23.4753   26.4683 C   0  0  0  0  0  0  0  0  0  0  0  0
  -24.1057  -22.6044   25.9448 C   0  0  0  0  0  0  0  0  0  0  0  0
  -24.8551  -24.9401   26.6407 C   0  0  0  0  0  0  0  0  0  1  0  0
  -21.9156  -29.9270   23.7378 C   0  0  1  0  0  0  0  0  0  0  0  0
  -21.4827  -27.9616   20.5254 C   0  0  2  0  0  0  0  0  0  0  0  0
  -20.7016  -30.6273   24.4111 C   0  0  0  0  0  0  0  0  0  0  0  0
  -25.8429  -20.9418   21.6169 N   0  0  0  0  0  0  0  0  0  0  0  0
  -23.2183  -21.3655   22.5103 N   0  0  0  0  0  0  0  0  0  0  0  0
  -26.4357  -16.5957   18.9628 N   0  0  0  0  0  0  0  0  0  0  0  0
  -27.4701  -17.4235   19.1882 N   0  0  0  0  0  0  0  0  0  0  0  0
  -25.7879  -20.8054   18.6299 N   0  0  0  0  0  0  0  0  0  0  0  0
  -24.0013  -30.7712   24.7763 N   0  0  0  0  0  0  0  0  0  0  0  0
  -29.6830  -17.4954   20.0301 N   0  0  0  0  0  0  0  0  0  0  0  0
  -28.5286  -13.1550   20.5037 N   0  0  0  0  0  0  0  0  0  0  0  0
  -25.5577  -33.9534   24.4430 N   0  0  0  0  0  0  0  0  0  0  0  0
  -21.6672  -29.4848   22.3699 N   0  0  0  0  0  0  0  0  0  0  0  0
  -22.3313  -26.8766   19.9567 N   0  3  0  0  0  0  0  0  0  0  0  0
  -24.5651  -21.2082   25.7575 N   0  3  1  0  0  0  0  0  0  0  0  0
  -30.2025  -14.6846   20.8461 O   0  0  0  0  0  0  0  0  0  0  0  0
  -25.1979  -23.0094   19.1412 O   0  0  0  0  0  0  0  0  0  0  0  0
  -23.8766  -33.1524   25.8411 O   0  0  0  0  0  0  0  0  0  0  0  0
  -23.3064  -31.5356   22.6921 O   0  0  0  0  0  0  0  0  0  0  0  0
  -22.1311  -27.2430   22.7391 O   0  0  0  0  0  0  0  0  0  0  0  0
  -23.6464  -10.8728   19.0929 O   0  0  0  0  0  0  0  0  0  0  0  0
  -25.9939  -25.6581   27.1142 O   0  0  0  0  0  0  0  0  0  1  0  0
  -23.4687   -7.5550   23.4935 F   0  0  0  0  0  0  0  0  0  0  0  0
  -21.2629  -10.3841   20.4054 F   0  0  0  0  0  0  0  0  0  0  0  0
  1  2  1  0  0  0  0
  1  5  2  0  0  0  0
  2  6  2  0  0  0  0
  3  8  2  0  0  0  0
  3 17  1  0  0  0  0
  4  9  1  0  0  0  0
  4 17  2  0  0  0  0
  5 19  1  0  0  0  0
  6 21  1  0  0  0  0
  7 10  2  0  0  0  0
  7 20  1  0  0  0  0
  8 23  1  0  0  0  0
  9 23  2  0  0  0  0
 10 24  1  0  0  0  0
 11 12  2  0  0  0  0
 11 25  1  0  0  0  0
 12 26  1  0  0  0  0
 13 22  1  0  0  0  0
 13 24  2  0  0  0  0
 14 26  2  0  0  0  0
 14 27  1  0  0  0  0
 15 29  2  0  0  0  0
 15 63  1  0  0  0  0
 16 30  1  0  0  0  0
 16 62  2  0  0  0  0
 17 28  1  0  0  0  0
 18 28  1  0  0  0  0
 18 31  2  0  0  0  0
 18 32  1  0  0  0  0
 19 21  2  0  0  0  0
 19 37  1  0  0  0  0
 20 22  2  0  0  0  0
 20 38  1  0  0  0  0
 21 46  1  0  0  0  0
 22 39  1  0  0  0  0
 23 79  1  0  0  0  0
 24 80  1  0  0  0  0
 25 27  2  0  0  0  0
 25 79  1  0  0  0  0
 26 81  1  0  0  0  0
 27 82  1  0  0  0  0
 28 64  2  0  0  0  0
 29 33  1  0  0  0  0
 29 62  1  0  0  0  0
 30 55  1  0  0  0  0
 30 63  2  0  0  0  0
 31 65  1  0  0  0  0
 31 68  1  0  0  0  0
 32 69  1  0  0  0  0
 32 74  2  0  0  0  0
 33 66  1  0  0  0  0
 33 75  2  0  0  0  0
 34 47  1  0  0  0  0
 34 70  1  0  0  0  0
 34 76  2  0  0  0  0
 35 59  1  0  0  0  0
 35 67  1  0  0  0  0
 35 77  2  0  0  0  0
 36 60  1  0  0  0  0
 36 71  1  0  0  0  0
 36 78  2  0  0  0  0
 37 40  1  0  0  0  0
 38 47  1  0  0  0  0
 39 67  1  0  0  0  0
 40 42  1  0  0  0  0
 41 43  1  0  0  0  0
 41 44  1  0  0  0  0
 42 46  1  0  0  0  0
 43 48  1  0  0  0  0
 44 66  1  0  0  0  0
 45 48  1  0  0  0  0
 45 66  1  0  0  0  0
 46 70  1  0  0  0  0
 47 67  1  0  0  0  0
 48 65  1  0  0  0  0
 49 60  1  0  0  0  0
 50 61  1  0  0  0  0
 51 61  1  0  0  0  0
 52 61  1  0  0  0  0
 53 72  1  0  0  0  0
 54 73  1  0  0  0  0
 55 73  1  0  0  0  0
 56 57  1  0  0  0  0
 56 58  1  0  0  0  0
 57 73  1  0  0  0  0
 58 80  1  0  0  0  0
 59 61  1  0  0  0  0
 59 71  1  0  0  0  0
 60 72  1  0  0  0  0
 64 65  1  0  0  0  0
M  CHG  2  72   1  73   1
M  ISO  4  29 100  33 100  58 101  80 101
M  END
> <Batch ID>
0058

> <Smiles>
CNC(C)C(=O)NC(C(=O)N1Cc2cc([101O:1][101CH2:1]CCN(C)Cc3cn[100c:0]([100C:0](=O)N4CCCC(n5nc(-c6ccc(Oc7ccc(F)cc7F)cc6)c(C(N)=O)c5N)C4)cn3)ccc2CC1C(=O)NC1CCCc2ccccc21)C(C)(C)C

> <Shape>
0.231

> <Color>
0.070

> <Negative vol penalty>
0.000

$$$$

  -OEChem-04052317503D

 95104  0     1  0  0  0  0  0999 V2000
  -24.0342  -38.1885   23.7838 C   0  0  0  0  0  0  0  0  0  0  0  0
  -23.1285  -37.2576   23.2852 C   0  0  0  0  0  0  0  0  0  0  0  0
  -24.2880   -9.2494   21.9933 C   0  0  0  0  0  0  0  0  0  0  0  0
  -22.9226   -9.8158   20.0823 C   0  0  0  0  0  0  0  0  0  0  0  0
  -25.3314  -38.2389   23.2752 C   0  0  0  0  0  0  0  0  0  0  0  0
  -23.5192  -36.3772   22.2770 C   0  0  0  0  0  0  0  0  0  0  0  0
  -23.1913  -29.2469   23.2476 C   0  0  0  0  0  0  0  0  0  0  0  0
  -23.6142   -8.0342   22.1146 C   0  0  0  0  0  0  0  0  0  0  0  0
  -22.2488   -8.6005   20.2036 C   0  0  0  0  0  0  0  0  0  0  0  0
  -22.9595  -27.8716   23.2798 C   0  0  0  0  0  0  0  0  0  0  0  0
  -20.6600   -6.9356   23.3353 C   0  0  0  0  0  0  0  0  0  0  0  0
  -20.2559   -6.5440   24.6116 C   0  0  0  0  0  0  0  0  0  0  0  0
  -23.9395  -27.6443   21.0807 C   0  0  0  0  0  0  0  0  0  0  0  0
  -21.6044   -4.5479   24.4261 C   0  0  0  0  0  0  0  0  0  0  0  0
  -27.0025  -20.7877   19.8988 C   0  0  0  0  0  0  0  0  0  0  0  0
  -25.3425  -25.2131   23.2826 C   0  0  0  0  0  0  0  0  0  0  0  0
  -23.9421  -10.1403   20.9772 C   0  0  0  0  0  0  0  0  0  0  0  0
  -25.7983  -11.6534   20.0982 C   0  0  0  0  0  0  0  0  0  0  0  0
  -25.7411  -37.3522   22.2669 C   0  0  0  0  0  0  0  0  0  0  0  0
  -23.8128  -29.8245   22.1370 C   0  0  0  0  0  0  0  0  0  0  0  0
  -24.8227  -36.4166   21.7535 C   0  0  0  0  0  0  0  0  0  0  0  0
  -24.1856  -29.0195   21.0482 C   0  0  0  0  0  0  0  0  0  0  0  0
  -22.5946   -7.7097   21.2197 C   0  0  0  0  0  0  0  0  0  0  0  0
  -23.3325  -27.0723   22.1989 C   0  0  0  0  0  0  0  0  0  0  0  0
  -21.5363   -6.1333   22.6043 C   0  0  0  0  0  0  0  0  0  0  0  0
  -20.7282   -5.3502   25.1570 C   0  0  0  0  0  0  0  0  0  0  0  0
  -22.0085   -4.9395   23.1497 C   0  0  0  0  0  0  0  0  0  0  0  0
  -24.6374  -11.3961   20.8517 C   0  0  0  0  0  0  0  0  0  0  0  0
  -26.7897  -19.6854   19.0962 C   0  0  0  0  0  0  0  0  0  0  0  0
  -28.3216  -21.0665   20.1927 C   0  0  0  0  0  0  0  0  0  0  0  0
  -25.8714  -23.9611   23.6491 C   0  0  0  0  0  0  0  0  0  0  0  0
  -26.0556  -12.9862   20.3083 C   0  0  0  0  0  0  0  0  0  0  0  0
  -24.1039  -24.9241   22.7639 C   0  0  0  0  0  0  0  0  0  1  0  0
  -29.0235  -19.2839   18.9694 C   0  0  0  0  0  0  0  0  0  0  0  0
  -26.5747  -10.7671   19.2814 C   0  0  0  0  0  0  0  0  0  0  0  0
  -25.1123  -32.9477   20.5143 C   0  0  0  0  0  0  0  0  0  0  0  0
  -27.1406  -30.7244   19.9198 C   0  0  0  0  0  0  0  0  0  0  0  0
  -29.3271  -28.1070   19.8460 C   0  0  0  0  0  0  0  0  0  0  0  0
  -24.3176  -18.2744   20.7072 C   0  0  0  0  0  0  0  0  0  0  0  0
  -27.1394  -37.4760   21.7155 C   0  0  0  0  0  0  0  0  0  0  0  0
  -24.0264  -31.3103   22.0330 C   0  0  0  0  0  0  0  0  0  0  0  0
  -24.8199  -29.6893   19.8599 C   0  0  0  0  0  0  0  0  0  0  0  0
  -27.5864  -36.2589   20.9098 C   0  0  0  0  0  0  0  0  0  0  0  0
  -24.0532  -16.2437   23.6197 C   0  0  0  0  0  0  0  0  0  0  0  0
  -26.4941  -35.8347   19.9332 C   0  0  0  0  0  0  0  0  0  0  0  0
  -24.2710  -14.8230   23.0961 C   0  0  0  0  0  0  0  0  0  0  0  0
  -23.2750  -17.0995   22.6227 C   0  0  0  0  0  0  0  0  0  0  0  0
  -24.0635  -15.7189   20.7396 C   0  0  0  0  0  0  0  0  0  0  0  0
  -25.2163  -35.4283   20.6772 C   0  0  1  0  0  0  0  0  0  0  0  0
  -25.3239  -31.6830   21.2936 C   0  0  1  0  0  0  0  0  0  0  0  0
  -24.8923  -14.8341   21.6864 C   0  0  2  0  0  0  0  0  0  0  0  0
  -30.1466  -18.4513   18.4505 C   0  0  0  0  0  0  0  0  0  0  0  0
  -31.5821  -27.4484   18.9637 C   0  0  0  0  0  0  0  0  0  0  0  0
  -20.7873  -21.4957   23.1205 C   0  0  0  0  0  0  0  0  0  0  0  0
  -28.1545  -23.5801   20.4400 C   0  0  0  0  0  0  0  0  0  0  0  0
  -30.1738  -22.3545   21.3414 C   0  0  0  0  0  0  0  0  0  0  0  0
  -25.9543  -30.4187   17.1264 C   0  0  0  0  0  0  0  0  0  0  0  0
  -27.8737  -28.9170   16.5527 C   0  0  0  0  0  0  0  0  0  0  0  0
  -28.2959  -31.2954   17.1755 C   0  0  0  0  0  0  0  0  0  0  0  0
  -30.3828  -27.6323   22.5698 C   0  0  0  0  0  0  0  0  0  0  0  0
  -28.3628  -20.9431   23.1610 C   0  0  0  0  0  0  0  0  0  0  0  0
  -27.1831  -23.6854   24.2596 C   0  0  0  0  0  0  0  0  0  0  0  0
  -25.3959  -19.3052   18.7237 C   0  0  0  0  0  0  0  0  0  0  0  0
  -22.8343  -22.7827   22.4302 C   0  0  0  0  0  0  0  0  0  0  0  0
  -28.3205  -23.4309   23.2574 C   0  0  0  0  0  0  0  0  0  0  0  0
  -27.5971  -29.6511   18.9643 C   0  0  1  0  0  0  0  0  0  0  0  0
  -30.8140  -28.0276   20.1415 C   0  0  2  0  0  0  0  0  0  0  0  0
  -21.9640  -22.3306   23.6063 C   0  0  1  0  0  0  0  0  0  0  0  0
  -28.6604  -22.2753   21.0781 C   0  0  0  0  0  0  0  0  0  0  0  0
  -27.4133  -30.0646   17.4768 C   0  0  0  0  0  0  0  0  0  0  0  0
  -24.1883  -12.4784   21.4928 N   0  0  0  0  0  0  0  0  0  0  0  0
  -27.7807  -18.9083   18.6121 N   0  0  0  0  0  0  0  0  0  0  0  0
  -29.3610  -20.3330   19.7434 N   0  0  0  0  0  0  0  0  0  0  0  0
  -25.0373  -22.9517   23.3857 N   0  0  0  0  0  0  0  0  0  0  0  0
  -25.0717  -13.4287   21.1427 N   0  0  0  0  0  0  0  0  0  0  0  0
  -23.9715  -23.5692   22.8481 N   0  0  0  0  0  0  0  0  0  0  0  0
  -25.7966  -30.6929   20.3111 N   0  0  0  0  0  0  0  0  0  0  0  0
  -23.9174  -17.0687   21.3065 N   0  0  0  0  0  0  0  0  0  0  0  0
  -27.0253  -13.8109   19.8590 N   0  0  0  0  0  0  0  0  0  0  0  0
  -26.1698   -9.4295   19.1752 N   0  0  0  0  0  0  0  0  0  0  0  0
  -25.3572  -34.1006   21.2356 N   0  0  0  0  0  0  0  0  0  0  0  0
  -28.9736  -29.3364   19.3313 N   0  0  0  0  0  0  0  0  0  0  0  0
  -24.9242  -18.1553   19.4628 N   0  0  0  0  0  0  0  0  0  0  0  0
  -31.0601  -27.1662   21.3324 N   0  3  0  0  0  0  0  0  0  0  0  0
  -28.0214  -22.2264   22.4443 N   0  3  1  0  0  0  0  0  0  0  0  0
  -27.6066  -11.1460   18.6770 O   0  0  0  0  0  0  0  0  0  0  0  0
  -24.7546  -32.8835   19.3440 O   0  0  0  0  0  0  0  0  0  0  0  0
  -27.9501  -31.5723   20.3058 O   0  0  0  0  0  0  0  0  0  0  0  0
  -28.5569  -27.1706   20.0477 O   0  0  0  0  0  0  0  0  0  0  0  0
  -24.1518  -19.3750   21.2439 O   0  0  0  0  0  0  0  0  0  0  0  0
  -21.4294  -23.4673   24.2811 O   0  0  0  0  0  0  0  0  0  0  0  0
  -21.9371   -6.5238   21.3376 O   0  0  0  0  0  0  0  0  0  0  0  0
  -23.1074  -25.7298   22.2387 O   0  0  0  0  0  0  0  0  0  1  0  0
  -20.3413   -4.9751   26.3833 F   0  0  0  0  0  0  0  0  0  0  0  0
  -22.8514   -4.1652   22.4528 F   0  0  0  0  0  0  0  0  0  0  0  0
  1  2  1  0  0  0  0
  1  5  2  0  0  0  0
  2  6  2  0  0  0  0
  3  8  2  0  0  0  0
  3 17  1  0  0  0  0
  4  9  1  0  0  0  0
  4 17  2  0  0  0  0
  5 19  1  0  0  0  0
  6 21  1  0  0  0  0
  7 10  2  0  0  0  0
  7 20  1  0  0  0  0
  8 23  1  0  0  0  0
  9 23  2  0  0  0  0
 10 24  1  0  0  0  0
 11 12  2  0  0  0  0
 11 25  1  0  0  0  0
 12 26  1  0  0  0  0
 13 22  1  0  0  0  0
 13 24  2  0  0  0  0
 14 26  2  0  0  0  0
 14 27  1  0  0  0  0
 15 29  2  0  0  0  0
 15 30  1  0  0  0  0
 16 31  1  0  0  0  0
 16 33  2  0  0  0  0
 17 28  1  0  0  0  0
 18 28  1  0  0  0  0
 18 32  2  0  0  0  0
 18 35  1  0  0  0  0
 19 21  2  0  0  0  0
 19 40  1  0  0  0  0
 20 22  2  0  0  0  0
 20 41  1  0  0  0  0
 21 49  1  0  0  0  0
 22 42  1  0  0  0  0
 23 92  1  0  0  0  0
 24 93  1  0  0  0  0
 25 27  2  0  0  0  0
 25 92  1  0  0  0  0
 26 94  1  0  0  0  0
 27 95  1  0  0  0  0
 28 71  2  0  0  0  0
 29 63  1  0  0  0  0
 29 72  1  0  0  0  0
 30 69  1  0  0  0  0
 30 73  2  0  0  0  0
 31 62  1  0  0  0  0
 31 74  2  0  0  0  0
 32 75  1  0  0  0  0
 32 79  1  0  0  0  0
 33 76  1  0  0  0  0
 33 93  1  0  0  0  0
 34 52  1  0  0  0  0
 34 72  2  0  0  0  0
 34 73  1  0  0  0  0
 35 80  1  0  0  0  0
 35 86  2  0  0  0  0
 36 50  1  0  0  0  0
 36 81  1  0  0  0  0
 36 87  2  0  0  0  0
 37 66  1  0  0  0  0
 37 77  1  0  0  0  0
 37 88  2  0  0  0  0
 38 67  1  0  0  0  0
 38 82  1  0  0  0  0
 38 89  2  0  0  0  0
 39 78  1  0  0  0  0
 39 83  1  0  0  0  0
 39 90  2  0  0  0  0
 40 43  1  0  0  0  0
 41 50  1  0  0  0  0
 42 77  1  0  0  0  0
 43 45  1  0  0  0  0
 44 46  1  0  0  0  0
 44 47  1  0  0  0  0
 45 49  1  0  0  0  0
 46 51  1  0  0  0  0
 47 78  1  0  0  0  0
 48 51  1  0  0  0  0
 48 78  1  0  0  0  0
 49 81  1  0  0  0  0
 50 77  1  0  0  0  0
 51 75  1  0  0  0  0
 53 67  1  0  0  0  0
 54 68  1  0  0  0  0
 55 69  1  0  0  0  0
 56 69  1  0  0  0  0
 57 70  1  0  0  0  0
 58 70  1  0  0  0  0
 59 70  1  0  0  0  0
 60 84  1  0  0  0  0
 61 85  1  0  0  0  0
 62 65  1  0  0  0  0
 63 83  1  0  0  0  0
 64 68  1  0  0  0  0
 64 76  1  0  0  0  0
 65 85  1  0  0  0  0
 66 70  1  0  0  0  0
 66 82  1  0  0  0  0
 67 84  1  0  0  0  0
 68 91  1  0  0  0  0
 69 85  1  0  0  0  0
 71 75  1  0  0  0  0
 74 76  1  0  0  0  0
M  CHG  2  84   1  85   1
M  ISO  4  33 101  39 100  83 100  93 101
M  END
> <Batch ID>
0058

> <Smiles>
CNC(C)C(=O)NC(C(=O)N1Cc2cc([101O:1][101c:1]3cc(CCN(C)C(C)(C)c4cc(C[100NH:0][100C:0](=O)N5CCCC(n6nc(-c7ccc(Oc8ccc(F)cc8F)cc7)c(C(N)=O)c6N)C5)nc(C)n4)nn3CC(C)O)ccc2CC1C(=O)NC1CCCc2ccccc21)C(C)(C)C

> <Shape>
0.267

> <Color>
0.103

> <Negative vol penalty>
0.000

$$$$

  -OEChem-04052317503D

 82 90  0     1  0  0  0  0  0999 V2000
  -21.4101  -11.9250   20.8476 C   0  0  0  0  0  0  0  0  0  0  0  0
  -21.6316  -13.0860   21.5814 C   0  0  0  0  0  0  0  0  0  0  0  0
  -25.3924  -31.7110   21.0004 C   0  0  0  0  0  0  0  0  0  0  0  0
  -24.4605  -30.1735   22.6143 C   0  0  0  0  0  0  0  0  0  0  0  0
  -22.4837  -11.2593   20.2575 C   0  0  0  0  0  0  0  0  0  0  0  0
  -22.9269  -13.5813   21.7265 C   0  0  0  0  0  0  0  0  0  0  0  0
  -23.1818  -18.5899   21.0237 C   0  0  0  0  0  0  0  0  0  0  0  0
  -24.7899  -32.7771   21.6681 C   0  0  0  0  0  0  0  0  0  0  0  0
  -23.8580  -31.2396   23.2820 C   0  0  0  0  0  0  0  0  0  0  0  0
  -22.7609  -19.4027   22.0754 C   0  0  0  0  0  0  0  0  0  0  0  0
  -25.3688  -34.6290   24.4373 C   0  0  0  0  0  0  0  0  0  0  0  0
  -26.1382  -35.7702   24.6636 C   0  0  0  0  0  0  0  0  0  0  0  0
  -25.0597  -19.7487   22.7200 C   0  0  0  0  0  0  0  0  0  0  0  0
  -24.5658  -37.0842   23.3837 C   0  0  0  0  0  0  0  0  0  0  0  0
  -25.2277  -30.4091   21.4734 C   0  0  0  0  0  0  0  0  0  0  0  0
  -27.1313  -28.7737   21.0159 C   0  0  0  0  0  0  0  0  0  0  0  0
  -23.7917  -11.7520   20.3874 C   0  0  0  0  0  0  0  0  0  0  0  0
  -24.5465  -18.3412   20.8185 C   0  0  0  0  0  0  0  0  0  0  0  0
  -24.0192  -12.9208   21.1388 C   0  0  0  0  0  0  0  0  0  0  0  0
  -25.4954  -18.9345   21.6634 C   0  0  0  0  0  0  0  0  0  0  0  0
  -24.0227  -32.5415   22.8089 C   0  0  0  0  0  0  0  0  0  0  0  0
  -23.6997  -19.9799   22.9255 C   0  0  0  0  0  0  0  0  0  0  0  0
  -24.1979  -34.7153   23.6840 C   0  0  0  0  0  0  0  0  0  0  0  0
  -25.7367  -36.9978   24.1369 C   0  0  0  0  0  0  0  0  0  0  0  0
  -23.7964  -35.9429   23.1573 C   0  0  0  0  0  0  0  0  0  0  0  0
  -25.8495  -29.3073   20.7838 C   0  0  0  0  0  0  0  0  0  0  0  0
  -27.2465  -27.7496   20.1080 C   0  0  0  0  0  0  0  0  0  0  0  0
  -23.7520  -24.0206   20.6339 C   0  0  0  0  0  0  0  0  0  0  0  0
  -23.7909  -25.1709   22.3753 C   0  0  0  0  0  0  0  0  0  0  0  0
  -28.1288  -29.1684   21.9672 C   0  0  0  0  0  0  0  0  0  0  0  0
  -26.3818  -15.7460   20.8410 C   0  0  0  0  0  0  0  0  0  0  0  0
  -28.6564  -17.8213   19.8202 C   0  0  0  0  0  0  0  0  0  0  0  0
  -29.7737  -21.0415   19.6499 C   0  0  0  0  0  0  0  0  0  0  0  0
  -22.7825  -24.6420   17.2875 C   0  0  0  0  0  0  0  0  0  0  0  0
  -24.9259  -10.9718   19.7713 C   0  0  0  0  0  0  0  0  0  0  0  0
  -24.9856  -17.4838   19.6633 C   0  0  0  0  0  0  0  0  0  0  0  0
  -26.9733  -18.7153   21.4736 C   0  0  0  0  0  0  0  0  0  0  0  0
  -26.2229  -11.7688   19.6585 C   0  0  0  0  0  0  0  0  0  0  0  0
  -25.7092  -26.3551   15.8037 C   0  0  0  0  0  0  0  0  0  0  0  0
  -26.5166  -12.4982   20.9657 C   0  0  0  0  0  0  0  0  0  0  0  0
  -26.1348  -27.3115   16.9164 C   0  0  0  0  0  0  0  0  0  0  0  0
  -24.2145  -26.0533   15.8560 C   0  0  0  0  0  0  0  0  0  0  0  0
  -24.1742  -26.5012   18.2875 C   0  0  0  0  0  0  0  0  0  0  0  0
  -25.4069  -13.5030   21.2981 C   0  0  1  0  0  0  0  0  0  0  0  0
  -26.3743  -16.8832   19.8589 C   0  0  1  0  0  0  0  0  0  0  0  0
  -25.6830  -26.7893   18.2913 C   0  0  2  0  0  0  0  0  0  0  0  0
  -24.0033  -26.1922   23.4165 C   0  0  0  0  0  0  0  0  0  0  0  0
  -31.6830  -22.4209   18.7844 C   0  0  0  0  0  0  0  0  0  0  0  0
  -30.4020  -16.8471   22.1254 C   0  0  0  0  0  0  0  0  0  0  0  0
  -31.8429  -18.8679   21.7965 C   0  0  0  0  0  0  0  0  0  0  0  0
  -31.6186  -17.1870   19.9670 C   0  0  0  0  0  0  0  0  0  0  0  0
  -21.8042  -22.7465   18.5243 C   0  0  0  0  0  0  0  0  0  0  0  0
  -27.9925  -22.6054   17.8778 C   0  0  0  0  0  0  0  0  0  0  0  0
  -24.0005  -23.6055   19.2483 C   0  0  0  0  0  0  0  0  0  0  0  0
  -23.3491  -22.9807   24.8909 C   0  0  0  0  0  0  0  0  0  0  0  0
  -22.3970  -23.5730   23.8495 C   0  0  0  0  0  0  0  0  0  0  0  0
  -24.1766  -21.8161   24.3596 C   0  0  0  0  0  0  0  0  0  1  0  0
  -29.6719  -18.7113   20.4952 C   0  0  1  0  0  0  0  0  0  0  0  0
  -30.2987  -21.8654   18.4880 C   0  0  2  0  0  0  0  0  0  0  0  0
  -30.8560  -17.9061   21.1010 C   0  0  0  0  0  0  0  0  0  0  0  0
  -25.1970  -28.6746   19.8050 N   0  0  0  0  0  0  0  0  0  0  0  0
  -24.2298  -25.1962   21.1383 N   0  0  0  0  0  0  0  0  0  0  0  0
  -23.0451  -23.2695   21.4810 N   0  0  0  0  0  0  0  0  0  0  0  0
  -26.0724  -27.7329   19.4140 N   0  0  0  0  0  0  0  0  0  0  0  0
  -23.0851  -24.0278   22.5872 N   0  0  0  0  0  0  0  0  0  0  0  0
  -27.3525  -17.8640   20.3338 N   0  0  0  0  0  0  0  0  0  0  0  0
  -23.8045  -25.6002   17.1856 N   0  0  0  0  0  0  0  0  0  0  0  0
  -28.2364  -26.8707   19.8434 N   0  0  0  0  0  0  0  0  0  0  0  0
  -27.8470  -30.2406   22.8248 N   0  0  0  0  0  0  0  0  0  0  0  0
  -25.5501  -14.6982   20.4949 N   0  0  0  0  0  0  0  0  0  0  0  0
  -30.0699  -19.7030   19.5019 N   0  0  0  0  0  0  0  0  0  0  0  0
  -22.8350  -23.7649   18.3814 N   0  0  0  0  0  0  0  0  0  0  0  0
  -29.3838  -23.0080   18.2080 N   0  3  0  0  0  0  0  0  0  0  0  0
  -29.2435  -28.5981   22.0431 O   0  0  0  0  0  0  0  0  0  0  0  0
  -27.0909  -15.8135   21.8381 O   0  0  0  0  0  0  0  0  0  0  0  0
  -29.0055  -17.1196   18.8677 O   0  0  0  0  0  0  0  0  0  0  0  0
  -29.1652  -21.5364   20.5962 O   0  0  0  0  0  0  0  0  0  0  0  0
  -21.8803  -24.5683   16.4435 O   0  0  0  0  0  0  0  0  0  0  0  0
  -23.4347  -33.5816   23.4608 O   0  0  0  0  0  0  0  0  0  0  0  0
  -23.2916  -20.7731   23.9532 O   0  0  0  0  0  0  0  0  0  1  0  0
  -26.4749  -38.0939   24.3557 F   0  0  0  0  0  0  0  0  0  0  0  0
  -22.6719  -36.0324   22.4339 F   0  0  0  0  0  0  0  0  0  0  0  0
  1  2  1  0  0  0  0
  1  5  2  0  0  0  0
  2  6  2  0  0  0  0
  3  8  2  0  0  0  0
  3 15  1  0  0  0  0
  4  9  1  0  0  0  0
  4 15  2  0  0  0  0
  5 17  1  0  0  0  0
  6 19  1  0  0  0  0
  7 10  2  0  0  0  0
  7 18  1  0  0  0  0
  8 21  1  0  0  0  0
  9 21  2  0  0  0  0
 10 22  1  0  0  0  0
 11 12  2  0  0  0  0
 11 23  1  0  0  0  0
 12 24  1  0  0  0  0
 13 20  1  0  0  0  0
 13 22  2  0  0  0  0
 14 24  2  0  0  0  0
 14 25  1  0  0  0  0
 15 26  1  0  0  0  0
 16 26  1  0  0  0  0
 16 27  2  0  0  0  0
 16 30  1  0  0  0  0
 17 19  2  0  0  0  0
 17 35  1  0  0  0  0
 18 20  2  0  0  0  0
 18 36  1  0  0  0  0
 19 44  1  0  0  0  0
 20 37  1  0  0  0  0
 21 79  1  0  0  0  0
 22 80  1  0  0  0  0
 23 25  2  0  0  0  0
 23 79  1  0  0  0  0
 24 81  1  0  0  0  0
 25 82  1  0  0  0  0
 26 61  2  0  0  0  0
 27 64  1  0  0  0  0
 27 68  1  0  0  0  0
 28 54  1  0  0  0  0
 28 62  1  0  0  0  0
 28 63  2  0  0  0  0
 29 47  1  0  0  0  0
 29 62  2  0  0  0  0
 29 65  1  0  0  0  0
 30 69  1  0  0  0  0
 30 74  2  0  0  0  0
 31 45  1  0  0  0  0
 31 70  1  0  0  0  0
 31 75  2  0  0  0  0
 32 58  1  0  0  0  0
 32 66  1  0  0  0  0
 32 76  2  0  0  0  0
 33 59  1  0  0  0  0
 33 71  1  0  0  0  0
 33 77  2  0  0  0  0
 34 67  1  0  0  0  0
 34 72  1  0  0  0  0
 34 78  2  0  0  0  0
 35 38  1  0  0  0  0
 36 45  1  0  0  0  0
 37 66  1  0  0  0  0
 38 40  1  0  0  0  0
 39 41  1  0  0  0  0
 39 42  1  0  0  0  0
 40 44  1  0  0  0  0
 41 46  1  0  0  0  0
 42 67  1  0  0  0  0
 43 46  1  0  0  0  0
 43 67  1  0  0  0  0
 44 70  1  0  0  0  0
 45 66  1  0  0  0  0
 46 64  1  0  0  0  0
 48 59  1  0  0  0  0
 49 60  1  0  0  0  0
 50 60  1  0  0  0  0
 51 60  1  0  0  0  0
 52 72  1  0  0  0  0
 53 73  1  0  0  0  0
 54 72  1  0  0  0  0
 55 56  1  0  0  0  0
 55 57  1  0  0  0  0
 56 65  1  0  0  0  0
 57 80  1  0  0  0  0
 58 60  1  0  0  0  0
 58 71  1  0  0  0  0
 59 73  1  0  0  0  0
 61 64  1  0  0  0  0
 63 65  1  0  0  0  0
M  CHG  1  73   1
M  ISO  4  34 100  57 101  72 100  80 101
M  END
> <Batch ID>
0058

> <Smiles>
CNC(C)C(=O)NC(C(=O)N1Cc2cc([101O:1][101CH2:1]CCn3nc(C[100N:0](C)[100C:0](=O)N4CCCC(n5nc(-c6ccc(Oc7ccc(F)cc7F)cc6)c(C(N)=O)c5N)C4)nc3C)ccc2CC1C(=O)NC1CCCc2ccccc21)C(C)(C)C

> <Shape>
0.250

> <Color>
0.074

> <Negative vol penalty>
0.000

$$$$

  -OEChem-04052317503D

 87 96  0     1  0  0  0  0  0999 V2000
  -28.2426  -36.2431   25.1073 C   0  0  0  0  0  0  0  0  0  0  0  0
  -28.7886  -35.2153   24.3451 C   0  0  0  0  0  0  0  0  0  0  0  0
  -23.9227  -10.8965   23.3955 C   0  0  0  0  0  0  0  0  0  0  0  0
  -24.1189  -13.1258   24.3058 C   0  0  0  0  0  0  0  0  0  0  0  0
  -27.0332  -36.0488   25.7732 C   0  0  0  0  0  0  0  0  0  0  0  0
  -28.1260  -33.9921   24.2494 C   0  0  0  0  0  0  0  0  0  0  0  0
  -26.9979  -28.5970   19.6737 C   0  0  0  0  0  0  0  0  0  0  0  0
  -23.3883  -10.4500   24.6040 C   0  0  0  0  0  0  0  0  0  0  0  0
  -23.5845  -12.6793   25.5144 C   0  0  0  0  0  0  0  0  0  0  0  0
  -27.0915  -27.2078   19.6024 C   0  0  0  0  0  0  0  0  0  0  0  0
  -20.5318  -11.9527   26.7689 C   0  0  0  0  0  0  0  0  0  0  0  0
  -19.5503  -12.7393   27.3717 C   0  0  0  0  0  0  0  0  0  0  0  0
  -27.4463  -22.3096   20.5995 C   0  0  0  0  0  0  0  0  0  0  0  0
  -27.3440  -20.9305   20.5475 C   0  0  0  0  0  0  0  0  0  0  0  0
  -24.9689  -27.0128   20.7318 C   0  0  0  0  0  0  0  0  0  0  0  0
  -20.9525  -12.9939   29.3227 C   0  0  0  0  0  0  0  0  0  0  0  0
  -28.4377  -17.1985   20.6135 C   0  0  0  0  0  0  0  0  0  0  0  0
  -30.2919  -17.5765   19.4840 C   0  0  0  0  0  0  0  0  0  0  0  0
  -24.2880  -12.2344   23.2464 C   0  0  0  0  0  0  0  0  0  0  0  0
  -24.1344  -13.2094   20.8941 C   0  0  0  0  0  0  0  0  0  0  0  0
  -26.3506  -34.8259   25.6778 C   0  0  0  0  0  0  0  0  0  0  0  0
  -25.8924  -29.2054   20.2854 C   0  0  0  0  0  0  0  0  0  0  0  0
  -26.9070  -33.7808   24.9158 C   0  0  0  0  0  0  0  0  0  0  0  0
  -24.8624  -28.4100   20.8073 C   0  0  0  0  0  0  0  0  0  0  0  0
  -23.2191  -11.3413   25.6635 C   0  0  0  0  0  0  0  0  0  0  0  0
  -26.0783  -26.4154   20.1341 C   0  0  0  0  0  0  0  0  0  0  0  0
  -21.7237  -11.6866   27.4430 C   0  0  0  0  0  0  0  0  0  0  0  0
  -19.7606  -13.2600   28.6486 C   0  0  0  0  0  0  0  0  0  0  0  0
  -21.9340  -12.2072   28.7199 C   0  0  0  0  0  0  0  0  0  0  0  0
  -24.8407  -12.6961   21.9984 C   0  0  0  0  0  0  0  0  0  0  0  0
  -27.2261  -23.0181   19.4355 C   0  0  0  0  0  0  0  0  0  0  0  0
  -27.0278  -20.3514   19.3350 C   0  0  0  0  0  0  0  0  0  0  0  0
  -28.2376  -18.1189   19.6118 C   0  0  0  0  0  0  0  0  0  0  0  0
  -25.1075  -13.5021   19.9700 C   0  0  0  0  0  0  0  0  0  0  0  0
  -22.7247  -13.4044   20.7193 C   0  0  0  0  0  0  0  0  0  0  0  0
  -25.4845  -31.1062   22.8002 C   0  0  0  0  0  0  0  0  0  0  0  0
  -30.9571  -14.7455   20.5598 C   0  0  0  0  0  0  0  0  0  0  0  0
  -22.4202  -31.2017   21.7403 C   0  0  0  0  0  0  0  0  0  0  0  0
  -19.9243  -29.7086   19.9549 C   0  0  0  0  0  0  0  0  0  0  0  0
  -25.0698  -34.6469   26.4539 C   0  0  0  0  0  0  0  0  0  0  0  0
  -25.7936  -30.7056   20.3304 C   0  0  0  0  0  0  0  0  0  0  0  0
  -23.6449  -29.0143   21.4562 C   0  0  0  0  0  0  0  0  0  0  0  0
  -24.2436  -33.4473   25.9973 C   0  0  0  0  0  0  0  0  0  0  0  0
  -29.4730  -12.1640   18.5664 C   0  0  0  0  0  0  0  0  0  0  0  0
  -25.1315  -32.2173   25.8372 C   0  0  0  0  0  0  0  0  0  0  0  0
  -28.0621  -12.0348   19.1389 C   0  0  0  0  0  0  0  0  0  0  0  0
  -30.4896  -12.4920   19.6554 C   0  0  0  0  0  0  0  0  0  0  0  0
  -28.7430  -13.5831   21.0268 C   0  0  0  0  0  0  0  0  0  0  0  0
  -26.2058  -32.4480   24.7675 C   0  0  1  0  0  0  0  0  0  0  0  0
  -24.8688  -31.2107   21.4336 C   0  0  1  0  0  0  0  0  0  0  0  0
  -27.6803  -13.2824   19.9551 C   0  0  2  0  0  0  0  0  0  0  0  0
  -31.6260  -16.5702   22.1084 C   0  0  0  0  0  0  0  0  0  0  0  0
  -17.5197  -30.0066   19.3018 C   0  0  0  0  0  0  0  0  0  0  0  0
  -26.5338  -18.3227   17.7914 C   0  0  0  0  0  0  0  0  0  0  0  0
  -25.7051  -18.3794   20.1223 C   0  0  0  0  0  0  0  0  0  0  0  0
  -21.5569  -30.3535   24.5412 C   0  0  0  0  0  0  0  0  0  0  0  0
  -19.3180  -29.7544   23.5941 C   0  0  0  0  0  0  0  0  0  0  0  0
  -20.1212  -32.1141   23.4954 C   0  0  0  0  0  0  0  0  0  0  0  0
  -20.5961  -29.7888   17.0737 C   0  0  0  0  0  0  0  0  0  0  0  0
  -27.3269  -24.5152   19.4368 C   0  0  0  0  0  0  0  0  0  1  0  0
  -30.4626  -15.9238   21.3605 C   0  0  1  0  0  0  0  0  0  0  0  0
  -21.1774  -30.3812   21.9875 C   0  0  1  0  0  0  0  0  0  0  0  0
  -18.9680  -30.2544   18.9098 C   0  0  2  0  0  0  0  0  0  0  0  0
  -26.9022  -18.8703   19.2269 C   0  0  0  0  0  0  0  0  0  0  0  0
  -20.5671  -30.6391   23.3941 C   0  0  0  0  0  0  0  0  0  0  0  0
  -29.3956  -18.3496   18.9122 N   0  0  0  0  0  0  0  0  0  0  0  0
  -26.1605  -12.6631   21.7962 N   0  0  0  0  0  0  0  0  0  0  0  0
  -26.9182  -22.4250   18.2627 N   0  0  0  0  0  0  0  0  0  0  0  0
  -26.8173  -21.0697   18.2117 N   0  0  0  0  0  0  0  0  0  0  0  0
  -29.7582  -16.8599   20.5188 N   0  0  0  0  0  0  0  0  0  0  0  0
  -26.2913  -13.1592   20.5541 N   0  0  0  0  0  0  0  0  0  0  0  0
  -23.5975  -30.4855   21.4815 N   0  0  0  0  0  0  0  0  0  0  0  0
  -30.0797  -13.6697   20.4224 N   0  0  0  0  0  0  0  0  0  0  0  0
  -25.0574  -14.0165   18.7229 N   0  0  0  0  0  0  0  0  0  0  0  0
  -21.8661  -13.0506   21.7689 N   0  0  0  0  0  0  0  0  0  0  0  0
  -25.6362  -32.3198   23.4433 N   0  0  0  0  0  0  0  0  0  0  0  0
  -20.2712  -30.6693   20.8811 N   0  0  0  0  0  0  0  0  0  0  0  0
  -19.2158  -29.6051   17.5915 N   0  3  0  0  0  0  0  0  0  0  0  0
  -22.2396  -13.8631   19.6573 O   0  0  0  0  0  0  0  0  0  0  0  0
  -25.7973  -30.0057   23.2394 O   0  0  0  0  0  0  0  0  0  0  0  0
  -32.0886  -14.7831   20.0694 O   0  0  0  0  0  0  0  0  0  0  0  0
  -22.3476  -32.4328   21.7685 O   0  0  0  0  0  0  0  0  0  0  0  0
  -20.3207  -28.5452   19.9521 O   0  0  0  0  0  0  0  0  0  0  0  0
  -22.6975  -10.9060   26.8429 O   0  0  0  0  0  0  0  0  0  0  0  0
  -26.1675  -25.0592   20.0664 O   0  0  0  0  0  0  0  0  0  1  0  0
  -18.8186  -14.0166   29.2267 F   0  0  0  0  0  0  0  0  0  0  0  0
  -23.0775  -11.9560   29.3719 F   0  0  0  0  0  0  0  0  0  0  0  0
  1  2  1  0  0  0  0
  1  5  2  0  0  0  0
  2  6  2  0  0  0  0
  3  8  2  0  0  0  0
  3 19  1  0  0  0  0
  4  9  1  0  0  0  0
  4 19  2  0  0  0  0
  5 21  1  0  0  0  0
  6 23  1  0  0  0  0
  7 10  2  0  0  0  0
  7 22  1  0  0  0  0
  8 25  1  0  0  0  0
  9 25  2  0  0  0  0
 10 26  1  0  0  0  0
 11 12  2  0  0  0  0
 11 27  1  0  0  0  0
 12 28  1  0  0  0  0
 13 14  2  0  0  0  0
 13 31  1  0  0  0  0
 14 32  1  0  0  0  0
 15 24  1  0  0  0  0
 15 26  2  0  0  0  0
 16 28  2  0  0  0  0
 16 29  1  0  0  0  0
 17 33  2  0  0  0  0
 17 70  1  0  0  0  0
 18 66  2  0  0  0  0
 18 70  1  0  0  0  0
 19 30  1  0  0  0  0
 20 30  1  0  0  0  0
 20 34  2  0  0  0  0
 20 35  1  0  0  0  0
 21 23  2  0  0  0  0
 21 40  1  0  0  0  0
 22 24  2  0  0  0  0
 22 41  1  0  0  0  0
 23 49  1  0  0  0  0
 24 42  1  0  0  0  0
 25 84  1  0  0  0  0
 26 85  1  0  0  0  0
 27 29  2  0  0  0  0
 27 84  1  0  0  0  0
 28 86  1  0  0  0  0
 29 87  1  0  0  0  0
 30 67  2  0  0  0  0
 31 60  1  0  0  0  0
 31 68  2  0  0  0  0
 32 64  1  0  0  0  0
 32 69  2  0  0  0  0
 33 64  1  0  0  0  0
 33 66  1  0  0  0  0
 34 71  1  0  0  0  0
 34 74  1  0  0  0  0
 35 75  1  0  0  0  0
 35 79  2  0  0  0  0
 36 50  1  0  0  0  0
 36 76  1  0  0  0  0
 36 80  2  0  0  0  0
 37 61  1  0  0  0  0
 37 73  1  0  0  0  0
 37 81  2  0  0  0  0
 38 62  1  0  0  0  0
 38 72  1  0  0  0  0
 38 82  2  0  0  0  0
 39 63  1  0  0  0  0
 39 77  1  0  0  0  0
 39 83  2  0  0  0  0
 40 43  1  0  0  0  0
 41 50  1  0  0  0  0
 42 72  1  0  0  0  0
 43 45  1  0  0  0  0
 44 46  1  0  0  0  0
 44 47  1  0  0  0  0
 45 49  1  0  0  0  0
 46 51  1  0  0  0  0
 47 73  1  0  0  0  0
 48 51  1  0  0  0  0
 48 73  1  0  0  0  0
 49 76  1  0  0  0  0
 50 72  1  0  0  0  0
 51 71  1  0  0  0  0
 52 61  1  0  0  0  0
 53 63  1  0  0  0  0
 54 64  1  0  0  0  0
 55 64  1  0  0  0  0
 56 65  1  0  0  0  0
 57 65  1  0  0  0  0
 58 65  1  0  0  0  0
 59 78  1  0  0  0  0
 60 85  1  0  0  0  0
 61 70  1  0  0  0  0
 62 65  1  0  0  0  0
 62 77  1  0  0  0  0
 63 78  1  0  0  0  0
 67 71  1  0  0  0  0
 68 69  1  0  0  0  0
M  CHG  1  78   1
M  ISO  4  37 100  60 101  61 100  85 101
M  END
> <Batch ID>
0058

> <Smiles>
CNC(C)C(=O)NC(C(=O)N1Cc2cc([101O:1][101CH2:1]c3ccc(C(C)(C)c4cn([100CH:0](C)[100C:0](=O)N5CCCC(n6nc(-c7ccc(Oc8ccc(F)cc8F)cc7)c(C(N)=O)c6N)C5)cn4)nn3)ccc2CC1C(=O)NC1CCCc2ccccc21)C(C)(C)C

> <Shape>
0.287

> <Color>
0.106

> <Negative vol penalty>
0.000

$$$$

  -OEChem-04052317503D

 85 93  0     1  0  0  0  0  0999 V2000
  -22.6668  -17.8438   25.2473 C   0  0  0  0  0  0  0  0  0  0  0  0
  -23.6128  -18.6546   24.6305 C   0  0  0  0  0  0  0  0  0  0  0  0
  -24.6386  -13.5943   19.5338 C   0  0  0  0  0  0  0  0  0  0  0  0
  -25.3355  -14.3344   21.7255 C   0  0  0  0  0  0  0  0  0  0  0  0
  -21.3103  -18.1246   25.0984 C   0  0  0  0  0  0  0  0  0  0  0  0
  -23.2031  -19.7534   23.8744 C   0  0  0  0  0  0  0  0  0  0  0  0
  -26.4382  -23.6921   20.5355 C   0  0  0  0  0  0  0  0  0  0  0  0
  -24.7535  -12.2666   19.9455 C   0  0  0  0  0  0  0  0  0  0  0  0
  -25.4503  -13.0067   22.1373 C   0  0  0  0  0  0  0  0  0  0  0  0
  -26.8620  -23.8149   19.2130 C   0  0  0  0  0  0  0  0  0  0  0  0
  -22.9490  -10.0562   21.7596 C   0  0  0  0  0  0  0  0  0  0  0  0
  -21.9164   -9.1812   21.4223 C   0  0  0  0  0  0  0  0  0  0  0  0
  -24.9774  -25.2472   18.7483 C   0  0  0  0  0  0  0  0  0  0  0  0
  -23.4799   -7.8100   20.1926 C   0  0  0  0  0  0  0  0  0  0  0  0
  -30.1703  -24.5864   17.0738 C   0  0  0  0  0  0  0  0  0  0  0  0
  -29.4553  -26.1270   18.4781 C   0  0  0  0  0  0  0  0  0  0  0  0
  -24.9297  -14.6282   20.4237 C   0  0  0  0  0  0  0  0  0  0  0  0
  -23.6716  -16.8213   20.0841 C   0  0  0  0  0  0  0  0  0  0  0  0
  -20.8842  -19.2203   24.3297 C   0  0  0  0  0  0  0  0  0  0  0  0
  -25.2728  -24.3383   20.9724 C   0  0  0  0  0  0  0  0  0  0  0  0
  -21.8394  -20.0674   23.7319 C   0  0  0  0  0  0  0  0  0  0  0  0
  -24.5423  -25.1332   20.0776 C   0  0  0  0  0  0  0  0  0  0  0  0
  -25.1593  -11.9728   21.2473 C   0  0  0  0  0  0  0  0  0  0  0  0
  -26.1300  -24.5902   18.3184 C   0  0  0  0  0  0  0  0  0  0  0  0
  -24.2471   -9.8081   21.3133 C   0  0  0  0  0  0  0  0  0  0  0  0
  -22.1818   -8.0581   20.6389 C   0  0  0  0  0  0  0  0  0  0  0  0
  -24.5125   -8.6850   20.5298 C   0  0  0  0  0  0  0  0  0  0  0  0
  -24.8117  -16.0000   19.9988 C   0  0  0  0  0  0  0  0  0  0  0  0
  -30.8232  -24.5081   18.2813 C   0  0  0  0  0  0  0  0  0  0  0  0
  -24.0730  -18.0222   19.5519 C   0  0  0  0  0  0  0  0  0  0  0  0
  -22.3665  -16.5253   20.5986 C   0  0  0  0  0  0  0  0  0  0  0  0
  -22.4814  -23.3760   22.1496 C   0  0  0  0  0  0  0  0  0  0  0  0
  -29.4602  -20.4868   19.1292 C   0  0  0  0  0  0  0  0  0  0  0  0
  -21.9952  -26.5582   22.5493 C   0  0  0  0  0  0  0  0  0  0  0  0
  -22.7567  -29.7470   21.6014 C   0  0  0  0  0  0  0  0  0  0  0  0
  -19.4038  -19.4828   24.2082 C   0  0  0  0  0  0  0  0  0  0  0  0
  -24.8438  -24.2175   22.4089 C   0  0  0  0  0  0  0  0  0  0  0  0
  -23.2954  -25.8637   20.5018 C   0  0  0  0  0  0  0  0  0  0  0  0
  -19.0559  -20.3937   23.0355 C   0  0  0  0  0  0  0  0  0  0  0  0
  -27.1344  -19.8926   16.3971 C   0  0  0  0  0  0  0  0  0  0  0  0
  -19.9411  -21.6309   23.0578 C   0  0  0  0  0  0  0  0  0  0  0  0
  -26.1837  -18.8721   17.0215 C   0  0  0  0  0  0  0  0  0  0  0  0
  -28.5676  -19.6960   16.8843 C   0  0  0  0  0  0  0  0  0  0  0  0
  -27.7566  -18.6974   18.9985 C   0  0  0  0  0  0  0  0  0  0  0  0
  -21.4163  -21.2501   22.8796 C   0  0  1  0  0  0  0  0  0  0  0  0
  -23.3594  -24.5029   22.6152 C   0  0  1  0  0  0  0  0  0  0  0  0
  -26.2952  -18.8809   18.5561 C   0  0  2  0  0  0  0  0  0  0  0  0
  -22.1695  -32.1387   22.0834 C   0  0  0  0  0  0  0  0  0  0  0  0
  -28.6826  -27.5773   15.7377 C   0  0  0  0  0  0  0  0  0  0  0  0
  -25.8738  -26.3944   15.4389 C   0  0  0  0  0  0  0  0  0  0  0  0
  -32.8307  -24.2398   19.7438 C   0  0  0  0  0  0  0  0  0  0  0  0
  -32.8607  -23.1053   17.5399 C   0  0  0  0  0  0  0  0  0  0  0  0
  -19.3855  -26.2265   21.0034 C   0  0  0  0  0  0  0  0  0  0  0  0
  -19.3334  -28.7106   20.6955 C   0  0  0  0  0  0  0  0  0  0  0  0
  -19.2361  -27.7377   22.9905 C   0  0  0  0  0  0  0  0  0  0  0  0
  -25.5264  -30.3814   22.4291 C   0  0  0  0  0  0  0  0  0  0  0  0
  -30.3621  -21.4422   18.3891 C   0  0  0  0  0  0  0  0  0  0  0  0
  -21.4117  -27.6649   21.7046 C   0  0  1  0  0  0  0  0  0  0  0  0
  -23.1023  -30.9833   22.4116 C   0  0  2  0  0  0  0  0  0  0  0  0
  -28.3301  -26.1432   16.1587 C   0  0  2  0  0  0  0  0  0  0  0  0
  -31.2543  -22.2418   19.3517 C   0  0  2  0  0  0  0  0  0  0  0  0
  -26.8397  -26.0264   16.5608 C   0  0  2  0  0  0  0  0  0  1  0  0
  -31.8730  -23.5620   18.6888 C   0  0  0  0  0  0  0  0  0  0  0  0
  -19.8641  -27.5697   21.5897 C   0  0  0  0  0  0  0  0  0  0  0  0
  -30.3733  -25.4696   19.1512 N   0  0  0  0  0  0  0  0  0  0  0  0
  -25.8588  -16.6261   19.4550 N   0  0  0  0  0  0  0  0  0  0  0  0
  -29.2969  -25.6277   17.2151 N   0  0  0  0  0  0  0  0  0  0  0  0
  -25.3781  -17.8536   19.1938 N   0  0  0  0  0  0  0  0  0  0  0  0
  -22.9132  -25.7092   21.9151 N   0  0  0  0  0  0  0  0  0  0  0  0
  -28.6273  -19.6827   18.3508 N   0  0  0  0  0  0  0  0  0  0  0  0
  -23.4332  -19.1954   19.3600 N   0  0  0  0  0  0  0  0  0  0  0  0
  -22.1243  -15.2422   21.1080 N   0  0  0  0  0  0  0  0  0  0  0  0
  -22.2369  -22.4177   23.1146 N   0  0  0  0  0  0  0  0  0  0  0  0
  -21.8922  -28.9156   22.2818 N   0  0  0  0  0  0  0  0  0  0  0  0
  -32.2954  -21.3016   19.8865 N   0  3  0  0  0  0  0  0  0  0  0  0
  -24.5009  -31.4135   22.1290 N   0  3  0  0  0  0  0  0  0  0  0  0
  -21.4376  -17.3683   20.5913 O   0  0  0  0  0  0  0  0  0  0  0  0
  -22.0561  -23.3767   21.0004 O   0  0  0  0  0  0  0  0  0  0  0  0
  -29.4944  -20.4595   20.3622 O   0  0  0  0  0  0  0  0  0  0  0  0
  -21.6545  -26.4552   23.7304 O   0  0  0  0  0  0  0  0  0  0  0  0
  -23.2055  -29.5412   20.4759 O   0  0  0  0  0  0  0  0  0  0  0  0
  -25.2713  -10.6773   21.6496 O   0  0  0  0  0  0  0  0  0  0  0  0
  -26.5410  -24.7112   17.0268 O   0  0  0  0  0  0  0  0  0  1  0  0
  -21.1904   -7.2172   20.3164 F   0  0  0  0  0  0  0  0  0  0  0  0
  -25.7578   -8.4408   20.0990 F   0  0  0  0  0  0  0  0  0  0  0  0
  1  2  1  0  0  0  0
  1  5  2  0  0  0  0
  2  6  2  0  0  0  0
  3  8  2  0  0  0  0
  3 17  1  0  0  0  0
  4  9  1  0  0  0  0
  4 17  2  0  0  0  0
  5 19  1  0  0  0  0
  6 21  1  0  0  0  0
  7 10  2  0  0  0  0
  7 20  1  0  0  0  0
  8 23  1  0  0  0  0
  9 23  2  0  0  0  0
 10 24  1  0  0  0  0
 11 12  2  0  0  0  0
 11 25  1  0  0  0  0
 12 26  1  0  0  0  0
 13 22  1  0  0  0  0
 13 24  2  0  0  0  0
 14 26  2  0  0  0  0
 14 27  1  0  0  0  0
 15 29  2  0  0  0  0
 15 67  1  0  0  0  0
 16 65  2  0  0  0  0
 16 67  1  0  0  0  0
 17 28  1  0  0  0  0
 18 28  1  0  0  0  0
 18 30  2  0  0  0  0
 18 31  1  0  0  0  0
 19 21  2  0  0  0  0
 19 36  1  0  0  0  0
 20 22  2  0  0  0  0
 20 37  1  0  0  0  0
 21 45  1  0  0  0  0
 22 38  1  0  0  0  0
 23 82  1  0  0  0  0
 24 83  1  0  0  0  0
 25 27  2  0  0  0  0
 25 82  1  0  0  0  0
 26 84  1  0  0  0  0
 27 85  1  0  0  0  0
 28 66  2  0  0  0  0
 29 63  1  0  0  0  0
 29 65  1  0  0  0  0
 30 68  1  0  0  0  0
 30 71  1  0  0  0  0
 31 72  1  0  0  0  0
 31 77  2  0  0  0  0
 32 46  1  0  0  0  0
 32 73  1  0  0  0  0
 32 78  2  0  0  0  0
 33 57  1  0  0  0  0
 33 70  1  0  0  0  0
 33 79  2  0  0  0  0
 34 58  1  0  0  0  0
 34 69  1  0  0  0  0
 34 80  2  0  0  0  0
 35 59  1  0  0  0  0
 35 74  1  0  0  0  0
 35 81  2  0  0  0  0
 36 39  1  0  0  0  0
 37 46  1  0  0  0  0
 38 69  1  0  0  0  0
 39 41  1  0  0  0  0
 40 42  1  0  0  0  0
 40 43  1  0  0  0  0
 41 45  1  0  0  0  0
 42 47  1  0  0  0  0
 43 70  1  0  0  0  0
 44 47  1  0  0  0  0
 44 70  1  0  0  0  0
 45 73  1  0  0  0  0
 46 69  1  0  0  0  0
 47 68  1  0  0  0  0
 48 59  1  0  0  0  0
 49 60  1  0  0  0  0
 50 62  1  0  0  0  0
 51 63  1  0  0  0  0
 52 63  1  0  0  0  0
 53 64  1  0  0  0  0
 54 64  1  0  0  0  0
 55 64  1  0  0  0  0
 56 76  1  0  0  0  0
 57 61  1  0  0  0  0
 58 64  1  0  0  0  0
 58 74  1  0  0  0  0
 59 76  1  0  0  0  0
 60 62  1  0  0  0  0
 60 67  1  0  0  0  0
 61 63  1  0  0  0  0
 61 75  1  0  0  0  0
 62 83  1  0  0  0  0
 66 68  1  0  0  0  0
M  CHG  2  75   1  76   1
M  ISO  4  33 100  57 100  62 101  83 101
M  END
> <Batch ID>
0058

> <Smiles>
CNC(C)C(=O)NC(C(=O)N1Cc2cc([101O:1][101CH:1](C)C(C)n3cnc(C(C)(C)C(N)[100CH2:0][100C:0](=O)N4CCCC(n5nc(-c6ccc(Oc7ccc(F)cc7F)cc6)c(C(N)=O)c5N)C4)c3)ccc2CC1C(=O)NC1CCCc2ccccc21)C(C)(C)C

> <Shape>
0.192

> <Color>
0.071

> <Negative vol penalty>
0.000

$$$$

  -OEChem-04052317503D

 80 88  0     1  0  0  0  0  0999 V2000
  -27.9045  -23.6758   17.2837 C   0  0  0  0  0  0  0  0  0  0  0  0
  -26.7075  -24.0109   17.9085 C   0  0  0  0  0  0  0  0  0  0  0  0
  -27.7633  -15.6287   21.4973 C   0  0  0  0  0  0  0  0  0  0  0  0
  -25.8330  -16.0724   20.1137 C   0  0  0  0  0  0  0  0  0  0  0  0
  -29.1144  -24.1256   17.8108 C   0  0  0  0  0  0  0  0  0  0  0  0
  -26.7198  -24.7951   19.0614 C   0  0  0  0  0  0  0  0  0  0  0  0
  -23.2169  -28.4509   18.9616 C   0  0  0  0  0  0  0  0  0  0  0  0
  -27.5175  -14.2591   21.4011 C   0  0  0  0  0  0  0  0  0  0  0  0
  -25.5872  -14.7027   20.0174 C   0  0  0  0  0  0  0  0  0  0  0  0
  -21.9014  -28.0799   19.2366 C   0  0  0  0  0  0  0  0  0  0  0  0
  -24.2414  -11.3411   19.7036 C   0  0  0  0  0  0  0  0  0  0  0  0
  -22.9270  -10.9050   19.8702 C   0  0  0  0  0  0  0  0  0  0  0  0
  -22.1510  -28.8912   21.4947 C   0  0  0  0  0  0  0  0  0  0  0  0
  -22.8991  -11.8402   22.0977 C   0  0  0  0  0  0  0  0  0  0  0  0
  -21.2032  -24.3102   22.9863 C   0  0  0  0  0  0  0  0  0  0  0  0
  -26.9210  -16.5354   20.8536 C   0  0  0  0  0  0  0  0  0  0  0  0
  -27.9688  -18.7342   20.0953 C   0  0  0  0  0  0  0  0  0  0  0  0
  -29.1409  -24.9238   18.9653 C   0  0  0  0  0  0  0  0  0  0  0  0
  -24.0142  -29.0358   19.9559 C   0  0  0  0  0  0  0  0  0  0  0  0
  -27.9312  -25.2549   19.6052 C   0  0  0  0  0  0  0  0  0  0  0  0
  -23.4755  -29.2710   21.2290 C   0  0  0  0  0  0  0  0  0  0  0  0
  -26.4295  -13.7961   20.6612 C   0  0  0  0  0  0  0  0  0  0  0  0
  -21.3692  -28.2974   20.5041 C   0  0  0  0  0  0  0  0  0  0  0  0
  -24.8848  -12.0267   20.7341 C   0  0  0  0  0  0  0  0  0  0  0  0
  -22.2559  -11.1546   21.0672 C   0  0  0  0  0  0  0  0  0  0  0  0
  -24.2136  -12.2762   21.9311 C   0  0  0  0  0  0  0  0  0  0  0  0
  -27.1741  -17.9504   20.9531 C   0  0  0  0  0  0  0  0  0  0  0  0
  -20.1242  -24.5661   22.1191 C   0  0  0  0  0  0  0  0  0  0  0  0
  -21.8597  -23.2484   22.4134 C   0  0  0  0  0  0  0  0  0  0  0  0
  -27.8868  -20.0029   20.6150 C   0  0  0  0  0  0  0  0  0  0  0  0
  -28.7145  -18.3498   18.9325 C   0  0  0  0  0  0  0  0  0  0  0  0
  -26.7188  -28.2355   21.4215 C   0  0  0  0  0  0  0  0  0  0  0  0
  -26.4232  -31.1862   22.7363 C   0  0  0  0  0  0  0  0  0  0  0  0
  -24.3806  -33.7754   23.6141 C   0  0  0  0  0  0  0  0  0  0  0  0
  -23.7929  -22.7866   23.9612 C   0  0  0  0  0  0  0  0  0  0  0  0
  -30.4760  -25.3469   19.5249 C   0  0  0  0  0  0  0  0  0  0  0  0
  -25.4228  -29.4547   19.6355 C   0  0  0  0  0  0  0  0  0  0  0  0
  -24.2834  -29.9142   22.3254 C   0  0  0  0  0  0  0  0  0  0  0  0
  -30.3790  -26.4858   20.5368 C   0  0  0  0  0  0  0  0  0  0  0  0
  -27.2320  -22.3183   24.7556 C   0  0  0  0  0  0  0  0  0  0  0  0
  -29.2642  -26.2135   21.5417 C   0  0  0  0  0  0  0  0  0  0  0  0
  -27.6813  -21.2207   23.7884 C   0  0  0  0  0  0  0  0  0  0  0  0
  -25.8031  -22.0918   25.2463 C   0  0  0  0  0  0  0  0  0  0  0  0
  -25.2545  -20.8046   23.2187 C   0  0  0  0  0  0  0  0  0  0  0  0
  -27.9018  -26.1243   20.8435 C   0  0  1  0  0  0  0  0  0  0  0  0
  -26.3073  -29.5724   20.8730 C   0  0  1  0  0  0  0  0  0  0  0  0
  -26.6645  -21.0247   22.6467 C   0  0  2  0  0  0  0  0  0  0  0  0
  -24.4223  -36.0345   24.7059 C   0  0  0  0  0  0  0  0  0  0  0  0
  -26.6869  -29.8573   25.4703 C   0  0  0  0  0  0  0  0  0  0  0  0
  -25.7860  -31.9545   26.4990 C   0  0  0  0  0  0  0  0  0  0  0  0
  -27.9345  -32.0118   25.2328 C   0  0  0  0  0  0  0  0  0  0  0  0
  -21.4557  -21.8966   20.3319 C   0  0  0  0  0  0  0  0  0  0  0  0
  -23.3752  -35.1044   21.1683 C   0  0  0  0  0  0  0  0  0  0  0  0
  -19.0659  -25.6309   22.2599 C   0  0  0  0  0  0  0  0  0  0  0  0
  -18.5127  -26.1300   20.9233 C   0  0  0  0  0  0  0  0  0  0  0  0
  -19.5594  -26.8208   20.0568 C   0  0  0  0  0  0  0  0  0  1  0  0
  -25.7595  -31.7444   23.9720 C   0  0  1  0  0  0  0  0  0  0  0  0
  -24.4999  -35.2724   23.3922 C   0  0  2  0  0  0  0  0  0  0  0  0
  -26.5269  -31.3781   25.2736 C   0  0  0  0  0  0  0  0  0  0  0  0
  -26.6275  -18.6616   21.9427 N   0  0  0  0  0  0  0  0  0  0  0  0
  -20.0935  -23.7341   21.0747 N   0  0  0  0  0  0  0  0  0  0  0  0
  -27.0796  -19.9056   21.7101 N   0  0  0  0  0  0  0  0  0  0  0  0
  -21.1614  -22.9450   21.2818 N   0  0  0  0  0  0  0  0  0  0  0  0
  -25.6576  -30.3004   21.9649 N   0  0  0  0  0  0  0  0  0  0  0  0
  -24.8954  -21.9187   24.1101 N   0  0  0  0  0  0  0  0  0  0  0  0
  -28.4271  -21.1810   20.2377 N   0  0  0  0  0  0  0  0  0  0  0  0
  -28.6898  -17.0054   18.5372 N   0  0  0  0  0  0  0  0  0  0  0  0
  -23.0193  -22.5465   22.8261 N   0  0  0  0  0  0  0  0  0  0  0  0
  -27.4111  -27.4473   20.5221 N   0  0  0  0  0  0  0  0  0  0  0  0
  -25.6166  -33.1786   23.7460 N   0  0  0  0  0  0  0  0  0  0  0  0
  -23.4038  -35.7534   22.5043 N   0  3  0  0  0  0  0  0  0  0  0  0
  -29.3961  -19.1711   18.2734 O   0  0  0  0  0  0  0  0  0  0  0  0
  -26.4310  -27.9415   22.5758 O   0  0  0  0  0  0  0  0  0  0  0  0
  -27.5758  -31.5292   22.4616 O   0  0  0  0  0  0  0  0  0  0  0  0
  -23.2991  -33.1943   23.6690 O   0  0  0  0  0  0  0  0  0  0  0  0
  -23.5684  -23.6945   24.7658 O   0  0  0  0  0  0  0  0  0  0  0  0
  -26.1894  -12.4596   20.5669 O   0  0  0  0  0  0  0  0  0  0  0  0
  -20.0857  -27.9357   20.7754 O   0  0  0  0  0  0  0  0  0  1  0  0
  -20.9931  -10.7371   21.2265 F   0  0  0  0  0  0  0  0  0  0  0  0
  -24.8260  -12.9354   22.9243 F   0  0  0  0  0  0  0  0  0  0  0  0
  1  2  1  0  0  0  0
  1  5  2  0  0  0  0
  2  6  2  0  0  0  0
  3  8  2  0  0  0  0
  3 16  1  0  0  0  0
  4  9  1  0  0  0  0
  4 16  2  0  0  0  0
  5 18  1  0  0  0  0
  6 20  1  0  0  0  0
  7 10  2  0  0  0  0
  7 19  1  0  0  0  0
  8 22  1  0  0  0  0
  9 22  2  0  0  0  0
 10 23  1  0  0  0  0
 11 12  2  0  0  0  0
 11 24  1  0  0  0  0
 12 25  1  0  0  0  0
 13 21  1  0  0  0  0
 13 23  2  0  0  0  0
 14 25  2  0  0  0  0
 14 26  1  0  0  0  0
 15 28  1  0  0  0  0
 15 29  2  0  0  0  0
 16 27  1  0  0  0  0
 17 27  1  0  0  0  0
 17 30  2  0  0  0  0
 17 31  1  0  0  0  0
 18 20  2  0  0  0  0
 18 36  1  0  0  0  0
 19 21  2  0  0  0  0
 19 37  1  0  0  0  0
 20 45  1  0  0  0  0
 21 38  1  0  0  0  0
 22 77  1  0  0  0  0
 23 78  1  0  0  0  0
 24 26  2  0  0  0  0
 24 77  1  0  0  0  0
 25 79  1  0  0  0  0
 26 80  1  0  0  0  0
 27 60  2  0  0  0  0
 28 54  1  0  0  0  0
 28 61  2  0  0  0  0
 29 63  1  0  0  0  0
 29 68  1  0  0  0  0
 30 62  1  0  0  0  0
 30 66  1  0  0  0  0
 31 67  1  0  0  0  0
 31 72  2  0  0  0  0
 32 46  1  0  0  0  0
 32 69  1  0  0  0  0
 32 73  2  0  0  0  0
 33 57  1  0  0  0  0
 33 64  1  0  0  0  0
 33 74  2  0  0  0  0
 34 58  1  0  0  0  0
 34 70  1  0  0  0  0
 34 75  2  0  0  0  0
 35 65  1  0  0  0  0
 35 68  1  0  0  0  0
 35 76  2  0  0  0  0
 36 39  1  0  0  0  0
 37 46  1  0  0  0  0
 38 64  1  0  0  0  0
 39 41  1  0  0  0  0
 40 42  1  0  0  0  0
 40 43  1  0  0  0  0
 41 45  1  0  0  0  0
 42 47  1  0  0  0  0
 43 65  1  0  0  0  0
 44 47  1  0  0  0  0
 44 65  1  0  0  0  0
 45 69  1  0  0  0  0
 46 64  1  0  0  0  0
 47 62  1  0  0  0  0
 48 58  1  0  0  0  0
 49 59  1  0  0  0  0
 50 59  1  0  0  0  0
 51 59  1  0  0  0  0
 52 63  1  0  0  0  0
 53 71  1  0  0  0  0
 54 55  1  0  0  0  0
 55 56  1  0  0  0  0
 56 78  1  0  0  0  0
 57 59  1  0  0  0  0
 57 70  1  0  0  0  0
 58 71  1  0  0  0  0
 60 62  1  0  0  0  0
 61 63  1  0  0  0  0
M  CHG  1  71   1
M  ISO  4  35 100  56 101  68 100  78 101
M  END
> <Batch ID>
0058

> <Smiles>
CNC(C)C(=O)NC(C(=O)N1Cc2cc([101O:1][101CH2:1]CCc3cc([100NH:0][100C:0](=O)N4CCCC(n5nc(-c6ccc(Oc7ccc(F)cc7F)cc6)c(C(N)=O)c5N)C4)n(C)n3)ccc2CC1C(=O)NC1CCCc2ccccc21)C(C)(C)C

> <Shape>
0.291

> <Color>
0.062

> <Negative vol penalty>
0.000

$$$$

  -OEChem-04052317503D

 83 91  0     1  0  0  0  0  0999 V2000
  -19.5893  -23.9871   23.4186 C   0  0  0  0  0  0  0  0  0  0  0  0
  -20.8938  -23.9237   22.9394 C   0  0  0  0  0  0  0  0  0  0  0  0
  -25.8007  -14.0984   21.5138 C   0  0  0  0  0  0  0  0  0  0  0  0
  -25.4418  -14.6520   19.1896 C   0  0  0  0  0  0  0  0  0  0  0  0
  -18.8779  -25.1838   23.3441 C   0  0  0  0  0  0  0  0  0  0  0  0
  -21.4873  -25.0568   22.3842 C   0  0  0  0  0  0  0  0  0  0  0  0
  -27.3835  -26.6734   22.7401 C   0  0  0  0  0  0  0  0  0  0  0  0
  -24.8533  -13.0792   21.4174 C   0  0  0  0  0  0  0  0  0  0  0  0
  -24.4944  -13.6328   19.0931 C   0  0  0  0  0  0  0  0  0  0  0  0
  -28.4515  -26.5264   21.8560 C   0  0  0  0  0  0  0  0  0  0  0  0
  -22.7915  -10.0974   21.6869 C   0  0  0  0  0  0  0  0  0  0  0  0
  -23.1077   -8.8624   22.2528 C   0  0  0  0  0  0  0  0  0  0  0  0
  -28.0753  -28.7646   21.0387 C   0  0  0  0  0  0  0  0  0  0  0  0
  -25.0226   -8.6828   20.7905 C   0  0  0  0  0  0  0  0  0  0  0  0
  -26.0949  -14.8849   20.3999 C   0  0  0  0  0  0  0  0  0  0  0  0
  -28.4569  -15.8383   20.2614 C   0  0  0  0  0  0  0  0  0  0  0  0
  -19.4663  -26.3348   22.7965 C   0  0  0  0  0  0  0  0  0  0  0  0
  -26.6453  -27.8653   22.7726 C   0  0  0  0  0  0  0  0  0  0  0  0
  -20.7826  -26.2698   22.3010 C   0  0  0  0  0  0  0  0  0  0  0  0
  -27.0000  -28.9252   21.9260 C   0  0  0  0  0  0  0  0  0  0  0  0
  -24.2002  -12.8464   20.2071 C   0  0  0  0  0  0  0  0  0  0  0  0
  -28.7957  -27.5710   21.0031 C   0  0  0  0  0  0  0  0  0  0  0  0
  -23.5907  -10.6251   20.6728 C   0  0  0  0  0  0  0  0  0  0  0  0
  -24.2233   -8.1550   21.8046 C   0  0  0  0  0  0  0  0  0  0  0  0
  -24.7063   -9.9178   20.2246 C   0  0  0  0  0  0  0  0  0  0  0  0
  -27.0730  -15.9382   20.4991 C   0  0  0  0  0  0  0  0  0  0  0  0
  -28.9366  -17.1052   20.4882 C   0  0  0  0  0  0  0  0  0  0  0  0
  -28.3195  -22.6553   17.7572 C   0  0  0  0  0  0  0  0  0  0  0  0
  -29.2390  -14.7020   19.8704 C   0  0  0  0  0  0  0  0  0  0  0  0
  -23.6140  -28.6422   22.2145 C   0  0  0  0  0  0  0  0  0  0  0  0
  -24.5719  -31.5537   23.2764 C   0  0  0  0  0  0  0  0  0  0  0  0
  -27.1280  -33.7602   23.7711 C   0  0  0  0  0  0  0  0  0  0  0  0
  -25.8845  -22.4156   20.3372 C   0  0  0  0  0  0  0  0  0  0  0  0
  -18.6414  -27.5932   22.6942 C   0  0  0  0  0  0  0  0  0  0  0  0
  -25.5130  -28.0178   23.7508 C   0  0  0  0  0  0  0  0  0  0  0  0
  -26.2521  -30.2325   21.9360 C   0  0  0  0  0  0  0  0  0  0  0  0
  -19.4725  -28.8468   22.4333 C   0  0  0  0  0  0  0  0  0  0  0  0
  -28.0485  -21.0611   23.0175 C   0  0  0  0  0  0  0  0  0  0  0  0
  -20.4862  -28.5934   21.3220 C   0  0  0  0  0  0  0  0  0  0  0  0
  -28.0960  -19.5705   22.6859 C   0  0  0  0  0  0  0  0  0  0  0  0
  -26.7534  -21.7082   22.5364 C   0  0  0  0  0  0  0  0  0  0  0  0
  -26.5227  -20.0055   20.7582 C   0  0  0  0  0  0  0  0  0  0  0  0
  -21.4694  -27.4840   21.7145 C   0  0  1  0  0  0  0  0  0  0  0  0
  -24.5068  -29.0877   23.3380 C   0  0  1  0  0  0  0  0  0  0  0  0
  -27.8351  -19.3331   21.1882 C   0  0  2  0  0  0  0  0  0  0  0  0
  -27.9206  -19.6826   16.9391 C   0  0  0  0  0  0  0  0  0  0  0  0
  -27.5959  -36.0743   24.6216 C   0  0  0  0  0  0  0  0  0  0  0  0
  -23.4395  -32.7278   20.6978 C   0  0  0  0  0  0  0  0  0  0  0  0
  -24.7499  -34.8119   21.1534 C   0  0  0  0  0  0  0  0  0  0  0  0
  -22.9787  -34.0803   22.7503 C   0  0  0  0  0  0  0  0  0  0  0  0
  -25.6130  -23.4714   18.1256 C   0  0  0  0  0  0  0  0  0  0  0  0
  -28.9038  -32.7411   25.9081 C   0  0  0  0  0  0  0  0  0  0  0  0
  -26.8391  -20.6333   17.4377 C   0  0  0  0  0  0  0  0  0  0  0  0
  -30.6938  -26.2144   18.2558 C   0  0  0  0  0  0  0  0  0  0  0  0
  -31.0461  -24.8556   17.6464 C   0  0  0  0  0  0  0  0  0  0  0  0
  -30.1105  -26.1135   19.6604 C   0  0  0  0  0  0  0  0  0  1  0  0
  -27.3589  -21.7490   18.3919 C   0  0  2  0  0  0  0  0  0  0  0  0
  -25.1497  -32.7901   22.6310 C   0  0  1  0  0  0  0  0  0  0  0  0
  -27.5168  -34.5975   24.9761 C   0  0  2  0  0  0  0  0  0  0  0  0
  -24.0925  -33.5773   21.8063 C   0  0  0  0  0  0  0  0  0  0  0  0
  -26.6978  -17.1711   20.8501 N   0  0  0  0  0  0  0  0  0  0  0  0
  -28.2956  -22.9508   16.4266 N   0  0  0  0  0  0  0  0  0  0  0  0
  -29.2904  -23.2725   18.4352 N   0  0  0  0  0  0  0  0  0  0  0  0
  -29.2954  -23.7995   16.2225 N   0  0  0  0  0  0  0  0  0  0  0  0
  -27.8531  -17.8575   20.8348 N   0  0  0  0  0  0  0  0  0  0  0  0
  -29.8528  -23.9594   17.4309 N   0  0  0  0  0  0  0  0  0  0  0  0
  -25.1489  -30.3308   22.9059 N   0  0  0  0  0  0  0  0  0  0  0  0
  -26.5080  -21.4307   21.1207 N   0  0  0  0  0  0  0  0  0  0  0  0
  -30.1753  -17.6379   20.4230 N   0  0  0  0  0  0  0  0  0  0  0  0
  -28.5872  -13.4760   19.6798 N   0  0  0  0  0  0  0  0  0  0  0  0
  -22.4670  -27.9936   22.6307 N   0  0  0  0  0  0  0  0  0  0  0  0
  -25.7651  -33.5618   23.7054 N   0  0  0  0  0  0  0  0  0  0  0  0
  -26.2243  -22.4605   18.9766 N   0  0  0  0  0  0  0  0  0  0  0  0
  -28.8447  -34.1679   25.4987 N   0  3  0  0  0  0  0  0  0  0  0  0
  -30.4815  -14.7680   19.7112 O   0  0  0  0  0  0  0  0  0  0  0  0
  -23.9409  -28.8712   21.0559 O   0  0  0  0  0  0  0  0  0  0  0  0
  -23.6476  -31.6694   24.0850 O   0  0  0  0  0  0  0  0  0  0  0  0
  -27.9506  -33.3287   22.9663 O   0  0  0  0  0  0  0  0  0  0  0  0
  -25.0777  -23.2157   20.8280 O   0  0  0  0  0  0  0  0  0  0  0  0
  -23.2758  -11.8518   20.1125 O   0  0  0  0  0  0  0  0  0  0  0  0
  -29.8372  -27.4299   20.1387 O   0  0  0  0  0  0  0  0  0  1  0  0
  -24.5278   -6.9698   22.3492 F   0  0  0  0  0  0  0  0  0  0  0  0
  -25.4786  -10.4202   19.2515 F   0  0  0  0  0  0  0  0  0  0  0  0
  1  2  1  0  0  0  0
  1  5  2  0  0  0  0
  2  6  2  0  0  0  0
  3  8  2  0  0  0  0
  3 15  1  0  0  0  0
  4  9  1  0  0  0  0
  4 15  2  0  0  0  0
  5 17  1  0  0  0  0
  6 19  1  0  0  0  0
  7 10  2  0  0  0  0
  7 18  1  0  0  0  0
  8 21  1  0  0  0  0
  9 21  2  0  0  0  0
 10 22  1  0  0  0  0
 11 12  2  0  0  0  0
 11 23  1  0  0  0  0
 12 24  1  0  0  0  0
 13 20  1  0  0  0  0
 13 22  2  0  0  0  0
 14 24  2  0  0  0  0
 14 25  1  0  0  0  0
 15 26  1  0  0  0  0
 16 26  1  0  0  0  0
 16 27  2  0  0  0  0
 16 29  1  0  0  0  0
 17 19  2  0  0  0  0
 17 34  1  0  0  0  0
 18 20  2  0  0  0  0
 18 35  1  0  0  0  0
 19 43  1  0  0  0  0
 20 36  1  0  0  0  0
 21 80  1  0  0  0  0
 22 81  1  0  0  0  0
 23 25  2  0  0  0  0
 23 80  1  0  0  0  0
 24 82  1  0  0  0  0
 25 83  1  0  0  0  0
 26 61  2  0  0  0  0
 27 65  1  0  0  0  0
 27 69  1  0  0  0  0
 28 57  1  0  0  0  0
 28 62  1  0  0  0  0
 28 63  2  0  0  0  0
 29 70  1  0  0  0  0
 29 75  2  0  0  0  0
 30 44  1  0  0  0  0
 30 71  1  0  0  0  0
 30 76  2  0  0  0  0
 31 58  1  0  0  0  0
 31 67  1  0  0  0  0
 31 77  2  0  0  0  0
 32 59  1  0  0  0  0
 32 72  1  0  0  0  0
 32 78  2  0  0  0  0
 33 68  1  0  0  0  0
 33 73  1  0  0  0  0
 33 79  2  0  0  0  0
 34 37  1  0  0  0  0
 35 44  1  0  0  0  0
 36 67  1  0  0  0  0
 37 39  1  0  0  0  0
 38 40  1  0  0  0  0
 38 41  1  0  0  0  0
 39 43  1  0  0  0  0
 40 45  1  0  0  0  0
 41 68  1  0  0  0  0
 42 45  1  0  0  0  0
 42 68  1  0  0  0  0
 43 71  1  0  0  0  0
 44 67  1  0  0  0  0
 45 65  1  0  0  0  0
 46 53  1  0  0  0  0
 47 59  1  0  0  0  0
 48 60  1  0  0  0  0
 49 60  1  0  0  0  0
 50 60  1  0  0  0  0
 51 73  1  0  0  0  0
 52 74  1  0  0  0  0
 53 57  1  0  0  0  0
 54 55  1  0  0  0  0
 54 56  1  0  0  0  0
 55 66  1  0  0  0  0
 56 81  1  0  0  0  0
 57 73  1  0  0  0  0
 58 60  1  0  0  0  0
 58 72  1  0  0  0  0
 59 74  1  0  0  0  0
 61 65  1  0  0  0  0
 62 64  2  0  0  0  0
 63 66  1  0  0  0  0
 64 66  1  0  0  0  0
M  CHG  1  74   1
M  ISO  4  33 100  56 101  73 100  81 101
M  END
> <Batch ID>
0058

> <Smiles>
CCC(c1nnn(CC[101CH2:1][101O:1]c2ccc3c(c2)CN(C(=O)C(NC(=O)C(C)NC)C(C)(C)C)C(C(=O)NC2CCCc4ccccc42)C3)n1)[100N:0](C)[100C:0](=O)N1CCCC(n2nc(-c3ccc(Oc4ccc(F)cc4F)cc3)c(C(N)=O)c2N)C1

> <Shape>
0.287

> <Color>
0.085

> <Negative vol penalty>
0.000

$$$$

  -OEChem-04052317503D

 85 93  0     1  0  0  0  0  0999 V2000
  -29.9101  -12.2452   19.7808 C   0  0  0  0  0  0  0  0  0  0  0  0
  -29.9561  -13.6302   19.9031 C   0  0  0  0  0  0  0  0  0  0  0  0
  -27.3376  -26.6159   19.0930 C   0  0  0  0  0  0  0  0  0  0  0  0
  -28.5429  -27.7244   20.8694 C   0  0  0  0  0  0  0  0  0  0  0  0
  -28.7103  -11.6149   19.4536 C   0  0  0  0  0  0  0  0  0  0  0  0
  -28.8024  -14.3859   19.6971 C   0  0  0  0  0  0  0  0  0  0  0  0
  -25.5729  -20.3710   21.9477 C   0  0  0  0  0  0  0  0  0  0  0  0
  -28.4128  -25.7475   18.9053 C   0  0  0  0  0  0  0  0  0  0  0  0
  -29.6182  -26.8560   20.6817 C   0  0  0  0  0  0  0  0  0  0  0  0
  -25.0037  -21.5412   21.4473 C   0  0  0  0  0  0  0  0  0  0  0  0
  -29.6687  -22.9808   20.3889 C   0  0  0  0  0  0  0  0  0  0  0  0
  -29.3870  -21.6227   20.2419 C   0  0  0  0  0  0  0  0  0  0  0  0
  -22.9696  -20.3378   20.9641 C   0  0  0  0  0  0  0  0  0  0  0  0
  -30.4137  -21.6466   18.0550 C   0  0  0  0  0  0  0  0  0  0  0  0
  -27.4026  -27.6044   20.0750 C   0  0  0  0  0  0  0  0  0  0  0  0
  -25.7426  -29.3905   19.3255 C   0  0  0  0  0  0  0  0  0  0  0  0
  -27.5392  -12.3624   19.2529 C   0  0  0  0  0  0  0  0  0  0  0  0
  -24.8474  -19.1710   21.9501 C   0  0  0  0  0  0  0  0  0  0  0  0
  -27.5861  -13.7651   19.3655 C   0  0  0  0  0  0  0  0  0  0  0  0
  -23.5310  -19.1543   21.4675 C   0  0  0  0  0  0  0  0  0  0  0  0
  -29.5531  -25.8675   19.6996 C   0  0  0  0  0  0  0  0  0  0  0  0
  -23.7028  -21.5240   20.9527 C   0  0  0  0  0  0  0  0  0  0  0  0
  -30.3228  -23.6719   19.3690 C   0  0  0  0  0  0  0  0  0  0  0  0
  -29.7595  -20.9555   19.0749 C   0  0  0  0  0  0  0  0  0  0  0  0
  -30.6954  -23.0048   18.2021 C   0  0  0  0  0  0  0  0  0  0  0  0
  -26.2924  -28.5022   20.2691 C   0  0  0  0  0  0  0  0  0  0  0  0
  -21.2388  -28.0214   20.3489 C   0  0  0  0  0  0  0  0  0  0  0  0
  -21.6966  -27.2918   21.4207 C   0  0  0  0  0  0  0  0  0  0  0  0
  -24.7164  -30.0109   19.9953 C   0  0  0  0  0  0  0  0  0  0  0  0
  -20.0249  -28.6075   21.9961 C   0  0  0  0  0  0  0  0  0  0  0  0
  -26.1252  -29.6332   17.9652 C   0  0  0  0  0  0  0  0  0  0  0  0
  -25.2162  -16.3241   20.5851 C   0  0  0  0  0  0  0  0  0  0  0  0
  -21.4151  -28.3265   24.7256 C   0  0  0  0  0  0  0  0  0  0  0  0
  -22.6407  -15.5536   22.4006 C   0  0  0  0  0  0  0  0  0  0  0  0
  -19.8634  -16.6037   24.0830 C   0  0  0  0  0  0  0  0  0  0  0  0
  -26.2765  -11.6403   18.8544 C   0  0  0  0  0  0  0  0  0  0  0  0
  -25.4664  -17.9233   22.5180 C   0  0  0  0  0  0  0  0  0  0  0  0
  -22.7027  -17.8964   21.4663 C   0  0  0  0  0  0  0  0  0  0  0  0
  -25.0146  -12.4833   19.0202 C   0  0  0  0  0  0  0  0  0  0  0  0
  -23.3494  -31.3230   24.3802 C   0  0  0  0  0  0  0  0  0  0  0  0
  -25.2246  -13.8784   18.4402 C   0  0  0  0  0  0  0  0  0  0  0  0
  -24.2927  -31.0096   23.2196 C   0  0  0  0  0  0  0  0  0  0  0  0
  -23.0786  -30.0852   25.2296 C   0  0  0  0  0  0  0  0  0  0  0  0
  -23.4992  -28.6034   23.2934 C   0  0  0  0  0  0  0  0  0  0  0  0
  -26.3503  -14.6172   19.1741 C   0  0  1  0  0  0  0  0  0  0  0  0
  -24.8174  -16.6443   21.9979 C   0  0  1  0  0  0  0  0  0  0  0  0
  -23.7747  -29.8199   22.3921 C   0  0  2  0  0  0  0  0  0  0  0  0
  -19.0118  -29.2431   22.8637 C   0  0  0  0  0  0  0  0  0  0  0  0
  -20.8106  -27.2179   18.0127 C   0  0  0  0  0  0  0  0  0  0  0  0
  -17.9357  -15.7384   25.4367 C   0  0  0  0  0  0  0  0  0  0  0  0
  -18.9756  -25.7375   23.2424 C   0  0  0  0  0  0  0  0  0  0  0  0
  -19.9766  -25.5820   25.5194 C   0  0  0  0  0  0  0  0  0  0  0  0
  -21.2910  -14.5718   19.8463 C   0  0  0  0  0  0  0  0  0  0  0  0
  -19.1050  -14.6197   21.0660 C   0  0  0  0  0  0  0  0  0  0  0  0
  -20.9324  -13.1103   21.8438 C   0  0  0  0  0  0  0  0  0  0  0  0
  -20.6874  -18.1569   26.4636 C   0  0  0  0  0  0  0  0  0  0  0  0
  -21.7232  -28.0083   18.9594 C   0  0  0  0  0  0  0  0  0  0  0  0
  -22.7995  -26.2712   21.5454 C   0  0  0  0  0  0  0  0  0  0  0  0
  -22.4348  -24.8978   20.9778 C   0  0  0  0  0  0  0  0  0  0  0  0
  -23.5842  -23.8980   21.0307 C   0  0  0  0  0  0  0  0  0  1  0  0
  -20.9957  -27.1908   23.8266 C   0  0  1  0  0  0  0  0  0  0  0  0
  -21.1442  -15.6031   22.2087 C   0  0  1  0  0  0  0  0  0  0  0  0
  -19.3521  -16.2906   25.4776 C   0  0  2  0  0  0  0  0  0  0  0  0
  -19.6910  -26.5297   24.3451 C   0  0  0  0  0  0  0  0  0  0  0  0
  -20.6342  -14.4997   21.2393 C   0  0  0  0  0  0  0  0  0  0  0  0
  -25.6674  -28.5509   21.4485 N   0  0  0  0  0  0  0  0  0  0  0  0
  -20.1984  -28.8387   20.7137 N   0  0  0  0  0  0  0  0  0  0  0  0
  -20.9096  -27.6784   22.4687 N   0  0  0  0  0  0  0  0  0  0  0  0
  -24.7143  -29.4774   21.2505 N   0  0  0  0  0  0  0  0  0  0  0  0
  -23.3544  -16.7010   22.0263 N   0  0  0  0  0  0  0  0  0  0  0  0
  -22.6097  -28.9710   24.4039 N   0  0  0  0  0  0  0  0  0  0  0  0
  -23.8247  -30.9552   19.6271 N   0  0  0  0  0  0  0  0  0  0  0  0
  -25.5267  -28.8668   16.9559 N   0  0  0  0  0  0  0  0  0  0  0  0
  -25.8792  -15.1197   20.4469 N   0  0  0  0  0  0  0  0  0  0  0  0
  -20.5593  -15.5424   23.5439 N   0  0  0  0  0  0  0  0  0  0  0  0
  -19.3526  -17.5213   26.3180 N   0  3  0  0  0  0  0  0  0  0  0  0
  -26.9848  -30.4927   17.6554 O   0  0  0  0  0  0  0  0  0  0  0  0
  -24.9412  -17.1109   19.6867 O   0  0  0  0  0  0  0  0  0  0  0  0
  -20.6995  -28.6322   25.6830 O   0  0  0  0  0  0  0  0  0  0  0  0
  -23.1567  -14.5372   22.8720 O   0  0  0  0  0  0  0  0  0  0  0  0
  -19.6622  -17.6807   23.5260 O   0  0  0  0  0  0  0  0  0  0  0  0
  -30.6025  -25.0201   19.5169 O   0  0  0  0  0  0  0  0  0  0  0  0
  -23.1450  -22.6646   20.4630 O   0  0  0  0  0  0  0  0  0  1  0  0
  -29.4904  -19.6509   18.9345 F   0  0  0  0  0  0  0  0  0  0  0  0
  -31.3251  -23.6631   17.2193 F   0  0  0  0  0  0  0  0  0  0  0  0
  1  2  1  0  0  0  0
  1  5  2  0  0  0  0
  2  6  2  0  0  0  0
  3  8  2  0  0  0  0
  3 15  1  0  0  0  0
  4  9  1  0  0  0  0
  4 15  2  0  0  0  0
  5 17  1  0  0  0  0
  6 19  1  0  0  0  0
  7 10  2  0  0  0  0
  7 18  1  0  0  0  0
  8 21  1  0  0  0  0
  9 21  2  0  0  0  0
 10 22  1  0  0  0  0
 11 12  2  0  0  0  0
 11 23  1  0  0  0  0
 12 24  1  0  0  0  0
 13 20  1  0  0  0  0
 13 22  2  0  0  0  0
 14 24  2  0  0  0  0
 14 25  1  0  0  0  0
 15 26  1  0  0  0  0
 16 26  1  0  0  0  0
 16 29  2  0  0  0  0
 16 31  1  0  0  0  0
 17 19  2  0  0  0  0
 17 36  1  0  0  0  0
 18 20  2  0  0  0  0
 18 37  1  0  0  0  0
 19 45  1  0  0  0  0
 20 38  1  0  0  0  0
 21 82  1  0  0  0  0
 22 83  1  0  0  0  0
 23 25  2  0  0  0  0
 23 82  1  0  0  0  0
 24 84  1  0  0  0  0
 25 85  1  0  0  0  0
 26 66  2  0  0  0  0
 27 28  2  0  0  0  0
 27 57  1  0  0  0  0
 27 67  1  0  0  0  0
 28 58  1  0  0  0  0
 28 68  1  0  0  0  0
 29 69  1  0  0  0  0
 29 72  1  0  0  0  0
 30 48  1  0  0  0  0
 30 67  2  0  0  0  0
 30 68  1  0  0  0  0
 31 73  1  0  0  0  0
 31 77  2  0  0  0  0
 32 46  1  0  0  0  0
 32 74  1  0  0  0  0
 32 78  2  0  0  0  0
 33 61  1  0  0  0  0
 33 71  1  0  0  0  0
 33 79  2  0  0  0  0
 34 62  1  0  0  0  0
 34 70  1  0  0  0  0
 34 80  2  0  0  0  0
 35 63  1  0  0  0  0
 35 75  1  0  0  0  0
 35 81  2  0  0  0  0
 36 39  1  0  0  0  0
 37 46  1  0  0  0  0
 38 70  1  0  0  0  0
 39 41  1  0  0  0  0
 40 42  1  0  0  0  0
 40 43  1  0  0  0  0
 41 45  1  0  0  0  0
 42 47  1  0  0  0  0
 43 71  1  0  0  0  0
 44 47  1  0  0  0  0
 44 71  1  0  0  0  0
 45 74  1  0  0  0  0
 46 70  1  0  0  0  0
 47 69  1  0  0  0  0
 49 57  1  0  0  0  0
 50 63  1  0  0  0  0
 51 64  1  0  0  0  0
 52 64  1  0  0  0  0
 53 65  1  0  0  0  0
 54 65  1  0  0  0  0
 55 65  1  0  0  0  0
 56 76  1  0  0  0  0
 58 59  1  0  0  0  0
 59 60  1  0  0  0  0
 60 83  1  0  0  0  0
 61 64  1  0  0  0  0
 61 68  1  0  0  0  0
 62 65  1  0  0  0  0
 62 75  1  0  0  0  0
 63 76  1  0  0  0  0
 66 69  1  0  0  0  0
M  CHG  1  76   1
M  ISO  4  33 100  60 101  61 100  83 101
M  END
> <Batch ID>
0058

> <Smiles>
CCc1nc(C)n([100CH:0](C(C)C)[100C:0](=O)N2CCCC(n3nc(-c4ccc(Oc5ccc(F)cc5F)cc4)c(C(N)=O)c3N)C2)c1CC[101CH2:1][101O:1]c1ccc2c(c1)CN(C(=O)C(NC(=O)C(C)NC)C(C)(C)C)C(C(=O)NC1CCCc3ccccc31)C2

> <Shape>
0.233

> <Color>
0.056

> <Negative vol penalty>
0.000

$$$$

  -OEChem-04052317503D

 83 91  0     1  0  0  0  0  0999 V2000
  -39.1480  -28.9515   16.5237 C   0  0  0  0  0  0  0  0  0  0  0  0
  -38.9493  -27.5899   16.3184 C   0  0  0  0  0  0  0  0  0  0  0  0
  -23.0518  -10.0582   19.8387 C   0  0  0  0  0  0  0  0  0  0  0  0
  -23.8593   -9.8049   22.1016 C   0  0  0  0  0  0  0  0  0  0  0  0
  -38.4434  -29.6139   17.5280 C   0  0  0  0  0  0  0  0  0  0  0  0
  -38.0467  -26.8898   17.1180 C   0  0  0  0  0  0  0  0  0  0  0  0
  -34.4702  -22.2202   15.4121 C   0  0  0  0  0  0  0  0  0  0  0  0
  -22.2895   -8.8988   19.9809 C   0  0  0  0  0  0  0  0  0  0  0  0
  -23.0970   -8.6455   22.2438 C   0  0  0  0  0  0  0  0  0  0  0  0
  -34.6019  -20.8390   15.5494 C   0  0  0  0  0  0  0  0  0  0  0  0
  -19.3562   -8.0056   21.4059 C   0  0  0  0  0  0  0  0  0  0  0  0
  -18.0388   -8.0358   20.9486 C   0  0  0  0  0  0  0  0  0  0  0  0
  -33.2439  -20.9137   17.5418 C   0  0  0  0  0  0  0  0  0  0  0  0
  -18.5303   -6.2360   19.4137 C   0  0  0  0  0  0  0  0  0  0  0  0
  -30.5978  -17.2986   17.9709 C   0  0  0  0  0  0  0  0  0  0  0  0
  -23.8368  -10.5113   20.8990 C   0  0  0  0  0  0  0  0  0  0  0  0
  -24.2285  -13.0280   21.0419 C   0  0  0  0  0  0  0  0  0  0  0  0
  -37.5245  -28.9235   18.3341 C   0  0  0  0  0  0  0  0  0  0  0  0
  -33.7322  -22.9612   16.3463 C   0  0  0  0  0  0  0  0  0  0  0  0
  -37.3301  -27.5433   18.1350 C   0  0  0  0  0  0  0  0  0  0  0  0
  -33.1023  -22.3038   17.4127 C   0  0  0  0  0  0  0  0  0  0  0  0
  -22.3120   -8.1925   21.1834 C   0  0  0  0  0  0  0  0  0  0  0  0
  -33.9911  -20.1860   16.6159 C   0  0  0  0  0  0  0  0  0  0  0  0
  -20.2607   -7.0905   20.8670 C   0  0  0  0  0  0  0  0  0  0  0  0
  -17.6258   -7.1510   19.9525 C   0  0  0  0  0  0  0  0  0  0  0  0
  -19.8477   -6.2057   19.8709 C   0  0  0  0  0  0  0  0  0  0  0  0
  -24.6250  -11.7085   20.7525 C   0  0  0  0  0  0  0  0  0  0  0  0
  -25.3282  -13.7918   20.7359 C   0  0  0  0  0  0  0  0  0  0  0  0
  -32.6689  -17.9852   18.4960 C   0  0  0  0  0  0  0  0  0  0  0  0
  -31.0987  -17.8334   20.0923 C   0  0  0  0  0  0  0  0  0  0  0  0
  -22.9781  -13.5192   21.5426 C   0  0  0  0  0  0  0  0  0  0  0  0
  -34.4067  -25.2982   18.3926 C   0  0  0  0  0  0  0  0  0  0  0  0
  -31.1967  -25.2877   18.8595 C   0  0  0  0  0  0  0  0  0  0  0  0
  -28.2530  -23.5676   18.7107 C   0  0  0  0  0  0  0  0  0  0  0  0
  -30.8347  -14.6834   20.9063 C   0  0  0  0  0  0  0  0  0  0  0  0
  -36.8212  -29.6725   19.4381 C   0  0  0  0  0  0  0  0  0  0  0  0
  -33.5775  -24.4468   16.1692 C   0  0  0  0  0  0  0  0  0  0  0  0
  -32.2821  -23.0508   18.4314 C   0  0  0  0  0  0  0  0  0  0  0  0
  -35.6060  -28.9359   19.9958 C   0  0  0  0  0  0  0  0  0  0  0  0
  -29.5983  -12.5904   18.3049 C   0  0  0  0  0  0  0  0  0  0  0  0
  -35.9443  -27.4724   20.2610 C   0  0  0  0  0  0  0  0  0  0  0  0
  -28.1644  -12.2784   18.7368 C   0  0  0  0  0  0  0  0  0  0  0  0
  -30.5446  -12.6640   19.5012 C   0  0  0  0  0  0  0  0  0  0  0  0
  -28.6878  -13.2769   21.0013 C   0  0  0  0  0  0  0  0  0  0  0  0
  -36.3412  -26.7544   18.9655 C   0  0  1  0  0  0  0  0  0  0  0  0
  -33.2303  -25.1703   17.4666 C   0  0  1  0  0  0  0  0  0  0  0  0
  -27.6859  -13.2478   19.8344 C   0  0  2  0  0  0  0  0  0  0  0  0
  -34.9991  -17.0970   18.1426 C   0  0  0  0  0  0  0  0  0  0  0  0
  -25.8025  -23.8111   19.1938 C   0  0  0  0  0  0  0  0  0  0  0  0
  -29.1804  -18.3429   21.7526 C   0  0  0  0  0  0  0  0  0  0  0  0
  -31.4869  -19.1409   22.1988 C   0  0  0  0  0  0  0  0  0  0  0  0
  -31.7577  -24.9878   21.8437 C   0  0  0  0  0  0  0  0  0  0  0  0
  -29.3726  -24.2913   22.1511 C   0  0  0  0  0  0  0  0  0  0  0  0
  -29.9031  -26.5696   21.2847 C   0  0  0  0  0  0  0  0  0  0  0  0
  -27.5301  -23.1035   15.8786 C   0  0  0  0  0  0  0  0  0  0  0  0
  -30.9711  -16.6871   22.3642 C   0  0  0  0  0  0  0  0  0  0  0  0
  -34.0843  -18.3136   18.0794 C   0  0  1  0  0  0  0  0  0  1  0  0
  -30.2539  -24.5620   19.7886 C   0  0  1  0  0  0  0  0  0  0  0  0
  -26.8952  -23.9418   18.1442 C   0  0  2  0  0  0  0  0  0  0  0  0
  -30.6887  -17.9807   21.5181 C   0  0  0  0  0  0  0  0  0  0  0  0
  -30.3388  -25.0886   21.2491 C   0  0  0  0  0  0  0  0  0  0  0  0
  -31.8364  -17.5693   17.5281 N   0  0  0  0  0  0  0  0  0  0  0  0
  -30.1575  -17.4069   19.2349 N   0  0  0  0  0  0  0  0  0  0  0  0
  -25.8786  -11.6348   20.2975 N   0  0  0  0  0  0  0  0  0  0  0  0
  -32.3717  -18.1410   19.7961 N   0  0  0  0  0  0  0  0  0  0  0  0
  -26.2793  -12.9176   20.2985 N   0  0  0  0  0  0  0  0  0  0  0  0
  -32.1657  -24.5029   18.2185 N   0  0  0  0  0  0  0  0  0  0  0  0
  -30.0342  -13.6014   20.5044 N   0  0  0  0  0  0  0  0  0  0  0  0
  -25.5647  -15.1193   20.8009 N   0  0  0  0  0  0  0  0  0  0  0  0
  -21.9547  -12.5978   21.8039 N   0  0  0  0  0  0  0  0  0  0  0  0
  -35.1656  -26.4341   18.1846 N   0  0  0  0  0  0  0  0  0  0  0  0
  -28.9276  -24.6702   19.1906 N   0  0  0  0  0  0  0  0  0  0  0  0
  -30.2727  -15.5273   21.8563 N   0  0  0  0  0  0  0  0  0  0  0  0
  -26.5515  -23.0568   16.9954 N   0  3  0  0  0  0  0  0  0  0  0  0
  -22.7687  -14.7406   21.7367 O   0  0  0  0  0  0  0  0  0  0  0  0
  -34.6100  -24.4312   19.2345 O   0  0  0  0  0  0  0  0  0  0  0  0
  -31.0733  -26.5050   18.7026 O   0  0  0  0  0  0  0  0  0  0  0  0
  -28.6715  -22.4122   18.7293 O   0  0  0  0  0  0  0  0  0  0  0  0
  -31.9644  -14.8856   20.4481 O   0  0  0  0  0  0  0  0  0  0  0  0
  -21.5681   -7.0612   21.3226 O   0  0  0  0  0  0  0  0  0  0  0  0
  -34.1185  -18.8380   16.7526 O   0  0  0  0  0  0  0  0  0  1  0  0
  -16.3603   -7.1791   19.5146 F   0  0  0  0  0  0  0  0  0  0  0  0
  -20.7118   -5.3237   19.3503 F   0  0  0  0  0  0  0  0  0  0  0  0
  1  2  1  0  0  0  0
  1  5  2  0  0  0  0
  2  6  2  0  0  0  0
  3  8  2  0  0  0  0
  3 16  1  0  0  0  0
  4  9  1  0  0  0  0
  4 16  2  0  0  0  0
  5 18  1  0  0  0  0
  6 20  1  0  0  0  0
  7 10  2  0  0  0  0
  7 19  1  0  0  0  0
  8 22  1  0  0  0  0
  9 22  2  0  0  0  0
 10 23  1  0  0  0  0
 11 12  2  0  0  0  0
 11 24  1  0  0  0  0
 12 25  1  0  0  0  0
 13 21  1  0  0  0  0
 13 23  2  0  0  0  0
 14 25  2  0  0  0  0
 14 26  1  0  0  0  0
 15 62  2  0  0  0  0
 15 63  1  0  0  0  0
 16 27  1  0  0  0  0
 17 27  1  0  0  0  0
 17 28  2  0  0  0  0
 17 31  1  0  0  0  0
 18 20  2  0  0  0  0
 18 36  1  0  0  0  0
 19 21  2  0  0  0  0
 19 37  1  0  0  0  0
 20 45  1  0  0  0  0
 21 38  1  0  0  0  0
 22 80  1  0  0  0  0
 23 81  1  0  0  0  0
 24 26  2  0  0  0  0
 24 80  1  0  0  0  0
 25 82  1  0  0  0  0
 26 83  1  0  0  0  0
 27 64  2  0  0  0  0
 28 66  1  0  0  0  0
 28 69  1  0  0  0  0
 29 57  1  0  0  0  0
 29 62  1  0  0  0  0
 29 65  2  0  0  0  0
 30 60  1  0  0  0  0
 30 63  2  0  0  0  0
 30 65  1  0  0  0  0
 31 70  1  0  0  0  0
 31 75  2  0  0  0  0
 32 46  1  0  0  0  0
 32 71  1  0  0  0  0
 32 76  2  0  0  0  0
 33 58  1  0  0  0  0
 33 67  1  0  0  0  0
 33 77  2  0  0  0  0
 34 59  1  0  0  0  0
 34 72  1  0  0  0  0
 34 78  2  0  0  0  0
 35 68  1  0  0  0  0
 35 73  1  0  0  0  0
 35 79  2  0  0  0  0
 36 39  1  0  0  0  0
 37 46  1  0  0  0  0
 38 67  1  0  0  0  0
 39 41  1  0  0  0  0
 40 42  1  0  0  0  0
 40 43  1  0  0  0  0
 41 45  1  0  0  0  0
 42 47  1  0  0  0  0
 43 68  1  0  0  0  0
 44 47  1  0  0  0  0
 44 68  1  0  0  0  0
 45 71  1  0  0  0  0
 46 67  1  0  0  0  0
 47 66  1  0  0  0  0
 48 57  1  0  0  0  0
 49 59  1  0  0  0  0
 50 60  1  0  0  0  0
 51 60  1  0  0  0  0
 52 61  1  0  0  0  0
 53 61  1  0  0  0  0
 54 61  1  0  0  0  0
 55 74  1  0  0  0  0
 56 60  1  0  0  0  0
 56 73  1  0  0  0  0
 57 81  1  0  0  0  0
 58 61  1  0  0  0  0
 58 72  1  0  0  0  0
 59 74  1  0  0  0  0
 64 66  1  0  0  0  0
M  CHG  1  74   1
M  ISO  4  35 100  57 101  73 100  81 101
M  END
> <Batch ID>
0058

> <Smiles>
CNC(C)C(=O)NC(C(=O)N1Cc2cc([101O:1][101CH:1](C)c3ncnc(C(C)(C)C[100NH:0][100C:0](=O)N4CCCC(n5nc(-c6ccc(Oc7ccc(F)cc7F)cc6)c(C(N)=O)c5N)C4)n3)ccc2CC1C(=O)NC1CCCc2ccccc21)C(C)(C)C

> <Shape>
0.210

> <Color>
0.201

> <Negative vol penalty>
0.000

$$$$

  -OEChem-04052317503D

 82 90  0     1  0  0  0  0  0999 V2000
  -32.4921  -12.8484   21.4542 C   0  0  0  0  0  0  0  0  0  0  0  0
  -32.0655  -14.1573   21.6552 C   0  0  0  0  0  0  0  0  0  0  0  0
  -29.8595  -23.6815   18.8633 C   0  0  0  0  0  0  0  0  0  0  0  0
  -28.7436  -23.6347   21.0057 C   0  0  0  0  0  0  0  0  0  0  0  0
  -31.7067  -11.9665   20.7130 C   0  0  0  0  0  0  0  0  0  0  0  0
  -30.8538  -14.5853   21.1141 C   0  0  0  0  0  0  0  0  0  0  0  0
  -25.4007  -19.0325   22.4572 C   0  0  0  0  0  0  0  0  0  0  0  0
  -29.8912  -22.2871   18.8494 C   0  0  0  0  0  0  0  0  0  0  0  0
  -28.7753  -22.2402   20.9917 C   0  0  0  0  0  0  0  0  0  0  0  0
  -24.6757  -20.0601   21.8555 C   0  0  0  0  0  0  0  0  0  0  0  0
  -27.7529  -19.7534   18.1855 C   0  0  0  0  0  0  0  0  0  0  0  0
  -27.3946  -19.1087   17.0016 C   0  0  0  0  0  0  0  0  0  0  0  0
  -23.3643  -18.4264   20.6595 C   0  0  0  0  0  0  0  0  0  0  0  0
  -29.5820  -18.0882   16.8953 C   0  0  0  0  0  0  0  0  0  0  0  0
  -23.6101  -27.3048   17.5404 C   0  0  0  0  0  0  0  0  0  0  0  0
  -29.2857  -24.3553   19.9415 C   0  0  0  0  0  0  0  0  0  0  0  0
  -30.3547  -26.6714   19.9177 C   0  0  0  0  0  0  0  0  0  0  0  0
  -30.4800  -12.3812   20.1708 C   0  0  0  0  0  0  0  0  0  0  0  0
  -25.1198  -17.6921   22.1558 C   0  0  0  0  0  0  0  0  0  0  0  0
  -30.0518  -13.7085   20.3638 C   0  0  0  0  0  0  0  0  0  0  0  0
  -24.0856  -17.3835   21.2607 C   0  0  0  0  0  0  0  0  0  0  0  0
  -29.3491  -21.5665   19.9135 C   0  0  0  0  0  0  0  0  0  0  0  0
  -23.6592  -19.7572   20.9543 C   0  0  0  0  0  0  0  0  0  0  0  0
  -29.0258  -19.5656   18.7243 C   0  0  0  0  0  0  0  0  0  0  0  0
  -28.3091  -18.2761   16.3565 C   0  0  0  0  0  0  0  0  0  0  0  0
  -29.9403  -18.7330   18.0792 C   0  0  0  0  0  0  0  0  0  0  0  0
  -29.2531  -25.7957   19.9568 C   0  0  0  0  0  0  0  0  0  0  0  0
  -23.8429  -26.0302   17.0886 C   0  0  0  0  0  0  0  0  0  0  0  0
  -29.7973  -27.9262   19.9537 C   0  0  0  0  0  0  0  0  0  0  0  0
  -31.7565  -26.3769   19.8543 C   0  0  0  0  0  0  0  0  0  0  0  0
  -26.7513  -15.2972   20.8496 C   0  0  0  0  0  0  0  0  0  0  0  0
  -24.1209  -13.5797   21.6579 C   0  0  0  0  0  0  0  0  0  0  0  0
  -24.3679  -29.9522   18.3634 C   0  0  0  0  0  0  0  0  0  0  0  0
  -20.7826  -13.5539   22.3661 C   0  0  0  0  0  0  0  0  0  0  0  0
  -29.6881  -11.4056   19.3368 C   0  0  0  0  0  0  0  0  0  0  0  0
  -25.8933  -16.5945   22.8337 C   0  0  0  0  0  0  0  0  0  0  0  0
  -23.7311  -15.9602   20.9187 C   0  0  0  0  0  0  0  0  0  0  0  0
  -28.2390  -11.8308   19.1139 C   0  0  0  0  0  0  0  0  0  0  0  0
  -25.9640  -30.2846   21.5543 C   0  0  0  0  0  0  0  0  0  0  0  0
  -28.1700  -13.2999   18.7093 C   0  0  0  0  0  0  0  0  0  0  0  0
  -27.0704  -29.2313   21.5138 C   0  0  0  0  0  0  0  0  0  0  0  0
  -24.7193  -29.8160   20.8072 C   0  0  0  0  0  0  0  0  0  0  0  0
  -26.0834  -28.3538   19.3502 C   0  0  0  0  0  0  0  0  0  0  0  0
  -28.7316  -14.2032   19.8139 C   0  0  1  0  0  0  0  0  0  0  0  0
  -25.8642  -15.2787   22.0622 C   0  0  1  0  0  0  0  0  0  0  0  0
  -27.3700  -28.7997   20.0672 C   0  0  2  0  0  0  0  0  0  0  0  0
  -18.9050  -11.9952   22.9516 C   0  0  0  0  0  0  0  0  0  0  0  0
  -23.9047  -30.2008   15.9455 C   0  0  0  0  0  0  0  0  0  0  0  0
  -26.2299  -29.9109   16.8021 C   0  0  0  0  0  0  0  0  0  0  0  0
  -23.9848  -12.6564   18.7529 C   0  0  0  0  0  0  0  0  0  0  0  0
  -21.6312  -11.9129   19.1723 C   0  0  0  0  0  0  0  0  0  0  0  0
  -23.5110  -10.8706   20.4384 C   0  0  0  0  0  0  0  0  0  0  0  0
  -20.3200  -14.8997   24.9611 C   0  0  0  0  0  0  0  0  0  0  0  0
  -23.1235  -24.7523   17.4396 C   0  0  0  0  0  0  0  0  0  0  0  0
  -23.7247  -24.0129   18.6401 C   0  0  0  0  0  0  0  0  0  0  0  0
  -23.0303  -22.6821   18.9327 C   0  0  0  0  0  0  0  0  0  0  0  0
  -23.6277  -21.9965   20.1539 C   0  0  0  0  0  0  0  0  0  1  0  0
  -22.8156  -13.2403   20.9795 C   0  0  1  0  0  0  0  0  0  0  0  0
  -19.9967  -12.9059   23.4917 C   0  0  2  0  0  0  0  0  0  0  0  0
  -24.7659  -29.4700   16.9911 C   0  0  0  0  0  0  0  0  0  0  0  0
  -22.9934  -12.1970   19.8405 C   0  0  0  0  0  0  0  0  0  0  0  0
  -28.0843  -26.4397   20.0136 N   0  0  0  0  0  0  0  0  0  0  0  0
  -24.8862  -26.0393   16.2048 N   0  0  0  0  0  0  0  0  0  0  0  0
  -25.3148  -27.2918   16.0922 N   0  0  0  0  0  0  0  0  0  0  0  0
  -24.5485  -28.0490   16.8939 N   0  0  0  0  0  0  0  0  0  0  0  0
  -28.4483  -27.7333   20.0104 N   0  0  0  0  0  0  0  0  0  0  0  0
  -24.5203  -14.9225   21.6026 N   0  0  0  0  0  0  0  0  0  0  0  0
  -25.0494  -29.3937   19.4449 N   0  0  0  0  0  0  0  0  0  0  0  0
  -30.3344  -29.1647   19.9422 N   0  0  0  0  0  0  0  0  0  0  0  0
  -32.4629  -26.2279   21.0556 N   0  0  0  0  0  0  0  0  0  0  0  0
  -27.7652  -14.3587   20.8798 N   0  0  0  0  0  0  0  0  0  0  0  0
  -21.9029  -12.8204   22.0374 N   0  0  0  0  0  0  0  0  0  0  0  0
  -19.3595  -13.9481   24.3454 N   0  3  0  0  0  0  0  0  0  0  0  0
  -32.3680  -26.2660   18.7647 O   0  0  0  0  0  0  0  0  0  0  0  0
  -26.5313  -16.1022   19.9522 O   0  0  0  0  0  0  0  0  0  0  0  0
  -24.7590  -12.6875   22.2223 O   0  0  0  0  0  0  0  0  0  0  0  0
  -23.4797  -30.8020   18.4687 O   0  0  0  0  0  0  0  0  0  0  0  0
  -20.4352  -14.6036   21.8295 O   0  0  0  0  0  0  0  0  0  0  0  0
  -29.3797  -20.2058   19.9001 O   0  0  0  0  0  0  0  0  0  0  0  0
  -22.9504  -20.7583   20.3651 O   0  0  0  0  0  0  0  0  0  1  0  0
  -27.9644  -17.6558   15.2205 F   0  0  0  0  0  0  0  0  0  0  0  0
  -31.1641  -18.5478   18.5927 F   0  0  0  0  0  0  0  0  0  0  0  0
  1  2  1  0  0  0  0
  1  5  2  0  0  0  0
  2  6  2  0  0  0  0
  3  8  2  0  0  0  0
  3 16  1  0  0  0  0
  4  9  1  0  0  0  0
  4 16  2  0  0  0  0
  5 18  1  0  0  0  0
  6 20  1  0  0  0  0
  7 10  2  0  0  0  0
  7 19  1  0  0  0  0
  8 22  1  0  0  0  0
  9 22  2  0  0  0  0
 10 23  1  0  0  0  0
 11 12  2  0  0  0  0
 11 24  1  0  0  0  0
 12 25  1  0  0  0  0
 13 21  1  0  0  0  0
 13 23  2  0  0  0  0
 14 25  2  0  0  0  0
 14 26  1  0  0  0  0
 15 28  2  0  0  0  0
 15 65  1  0  0  0  0
 16 27  1  0  0  0  0
 17 27  1  0  0  0  0
 17 29  2  0  0  0  0
 17 30  1  0  0  0  0
 18 20  2  0  0  0  0
 18 35  1  0  0  0  0
 19 21  2  0  0  0  0
 19 36  1  0  0  0  0
 20 44  1  0  0  0  0
 21 37  1  0  0  0  0
 22 79  1  0  0  0  0
 23 80  1  0  0  0  0
 24 26  2  0  0  0  0
 24 79  1  0  0  0  0
 25 81  1  0  0  0  0
 26 82  1  0  0  0  0
 27 62  2  0  0  0  0
 28 54  1  0  0  0  0
 28 63  1  0  0  0  0
 29 66  1  0  0  0  0
 29 69  1  0  0  0  0
 30 70  1  0  0  0  0
 30 74  2  0  0  0  0
 31 45  1  0  0  0  0
 31 71  1  0  0  0  0
 31 75  2  0  0  0  0
 32 58  1  0  0  0  0
 32 67  1  0  0  0  0
 32 76  2  0  0  0  0
 33 60  1  0  0  0  0
 33 68  1  0  0  0  0
 33 77  2  0  0  0  0
 34 59  1  0  0  0  0
 34 72  1  0  0  0  0
 34 78  2  0  0  0  0
 35 38  1  0  0  0  0
 36 45  1  0  0  0  0
 37 67  1  0  0  0  0
 38 40  1  0  0  0  0
 39 41  1  0  0  0  0
 39 42  1  0  0  0  0
 40 44  1  0  0  0  0
 41 46  1  0  0  0  0
 42 68  1  0  0  0  0
 43 46  1  0  0  0  0
 43 68  1  0  0  0  0
 44 71  1  0  0  0  0
 45 67  1  0  0  0  0
 46 66  1  0  0  0  0
 47 59  1  0  0  0  0
 48 60  1  0  0  0  0
 49 60  1  0  0  0  0
 50 61  1  0  0  0  0
 51 61  1  0  0  0  0
 52 61  1  0  0  0  0
 53 73  1  0  0  0  0
 54 55  1  0  0  0  0
 55 56  1  0  0  0  0
 56 57  1  0  0  0  0
 57 80  1  0  0  0  0
 58 61  1  0  0  0  0
 58 72  1  0  0  0  0
 59 73  1  0  0  0  0
 60 65  1  0  0  0  0
 62 66  1  0  0  0  0
 63 64  2  0  0  0  0
 64 65  1  0  0  0  0
M  CHG  1  73   1
M  ISO  4  33 100  57 101  60 100  80 101
M  END
> <Batch ID>
0058

> <Smiles>
CNC(C)C(=O)NC(C(=O)N1Cc2cc([101O:1][101CH2:1]CCCc3cn([100C:0](C)(C)[100C:0](=O)N4CCCC(n5nc(-c6ccc(Oc7ccc(F)cc7F)cc6)c(C(N)=O)c5N)C4)nn3)ccc2CC1C(=O)NC1CCCc2ccccc21)C(C)(C)C

> <Shape>
0.231

> <Color>
0.081

> <Negative vol penalty>
0.000

$$$$

  -OEChem-04052317503D

 81 89  0     1  0  0  0  0  0999 V2000
  -27.0839  -24.2687   13.9229 C   0  0  0  0  0  0  0  0  0  0  0  0
  -26.1984  -24.3503   14.9928 C   0  0  0  0  0  0  0  0  0  0  0  0
  -26.9094  -14.9050   19.3462 C   0  0  0  0  0  0  0  0  0  0  0  0
  -24.5504  -14.8811   19.8671 C   0  0  0  0  0  0  0  0  0  0  0  0
  -28.4385  -24.5347   14.1187 C   0  0  0  0  0  0  0  0  0  0  0  0
  -26.6673  -24.6969   16.2595 C   0  0  0  0  0  0  0  0  0  0  0  0
  -23.7119  -28.1061   18.5591 C   0  0  0  0  0  0  0  0  0  0  0  0
  -27.0128  -13.5748   19.7531 C   0  0  0  0  0  0  0  0  0  0  0  0
  -24.6537  -13.5508   20.2739 C   0  0  0  0  0  0  0  0  0  0  0  0
  -22.5294  -27.6402   19.1322 C   0  0  0  0  0  0  0  0  0  0  0  0
  -24.8188  -10.5072   18.8147 C   0  0  0  0  0  0  0  0  0  0  0  0
  -23.8367   -9.6189   18.3766 C   0  0  0  0  0  0  0  0  0  0  0  0
  -23.5867  -27.6415   21.3004 C   0  0  0  0  0  0  0  0  0  0  0  0
  -23.2377   -9.1500   20.6697 C   0  0  0  0  0  0  0  0  0  0  0  0
  -20.5913  -24.0986   23.3373 C   0  0  0  0  0  0  0  0  0  0  0  0
  -21.4657  -23.3597   21.4599 C   0  0  0  0  0  0  0  0  0  0  0  0
  -25.6782  -15.5581   19.4032 C   0  0  0  0  0  0  0  0  0  0  0  0
  -25.2804  -17.4060   17.6902 C   0  0  0  0  0  0  0  0  0  0  0  0
  -28.9226  -24.8941   15.3864 C   0  0  0  0  0  0  0  0  0  0  0  0
  -24.8459  -28.3332   19.3521 C   0  0  0  0  0  0  0  0  0  0  0  0
  -28.0298  -24.9666   16.4727 C   0  0  0  0  0  0  0  0  0  0  0  0
  -24.7816  -28.1127   20.7354 C   0  0  0  0  0  0  0  0  0  0  0  0
  -20.5303  -24.2444   21.9384 C   0  0  0  0  0  0  0  0  0  0  0  0
  -25.8849  -12.8977   20.2169 C   0  0  0  0  0  0  0  0  0  0  0  0
  -22.4675  -27.4051   20.5026 C   0  0  0  0  0  0  0  0  0  0  0  0
  -25.0104  -10.7169   20.1804 C   0  0  0  0  0  0  0  0  0  0  0  0
  -23.0461   -8.9403   19.3040 C   0  0  0  0  0  0  0  0  0  0  0  0
  -24.2199  -10.0383   21.1079 C   0  0  0  0  0  0  0  0  0  0  0  0
  -25.5710  -16.9324   18.9836 C   0  0  0  0  0  0  0  0  0  0  0  0
  -25.2931  -18.7738   17.8145 C   0  0  0  0  0  0  0  0  0  0  0  0
  -25.0219  -16.6750   16.4842 C   0  0  0  0  0  0  0  0  0  0  0  0
  -27.7869  -27.1319   19.4570 C   0  0  0  0  0  0  0  0  0  0  0  0
  -24.4105  -22.3819   22.5384 C   0  0  0  0  0  0  0  0  0  0  0  0
  -28.2374  -29.4555   21.6751 C   0  0  0  0  0  0  0  0  0  0  0  0
  -26.8674  -31.5561   23.9897 C   0  0  0  0  0  0  0  0  0  0  0  0
  -30.4027  -25.1262   15.5592 C   0  0  0  0  0  0  0  0  0  0  0  0
  -26.1058  -28.8612   18.7227 C   0  0  0  0  0  0  0  0  0  0  0  0
  -25.9649  -28.3602   21.6337 C   0  0  0  0  0  0  0  0  0  0  0  0
  -30.7583  -25.8522   16.8541 C   0  0  0  0  0  0  0  0  0  0  0  0
  -27.2660  -22.2905   20.3756 C   0  0  0  0  0  0  0  0  0  0  0  0
  -30.0139  -25.2351   18.0339 C   0  0  0  0  0  0  0  0  0  0  0  0
  -27.1440  -20.9369   19.6769 C   0  0  0  0  0  0  0  0  0  0  0  0
  -26.7700  -22.2218   21.8166 C   0  0  0  0  0  0  0  0  0  0  0  0
  -25.2505  -20.3511   21.2570 C   0  0  0  0  0  0  0  0  0  0  0  0
  -28.4961  -25.3636   17.8566 C   0  0  1  0  0  0  0  0  0  0  0  0
  -27.3546  -28.5680   19.5485 C   0  0  1  0  0  0  0  0  0  0  0  0
  -25.7122  -20.3839   19.7893 C   0  0  2  0  0  0  0  0  0  0  0  0
  -22.9248  -20.8003   23.7496 C   0  0  0  0  0  0  0  0  0  0  0  0
  -27.4919  -33.3112   25.6711 C   0  0  0  0  0  0  0  0  0  0  0  0
  -18.6771  -26.0446   21.9992 C   0  0  0  0  0  0  0  0  0  0  0  0
  -18.7190  -24.3329   20.1976 C   0  0  0  0  0  0  0  0  0  0  0  0
  -29.2492  -27.2828   23.5634 C   0  0  0  0  0  0  0  0  0  0  0  0
  -28.9515  -28.8900   25.4599 C   0  0  0  0  0  0  0  0  0  0  0  0
  -30.5594  -29.4121   23.6256 C   0  0  0  0  0  0  0  0  0  0  0  0
  -25.2536  -33.6178   22.6097 C   0  0  0  0  0  0  0  0  0  0  0  0
  -20.4725  -26.1355   20.2495 C   0  0  0  0  0  0  0  0  0  1  0  0
  -23.0406  -21.7519   22.5614 C   0  0  1  0  0  0  0  0  0  0  0  0
  -28.0758  -29.5493   23.1731 C   0  0  1  0  0  0  0  0  0  0  0  0
  -27.0570  -33.0415   24.2390 C   0  0  2  0  0  0  0  0  0  0  0  0
  -19.6187  -25.1821   21.1248 C   0  0  0  0  0  0  0  0  0  0  0  0
  -29.1871  -28.7770   23.9386 C   0  0  0  0  0  0  0  0  0  0  0  0
  -21.4939  -23.1925   23.7224 N   0  0  0  0  0  0  0  0  0  0  0  0
  -25.7550  -17.9191   19.8648 N   0  0  0  0  0  0  0  0  0  0  0  0
  -22.0086  -22.7609   22.5585 N   0  0  0  0  0  0  0  0  0  0  0  0
  -25.5797  -19.0264   19.1238 N   0  0  0  0  0  0  0  0  0  0  0  0
  -27.1761  -28.8704   20.9701 N   0  0  0  0  0  0  0  0  0  0  0  0
  -25.4154  -21.6706   21.8826 N   0  0  0  0  0  0  0  0  0  0  0  0
  -25.0870  -19.7731   16.9305 N   0  0  0  0  0  0  0  0  0  0  0  0
  -25.0477  -15.2746   16.5332 N   0  0  0  0  0  0  0  0  0  0  0  0
  -28.0626  -26.7081   18.1709 N   0  0  0  0  0  0  0  0  0  0  0  0
  -28.0115  -30.9723   23.4885 N   0  0  0  0  0  0  0  0  0  0  0  0
  -25.7844  -33.7754   23.9883 N   0  3  0  0  0  0  0  0  0  0  0  0
  -24.7916  -17.2469   15.3917 O   0  0  0  0  0  0  0  0  0  0  0  0
  -27.8660  -26.4585   20.4778 O   0  0  0  0  0  0  0  0  0  0  0  0
  -24.5796  -23.4750   23.0849 O   0  0  0  0  0  0  0  0  0  0  0  0
  -29.2642  -29.8920   21.1491 O   0  0  0  0  0  0  0  0  0  0  0  0
  -25.8112  -30.9715   24.2202 O   0  0  0  0  0  0  0  0  0  0  0  0
  -25.9854  -11.5997   20.6138 O   0  0  0  0  0  0  0  0  0  0  0  0
  -21.3147  -26.9498   21.0644 O   0  0  0  0  0  0  0  0  0  1  0  0
  -22.1020   -8.0885   18.8831 F   0  0  0  0  0  0  0  0  0  0  0  0
  -24.3985  -10.2365   22.4211 F   0  0  0  0  0  0  0  0  0  0  0  0
  1  2  1  0  0  0  0
  1  5  2  0  0  0  0
  2  6  2  0  0  0  0
  3  8  2  0  0  0  0
  3 17  1  0  0  0  0
  4  9  1  0  0  0  0
  4 17  2  0  0  0  0
  5 19  1  0  0  0  0
  6 21  1  0  0  0  0
  7 10  2  0  0  0  0
  7 20  1  0  0  0  0
  8 24  1  0  0  0  0
  9 24  2  0  0  0  0
 10 25  1  0  0  0  0
 11 12  2  0  0  0  0
 11 26  1  0  0  0  0
 12 27  1  0  0  0  0
 13 22  1  0  0  0  0
 13 25  2  0  0  0  0
 14 27  2  0  0  0  0
 14 28  1  0  0  0  0
 15 23  1  0  0  0  0
 15 62  2  0  0  0  0
 16 23  2  0  0  0  0
 16 64  1  0  0  0  0
 17 29  1  0  0  0  0
 18 29  1  0  0  0  0
 18 30  2  0  0  0  0
 18 31  1  0  0  0  0
 19 21  2  0  0  0  0
 19 36  1  0  0  0  0
 20 22  2  0  0  0  0
 20 37  1  0  0  0  0
 21 45  1  0  0  0  0
 22 38  1  0  0  0  0
 23 60  1  0  0  0  0
 24 78  1  0  0  0  0
 25 79  1  0  0  0  0
 26 28  2  0  0  0  0
 26 78  1  0  0  0  0
 27 80  1  0  0  0  0
 28 81  1  0  0  0  0
 29 63  2  0  0  0  0
 30 65  1  0  0  0  0
 30 68  1  0  0  0  0
 31 69  1  0  0  0  0
 31 73  2  0  0  0  0
 32 46  1  0  0  0  0
 32 70  1  0  0  0  0
 32 74  2  0  0  0  0
 33 57  1  0  0  0  0
 33 67  1  0  0  0  0
 33 75  2  0  0  0  0
 34 58  1  0  0  0  0
 34 66  1  0  0  0  0
 34 76  2  0  0  0  0
 35 59  1  0  0  0  0
 35 71  1  0  0  0  0
 35 77  2  0  0  0  0
 36 39  1  0  0  0  0
 37 46  1  0  0  0  0
 38 66  1  0  0  0  0
 39 41  1  0  0  0  0
 40 42  1  0  0  0  0
 40 43  1  0  0  0  0
 41 45  1  0  0  0  0
 42 47  1  0  0  0  0
 43 67  1  0  0  0  0
 44 47  1  0  0  0  0
 44 67  1  0  0  0  0
 45 70  1  0  0  0  0
 46 66  1  0  0  0  0
 47 65  1  0  0  0  0
 48 57  1  0  0  0  0
 49 59  1  0  0  0  0
 50 60  1  0  0  0  0
 51 60  1  0  0  0  0
 52 61  1  0  0  0  0
 53 61  1  0  0  0  0
 54 61  1  0  0  0  0
 55 72  1  0  0  0  0
 56 60  1  0  0  0  0
 56 79  1  0  0  0  0
 57 64  1  0  0  0  0
 58 61  1  0  0  0  0
 58 71  1  0  0  0  0
 59 72  1  0  0  0  0
 62 64  1  0  0  0  0
 63 65  1  0  0  0  0
M  CHG  1  72   1
M  ISO  4  33 100  56 101  57 100  79 101
M  END
> <Batch ID>
0058

> <Smiles>
CNC(C)C(=O)NC(C(=O)N1Cc2cc([101O:1][101CH2:1]C(C)(C)c3cnn([100CH:0](C)[100C:0](=O)N4CCCC(n5nc(-c6ccc(Oc7ccc(F)cc7F)cc6)c(C(N)=O)c5N)C4)c3)ccc2CC1C(=O)NC1CCCc2ccccc21)C(C)(C)C

> <Shape>
0.189

> <Color>
0.067

> <Negative vol penalty>
0.000

$$$$

  -OEChem-04052317503D

 87 96  0     1  0  0  0  0  0999 V2000
  -32.5214  -13.3986   21.6335 C   0  0  0  0  0  0  0  0  0  0  0  0
  -31.8618  -14.6131   21.4743 C   0  0  0  0  0  0  0  0  0  0  0  0
  -26.2580  -25.5098   18.6367 C   0  0  0  0  0  0  0  0  0  0  0  0
  -28.2818  -26.6397   19.3184 C   0  0  0  0  0  0  0  0  0  0  0  0
  -31.9014  -12.2133   21.2404 C   0  0  0  0  0  0  0  0  0  0  0  0
  -30.5822  -14.6431   20.9209 C   0  0  0  0  0  0  0  0  0  0  0  0
  -26.0287  -18.4696   22.3798 C   0  0  0  0  0  0  0  0  0  0  0  0
  -26.9618  -24.3098   18.5363 C   0  0  0  0  0  0  0  0  0  0  0  0
  -28.9856  -25.4396   19.2181 C   0  0  0  0  0  0  0  0  0  0  0  0
  -25.5635  -19.6430   21.7877 C   0  0  0  0  0  0  0  0  0  0  0  0
  -29.3994  -22.6353   21.0581 C   0  0  0  0  0  0  0  0  0  0  0  0
  -30.2742  -22.3103   22.0947 C   0  0  0  0  0  0  0  0  0  0  0  0
  -23.8793  -18.3761   20.6142 C   0  0  0  0  0  0  0  0  0  0  0  0
  -32.1149  -22.2750   20.5302 C   0  0  0  0  0  0  0  0  0  0  0  0
  -18.8933  -26.7094   23.1842 C   0  0  0  0  0  0  0  0  0  0  0  0
  -26.9180  -26.6749   19.0277 C   0  0  0  0  0  0  0  0  0  0  0  0
  -25.4967  -28.5811   18.1038 C   0  0  0  0  0  0  0  0  0  0  0  0
  -30.6098  -12.2277   20.6908 C   0  0  0  0  0  0  0  0  0  0  0  0
  -25.4286  -17.2371   22.0846 C   0  0  0  0  0  0  0  0  0  0  0  0
  -29.9450  -13.4569   20.5188 C   0  0  0  0  0  0  0  0  0  0  0  0
  -24.3370  -17.1888   21.2058 C   0  0  0  0  0  0  0  0  0  0  0  0
  -28.3256  -24.2746   18.8271 C   0  0  0  0  0  0  0  0  0  0  0  0
  -24.4905  -19.5960   20.9026 C   0  0  0  0  0  0  0  0  0  0  0  0
  -29.8823  -22.7802   19.7575 C   0  0  0  0  0  0  0  0  0  0  0  0
  -31.6319  -22.1301   21.8308 C   0  0  0  0  0  0  0  0  0  0  0  0
  -31.2400  -22.6000   19.4935 C   0  0  0  0  0  0  0  0  0  0  0  0
  -26.1917  -27.9150   19.1309 C   0  0  0  0  0  0  0  0  0  0  0  0
  -24.9834  -29.7027   18.7080 C   0  0  0  0  0  0  0  0  0  0  0  0
  -19.5695  -28.6584   22.8663 C   0  0  0  0  0  0  0  0  0  0  0  0
  -25.3298  -28.2184   16.7267 C   0  0  0  0  0  0  0  0  0  0  0  0
  -26.4151  -14.5226   20.7571 C   0  0  0  0  0  0  0  0  0  0  0  0
  -23.4609  -13.4876   21.6079 C   0  0  0  0  0  0  0  0  0  0  0  0
  -20.2258  -14.2652   22.3670 C   0  0  0  0  0  0  0  0  0  0  0  0
  -23.5695  -30.9927   24.3814 C   0  0  0  0  0  0  0  0  0  0  0  0
  -29.9993  -10.9254   20.2370 C   0  0  0  0  0  0  0  0  0  0  0  0
  -25.9250  -15.9840   22.7522 C   0  0  0  0  0  0  0  0  0  0  0  0
  -23.6449  -15.8936   20.8713 C   0  0  0  0  0  0  0  0  0  0  0  0
  -28.4928  -11.0070   20.0050 C   0  0  0  0  0  0  0  0  0  0  0  0
  -25.8487  -32.7549   22.2894 C   0  0  0  0  0  0  0  0  0  0  0  0
  -28.1440  -12.2521   19.1958 C   0  0  0  0  0  0  0  0  0  0  0  0
  -20.5471  -23.2481   20.6533 C   0  0  0  0  0  0  0  0  0  0  0  0
  -22.0773  -25.2106   21.0817 C   0  0  0  0  0  0  0  0  0  0  0  0
  -21.6877  -22.2868   20.9829 C   0  0  0  0  0  0  0  0  0  0  0  0
  -23.2179  -24.2493   21.4112 C   0  0  0  0  0  0  0  0  0  0  0  0
  -26.1324  -31.7744   21.1500 C   0  0  0  0  0  0  0  0  0  0  0  0
  -25.6862  -32.0348   23.6262 C   0  0  0  0  0  0  0  0  0  0  0  0
  -24.9711  -29.9690   22.4883 C   0  0  0  0  0  0  0  0  0  0  0  0
  -28.5464  -13.5279   19.9453 C   0  0  1  0  0  0  0  0  0  0  0  0
  -25.5681  -14.7157   21.9831 C   0  0  1  0  0  0  0  0  0  0  0  0
  -20.7075  -24.5888   21.3812 C   0  0  0  0  0  0  0  0  0  0  0  0
  -23.0575  -22.9087   20.6832 C   0  0  0  0  0  0  0  0  0  0  0  0
  -25.0873  -30.6432   21.1105 C   0  0  2  0  0  0  0  0  0  0  0  0
  -18.0371  -13.2035   22.9832 C   0  0  0  0  0  0  0  0  0  0  0  0
  -23.0624  -12.6309   18.7066 C   0  0  0  0  0  0  0  0  0  0  0  0
  -20.6056  -12.4754   19.1630 C   0  0  0  0  0  0  0  0  0  0  0  0
  -22.1979  -11.0080   20.4017 C   0  0  0  0  0  0  0  0  0  0  0  0
  -20.1404  -15.6770   24.9667 C   0  0  0  0  0  0  0  0  0  0  0  0
  -19.9030  -30.0760   22.9736 C   0  0  0  0  0  0  0  0  0  0  0  0
  -19.5834  -25.5491   20.9971 C   0  0  0  0  0  0  0  0  0  0  0  0
  -24.1816  -21.9483   21.0672 C   0  0  0  0  0  0  0  0  0  1  0  0
  -20.2733  -30.5702   24.4004 C   0  0  0  0  0  0  0  0  0  0  0  0
  -21.4651  -29.8406   25.0165 C   0  0  0  0  0  0  0  0  0  0  0  0
  -22.1022  -13.4743   20.9500 C   0  0  1  0  0  0  0  0  0  0  0  0
  -19.3241  -13.8231   23.5053 C   0  0  2  0  0  0  0  0  0  0  0  0
  -22.0061  -12.4214   19.8099 C   0  0  0  0  0  0  0  0  0  0  0  0
  -18.9544  -27.9386   23.7757 N   0  0  0  0  0  0  0  0  0  0  0  0
  -26.1279  -28.5597   20.2990 N   0  0  0  0  0  0  0  0  0  0  0  0
  -19.8570  -27.8831   21.7865 N   0  0  0  0  0  0  0  0  0  0  0  0
  -19.4319  -26.6233   21.9661 N   0  0  0  0  0  0  0  0  0  0  0  0
  -25.3868  -29.6427   20.0095 N   0  0  0  0  0  0  0  0  0  0  0  0
  -24.1712  -14.6948   21.5446 N   0  0  0  0  0  0  0  0  0  0  0  0
  -24.6799  -30.9754   23.5213 N   0  0  0  0  0  0  0  0  0  0  0  0
  -24.2309  -30.7246   18.2476 N   0  0  0  0  0  0  0  0  0  0  0  0
  -25.9235  -27.0334   16.2713 N   0  0  0  0  0  0  0  0  0  0  0  0
  -27.5865  -13.8265   20.9865 N   0  0  0  0  0  0  0  0  0  0  0  0
  -21.1314  -13.2842   22.0222 N   0  0  0  0  0  0  0  0  0  0  0  0
  -22.6605  -29.9557   24.2111 N   0  0  0  0  0  0  0  0  0  0  0  0
  -18.9698  -14.9862   24.3671 N   0  3  0  0  0  0  0  0  0  0  0  0
  -24.6875  -28.9327   15.9201 O   0  0  0  0  0  0  0  0  0  0  0  0
  -26.0333  -14.9707   19.6823 O   0  0  0  0  0  0  0  0  0  0  0  0
  -23.8737  -12.4667   22.1638 O   0  0  0  0  0  0  0  0  0  0  0  0
  -20.1335  -15.3689   21.8342 O   0  0  0  0  0  0  0  0  0  0  0  0
  -23.3981  -31.8704   25.2342 O   0  0  0  0  0  0  0  0  0  0  0  0
  -29.0126  -23.1037   18.7295 O   0  0  0  0  0  0  0  0  0  0  0  0
  -24.0350  -20.7397   20.3228 O   0  0  0  0  0  0  0  0  0  1  0  0
  -32.4722  -21.8195   22.8266 F   0  0  0  0  0  0  0  0  0  0  0  0
  -31.7100  -22.7390   18.2463 F   0  0  0  0  0  0  0  0  0  0  0  0
  1  2  1  0  0  0  0
  1  5  2  0  0  0  0
  2  6  2  0  0  0  0
  3  8  2  0  0  0  0
  3 16  1  0  0  0  0
  4  9  1  0  0  0  0
  4 16  2  0  0  0  0
  5 18  1  0  0  0  0
  6 20  1  0  0  0  0
  7 10  2  0  0  0  0
  7 19  1  0  0  0  0
  8 22  1  0  0  0  0
  9 22  2  0  0  0  0
 10 23  1  0  0  0  0
 11 12  2  0  0  0  0
 11 24  1  0  0  0  0
 12 25  1  0  0  0  0
 13 21  1  0  0  0  0
 13 23  2  0  0  0  0
 14 25  2  0  0  0  0
 14 26  1  0  0  0  0
 15 66  2  0  0  0  0
 15 69  1  0  0  0  0
 16 27  1  0  0  0  0
 17 27  1  0  0  0  0
 17 28  2  0  0  0  0
 17 30  1  0  0  0  0
 18 20  2  0  0  0  0
 18 35  1  0  0  0  0
 19 21  2  0  0  0  0
 19 36  1  0  0  0  0
 20 48  1  0  0  0  0
 21 37  1  0  0  0  0
 22 84  1  0  0  0  0
 23 85  1  0  0  0  0
 24 26  2  0  0  0  0
 24 84  1  0  0  0  0
 25 86  1  0  0  0  0
 26 87  1  0  0  0  0
 27 67  2  0  0  0  0
 28 70  1  0  0  0  0
 28 73  1  0  0  0  0
 29 58  1  0  0  0  0
 29 66  1  0  0  0  0
 29 68  2  0  0  0  0
 30 74  1  0  0  0  0
 30 79  2  0  0  0  0
 31 49  1  0  0  0  0
 31 75  1  0  0  0  0
 31 80  2  0  0  0  0
 32 63  1  0  0  0  0
 32 71  1  0  0  0  0
 32 81  2  0  0  0  0
 33 64  1  0  0  0  0
 33 76  1  0  0  0  0
 33 82  2  0  0  0  0
 34 72  1  0  0  0  0
 34 77  1  0  0  0  0
 34 83  2  0  0  0  0
 35 38  1  0  0  0  0
 36 49  1  0  0  0  0
 37 71  1  0  0  0  0
 38 40  1  0  0  0  0
 39 45  1  0  0  0  0
 39 46  1  0  0  0  0
 40 48  1  0  0  0  0
 41 43  1  0  0  0  0
 41 50  1  0  0  0  0
 42 44  1  0  0  0  0
 42 50  1  0  0  0  0
 43 51  1  0  0  0  0
 44 51  1  0  0  0  0
 45 52  1  0  0  0  0
 46 72  1  0  0  0  0
 47 52  1  0  0  0  0
 47 72  1  0  0  0  0
 48 75  1  0  0  0  0
 49 71  1  0  0  0  0
 50 59  1  0  0  0  0
 51 60  1  0  0  0  0
 52 70  1  0  0  0  0
 53 64  1  0  0  0  0
 54 65  1  0  0  0  0
 55 65  1  0  0  0  0
 56 65  1  0  0  0  0
 57 78  1  0  0  0  0
 58 61  1  0  0  0  0
 59 69  1  0  0  0  0
 60 85  1  0  0  0  0
 61 62  1  0  0  0  0
 62 77  1  0  0  0  0
 63 65  1  0  0  0  0
 63 76  1  0  0  0  0
 64 78  1  0  0  0  0
 67 70  1  0  0  0  0
 68 69  1  0  0  0  0
M  CHG  1  78   1
M  ISO  4  34 100  60 101  77 100  85 101
M  END
> <Batch ID>
0058

> <Smiles>
CNC(C)C(=O)NC(C(=O)N1Cc2cc([101O:1][101CH2:1]C3CCC(Cn4cnc(CCC[100NH:0][100C:0](=O)N5CCCC(n6nc(-c7ccc(Oc8ccc(F)cc8F)cc7)c(C(N)=O)c6N)C5)n4)CC3)ccc2CC1C(=O)NC1CCCc2ccccc21)C(C)(C)C

> <Shape>
0.248

> <Color>
0.068

> <Negative vol penalty>
0.000

$$$$

  -OEChem-04052317503D

 80 88  0     1  0  0  0  0  0999 V2000
  -24.2490  -11.7166   20.3368 C   0  0  0  0  0  0  0  0  0  0  0  0
  -23.9356  -12.9957   20.7853 C   0  0  0  0  0  0  0  0  0  0  0  0
  -25.3486  -28.4059   19.9796 C   0  0  0  0  0  0  0  0  0  0  0  0
  -25.0656  -26.0592   19.4793 C   0  0  0  0  0  0  0  0  0  0  0  0
  -25.5817  -11.3506   20.1531 C   0  0  0  0  0  0  0  0  0  0  0  0
  -24.9549  -13.9092   21.0514 C   0  0  0  0  0  0  0  0  0  0  0  0
  -23.9756  -18.5122   19.1809 C   0  0  0  0  0  0  0  0  0  0  0  0
  -26.7302  -28.2256   20.0437 C   0  0  0  0  0  0  0  0  0  0  0  0
  -26.4473  -25.8790   19.5434 C   0  0  0  0  0  0  0  0  0  0  0  0
  -23.0828  -19.3120   19.8929 C   0  0  0  0  0  0  0  0  0  0  0  0
  -28.9846  -27.0223   22.2559 C   0  0  0  0  0  0  0  0  0  0  0  0
  -29.6656  -27.6118   23.3210 C   0  0  0  0  0  0  0  0  0  0  0  0
  -24.9387  -20.5075   20.8654 C   0  0  0  0  0  0  0  0  0  0  0  0
  -30.9879  -28.9001   21.7624 C   0  0  0  0  0  0  0  0  0  0  0  0
  -22.0970  -23.4315   24.2003 C   0  0  0  0  0  0  0  0  0  0  0  0
  -24.5162  -27.3227   19.6974 C   0  0  0  0  0  0  0  0  0  0  0  0
  -22.3265  -27.8419   18.4962 C   0  0  0  0  0  0  0  0  0  0  0  0
  -26.6175  -12.2632   20.4079 C   0  0  0  0  0  0  0  0  0  0  0  0
  -25.3593  -18.6971   19.3145 C   0  0  0  0  0  0  0  0  0  0  0  0
  -26.3029  -13.5546   20.8722 C   0  0  0  0  0  0  0  0  0  0  0  0
  -25.8469  -19.7103   20.1522 C   0  0  0  0  0  0  0  0  0  0  0  0
  -27.2796  -26.9622   19.8256 C   0  0  0  0  0  0  0  0  0  0  0  0
  -23.5643  -20.3079   20.7375 C   0  0  0  0  0  0  0  0  0  0  0  0
  -29.3053  -27.3716   20.9441 C   0  0  0  0  0  0  0  0  0  0  0  0
  -30.6672  -28.5507   23.0742 C   0  0  0  0  0  0  0  0  0  0  0  0
  -30.3069  -28.3105   20.6973 C   0  0  0  0  0  0  0  0  0  0  0  0
  -23.0889  -27.5081   19.6316 C   0  0  0  0  0  0  0  0  0  0  0  0
  -22.1480  -22.8214   22.9788 C   0  0  0  0  0  0  0  0  0  0  0  0
  -21.0333  -27.8991   18.9556 C   0  0  0  0  0  0  0  0  0  0  0  0
  -20.1175  -23.6646   23.2371 C   0  0  0  0  0  0  0  0  0  0  0  0
  -22.7493  -28.0791   17.1469 C   0  0  0  0  0  0  0  0  0  0  0  0
  -27.7732  -16.9029   20.3430 C   0  0  0  0  0  0  0  0  0  0  0  0
  -29.5622  -19.3992   19.2987 C   0  0  0  0  0  0  0  0  0  0  0  0
  -18.3301  -25.3221   23.6634 C   0  0  0  0  0  0  0  0  0  0  0  0
  -29.7387  -22.7238   18.5489 C   0  0  0  0  0  0  0  0  0  0  0  0
  -28.0450  -11.8066   20.2398 C   0  0  0  0  0  0  0  0  0  0  0  0
  -26.3086  -17.8435   18.5191 C   0  0  0  0  0  0  0  0  0  0  0  0
  -27.3228  -19.9628   20.3150 C   0  0  0  0  0  0  0  0  0  0  0  0
  -29.0495  -12.9548   20.1862 C   0  0  0  0  0  0  0  0  0  0  0  0
  -18.4866  -28.8177   22.8912 C   0  0  0  0  0  0  0  0  0  0  0  0
  -28.7725  -13.9590   21.3004 C   0  0  0  0  0  0  0  0  0  0  0  0
  -19.6339  -28.9123   21.8862 C   0  0  0  0  0  0  0  0  0  0  0  0
  -18.7510  -27.7429   23.9409 C   0  0  0  0  0  0  0  0  0  0  0  0
  -20.1825  -26.4841   22.3636 C   0  0  0  0  0  0  0  0  0  0  0  0
  -27.3795  -14.5818   21.1480 C   0  0  1  0  0  0  0  0  0  0  0  0
  -27.7071  -17.7811   19.1255 C   0  0  1  0  0  0  0  0  0  0  0  0
  -19.9416  -27.5371   21.2675 C   0  0  2  0  0  0  0  0  0  0  0  0
  -31.3441  -24.4816   17.7549 C   0  0  0  0  0  0  0  0  0  0  0  0
  -17.7290  -22.9397   23.4859 C   0  0  0  0  0  0  0  0  0  0  0  0
  -18.3291  -24.3020   21.4815 C   0  0  0  0  0  0  0  0  0  0  0  0
  -30.8388  -19.4811   22.0689 C   0  0  0  0  0  0  0  0  0  0  0  0
  -31.6911  -21.7731   21.5319 C   0  0  0  0  0  0  0  0  0  0  0  0
  -32.4357  -19.8176   20.1739 C   0  0  0  0  0  0  0  0  0  0  0  0
  -20.3437  -24.6770   25.4865 C   0  0  0  0  0  0  0  0  0  0  0  0
  -28.1239  -23.2709   16.1298 C   0  0  0  0  0  0  0  0  0  0  0  0
  -23.2574  -22.0909   22.2811 C   0  0  0  0  0  0  0  0  0  1  0  0
  -30.0732  -20.6795   19.9140 C   0  0  1  0  0  0  0  0  0  0  0  0
  -30.2993  -23.4561   17.3431 C   0  0  2  0  0  0  0  0  0  0  0  0
  -18.7052  -24.0357   22.9717 C   0  0  0  0  0  0  0  0  0  0  0  0
  -31.2319  -20.4321   20.9208 C   0  0  0  0  0  0  0  0  0  0  0  0
  -22.3423  -27.3635   20.7297 N   0  0  0  0  0  0  0  0  0  0  0  0
  -20.8294  -23.9449   24.3336 N   0  0  0  0  0  0  0  0  0  0  0  0
  -21.0973  -27.6077   20.2864 N   0  0  0  0  0  0  0  0  0  0  0  0
  -20.9097  -22.9808   22.4051 N   0  3  0  0  0  0  0  0  0  0  0  0
  -28.2110  -19.0978   19.5210 N   0  0  0  0  0  0  0  0  0  0  0  0
  -19.0613  -26.4572   23.3131 N   0  0  0  0  0  0  0  0  0  0  0  0
  -19.8591  -28.1697   18.3469 N   0  0  0  0  0  0  0  0  0  0  0  0
  -24.1148  -27.9791   16.8473 N   0  0  0  0  0  0  0  0  0  0  0  0
  -27.3892  -15.5952   20.1149 N   0  0  0  0  0  0  0  0  0  0  0  0
  -30.4252  -21.5550   18.8013 N   0  0  0  0  0  0  0  0  0  0  0  0
  -29.2090  -24.1630   16.6133 N   0  3  0  0  0  0  0  0  0  0  0  0
  -21.9422  -28.3872   16.2374 O   0  0  0  0  0  0  0  0  0  0  0  0
  -28.1463  -17.3764   21.4099 O   0  0  0  0  0  0  0  0  0  0  0  0
  -30.3316  -18.6960   18.6391 O   0  0  0  0  0  0  0  0  0  0  0  0
  -17.4123  -25.3168   24.4880 O   0  0  0  0  0  0  0  0  0  0  0  0
  -28.7893  -23.1483   19.2039 O   0  0  0  0  0  0  0  0  0  0  0  0
  -28.6278  -26.7859   19.8879 O   0  0  0  0  0  0  0  0  0  0  0  0
  -22.6950  -21.0896   21.4340 O   0  0  0  0  0  0  0  0  0  1  0  0
  -31.3200  -29.1179   24.0971 F   0  0  0  0  0  0  0  0  0  0  0  0
  -30.6186  -28.6509   19.4393 F   0  0  0  0  0  0  0  0  0  0  0  0
  1  2  1  0  0  0  0
  1  5  2  0  0  0  0
  2  6  2  0  0  0  0
  3  8  2  0  0  0  0
  3 16  1  0  0  0  0
  4  9  1  0  0  0  0
  4 16  2  0  0  0  0
  5 18  1  0  0  0  0
  6 20  1  0  0  0  0
  7 10  2  0  0  0  0
  7 19  1  0  0  0  0
  8 22  1  0  0  0  0
  9 22  2  0  0  0  0
 10 23  1  0  0  0  0
 11 12  2  0  0  0  0
 11 24  1  0  0  0  0
 12 25  1  0  0  0  0
 13 21  1  0  0  0  0
 13 23  2  0  0  0  0
 14 25  2  0  0  0  0
 14 26  1  0  0  0  0
 15 28  2  0  0  0  0
 15 62  1  0  0  0  0
 16 27  1  0  0  0  0
 17 27  1  0  0  0  0
 17 29  2  0  0  0  0
 17 31  1  0  0  0  0
 18 20  2  0  0  0  0
 18 36  1  0  0  0  0
 19 21  2  0  0  0  0
 19 37  1  0  0  0  0
 20 45  1  0  0  0  0
 21 38  1  0  0  0  0
 22 77  1  0  0  0  0
 23 78  1  0  0  0  0
 24 26  2  0  0  0  0
 24 77  1  0  0  0  0
 25 79  1  0  0  0  0
 26 80  1  0  0  0  0
 27 61  2  0  0  0  0
 28 56  1  0  0  0  0
 28 64  1  0  0  0  0
 29 63  1  0  0  0  0
 29 67  1  0  0  0  0
 30 59  1  0  0  0  0
 30 62  1  0  0  0  0
 30 64  2  0  0  0  0
 31 68  1  0  0  0  0
 31 72  2  0  0  0  0
 32 46  1  0  0  0  0
 32 69  1  0  0  0  0
 32 73  2  0  0  0  0
 33 57  1  0  0  0  0
 33 65  1  0  0  0  0
 33 74  2  0  0  0  0
 34 59  1  0  0  0  0
 34 66  1  0  0  0  0
 34 75  2  0  0  0  0
 35 58  1  0  0  0  0
 35 70  1  0  0  0  0
 35 76  2  0  0  0  0
 36 39  1  0  0  0  0
 37 46  1  0  0  0  0
 38 65  1  0  0  0  0
 39 41  1  0  0  0  0
 40 42  1  0  0  0  0
 40 43  1  0  0  0  0
 41 45  1  0  0  0  0
 42 47  1  0  0  0  0
 43 66  1  0  0  0  0
 44 47  1  0  0  0  0
 44 66  1  0  0  0  0
 45 69  1  0  0  0  0
 46 65  1  0  0  0  0
 47 63  1  0  0  0  0
 48 58  1  0  0  0  0
 49 59  1  0  0  0  0
 50 59  1  0  0  0  0
 51 60  1  0  0  0  0
 52 60  1  0  0  0  0
 53 60  1  0  0  0  0
 54 62  1  0  0  0  0
 55 71  1  0  0  0  0
 56 78  1  0  0  0  0
 57 60  1  0  0  0  0
 57 70  1  0  0  0  0
 58 71  1  0  0  0  0
 61 63  1  0  0  0  0
M  CHG  2  64   1  71   1
M  ISO  4  34 100  56 101  59 100  78 101
M  END
> <Batch ID>
0058

> <Smiles>
CNC(C)C(=O)NC(C(=O)N1Cc2cc([101O:1][101CH2:1]c3cn(C)c([100C:0](C)(C)[100C:0](=O)N4CCCC(n5nc(-c6ccc(Oc7ccc(F)cc7F)cc6)c(C(N)=O)c5N)C4)n3)ccc2CC1C(=O)NC1CCCc2ccccc21)C(C)(C)C

> <Shape>
0.218

> <Color>
0.080

> <Negative vol penalty>
0.000

$$$$

  -OEChem-04052317503D

 83 91  0     1  0  0  0  0  0999 V2000
  -18.4375  -24.4820   21.2575 C   0  0  0  0  0  0  0  0  0  0  0  0
  -19.8164  -24.3209   21.1678 C   0  0  0  0  0  0  0  0  0  0  0  0
  -23.5239  -12.6878   20.7989 C   0  0  0  0  0  0  0  0  0  0  0  0
  -25.7596  -11.9342   21.3191 C   0  0  0  0  0  0  0  0  0  0  0  0
  -17.9059  -25.6866   21.7161 C   0  0  0  0  0  0  0  0  0  0  0  0
  -20.6646  -25.3648   21.5357 C   0  0  0  0  0  0  0  0  0  0  0  0
  -24.5506  -23.7997   24.3808 C   0  0  0  0  0  0  0  0  0  0  0  0
  -23.1551  -11.3791   20.4879 C   0  0  0  0  0  0  0  0  0  0  0  0
  -25.3908  -10.6254   21.0081 C   0  0  0  0  0  0  0  0  0  0  0  0
  -25.6118  -23.1789   23.7232 C   0  0  0  0  0  0  0  0  0  0  0  0
  -22.3021   -8.5671   22.1606 C   0  0  0  0  0  0  0  0  0  0  0  0
  -21.0864   -8.1002   22.6601 C   0  0  0  0  0  0  0  0  0  0  0  0
  -26.8615  -25.2406   23.8062 C   0  0  0  0  0  0  0  0  0  0  0  0
  -20.3086   -7.7137   20.4056 C   0  0  0  0  0  0  0  0  0  0  0  0
  -29.9049  -20.6367   22.2268 C   0  0  0  0  0  0  0  0  0  0  0  0
  -24.8262  -12.9654   21.2145 C   0  0  0  0  0  0  0  0  0  0  0  0
  -25.1283  -14.9476   22.7916 C   0  0  0  0  0  0  0  0  0  0  0  0
  -18.7482  -26.7423   22.0990 C   0  0  0  0  0  0  0  0  0  0  0  0
  -24.6328  -25.1508   24.7469 C   0  0  0  0  0  0  0  0  0  0  0  0
  -20.1438  -26.5851   21.9986 C   0  0  0  0  0  0  0  0  0  0  0  0
  -25.8010  -25.8755   24.4706 C   0  0  0  0  0  0  0  0  0  0  0  0
  -24.0885  -10.3479   20.5925 C   0  0  0  0  0  0  0  0  0  0  0  0
  -26.7663  -23.9001   23.4332 C   0  0  0  0  0  0  0  0  0  0  0  0
  -22.5211   -8.6075   20.7836 C   0  0  0  0  0  0  0  0  0  0  0  0
  -20.0896   -7.6734   21.7826 C   0  0  0  0  0  0  0  0  0  0  0  0
  -21.5244   -8.1808   19.9061 C   0  0  0  0  0  0  0  0  0  0  0  0
  -25.2079  -14.3173   21.5354 C   0  0  0  0  0  0  0  0  0  0  0  0
  -28.8924  -21.4350   21.7748 C   0  0  0  0  0  0  0  0  0  0  0  0
  -25.6081  -16.2155   22.5706 C   0  0  0  0  0  0  0  0  0  0  0  0
  -30.3654  -21.2075   20.1381 C   0  0  0  0  0  0  0  0  0  0  0  0
  -24.6625  -14.4331   24.0462 C   0  0  0  0  0  0  0  0  0  0  0  0
  -23.0130  -27.7808   23.9964 C   0  0  0  0  0  0  0  0  0  0  0  0
  -24.8871  -29.1180   26.2815 C   0  0  0  0  0  0  0  0  0  0  0  0
  -27.7918  -29.0182   28.0703 C   0  0  0  0  0  0  0  0  0  0  0  0
  -29.3434  -18.4631   18.7492 C   0  0  0  0  0  0  0  0  0  0  0  0
  -18.1263  -28.0424   22.5438 C   0  0  0  0  0  0  0  0  0  0  0  0
  -23.4900  -25.7986   25.4795 C   0  0  0  0  0  0  0  0  0  0  0  0
  -25.9473  -27.3229   24.8605 C   0  0  0  0  0  0  0  0  0  0  0  0
  -19.1008  -28.9671   23.2686 C   0  0  0  0  0  0  0  0  0  0  0  0
  -26.0048  -19.5378   19.1623 C   0  0  0  0  0  0  0  0  0  0  0  0
  -20.4187  -29.0575   22.5058 C   0  0  0  0  0  0  0  0  0  0  0  0
  -25.4044  -18.3678   19.9404 C   0  0  0  0  0  0  0  0  0  0  0  0
  -26.9727  -19.0682   18.0746 C   0  0  0  0  0  0  0  0  0  0  0  0
  -27.4385  -16.9988   19.3487 C   0  0  0  0  0  0  0  0  0  0  0  0
  -21.0970  -27.6854   22.4119 C   0  0  1  0  0  0  0  0  0  0  0  0
  -23.4804  -27.3184   25.3475 C   0  0  1  0  0  0  0  0  0  0  0  0
  -26.5084  -17.4462   20.4869 C   0  0  2  0  0  0  0  0  0  0  0  0
  -29.0602  -30.2679   29.8386 C   0  0  0  0  0  0  0  0  0  0  0  0
  -32.4693  -21.9767   18.8425 C   0  0  0  0  0  0  0  0  0  0  0  0
  -30.2053  -22.2732   17.8718 C   0  0  0  0  0  0  0  0  0  0  0  0
  -25.6855  -31.2205   24.2194 C   0  0  0  0  0  0  0  0  0  0  0  0
  -27.6112  -31.8366   25.6959 C   0  0  0  0  0  0  0  0  0  0  0  0
  -25.2726  -32.1170   26.5173 C   0  0  0  0  0  0  0  0  0  0  0  0
  -32.0306  -19.7448   21.2441 C   0  0  0  0  0  0  0  0  0  0  0  0
  -29.4052  -19.4632   16.4252 C   0  0  0  0  0  0  0  0  0  0  0  0
  -27.7290  -26.7045   29.9147 C   0  0  0  0  0  0  0  0  0  0  0  0
  -27.6405  -21.9223   22.4433 C   0  0  0  0  0  0  0  0  0  1  0  0
  -31.1767  -19.9640   18.0675 C   0  0  0  0  0  0  0  0  0  0  0  0
  -26.2384  -29.7909   26.2971 C   0  0  1  0  0  0  0  0  0  0  0  0
  -28.0640  -29.1537   29.5576 C   0  0  2  0  0  0  0  0  0  0  0  0
  -31.0327  -21.3395   18.8190 C   0  0  0  0  0  0  0  0  0  0  0  0
  -26.1987  -31.2145   25.6732 C   0  0  0  0  0  0  0  0  0  0  0  0
  -25.6994  -15.1186   20.5866 N   0  0  0  0  0  0  0  0  0  0  0  0
  -30.8021  -20.5124   21.1934 N   0  0  0  0  0  0  0  0  0  0  0  0
  -25.9329  -16.2656   21.2469 N   0  0  0  0  0  0  0  0  0  0  0  0
  -29.2035  -21.7737   20.4800 N   0  3  0  0  0  0  0  0  0  0  0  0
  -24.7999  -27.9134   25.5693 N   0  0  0  0  0  0  0  0  0  0  0  0
  -27.9805  -18.1542   18.6295 N   0  0  0  0  0  0  0  0  0  0  0  0
  -25.7794  -17.2812   23.3812 N   0  0  0  0  0  0  0  0  0  0  0  0
  -24.2038  -13.1097   24.0967 N   0  0  0  0  0  0  0  0  0  0  0  0
  -21.7415  -27.3534   23.6644 N   0  0  0  0  0  0  0  0  0  0  0  0
  -26.6948  -29.7581   27.6824 N   0  0  0  0  0  0  0  0  0  0  0  0
  -29.8895  -19.3387   17.7987 N   0  0  0  0  0  0  0  0  0  0  0  0
  -28.6167  -27.8810   30.1011 N   0  3  0  0  0  0  0  0  0  0  0  0
  -24.6379  -15.1315   25.0878 O   0  0  0  0  0  0  0  0  0  0  0  0
  -23.7506  -28.4751   23.3068 O   0  0  0  0  0  0  0  0  0  0  0  0
  -23.9455  -29.6382   26.8851 O   0  0  0  0  0  0  0  0  0  0  0  0
  -28.4853  -28.3282   27.3264 O   0  0  0  0  0  0  0  0  0  0  0  0
  -30.0380  -17.9773   19.6513 O   0  0  0  0  0  0  0  0  0  0  0  0
  -23.7289   -9.0707   20.2893 O   0  0  0  0  0  0  0  0  0  0  0  0
  -27.8032  -23.2967   22.7909 O   0  0  0  0  0  0  0  0  0  1  0  0
  -18.9228   -7.2236   22.2625 F   0  0  0  0  0  0  0  0  0  0  0  0
  -21.7293   -8.2161   18.5823 F   0  0  0  0  0  0  0  0  0  0  0  0
  1  2  1  0  0  0  0
  1  5  2  0  0  0  0
  2  6  2  0  0  0  0
  3  8  2  0  0  0  0
  3 16  1  0  0  0  0
  4  9  1  0  0  0  0
  4 16  2  0  0  0  0
  5 18  1  0  0  0  0
  6 20  1  0  0  0  0
  7 10  2  0  0  0  0
  7 19  1  0  0  0  0
  8 22  1  0  0  0  0
  9 22  2  0  0  0  0
 10 23  1  0  0  0  0
 11 12  2  0  0  0  0
 11 24  1  0  0  0  0
 12 25  1  0  0  0  0
 13 21  1  0  0  0  0
 13 23  2  0  0  0  0
 14 25  2  0  0  0  0
 14 26  1  0  0  0  0
 15 28  2  0  0  0  0
 15 64  1  0  0  0  0
 16 27  1  0  0  0  0
 17 27  1  0  0  0  0
 17 29  2  0  0  0  0
 17 31  1  0  0  0  0
 18 20  2  0  0  0  0
 18 36  1  0  0  0  0
 19 21  2  0  0  0  0
 19 37  1  0  0  0  0
 20 45  1  0  0  0  0
 21 38  1  0  0  0  0
 22 80  1  0  0  0  0
 23 81  1  0  0  0  0
 24 26  2  0  0  0  0
 24 80  1  0  0  0  0
 25 82  1  0  0  0  0
 26 83  1  0  0  0  0
 27 63  2  0  0  0  0
 28 57  1  0  0  0  0
 28 66  1  0  0  0  0
 29 65  1  0  0  0  0
 29 69  1  0  0  0  0
 30 61  1  0  0  0  0
 30 64  1  0  0  0  0
 30 66  2  0  0  0  0
 31 70  1  0  0  0  0
 31 75  2  0  0  0  0
 32 46  1  0  0  0  0
 32 71  1  0  0  0  0
 32 76  2  0  0  0  0
 33 59  1  0  0  0  0
 33 67  1  0  0  0  0
 33 77  2  0  0  0  0
 34 60  1  0  0  0  0
 34 72  1  0  0  0  0
 34 78  2  0  0  0  0
 35 68  1  0  0  0  0
 35 73  1  0  0  0  0
 35 79  2  0  0  0  0
 36 39  1  0  0  0  0
 37 46  1  0  0  0  0
 38 67  1  0  0  0  0
 39 41  1  0  0  0  0
 40 42  1  0  0  0  0
 40 43  1  0  0  0  0
 41 45  1  0  0  0  0
 42 47  1  0  0  0  0
 43 68  1  0  0  0  0
 44 47  1  0  0  0  0
 44 68  1  0  0  0  0
 45 71  1  0  0  0  0
 46 67  1  0  0  0  0
 47 65  1  0  0  0  0
 48 60  1  0  0  0  0
 49 61  1  0  0  0  0
 50 61  1  0  0  0  0
 51 62  1  0  0  0  0
 52 62  1  0  0  0  0
 53 62  1  0  0  0  0
 54 64  1  0  0  0  0
 55 73  1  0  0  0  0
 56 74  1  0  0  0  0
 57 81  1  0  0  0  0
 58 61  1  0  0  0  0
 58 73  1  0  0  0  0
 59 62  1  0  0  0  0
 59 72  1  0  0  0  0
 60 74  1  0  0  0  0
 63 65  1  0  0  0  0
M  CHG  2  66   1  74   1
M  ISO  4  35 100  57 101  73 100  81 101
M  END
> <Batch ID>
0058

> <Smiles>
CNC(C)C(=O)NC(C(=O)N1Cc2cc([101O:1][101CH2:1]c3cn(C)c(C(C)(C)C[100N:0](C)[100C:0](=O)N4CCCC(n5nc(-c6ccc(Oc7ccc(F)cc7F)cc6)c(C(N)=O)c5N)C4)n3)ccc2CC1C(=O)NC1CCCc2ccccc21)C(C)(C)C

> <Shape>
0.213

> <Color>
0.084

> <Negative vol penalty>
0.000

$$$$

  -OEChem-04052317503D

 86 94  0     1  0  0  0  0  0999 V2000
  -29.2728  -23.1908   22.0038 C   0  0  0  0  0  0  0  0  0  0  0  0
  -28.0883  -22.4633   21.9477 C   0  0  0  0  0  0  0  0  0  0  0  0
  -24.4167  -30.0396   20.6054 C   0  0  0  0  0  0  0  0  0  0  0  0
  -24.5144  -28.6918   22.6082 C   0  0  0  0  0  0  0  0  0  0  0  0
  -30.3731  -22.7885   21.2478 C   0  0  0  0  0  0  0  0  0  0  0  0
  -28.0030  -21.3337   21.1346 C   0  0  0  0  0  0  0  0  0  0  0  0
  -25.7691  -17.4297   23.4613 C   0  0  0  0  0  0  0  0  0  0  0  0
  -24.0821  -31.1554   21.3726 C   0  0  0  0  0  0  0  0  0  0  0  0
  -24.1798  -29.8077   23.3754 C   0  0  0  0  0  0  0  0  0  0  0  0
  -24.3785  -17.4567   23.5573 C   0  0  0  0  0  0  0  0  0  0  0  0
  -25.6774  -33.3939   23.3416 C   0  0  0  0  0  0  0  0  0  0  0  0
  -26.3352  -34.5922   23.0642 C   0  0  0  0  0  0  0  0  0  0  0  0
  -24.2257  -15.9481   21.6812 C   0  0  0  0  0  0  0  0  0  0  0  0
  -24.2163  -35.6395   22.5639 C   0  0  0  0  0  0  0  0  0  0  0  0
  -19.0389  -20.4302   22.3612 C   0  0  0  0  0  0  0  0  0  0  0  0
  -24.6328  -28.8078   21.2232 C   0  0  0  0  0  0  0  0  0  0  0  0
  -26.2701  -27.2222   20.0773 C   0  0  0  0  0  0  0  0  0  0  0  0
  -30.3043  -21.6478   20.4325 C   0  0  0  0  0  0  0  0  0  0  0  0
  -26.3992  -16.6690   22.4659 C   0  0  0  0  0  0  0  0  0  0  0  0
  -29.1029  -20.9165   20.3660 C   0  0  0  0  0  0  0  0  0  0  0  0
  -25.6245  -15.9111   21.5762 C   0  0  0  0  0  0  0  0  0  0  0  0
  -23.9637  -31.0395   22.7576 C   0  0  0  0  0  0  0  0  0  0  0  0
  -23.6065  -16.7181   22.6654 C   0  0  0  0  0  0  0  0  0  0  0  0
  -24.2891  -33.3183   23.2300 C   0  0  0  0  0  0  0  0  0  0  0  0
  -25.6047  -35.7150   22.6754 C   0  0  0  0  0  0  0  0  0  0  0  0
  -23.5585  -34.4411   22.8412 C   0  0  0  0  0  0  0  0  0  0  0  0
  -24.9779  -27.6547   20.4312 C   0  0  0  0  0  0  0  0  0  0  0  0
  -19.7919  -19.3252   22.0801 C   0  0  0  0  0  0  0  0  0  0  0  0
  -26.0601  -26.0909   19.3273 C   0  0  0  0  0  0  0  0  0  0  0  0
  -20.8442  -21.0944   21.2657 C   0  0  0  0  0  0  0  0  0  0  0  0
  -27.5460  -27.7921   20.3981 C   0  0  0  0  0  0  0  0  0  0  0  0
  -28.2972  -17.3288   20.0030 C   0  0  0  0  0  0  0  0  0  0  0  0
  -21.4962  -22.1857   19.1472 C   0  0  0  0  0  0  0  0  0  0  0  0
  -28.4656  -14.0978   19.7684 C   0  0  0  0  0  0  0  0  0  0  0  0
  -27.0365  -11.0674   20.4172 C   0  0  0  0  0  0  0  0  0  0  0  0
  -31.5047  -21.2791   19.5971 C   0  0  0  0  0  0  0  0  0  0  0  0
  -27.9010  -16.6293   22.3925 C   0  0  0  0  0  0  0  0  0  0  0  0
  -26.2528  -15.0622   20.5025 C   0  0  0  0  0  0  0  0  0  0  0  0
  -31.4511  -19.8555   19.0488 C   0  0  0  0  0  0  0  0  0  0  0  0
  -22.8645  -24.0586   16.4159 C   0  0  0  0  0  0  0  0  0  0  0  0
  -30.0782  -19.5650   18.4508 C   0  0  0  0  0  0  0  0  0  0  0  0
  -23.6555  -25.1705   17.1037 C   0  0  0  0  0  0  0  0  0  0  0  0
  -21.6040  -23.7040   17.1985 C   0  0  0  0  0  0  0  0  0  0  0  0
  -22.6484  -24.4475   19.3146 C   0  0  0  0  0  0  0  0  0  0  0  0
  -28.9792  -19.6713   19.5150 C   0  0  1  0  0  0  0  0  0  0  0  0
  -28.4215  -16.2263   21.0163 C   0  0  1  0  0  0  0  0  0  0  0  0
  -23.9457  -24.8151   18.5727 C   0  0  2  0  0  0  0  0  0  0  0  0
  -27.3909   -8.6075   20.0699 C   0  0  0  0  0  0  0  0  0  0  0  0
  -19.7722  -25.8702   22.4384 C   0  0  0  0  0  0  0  0  0  0  0  0
  -19.2653  -25.4557   24.8535 C   0  0  0  0  0  0  0  0  0  0  0  0
  -27.6242  -14.3910   16.8502 C   0  0  0  0  0  0  0  0  0  0  0  0
  -27.0794  -11.9475   16.8343 C   0  0  0  0  0  0  0  0  0  0  0  0
  -29.4210  -12.6988   17.2528 C   0  0  0  0  0  0  0  0  0  0  0  0
  -27.1146  -10.5496   23.3301 C   0  0  0  0  0  0  0  0  0  0  0  0
  -19.5730  -17.8656   22.3886 C   0  0  0  0  0  0  0  0  0  0  0  0
  -20.1640  -17.4240   23.7292 C   0  0  0  0  0  0  0  0  0  0  0  0
  -19.5056  -23.4887   23.3095 C   0  0  0  0  0  0  0  0  0  0  0  0
  -19.2663  -22.8870   21.9232 C   0  0  0  0  0  0  0  0  0  0  0  0
  -23.2989  -21.3758   20.6211 C   0  0  0  0  0  0  0  0  0  0  0  0
  -21.6821  -17.5477   23.7898 C   0  0  0  0  0  0  0  0  0  1  0  0
  -21.8617  -21.9366   20.5888 C   0  0  2  0  0  0  0  0  0  0  0  0
  -27.6719  -13.0355   19.0470 C   0  0  1  0  0  0  0  0  0  0  0  0
  -27.6081   -9.7888   21.0027 C   0  0  2  0  0  0  0  0  0  0  0  0
  -19.0467  -24.9534   23.4243 C   0  0  0  0  0  0  0  0  0  0  0  0
  -27.9369  -13.0356   17.5150 C   0  0  0  0  0  0  0  0  0  0  0  0
  -24.0182  -26.8627   19.9457 N   0  0  0  0  0  0  0  0  0  0  0  0
  -19.7140  -21.5105   21.8462 N   0  0  0  0  0  0  0  0  0  0  0  0
  -24.7077  -25.9213   19.2790 N   0  0  0  0  0  0  0  0  0  0  0  0
  -20.9027  -19.7657   21.4017 N   0  3  0  0  0  0  0  0  0  0  0  0
  -27.7247  -15.0613   20.4674 N   0  0  0  0  0  0  0  0  0  0  0  0
  -21.9191  -23.3946   18.5943 N   0  0  0  0  0  0  0  0  0  0  0  0
  -26.9023  -25.2346   18.7108 N   0  0  0  0  0  0  0  0  0  0  0  0
  -27.5809  -28.9557   21.1785 N   0  0  0  0  0  0  0  0  0  0  0  0
  -28.9660  -18.4878   20.3478 N   0  0  0  0  0  0  0  0  0  0  0  0
  -27.9851  -11.7729   19.7075 N   0  0  0  0  0  0  0  0  0  0  0  0
  -23.7349  -21.1993   22.0294 N   0  3  0  0  0  0  0  0  0  0  0  0
  -26.9594   -9.4819   22.3088 N   0  3  0  0  0  0  0  0  0  0  0  0
  -28.6226  -27.2937   19.9905 O   0  0  0  0  0  0  0  0  0  0  0  0
  -27.6442  -17.1412   18.9832 O   0  0  0  0  0  0  0  0  0  0  0  0
  -20.8565  -21.3289   18.5317 O   0  0  0  0  0  0  0  0  0  0  0  0
  -29.6979  -14.0696   19.7196 O   0  0  0  0  0  0  0  0  0  0  0  0
  -25.8646  -11.4046   20.5707 O   0  0  0  0  0  0  0  0  0  0  0  0
  -23.6374  -32.1281   23.5065 O   0  0  0  0  0  0  0  0  0  0  0  0
  -22.2489  -16.7432   22.7565 O   0  0  0  0  0  0  0  0  0  1  0  0
  -26.2363  -36.8661   22.4106 F   0  0  0  0  0  0  0  0  0  0  0  0
  -22.2244  -34.3750   22.7334 F   0  0  0  0  0  0  0  0  0  0  0  0
  1  2  1  0  0  0  0
  1  5  2  0  0  0  0
  2  6  2  0  0  0  0
  3  8  2  0  0  0  0
  3 16  1  0  0  0  0
  4  9  1  0  0  0  0
  4 16  2  0  0  0  0
  5 18  1  0  0  0  0
  6 20  1  0  0  0  0
  7 10  2  0  0  0  0
  7 19  1  0  0  0  0
  8 22  1  0  0  0  0
  9 22  2  0  0  0  0
 10 23  1  0  0  0  0
 11 12  2  0  0  0  0
 11 24  1  0  0  0  0
 12 25  1  0  0  0  0
 13 21  1  0  0  0  0
 13 23  2  0  0  0  0
 14 25  2  0  0  0  0
 14 26  1  0  0  0  0
 15 28  2  0  0  0  0
 15 67  1  0  0  0  0
 16 27  1  0  0  0  0
 17 27  1  0  0  0  0
 17 29  2  0  0  0  0
 17 31  1  0  0  0  0
 18 20  2  0  0  0  0
 18 36  1  0  0  0  0
 19 21  2  0  0  0  0
 19 37  1  0  0  0  0
 20 45  1  0  0  0  0
 21 38  1  0  0  0  0
 22 83  1  0  0  0  0
 23 84  1  0  0  0  0
 24 26  2  0  0  0  0
 24 83  1  0  0  0  0
 25 85  1  0  0  0  0
 26 86  1  0  0  0  0
 27 66  2  0  0  0  0
 28 55  1  0  0  0  0
 28 69  1  0  0  0  0
 29 68  1  0  0  0  0
 29 72  1  0  0  0  0
 30 61  1  0  0  0  0
 30 67  1  0  0  0  0
 30 69  2  0  0  0  0
 31 73  1  0  0  0  0
 31 78  2  0  0  0  0
 32 46  1  0  0  0  0
 32 74  1  0  0  0  0
 32 79  2  0  0  0  0
 33 61  1  0  0  0  0
 33 71  1  0  0  0  0
 33 80  2  0  0  0  0
 34 62  1  0  0  0  0
 34 70  1  0  0  0  0
 34 81  2  0  0  0  0
 35 63  1  0  0  0  0
 35 75  1  0  0  0  0
 35 82  2  0  0  0  0
 36 39  1  0  0  0  0
 37 46  1  0  0  0  0
 38 70  1  0  0  0  0
 39 41  1  0  0  0  0
 40 42  1  0  0  0  0
 40 43  1  0  0  0  0
 41 45  1  0  0  0  0
 42 47  1  0  0  0  0
 43 71  1  0  0  0  0
 44 47  1  0  0  0  0
 44 71  1  0  0  0  0
 45 74  1  0  0  0  0
 46 70  1  0  0  0  0
 47 68  1  0  0  0  0
 48 63  1  0  0  0  0
 49 64  1  0  0  0  0
 50 64  1  0  0  0  0
 51 65  1  0  0  0  0
 52 65  1  0  0  0  0
 53 65  1  0  0  0  0
 54 77  1  0  0  0  0
 55 56  1  0  0  0  0
 56 60  1  0  0  0  0
 57 58  1  0  0  0  0
 57 64  1  0  0  0  0
 58 67  1  0  0  0  0
 59 61  1  0  0  0  0
 59 76  1  0  0  0  0
 60 84  1  0  0  0  0
 62 65  1  0  0  0  0
 62 75  1  0  0  0  0
 63 77  1  0  0  0  0
 66 68  1  0  0  0  0
M  CHG  3  69   1  76   1  77   1
M  ISO  4  33 100  60 101  61 100  84 101
M  END
> <Batch ID>
0058

> <Smiles>
CNC(C)C(=O)NC(C(=O)N1Cc2cc([101O:1][101CH2:1]CCc3cn(CCC(C)C)c([100CH:0](CN)[100C:0](=O)N4CCCC(n5nc(-c6ccc(Oc7ccc(F)cc7F)cc6)c(C(N)=O)c5N)C4)n3)ccc2CC1C(=O)NC1CCCc2ccccc21)C(C)(C)C

> <Shape>
0.217

> <Color>
0.053

> <Negative vol penalty>
0.000

$$$$

  -OEChem-04052317503D

 86 94  0     1  0  0  0  0  0999 V2000
  -30.1039  -25.5995   28.2285 C   0  0  0  0  0  0  0  0  0  0  0  0
  -30.5662  -24.6858   27.2868 C   0  0  0  0  0  0  0  0  0  0  0  0
  -23.2487   -9.8640   19.8337 C   0  0  0  0  0  0  0  0  0  0  0  0
  -23.7962   -9.8632   22.1869 C   0  0  0  0  0  0  0  0  0  0  0  0
  -29.2495  -26.6297   27.8376 C   0  0  0  0  0  0  0  0  0  0  0  0
  -30.1736  -24.8011   25.9538 C   0  0  0  0  0  0  0  0  0  0  0  0
  -33.5262  -23.4826   21.0013 C   0  0  0  0  0  0  0  0  0  0  0  0
  -22.5300   -8.6803   20.0005 C   0  0  0  0  0  0  0  0  0  0  0  0
  -23.0774   -8.6795   22.3537 C   0  0  0  0  0  0  0  0  0  0  0  0
  -33.5740  -22.3631   20.1718 C   0  0  0  0  0  0  0  0  0  0  0  0
  -19.8408   -7.7532   22.6488 C   0  0  0  0  0  0  0  0  0  0  0  0
  -18.9826   -7.6669   23.7450 C   0  0  0  0  0  0  0  0  0  0  0  0
  -32.0606  -23.4443   18.6355 C   0  0  0  0  0  0  0  0  0  0  0  0
  -20.2253   -5.7654   24.5680 C   0  0  0  0  0  0  0  0  0  0  0  0
  -23.8819  -10.4554   20.9269 C   0  0  0  0  0  0  0  0  0  0  0  0
  -24.1361  -12.9931   20.8696 C   0  0  0  0  0  0  0  0  0  0  0  0
  -28.8539  -26.7634   26.4974 C   0  0  0  0  0  0  0  0  0  0  0  0
  -32.7354  -24.5889   20.6589 C   0  0  0  0  0  0  0  0  0  0  0  0
  -29.3121  -25.8332   25.5448 C   0  0  0  0  0  0  0  0  0  0  0  0
  -32.0066  -24.5777   19.4611 C   0  0  0  0  0  0  0  0  0  0  0  0
  -22.4443   -8.0880   21.2605 C   0  0  0  0  0  0  0  0  0  0  0  0
  -32.8389  -22.3426   18.9901 C   0  0  0  0  0  0  0  0  0  0  0  0
  -20.8912   -6.8456   22.5121 C   0  0  0  0  0  0  0  0  0  0  0  0
  -19.1749   -6.6730   24.7046 C   0  0  0  0  0  0  0  0  0  0  0  0
  -21.0835   -5.8518   23.4718 C   0  0  0  0  0  0  0  0  0  0  0  0
  -24.6250  -11.6779   20.7552 C   0  0  0  0  0  0  0  0  0  0  0  0
  -25.2272  -13.7882   20.6169 C   0  0  0  0  0  0  0  0  0  0  0  0
  -30.1578  -19.0444   19.1088 C   0  0  0  0  0  0  0  0  0  0  0  0
  -29.2664  -17.8361   20.7768 C   0  0  0  0  0  0  0  0  0  0  0  0
  -29.0840  -20.0730   20.7899 C   0  0  0  0  0  0  0  0  0  0  0  0
  -22.8140  -13.4548   21.1769 C   0  0  0  0  0  0  0  0  0  0  0  0
  -30.2443  -26.0592   21.9765 C   0  0  0  0  0  0  0  0  0  0  0  0
  -30.7118  -28.1751   19.5626 C   0  0  0  0  0  0  0  0  0  0  0  0
  -31.9527  -28.7825   16.4421 C   0  0  0  0  0  0  0  0  0  0  0  0
  -30.7224  -14.6985   21.7535 C   0  0  0  0  0  0  0  0  0  0  0  0
  -27.8913  -27.8651   26.1310 C   0  0  0  0  0  0  0  0  0  0  0  0
  -32.7157  -25.7996   21.5513 C   0  0  0  0  0  0  0  0  0  0  0  0
  -31.1581  -25.7479   19.0381 C   0  0  0  0  0  0  0  0  0  0  0  0
  -27.8217  -28.1393   24.6310 C   0  0  0  0  0  0  0  0  0  0  0  0
  -29.8029  -12.6524   18.8091 C   0  0  0  0  0  0  0  0  0  0  0  0
  -27.7027  -26.8319   23.8542 C   0  0  0  0  0  0  0  0  0  0  0  0
  -28.3540  -12.2710   19.1078 C   0  0  0  0  0  0  0  0  0  0  0  0
  -30.6041  -12.8818   20.0870 C   0  0  0  0  0  0  0  0  0  0  0  0
  -28.5439  -13.4941   21.3097 C   0  0  0  0  0  0  0  0  0  0  0  0
  -28.9284  -25.9397   24.0849 C   0  0  1  0  0  0  0  0  0  0  0  0
  -31.4733  -26.6637   21.3585 C   0  0  1  0  0  0  0  0  0  0  0  0
  -27.6971  -13.3013   20.0428 C   0  0  2  0  0  0  0  0  0  0  0  0
  -32.1505  -30.5966   14.7195 C   0  0  0  0  0  0  0  0  0  0  0  0
  -27.7753  -27.7932   18.8267 C   0  0  0  0  0  0  0  0  0  0  0  0
  -28.2672  -28.8422   16.6073 C   0  0  0  0  0  0  0  0  0  0  0  0
  -28.5827  -30.1569   18.7036 C   0  0  0  0  0  0  0  0  0  0  0  0
  -30.9603  -16.8926   22.8530 C   0  0  0  0  0  0  0  0  0  0  0  0
  -34.9099  -28.7033   16.5299 C   0  0  0  0  0  0  0  0  0  0  0  0
  -30.9201  -19.1141   17.8097 C   0  0  0  0  0  0  0  0  0  0  0  0
  -28.9943  -16.5149   21.4115 C   0  0  0  0  0  0  0  0  0  0  0  0
  -32.4276  -18.9047   17.9682 C   0  0  0  0  0  0  0  0  0  0  0  0
  -33.1030  -19.9865   18.8030 C   0  0  0  0  0  0  0  0  0  1  0  0
  -30.2119  -28.3063   18.1442 C   0  0  1  0  0  0  0  0  0  0  0  0
  -32.8147  -29.9096   15.9026 C   0  0  2  0  0  0  0  0  0  0  0  0
  -28.6023  -21.3253   21.4397 C   0  0  0  0  0  0  0  0  0  0  0  0
  -28.7237  -28.7516   18.0791 C   0  0  0  0  0  0  0  0  0  0  0  0
  -25.9254  -11.6356   20.4532 N   0  0  0  0  0  0  0  0  0  0  0  0
  -29.9503  -17.8206   19.6215 N   0  0  0  0  0  0  0  0  0  0  0  0
  -29.7553  -20.2123   19.6354 N   0  0  0  0  0  0  0  0  0  0  0  0
  -28.8025  -18.9204   21.4187 N   0  0  0  0  0  0  0  0  0  0  0  0
  -26.2629  -12.9341   20.3756 N   0  0  0  0  0  0  0  0  0  0  0  0
  -31.1665  -26.9058   19.9473 N   0  0  0  0  0  0  0  0  0  0  0  0
  -29.9358  -13.8323   20.9765 N   0  0  0  0  0  0  0  0  0  0  0  0
  -25.3922  -15.1275   20.5798 N   0  0  0  0  0  0  0  0  0  0  0  0
  -21.8112  -12.5036   21.4091 N   0  0  0  0  0  0  0  0  0  0  0  0
  -30.0498  -26.4085   23.2993 N   0  0  0  0  0  0  0  0  0  0  0  0
  -31.1362  -29.2099   17.4676 N   0  0  0  0  0  0  0  0  0  0  0  0
  -30.1783  -15.9550   22.0597 N   0  0  0  0  0  0  0  0  0  0  0  0
  -34.1369  -29.3840   15.4594 N   0  3  0  0  0  0  0  0  0  0  0  0
  -22.5265  -14.6748   21.2275 O   0  0  0  0  0  0  0  0  0  0  0  0
  -29.5249  -25.3311   21.3027 O   0  0  0  0  0  0  0  0  0  0  0  0
  -30.7058  -29.1641   20.2998 O   0  0  0  0  0  0  0  0  0  0  0  0
  -31.9965  -27.6382   15.9956 O   0  0  0  0  0  0  0  0  0  0  0  0
  -31.8507  -14.3712   22.1429 O   0  0  0  0  0  0  0  0  0  0  0  0
  -21.7428   -6.9331   21.4236 O   0  0  0  0  0  0  0  0  0  0  0  0
  -32.8832  -21.2508   18.1790 O   0  0  0  0  0  0  0  0  0  1  0  0
  -18.3517   -6.5912   25.7581 F   0  0  0  0  0  0  0  0  0  0  0  0
  -22.0916   -4.9777   23.3465 F   0  0  0  0  0  0  0  0  0  0  0  0
  -28.9222  -22.4595   20.7484 F   0  0  0  0  0  0  0  0  0  0  0  0
  -27.2459  -21.3744   21.5951 F   0  0  0  0  0  0  0  0  0  0  0  0
  -29.1202  -21.5014   22.6904 F   0  0  0  0  0  0  0  0  0  0  0  0
  1  2  1  0  0  0  0
  1  5  2  0  0  0  0
  2  6  2  0  0  0  0
  3  8  2  0  0  0  0
  3 15  1  0  0  0  0
  4  9  1  0  0  0  0
  4 15  2  0  0  0  0
  5 17  1  0  0  0  0
  6 19  1  0  0  0  0
  7 10  2  0  0  0  0
  7 18  1  0  0  0  0
  8 21  1  0  0  0  0
  9 21  2  0  0  0  0
 10 22  1  0  0  0  0
 11 12  2  0  0  0  0
 11 23  1  0  0  0  0
 12 24  1  0  0  0  0
 13 20  1  0  0  0  0
 13 22  2  0  0  0  0
 14 24  2  0  0  0  0
 14 25  1  0  0  0  0
 15 26  1  0  0  0  0
 16 26  1  0  0  0  0
 16 27  2  0  0  0  0
 16 31  1  0  0  0  0
 17 19  2  0  0  0  0
 17 36  1  0  0  0  0
 18 20  2  0  0  0  0
 18 37  1  0  0  0  0
 19 45  1  0  0  0  0
 20 38  1  0  0  0  0
 21 80  1  0  0  0  0
 22 81  1  0  0  0  0
 23 25  2  0  0  0  0
 23 80  1  0  0  0  0
 24 82  1  0  0  0  0
 25 83  1  0  0  0  0
 26 62  2  0  0  0  0
 27 66  1  0  0  0  0
 27 69  1  0  0  0  0
 28 54  1  0  0  0  0
 28 63  1  0  0  0  0
 28 64  2  0  0  0  0
 29 55  1  0  0  0  0
 29 63  2  0  0  0  0
 29 65  1  0  0  0  0
 30 60  1  0  0  0  0
 30 64  1  0  0  0  0
 30 65  2  0  0  0  0
 31 70  1  0  0  0  0
 31 75  2  0  0  0  0
 32 46  1  0  0  0  0
 32 71  1  0  0  0  0
 32 76  2  0  0  0  0
 33 58  1  0  0  0  0
 33 67  1  0  0  0  0
 33 77  2  0  0  0  0
 34 59  1  0  0  0  0
 34 72  1  0  0  0  0
 34 78  2  0  0  0  0
 35 68  1  0  0  0  0
 35 73  1  0  0  0  0
 35 79  2  0  0  0  0
 36 39  1  0  0  0  0
 37 46  1  0  0  0  0
 38 67  1  0  0  0  0
 39 41  1  0  0  0  0
 40 42  1  0  0  0  0
 40 43  1  0  0  0  0
 41 45  1  0  0  0  0
 42 47  1  0  0  0  0
 43 68  1  0  0  0  0
 44 47  1  0  0  0  0
 44 68  1  0  0  0  0
 45 71  1  0  0  0  0
 46 67  1  0  0  0  0
 47 66  1  0  0  0  0
 48 59  1  0  0  0  0
 49 61  1  0  0  0  0
 50 61  1  0  0  0  0
 51 61  1  0  0  0  0
 52 73  1  0  0  0  0
 53 74  1  0  0  0  0
 54 56  1  0  0  0  0
 55 73  1  0  0  0  0
 56 57  1  0  0  0  0
 57 81  1  0  0  0  0
 58 61  1  0  0  0  0
 58 72  1  0  0  0  0
 59 74  1  0  0  0  0
 60 84  1  0  0  0  0
 60 85  1  0  0  0  0
 60 86  1  0  0  0  0
 62 66  1  0  0  0  0
M  CHG  1  74   1
M  ISO  4  35 100  57 101  73 100  81 101
M  END
> <Batch ID>
0058

> <Smiles>
CNC(C)C(=O)NC(C(=O)N1Cc2cc([101O:1][101CH2:1]CCc3nc(C[100N:0](C)[100C:0](=O)N4CCCC(n5nc(-c6ccc(Oc7ccc(F)cc7F)cc6)c(C(N)=O)c5N)C4)nc(C(F)(F)F)n3)ccc2CC1C(=O)NC1CCCc2ccccc21)C(C)(C)C

> <Shape>
0.255

> <Color>
0.203

> <Negative vol penalty>
0.000

$$$$

  -OEChem-04052317503D

 84 92  0     1  0  0  0  0  0999 V2000
  -25.1970  -31.3452   16.1212 C   0  0  0  0  0  0  0  0  0  0  0  0
  -25.5035  -29.9944   15.9913 C   0  0  0  0  0  0  0  0  0  0  0  0
  -23.1541   -9.7174   20.0415 C   0  0  0  0  0  0  0  0  0  0  0  0
  -23.8684   -9.9105   22.3414 C   0  0  0  0  0  0  0  0  0  0  0  0
  -25.7534  -32.0881   17.1616 C   0  0  0  0  0  0  0  0  0  0  0  0
  -26.3674  -29.3860   16.9011 C   0  0  0  0  0  0  0  0  0  0  0  0
  -24.6695  -24.8840   18.4804 C   0  0  0  0  0  0  0  0  0  0  0  0
  -22.4514   -8.5546   20.3574 C   0  0  0  0  0  0  0  0  0  0  0  0
  -23.1657   -8.7477   22.6573 C   0  0  0  0  0  0  0  0  0  0  0  0
  -24.8314  -23.8031   17.6148 C   0  0  0  0  0  0  0  0  0  0  0  0
  -21.2643   -6.0292   24.1448 C   0  0  0  0  0  0  0  0  0  0  0  0
  -20.4877   -6.0345   25.3034 C   0  0  0  0  0  0  0  0  0  0  0  0
  -26.7683  -23.0977   18.8678 C   0  0  0  0  0  0  0  0  0  0  0  0
  -19.1824   -7.8657   24.4203 C   0  0  0  0  0  0  0  0  0  0  0  0
  -29.5438  -17.2842   19.4710 C   0  0  0  0  0  0  0  0  0  0  0  0
  -28.0275  -17.4493   21.0617 C   0  0  0  0  0  0  0  0  0  0  0  0
  -23.8627  -10.3953   21.0336 C   0  0  0  0  0  0  0  0  0  0  0  0
  -24.1073  -12.9183   20.7467 C   0  0  0  0  0  0  0  0  0  0  0  0
  -26.6170  -31.4862   18.0903 C   0  0  0  0  0  0  0  0  0  0  0  0
  -25.5637  -25.0864   19.5414 C   0  0  0  0  0  0  0  0  0  0  0  0
  -26.9369  -30.1219   17.9541 C   0  0  0  0  0  0  0  0  0  0  0  0
  -26.6140  -24.1805   19.7469 C   0  0  0  0  0  0  0  0  0  0  0  0
  -22.4572   -8.0698   21.6653 C   0  0  0  0  0  0  0  0  0  0  0  0
  -25.8826  -22.9114   17.8067 C   0  0  0  0  0  0  0  0  0  0  0  0
  -21.0000   -6.9423   23.1239 C   0  0  0  0  0  0  0  0  0  0  0  0
  -19.4467   -6.9527   25.4412 C   0  0  0  0  0  0  0  0  0  0  0  0
  -19.9590   -7.8605   23.2616 C   0  0  0  0  0  0  0  0  0  0  0  0
  -24.5892  -11.5962   20.7078 C   0  0  0  0  0  0  0  0  0  0  0  0
  -28.5357  -18.1498   19.1171 C   0  0  0  0  0  0  0  0  0  0  0  0
  -25.1760  -13.6851   20.3512 C   0  0  0  0  0  0  0  0  0  0  0  0
  -22.8096  -13.4094   21.1080 C   0  0  0  0  0  0  0  0  0  0  0  0
  -27.6011  -27.3883   20.3498 C   0  0  0  0  0  0  0  0  0  0  0  0
  -30.6323  -14.8772   20.6626 C   0  0  0  0  0  0  0  0  0  0  0  0
  -27.9433  -25.6053   23.0380 C   0  0  0  0  0  0  0  0  0  0  0  0
  -27.7049  -22.5487   24.5371 C   0  0  0  0  0  0  0  0  0  0  0  0
  -27.2312  -32.3411   19.1704 C   0  0  0  0  0  0  0  0  0  0  0  0
  -25.3596  -26.2421   20.4822 C   0  0  0  0  0  0  0  0  0  0  0  0
  -27.5895  -24.3417   20.8831 C   0  0  0  0  0  0  0  0  0  0  0  0
  -27.8424  -31.5335   20.3126 C   0  0  0  0  0  0  0  0  0  0  0  0
  -29.6073  -12.3717   18.3148 C   0  0  0  0  0  0  0  0  0  0  0  0
  -28.6964  -30.3948   19.7639 C   0  0  0  0  0  0  0  0  0  0  0  0
  -28.1819  -12.0337   18.7500 C   0  0  0  0  0  0  0  0  0  0  0  0
  -30.4956  -12.6923   19.5128 C   0  0  0  0  0  0  0  0  0  0  0  0
  -28.5381  -13.4424   20.8269 C   0  0  0  0  0  0  0  0  0  0  0  0
  -27.8504  -29.4203   18.9357 C   0  0  1  0  0  0  0  0  0  0  0  0
  -26.6321  -26.6419   21.2225 C   0  0  1  0  0  0  0  0  0  0  0  0
  -27.5996  -13.1421   19.6447 C   0  0  2  0  0  0  0  0  0  0  0  0
  -30.9699  -16.5931   22.4281 C   0  0  0  0  0  0  0  0  0  0  0  0
  -28.0890  -21.3963   26.7329 C   0  0  0  0  0  0  0  0  0  0  0  0
  -30.9509  -25.6360   22.5251 C   0  0  0  0  0  0  0  0  0  0  0  0
  -31.1754  -23.7370   24.1412 C   0  0  0  0  0  0  0  0  0  0  0  0
  -30.2980  -25.9384   24.9202 C   0  0  0  0  0  0  0  0  0  0  0  0
  -24.8537  -21.7901   24.7698 C   0  0  0  0  0  0  0  0  0  0  0  0
  -24.1076  -18.8268   18.1006 C   0  0  0  0  0  0  0  0  0  0  0  0
  -28.3866  -18.9357   17.8389 C   0  0  0  0  0  0  0  0  0  0  0  0
  -27.6101  -18.1956   16.7418 C   0  0  0  0  0  0  0  0  0  0  0  0
  -26.1614  -17.8571   17.0796 C   0  0  0  0  0  0  0  0  0  0  0  0
  -25.0811  -19.8502   16.0495 C   0  0  0  0  0  0  0  0  0  0  0  0
  -24.8650  -21.3172   16.3648 C   0  0  0  0  0  0  0  0  0  1  0  0
  -29.9475  -15.9066   21.5258 C   0  0  1  0  0  0  0  0  0  0  0  0
  -28.8454  -24.4712   23.4610 C   0  0  1  0  0  0  0  0  0  0  0  0
  -27.0808  -22.1177   25.8521 C   0  0  2  0  0  0  0  0  0  0  0  0
  -30.3004  -24.9434   23.7392 C   0  0  0  0  0  0  0  0  0  0  0  0
  -27.5952  -18.2484   20.1117 N   0  0  0  0  0  0  0  0  0  0  0  0
  -25.8648  -11.5236   20.3182 N   0  0  0  0  0  0  0  0  0  0  0  0
  -29.2046  -16.8439   20.7193 N   0  0  0  0  0  0  0  0  0  0  0  0
  -26.1934  -12.8097   20.1086 N   0  0  0  0  0  0  0  0  0  0  0  0
  -27.3516  -25.4910   21.7721 N   0  0  0  0  0  0  0  0  0  0  0  0
  -29.8971  -13.7337   20.3498 N   0  0  0  0  0  0  0  0  0  0  0  0
  -25.3353  -15.0160   20.1908 N   0  0  0  0  0  0  0  0  0  0  0  0
  -21.8278  -12.4849   21.4898 N   0  0  0  0  0  0  0  0  0  0  0  0
  -27.0876  -28.5493   19.8040 N   0  0  0  0  0  0  0  0  0  0  0  0
  -28.1948  -23.8360   24.6019 N   0  0  0  0  0  0  0  0  0  0  0  0
  -25.9323  -21.2009   25.6045 N   0  3  0  0  0  0  0  0  0  0  0  0
  -25.3591  -19.1142   17.3086 N   0  3  1  0  0  0  0  0  0  0  0  0
  -22.5241  -14.6305   21.0770 O   0  0  0  0  0  0  0  0  0  0  0  0
  -28.7315  -26.9446   20.1852 O   0  0  0  0  0  0  0  0  0  0  0  0
  -31.7853  -15.0862   20.2764 O   0  0  0  0  0  0  0  0  0  0  0  0
  -27.7644  -26.5543   23.8056 O   0  0  0  0  0  0  0  0  0  0  0  0
  -27.7561  -21.8155   23.5521 O   0  0  0  0  0  0  0  0  0  0  0  0
  -21.7714   -6.9353   21.9739 O   0  0  0  0  0  0  0  0  0  0  0  0
  -26.0433  -21.8558   16.9630 O   0  0  0  0  0  0  0  0  0  1  0  0
  -18.7001   -6.9566   26.5532 F   0  0  0  0  0  0  0  0  0  0  0  0
  -19.6996   -8.7393   22.2838 F   0  0  0  0  0  0  0  0  0  0  0  0
  1  2  1  0  0  0  0
  1  5  2  0  0  0  0
  2  6  2  0  0  0  0
  3  8  2  0  0  0  0
  3 17  1  0  0  0  0
  4  9  1  0  0  0  0
  4 17  2  0  0  0  0
  5 19  1  0  0  0  0
  6 21  1  0  0  0  0
  7 10  2  0  0  0  0
  7 20  1  0  0  0  0
  8 23  1  0  0  0  0
  9 23  2  0  0  0  0
 10 24  1  0  0  0  0
 11 12  2  0  0  0  0
 11 25  1  0  0  0  0
 12 26  1  0  0  0  0
 13 22  1  0  0  0  0
 13 24  2  0  0  0  0
 14 26  2  0  0  0  0
 14 27  1  0  0  0  0
 15 29  2  0  0  0  0
 15 66  1  0  0  0  0
 16 64  2  0  0  0  0
 16 66  1  0  0  0  0
 17 28  1  0  0  0  0
 18 28  1  0  0  0  0
 18 30  2  0  0  0  0
 18 31  1  0  0  0  0
 19 21  2  0  0  0  0
 19 36  1  0  0  0  0
 20 22  2  0  0  0  0
 20 37  1  0  0  0  0
 21 45  1  0  0  0  0
 22 38  1  0  0  0  0
 23 81  1  0  0  0  0
 24 82  1  0  0  0  0
 25 27  2  0  0  0  0
 25 81  1  0  0  0  0
 26 83  1  0  0  0  0
 27 84  1  0  0  0  0
 28 65  2  0  0  0  0
 29 55  1  0  0  0  0
 29 64  1  0  0  0  0
 30 67  1  0  0  0  0
 30 70  1  0  0  0  0
 31 71  1  0  0  0  0
 31 76  2  0  0  0  0
 32 46  1  0  0  0  0
 32 72  1  0  0  0  0
 32 77  2  0  0  0  0
 33 60  1  0  0  0  0
 33 69  1  0  0  0  0
 33 78  2  0  0  0  0
 34 61  1  0  0  0  0
 34 68  1  0  0  0  0
 34 79  2  0  0  0  0
 35 62  1  0  0  0  0
 35 73  1  0  0  0  0
 35 80  2  0  0  0  0
 36 39  1  0  0  0  0
 37 46  1  0  0  0  0
 38 68  1  0  0  0  0
 39 41  1  0  0  0  0
 40 42  1  0  0  0  0
 40 43  1  0  0  0  0
 41 45  1  0  0  0  0
 42 47  1  0  0  0  0
 43 69  1  0  0  0  0
 44 47  1  0  0  0  0
 44 69  1  0  0  0  0
 45 72  1  0  0  0  0
 46 68  1  0  0  0  0
 47 67  1  0  0  0  0
 48 60  1  0  0  0  0
 49 62  1  0  0  0  0
 50 63  1  0  0  0  0
 51 63  1  0  0  0  0
 52 63  1  0  0  0  0
 53 74  1  0  0  0  0
 54 75  1  0  0  0  0
 55 56  1  0  0  0  0
 56 57  1  0  0  0  0
 57 75  1  0  0  0  0
 58 59  1  0  0  0  0
 58 75  1  0  0  0  0
 59 82  1  0  0  0  0
 60 66  1  0  0  0  0
 61 63  1  0  0  0  0
 61 73  1  0  0  0  0
 62 74  1  0  0  0  0
 65 67  1  0  0  0  0
M  CHG  2  74   1  75   1
M  ISO  4  33 100  59 101  60 100  82 101
M  END
> <Batch ID>
0058

> <Smiles>
CNC(C)C(=O)NC(C(=O)N1Cc2cc([101O:1][101CH2:1]CN(C)CCCc3cn([100CH:0](C)[100C:0](=O)N4CCCC(n5nc(-c6ccc(Oc7ccc(F)cc7F)cc6)c(C(N)=O)c5N)C4)cn3)ccc2CC1C(=O)NC1CCCc2ccccc21)C(C)(C)C

> <Shape>
0.222

> <Color>
0.200

> <Negative vol penalty>
0.000

$$$$

  -OEChem-04052317503D

 86 94  0     1  0  0  0  0  0999 V2000
  -20.6578  -12.9791   29.7619 C   0  0  0  0  0  0  0  0  0  0  0  0
  -21.5265  -13.9379   29.2507 C   0  0  0  0  0  0  0  0  0  0  0  0
  -23.2108   -9.9098   21.4350 C   0  0  0  0  0  0  0  0  0  0  0  0
  -24.0183  -10.7837   23.5377 C   0  0  0  0  0  0  0  0  0  0  0  0
  -21.1335  -12.0069   30.6408 C   0  0  0  0  0  0  0  0  0  0  0  0
  -22.8714  -13.9258   29.6190 C   0  0  0  0  0  0  0  0  0  0  0  0
  -25.9725  -14.5973   25.6722 C   0  0  0  0  0  0  0  0  0  0  0  0
  -22.5307   -8.9001   22.1158 C   0  0  0  0  0  0  0  0  0  0  0  0
  -23.3382   -9.7740   24.2186 C   0  0  0  0  0  0  0  0  0  0  0  0
  -26.1225  -15.8984   25.1945 C   0  0  0  0  0  0  0  0  0  0  0  0
  -23.2733   -5.9422   23.5731 C   0  0  0  0  0  0  0  0  0  0  0  0
  -23.3711   -4.6441   23.0720 C   0  0  0  0  0  0  0  0  0  0  0  0
  -28.2073  -16.0915   26.3927 C   0  0  0  0  0  0  0  0  0  0  0  0
  -20.9743   -4.5781   22.7751 C   0  0  0  0  0  0  0  0  0  0  0  0
  -28.7220  -16.5483   21.4947 C   0  0  0  0  0  0  0  0  0  0  0  0
  -30.5813  -17.0693   20.4327 C   0  0  0  0  0  0  0  0  0  0  0  0
  -23.9547  -10.8516   22.1460 C   0  0  0  0  0  0  0  0  0  0  0  0
  -24.1679  -13.1693   21.1018 C   0  0  0  0  0  0  0  0  0  0  0  0
  -22.4869  -11.9770   31.0125 C   0  0  0  0  0  0  0  0  0  0  0  0
  -26.9350  -14.0364   26.5240 C   0  0  0  0  0  0  0  0  0  0  0  0
  -23.3654  -12.9531   30.5047 C   0  0  0  0  0  0  0  0  0  0  0  0
  -28.0684  -14.7822   26.8778 C   0  0  0  0  0  0  0  0  0  0  0  0
  -22.5943   -8.8322   23.5076 C   0  0  0  0  0  0  0  0  0  0  0  0
  -27.2386  -16.6468   25.5570 C   0  0  0  0  0  0  0  0  0  0  0  0
  -22.0260   -6.5582   23.6753 C   0  0  0  0  0  0  0  0  0  0  0  0
  -22.2217   -3.9621   22.6730 C   0  0  0  0  0  0  0  0  0  0  0  0
  -20.8765   -5.8762   23.2763 C   0  0  0  0  0  0  0  0  0  0  0  0
  -24.6579  -11.8945   21.4432 C   0  0  0  0  0  0  0  0  0  0  0  0
  -28.5857  -17.7192   20.7870 C   0  0  0  0  0  0  0  0  0  0  0  0
  -25.2135  -13.7756   20.4493 C   0  0  0  0  0  0  0  0  0  0  0  0
  -22.8827  -13.7533   21.3522 C   0  0  0  0  0  0  0  0  0  0  0  0
  -26.9228  -12.9361   29.5061 C   0  0  0  0  0  0  0  0  0  0  0  0
  -31.0135  -14.0087   20.6783 C   0  0  0  0  0  0  0  0  0  0  0  0
  -29.9589  -12.0549   28.7794 C   0  0  0  0  0  0  0  0  0  0  0  0
  -32.7344  -12.5402   26.8538 C   0  0  0  0  0  0  0  0  0  0  0  0
  -22.9450  -10.9354   32.0024 C   0  0  0  0  0  0  0  0  0  0  0  0
  -26.7718  -12.6220   27.0092 C   0  0  0  0  0  0  0  0  0  0  0  0
  -29.1405  -14.2189   27.7732 C   0  0  0  0  0  0  0  0  0  0  0  0
  -24.4613  -10.7651   32.0495 C   0  0  0  0  0  0  0  0  0  0  0  0
  -29.2711  -12.1935   18.1270 C   0  0  0  0  0  0  0  0  0  0  0  0
  -25.1496  -12.1250   32.1099 C   0  0  0  0  0  0  0  0  0  0  0  0
  -27.8649  -12.0269   18.7017 C   0  0  0  0  0  0  0  0  0  0  0  0
  -30.3324  -12.1308   19.2210 C   0  0  0  0  0  0  0  0  0  0  0  0
  -28.7143  -12.9443   20.9067 C   0  0  0  0  0  0  0  0  0  0  0  0
  -24.8361  -12.9579   30.8611 C   0  0  1  0  0  0  0  0  0  0  0  0
  -27.5574  -12.3335   28.2847 C   0  0  1  0  0  0  0  0  0  0  0  0
  -27.6098  -13.0322   19.8387 C   0  0  2  0  0  0  0  0  0  0  0  0
  -31.8690  -15.2844   22.6317 C   0  0  0  0  0  0  0  0  0  0  0  0
  -35.0722  -11.6921   26.5185 C   0  0  0  0  0  0  0  0  0  0  0  0
  -30.8598  -13.5580   31.2772 C   0  0  0  0  0  0  0  0  0  0  0  0
  -33.1994  -13.4922   30.3881 C   0  0  0  0  0  0  0  0  0  0  0  0
  -32.0048  -11.3653   30.9094 C   0  0  0  0  0  0  0  0  0  0  0  0
  -25.7584  -20.2332   21.8148 C   0  0  0  0  0  0  0  0  0  0  0  0
  -32.1573  -11.7066   24.0734 C   0  0  0  0  0  0  0  0  0  0  0  0
  -27.3694  -18.6114   20.6791 C   0  0  0  0  0  0  0  0  0  0  0  0
  -27.6523  -19.3119   23.1616 C   0  0  0  0  0  0  0  0  0  0  0  0
  -26.8213  -18.2127   23.8164 C   0  0  0  0  0  0  0  0  0  1  0  0
  -30.6397  -14.9608   21.7863 C   0  0  1  0  0  0  0  0  0  0  0  0
  -31.3155  -12.7091   28.8818 C   0  0  1  0  0  0  0  0  0  0  0  0
  -33.6171  -11.5657   26.0952 C   0  0  2  0  0  0  0  0  0  0  0  0
  -31.8239  -12.7927   30.3488 C   0  0  0  0  0  0  0  0  0  0  0  0
  -27.2253  -19.7526   21.7336 C   0  0  2  0  0  0  0  0  0  0  0  0
  -28.0747  -20.9469   21.2557 C   0  0  0  0  0  0  0  0  0  0  0  0
  -29.7465  -18.0379   20.1278 N   0  0  0  0  0  0  0  0  0  0  0  0
  -25.9167  -11.7011   21.0407 N   0  0  0  0  0  0  0  0  0  0  0  0
  -30.0054  -16.1436   21.2577 N   0  0  0  0  0  0  0  0  0  0  0  0
  -26.2266  -12.8625   20.4396 N   0  0  0  0  0  0  0  0  0  0  0  0
  -28.9324  -12.8339   28.2269 N   0  0  0  0  0  0  0  0  0  0  0  0
  -30.0421  -13.0846   20.2930 N   0  0  0  0  0  0  0  0  0  0  0  0
  -25.3558  -14.9953   19.8885 N   0  0  0  0  0  0  0  0  0  0  0  0
  -21.9246  -12.9921   22.0356 N   0  0  0  0  0  0  0  0  0  0  0  0
  -25.6307  -12.5055   29.7393 N   0  0  0  0  0  0  0  0  0  0  0  0
  -32.1955  -11.9665   27.9859 N   0  0  0  0  0  0  0  0  0  0  0  0
  -33.5301  -11.8209   24.6295 N   0  3  0  0  0  0  0  0  0  0  0  0
  -22.5868  -14.9097   20.9665 O   0  0  0  0  0  0  0  0  0  0  0  0
  -27.5590  -13.7317   30.1874 O   0  0  0  0  0  0  0  0  0  0  0  0
  -32.1348  -14.0875   20.1695 O   0  0  0  0  0  0  0  0  0  0  0  0
  -29.8169  -10.8929   29.1685 O   0  0  0  0  0  0  0  0  0  0  0  0
  -32.5450  -13.6961   26.4815 O   0  0  0  0  0  0  0  0  0  0  0  0
  -21.9306   -7.8472   24.1723 O   0  0  0  0  0  0  0  0  0  0  0  0
  -27.3871  -17.9173   25.0927 O   0  0  0  0  0  0  0  0  0  1  0  0
  -22.3159   -2.7162   22.1903 F   0  0  0  0  0  0  0  0  0  0  0  0
  -19.6756   -6.4632   23.3710 F   0  0  0  0  0  0  0  0  0  0  0  0
  -27.9867  -21.9903   22.1108 F   0  0  0  0  0  0  0  0  0  0  0  0
  -29.3816  -20.6266   21.1369 F   0  0  0  0  0  0  0  0  0  0  0  0
  -27.6644  -21.3854   20.0426 F   0  0  0  0  0  0  0  0  0  0  0  0
  1  2  1  0  0  0  0
  1  5  2  0  0  0  0
  2  6  2  0  0  0  0
  3  8  2  0  0  0  0
  3 17  1  0  0  0  0
  4  9  1  0  0  0  0
  4 17  2  0  0  0  0
  5 19  1  0  0  0  0
  6 21  1  0  0  0  0
  7 10  2  0  0  0  0
  7 20  1  0  0  0  0
  8 23  1  0  0  0  0
  9 23  2  0  0  0  0
 10 24  1  0  0  0  0
 11 12  2  0  0  0  0
 11 25  1  0  0  0  0
 12 26  1  0  0  0  0
 13 22  1  0  0  0  0
 13 24  2  0  0  0  0
 14 26  2  0  0  0  0
 14 27  1  0  0  0  0
 15 29  2  0  0  0  0
 15 66  1  0  0  0  0
 16 64  2  0  0  0  0
 16 66  1  0  0  0  0
 17 28  1  0  0  0  0
 18 28  1  0  0  0  0
 18 30  2  0  0  0  0
 18 31  1  0  0  0  0
 19 21  2  0  0  0  0
 19 36  1  0  0  0  0
 20 22  2  0  0  0  0
 20 37  1  0  0  0  0
 21 45  1  0  0  0  0
 22 38  1  0  0  0  0
 23 80  1  0  0  0  0
 24 81  1  0  0  0  0
 25 27  2  0  0  0  0
 25 80  1  0  0  0  0
 26 82  1  0  0  0  0
 27 83  1  0  0  0  0
 28 65  2  0  0  0  0
 29 55  1  0  0  0  0
 29 64  1  0  0  0  0
 30 67  1  0  0  0  0
 30 70  1  0  0  0  0
 31 71  1  0  0  0  0
 31 75  2  0  0  0  0
 32 46  1  0  0  0  0
 32 72  1  0  0  0  0
 32 76  2  0  0  0  0
 33 58  1  0  0  0  0
 33 69  1  0  0  0  0
 33 77  2  0  0  0  0
 34 59  1  0  0  0  0
 34 68  1  0  0  0  0
 34 78  2  0  0  0  0
 35 60  1  0  0  0  0
 35 73  1  0  0  0  0
 35 79  2  0  0  0  0
 36 39  1  0  0  0  0
 37 46  1  0  0  0  0
 38 68  1  0  0  0  0
 39 41  1  0  0  0  0
 40 42  1  0  0  0  0
 40 43  1  0  0  0  0
 41 45  1  0  0  0  0
 42 47  1  0  0  0  0
 43 69  1  0  0  0  0
 44 47  1  0  0  0  0
 44 69  1  0  0  0  0
 45 72  1  0  0  0  0
 46 68  1  0  0  0  0
 47 67  1  0  0  0  0
 48 58  1  0  0  0  0
 49 60  1  0  0  0  0
 50 61  1  0  0  0  0
 51 61  1  0  0  0  0
 52 61  1  0  0  0  0
 53 62  1  0  0  0  0
 54 74  1  0  0  0  0
 55 62  1  0  0  0  0
 56 57  1  0  0  0  0
 56 62  1  0  0  0  0
 57 81  1  0  0  0  0
 58 66  1  0  0  0  0
 59 61  1  0  0  0  0
 59 73  1  0  0  0  0
 60 74  1  0  0  0  0
 62 63  1  0  0  0  0
 63 84  1  0  0  0  0
 63 85  1  0  0  0  0
 63 86  1  0  0  0  0
 65 67  1  0  0  0  0
M  CHG  1  74   1
M  ISO  4  33 100  57 101  58 100  81 101
M  END
> <Batch ID>
0058

> <Smiles>
CNC(C)C(=O)NC(C(=O)N1Cc2cc([101O:1][101CH2:1]CC(C)(Cc3cn([100CH:0](C)[100C:0](=O)N4CCCC(n5nc(-c6ccc(Oc7ccc(F)cc7F)cc6)c(C(N)=O)c5N)C4)cn3)C(F)(F)F)ccc2CC1C(=O)NC1CCCc2ccccc21)C(C)(C)C

> <Shape>
0.193

> <Color>
0.162

> <Negative vol penalty>
0.000

$$$$

  -OEChem-04052317503D

 82 90  0     1  0  0  0  0  0999 V2000
  -16.7830  -24.7001   23.4629 C   0  0  0  0  0  0  0  0  0  0  0  0
  -17.6653  -24.2015   22.5098 C   0  0  0  0  0  0  0  0  0  0  0  0
  -26.5842  -13.8868   19.9980 C   0  0  0  0  0  0  0  0  0  0  0  0
  -25.8498  -13.4420   22.2563 C   0  0  0  0  0  0  0  0  0  0  0  0
  -16.8636  -26.0357   23.8547 C   0  0  0  0  0  0  0  0  0  0  0  0
  -18.6282  -25.0386   21.9472 C   0  0  0  0  0  0  0  0  0  0  0  0
  -23.1908  -22.8563   21.6936 C   0  0  0  0  0  0  0  0  0  0  0  0
  -25.5283  -13.1212   19.5037 C   0  0  0  0  0  0  0  0  0  0  0  0
  -24.7937  -12.6764   21.7620 C   0  0  0  0  0  0  0  0  0  0  0  0
  -23.4007  -21.9369   20.6668 C   0  0  0  0  0  0  0  0  0  0  0  0
  -24.3398   -9.5636   20.5229 C   0  0  0  0  0  0  0  0  0  0  0  0
  -24.0898   -8.3342   21.1325 C   0  0  0  0  0  0  0  0  0  0  0  0
  -24.5495  -23.6321   19.3918 C   0  0  0  0  0  0  0  0  0  0  0  0
  -21.8658   -9.0760   21.7164 C   0  0  0  0  0  0  0  0  0  0  0  0
  -26.7450  -14.0472   21.3743 C   0  0  0  0  0  0  0  0  0  0  0  0
  -29.2121  -14.6145   21.6895 C   0  0  0  0  0  0  0  0  0  0  0  0
  -17.8342  -26.8872   23.3037 C   0  0  0  0  0  0  0  0  0  0  0  0
  -23.6500  -24.1758   21.5724 C   0  0  0  0  0  0  0  0  0  0  0  0
  -18.7210  -26.3872   22.3310 C   0  0  0  0  0  0  0  0  0  0  0  0
  -24.3465  -24.5657   20.4196 C   0  0  0  0  0  0  0  0  0  0  0  0
  -24.6330  -12.5160   20.3857 C   0  0  0  0  0  0  0  0  0  0  0  0
  -24.0776  -22.3255   19.5145 C   0  0  0  0  0  0  0  0  0  0  0  0
  -23.3528  -10.5493   20.5101 C   0  0  0  0  0  0  0  0  0  0  0  0
  -22.8528   -8.0904   21.7292 C   0  0  0  0  0  0  0  0  0  0  0  0
  -22.1158  -10.3054   21.1068 C   0  0  0  0  0  0  0  0  0  0  0  0
  -27.8360  -14.8375   21.8855 C   0  0  0  0  0  0  0  0  0  0  0  0
  -29.8261  -15.6349   22.3738 C   0  0  0  0  0  0  0  0  0  0  0  0
  -28.6327  -20.3476   20.7125 C   0  0  0  0  0  0  0  0  0  0  0  0
  -27.3768  -19.6623   19.1926 C   0  0  0  0  0  0  0  0  0  0  0  0
  -29.8759  -13.5778   20.9546 C   0  0  0  0  0  0  0  0  0  0  0  0
  -22.2650  -27.0362   21.5114 C   0  0  0  0  0  0  0  0  0  0  0  0
  -25.3326  -28.0905   21.5293 C   0  0  0  0  0  0  0  0  0  0  0  0
  -28.6168  -27.4602   20.8485 C   0  0  0  0  0  0  0  0  0  0  0  0
  -27.5082  -21.0715   23.9890 C   0  0  0  0  0  0  0  0  0  0  0  0
  -17.8520  -28.3355   23.7239 C   0  0  0  0  0  0  0  0  0  0  0  0
  -23.4390  -25.1483   22.7003 C   0  0  0  0  0  0  0  0  0  0  0  0
  -24.8774  -25.9648   20.2489 C   0  0  0  0  0  0  0  0  0  0  0  0
  -19.1433  -29.0611   23.3543 C   0  0  0  0  0  0  0  0  0  0  0  0
  -29.2138  -18.5579   26.1042 C   0  0  0  0  0  0  0  0  0  0  0  0
  -19.5329  -28.7559   21.9114 C   0  0  0  0  0  0  0  0  0  0  0  0
  -29.1015  -17.2857   25.2658 C   0  0  0  0  0  0  0  0  0  0  0  0
  -28.0644  -19.5224   25.8281 C   0  0  0  0  0  0  0  0  0  0  0  0
  -27.7891  -18.5971   23.5517 C   0  0  0  0  0  0  0  0  0  0  0  0
  -19.7952  -27.2578   21.7159 C   0  0  1  0  0  0  0  0  0  0  0  0
  -23.4992  -26.6053   22.2521 C   0  0  1  0  0  0  0  0  0  0  0  0
  -28.9572  -17.6242   23.7719 C   0  0  2  0  0  0  0  0  0  0  0  0
  -31.0964  -27.8410   20.7854 C   0  0  0  0  0  0  0  0  0  0  0  0
  -24.6518  -29.7300   19.0477 C   0  0  0  0  0  0  0  0  0  0  0  0
  -27.1069  -29.9985   18.6369 C   0  0  0  0  0  0  0  0  0  0  0  0
  -26.0851  -30.9148   20.7199 C   0  0  0  0  0  0  0  0  0  0  0  0
  -29.2024  -19.0566   17.5605 C   0  0  0  0  0  0  0  0  0  0  0  0
  -27.5875  -22.8555   22.2888 C   0  0  0  0  0  0  0  0  0  0  0  0
  -28.9914  -26.2239   23.5112 C   0  0  0  0  0  0  0  0  0  0  0  0
  -29.0647  -20.9009   22.0013 C   0  0  0  0  0  0  0  0  0  0  0  0
  -26.2203  -19.2469   18.3188 C   0  0  0  0  0  0  0  0  0  0  0  0
  -25.9046  -20.2423   17.2003 C   0  0  0  0  0  0  0  0  0  0  0  0
  -25.4544  -21.6049   17.7141 C   0  0  0  0  0  0  0  0  0  1  0  0
  -26.3582  -28.4138   20.4698 C   0  0  1  0  0  0  0  0  0  0  0  0
  -29.8742  -27.6669   21.6735 C   0  0  2  0  0  0  0  0  0  0  0  0
  -26.0389  -29.7384   19.7207 C   0  0  0  0  0  0  0  0  0  0  0  0
  -27.5899  -15.9148   22.6357 N   0  0  0  0  0  0  0  0  0  0  0  0
  -27.3151  -20.1656   20.4035 N   0  0  0  0  0  0  0  0  0  0  0  0
  -29.5058  -19.9886   19.7688 N   0  0  0  0  0  0  0  0  0  0  0  0
  -28.8197  -16.3779   22.9172 N   0  0  0  0  0  0  0  0  0  0  0  0
  -28.6767  -19.5539   18.8076 N   0  0  0  0  0  0  0  0  0  0  0  0
  -24.6404  -26.8807   21.3769 N   0  0  0  0  0  0  0  0  0  0  0  0
  -27.9224  -19.7930   24.3971 N   0  0  0  0  0  0  0  0  0  0  0  0
  -31.1234  -15.9601   22.5577 N   0  0  0  0  0  0  0  0  0  0  0  0
  -30.1541  -13.7936   19.5980 N   0  0  0  0  0  0  0  0  0  0  0  0
  -21.0970  -26.9003   22.2373 N   0  0  0  0  0  0  0  0  0  0  0  0
  -27.6542  -28.4036   21.1395 N   0  0  0  0  0  0  0  0  0  0  0  0
  -27.9799  -21.5315   22.7501 N   0  0  0  0  0  0  0  0  0  0  0  0
  -30.1055  -26.4969   22.5672 N   0  3  0  0  0  0  0  0  0  0  0  0
  -30.1978  -12.4856   21.4811 O   0  0  0  0  0  0  0  0  0  0  0  0
  -22.3650  -27.4618   20.3666 O   0  0  0  0  0  0  0  0  0  0  0  0
  -25.1574  -28.8787   22.4619 O   0  0  0  0  0  0  0  0  0  0  0  0
  -28.5015  -26.5548   20.0253 O   0  0  0  0  0  0  0  0  0  0  0  0
  -26.7673  -21.7664   24.6962 O   0  0  0  0  0  0  0  0  0  0  0  0
  -23.6023  -11.7690   19.9038 O   0  0  0  0  0  0  0  0  0  0  0  0
  -24.2832  -21.4302   18.5104 O   0  0  0  0  0  0  0  0  0  1  0  0
  -22.6123   -6.9092   22.3133 F   0  0  0  0  0  0  0  0  0  0  0  0
  -21.1634  -11.2480   21.0966 F   0  0  0  0  0  0  0  0  0  0  0  0
  1  2  1  0  0  0  0
  1  5  2  0  0  0  0
  2  6  2  0  0  0  0
  3  8  2  0  0  0  0
  3 15  1  0  0  0  0
  4  9  1  0  0  0  0
  4 15  2  0  0  0  0
  5 17  1  0  0  0  0
  6 19  1  0  0  0  0
  7 10  2  0  0  0  0
  7 18  1  0  0  0  0
  8 21  1  0  0  0  0
  9 21  2  0  0  0  0
 10 22  1  0  0  0  0
 11 12  2  0  0  0  0
 11 23  1  0  0  0  0
 12 24  1  0  0  0  0
 13 20  1  0  0  0  0
 13 22  2  0  0  0  0
 14 24  2  0  0  0  0
 14 25  1  0  0  0  0
 15 26  1  0  0  0  0
 16 26  1  0  0  0  0
 16 27  2  0  0  0  0
 16 30  1  0  0  0  0
 17 19  2  0  0  0  0
 17 35  1  0  0  0  0
 18 20  2  0  0  0  0
 18 36  1  0  0  0  0
 19 44  1  0  0  0  0
 20 37  1  0  0  0  0
 21 79  1  0  0  0  0
 22 80  1  0  0  0  0
 23 25  2  0  0  0  0
 23 79  1  0  0  0  0
 24 81  1  0  0  0  0
 25 82  1  0  0  0  0
 26 61  2  0  0  0  0
 27 64  1  0  0  0  0
 27 68  1  0  0  0  0
 28 54  1  0  0  0  0
 28 62  1  0  0  0  0
 28 63  2  0  0  0  0
 29 55  1  0  0  0  0
 29 62  2  0  0  0  0
 29 65  1  0  0  0  0
 30 69  1  0  0  0  0
 30 74  2  0  0  0  0
 31 45  1  0  0  0  0
 31 70  1  0  0  0  0
 31 75  2  0  0  0  0
 32 58  1  0  0  0  0
 32 66  1  0  0  0  0
 32 76  2  0  0  0  0
 33 59  1  0  0  0  0
 33 71  1  0  0  0  0
 33 77  2  0  0  0  0
 34 67  1  0  0  0  0
 34 72  1  0  0  0  0
 34 78  2  0  0  0  0
 35 38  1  0  0  0  0
 36 45  1  0  0  0  0
 37 66  1  0  0  0  0
 38 40  1  0  0  0  0
 39 41  1  0  0  0  0
 39 42  1  0  0  0  0
 40 44  1  0  0  0  0
 41 46  1  0  0  0  0
 42 67  1  0  0  0  0
 43 46  1  0  0  0  0
 43 67  1  0  0  0  0
 44 70  1  0  0  0  0
 45 66  1  0  0  0  0
 46 64  1  0  0  0  0
 47 59  1  0  0  0  0
 48 60  1  0  0  0  0
 49 60  1  0  0  0  0
 50 60  1  0  0  0  0
 51 65  1  0  0  0  0
 52 72  1  0  0  0  0
 53 73  1  0  0  0  0
 54 72  1  0  0  0  0
 55 56  1  0  0  0  0
 56 57  1  0  0  0  0
 57 80  1  0  0  0  0
 58 60  1  0  0  0  0
 58 71  1  0  0  0  0
 59 73  1  0  0  0  0
 61 64  1  0  0  0  0
 63 65  1  0  0  0  0
M  CHG  1  73   1
M  ISO  4  34 100  57 101  72 100  80 101
M  END
> <Batch ID>
0058

> <Smiles>
CNC(C)C(=O)NC(C(=O)N1Cc2cc([101O:1][101CH2:1]CCc3nc(C[100N:0](C)[100C:0](=O)N4CCCC(n5nc(-c6ccc(Oc7ccc(F)cc7F)cc6)c(C(N)=O)c5N)C4)nn3C)ccc2CC1C(=O)NC1CCCc2ccccc21)C(C)(C)C

> <Shape>
0.245

> <Color>
0.079

> <Negative vol penalty>
0.000

$$$$

  -OEChem-04052317503D

 87 95  0     1  0  0  0  0  0999 V2000
  -15.0848  -27.7159   25.8152 C   0  0  0  0  0  0  0  0  0  0  0  0
  -15.8671  -26.6636   25.3505 C   0  0  0  0  0  0  0  0  0  0  0  0
  -26.6325  -12.2744   20.9634 C   0  0  0  0  0  0  0  0  0  0  0  0
  -25.2546  -13.8612   19.7714 C   0  0  0  0  0  0  0  0  0  0  0  0
  -15.3508  -29.0188   25.3962 C   0  0  0  0  0  0  0  0  0  0  0  0
  -16.9154  -26.9135   24.4656 C   0  0  0  0  0  0  0  0  0  0  0  0
  -21.1435  -24.4188   25.7084 C   0  0  0  0  0  0  0  0  0  0  0  0
  -25.4890  -11.5871   21.3703 C   0  0  0  0  0  0  0  0  0  0  0  0
  -24.1111  -13.1738   20.1784 C   0  0  0  0  0  0  0  0  0  0  0  0
  -21.2021  -23.0641   25.3840 C   0  0  0  0  0  0  0  0  0  0  0  0
  -23.3069   -9.3740   20.0387 C   0  0  0  0  0  0  0  0  0  0  0  0
  -23.3177   -7.9827   19.9410 C   0  0  0  0  0  0  0  0  0  0  0  0
  -22.5274  -23.5934   23.4391 C   0  0  0  0  0  0  0  0  0  0  0  0
  -22.9619   -7.8126   22.3247 C   0  0  0  0  0  0  0  0  0  0  0  0
  -26.6591  -19.2827   24.2764 C   0  0  0  0  0  0  0  0  0  0  0  0
  -27.3282  -21.2742   22.6291 C   0  0  0  0  0  0  0  0  0  0  0  0
  -26.5153  -13.4115   20.1640 C   0  0  0  0  0  0  0  0  0  0  0  0
  -28.4511  -13.9012   18.5763 C   0  0  0  0  0  0  0  0  0  0  0  0
  -16.4089  -29.2860   24.5132 C   0  0  0  0  0  0  0  0  0  0  0  0
  -21.7682  -25.3736   24.8932 C   0  0  0  0  0  0  0  0  0  0  0  0
  -17.1950  -28.2210   24.0333 C   0  0  0  0  0  0  0  0  0  0  0  0
  -22.4774  -24.9593   23.7567 C   0  0  0  0  0  0  0  0  0  0  0  0
  -24.2283  -12.0368   20.9778 C   0  0  0  0  0  0  0  0  0  0  0  0
  -21.8917  -22.6515   24.2476 C   0  0  0  0  0  0  0  0  0  0  0  0
  -23.1236   -9.9847   21.2793 C   0  0  0  0  0  0  0  0  0  0  0  0
  -23.1452   -7.2019   21.0840 C   0  0  0  0  0  0  0  0  0  0  0  0
  -22.9511   -9.2040   22.4223 C   0  0  0  0  0  0  0  0  0  0  0  0
  -27.6961  -14.1223   19.7437 C   0  0  0  0  0  0  0  0  0  0  0  0
  -25.8705  -19.6052   23.1940 C   0  0  0  0  0  0  0  0  0  0  0  0
  -28.1164  -20.9523   23.7119 C   0  0  0  0  0  0  0  0  0  0  0  0
  -29.4621  -14.8286   18.6404 C   0  0  0  0  0  0  0  0  0  0  0  0
  -28.2558  -12.9432   17.5276 C   0  0  0  0  0  0  0  0  0  0  0  0
  -20.7692  -27.8522   23.1721 C   0  0  0  0  0  0  0  0  0  0  0  0
  -23.9480  -28.3442   22.7527 C   0  0  0  0  0  0  0  0  0  0  0  0
  -27.1008  -27.0386   22.7088 C   0  0  0  0  0  0  0  0  0  0  0  0
  -29.9432  -20.0486   21.1157 C   0  0  0  0  0  0  0  0  0  0  0  0
  -16.6284  -30.7049   24.0514 C   0  0  0  0  0  0  0  0  0  0  0  0
  -21.7182  -26.8285   25.2715 C   0  0  0  0  0  0  0  0  0  0  0  0
  -23.1822  -25.9427   22.8597 C   0  0  0  0  0  0  0  0  0  0  0  0
  -17.9928  -30.9310   23.4053 C   0  0  0  0  0  0  0  0  0  0  0  0
  -32.0828  -17.3150   21.7646 C   0  0  0  0  0  0  0  0  0  0  0  0
  -18.2986  -29.8233   22.4021 C   0  0  0  0  0  0  0  0  0  0  0  0
  -31.2636  -16.1510   21.2090 C   0  0  0  0  0  0  0  0  0  0  0  0
  -31.2086  -18.3354   22.4960 C   0  0  0  0  0  0  0  0  0  0  0  0
  -29.2521  -17.6707   21.1348 C   0  0  0  0  0  0  0  0  0  0  0  0
  -18.3565  -28.4549   23.0919 C   0  0  1  0  0  0  0  0  0  0  0  0
  -21.9565  -27.7619   24.0886 C   0  0  1  0  0  0  0  0  0  0  0  0
  -30.0986  -16.6618   20.3436 C   0  0  2  0  0  0  0  0  0  0  0  0
  -29.4922  -27.6782   22.2971 C   0  0  0  0  0  0  0  0  0  0  0  0
  -33.1920  -22.4495   21.5705 C   0  0  0  0  0  0  0  0  0  0  0  0
  -32.2383  -21.4422   19.4890 C   0  0  0  0  0  0  0  0  0  0  0  0
  -32.1727  -23.9197   19.8092 C   0  0  0  0  0  0  0  0  0  0  0  0
  -23.4191  -28.3781   19.7479 C   0  0  0  0  0  0  0  0  0  0  0  0
  -25.8758  -28.0625   19.3825 C   0  0  0  0  0  0  0  0  0  0  0  0
  -25.0416  -30.1081   20.5411 C   0  0  0  0  0  0  0  0  0  0  0  0
  -27.8942  -26.2978   25.4621 C   0  0  0  0  0  0  0  0  0  0  0  0
  -24.6045  -18.8359   22.9128 C   0  0  0  0  0  0  0  0  0  0  0  0
  -29.3665  -21.7116   23.9893 C   0  0  0  0  0  0  0  0  0  0  0  0
  -23.3643  -19.4214   23.5914 C   0  0  0  0  0  0  0  0  0  0  0  0
  -30.6094  -21.1239   23.3077 C   0  0  0  0  0  0  0  0  0  0  0  0
  -30.6831  -22.3990   21.1971 C   0  0  0  0  0  0  0  0  0  0  0  0
  -23.1113  -20.8807   23.2312 C   0  0  0  0  0  0  0  0  0  1  0  0
  -24.9771  -27.8870   21.7473 C   0  0  1  0  0  0  0  0  0  0  0  0
  -28.3970  -27.5146   23.3395 C   0  0  2  0  0  0  0  0  0  0  0  0
  -32.0662  -22.5647   20.5290 C   0  0  0  0  0  0  0  0  0  0  0  0
  -24.8136  -28.5903   20.3703 C   0  0  0  0  0  0  0  0  0  0  0  0
  -26.1910  -20.6064   22.3507 N   0  0  0  0  0  0  0  0  0  0  0  0
  -27.7960  -19.9508   24.5550 N   0  0  0  0  0  0  0  0  0  0  0  0
  -28.1859  -15.1124   20.4947 N   0  0  0  0  0  0  0  0  0  0  0  0
  -29.2594  -15.5216   19.7975 N   0  0  0  0  0  0  0  0  0  0  0  0
  -23.0991  -27.3546   23.2683 N   0  0  0  0  0  0  0  0  0  0  0  0
  -30.0829  -18.7604   21.6528 N   0  0  0  0  0  0  0  0  0  0  0  0
  -30.4959  -15.1107   17.8194 N   0  0  0  0  0  0  0  0  0  0  0  0
  -27.1671  -12.0652   17.6189 N   0  0  0  0  0  0  0  0  0  0  0  0
  -19.6143  -28.2933   23.7893 N   0  0  0  0  0  0  0  0  0  0  0  0
  -26.2788  -28.0935   22.3729 N   0  0  0  0  0  0  0  0  0  0  0  0
  -30.4847  -21.1134   21.8515 N   0  0  0  0  0  0  0  0  0  0  0  0
  -28.8645  -26.5374   24.3629 N   0  3  0  0  0  0  0  0  0  0  0  0
  -29.0334  -12.8570   16.5471 O   0  0  0  0  0  0  0  0  0  0  0  0
  -20.8923  -27.5457   21.9920 O   0  0  0  0  0  0  0  0  0  0  0  0
  -23.9038  -29.5343   23.0743 O   0  0  0  0  0  0  0  0  0  0  0  0
  -26.8448  -25.8502   22.5285 O   0  0  0  0  0  0  0  0  0  0  0  0
  -29.3594  -20.2396   20.0411 O   0  0  0  0  0  0  0  0  0  0  0  0
  -23.1123  -11.3662   21.3745 O   0  0  0  0  0  0  0  0  0  0  0  0
  -21.9500  -21.3299   23.9284 O   0  0  0  0  0  0  0  0  0  1  0  0
  -23.1541   -5.8658   20.9898 F   0  0  0  0  0  0  0  0  0  0  0  0
  -22.7734   -9.7850   23.6167 F   0  0  0  0  0  0  0  0  0  0  0  0
  1  2  1  0  0  0  0
  1  5  2  0  0  0  0
  2  6  2  0  0  0  0
  3  8  2  0  0  0  0
  3 17  1  0  0  0  0
  4  9  1  0  0  0  0
  4 17  2  0  0  0  0
  5 19  1  0  0  0  0
  6 21  1  0  0  0  0
  7 10  2  0  0  0  0
  7 20  1  0  0  0  0
  8 23  1  0  0  0  0
  9 23  2  0  0  0  0
 10 24  1  0  0  0  0
 11 12  2  0  0  0  0
 11 25  1  0  0  0  0
 12 26  1  0  0  0  0
 13 22  1  0  0  0  0
 13 24  2  0  0  0  0
 14 26  2  0  0  0  0
 14 27  1  0  0  0  0
 15 29  1  0  0  0  0
 15 68  2  0  0  0  0
 16 30  2  0  0  0  0
 16 67  1  0  0  0  0
 17 28  1  0  0  0  0
 18 28  1  0  0  0  0
 18 31  2  0  0  0  0
 18 32  1  0  0  0  0
 19 21  2  0  0  0  0
 19 37  1  0  0  0  0
 20 22  2  0  0  0  0
 20 38  1  0  0  0  0
 21 46  1  0  0  0  0
 22 39  1  0  0  0  0
 23 84  1  0  0  0  0
 24 85  1  0  0  0  0
 25 27  2  0  0  0  0
 25 84  1  0  0  0  0
 26 86  1  0  0  0  0
 27 87  1  0  0  0  0
 28 69  2  0  0  0  0
 29 57  1  0  0  0  0
 29 67  2  0  0  0  0
 30 58  1  0  0  0  0
 30 68  1  0  0  0  0
 31 70  1  0  0  0  0
 31 73  1  0  0  0  0
 32 74  1  0  0  0  0
 32 79  2  0  0  0  0
 33 47  1  0  0  0  0
 33 75  1  0  0  0  0
 33 80  2  0  0  0  0
 34 63  1  0  0  0  0
 34 71  1  0  0  0  0
 34 81  2  0  0  0  0
 35 64  1  0  0  0  0
 35 76  1  0  0  0  0
 35 82  2  0  0  0  0
 36 72  1  0  0  0  0
 36 77  1  0  0  0  0
 36 83  2  0  0  0  0
 37 40  1  0  0  0  0
 38 47  1  0  0  0  0
 39 71  1  0  0  0  0
 40 42  1  0  0  0  0
 41 43  1  0  0  0  0
 41 44  1  0  0  0  0
 42 46  1  0  0  0  0
 43 48  1  0  0  0  0
 44 72  1  0  0  0  0
 45 48  1  0  0  0  0
 45 72  1  0  0  0  0
 46 75  1  0  0  0  0
 47 71  1  0  0  0  0
 48 70  1  0  0  0  0
 49 64  1  0  0  0  0
 50 65  1  0  0  0  0
 51 65  1  0  0  0  0
 52 65  1  0  0  0  0
 53 66  1  0  0  0  0
 54 66  1  0  0  0  0
 55 66  1  0  0  0  0
 56 78  1  0  0  0  0
 57 59  1  0  0  0  0
 58 60  1  0  0  0  0
 59 62  1  0  0  0  0
 60 77  1  0  0  0  0
 61 65  1  0  0  0  0
 61 77  1  0  0  0  0
 62 85  1  0  0  0  0
 63 66  1  0  0  0  0
 63 76  1  0  0  0  0
 64 78  1  0  0  0  0
 69 70  1  0  0  0  0
M  CHG  1  78   1
M  ISO  4  36 100  62 101  77 100  85 101
M  END
> <Batch ID>
0058

> <Smiles>
CNC(C)C(=O)NC(C(=O)N1Cc2cc([101O:1][101CH2:1]CCc3cnc(CC[100N:0](CC(C)(C)C)[100C:0](=O)N4CCCC(n5nc(-c6ccc(Oc7ccc(F)cc7F)cc6)c(C(N)=O)c5N)C4)cn3)ccc2CC1C(=O)NC1CCCc2ccccc21)C(C)(C)C

> <Shape>
0.227

> <Color>
0.075

> <Negative vol penalty>
0.000

$$$$

  -OEChem-04052317503D

 88 96  0     1  0  0  0  0  0999 V2000
  -22.7369  -10.8513   18.6974 C   0  0  0  0  0  0  0  0  0  0  0  0
  -22.2597  -12.1580   18.7012 C   0  0  0  0  0  0  0  0  0  0  0  0
  -29.1274  -27.3823   16.5820 C   0  0  0  0  0  0  0  0  0  0  0  0
  -29.7291  -26.2447   18.6267 C   0  0  0  0  0  0  0  0  0  0  0  0
  -23.8885  -10.5288   19.4141 C   0  0  0  0  0  0  0  0  0  0  0  0
  -22.9333  -13.1430   19.4226 C   0  0  0  0  0  0  0  0  0  0  0  0
  -23.5415  -19.0464   17.9106 C   0  0  0  0  0  0  0  0  0  0  0  0
  -30.4505  -27.3018   16.1478 C   0  0  0  0  0  0  0  0  0  0  0  0
  -31.0522  -26.1641   18.1925 C   0  0  0  0  0  0  0  0  0  0  0  0
  -22.8573  -20.1928   18.3122 C   0  0  0  0  0  0  0  0  0  0  0  0
  -34.6586  -25.9782   17.7814 C   0  0  0  0  0  0  0  0  0  0  0  0
  -35.6618  -26.2964   18.6967 C   0  0  0  0  0  0  0  0  0  0  0  0
  -24.5643  -20.6270   19.9604 C   0  0  0  0  0  0  0  0  0  0  0  0
  -34.7475  -28.5210   18.9254 C   0  0  0  0  0  0  0  0  0  0  0  0
  -18.0637  -28.6309   22.6575 C   0  0  0  0  0  0  0  0  0  0  0  0
  -28.7667  -26.8538   17.8215 C   0  0  0  0  0  0  0  0  0  0  0  0
  -26.3742  -25.9987   18.0507 C   0  0  0  0  0  0  0  0  0  0  0  0
  -24.5821  -11.5124   20.1368 C   0  0  0  0  0  0  0  0  0  0  0  0
  -24.7387  -18.6751   18.5393 C   0  0  0  0  0  0  0  0  0  0  0  0
  -24.0946  -12.8332   20.1507 C   0  0  0  0  0  0  0  0  0  0  0  0
  -25.2632  -19.4768   19.5632 C   0  0  0  0  0  0  0  0  0  0  0  0
  -19.0091  -27.6371   22.5863 C   0  0  0  0  0  0  0  0  0  0  0  0
  -31.4129  -26.6927   16.9531 C   0  0  0  0  0  0  0  0  0  0  0  0
  -23.3671  -20.9817   19.3392 C   0  0  0  0  0  0  0  0  0  0  0  0
  -33.6999  -26.9314   17.4380 C   0  0  0  0  0  0  0  0  0  0  0  0
  -35.7063  -27.5678   19.2688 C   0  0  0  0  0  0  0  0  0  0  0  0
  -33.7443  -28.2028   18.0100 C   0  0  0  0  0  0  0  0  0  0  0  0
  -27.4002  -26.9372   18.2708 C   0  0  0  0  0  0  0  0  0  0  0  0
  -20.2112  -28.3144   22.3071 C   0  0  0  0  0  0  0  0  0  0  0  0
  -25.2760  -26.5379   18.6749 C   0  0  0  0  0  0  0  0  0  0  0  0
  -26.4107  -24.7510   17.3453 C   0  0  0  0  0  0  0  0  0  0  0  0
  -25.6975  -16.1614   20.2321 C   0  0  0  0  0  0  0  0  0  0  0  0
  -28.5800  -17.6399   20.0660 C   0  0  0  0  0  0  0  0  0  0  0  0
  -30.3281  -20.5425   19.6585 C   0  0  0  0  0  0  0  0  0  0  0  0
  -23.3226  -29.0124   23.4055 C   0  0  0  0  0  0  0  0  0  0  0  0
  -25.7957  -11.1062   20.9348 C   0  0  0  0  0  0  0  0  0  0  0  0
  -25.4786  -17.4501   18.0764 C   0  0  0  0  0  0  0  0  0  0  0  0
  -26.5552  -19.1329   20.2567 C   0  0  0  0  0  0  0  0  0  0  0  0
  -26.6619  -12.2859   21.3689 C   0  0  0  0  0  0  0  0  0  0  0  0
  -24.4930  -31.1360   20.6086 C   0  0  0  0  0  0  0  0  0  0  0  0
  -25.7956  -13.3996   21.9483 C   0  0  0  0  0  0  0  0  0  0  0  0
  -25.3270  -30.1625   19.7776 C   0  0  0  0  0  0  0  0  0  0  0  0
  -24.4745  -30.7503   22.0846 C   0  0  0  0  0  0  0  0  0  0  0  0
  -24.8654  -28.3785   21.5053 C   0  0  0  0  0  0  0  0  0  0  0  0
  -24.8115  -13.9346   20.9010 C   0  0  1  0  0  0  0  0  0  0  0  0
  -26.4226  -16.8869   19.1342 C   0  0  1  0  0  0  0  0  0  0  0  0
  -24.8665  -28.7122   20.0059 C   0  0  2  0  0  0  0  0  0  0  0  0
  -15.7926  -21.8993   23.3282 C   0  0  0  0  0  0  0  0  0  0  0  0
  -32.6707  -21.4409   19.6095 C   0  0  0  0  0  0  0  0  0  0  0  0
  -28.7177  -17.4398   23.1075 C   0  0  0  0  0  0  0  0  0  0  0  0
  -30.5477  -19.1479   23.0674 C   0  0  0  0  0  0  0  0  0  0  0  0
  -30.8699  -16.9506   21.9313 C   0  0  0  0  0  0  0  0  0  0  0  0
  -18.1570  -31.1215   22.3980 C   0  0  0  0  0  0  0  0  0  0  0  0
  -22.1179  -27.1315   24.4498 C   0  0  0  0  0  0  0  0  0  0  0  0
  -30.0335  -21.4813   16.8673 C   0  0  0  0  0  0  0  0  0  0  0  0
  -18.7950  -26.1622   22.7674 C   0  0  0  0  0  0  0  0  0  0  0  0
  -21.5534  -27.7343   22.1252 C   0  0  0  0  0  0  0  0  0  0  0  0
  -17.2115  -22.3030   22.9613 C   0  0  0  0  0  0  0  0  0  0  0  0
  -20.6793  -22.9897   20.6697 C   0  0  0  0  0  0  0  0  0  0  0  0
  -18.8069  -25.3726   21.4624 C   0  0  0  0  0  0  0  0  0  0  0  0
  -17.2224  -23.5655   22.1143 C   0  0  0  0  0  0  0  0  0  0  0  0
  -19.1596  -23.0496   20.6371 C   0  0  0  0  0  0  0  0  0  0  0  0
  -21.2809  -22.0949   19.5930 C   0  0  0  0  0  0  0  0  0  1  0  0
  -29.3098  -18.6574   20.9091 C   0  0  1  0  0  0  0  0  0  0  0  0
  -31.5204  -20.8859   18.7839 C   0  0  2  0  0  0  0  0  0  0  0  0
  -29.8359  -18.0546   22.2423 C   0  0  0  0  0  0  0  0  0  0  0  0
  -26.9903  -27.9927   18.9792 N   0  0  0  0  0  0  0  0  0  0  0  0
  -20.0472  -29.6362   22.2075 N   0  0  0  0  0  0  0  0  0  0  0  0
  -18.7309  -29.7975   22.4253 N   0  0  0  0  0  0  0  0  0  0  0  0
  -25.6945  -27.7207   19.2097 N   0  0  0  0  0  0  0  0  0  0  0  0
  -27.2383  -17.9220   19.7725 N   0  0  0  0  0  0  0  0  0  0  0  0
  -24.0751  -29.3548   22.2700 N   0  0  0  0  0  0  0  0  0  0  0  0
  -24.0028  -26.1110   18.8129 N   0  0  0  0  0  0  0  0  0  0  0  0
  -27.6204  -24.3473   16.7639 N   0  0  0  0  0  0  0  0  0  0  0  0
  -25.4882  -14.8195   19.9772 N   0  0  0  0  0  0  0  0  0  0  0  0
  -30.3504  -19.2227   20.0571 N   0  0  0  0  0  0  0  0  0  0  0  0
  -22.4259  -27.9407   23.2791 N   0  0  0  0  0  0  0  0  0  0  0  0
  -31.1391  -21.9044   17.7649 N   0  3  0  0  0  0  0  0  0  0  0  0
  -18.6469  -23.8970   21.7392 N   0  3  1  0  0  0  0  0  0  0  0  0
  -25.3964  -24.0237   17.2198 O   0  0  0  0  0  0  0  0  0  0  0  0
  -25.3547  -16.7734   21.2369 O   0  0  0  0  0  0  0  0  0  0  0  0
  -29.1804  -16.6354   19.6759 O   0  0  0  0  0  0  0  0  0  0  0  0
  -29.4653  -21.3638   19.9610 O   0  0  0  0  0  0  0  0  0  0  0  0
  -23.4383  -29.6356   24.4685 O   0  0  0  0  0  0  0  0  0  0  0  0
  -32.7040  -26.6137   16.5296 O   0  0  0  0  0  0  0  0  0  0  0  0
  -22.7009  -22.1009   19.7336 O   0  0  0  0  0  0  0  0  0  1  0  0
  -36.6688  -27.8728   20.1489 F   0  0  0  0  0  0  0  0  0  0  0  0
  -32.8253  -29.1223   17.6849 F   0  0  0  0  0  0  0  0  0  0  0  0
  1  2  1  0  0  0  0
  1  5  2  0  0  0  0
  2  6  2  0  0  0  0
  3  8  2  0  0  0  0
  3 16  1  0  0  0  0
  4  9  1  0  0  0  0
  4 16  2  0  0  0  0
  5 18  1  0  0  0  0
  6 20  1  0  0  0  0
  7 10  2  0  0  0  0
  7 19  1  0  0  0  0
  8 23  1  0  0  0  0
  9 23  2  0  0  0  0
 10 24  1  0  0  0  0
 11 12  2  0  0  0  0
 11 25  1  0  0  0  0
 12 26  1  0  0  0  0
 13 21  1  0  0  0  0
 13 24  2  0  0  0  0
 14 26  2  0  0  0  0
 14 27  1  0  0  0  0
 15 22  2  0  0  0  0
 15 69  1  0  0  0  0
 16 28  1  0  0  0  0
 17 28  1  0  0  0  0
 17 30  2  0  0  0  0
 17 31  1  0  0  0  0
 18 20  2  0  0  0  0
 18 36  1  0  0  0  0
 19 21  2  0  0  0  0
 19 37  1  0  0  0  0
 20 45  1  0  0  0  0
 21 38  1  0  0  0  0
 22 29  1  0  0  0  0
 22 56  1  0  0  0  0
 23 85  1  0  0  0  0
 24 86  1  0  0  0  0
 25 27  2  0  0  0  0
 25 85  1  0  0  0  0
 26 87  1  0  0  0  0
 27 88  1  0  0  0  0
 28 67  2  0  0  0  0
 29 57  1  0  0  0  0
 29 68  2  0  0  0  0
 30 70  1  0  0  0  0
 30 73  1  0  0  0  0
 31 74  1  0  0  0  0
 31 80  2  0  0  0  0
 32 46  1  0  0  0  0
 32 75  1  0  0  0  0
 32 81  2  0  0  0  0
 33 64  1  0  0  0  0
 33 71  1  0  0  0  0
 33 82  2  0  0  0  0
 34 65  1  0  0  0  0
 34 76  1  0  0  0  0
 34 83  2  0  0  0  0
 35 72  1  0  0  0  0
 35 77  1  0  0  0  0
 35 84  2  0  0  0  0
 36 39  1  0  0  0  0
 37 46  1  0  0  0  0
 38 71  1  0  0  0  0
 39 41  1  0  0  0  0
 40 42  1  0  0  0  0
 40 43  1  0  0  0  0
 41 45  1  0  0  0  0
 42 47  1  0  0  0  0
 43 72  1  0  0  0  0
 44 47  1  0  0  0  0
 44 72  1  0  0  0  0
 45 75  1  0  0  0  0
 46 71  1  0  0  0  0
 47 70  1  0  0  0  0
 48 58  1  0  0  0  0
 49 65  1  0  0  0  0
 50 66  1  0  0  0  0
 51 66  1  0  0  0  0
 52 66  1  0  0  0  0
 53 69  1  0  0  0  0
 54 77  1  0  0  0  0
 55 78  1  0  0  0  0
 56 60  1  0  0  0  0
 57 77  1  0  0  0  0
 58 61  1  0  0  0  0
 59 62  1  0  0  0  0
 59 63  1  0  0  0  0
 60 79  1  0  0  0  0
 61 79  1  0  0  0  0
 62 79  1  0  0  0  0
 63 86  1  0  0  0  0
 64 66  1  0  0  0  0
 64 76  1  0  0  0  0
 65 78  1  0  0  0  0
 67 70  1  0  0  0  0
 68 69  1  0  0  0  0
M  CHG  2  78   1  79   1
M  ISO  4  35 100  63 101  77 100  86 101
M  END
> <Batch ID>
0058

> <Smiles>
CCCN(CCc1cn(C)nc1C[100N:0](C)[100C:0](=O)N1CCCC(n2nc(-c3ccc(Oc4ccc(F)cc4F)cc3)c(C(N)=O)c2N)C1)CC[101CH2:1][101O:1]c1ccc2c(c1)CN(C(=O)C(NC(=O)C(C)NC)C(C)(C)C)C(C(=O)NC1CCCc3ccccc31)C2

> <Shape>
0.210

> <Color>
0.066

> <Negative vol penalty>
0.000

$$$$

  -OEChem-04052317503D

 87 96  0     1  0  0  0  0  0999 V2000
  -18.5608  -28.3265   23.3206 C   0  0  0  0  0  0  0  0  0  0  0  0
  -18.0718  -27.0751   22.9599 C   0  0  0  0  0  0  0  0  0  0  0  0
  -28.7577  -23.7342   18.7663 C   0  0  0  0  0  0  0  0  0  0  0  0
  -30.3118  -22.7961   17.1721 C   0  0  0  0  0  0  0  0  0  0  0  0
  -19.9006  -28.6411   23.0970 C   0  0  0  0  0  0  0  0  0  0  0  0
  -18.9221  -26.1378   22.3743 C   0  0  0  0  0  0  0  0  0  0  0  0
  -20.0495  -19.0720   22.0269 C   0  0  0  0  0  0  0  0  0  0  0  0
  -29.2298  -25.0137   18.4737 C   0  0  0  0  0  0  0  0  0  0  0  0
  -30.7839  -24.0756   16.8794 C   0  0  0  0  0  0  0  0  0  0  0  0
  -20.2141  -18.0524   21.0904 C   0  0  0  0  0  0  0  0  0  0  0  0
  -28.8212  -27.3229   16.0378 C   0  0  0  0  0  0  0  0  0  0  0  0
  -27.8790  -28.3333   15.8459 C   0  0  0  0  0  0  0  0  0  0  0  0
  -22.5286  -18.6783   20.8247 C   0  0  0  0  0  0  0  0  0  0  0  0
  -28.8311  -29.5711   17.6894 C   0  0  0  0  0  0  0  0  0  0  0  0
  -24.5750  -11.9149   20.4512 C   0  0  0  0  0  0  0  0  0  0  0  0
  -22.8708  -15.5983   16.6216 C   0  0  0  0  0  0  0  0  0  0  0  0
  -25.3991  -13.9269   20.1228 C   0  0  0  0  0  0  0  0  0  0  0  0
  -22.8357  -13.5477   17.1911 C   0  0  0  0  0  0  0  0  0  0  0  0
  -29.2987  -22.6254   18.1155 C   0  0  0  0  0  0  0  0  0  0  0  0
  -27.7537  -20.6223   17.7868 C   0  0  0  0  0  0  0  0  0  0  0  0
  -20.7700  -27.7038   22.5172 C   0  0  0  0  0  0  0  0  0  0  0  0
  -21.1222  -19.9109   22.3618 C   0  0  0  0  0  0  0  0  0  0  0  0
  -20.2744  -26.4406   22.1415 C   0  0  0  0  0  0  0  0  0  0  0  0
  -22.3756  -19.7062   21.7676 C   0  0  0  0  0  0  0  0  0  0  0  0
  -24.2210  -13.2228   20.0691 C   0  0  0  0  0  0  0  0  0  0  0  0
  -30.2429  -25.1844   17.5302 C   0  0  0  0  0  0  0  0  0  0  0  0
  -21.4530  -17.8572   20.4870 C   0  0  0  0  0  0  0  0  0  0  0  0
  -29.7683  -27.4365   17.0556 C   0  0  0  0  0  0  0  0  0  0  0  0
  -27.8839  -29.4574   16.6717 C   0  0  0  0  0  0  0  0  0  0  0  0
  -29.7733  -28.5606   17.8813 C   0  0  0  0  0  0  0  0  0  0  0  0
  -28.8119  -21.3034   18.4178 C   0  0  0  0  0  0  0  0  0  0  0  0
  -22.8823  -15.5985   17.9965 C   0  0  0  0  0  0  0  0  0  0  0  0
  -27.6893  -19.4127   18.4344 C   0  0  0  0  0  0  0  0  0  0  0  0
  -26.9050  -21.0451   16.7113 C   0  0  0  0  0  0  0  0  0  0  0  0
  -21.6923  -23.0285   22.1193 C   0  0  0  0  0  0  0  0  0  0  0  0
  -24.3729  -22.2718   23.7819 C   0  0  0  0  0  0  0  0  0  0  0  0
  -26.6599  -19.8984   24.6669 C   0  0  0  0  0  0  0  0  0  0  0  0
  -30.6666  -14.9786   20.3816 C   0  0  0  0  0  0  0  0  0  0  0  0
  -22.1991  -28.1062   22.2519 C   0  0  0  0  0  0  0  0  0  0  0  0
  -20.9352  -20.9892   23.3936 C   0  0  0  0  0  0  0  0  0  0  0  0
  -23.5643  -20.5665   22.1076 C   0  0  0  0  0  0  0  0  0  0  0  0
  -23.1225  -26.9239   21.9698 C   0  0  0  0  0  0  0  0  0  0  0  0
  -29.9277  -17.7986   22.6627 C   0  0  0  0  0  0  0  0  0  0  0  0
  -22.4772  -25.9690   20.9706 C   0  0  0  0  0  0  0  0  0  0  0  0
  -29.5548  -18.9207   21.6953 C   0  0  0  0  0  0  0  0  0  0  0  0
  -30.8938  -16.8017   22.0297 C   0  0  0  0  0  0  0  0  0  0  0  0
  -30.0388  -17.3518   19.7757 C   0  0  0  0  0  0  0  0  0  0  0  0
  -21.1714  -25.3882   21.5266 C   0  0  1  0  0  0  0  0  0  0  0  0
  -21.9625  -22.1111   23.2782 C   0  0  1  0  0  0  0  0  0  0  0  0
  -29.0303  -18.3481   20.3670 C   0  0  2  0  0  0  0  0  0  0  0  0
  -28.7591  -19.5882   26.0065 C   0  0  0  0  0  0  0  0  0  0  0  0
  -28.0378  -13.6665   22.1799 C   0  0  0  0  0  0  0  0  0  0  0  0
  -25.9748  -23.6635   21.5895 C   0  0  0  0  0  0  0  0  0  0  0  0
  -28.0254  -22.5198   22.4584 C   0  0  0  0  0  0  0  0  0  0  0  0
  -26.7776  -24.1151   23.9145 C   0  0  0  0  0  0  0  0  0  0  0  0
  -30.1631  -13.2886   18.6583 C   0  0  0  0  0  0  0  0  0  0  0  0
  -25.3728  -17.9085   26.4396 C   0  0  0  0  0  0  0  0  0  0  0  0
  -22.8596  -13.7360   19.6849 C   0  0  0  0  0  0  0  0  0  0  0  0
  -22.9126  -16.7197   18.9932 C   0  0  0  0  0  0  0  0  0  1  0  0
  -28.2749  -14.4094   19.7827 C   0  0  0  0  0  0  0  0  0  0  0  0
  -25.7747  -21.8487   23.4150 C   0  0  1  0  0  0  0  0  0  0  0  0
  -27.2403  -19.5120   26.0153 C   0  0  2  0  0  0  0  0  0  0  0  0
  -27.7529  -13.3070   20.7177 C   0  0  2  0  0  0  0  0  0  0  0  0
  -26.6154  -23.0216   22.8363 C   0  0  0  0  0  0  0  0  0  0  0  0
  -22.8415  -14.3187   16.1264 N   0  0  0  0  0  0  0  0  0  0  0  0
  -25.8761  -11.7927   20.7271 N   0  0  0  0  0  0  0  0  0  0  0  0
  -29.3788  -20.5862   19.3916 N   0  0  0  0  0  0  0  0  0  0  0  0
  -26.3501  -13.0327   20.5181 N   0  0  0  0  0  0  0  0  0  0  0  0
  -22.8591  -14.2780   18.3468 N   0  0  0  0  0  0  0  0  0  0  0  0
  -28.6742  -19.4419   19.3774 N   0  0  0  0  0  0  0  0  0  0  0  0
  -23.3295  -21.6115   23.1176 N   0  0  0  0  0  0  0  0  0  0  0  0
  -30.3907  -16.3062   20.7481 N   0  0  0  0  0  0  0  0  0  0  0  0
  -26.8868  -18.3377   18.2835 N   0  0  0  0  0  0  0  0  0  0  0  0
  -27.1077  -22.3180   16.1610 N   0  0  0  0  0  0  0  0  0  0  0  0
  -21.4519  -24.3396   22.4838 N   0  0  0  0  0  0  0  0  0  0  0  0
  -26.3438  -21.2394   24.6122 N   0  0  0  0  0  0  0  0  0  0  0  0
  -29.7193  -14.3272   19.5771 N   0  0  0  0  0  0  0  0  0  0  0  0
  -26.8415  -18.1209   26.3715 N   0  3  0  0  0  0  0  0  0  0  0  0
  -25.9832  -20.3221   16.2629 O   0  0  0  0  0  0  0  0  0  0  0  0
  -21.7027  -22.5804   20.9788 O   0  0  0  0  0  0  0  0  0  0  0  0
  -24.2094  -23.1506   24.6320 O   0  0  0  0  0  0  0  0  0  0  0  0
  -26.5061  -19.0921   23.7521 O   0  0  0  0  0  0  0  0  0  0  0  0
  -31.6960  -14.4051   20.7601 O   0  0  0  0  0  0  0  0  0  0  0  0
  -30.7036  -26.4328   17.2443 O   0  0  0  0  0  0  0  0  0  0  0  0
  -21.6163  -16.8631   19.5722 O   0  0  0  0  0  0  0  0  0  1  0  0
  -26.9801  -30.4284   16.4863 F   0  0  0  0  0  0  0  0  0  0  0  0
  -30.6814  -28.6759   18.8600 F   0  0  0  0  0  0  0  0  0  0  0  0
  1  2  1  0  0  0  0
  1  5  2  0  0  0  0
  2  6  2  0  0  0  0
  3  8  2  0  0  0  0
  3 19  1  0  0  0  0
  4  9  1  0  0  0  0
  4 19  2  0  0  0  0
  5 21  1  0  0  0  0
  6 23  1  0  0  0  0
  7 10  2  0  0  0  0
  7 22  1  0  0  0  0
  8 26  1  0  0  0  0
  9 26  2  0  0  0  0
 10 27  1  0  0  0  0
 11 12  2  0  0  0  0
 11 28  1  0  0  0  0
 12 29  1  0  0  0  0
 13 24  1  0  0  0  0
 13 27  2  0  0  0  0
 14 29  2  0  0  0  0
 14 30  1  0  0  0  0
 15 25  1  0  0  0  0
 15 66  2  0  0  0  0
 16 32  2  0  0  0  0
 16 65  1  0  0  0  0
 17 25  2  0  0  0  0
 17 68  1  0  0  0  0
 18 65  2  0  0  0  0
 18 69  1  0  0  0  0
 19 31  1  0  0  0  0
 20 31  1  0  0  0  0
 20 33  2  0  0  0  0
 20 34  1  0  0  0  0
 21 23  2  0  0  0  0
 21 39  1  0  0  0  0
 22 24  2  0  0  0  0
 22 40  1  0  0  0  0
 23 48  1  0  0  0  0
 24 41  1  0  0  0  0
 25 58  1  0  0  0  0
 26 84  1  0  0  0  0
 27 85  1  0  0  0  0
 28 30  2  0  0  0  0
 28 84  1  0  0  0  0
 29 86  1  0  0  0  0
 30 87  1  0  0  0  0
 31 67  2  0  0  0  0
 32 59  1  0  0  0  0
 32 69  1  0  0  0  0
 33 70  1  0  0  0  0
 33 73  1  0  0  0  0
 34 74  1  0  0  0  0
 34 79  2  0  0  0  0
 35 49  1  0  0  0  0
 35 75  1  0  0  0  0
 35 80  2  0  0  0  0
 36 61  1  0  0  0  0
 36 71  1  0  0  0  0
 36 81  2  0  0  0  0
 37 62  1  0  0  0  0
 37 76  1  0  0  0  0
 37 82  2  0  0  0  0
 38 72  1  0  0  0  0
 38 77  1  0  0  0  0
 38 83  2  0  0  0  0
 39 42  1  0  0  0  0
 40 49  1  0  0  0  0
 41 71  1  0  0  0  0
 42 44  1  0  0  0  0
 43 45  1  0  0  0  0
 43 46  1  0  0  0  0
 44 48  1  0  0  0  0
 45 50  1  0  0  0  0
 46 72  1  0  0  0  0
 47 50  1  0  0  0  0
 47 72  1  0  0  0  0
 48 75  1  0  0  0  0
 49 71  1  0  0  0  0
 50 70  1  0  0  0  0
 51 62  1  0  0  0  0
 52 63  1  0  0  0  0
 53 64  1  0  0  0  0
 54 64  1  0  0  0  0
 55 64  1  0  0  0  0
 56 77  1  0  0  0  0
 57 78  1  0  0  0  0
 58 69  1  0  0  0  0
 59 85  1  0  0  0  0
 60 63  1  0  0  0  0
 60 77  1  0  0  0  0
 61 64  1  0  0  0  0
 61 76  1  0  0  0  0
 62 78  1  0  0  0  0
 63 68  1  0  0  0  0
 66 68  1  0  0  0  0
 67 70  1  0  0  0  0
M  CHG  1  78   1
M  ISO  4  38 100  59 101  77 100  85 101
M  END
> <Batch ID>
0058

> <Smiles>
CNC(C)C(=O)NC(C(=O)N1Cc2cc([101O:1][101CH2:1]c3cncn3Cc3cnn(C(C)C[100N:0](C)[100C:0](=O)N4CCCC(n5nc(-c6ccc(Oc7ccc(F)cc7F)cc6)c(C(N)=O)c5N)C4)c3)ccc2CC1C(=O)NC1CCCc2ccccc21)C(C)(C)C

> <Shape>
0.194

> <Color>
0.077

> <Negative vol penalty>
0.000

$$$$

  -OEChem-04052317503D

 80 88  0     1  0  0  0  0  0999 V2000
  -28.9098  -35.8894   25.7568 C   0  0  0  0  0  0  0  0  0  0  0  0
  -29.3180  -35.1838   24.6295 C   0  0  0  0  0  0  0  0  0  0  0  0
  -24.1049   -9.5827   22.2784 C   0  0  0  0  0  0  0  0  0  0  0  0
  -23.6131   -9.5153   19.9140 C   0  0  0  0  0  0  0  0  0  0  0  0
  -28.0384  -35.2978   26.6704 C   0  0  0  0  0  0  0  0  0  0  0  0
  -28.8559  -33.8857   24.4157 C   0  0  0  0  0  0  0  0  0  0  0  0
  -27.0924  -29.3878   19.1264 C   0  0  0  0  0  0  0  0  0  0  0  0
  -23.0805   -8.6667   22.5176 C   0  0  0  0  0  0  0  0  0  0  0  0
  -22.5887   -8.5993   20.1531 C   0  0  0  0  0  0  0  0  0  0  0  0
  -27.3668  -28.0984   18.6727 C   0  0  0  0  0  0  0  0  0  0  0  0
  -22.6118   -5.3286   22.2524 C   0  0  0  0  0  0  0  0  0  0  0  0
  -22.8797   -4.2679   23.1177 C   0  0  0  0  0  0  0  0  0  0  0  0
  -25.8020  -27.2071   20.2777 C   0  0  0  0  0  0  0  0  0  0  0  0
  -21.1003   -5.0075   24.5751 C   0  0  0  0  0  0  0  0  0  0  0  0
  -28.1539  -19.0188   20.7859 C   0  0  0  0  0  0  0  0  0  0  0  0
  -24.3711  -10.0071   20.9766 C   0  0  0  0  0  0  0  0  0  0  0  0
  -26.7797  -10.6669   20.4559 C   0  0  0  0  0  0  0  0  0  0  0  0
  -27.5577  -33.9953   26.4627 C   0  0  0  0  0  0  0  0  0  0  0  0
  -26.1773  -29.5961   20.1684 C   0  0  0  0  0  0  0  0  0  0  0  0
  -27.9783  -33.2756   25.3280 C   0  0  0  0  0  0  0  0  0  0  0  0
  -25.5158  -28.5004   20.7411 C   0  0  0  0  0  0  0  0  0  0  0  0
  -22.3225   -8.1750   21.4550 C   0  0  0  0  0  0  0  0  0  0  0  0
  -26.7237  -27.0076   19.2503 C   0  0  0  0  0  0  0  0  0  0  0  0
  -21.5882   -6.2288   22.5485 C   0  0  0  0  0  0  0  0  0  0  0  0
  -22.1239   -4.1074   24.2791 C   0  0  0  0  0  0  0  0  0  0  0  0
  -20.8325   -6.0683   23.7098 C   0  0  0  0  0  0  0  0  0  0  0  0
  -25.4288  -10.9537   20.7289 C   0  0  0  0  0  0  0  0  0  0  0  0
  -28.6842  -20.2727   20.9179 C   0  0  0  0  0  0  0  0  0  0  0  0
  -27.3670  -11.8984   20.2978 C   0  0  0  0  0  0  0  0  0  0  0  0
  -29.0173  -19.1904   22.8202 C   0  0  0  0  0  0  0  0  0  0  0  0
  -27.4442   -9.4005   20.3542 C   0  0  0  0  0  0  0  0  0  0  0  0
  -26.3528  -30.8194   23.0969 C   0  0  0  0  0  0  0  0  0  0  0  0
  -23.1338  -30.4235   23.0337 C   0  0  0  0  0  0  0  0  0  0  0  0
  -20.4414  -28.7850   21.7249 C   0  0  0  0  0  0  0  0  0  0  0  0
  -28.0077  -17.0650   22.3129 C   0  0  0  0  0  0  0  0  0  0  0  0
  -26.6546  -33.3804   27.5023 C   0  0  0  0  0  0  0  0  0  0  0  0
  -25.8724  -30.9953   20.6282 C   0  0  0  0  0  0  0  0  0  0  0  0
  -24.5097  -28.6719   21.8488 C   0  0  0  0  0  0  0  0  0  0  0  0
  -25.9157  -32.1388   27.0097 C   0  0  0  0  0  0  0  0  0  0  0  0
  -25.3236  -16.4972   19.8413 C   0  0  0  0  0  0  0  0  0  0  0  0
  -26.8745  -31.1993   26.2853 C   0  0  0  0  0  0  0  0  0  0  0  0
  -25.2019  -14.9732   19.8697 C   0  0  0  0  0  0  0  0  0  0  0  0
  -25.7348  -17.0401   21.2045 C   0  0  0  0  0  0  0  0  0  0  0  0
  -26.8887  -14.9291   21.7676 C   0  0  0  0  0  0  0  0  0  0  0  0
  -27.4793  -31.8745   25.0484 C   0  0  1  0  0  0  0  0  0  0  0  0
  -25.3060  -31.0490   22.0437 C   0  0  1  0  0  0  0  0  0  0  0  0
  -26.4885  -14.3237   20.4108 C   0  0  1  0  0  0  0  0  0  0  0  0
  -29.3415  -19.0409   24.2655 C   0  0  0  0  0  0  0  0  0  0  0  0
  -17.9415  -28.6518   21.8978 C   0  0  0  0  0  0  0  0  0  0  0  0
  -23.3999  -28.8655   25.6437 C   0  0  0  0  0  0  0  0  0  0  0  0
  -21.0918  -27.9725   25.2647 C   0  0  0  0  0  0  0  0  0  0  0  0
  -21.4466  -30.4246   25.5540 C   0  0  0  0  0  0  0  0  0  0  0  0
  -20.0872  -29.5829   18.8970 C   0  0  0  0  0  0  0  0  0  0  0  0
  -28.7348  -21.4314   19.9642 C   0  0  0  0  0  0  0  0  0  0  0  0
  -27.8358  -23.5769   19.3727 C   0  0  0  0  0  0  0  0  0  0  0  0
  -26.8735  -24.6894   19.7597 C   0  0  0  0  0  0  0  0  0  1  0  0
  -22.1861  -29.3099   23.4086 C   0  0  1  0  0  0  0  0  0  0  0  0
  -19.1188  -29.2946   21.1813 C   0  0  2  0  0  0  0  0  0  0  0  0
  -22.0514  -29.1394   24.9482 C   0  0  0  0  0  0  0  0  0  0  0  0
  -25.1729  -12.2646   20.7443 N   0  0  0  0  0  0  0  0  0  0  0  0
  -28.3265  -18.3838   22.0004 N   0  0  0  0  0  0  0  0  0  0  0  0
  -26.3711  -12.8124   20.4790 N   0  0  0  0  0  0  0  0  0  0  0  0
  -29.2074  -20.3516   22.1835 N   0  3  0  0  0  0  0  0  0  0  0  0
  -24.2504  -30.0592   22.2680 N   0  0  0  0  0  0  0  0  0  0  0  0
  -26.9554  -16.3893   21.6867 N   0  0  0  0  0  0  0  0  0  0  0  0
  -28.6331  -12.2777   20.0229 N   0  0  0  0  0  0  0  0  0  0  0  0
  -26.6915   -8.2338   20.5448 N   0  0  0  0  0  0  0  0  0  0  0  0
  -26.5250  -31.8843   23.9605 N   0  0  0  0  0  0  0  0  0  0  0  0
  -20.9286  -29.5972   22.7270 N   0  0  0  0  0  0  0  0  0  0  0  0
  -27.7763  -22.4701   20.3171 N   0  0  0  0  0  0  0  0  0  0  0  0
  -19.0057  -28.9919   19.7264 N   0  3  0  0  0  0  0  0  0  0  0  0
  -28.6726   -9.3069   20.1181 O   0  0  0  0  0  0  0  0  0  0  0  0
  -26.9583  -29.7544   23.1249 O   0  0  0  0  0  0  0  0  0  0  0  0
  -22.8886  -31.5755   23.4006 O   0  0  0  0  0  0  0  0  0  0  0  0
  -20.9860  -27.7662   21.3052 O   0  0  0  0  0  0  0  0  0  0  0  0
  -28.7410  -16.5537   23.1573 O   0  0  0  0  0  0  0  0  0  0  0  0
  -21.3230   -7.2809   21.6880 O   0  0  0  0  0  0  0  0  0  0  0  0
  -26.9902  -25.7479   18.8098 O   0  0  0  0  0  0  0  0  0  1  0  0
  -22.3802   -3.0879   25.1092 F   0  0  0  0  0  0  0  0  0  0  0  0
  -19.8471   -6.9292   23.9990 F   0  0  0  0  0  0  0  0  0  0  0  0
  1  2  1  0  0  0  0
  1  5  2  0  0  0  0
  2  6  2  0  0  0  0
  3  8  2  0  0  0  0
  3 16  1  0  0  0  0
  4  9  1  0  0  0  0
  4 16  2  0  0  0  0
  5 18  1  0  0  0  0
  6 20  1  0  0  0  0
  7 10  2  0  0  0  0
  7 19  1  0  0  0  0
  8 22  1  0  0  0  0
  9 22  2  0  0  0  0
 10 23  1  0  0  0  0
 11 12  2  0  0  0  0
 11 24  1  0  0  0  0
 12 25  1  0  0  0  0
 13 21  1  0  0  0  0
 13 23  2  0  0  0  0
 14 25  2  0  0  0  0
 14 26  1  0  0  0  0
 15 28  2  0  0  0  0
 15 61  1  0  0  0  0
 16 27  1  0  0  0  0
 17 27  1  0  0  0  0
 17 29  2  0  0  0  0
 17 31  1  0  0  0  0
 18 20  2  0  0  0  0
 18 36  1  0  0  0  0
 19 21  2  0  0  0  0
 19 37  1  0  0  0  0
 20 45  1  0  0  0  0
 21 38  1  0  0  0  0
 22 77  1  0  0  0  0
 23 78  1  0  0  0  0
 24 26  2  0  0  0  0
 24 77  1  0  0  0  0
 25 79  1  0  0  0  0
 26 80  1  0  0  0  0
 27 60  2  0  0  0  0
 28 54  1  0  0  0  0
 28 63  1  0  0  0  0
 29 62  1  0  0  0  0
 29 66  1  0  0  0  0
 30 48  1  0  0  0  0
 30 61  1  0  0  0  0
 30 63  2  0  0  0  0
 31 67  1  0  0  0  0
 31 72  2  0  0  0  0
 32 46  1  0  0  0  0
 32 68  1  0  0  0  0
 32 73  2  0  0  0  0
 33 57  1  0  0  0  0
 33 64  1  0  0  0  0
 33 74  2  0  0  0  0
 34 58  1  0  0  0  0
 34 69  1  0  0  0  0
 34 75  2  0  0  0  0
 35 61  1  0  0  0  0
 35 65  1  0  0  0  0
 35 76  2  0  0  0  0
 36 39  1  0  0  0  0
 37 46  1  0  0  0  0
 38 64  1  0  0  0  0
 39 41  1  0  0  0  0
 40 42  1  0  0  0  0
 40 43  1  0  0  0  0
 41 45  1  0  0  0  0
 42 47  1  0  0  0  0
 43 65  1  0  0  0  0
 44 47  1  0  0  0  0
 44 65  1  0  0  0  0
 45 68  1  0  0  0  0
 46 64  1  0  0  0  0
 47 62  1  0  0  0  0
 49 58  1  0  0  0  0
 50 59  1  0  0  0  0
 51 59  1  0  0  0  0
 52 59  1  0  0  0  0
 53 71  1  0  0  0  0
 54 70  1  0  0  0  0
 55 56  1  0  0  0  0
 55 70  1  0  0  0  0
 56 78  1  0  0  0  0
 57 59  1  0  0  0  0
 57 69  1  0  0  0  0
 58 71  1  0  0  0  0
 60 62  1  0  0  0  0
M  CHG  2  63   1  71   1
M  ISO  4  35 100  56 101  61 100  78 101
M  END
> <Batch ID>
0058

> <Smiles>
CNC(C)C(=O)NC(C(=O)N1Cc2cc([101O:1][101CH2:1]CNCc3c[100n:0]([100C:0](=O)N4CCCC(n5nc(-c6ccc(Oc7ccc(F)cc7F)cc6)c(C(N)=O)c5N)C4)c(C)n3)ccc2CC1C(=O)NC1CCCc2ccccc21)C(C)(C)C

> <Shape>
0.311

> <Color>
0.109

> <Negative vol penalty>
0.000

$$$$

  -OEChem-04052317503D

 87 95  0     1  0  0  0  0  0999 V2000
  -28.3440  -25.5755   15.8976 C   0  0  0  0  0  0  0  0  0  0  0  0
  -27.1759  -25.6109   16.6525 C   0  0  0  0  0  0  0  0  0  0  0  0
  -26.0699  -13.7586   19.8194 C   0  0  0  0  0  0  0  0  0  0  0  0
  -24.1379  -13.8027   21.2694 C   0  0  0  0  0  0  0  0  0  0  0  0
  -29.5222  -26.1144   16.4128 C   0  0  0  0  0  0  0  0  0  0  0  0
  -27.1856  -26.1844   17.9235 C   0  0  0  0  0  0  0  0  0  0  0  0
  -23.2062  -29.2137   18.7184 C   0  0  0  0  0  0  0  0  0  0  0  0
  -26.2352  -12.3985   20.0810 C   0  0  0  0  0  0  0  0  0  0  0  0
  -24.3032  -12.4426   21.5310 C   0  0  0  0  0  0  0  0  0  0  0  0
  -21.9885  -28.6015   19.0118 C   0  0  0  0  0  0  0  0  0  0  0  0
  -23.6349   -9.5117   19.9871 C   0  0  0  0  0  0  0  0  0  0  0  0
  -22.4983   -8.7038   19.9524 C   0  0  0  0  0  0  0  0  0  0  0  0
  -22.3326  -29.0542   21.3561 C   0  0  0  0  0  0  0  0  0  0  0  0
  -22.8619   -8.0932   22.2615 C   0  0  0  0  0  0  0  0  0  0  0  0
  -25.0213  -14.4607   20.4136 C   0  0  0  0  0  0  0  0  0  0  0  0
  -24.0892  -16.4471   19.1125 C   0  0  0  0  0  0  0  0  0  0  0  0
  -29.5441  -26.7034   17.6869 C   0  0  0  0  0  0  0  0  0  0  0  0
  -24.0027  -29.7420   19.7445 C   0  0  0  0  0  0  0  0  0  0  0  0
  -28.3655  -26.7305   18.4568 C   0  0  0  0  0  0  0  0  0  0  0  0
  -23.5588  -29.6749   21.0729 C   0  0  0  0  0  0  0  0  0  0  0  0
  -25.3519  -11.7405   20.9368 C   0  0  0  0  0  0  0  0  0  0  0  0
  -21.5528  -28.5191   20.3311 C   0  0  0  0  0  0  0  0  0  0  0  0
  -24.3850   -9.6102   21.1590 C   0  0  0  0  0  0  0  0  0  0  0  0
  -22.1118   -7.9946   21.0896 C   0  0  0  0  0  0  0  0  0  0  0  0
  -23.9985   -8.9010   22.2962 C   0  0  0  0  0  0  0  0  0  0  0  0
  -24.8504  -15.8658   20.1442 C   0  0  0  0  0  0  0  0  0  0  0  0
  -22.4412  -22.8781   21.6847 C   0  0  0  0  0  0  0  0  0  0  0  0
  -23.1268  -23.9962   21.1895 C   0  0  0  0  0  0  0  0  0  0  0  0
  -24.2503  -17.7999   19.2874 C   0  0  0  0  0  0  0  0  0  0  0  0
  -23.3064  -15.8204   18.0878 C   0  0  0  0  0  0  0  0  0  0  0  0
  -26.9197  -29.1408   20.8553 C   0  0  0  0  0  0  0  0  0  0  0  0
  -26.3341  -31.7485   22.6936 C   0  0  0  0  0  0  0  0  0  0  0  0
  -24.0371  -33.8045   24.1577 C   0  0  0  0  0  0  0  0  0  0  0  0
  -24.8205  -21.4137   23.9456 C   0  0  0  0  0  0  0  0  0  0  0  0
  -30.8525  -27.2305   18.2206 C   0  0  0  0  0  0  0  0  0  0  0  0
  -25.3012  -30.4230   19.4088 C   0  0  0  0  0  0  0  0  0  0  0  0
  -24.3671  -30.2446   22.2089 C   0  0  0  0  0  0  0  0  0  0  0  0
  -30.6910  -28.1556   19.4241 C   0  0  0  0  0  0  0  0  0  0  0  0
  -27.5583  -20.6650   21.5696 C   0  0  0  0  0  0  0  0  0  0  0  0
  -29.7259  -27.5493   20.4379 C   0  0  0  0  0  0  0  0  0  0  0  0
  -27.0901  -19.3633   20.9213 C   0  0  0  0  0  0  0  0  0  0  0  0
  -27.0160  -20.8197   22.9872 C   0  0  0  0  0  0  0  0  0  0  0  0
  -25.0670  -19.4024   22.4333 C   0  0  0  0  0  0  0  0  0  0  0  0
  -28.3302  -27.3661   19.8297 C   0  0  1  0  0  0  0  0  0  0  0  0
  -26.2728  -30.4696   20.5841 C   0  0  1  0  0  0  0  0  0  0  0  0
  -25.5580  -19.2377   20.9872 C   0  0  2  0  0  0  0  0  0  0  0  0
  -23.8609  -35.8287   25.6304 C   0  0  0  0  0  0  0  0  0  0  0  0
  -27.0404  -30.0405   25.1214 C   0  0  0  0  0  0  0  0  0  0  0  0
  -25.9524  -31.7705   26.5677 C   0  0  0  0  0  0  0  0  0  0  0  0
  -27.9419  -32.3723   25.1884 C   0  0  0  0  0  0  0  0  0  0  0  0
  -17.9031  -26.5552   21.3686 C   0  0  0  0  0  0  0  0  0  0  0  0
  -19.1592  -25.4683   23.2304 C   0  0  0  0  0  0  0  0  0  0  0  0
  -22.7057  -22.5575   24.4924 C   0  0  0  0  0  0  0  0  0  0  0  0
  -22.6272  -35.3489   22.0634 C   0  0  0  0  0  0  0  0  0  0  0  0
  -22.9757  -21.6209   22.2262 C   0  0  0  0  0  0  0  0  0  0  0  0
  -19.7708  -24.9980   20.7901 C   0  0  0  0  0  0  0  0  0  0  0  0
  -20.2520  -27.2820   21.8910 C   0  0  0  0  0  0  0  0  0  1  0  0
  -25.7175  -31.9826   24.0516 C   0  0  1  0  0  0  0  0  0  0  0  0
  -23.9215  -35.3176   24.1994 C   0  0  2  0  0  0  0  0  0  0  0  0
  -24.5737  -24.2269   21.0725 C   0  0  0  0  0  0  0  0  0  0  0  0
  -26.6485  -31.5289   25.2113 C   0  0  0  0  0  0  0  0  0  0  0  0
  -19.2992  -26.0684   21.8193 C   0  0  0  0  0  0  0  0  0  0  0  0
  -25.4506  -16.7749   20.9171 N   0  0  0  0  0  0  0  0  0  0  0  0
  -21.1235  -23.0849   21.6102 N   0  0  0  0  0  0  0  0  0  0  0  0
  -22.2520  -24.9251   20.7937 N   0  0  0  0  0  0  0  0  0  0  0  0
  -25.0667  -17.9411   20.3708 N   0  0  0  0  0  0  0  0  0  0  0  0
  -21.0890  -24.3153   21.0735 N   0  0  0  0  0  0  0  0  0  0  0  0
  -25.6325  -30.8950   21.8303 N   0  0  0  0  0  0  0  0  0  0  0  0
  -25.5628  -20.6530   23.0274 N   0  0  0  0  0  0  0  0  0  0  0  0
  -23.7719  -18.8705   18.6185 N   0  0  0  0  0  0  0  0  0  0  0  0
  -23.2491  -14.4204   18.0530 N   0  0  0  0  0  0  0  0  0  0  0  0
  -27.6287  -28.6311   19.7843 N   0  0  0  0  0  0  0  0  0  0  0  0
  -25.3521  -33.3943   24.0960 N   0  0  0  0  0  0  0  0  0  0  0  0
  -23.5112  -21.7597   23.5787 N   0  0  0  0  0  0  0  0  0  0  0  0
  -22.6895  -35.7627   23.4888 N   0  3  0  0  0  0  0  0  0  0  0  0
  -22.6896  -16.4819   17.2186 O   0  0  0  0  0  0  0  0  0  0  0  0
  -26.7867  -28.6174   21.9553 O   0  0  0  0  0  0  0  0  0  0  0  0
  -27.3953  -32.3080   22.4067 O   0  0  0  0  0  0  0  0  0  0  0  0
  -23.0589  -33.0608   24.1814 O   0  0  0  0  0  0  0  0  0  0  0  0
  -25.3040  -21.7717   25.0272 O   0  0  0  0  0  0  0  0  0  0  0  0
  -25.5127  -10.4133   21.1921 O   0  0  0  0  0  0  0  0  0  0  0  0
  -20.3650  -27.9215   20.6203 O   0  0  0  0  0  0  0  0  0  1  0  0
  -21.0195   -7.2201   21.0566 F   0  0  0  0  0  0  0  0  0  0  0  0
  -24.7144   -8.9926   23.4253 F   0  0  0  0  0  0  0  0  0  0  0  0
  -25.3537  -23.1860   21.5176 F   0  0  0  0  0  0  0  0  0  0  0  0
  -25.0116  -24.4502   19.7888 F   0  0  0  0  0  0  0  0  0  0  0  0
  -25.0125  -25.3172   21.7831 F   0  0  0  0  0  0  0  0  0  0  0  0
  1  2  1  0  0  0  0
  1  5  2  0  0  0  0
  2  6  2  0  0  0  0
  3  8  2  0  0  0  0
  3 15  1  0  0  0  0
  4  9  1  0  0  0  0
  4 15  2  0  0  0  0
  5 17  1  0  0  0  0
  6 19  1  0  0  0  0
  7 10  2  0  0  0  0
  7 18  1  0  0  0  0
  8 21  1  0  0  0  0
  9 21  2  0  0  0  0
 10 22  1  0  0  0  0
 11 12  2  0  0  0  0
 11 23  1  0  0  0  0
 12 24  1  0  0  0  0
 13 20  1  0  0  0  0
 13 22  2  0  0  0  0
 14 24  2  0  0  0  0
 14 25  1  0  0  0  0
 15 26  1  0  0  0  0
 16 26  1  0  0  0  0
 16 29  2  0  0  0  0
 16 30  1  0  0  0  0
 17 19  2  0  0  0  0
 17 35  1  0  0  0  0
 18 20  2  0  0  0  0
 18 36  1  0  0  0  0
 19 44  1  0  0  0  0
 20 37  1  0  0  0  0
 21 81  1  0  0  0  0
 22 82  1  0  0  0  0
 23 25  2  0  0  0  0
 23 81  1  0  0  0  0
 24 83  1  0  0  0  0
 25 84  1  0  0  0  0
 26 63  2  0  0  0  0
 27 28  1  0  0  0  0
 27 55  1  0  0  0  0
 27 64  2  0  0  0  0
 28 60  1  0  0  0  0
 28 65  2  0  0  0  0
 29 66  1  0  0  0  0
 29 70  1  0  0  0  0
 30 71  1  0  0  0  0
 30 76  2  0  0  0  0
 31 45  1  0  0  0  0
 31 72  1  0  0  0  0
 31 77  2  0  0  0  0
 32 58  1  0  0  0  0
 32 68  1  0  0  0  0
 32 78  2  0  0  0  0
 33 59  1  0  0  0  0
 33 73  1  0  0  0  0
 33 79  2  0  0  0  0
 34 69  1  0  0  0  0
 34 74  1  0  0  0  0
 34 80  2  0  0  0  0
 35 38  1  0  0  0  0
 36 45  1  0  0  0  0
 37 68  1  0  0  0  0
 38 40  1  0  0  0  0
 39 41  1  0  0  0  0
 39 42  1  0  0  0  0
 40 44  1  0  0  0  0
 41 46  1  0  0  0  0
 42 69  1  0  0  0  0
 43 46  1  0  0  0  0
 43 69  1  0  0  0  0
 44 72  1  0  0  0  0
 45 68  1  0  0  0  0
 46 66  1  0  0  0  0
 47 59  1  0  0  0  0
 48 61  1  0  0  0  0
 49 61  1  0  0  0  0
 50 61  1  0  0  0  0
 51 62  1  0  0  0  0
 52 62  1  0  0  0  0
 53 74  1  0  0  0  0
 54 75  1  0  0  0  0
 55 74  1  0  0  0  0
 56 62  1  0  0  0  0
 56 67  1  0  0  0  0
 57 62  1  0  0  0  0
 57 82  1  0  0  0  0
 58 61  1  0  0  0  0
 58 73  1  0  0  0  0
 59 75  1  0  0  0  0
 60 85  1  0  0  0  0
 60 86  1  0  0  0  0
 60 87  1  0  0  0  0
 63 66  1  0  0  0  0
 64 67  1  0  0  0  0
 65 67  1  0  0  0  0
M  CHG  1  75   1
M  ISO  4  34 100  57 101  74 100  82 101
M  END
> <Batch ID>
0058

> <Smiles>
CNC(C)C(=O)NC(C(=O)N1Cc2cc([101O:1][101CH2:1]C(C)(C)Cn3nc(C[100N:0](C)[100C:0](=O)N4CCCC(n5nc(-c6ccc(Oc7ccc(F)cc7F)cc6)c(C(N)=O)c5N)C4)c(C(F)(F)F)n3)ccc2CC1C(=O)NC1CCCc2ccccc21)C(C)(C)C

> <Shape>
0.274

> <Color>
0.091

> <Negative vol penalty>
0.000

$$$$

  -OEChem-04052317503D

 80 88  0     1  0  0  0  0  0999 V2000
  -17.7572  -30.1001   24.8305 C   0  0  0  0  0  0  0  0  0  0  0  0
  -18.6904  -29.1057   25.1060 C   0  0  0  0  0  0  0  0  0  0  0  0
  -23.8319   -9.8949   22.4104 C   0  0  0  0  0  0  0  0  0  0  0  0
  -24.4647  -11.6016   23.9990 C   0  0  0  0  0  0  0  0  0  0  0  0
  -17.5243  -30.4899   23.5123 C   0  0  0  0  0  0  0  0  0  0  0  0
  -19.3904  -28.4998   24.0632 C   0  0  0  0  0  0  0  0  0  0  0  0
  -25.7685  -25.6049   22.5613 C   0  0  0  0  0  0  0  0  0  0  0  0
  -23.3720   -9.0931   23.4550 C   0  0  0  0  0  0  0  0  0  0  0  0
  -24.0048  -10.7998   25.0437 C   0  0  0  0  0  0  0  0  0  0  0  0
  -26.3257  -24.4401   22.0355 C   0  0  0  0  0  0  0  0  0  0  0  0
  -20.6344   -8.9037   25.4305 C   0  0  0  0  0  0  0  0  0  0  0  0
  -19.3989   -8.2765   25.2707 C   0  0  0  0  0  0  0  0  0  0  0  0
  -25.8979  -25.2500   19.8039 C   0  0  0  0  0  0  0  0  0  0  0  0
  -20.4618   -6.1205   25.5138 C   0  0  0  0  0  0  0  0  0  0  0  0
  -27.1756  -20.0829   19.6972 C   0  0  0  0  0  0  0  0  0  0  0  0
  -29.8324  -19.8508   19.5741 C   0  0  0  0  0  0  0  0  0  0  0  0
  -24.3783  -11.1492   22.6824 C   0  0  0  0  0  0  0  0  0  0  0  0
  -24.1170  -12.9300   20.8746 C   0  0  0  0  0  0  0  0  0  0  0  0
  -18.2287  -29.8952   22.4536 C   0  0  0  0  0  0  0  0  0  0  0  0
  -25.2611  -26.5979   21.7111 C   0  0  0  0  0  0  0  0  0  0  0  0
  -19.1657  -28.8811   22.7295 C   0  0  0  0  0  0  0  0  0  0  0  0
  -25.3371  -26.4276   20.3213 C   0  0  0  0  0  0  0  0  0  0  0  0
  -23.4584   -9.5456   24.7716 C   0  0  0  0  0  0  0  0  0  0  0  0
  -26.3878  -24.2612   20.6567 C   0  0  0  0  0  0  0  0  0  0  0  0
  -21.7837   -8.1393   25.6319 C   0  0  0  0  0  0  0  0  0  0  0  0
  -19.3125   -6.8849   25.3124 C   0  0  0  0  0  0  0  0  0  0  0  0
  -21.6974   -6.7477   25.6736 C   0  0  0  0  0  0  0  0  0  0  0  0
  -24.8540  -11.9777   21.6038 C   0  0  0  0  0  0  0  0  0  0  0  0
  -27.9986  -21.0001   20.3128 C   0  0  0  0  0  0  0  0  0  0  0  0
  -29.0095  -18.9331   18.9591 C   0  0  0  0  0  0  0  0  0  0  0  0
  -25.0157  -13.4402   19.9698 C   0  0  0  0  0  0  0  0  0  0  0  0
  -22.7430  -13.3188   21.0037 C   0  0  0  0  0  0  0  0  0  0  0  0
  -22.3990  -27.8967   21.2364 C   0  0  0  0  0  0  0  0  0  0  0  0
  -24.0536  -29.8727   19.2666 C   0  0  0  0  0  0  0  0  0  0  0  0
  -26.8113  -30.3805   17.3214 C   0  0  0  0  0  0  0  0  0  0  0  0
  -30.0876  -15.4115   18.7309 C   0  0  0  0  0  0  0  0  0  0  0  0
  -17.9086  -30.3166   21.0413 C   0  0  0  0  0  0  0  0  0  0  0  0
  -24.6875  -27.8605   22.2935 C   0  0  0  0  0  0  0  0  0  0  0  0
  -24.8249  -27.4725   19.3652 C   0  0  0  0  0  0  0  0  0  0  0  0
  -18.9629  -29.8879   20.0239 C   0  0  0  0  0  0  0  0  0  0  0  0
  -29.6557  -11.8775   18.6994 C   0  0  0  0  0  0  0  0  0  0  0  0
  -19.3488  -28.4277   20.2382 C   0  0  0  0  0  0  0  0  0  0  0  0
  -28.3109  -11.6671   19.3973 C   0  0  0  0  0  0  0  0  0  0  0  0
  -30.4396  -13.0314   19.3207 C   0  0  0  0  0  0  0  0  0  0  0  0
  -28.3585  -14.0963   20.1010 C   0  0  0  0  0  0  0  0  0  0  0  0
  -19.9628  -28.2176   21.6275 C   0  0  1  0  0  0  0  0  0  0  0  0
  -23.7341  -28.5778   21.3428 C   0  0  1  0  0  0  0  0  0  0  0  0
  -27.5073  -12.9792   19.4734 C   0  0  2  0  0  0  0  0  0  0  0  0
  -29.1866  -17.7789   16.7234 C   0  0  0  0  0  0  0  0  0  0  0  0
  -27.8667  -32.0786   15.8048 C   0  0  0  0  0  0  0  0  0  0  0  0
  -22.0658  -29.1426   17.0698 C   0  0  0  0  0  0  0  0  0  0  0  0
  -23.6778  -30.0763   15.3972 C   0  0  0  0  0  0  0  0  0  0  0  0
  -22.6962  -31.5616   17.1445 C   0  0  0  0  0  0  0  0  0  0  0  0
  -29.2025  -30.6092   19.0502 C   0  0  0  0  0  0  0  0  0  0  0  0
  -27.4172  -22.1575   21.0703 C   0  0  0  0  0  0  0  0  0  1  0  0
  -29.5864  -17.7850   18.2072 C   0  0  2  0  0  0  0  0  0  0  0  0
  -24.4366  -29.8514   17.8065 C   0  0  1  0  0  0  0  0  0  0  0  0
  -27.7764  -31.5484   17.2273 C   0  0  2  0  0  0  0  0  0  0  0  0
  -23.2271  -30.1373   16.8723 C   0  0  0  0  0  0  0  0  0  0  0  0
  -29.3417  -20.9007   20.2621 N   0  0  0  0  0  0  0  0  0  0  0  0
  -27.6663  -19.0327   19.0095 N   0  0  0  0  0  0  0  0  0  0  0  0
  -26.1230  -11.8863   21.1973 N   0  0  0  0  0  0  0  0  0  0  0  0
  -26.1904  -12.7876   20.2028 N   0  0  0  0  0  0  0  0  0  0  0  0
  -24.2673  -28.6868   19.9834 N   0  0  0  0  0  0  0  0  0  0  0  0
  -29.6218  -14.2461   19.3617 N   0  0  0  0  0  0  0  0  0  0  0  0
  -24.9076  -14.3788   19.0056 N   0  0  0  0  0  0  0  0  0  0  0  0
  -21.9613  -12.6941   21.9851 N   0  0  0  0  0  0  0  0  0  0  0  0
  -21.3352  -28.6765   21.6483 N   0  0  0  0  0  0  0  0  0  0  0  0
  -25.5404  -30.7942   17.6603 N   0  0  0  0  0  0  0  0  0  0  0  0
  -29.2482  -16.5159   18.8119 N   0  0  0  0  0  0  0  0  0  0  0  0
  -29.1397  -31.1301   17.6603 N   0  3  0  0  0  0  0  0  0  0  0  0
  -22.2196  -14.1824   20.2596 O   0  0  0  0  0  0  0  0  0  0  0  0
  -22.3383  -26.7492   20.8107 O   0  0  0  0  0  0  0  0  0  0  0  0
  -23.5887  -30.9057   19.7549 O   0  0  0  0  0  0  0  0  0  0  0  0
  -27.1501  -29.2179   17.1113 O   0  0  0  0  0  0  0  0  0  0  0  0
  -31.1688  -15.4624   18.1348 O   0  0  0  0  0  0  0  0  0  0  0  0
  -23.0096   -8.7635   25.7912 O   0  0  0  0  0  0  0  0  0  0  0  0
  -26.9306  -23.1249   20.1408 O   0  0  0  0  0  0  0  0  0  1  0  0
  -18.1257   -6.2828   25.1605 F   0  0  0  0  0  0  0  0  0  0  0  0
  -22.7979   -6.0082   25.8679 F   0  0  0  0  0  0  0  0  0  0  0  0
  1  2  1  0  0  0  0
  1  5  2  0  0  0  0
  2  6  2  0  0  0  0
  3  8  2  0  0  0  0
  3 17  1  0  0  0  0
  4  9  1  0  0  0  0
  4 17  2  0  0  0  0
  5 19  1  0  0  0  0
  6 21  1  0  0  0  0
  7 10  2  0  0  0  0
  7 20  1  0  0  0  0
  8 23  1  0  0  0  0
  9 23  2  0  0  0  0
 10 24  1  0  0  0  0
 11 12  2  0  0  0  0
 11 25  1  0  0  0  0
 12 26  1  0  0  0  0
 13 22  1  0  0  0  0
 13 24  2  0  0  0  0
 14 26  2  0  0  0  0
 14 27  1  0  0  0  0
 15 29  1  0  0  0  0
 15 61  2  0  0  0  0
 16 30  2  0  0  0  0
 16 60  1  0  0  0  0
 17 28  1  0  0  0  0
 18 28  1  0  0  0  0
 18 31  2  0  0  0  0
 18 32  1  0  0  0  0
 19 21  2  0  0  0  0
 19 37  1  0  0  0  0
 20 22  2  0  0  0  0
 20 38  1  0  0  0  0
 21 46  1  0  0  0  0
 22 39  1  0  0  0  0
 23 77  1  0  0  0  0
 24 78  1  0  0  0  0
 25 27  2  0  0  0  0
 25 77  1  0  0  0  0
 26 79  1  0  0  0  0
 27 80  1  0  0  0  0
 28 62  2  0  0  0  0
 29 55  1  0  0  0  0
 29 60  2  0  0  0  0
 30 56  1  0  0  0  0
 30 61  1  0  0  0  0
 31 63  1  0  0  0  0
 31 66  1  0  0  0  0
 32 67  1  0  0  0  0
 32 72  2  0  0  0  0
 33 47  1  0  0  0  0
 33 68  1  0  0  0  0
 33 73  2  0  0  0  0
 34 57  1  0  0  0  0
 34 64  1  0  0  0  0
 34 74  2  0  0  0  0
 35 58  1  0  0  0  0
 35 69  1  0  0  0  0
 35 75  2  0  0  0  0
 36 65  1  0  0  0  0
 36 70  1  0  0  0  0
 36 76  2  0  0  0  0
 37 40  1  0  0  0  0
 38 47  1  0  0  0  0
 39 64  1  0  0  0  0
 40 42  1  0  0  0  0
 41 43  1  0  0  0  0
 41 44  1  0  0  0  0
 42 46  1  0  0  0  0
 43 48  1  0  0  0  0
 44 65  1  0  0  0  0
 45 48  1  0  0  0  0
 45 65  1  0  0  0  0
 46 68  1  0  0  0  0
 47 64  1  0  0  0  0
 48 63  1  0  0  0  0
 49 56  1  0  0  0  0
 50 58  1  0  0  0  0
 51 59  1  0  0  0  0
 52 59  1  0  0  0  0
 53 59  1  0  0  0  0
 54 71  1  0  0  0  0
 55 78  1  0  0  0  0
 56 70  1  0  0  0  0
 57 59  1  0  0  0  0
 57 69  1  0  0  0  0
 58 71  1  0  0  0  0
 62 63  1  0  0  0  0
M  CHG  1  71   1
M  ISO  4  36 100  55 101  70 100  78 101
M  END
> <Batch ID>
0058

> <Smiles>
CNC(C)C(=O)NC(C(=O)N1Cc2cc([101O:1][101CH2:1]c3cnc(C(C)[100NH:0][100C:0](=O)N4CCCC(n5nc(-c6ccc(Oc7ccc(F)cc7F)cc6)c(C(N)=O)c5N)C4)cn3)ccc2CC1C(=O)NC1CCCc2ccccc21)C(C)(C)C

> <Shape>
0.225

> <Color>
0.123

> <Negative vol penalty>
0.000

$$$$

  -OEChem-04052317503D

 83 91  0     1  0  0  0  0  0999 V2000
  -16.7706  -29.6282   24.1575 C   0  0  0  0  0  0  0  0  0  0  0  0
  -17.1110  -28.7906   23.1001 C   0  0  0  0  0  0  0  0  0  0  0  0
  -26.0856  -13.2416   21.2100 C   0  0  0  0  0  0  0  0  0  0  0  0
  -26.0557  -13.4424   18.8025 C   0  0  0  0  0  0  0  0  0  0  0  0
  -17.6112  -30.6840   24.5075 C   0  0  0  0  0  0  0  0  0  0  0  0
  -18.2919  -29.0091   22.3914 C   0  0  0  0  0  0  0  0  0  0  0  0
  -21.9408  -24.7583   19.9172 C   0  0  0  0  0  0  0  0  0  0  0  0
  -24.9743  -12.4005   21.1537 C   0  0  0  0  0  0  0  0  0  0  0  0
  -24.9443  -12.6013   18.7462 C   0  0  0  0  0  0  0  0  0  0  0  0
  -22.0629  -24.2680   18.6178 C   0  0  0  0  0  0  0  0  0  0  0  0
  -24.3388   -9.1568   20.4414 C   0  0  0  0  0  0  0  0  0  0  0  0
  -24.3617   -7.9994   21.2195 C   0  0  0  0  0  0  0  0  0  0  0  0
  -23.8813  -25.8015   18.2165 C   0  0  0  0  0  0  0  0  0  0  0  0
  -22.3894   -8.7508   22.3952 C   0  0  0  0  0  0  0  0  0  0  0  0
  -25.8758  -21.4380   15.8839 C   0  0  0  0  0  0  0  0  0  0  0  0
  -26.6263  -13.7626   20.0344 C   0  0  0  0  0  0  0  0  0  0  0  0
  -29.1294  -14.2547   20.0434 C   0  0  0  0  0  0  0  0  0  0  0  0
  -18.8078  -30.9096   23.8089 C   0  0  0  0  0  0  0  0  0  0  0  0
  -22.7823  -25.7831   20.3733 C   0  0  0  0  0  0  0  0  0  0  0  0
  -19.1487  -30.0698   22.7315 C   0  0  0  0  0  0  0  0  0  0  0  0
  -23.7695  -26.3013   19.5230 C   0  0  0  0  0  0  0  0  0  0  0  0
  -24.4037  -12.0804   19.9218 C   0  0  0  0  0  0  0  0  0  0  0  0
  -23.0313  -24.7917   17.7662 C   0  0  0  0  0  0  0  0  0  0  0  0
  -23.3412  -10.1113   20.6403 C   0  0  0  0  0  0  0  0  0  0  0  0
  -23.3870   -7.7963   22.1964 C   0  0  0  0  0  0  0  0  0  0  0  0
  -22.3665   -9.9082   21.6172 C   0  0  0  0  0  0  0  0  0  0  0  0
  -27.7739  -14.6319   20.0919 C   0  0  0  0  0  0  0  0  0  0  0  0
  -25.0672  -22.4385   15.3120 C   0  0  0  0  0  0  0  0  0  0  0  0
  -27.1447  -21.9627   15.8529 C   0  0  0  0  0  0  0  0  0  0  0  0
  -29.8188  -15.4392   20.1328 C   0  0  0  0  0  0  0  0  0  0  0  0
  -29.7130  -12.9502   19.9278 C   0  0  0  0  0  0  0  0  0  0  0  0
  -22.3389  -28.7551   21.4098 C   0  0  0  0  0  0  0  0  0  0  0  0
  -25.5184  -28.5968   22.0330 C   0  0  0  0  0  0  0  0  0  0  0  0
  -28.5383  -27.1650   21.3426 C   0  0  0  0  0  0  0  0  0  0  0  0
  -28.4032  -21.0941   18.7654 C   0  0  0  0  0  0  0  0  0  0  0  0
  -19.6610  -32.0923   24.1936 C   0  0  0  0  0  0  0  0  0  0  0  0
  -22.6554  -26.2825   21.7864 C   0  0  0  0  0  0  0  0  0  0  0  0
  -24.7111  -27.3882   19.9708 C   0  0  0  0  0  0  0  0  0  0  0  0
  -21.0791  -32.0286   23.6321 C   0  0  0  0  0  0  0  0  0  0  0  0
  -29.4550  -19.8568   21.9339 C   0  0  0  0  0  0  0  0  0  0  0  0
  -21.0518  -31.6482   22.1552 C   0  0  0  0  0  0  0  0  0  0  0  0
  -29.2657  -18.3433   21.8168 C   0  0  0  0  0  0  0  0  0  0  0  0
  -28.3578  -20.6215   21.1967 C   0  0  0  0  0  0  0  0  0  0  0  0
  -27.9890  -18.7250   19.6666 C   0  0  0  0  0  0  0  0  0  0  0  0
  -20.4333  -30.2594   21.9545 C   0  0  1  0  0  0  0  0  0  0  0  0
  -23.2263  -27.6841   21.9783 C   0  0  1  0  0  0  0  0  0  0  0  0
  -29.1026  -17.9107   20.3472 C   0  0  2  0  0  0  0  0  0  0  0  0
  -29.1787  -20.6180   15.2076 C   0  0  0  0  0  0  0  0  0  0  0  0
  -30.9843  -26.6584   21.5826 C   0  0  0  0  0  0  0  0  0  0  0  0
  -28.3523  -25.0390   16.2486 C   0  0  0  0  0  0  0  0  0  0  0  0
  -27.8289  -24.9701   13.7732 C   0  0  0  0  0  0  0  0  0  0  0  0
  -25.8377  -31.1581   20.4058 C   0  0  0  0  0  0  0  0  0  0  0  0
  -28.2941  -30.6905   20.2819 C   0  0  0  0  0  0  0  0  0  0  0  0
  -27.2090  -31.0720   22.4954 C   0  0  0  0  0  0  0  0  0  0  0  0
  -28.0163  -24.9916   23.2824 C   0  0  0  0  0  0  0  0  0  0  0  0
  -23.5748  -22.3993   15.0894 C   0  0  0  0  0  0  0  0  0  0  0  0
  -22.7965  -22.9508   16.2790 C   0  0  0  0  0  0  0  0  0  1  0  0
  -28.4338  -21.4070   16.3036 C   0  0  2  0  0  0  0  0  0  0  0  0
  -26.7763  -28.9094   21.2592 C   0  0  1  0  0  0  0  0  0  0  0  0
  -29.6189  -26.6056   22.2502 C   0  0  2  0  0  0  0  0  0  0  0  0
  -28.0847  -24.1452   15.0360 C   0  0  0  0  0  0  0  0  0  0  0  0
  -27.0104  -30.4383   21.1012 C   0  0  0  0  0  0  0  0  0  0  0  0
  -27.6100  -15.9527   20.2037 N   0  0  0  0  0  0  0  0  0  0  0  0
  -25.7640  -23.5172   14.9447 N   0  0  0  0  0  0  0  0  0  0  0  0
  -27.0237  -23.1976   15.2867 N   0  0  0  0  0  0  0  0  0  0  0  0
  -28.8713  -16.4158   20.2262 N   0  0  0  0  0  0  0  0  0  0  0  0
  -24.5432  -27.8477   21.3594 N   0  0  0  0  0  0  0  0  0  0  0  0
  -28.2559  -20.1649   19.8085 N   0  0  0  0  0  0  0  0  0  0  0  0
  -31.1370  -15.7303   20.1400 N   0  0  0  0  0  0  0  0  0  0  0  0
  -28.8598  -11.8413   19.8467 N   0  0  0  0  0  0  0  0  0  0  0  0
  -21.3885  -29.2268   22.2950 N   0  0  0  0  0  0  0  0  0  0  0  0
  -27.8590  -28.2062   21.9388 N   0  0  0  0  0  0  0  0  0  0  0  0
  -28.2988  -20.5770   17.4800 N   0  0  0  0  0  0  0  0  0  0  0  0
  -29.3203  -25.1876   22.5981 N   0  3  0  0  0  0  0  0  0  0  0  0
  -30.9546  -12.7718   19.9138 O   0  0  0  0  0  0  0  0  0  0  0  0
  -22.5052  -29.1271   20.2541 O   0  0  0  0  0  0  0  0  0  0  0  0
  -25.4081  -28.9963   23.1949 O   0  0  0  0  0  0  0  0  0  0  0  0
  -28.3211  -26.7248   20.2158 O   0  0  0  0  0  0  0  0  0  0  0  0
  -28.6176  -22.2946   18.9649 O   0  0  0  0  0  0  0  0  0  0  0  0
  -23.3194  -11.2595   19.8665 O   0  0  0  0  0  0  0  0  0  0  0  0
  -23.1522  -24.3154   16.4972 O   0  0  0  0  0  0  0  0  0  1  0  0
  -23.4082   -6.6841   22.9424 F   0  0  0  0  0  0  0  0  0  0  0  0
  -21.4049  -10.8210   21.8121 F   0  0  0  0  0  0  0  0  0  0  0  0
  1  2  1  0  0  0  0
  1  5  2  0  0  0  0
  2  6  2  0  0  0  0
  3  8  2  0  0  0  0
  3 16  1  0  0  0  0
  4  9  1  0  0  0  0
  4 16  2  0  0  0  0
  5 18  1  0  0  0  0
  6 20  1  0  0  0  0
  7 10  2  0  0  0  0
  7 19  1  0  0  0  0
  8 22  1  0  0  0  0
  9 22  2  0  0  0  0
 10 23  1  0  0  0  0
 11 12  2  0  0  0  0
 11 24  1  0  0  0  0
 12 25  1  0  0  0  0
 13 21  1  0  0  0  0
 13 23  2  0  0  0  0
 14 25  2  0  0  0  0
 14 26  1  0  0  0  0
 15 28  1  0  0  0  0
 15 29  2  0  0  0  0
 16 27  1  0  0  0  0
 17 27  1  0  0  0  0
 17 30  2  0  0  0  0
 17 31  1  0  0  0  0
 18 20  2  0  0  0  0
 18 36  1  0  0  0  0
 19 21  2  0  0  0  0
 19 37  1  0  0  0  0
 20 45  1  0  0  0  0
 21 38  1  0  0  0  0
 22 80  1  0  0  0  0
 23 81  1  0  0  0  0
 24 26  2  0  0  0  0
 24 80  1  0  0  0  0
 25 82  1  0  0  0  0
 26 83  1  0  0  0  0
 27 63  2  0  0  0  0
 28 56  1  0  0  0  0
 28 64  2  0  0  0  0
 29 58  1  0  0  0  0
 29 65  1  0  0  0  0
 30 66  1  0  0  0  0
 30 69  1  0  0  0  0
 31 70  1  0  0  0  0
 31 75  2  0  0  0  0
 32 46  1  0  0  0  0
 32 71  1  0  0  0  0
 32 76  2  0  0  0  0
 33 59  1  0  0  0  0
 33 67  1  0  0  0  0
 33 77  2  0  0  0  0
 34 60  1  0  0  0  0
 34 72  1  0  0  0  0
 34 78  2  0  0  0  0
 35 68  1  0  0  0  0
 35 73  1  0  0  0  0
 35 79  2  0  0  0  0
 36 39  1  0  0  0  0
 37 46  1  0  0  0  0
 38 67  1  0  0  0  0
 39 41  1  0  0  0  0
 40 42  1  0  0  0  0
 40 43  1  0  0  0  0
 41 45  1  0  0  0  0
 42 47  1  0  0  0  0
 43 68  1  0  0  0  0
 44 47  1  0  0  0  0
 44 68  1  0  0  0  0
 45 71  1  0  0  0  0
 46 67  1  0  0  0  0
 47 66  1  0  0  0  0
 48 58  1  0  0  0  0
 49 60  1  0  0  0  0
 50 61  1  0  0  0  0
 51 61  1  0  0  0  0
 52 62  1  0  0  0  0
 53 62  1  0  0  0  0
 54 62  1  0  0  0  0
 55 74  1  0  0  0  0
 56 57  1  0  0  0  0
 57 81  1  0  0  0  0
 58 73  1  0  0  0  0
 59 62  1  0  0  0  0
 59 72  1  0  0  0  0
 60 74  1  0  0  0  0
 61 65  1  0  0  0  0
 63 66  1  0  0  0  0
 64 65  1  0  0  0  0
M  CHG  1  74   1
M  ISO  4  35 100  57 101  73 100  81 101
M  END
> <Batch ID>
0058

> <Smiles>
CNC(C)C(=O)NC(C(=O)N1Cc2cc([101O:1][101CH2:1]Cc3cc(C(C)[100NH:0][100C:0](=O)N4CCCC(n5nc(-c6ccc(Oc7ccc(F)cc7F)cc6)c(C(N)=O)c5N)C4)n(C(C)C)n3)ccc2CC1C(=O)NC1CCCc2ccccc21)C(C)(C)C

> <Shape>
0.266

> <Color>
0.096

> <Negative vol penalty>
0.000

$$$$

  -OEChem-04052317503D

 80 88  0     1  0  0  0  0  0999 V2000
  -31.8780  -29.8834   25.4344 C   0  0  0  0  0  0  0  0  0  0  0  0
  -31.8669  -28.5669   24.9851 C   0  0  0  0  0  0  0  0  0  0  0  0
  -22.9976   -9.8967   19.9867 C   0  0  0  0  0  0  0  0  0  0  0  0
  -23.7582   -9.9382   22.2795 C   0  0  0  0  0  0  0  0  0  0  0  0
  -32.9514  -30.7165   25.1218 C   0  0  0  0  0  0  0  0  0  0  0  0
  -32.9288  -28.0829   24.2218 C   0  0  0  0  0  0  0  0  0  0  0  0
  -34.4608  -23.4928   25.7145 C   0  0  0  0  0  0  0  0  0  0  0  0
  -22.2393   -8.7581   20.2588 C   0  0  0  0  0  0  0  0  0  0  0  0
  -22.9998   -8.7996   22.5516 C   0  0  0  0  0  0  0  0  0  0  0  0
  -33.6877  -22.4029   25.3167 C   0  0  0  0  0  0  0  0  0  0  0  0
  -23.2484   -5.4641   22.0583 C   0  0  0  0  0  0  0  0  0  0  0  0
  -23.8511   -4.4450   22.7958 C   0  0  0  0  0  0  0  0  0  0  0  0
  -35.2578  -21.9439   23.5437 C   0  0  0  0  0  0  0  0  0  0  0  0
  -22.1525   -4.6730   24.4987 C   0  0  0  0  0  0  0  0  0  0  0  0
  -32.7755  -17.5948   23.2283 C   0  0  0  0  0  0  0  0  0  0  0  0
  -31.1476  -17.8555   21.1285 C   0  0  0  0  0  0  0  0  0  0  0  0
  -23.7572  -10.4868   20.9970 C   0  0  0  0  0  0  0  0  0  0  0  0
  -24.1309  -13.0046   20.8285 C   0  0  0  0  0  0  0  0  0  0  0  0
  -34.0315  -30.2397   24.3625 C   0  0  0  0  0  0  0  0  0  0  0  0
  -35.6345  -23.8235   25.0220 C   0  0  0  0  0  0  0  0  0  0  0  0
  -34.0171  -28.9108   23.8976 C   0  0  0  0  0  0  0  0  0  0  0  0
  -36.0454  -23.0369   23.9363 C   0  0  0  0  0  0  0  0  0  0  0  0
  -22.2403   -8.2096   21.5413 C   0  0  0  0  0  0  0  0  0  0  0  0
  -34.0846  -21.6300   24.2294 C   0  0  0  0  0  0  0  0  0  0  0  0
  -22.0978   -6.0877   22.5410 C   0  0  0  0  0  0  0  0  0  0  0  0
  -23.3031   -4.0495   24.0160 C   0  0  0  0  0  0  0  0  0  0  0  0
  -21.5498   -5.6921   23.7612 C   0  0  0  0  0  0  0  0  0  0  0  0
  -24.5412  -11.6626   20.7164 C   0  0  0  0  0  0  0  0  0  0  0  0
  -32.8237  -18.7136   22.4262 C   0  0  0  0  0  0  0  0  0  0  0  0
  -31.0999  -16.7363   21.9301 C   0  0  0  0  0  0  0  0  0  0  0  0
  -25.2324  -13.7330   20.4508 C   0  0  0  0  0  0  0  0  0  0  0  0
  -22.8672  -13.5444   21.2374 C   0  0  0  0  0  0  0  0  0  0  0  0
  -36.6250  -26.3482   23.3643 C   0  0  0  0  0  0  0  0  0  0  0  0
  -39.4229  -24.7087   23.2834 C   0  0  0  0  0  0  0  0  0  0  0  0
  -30.7487  -14.6211   20.7175 C   0  0  0  0  0  0  0  0  0  0  0  0
  -41.0244  -21.7006   23.4654 C   0  0  0  0  0  0  0  0  0  0  0  0
  -35.1471  -31.1914   24.0099 C   0  0  0  0  0  0  0  0  0  0  0  0
  -36.4715  -24.9862   25.4802 C   0  0  0  0  0  0  0  0  0  0  0  0
  -37.3078  -23.3377   23.1720 C   0  0  0  0  0  0  0  0  0  0  0  0
  -36.4099  -30.4923   23.5129 C   0  0  0  0  0  0  0  0  0  0  0  0
  -29.5542  -12.2919   18.2705 C   0  0  0  0  0  0  0  0  0  0  0  0
  -36.0586  -29.4269   22.4794 C   0  0  0  0  0  0  0  0  0  0  0  0
  -28.1201  -12.0078   18.7153 C   0  0  0  0  0  0  0  0  0  0  0  0
  -30.4775  -12.5059   19.4658 C   0  0  0  0  0  0  0  0  0  0  0  0
  -28.5840  -13.2915   20.8512 C   0  0  0  0  0  0  0  0  0  0  0  0
  -35.1622  -28.3419   23.0882 C   0  0  1  0  0  0  0  0  0  0  0  0
  -37.3764  -25.5398   24.3838 C   0  0  1  0  0  0  0  0  0  0  0  0
  -27.6120  -13.0996   19.6736 C   0  0  2  0  0  0  0  0  0  0  0  0
  -43.3100  -20.6741   23.3251 C   0  0  0  0  0  0  0  0  0  0  0  0
  -39.3763  -25.0255   20.2491 C   0  0  0  0  0  0  0  0  0  0  0  0
  -41.1042  -23.2195   20.1038 C   0  0  0  0  0  0  0  0  0  0  0  0
  -41.6240  -25.3475   21.2972 C   0  0  0  0  0  0  0  0  0  0  0  0
  -40.8563  -20.6656   26.2329 C   0  0  0  0  0  0  0  0  0  0  0  0
  -33.7973  -19.8178   22.7164 C   0  0  0  0  0  0  0  0  0  1  0  0
  -40.0375  -23.6882   22.3563 C   0  0  1  0  0  0  0  0  0  0  0  0
  -42.2487  -21.2568   24.2454 C   0  0  2  0  0  0  0  0  0  0  0  0
  -30.1336  -15.6410   21.6424 C   0  0  0  0  0  0  0  0  0  0  0  0
  -40.5106  -24.3154   21.0146 C   0  0  0  0  0  0  0  0  0  0  0  0
  -32.0104  -18.8642   21.3621 N   0  0  0  0  0  0  0  0  0  0  0  0
  -31.9130  -16.5859   22.9945 N   0  0  0  0  0  0  0  0  0  0  0  0
  -25.8046  -11.5427   20.3000 N   0  0  0  0  0  0  0  0  0  0  0  0
  -26.1977  -12.8187   20.1470 N   0  0  0  0  0  0  0  0  0  0  0  0
  -38.0888  -24.4886   23.6546 N   0  0  0  0  0  0  0  0  0  0  0  0
  -29.9488  -13.5345   20.3634 N   0  0  0  0  0  0  0  0  0  0  0  0
  -25.4597  -15.0601   20.3522 N   0  0  0  0  0  0  0  0  0  0  0  0
  -21.8439  -12.6548   21.5922 N   0  0  0  0  0  0  0  0  0  0  0  0
  -35.9473  -27.4304   23.8927 N   0  0  0  0  0  0  0  0  0  0  0  0
  -41.0967  -23.0324   23.1156 N   0  0  0  0  0  0  0  0  0  0  0  0
  -41.8759  -20.2199   25.2487 N   0  3  0  0  0  0  0  0  0  0  0  0
  -22.6466  -14.7788   21.2711 O   0  0  0  0  0  0  0  0  0  0  0  0
  -36.6589  -26.0158   22.1853 O   0  0  0  0  0  0  0  0  0  0  0  0
  -40.1035  -25.6620   23.6700 O   0  0  0  0  0  0  0  0  0  0  0  0
  -31.9048  -14.7883   20.3204 O   0  0  0  0  0  0  0  0  0  0  0  0
  -40.0983  -20.9408   23.1903 O   0  0  0  0  0  0  0  0  0  0  0  0
  -21.5002   -7.0987   21.8072 O   0  0  0  0  0  0  0  0  0  0  0  0
  -33.3314  -20.5661   23.8386 O   0  0  0  0  0  0  0  0  0  1  0  0
  -23.8810   -3.0698   24.7234 F   0  0  0  0  0  0  0  0  0  0  0  0
  -20.4439   -6.2866   24.2295 F   0  0  0  0  0  0  0  0  0  0  0  0
  -29.7099  -14.9954   22.7787 F   0  0  0  0  0  0  0  0  0  0  0  0
  -28.9699  -16.0967   21.0719 F   0  0  0  0  0  0  0  0  0  0  0  0
  1  2  1  0  0  0  0
  1  5  2  0  0  0  0
  2  6  2  0  0  0  0
  3  8  2  0  0  0  0
  3 17  1  0  0  0  0
  4  9  1  0  0  0  0
  4 17  2  0  0  0  0
  5 19  1  0  0  0  0
  6 21  1  0  0  0  0
  7 10  2  0  0  0  0
  7 20  1  0  0  0  0
  8 23  1  0  0  0  0
  9 23  2  0  0  0  0
 10 24  1  0  0  0  0
 11 12  2  0  0  0  0
 11 25  1  0  0  0  0
 12 26  1  0  0  0  0
 13 22  1  0  0  0  0
 13 24  2  0  0  0  0
 14 26  2  0  0  0  0
 14 27  1  0  0  0  0
 15 29  1  0  0  0  0
 15 60  2  0  0  0  0
 16 30  2  0  0  0  0
 16 59  1  0  0  0  0
 17 28  1  0  0  0  0
 18 28  1  0  0  0  0
 18 31  2  0  0  0  0
 18 32  1  0  0  0  0
 19 21  2  0  0  0  0
 19 37  1  0  0  0  0
 20 22  2  0  0  0  0
 20 38  1  0  0  0  0
 21 46  1  0  0  0  0
 22 39  1  0  0  0  0
 23 75  1  0  0  0  0
 24 76  1  0  0  0  0
 25 27  2  0  0  0  0
 25 75  1  0  0  0  0
 26 77  1  0  0  0  0
 27 78  1  0  0  0  0
 28 61  2  0  0  0  0
 29 54  1  0  0  0  0
 29 59  2  0  0  0  0
 30 57  1  0  0  0  0
 30 60  1  0  0  0  0
 31 62  1  0  0  0  0
 31 65  1  0  0  0  0
 32 66  1  0  0  0  0
 32 70  2  0  0  0  0
 33 47  1  0  0  0  0
 33 67  1  0  0  0  0
 33 71  2  0  0  0  0
 34 55  1  0  0  0  0
 34 63  1  0  0  0  0
 34 72  2  0  0  0  0
 35 57  1  0  0  0  0
 35 64  1  0  0  0  0
 35 73  2  0  0  0  0
 36 56  1  0  0  0  0
 36 68  1  0  0  0  0
 36 74  2  0  0  0  0
 37 40  1  0  0  0  0
 38 47  1  0  0  0  0
 39 63  1  0  0  0  0
 40 42  1  0  0  0  0
 41 43  1  0  0  0  0
 41 44  1  0  0  0  0
 42 46  1  0  0  0  0
 43 48  1  0  0  0  0
 44 64  1  0  0  0  0
 45 48  1  0  0  0  0
 45 64  1  0  0  0  0
 46 67  1  0  0  0  0
 47 63  1  0  0  0  0
 48 62  1  0  0  0  0
 49 56  1  0  0  0  0
 50 58  1  0  0  0  0
 51 58  1  0  0  0  0
 52 58  1  0  0  0  0
 53 69  1  0  0  0  0
 54 76  1  0  0  0  0
 55 58  1  0  0  0  0
 55 68  1  0  0  0  0
 56 69  1  0  0  0  0
 57 79  1  0  0  0  0
 57 80  1  0  0  0  0
 61 62  1  0  0  0  0
M  CHG  1  69   1
M  ISO  4  35 100  54 101  57 100  76 101
M  END
> <Batch ID>
0058

> <Smiles>
CNC(C)C(=O)NC(C(=O)N1Cc2cc([101O:1][101CH2:1]c3cnc([100C:0](F)(F)[100C:0](=O)N4CCCC(n5nc(-c6ccc(Oc7ccc(F)cc7F)cc6)c(C(N)=O)c5N)C4)cn3)ccc2CC1C(=O)NC1CCCc2ccccc21)C(C)(C)C

> <Shape>
0.182

> <Color>
0.200

> <Negative vol penalty>
0.000

$$$$

  -OEChem-04052317503D

 82 90  0     1  0  0  0  0  0999 V2000
  -31.0041  -22.9340   15.2328 C   0  0  0  0  0  0  0  0  0  0  0  0
  -30.5430  -22.7454   16.5317 C   0  0  0  0  0  0  0  0  0  0  0  0
  -26.4496  -13.0502   19.1535 C   0  0  0  0  0  0  0  0  0  0  0  0
  -26.1872  -12.8357   21.5456 C   0  0  0  0  0  0  0  0  0  0  0  0
  -31.2271  -24.2243   14.7539 C   0  0  0  0  0  0  0  0  0  0  0  0
  -30.3057  -23.8471   17.3529 C   0  0  0  0  0  0  0  0  0  0  0  0
  -25.9255  -23.4870   19.8688 C   0  0  0  0  0  0  0  0  0  0  0  0
  -25.9854  -11.7456   18.9855 C   0  0  0  0  0  0  0  0  0  0  0  0
  -25.7229  -11.5311   21.3777 C   0  0  0  0  0  0  0  0  0  0  0  0
  -25.9006  -22.6563   20.9882 C   0  0  0  0  0  0  0  0  0  0  0  0
  -22.8430  -10.0107   20.4752 C   0  0  0  0  0  0  0  0  0  0  0  0
  -21.7137   -9.6281   21.1990 C   0  0  0  0  0  0  0  0  0  0  0  0
  -26.1370  -24.5853   22.4174 C   0  0  0  0  0  0  0  0  0  0  0  0
  -22.9952   -7.8874   22.2783 C   0  0  0  0  0  0  0  0  0  0  0  0
  -28.7002  -15.1869   25.9261 C   0  0  0  0  0  0  0  0  0  0  0  0
  -26.5505  -13.5953   20.4335 C   0  0  0  0  0  0  0  0  0  0  0  0
  -26.2627  -16.1224   20.6294 C   0  0  0  0  0  0  0  0  0  0  0  0
  -30.9832  -25.3428   15.5664 C   0  0  0  0  0  0  0  0  0  0  0  0
  -26.0675  -24.8744   20.0150 C   0  0  0  0  0  0  0  0  0  0  0  0
  -30.5269  -25.1535   16.8849 C   0  0  0  0  0  0  0  0  0  0  0  0
  -26.1608  -25.4316   21.2984 C   0  0  0  0  0  0  0  0  0  0  0  0
  -25.6221  -10.9861   20.0976 C   0  0  0  0  0  0  0  0  0  0  0  0
  -26.0093  -23.2051   22.2626 C   0  0  0  0  0  0  0  0  0  0  0  0
  -24.0484   -9.3316   20.6529 C   0  0  0  0  0  0  0  0  0  0  0  0
  -21.7898   -8.5664   22.1006 C   0  0  0  0  0  0  0  0  0  0  0  0
  -24.1245   -8.2700   21.5544 C   0  0  0  0  0  0  0  0  0  0  0  0
  -27.0305  -14.9426   20.6076 C   0  0  0  0  0  0  0  0  0  0  0  0
  -27.1807  -17.1260   20.8209 C   0  0  0  0  0  0  0  0  0  0  0  0
  -29.8530  -16.7708   25.2053 C   0  0  0  0  0  0  0  0  0  0  0  0
  -24.8464  -16.2956   20.4891 C   0  0  0  0  0  0  0  0  0  0  0  0
  -28.2300  -27.0168   19.0997 C   0  0  0  0  0  0  0  0  0  0  0  0
  -26.0823  -29.1254   20.3094 C   0  0  0  0  0  0  0  0  0  0  0  0
  -23.4865  -29.7129   22.4456 C   0  0  0  0  0  0  0  0  0  0  0  0
  -32.7981  -16.7376   23.2359 C   0  0  0  0  0  0  0  0  0  0  0  0
  -31.2840  -26.7161   15.0205 C   0  0  0  0  0  0  0  0  0  0  0  0
  -26.0657  -25.7593   18.7987 C   0  0  0  0  0  0  0  0  0  0  0  0
  -26.2946  -26.9168   21.5103 C   0  0  0  0  0  0  0  0  0  0  0  0
  -30.6509  -27.8453   15.8295 C   0  0  0  0  0  0  0  0  0  0  0  0
  -31.7585  -18.2336   20.0136 C   0  0  0  0  0  0  0  0  0  0  0  0
  -30.8842  -27.6289   17.3213 C   0  0  0  0  0  0  0  0  0  0  0  0
  -30.3904  -17.5964   19.7766 C   0  0  0  0  0  0  0  0  0  0  0  0
  -32.6675  -17.3327   20.8442 C   0  0  0  0  0  0  0  0  0  0  0  0
  -30.7029  -16.2666   21.9013 C   0  0  0  0  0  0  0  0  0  0  0  0
  -30.2341  -26.3244   17.7979 C   0  0  1  0  0  0  0  0  0  0  0  0
  -26.7315  -27.1103   19.0417 C   0  0  1  0  0  0  0  0  0  0  0  0
  -29.7465  -17.1687   21.1069 C   0  0  2  0  0  0  0  0  0  0  0  0
  -21.9654  -31.5436   23.2409 C   0  0  0  0  0  0  0  0  0  0  0  0
  -28.3464  -30.2654   22.0077 C   0  0  0  0  0  0  0  0  0  0  0  0
  -26.6201  -31.3964   23.4252 C   0  0  0  0  0  0  0  0  0  0  0  0
  -26.8257  -31.9814   21.0089 C   0  0  0  0  0  0  0  0  0  0  0  0
  -32.9524  -16.8304   25.6950 C   0  0  0  0  0  0  0  0  0  0  0  0
  -21.0782  -28.2911   21.4772 C   0  0  0  0  0  0  0  0  0  0  0  0
  -30.8860  -17.6457   24.6222 C   0  0  0  0  0  0  0  0  0  0  0  0
  -27.6394  -19.1883   24.4263 C   0  0  0  0  0  0  0  0  0  0  0  0
  -27.0592  -20.5996   24.5313 C   0  0  0  0  0  0  0  0  0  0  0  0
  -28.1842  -18.6629   25.7593 C   0  0  0  0  0  0  0  0  0  0  0  0
  -26.4967  -21.0736   23.1979 C   0  0  0  0  0  0  0  0  0  1  0  0
  -25.8406  -29.7469   21.6638 C   0  0  1  0  0  0  0  0  0  0  0  0
  -22.1538  -30.4112   22.2434 C   0  0  2  0  0  0  0  0  0  0  0  0
  -26.9076  -30.8193   22.0227 C   0  0  0  0  0  0  0  0  0  0  0  0
  -29.8998  -15.4654   25.3360 N   0  0  0  0  0  0  0  0  0  0  0  0
  -27.9141  -16.2379   26.1686 N   0  0  0  0  0  0  0  0  0  0  0  0
  -28.3357  -15.1737   20.7720 N   0  0  0  0  0  0  0  0  0  0  0  0
  -28.3952  -16.5103   20.8989 N   0  0  0  0  0  0  0  0  0  0  0  0
  -28.6747  -17.2382   25.6982 N   0  0  0  0  0  0  0  0  0  0  0  0
  -26.2943  -27.7396   20.2894 N   0  0  0  0  0  0  0  0  0  0  0  0
  -32.0147  -16.9060   22.0823 N   0  0  0  0  0  0  0  0  0  0  0  0
  -27.0594  -18.4662   20.9285 N   0  0  0  0  0  0  0  0  0  0  0  0
  -24.0498  -15.1583   20.2989 N   0  0  0  0  0  0  0  0  0  0  0  0
  -28.8062  -26.4993   17.9553 N   0  0  0  0  0  0  0  0  0  0  0  0
  -24.4713  -30.2498   21.6436 N   0  0  0  0  0  0  0  0  0  0  0  0
  -32.1782  -16.9804   24.4710 N   0  0  0  0  0  0  0  0  0  0  0  0
  -21.0318  -29.4449   22.4119 N   0  3  0  0  0  0  0  0  0  0  0  0
  -24.3052  -17.4270   20.5146 O   0  0  0  0  0  0  0  0  0  0  0  0
  -28.8199  -27.3881   20.1076 O   0  0  0  0  0  0  0  0  0  0  0  0
  -26.0759  -29.8420   19.3054 O   0  0  0  0  0  0  0  0  0  0  0  0
  -23.6394  -28.7865   23.2386 O   0  0  0  0  0  0  0  0  0  0  0  0
  -33.9866  -16.3993   23.1654 O   0  0  0  0  0  0  0  0  0  0  0  0
  -25.1688   -9.7132   19.9341 O   0  0  0  0  0  0  0  0  0  0  0  0
  -25.9860  -22.3965   23.3569 O   0  0  0  0  0  0  0  0  0  1  0  0
  -20.7056   -8.2001   22.7967 F   0  0  0  0  0  0  0  0  0  0  0  0
  -25.2800   -7.6145   21.7303 F   0  0  0  0  0  0  0  0  0  0  0  0
  1  2  1  0  0  0  0
  1  5  2  0  0  0  0
  2  6  2  0  0  0  0
  3  8  2  0  0  0  0
  3 16  1  0  0  0  0
  4  9  1  0  0  0  0
  4 16  2  0  0  0  0
  5 18  1  0  0  0  0
  6 20  1  0  0  0  0
  7 10  2  0  0  0  0
  7 19  1  0  0  0  0
  8 22  1  0  0  0  0
  9 22  2  0  0  0  0
 10 23  1  0  0  0  0
 11 12  2  0  0  0  0
 11 24  1  0  0  0  0
 12 25  1  0  0  0  0
 13 21  1  0  0  0  0
 13 23  2  0  0  0  0
 14 25  2  0  0  0  0
 14 26  1  0  0  0  0
 15 61  1  0  0  0  0
 15 62  2  0  0  0  0
 16 27  1  0  0  0  0
 17 27  1  0  0  0  0
 17 28  2  0  0  0  0
 17 30  1  0  0  0  0
 18 20  2  0  0  0  0
 18 35  1  0  0  0  0
 19 21  2  0  0  0  0
 19 36  1  0  0  0  0
 20 44  1  0  0  0  0
 21 37  1  0  0  0  0
 22 79  1  0  0  0  0
 23 80  1  0  0  0  0
 24 26  2  0  0  0  0
 24 79  1  0  0  0  0
 25 81  1  0  0  0  0
 26 82  1  0  0  0  0
 27 63  2  0  0  0  0
 28 64  1  0  0  0  0
 28 68  1  0  0  0  0
 29 53  1  0  0  0  0
 29 61  2  0  0  0  0
 29 65  1  0  0  0  0
 30 69  1  0  0  0  0
 30 74  2  0  0  0  0
 31 45  1  0  0  0  0
 31 70  1  0  0  0  0
 31 75  2  0  0  0  0
 32 58  1  0  0  0  0
 32 66  1  0  0  0  0
 32 76  2  0  0  0  0
 33 59  1  0  0  0  0
 33 71  1  0  0  0  0
 33 77  2  0  0  0  0
 34 67  1  0  0  0  0
 34 72  1  0  0  0  0
 34 78  2  0  0  0  0
 35 38  1  0  0  0  0
 36 45  1  0  0  0  0
 37 66  1  0  0  0  0
 38 40  1  0  0  0  0
 39 41  1  0  0  0  0
 39 42  1  0  0  0  0
 40 44  1  0  0  0  0
 41 46  1  0  0  0  0
 42 67  1  0  0  0  0
 43 46  1  0  0  0  0
 43 67  1  0  0  0  0
 44 70  1  0  0  0  0
 45 66  1  0  0  0  0
 46 64  1  0  0  0  0
 47 59  1  0  0  0  0
 48 60  1  0  0  0  0
 49 60  1  0  0  0  0
 50 60  1  0  0  0  0
 51 72  1  0  0  0  0
 52 73  1  0  0  0  0
 53 72  1  0  0  0  0
 54 55  1  0  0  0  0
 54 56  1  0  0  0  0
 55 57  1  0  0  0  0
 56 65  1  0  0  0  0
 57 80  1  0  0  0  0
 58 60  1  0  0  0  0
 58 71  1  0  0  0  0
 59 73  1  0  0  0  0
 62 65  1  0  0  0  0
 63 64  1  0  0  0  0
M  CHG  1  73   1
M  ISO  4  34 100  57 101  72 100  80 101
M  END
> <Batch ID>
0058

> <Smiles>
CNC(C)C(=O)NC(C(=O)N1Cc2cc([101O:1][101CH2:1]CCCn3ncnc3C[100N:0](C)[100C:0](=O)N3CCCC(n4nc(-c5ccc(Oc6ccc(F)cc6F)cc5)c(C(N)=O)c4N)C3)ccc2CC1C(=O)NC1CCCc2ccccc21)C(C)(C)C

> <Shape>
0.229

> <Color>
0.073

> <Negative vol penalty>
0.000

$$$$

  -OEChem-04052317503D

 85 93  0     1  0  0  0  0  0999 V2000
  -27.6816  -37.8886   19.6339 C   0  0  0  0  0  0  0  0  0  0  0  0
  -28.1829  -36.6019   19.4655 C   0  0  0  0  0  0  0  0  0  0  0  0
  -24.0556  -13.0624   20.7058 C   0  0  0  0  0  0  0  0  0  0  0  0
  -26.4653  -12.9142   20.7965 C   0  0  0  0  0  0  0  0  0  0  0  0
  -26.7526  -38.1473   20.6409 C   0  0  0  0  0  0  0  0  0  0  0  0
  -27.7564  -35.5732   20.3048 C   0  0  0  0  0  0  0  0  0  0  0  0
  -26.9516  -29.6909   18.8029 C   0  0  0  0  0  0  0  0  0  0  0  0
  -23.9777  -11.6824   20.5188 C   0  0  0  0  0  0  0  0  0  0  0  0
  -26.3875  -11.5341   20.6095 C   0  0  0  0  0  0  0  0  0  0  0  0
  -27.7532  -28.5623   18.9686 C   0  0  0  0  0  0  0  0  0  0  0  0
  -23.1279   -8.1506   20.3785 C   0  0  0  0  0  0  0  0  0  0  0  0
  -22.1801   -7.4478   21.1223 C   0  0  0  0  0  0  0  0  0  0  0  0
  -26.5604  -28.0198   20.9939 C   0  0  0  0  0  0  0  0  0  0  0  0
  -23.2328   -8.1912   23.1659 C   0  0  0  0  0  0  0  0  0  0  0  0
  -31.0084  -24.0918   19.7624 C   0  0  0  0  0  0  0  0  0  0  0  0
  -25.2994  -13.6784   20.8447 C   0  0  0  0  0  0  0  0  0  0  0  0
  -25.3773  -15.7978   22.2622 C   0  0  0  0  0  0  0  0  0  0  0  0
  -26.3072  -37.1193   21.4868 C   0  0  0  0  0  0  0  0  0  0  0  0
  -25.9538  -29.9988   19.7389 C   0  0  0  0  0  0  0  0  0  0  0  0
  -26.8216  -35.8187   21.3249 C   0  0  0  0  0  0  0  0  0  0  0  0
  -25.7457  -29.1514   20.8365 C   0  0  0  0  0  0  0  0  0  0  0  0
  -25.1436  -10.9182   20.4707 C   0  0  0  0  0  0  0  0  0  0  0  0
  -27.5597  -27.7282   20.0658 C   0  0  0  0  0  0  0  0  0  0  0  0
  -24.1282   -8.8736   21.0283 C   0  0  0  0  0  0  0  0  0  0  0  0
  -22.2325   -7.4681   22.5160 C   0  0  0  0  0  0  0  0  0  0  0  0
  -24.1806   -8.8939   22.4221 C   0  0  0  0  0  0  0  0  0  0  0  0
  -25.3805  -15.1040   21.0373 C   0  0  0  0  0  0  0  0  0  0  0  0
  -30.1344  -24.3503   20.7803 C   0  0  0  0  0  0  0  0  0  0  0  0
  -25.4729  -17.1213   21.9074 C   0  0  0  0  0  0  0  0  0  0  0  0
  -29.6582  -22.3490   19.9627 C   0  0  0  0  0  0  0  0  0  0  0  0
  -25.2953  -15.2913   23.6010 C   0  0  0  0  0  0  0  0  0  0  0  0
  -25.4022  -32.4292   21.7118 C   0  0  0  0  0  0  0  0  0  0  0  0
  -27.8459  -21.1201   18.7982 C   0  0  0  0  0  0  0  0  0  0  0  0
  -22.6267  -30.8435   22.2637 C   0  0  0  0  0  0  0  0  0  0  0  0
  -20.9243  -27.8859   22.2328 C   0  0  0  0  0  0  0  0  0  0  0  0
  -25.3375  -37.4571   22.5914 C   0  0  0  0  0  0  0  0  0  0  0  0
  -25.0798  -31.2052   19.5315 C   0  0  0  0  0  0  0  0  0  0  0  0
  -24.6747  -29.4266   21.8590 C   0  0  0  0  0  0  0  0  0  0  0  0
  -24.6550  -36.2338   23.1980 C   0  0  0  0  0  0  0  0  0  0  0  0
  -25.0454  -19.3713   17.4060 C   0  0  0  0  0  0  0  0  0  0  0  0
  -25.6784  -35.1405   23.4880 C   0  0  0  0  0  0  0  0  0  0  0  0
  -24.9018  -18.1468   18.3089 C   0  0  0  0  0  0  0  0  0  0  0  0
  -26.5086  -19.7617   17.2231 C   0  0  0  0  0  0  0  0  0  0  0  0
  -27.0992  -18.7665   19.4100 C   0  0  0  0  0  0  0  0  0  0  0  0
  -26.3646  -34.6713   22.1994 C   0  0  1  0  0  0  0  0  0  0  0  0
  -24.4341  -31.7040   20.8206 C   0  0  1  0  0  0  0  0  0  0  0  0
  -25.6346  -18.3569   19.6458 C   0  0  2  0  0  0  0  0  0  0  0  0
  -30.0010  -19.9659   19.1910 C   0  0  0  0  0  0  0  0  0  0  0  0
  -18.6821  -26.8978   22.7749 C   0  0  0  0  0  0  0  0  0  0  0  0
  -31.0409  -26.6909   21.3956 C   0  0  0  0  0  0  0  0  0  0  0  0
  -30.2240  -25.1462   23.1631 C   0  0  0  0  0  0  0  0  0  0  0  0
  -23.2969  -30.9607   25.2381 C   0  0  0  0  0  0  0  0  0  0  0  0
  -21.5762  -29.1837   25.6247 C   0  0  0  0  0  0  0  0  0  0  0  0
  -20.8953  -31.3948   24.6920 C   0  0  0  0  0  0  0  0  0  0  0  0
  -27.6343  -24.4813   22.1830 C   0  0  0  0  0  0  0  0  0  0  0  0
  -28.7581  -22.4224   23.1198 C   0  0  0  0  0  0  0  0  0  0  0  0
  -27.0580  -22.2240   21.3200 C   0  0  0  0  0  0  0  0  0  0  0  0
  -20.4948  -27.0305   19.4323 C   0  0  0  0  0  0  0  0  0  0  0  0
  -28.5872  -26.1985   21.5692 C   0  0  0  0  0  0  0  0  0  1  0  0
  -29.0268  -21.0261   19.7313 C   0  0  1  0  0  0  0  0  0  0  0  0
  -22.1795  -29.7770   23.2341 C   0  0  1  0  0  0  0  0  0  0  0  0
  -19.5536  -27.5182   21.6940 C   0  0  2  0  0  0  0  0  0  0  0  0
  -30.0041  -25.5818   21.6961 C   0  0  0  0  0  0  0  0  0  0  0  0
  -22.0085  -30.3246   24.6792 C   0  0  0  0  0  0  0  0  0  0  0  0
  -28.2280  -23.0981   21.8354 C   0  0  0  0  0  0  0  0  0  0  0  0
  -25.4708  -15.9192   19.9831 N   0  0  0  0  0  0  0  0  0  0  0  0
  -29.3103  -23.2554   20.8818 N   0  0  0  0  0  0  0  0  0  0  0  0
  -25.5251  -17.1390   20.5446 N   0  0  0  0  0  0  0  0  0  0  0  0
  -30.6910  -22.8469   19.2750 N   0  3  0  0  0  0  0  0  0  0  0  0
  -23.8501  -30.6218   21.6156 N   0  0  0  0  0  0  0  0  0  0  0  0
  -27.1752  -19.9300   18.5157 N   0  0  0  0  0  0  0  0  0  0  0  0
  -25.5163  -18.2599   22.6313 N   0  0  0  0  0  0  0  0  0  0  0  0
  -25.2023  -13.9052   23.7864 N   0  0  0  0  0  0  0  0  0  0  0  0
  -25.4944  -33.7843   21.4575 N   0  0  0  0  0  0  0  0  0  0  0  0
  -20.9678  -29.1932   22.6690 N   0  0  0  0  0  0  0  0  0  0  0  0
  -19.6815  -26.5417   20.5755 N   0  3  0  0  0  0  0  0  0  0  0  0
  -25.2877  -16.0466   24.6025 O   0  0  0  0  0  0  0  0  0  0  0  0
  -26.0188  -31.8058   22.5679 O   0  0  0  0  0  0  0  0  0  0  0  0
  -27.5288  -22.2199   18.3375 O   0  0  0  0  0  0  0  0  0  0  0  0
  -21.9133  -31.8333   22.0820 O   0  0  0  0  0  0  0  0  0  0  0  0
  -21.8615  -27.0916   22.2671 O   0  0  0  0  0  0  0  0  0  0  0  0
  -25.0680   -9.5715   20.2885 O   0  0  0  0  0  0  0  0  0  0  0  0
  -28.3412  -26.6263   20.2303 O   0  0  0  0  0  0  0  0  0  1  0  0
  -21.3213   -6.7944   23.2302 F   0  0  0  0  0  0  0  0  0  0  0  0
  -25.1385   -9.5877   23.0520 F   0  0  0  0  0  0  0  0  0  0  0  0
  1  2  1  0  0  0  0
  1  5  2  0  0  0  0
  2  6  2  0  0  0  0
  3  8  2  0  0  0  0
  3 16  1  0  0  0  0
  4  9  1  0  0  0  0
  4 16  2  0  0  0  0
  5 18  1  0  0  0  0
  6 20  1  0  0  0  0
  7 10  2  0  0  0  0
  7 19  1  0  0  0  0
  8 22  1  0  0  0  0
  9 22  2  0  0  0  0
 10 23  1  0  0  0  0
 11 12  2  0  0  0  0
 11 24  1  0  0  0  0
 12 25  1  0  0  0  0
 13 21  1  0  0  0  0
 13 23  2  0  0  0  0
 14 25  2  0  0  0  0
 14 26  1  0  0  0  0
 15 28  2  0  0  0  0
 15 69  1  0  0  0  0
 16 27  1  0  0  0  0
 17 27  1  0  0  0  0
 17 29  2  0  0  0  0
 17 31  1  0  0  0  0
 18 20  2  0  0  0  0
 18 36  1  0  0  0  0
 19 21  2  0  0  0  0
 19 37  1  0  0  0  0
 20 45  1  0  0  0  0
 21 38  1  0  0  0  0
 22 82  1  0  0  0  0
 23 83  1  0  0  0  0
 24 26  2  0  0  0  0
 24 82  1  0  0  0  0
 25 84  1  0  0  0  0
 26 85  1  0  0  0  0
 27 66  2  0  0  0  0
 28 63  1  0  0  0  0
 28 67  1  0  0  0  0
 29 68  1  0  0  0  0
 29 72  1  0  0  0  0
 30 60  1  0  0  0  0
 30 67  1  0  0  0  0
 30 69  2  0  0  0  0
 31 73  1  0  0  0  0
 31 77  2  0  0  0  0
 32 46  1  0  0  0  0
 32 74  1  0  0  0  0
 32 78  2  0  0  0  0
 33 60  1  0  0  0  0
 33 71  1  0  0  0  0
 33 79  2  0  0  0  0
 34 61  1  0  0  0  0
 34 70  1  0  0  0  0
 34 80  2  0  0  0  0
 35 62  1  0  0  0  0
 35 75  1  0  0  0  0
 35 81  2  0  0  0  0
 36 39  1  0  0  0  0
 37 46  1  0  0  0  0
 38 70  1  0  0  0  0
 39 41  1  0  0  0  0
 40 42  1  0  0  0  0
 40 43  1  0  0  0  0
 41 45  1  0  0  0  0
 42 47  1  0  0  0  0
 43 71  1  0  0  0  0
 44 47  1  0  0  0  0
 44 71  1  0  0  0  0
 45 74  1  0  0  0  0
 46 70  1  0  0  0  0
 47 68  1  0  0  0  0
 48 60  1  0  0  0  0
 49 62  1  0  0  0  0
 50 63  1  0  0  0  0
 51 63  1  0  0  0  0
 52 64  1  0  0  0  0
 53 64  1  0  0  0  0
 54 64  1  0  0  0  0
 55 65  1  0  0  0  0
 56 65  1  0  0  0  0
 57 65  1  0  0  0  0
 58 76  1  0  0  0  0
 59 63  1  0  0  0  0
 59 83  1  0  0  0  0
 61 64  1  0  0  0  0
 61 75  1  0  0  0  0
 62 76  1  0  0  0  0
 65 67  1  0  0  0  0
 66 68  1  0  0  0  0
M  CHG  2  69   1  76   1
M  ISO  4  33 100  59 101  60 100  83 101
M  END
> <Batch ID>
0058

> <Smiles>
CNC(C)C(=O)NC(C(=O)N1Cc2cc([101O:1][101CH2:1]C(C)(C)c3cnc([100CH:0](C)[100C:0](=O)N4CCCC(n5nc(-c6ccc(Oc7ccc(F)cc7F)cc6)c(C(N)=O)c5N)C4)n3C(C)(C)C)ccc2CC1C(=O)NC1CCCc2ccccc21)C(C)(C)C

> <Shape>
0.290

> <Color>
0.086

> <Negative vol penalty>
0.000

$$$$

  -OEChem-04052317503D

 80 88  0     1  0  0  0  0  0999 V2000
  -24.5290  -11.2284   20.3730 C   0  0  0  0  0  0  0  0  0  0  0  0
  -23.7259  -12.3563   20.5077 C   0  0  0  0  0  0  0  0  0  0  0  0
  -26.5291  -28.8223   22.1862 C   0  0  0  0  0  0  0  0  0  0  0  0
  -25.1173  -27.9584   20.4263 C   0  0  0  0  0  0  0  0  0  0  0  0
  -25.9028  -11.3221   20.5914 C   0  0  0  0  0  0  0  0  0  0  0  0
  -24.2961  -13.5785   20.8620 C   0  0  0  0  0  0  0  0  0  0  0  0
  -22.5520  -19.1386   18.9781 C   0  0  0  0  0  0  0  0  0  0  0  0
  -27.6207  -28.1449   21.6431 C   0  0  0  0  0  0  0  0  0  0  0  0
  -26.2090  -27.2810   19.8831 C   0  0  0  0  0  0  0  0  0  0  0  0
  -21.7582  -20.1222   19.5666 C   0  0  0  0  0  0  0  0  0  0  0  0
  -30.8573  -26.9338   20.5147 C   0  0  0  0  0  0  0  0  0  0  0  0
  -32.0628  -27.6272   20.4076 C   0  0  0  0  0  0  0  0  0  0  0  0
  -23.7414  -21.2223   20.3887 C   0  0  0  0  0  0  0  0  0  0  0  0
  -30.9981  -29.2575   18.9774 C   0  0  0  0  0  0  0  0  0  0  0  0
  -20.9434  -24.0838   23.4814 C   0  0  0  0  0  0  0  0  0  0  0  0
  -25.2773  -28.7290   21.5778 C   0  0  0  0  0  0  0  0  0  0  0  0
  -23.7241  -30.7360   21.8374 C   0  0  0  0  0  0  0  0  0  0  0  0
  -26.4915  -12.5481   20.9391 C   0  0  0  0  0  0  0  0  0  0  0  0
  -23.9482  -19.1837   19.0999 C   0  0  0  0  0  0  0  0  0  0  0  0
  -25.6789  -13.6884   21.0866 C   0  0  0  0  0  0  0  0  0  0  0  0
  -24.5507  -20.2396   19.7986 C   0  0  0  0  0  0  0  0  0  0  0  0
  -27.4607  -27.3742   20.4916 C   0  0  0  0  0  0  0  0  0  0  0  0
  -22.3527  -21.1627   20.2745 C   0  0  0  0  0  0  0  0  0  0  0  0
  -29.7221  -27.4023   19.8532 C   0  0  0  0  0  0  0  0  0  0  0  0
  -32.1332  -28.7890   19.6389 C   0  0  0  0  0  0  0  0  0  0  0  0
  -29.7925  -28.5641   19.0845 C   0  0  0  0  0  0  0  0  0  0  0  0
  -24.1492  -29.4281   22.1387 C   0  0  0  0  0  0  0  0  0  0  0  0
  -21.2388  -24.0982   22.1424 C   0  0  0  0  0  0  0  0  0  0  0  0
  -22.6182  -30.9284   22.6289 C   0  0  0  0  0  0  0  0  0  0  0  0
  -19.4557  -25.7478   23.1386 C   0  0  0  0  0  0  0  0  0  0  0  0
  -24.2792  -31.6913   20.9238 C   0  0  0  0  0  0  0  0  0  0  0  0
  -26.1501  -17.2856   20.3856 C   0  0  0  0  0  0  0  0  0  0  0  0
  -28.2033  -19.4018   19.0335 C   0  0  0  0  0  0  0  0  0  0  0  0
  -18.7357  -27.0681   25.1060 C   0  0  0  0  0  0  0  0  0  0  0  0
  -28.7488  -22.5541   17.8449 C   0  0  0  0  0  0  0  0  0  0  0  0
  -27.9743  -12.5901   21.2113 C   0  0  0  0  0  0  0  0  0  0  0  0
  -24.7918  -18.1297   18.4366 C   0  0  0  0  0  0  0  0  0  0  0  0
  -26.0464  -20.3447   19.9413 C   0  0  0  0  0  0  0  0  0  0  0  0
  -28.5527  -14.0028   21.2175 C   0  0  0  0  0  0  0  0  0  0  0  0
  -20.6911  -29.5608   26.7803 C   0  0  0  0  0  0  0  0  0  0  0  0
  -27.6726  -14.9364   22.0425 C   0  0  0  0  0  0  0  0  0  0  0  0
  -21.7777  -29.9075   25.7633 C   0  0  0  0  0  0  0  0  0  0  0  0
  -20.3155  -28.0837   26.7145 C   0  0  0  0  0  0  0  0  0  0  0  0
  -20.9872  -27.9676   24.3360 C   0  0  0  0  0  0  0  0  0  0  0  0
  -26.2638  -15.0373   21.4453 C   0  0  1  0  0  0  0  0  0  0  0  0
  -26.1773  -17.9933   19.0604 C   0  0  1  0  0  0  0  0  0  0  0  0
  -21.3743  -29.4571   24.3481 C   0  0  2  0  0  0  0  0  0  0  0  0
  -30.5378  -23.9976   16.8383 C   0  0  0  0  0  0  0  0  0  0  0  0
  -17.0200  -26.0652   23.6475 C   0  0  0  0  0  0  0  0  0  0  0  0
  -18.3346  -28.0705   22.9512 C   0  0  0  0  0  0  0  0  0  0  0  0
  -29.4945  -19.7131   21.7805 C   0  0  0  0  0  0  0  0  0  0  0  0
  -30.5964  -21.8017   20.9488 C   0  0  0  0  0  0  0  0  0  0  0  0
  -31.1099  -19.6099   19.8742 C   0  0  0  0  0  0  0  0  0  0  0  0
  -27.1941  -22.9472   15.3575 C   0  0  0  0  0  0  0  0  0  0  0  0
  -22.2557  -23.1606   21.5608 C   0  0  0  0  0  0  0  0  0  1  0  0
  -28.8580  -20.6881   19.4761 C   0  0  1  0  0  0  0  0  0  0  0  0
  -29.3824  -23.0495   16.5574 C   0  0  2  0  0  0  0  0  0  0  0  0
  -18.4392  -26.6956   23.6752 C   0  0  0  0  0  0  0  0  0  0  0  0
  -29.9864  -20.4504   20.5190 C   0  0  0  0  0  0  0  0  0  0  0  0
  -20.0366  -24.9157   24.0157 N   0  0  0  0  0  0  0  0  0  0  0  0
  -23.3764  -28.8320   23.0505 N   0  0  0  0  0  0  0  0  0  0  0  0
  -20.6228  -24.9568   21.3097 N   0  0  0  0  0  0  0  0  0  0  0  0
  -19.7055  -25.8071   21.8157 N   0  0  0  0  0  0  0  0  0  0  0  0
  -22.4547  -29.7695   23.3291 N   0  0  0  0  0  0  0  0  0  0  0  0
  -26.8279  -19.2866   19.2803 N   0  0  0  0  0  0  0  0  0  0  0  0
  -19.9604  -27.6900   25.3499 N   0  0  0  0  0  0  0  0  0  0  0  0
  -21.7795  -31.9743   22.7873 N   0  0  0  0  0  0  0  0  0  0  0  0
  -25.4170  -31.3305   20.1892 N   0  0  0  0  0  0  0  0  0  0  0  0
  -26.2651  -15.9117   20.2921 N   0  0  0  0  0  0  0  0  0  0  0  0
  -29.3008  -21.3604   18.2594 N   0  0  0  0  0  0  0  0  0  0  0  0
  -28.3749  -23.7691   15.7279 N   0  3  0  0  0  0  0  0  0  0  0  0
  -23.7907  -32.8372   20.7756 O   0  0  0  0  0  0  0  0  0  0  0  0
  -26.0348  -17.9378   21.4166 O   0  0  0  0  0  0  0  0  0  0  0  0
  -28.8856  -18.5344   18.4825 O   0  0  0  0  0  0  0  0  0  0  0  0
  -17.9013  -26.8158   25.9791 O   0  0  0  0  0  0  0  0  0  0  0  0
  -27.8563  -23.1667   18.4269 O   0  0  0  0  0  0  0  0  0  0  0  0
  -28.5257  -26.7132   19.9612 O   0  0  0  0  0  0  0  0  0  0  0  0
  -21.5802  -22.1236   20.8504 O   0  0  0  0  0  0  0  0  0  1  0  0
  -33.2906  -29.4555   19.5373 F   0  0  0  0  0  0  0  0  0  0  0  0
  -28.7050  -29.0197   18.4476 F   0  0  0  0  0  0  0  0  0  0  0  0
  1  2  1  0  0  0  0
  1  5  2  0  0  0  0
  2  6  2  0  0  0  0
  3  8  2  0  0  0  0
  3 16  1  0  0  0  0
  4  9  1  0  0  0  0
  4 16  2  0  0  0  0
  5 18  1  0  0  0  0
  6 20  1  0  0  0  0
  7 10  2  0  0  0  0
  7 19  1  0  0  0  0
  8 22  1  0  0  0  0
  9 22  2  0  0  0  0
 10 23  1  0  0  0  0
 11 12  2  0  0  0  0
 11 24  1  0  0  0  0
 12 25  1  0  0  0  0
 13 21  1  0  0  0  0
 13 23  2  0  0  0  0
 14 25  2  0  0  0  0
 14 26  1  0  0  0  0
 15 28  1  0  0  0  0
 15 60  2  0  0  0  0
 16 27  1  0  0  0  0
 17 27  1  0  0  0  0
 17 29  2  0  0  0  0
 17 31  1  0  0  0  0
 18 20  2  0  0  0  0
 18 36  1  0  0  0  0
 19 21  2  0  0  0  0
 19 37  1  0  0  0  0
 20 45  1  0  0  0  0
 21 38  1  0  0  0  0
 22 77  1  0  0  0  0
 23 78  1  0  0  0  0
 24 26  2  0  0  0  0
 24 77  1  0  0  0  0
 25 79  1  0  0  0  0
 26 80  1  0  0  0  0
 27 61  2  0  0  0  0
 28 55  1  0  0  0  0
 28 62  2  0  0  0  0
 29 64  1  0  0  0  0
 29 67  1  0  0  0  0
 30 58  1  0  0  0  0
 30 60  1  0  0  0  0
 30 63  2  0  0  0  0
 31 68  1  0  0  0  0
 31 72  2  0  0  0  0
 32 46  1  0  0  0  0
 32 69  1  0  0  0  0
 32 73  2  0  0  0  0
 33 56  1  0  0  0  0
 33 65  1  0  0  0  0
 33 74  2  0  0  0  0
 34 58  1  0  0  0  0
 34 66  1  0  0  0  0
 34 75  2  0  0  0  0
 35 57  1  0  0  0  0
 35 70  1  0  0  0  0
 35 76  2  0  0  0  0
 36 39  1  0  0  0  0
 37 46  1  0  0  0  0
 38 65  1  0  0  0  0
 39 41  1  0  0  0  0
 40 42  1  0  0  0  0
 40 43  1  0  0  0  0
 41 45  1  0  0  0  0
 42 47  1  0  0  0  0
 43 66  1  0  0  0  0
 44 47  1  0  0  0  0
 44 66  1  0  0  0  0
 45 69  1  0  0  0  0
 46 65  1  0  0  0  0
 47 64  1  0  0  0  0
 48 57  1  0  0  0  0
 49 58  1  0  0  0  0
 50 58  1  0  0  0  0
 51 59  1  0  0  0  0
 52 59  1  0  0  0  0
 53 59  1  0  0  0  0
 54 71  1  0  0  0  0
 55 78  1  0  0  0  0
 56 59  1  0  0  0  0
 56 70  1  0  0  0  0
 57 71  1  0  0  0  0
 61 64  1  0  0  0  0
 62 63  1  0  0  0  0
M  CHG  1  71   1
M  ISO  4  34 100  55 101  58 100  78 101
M  END
> <Batch ID>
0058

> <Smiles>
CNC(C)C(=O)NC(C(=O)N1Cc2cc([101O:1][101CH2:1]c3cnc([100C:0](C)(C)[100C:0](=O)N4CCCC(n5nc(-c6ccc(Oc7ccc(F)cc7F)cc6)c(C(N)=O)c5N)C4)nn3)ccc2CC1C(=O)NC1CCCc2ccccc21)C(C)(C)C

> <Shape>
0.226

> <Color>
0.071

> <Negative vol penalty>
0.000

$$$$

  -OEChem-04052317503D

 83 91  0     1  0  0  0  0  0999 V2000
  -31.2270  -35.0195   19.5414 C   0  0  0  0  0  0  0  0  0  0  0  0
  -31.2368  -33.6483   19.3063 C   0  0  0  0  0  0  0  0  0  0  0  0
  -24.8758   -9.0234   20.5448 C   0  0  0  0  0  0  0  0  0  0  0  0
  -25.4231   -9.7107   22.7955 C   0  0  0  0  0  0  0  0  0  0  0  0
  -30.4444  -35.5438   20.5693 C   0  0  0  0  0  0  0  0  0  0  0  0
  -30.4647  -32.8005   20.0997 C   0  0  0  0  0  0  0  0  0  0  0  0
  -27.6225  -27.6740   18.3260 C   0  0  0  0  0  0  0  0  0  0  0  0
  -24.8027   -7.6963   20.9678 C   0  0  0  0  0  0  0  0  0  0  0  0
  -25.3500   -8.3835   23.2185 C   0  0  0  0  0  0  0  0  0  0  0  0
  -27.9668  -26.3269   18.4290 C   0  0  0  0  0  0  0  0  0  0  0  0
  -22.5930   -5.7171   22.5904 C   0  0  0  0  0  0  0  0  0  0  0  0
  -21.5107   -4.9552   22.1504 C   0  0  0  0  0  0  0  0  0  0  0  0
  -26.6441  -26.1487   20.4385 C   0  0  0  0  0  0  0  0  0  0  0  0
  -23.0320   -3.4074   21.0886 C   0  0  0  0  0  0  0  0  0  0  0  0
  -27.0762  -19.9476   23.5513 C   0  0  0  0  0  0  0  0  0  0  0  0
  -25.1860  -10.0306   21.4587 C   0  0  0  0  0  0  0  0  0  0  0  0
  -24.2158  -12.3428   20.9895 C   0  0  0  0  0  0  0  0  0  0  0  0
  -29.6549  -34.7030   21.3695 C   0  0  0  0  0  0  0  0  0  0  0  0
  -26.7937  -28.2722   19.2861 C   0  0  0  0  0  0  0  0  0  0  0  0
  -29.6718  -33.3139   21.1401 C   0  0  0  0  0  0  0  0  0  0  0  0
  -26.2886  -27.5028   20.3439 C   0  0  0  0  0  0  0  0  0  0  0  0
  -25.0398   -7.3763   22.3046 C   0  0  0  0  0  0  0  0  0  0  0  0
  -27.4799  -25.5647   19.4870 C   0  0  0  0  0  0  0  0  0  0  0  0
  -23.8948   -5.3243   22.2795 C   0  0  0  0  0  0  0  0  0  0  0  0
  -21.7302   -3.8003   21.3995 C   0  0  0  0  0  0  0  0  0  0  0  0
  -24.1143   -4.1695   21.5286 C   0  0  0  0  0  0  0  0  0  0  0  0
  -25.2622  -11.4017   21.0222 C   0  0  0  0  0  0  0  0  0  0  0  0
  -25.5029  -21.1527   22.7748 C   0  0  0  0  0  0  0  0  0  0  0  0
  -26.2131  -20.7242   21.6782 C   0  0  0  0  0  0  0  0  0  0  0  0
  -24.7977  -13.4865   20.4997 C   0  0  0  0  0  0  0  0  0  0  0  0
  -22.8407  -12.1964   21.3681 C   0  0  0  0  0  0  0  0  0  0  0  0
  -27.1324  -30.6405   21.3790 C   0  0  0  0  0  0  0  0  0  0  0  0
  -23.9696  -30.1260   21.8833 C   0  0  0  0  0  0  0  0  0  0  0  0
  -29.0554  -17.1143   20.5089 C   0  0  0  0  0  0  0  0  0  0  0  0
  -21.3231  -27.9768   21.7285 C   0  0  0  0  0  0  0  0  0  0  0  0
  -28.8618  -35.3108   22.4992 C   0  0  0  0  0  0  0  0  0  0  0  0
  -26.4100  -29.7198   19.1460 C   0  0  0  0  0  0  0  0  0  0  0  0
  -25.3791  -28.0925   21.3896 C   0  0  0  0  0  0  0  0  0  0  0  0
  -27.7829  -34.3841   23.0536 C   0  0  0  0  0  0  0  0  0  0  0  0
  -29.3200  -14.2428   18.3819 C   0  0  0  0  0  0  0  0  0  0  0  0
  -28.3460  -32.9847   23.2801 C   0  0  0  0  0  0  0  0  0  0  0  0
  -28.2219  -13.3127   18.8961 C   0  0  0  0  0  0  0  0  0  0  0  0
  -29.9574  -15.0360   19.5183 C   0  0  0  0  0  0  0  0  0  0  0  0
  -27.8812  -14.8844   20.8554 C   0  0  0  0  0  0  0  0  0  0  0  0
  -28.8287  -32.3644   21.9634 C   0  0  1  0  0  0  0  0  0  0  0  0
  -25.9756  -30.3531   20.4642 C   0  0  1  0  0  0  0  0  0  0  0  0
  -27.1900  -14.0868   19.7353 C   0  0  2  0  0  0  0  0  0  0  0  0
  -24.3111  -22.0150   22.8139 C   0  0  0  0  0  0  0  0  0  0  0  0
  -18.8720  -27.8298   22.2460 C   0  0  0  0  0  0  0  0  0  0  0  0
  -24.6155  -29.8517   24.8527 C   0  0  0  0  0  0  0  0  0  0  0  0
  -22.3707  -28.7900   25.1716 C   0  0  0  0  0  0  0  0  0  0  0  0
  -22.5315  -31.1409   24.3531 C   0  0  0  0  0  0  0  0  0  0  0  0
  -20.6369  -27.4682   18.8948 C   0  0  0  0  0  0  0  0  0  0  0  0
  -26.0311  -20.9724   20.2021 C   0  0  0  0  0  0  0  0  0  0  0  0
  -27.0189  -21.9868   19.6217 C   0  0  0  0  0  0  0  0  0  0  0  0
  -28.2467  -19.2631   21.4501 C   0  0  0  0  0  0  0  0  0  0  0  0
  -26.8650  -23.3843   20.2105 C   0  0  0  0  0  0  0  0  0  1  0  0
  -23.1637  -29.2439   22.8060 C   0  0  1  0  0  0  0  0  0  0  0  0
  -19.9155  -28.1497   21.1870 C   0  0  2  0  0  0  0  0  0  0  0  0
  -27.9700  -17.7684   21.3262 C   0  0  0  0  0  0  0  0  0  0  0  0
  -23.1890  -29.7457   24.2774 C   0  0  0  0  0  0  0  0  0  0  0  0
  -26.0454  -20.6661   23.9377 N   0  0  0  0  0  0  0  0  0  0  0  0
  -26.4211  -11.9039   20.5876 N   0  0  0  0  0  0  0  0  0  0  0  0
  -27.2180  -19.9536   22.1915 N   0  0  0  0  0  0  0  0  0  0  0  0
  -26.1063  -13.1730   20.2771 N   0  0  0  0  0  0  0  0  0  0  0  0
  -25.0377  -29.5137   21.2125 N   0  0  0  0  0  0  0  0  0  0  0  0
  -28.9425  -15.7389   20.3051 N   0  0  0  0  0  0  0  0  0  0  0  0
  -24.3126  -14.7196   20.2419 N   0  0  0  0  0  0  0  0  0  0  0  0
  -22.4095  -10.9535   21.8517 N   0  0  0  0  0  0  0  0  0  0  0  0
  -27.7045  -31.8839   21.1890 N   0  0  0  0  0  0  0  0  0  0  0  0
  -21.8276  -29.1596   22.2263 N   0  0  0  0  0  0  0  0  0  0  0  0
  -19.6944  -27.2474   20.0217 N   0  3  0  0  0  0  0  0  0  0  0  0
  -22.0149  -13.1350   21.2648 O   0  0  0  0  0  0  0  0  0  0  0  0
  -27.4792  -29.7972   22.1977 O   0  0  0  0  0  0  0  0  0  0  0  0
  -23.6583  -31.3129   21.7566 O   0  0  0  0  0  0  0  0  0  0  0  0
  -29.9738  -17.8073   20.0631 O   0  0  0  0  0  0  0  0  0  0  0  0
  -21.9144  -26.8995   21.7148 O   0  0  0  0  0  0  0  0  0  0  0  0
  -24.9683   -6.0814   22.7178 O   0  0  0  0  0  0  0  0  0  0  0  0
  -27.8150  -24.2498   19.5902 O   0  0  0  0  0  0  0  0  0  1  0  0
  -20.6908   -3.0679   20.9783 F   0  0  0  0  0  0  0  0  0  0  0  0
  -25.3628   -3.7864   21.2278 F   0  0  0  0  0  0  0  0  0  0  0  0
  -26.7582  -17.5710   20.7452 F   0  0  0  0  0  0  0  0  0  0  0  0
  -27.9066  -17.2075   22.5615 F   0  0  0  0  0  0  0  0  0  0  0  0
  1  2  1  0  0  0  0
  1  5  2  0  0  0  0
  2  6  2  0  0  0  0
  3  8  2  0  0  0  0
  3 16  1  0  0  0  0
  4  9  1  0  0  0  0
  4 16  2  0  0  0  0
  5 18  1  0  0  0  0
  6 20  1  0  0  0  0
  7 10  2  0  0  0  0
  7 19  1  0  0  0  0
  8 22  1  0  0  0  0
  9 22  2  0  0  0  0
 10 23  1  0  0  0  0
 11 12  2  0  0  0  0
 11 24  1  0  0  0  0
 12 25  1  0  0  0  0
 13 21  1  0  0  0  0
 13 23  2  0  0  0  0
 14 25  2  0  0  0  0
 14 26  1  0  0  0  0
 15 62  2  0  0  0  0
 15 64  1  0  0  0  0
 16 27  1  0  0  0  0
 17 27  1  0  0  0  0
 17 30  2  0  0  0  0
 17 31  1  0  0  0  0
 18 20  2  0  0  0  0
 18 36  1  0  0  0  0
 19 21  2  0  0  0  0
 19 37  1  0  0  0  0
 20 45  1  0  0  0  0
 21 38  1  0  0  0  0
 22 78  1  0  0  0  0
 23 79  1  0  0  0  0
 24 26  2  0  0  0  0
 24 78  1  0  0  0  0
 25 80  1  0  0  0  0
 26 81  1  0  0  0  0
 27 63  2  0  0  0  0
 28 29  2  0  0  0  0
 28 48  1  0  0  0  0
 28 62  1  0  0  0  0
 29 54  1  0  0  0  0
 29 64  1  0  0  0  0
 30 65  1  0  0  0  0
 30 68  1  0  0  0  0
 31 69  1  0  0  0  0
 31 73  2  0  0  0  0
 32 46  1  0  0  0  0
 32 70  1  0  0  0  0
 32 74  2  0  0  0  0
 33 58  1  0  0  0  0
 33 66  1  0  0  0  0
 33 75  2  0  0  0  0
 34 60  1  0  0  0  0
 34 67  1  0  0  0  0
 34 76  2  0  0  0  0
 35 59  1  0  0  0  0
 35 71  1  0  0  0  0
 35 77  2  0  0  0  0
 36 39  1  0  0  0  0
 37 46  1  0  0  0  0
 38 66  1  0  0  0  0
 39 41  1  0  0  0  0
 40 42  1  0  0  0  0
 40 43  1  0  0  0  0
 41 45  1  0  0  0  0
 42 47  1  0  0  0  0
 43 67  1  0  0  0  0
 44 47  1  0  0  0  0
 44 67  1  0  0  0  0
 45 70  1  0  0  0  0
 46 66  1  0  0  0  0
 47 65  1  0  0  0  0
 49 59  1  0  0  0  0
 50 61  1  0  0  0  0
 51 61  1  0  0  0  0
 52 61  1  0  0  0  0
 53 72  1  0  0  0  0
 54 55  1  0  0  0  0
 55 57  1  0  0  0  0
 56 60  1  0  0  0  0
 56 64  1  0  0  0  0
 57 79  1  0  0  0  0
 58 61  1  0  0  0  0
 58 71  1  0  0  0  0
 59 72  1  0  0  0  0
 60 82  1  0  0  0  0
 60 83  1  0  0  0  0
 63 65  1  0  0  0  0
M  CHG  1  72   1
M  ISO  4  34 100  57 101  60 100  79 101
M  END
> <Batch ID>
0058

> <Smiles>
CNC(C)C(=O)NC(C(=O)N1Cc2cc([101O:1][101CH2:1]CCc3c(C)ncn3C[100C:0](F)(F)[100C:0](=O)N3CCCC(n4nc(-c5ccc(Oc6ccc(F)cc6F)cc5)c(C(N)=O)c4N)C3)ccc2CC1C(=O)NC1CCCc2ccccc21)C(C)(C)C

> <Shape>
0.243

> <Color>
0.094

> <Negative vol penalty>
0.000

$$$$

  -OEChem-04052317503D

 85 94  0     1  0  0  0  0  0999 V2000
  -27.3913  -37.8932   20.4290 C   0  0  0  0  0  0  0  0  0  0  0  0
  -27.8420  -36.7182   19.8359 C   0  0  0  0  0  0  0  0  0  0  0  0
  -22.8315  -10.4606   20.6213 C   0  0  0  0  0  0  0  0  0  0  0  0
  -24.5647   -8.9786   21.4195 C   0  0  0  0  0  0  0  0  0  0  0  0
  -26.7405  -37.8456   21.6611 C   0  0  0  0  0  0  0  0  0  0  0  0
  -27.6432  -35.4950   20.4752 C   0  0  0  0  0  0  0  0  0  0  0  0
  -26.4182  -28.5831   19.0465 C   0  0  0  0  0  0  0  0  0  0  0  0
  -21.9392   -9.9136   21.5434 C   0  0  0  0  0  0  0  0  0  0  0  0
  -23.6724   -8.4317   22.3416 C   0  0  0  0  0  0  0  0  0  0  0  0
  -26.9155  -27.3162   19.3490 C   0  0  0  0  0  0  0  0  0  0  0  0
  -21.1393   -6.1924   22.3308 C   0  0  0  0  0  0  0  0  0  0  0  0
  -21.1090   -4.8037   22.4582 C   0  0  0  0  0  0  0  0  0  0  0  0
  -25.7083  -27.3475   21.4373 C   0  0  0  0  0  0  0  0  0  0  0  0
  -21.7207   -5.0040   24.7869 C   0  0  0  0  0  0  0  0  0  0  0  0
  -24.1442   -9.9930   20.5593 C   0  0  0  0  0  0  0  0  0  0  0  0
  -24.9397  -10.5677   18.2046 C   0  0  0  0  0  0  0  0  0  0  0  0
  -26.5250  -36.6203   22.3112 C   0  0  0  0  0  0  0  0  0  0  0  0
  -25.5695  -29.2474   19.9437 C   0  0  0  0  0  0  0  0  0  0  0  0
  -26.9900  -35.4312   21.7178 C   0  0  0  0  0  0  0  0  0  0  0  0
  -25.1996  -28.6217   21.1427 C   0  0  0  0  0  0  0  0  0  0  0  0
  -22.3596   -8.8992   22.4036 C   0  0  0  0  0  0  0  0  0  0  0  0
  -26.5629  -26.6994   20.5457 C   0  0  0  0  0  0  0  0  0  0  0  0
  -21.4604   -6.9869   23.4315 C   0  0  0  0  0  0  0  0  0  0  0  0
  -21.3997   -4.2095   23.6862 C   0  0  0  0  0  0  0  0  0  0  0  0
  -21.7510   -6.3927   24.6595 C   0  0  0  0  0  0  0  0  0  0  0  0
  -25.0663  -10.5572   19.6066 C   0  0  0  0  0  0  0  0  0  0  0  0
  -26.0670  -11.2162   17.7629 C   0  0  0  0  0  0  0  0  0  0  0  0
  -27.7321  -21.4406   21.9732 C   0  0  0  0  0  0  0  0  0  0  0  0
  -27.3017  -23.5502   22.2439 C   0  0  0  0  0  0  0  0  0  0  0  0
  -23.8963  -10.0388   17.3757 C   0  0  0  0  0  0  0  0  0  0  0  0
  -25.7299  -31.9600   21.5929 C   0  0  0  0  0  0  0  0  0  0  0  0
  -22.6692  -31.2151   22.3674 C   0  0  0  0  0  0  0  0  0  0  0  0
  -20.2761  -28.8093   22.7309 C   0  0  0  0  0  0  0  0  0  0  0  0
  -29.7197  -15.1854   20.1250 C   0  0  0  0  0  0  0  0  0  0  0  0
  -25.8586  -36.6237   23.6642 C   0  0  0  0  0  0  0  0  0  0  0  0
  -25.0203  -30.6024   19.5906 C   0  0  0  0  0  0  0  0  0  0  0  0
  -24.2753  -29.2838   22.1305 C   0  0  0  0  0  0  0  0  0  0  0  0
  -25.3550  -35.2497   24.0987 C   0  0  0  0  0  0  0  0  0  0  0  0
  -30.6196  -12.0537   18.9381 C   0  0  0  0  0  0  0  0  0  0  0  0
  -26.4243  -34.1888   23.8584 C   0  0  0  0  0  0  0  0  0  0  0  0
  -28.0402  -18.9905   22.5303 C   0  0  0  0  0  0  0  0  0  0  0  0
  -28.4545  -19.8171   20.1702 C   0  0  0  0  0  0  0  0  0  0  0  0
  -29.2921  -11.3036   18.8372 C   0  0  0  0  0  0  0  0  0  0  0  0
  -27.9264  -17.5587   22.0059 C   0  0  0  0  0  0  0  0  0  0  0  0
  -28.3411  -18.3834   19.6509 C   0  0  0  0  0  0  0  0  0  0  0  0
  -30.6709  -12.9016   20.2034 C   0  0  0  0  0  0  0  0  0  0  0  0
  -28.2090  -13.1471   20.2175 C   0  0  0  0  0  0  0  0  0  0  0  0
  -26.7711  -34.0825   22.3685 C   0  0  1  0  0  0  0  0  0  0  0  0
  -27.6360  -20.0162   21.4575 C   0  0  0  0  0  0  0  0  0  0  0  0
  -24.5745  -31.4029   20.8104 C   0  0  1  0  0  0  0  0  0  0  0  0
  -28.1018  -12.2719   18.9518 C   0  0  2  0  0  0  0  0  0  0  0  0
  -28.7388  -17.3667   20.7230 C   0  0  0  0  0  0  0  0  0  0  0  0
  -17.8814  -28.5002   23.4144 C   0  0  0  0  0  0  0  0  0  0  0  0
  -23.4684  -31.5192   25.2963 C   0  0  0  0  0  0  0  0  0  0  0  0
  -21.3725  -30.3013   25.9224 C   0  0  0  0  0  0  0  0  0  0  0  0
  -21.2336  -32.4822   24.7193 C   0  0  0  0  0  0  0  0  0  0  0  0
  -25.8234  -22.3417   20.6106 C   0  0  0  0  0  0  0  0  0  0  0  0
  -27.2122  -15.5273   20.1126 C   0  0  0  0  0  0  0  0  0  0  0  0
  -19.5306  -27.7569   20.0672 C   0  0  0  0  0  0  0  0  0  0  0  0
  -26.6451  -24.8902   22.0872 C   0  0  0  0  0  0  0  0  0  1  0  0
  -22.0076  -30.4247   23.4704 C   0  0  1  0  0  0  0  0  0  0  0  0
  -18.8361  -28.7409   22.2553 C   0  0  2  0  0  0  0  0  0  0  0  0
  -22.0395  -31.1699   24.8346 C   0  0  0  0  0  0  0  0  0  0  0  0
  -26.1859  -11.1516   20.0277 N   0  0  0  0  0  0  0  0  0  0  0  0
  -28.5904  -21.9090   22.8508 N   0  0  0  0  0  0  0  0  0  0  0  0
  -28.3166  -23.2512   23.0231 N   0  0  0  0  0  0  0  0  0  0  0  0
  -26.7731  -11.5416   18.8835 N   0  0  0  0  0  0  0  0  0  0  0  0
  -26.9017  -22.4397   21.5645 N   0  0  0  0  0  0  0  0  0  0  0  0
  -23.7696  -30.6110   21.7428 N   0  0  0  0  0  0  0  0  0  0  0  0
  -29.5229  -13.8054   20.2822 N   0  0  0  0  0  0  0  0  0  0  0  0
  -26.5134  -11.5339   16.5291 N   0  0  0  0  0  0  0  0  0  0  0  0
  -22.8102   -9.4032   17.9927 N   0  0  0  0  0  0  0  0  0  0  0  0
  -25.7486  -33.3399   21.6632 N   0  0  0  0  0  0  0  0  0  0  0  0
  -20.6657  -30.1053   22.9952 N   0  0  0  0  0  0  0  0  0  0  0  0
  -28.5880  -16.0095   20.2177 N   0  0  0  0  0  0  0  0  0  0  0  0
  -18.6678  -27.6352   21.2704 N   0  3  0  0  0  0  0  0  0  0  0  0
  -23.9342  -10.1126   16.1240 O   0  0  0  0  0  0  0  0  0  0  0  0
  -26.5434  -31.1945   22.0970 O   0  0  0  0  0  0  0  0  0  0  0  0
  -22.2217  -32.3244   22.0661 O   0  0  0  0  0  0  0  0  0  0  0  0
  -20.9834  -27.8123   22.8589 O   0  0  0  0  0  0  0  0  0  0  0  0
  -30.8456  -15.6575   19.9207 O   0  0  0  0  0  0  0  0  0  0  0  0
  -21.4892   -8.3655   23.3036 O   0  0  0  0  0  0  0  0  0  0  0  0
  -27.0474  -25.4631   20.8437 O   0  0  0  0  0  0  0  0  0  1  0  0
  -21.3691   -2.8760   23.8087 F   0  0  0  0  0  0  0  0  0  0  0  0
  -22.0589   -7.1508   25.7208 F   0  0  0  0  0  0  0  0  0  0  0  0
  1  2  1  0  0  0  0
  1  5  2  0  0  0  0
  2  6  2  0  0  0  0
  3  8  2  0  0  0  0
  3 15  1  0  0  0  0
  4  9  1  0  0  0  0
  4 15  2  0  0  0  0
  5 17  1  0  0  0  0
  6 19  1  0  0  0  0
  7 10  2  0  0  0  0
  7 18  1  0  0  0  0
  8 21  1  0  0  0  0
  9 21  2  0  0  0  0
 10 22  1  0  0  0  0
 11 12  2  0  0  0  0
 11 23  1  0  0  0  0
 12 24  1  0  0  0  0
 13 20  1  0  0  0  0
 13 22  2  0  0  0  0
 14 24  2  0  0  0  0
 14 25  1  0  0  0  0
 15 26  1  0  0  0  0
 16 26  1  0  0  0  0
 16 27  2  0  0  0  0
 16 30  1  0  0  0  0
 17 19  2  0  0  0  0
 17 35  1  0  0  0  0
 18 20  2  0  0  0  0
 18 36  1  0  0  0  0
 19 48  1  0  0  0  0
 20 37  1  0  0  0  0
 21 82  1  0  0  0  0
 22 83  1  0  0  0  0
 23 25  2  0  0  0  0
 23 82  1  0  0  0  0
 24 84  1  0  0  0  0
 25 85  1  0  0  0  0
 26 64  2  0  0  0  0
 27 67  1  0  0  0  0
 27 71  1  0  0  0  0
 28 49  1  0  0  0  0
 28 65  2  0  0  0  0
 28 68  1  0  0  0  0
 29 60  1  0  0  0  0
 29 66  2  0  0  0  0
 29 68  1  0  0  0  0
 30 72  1  0  0  0  0
 30 77  2  0  0  0  0
 31 50  1  0  0  0  0
 31 73  1  0  0  0  0
 31 78  2  0  0  0  0
 32 61  1  0  0  0  0
 32 69  1  0  0  0  0
 32 79  2  0  0  0  0
 33 62  1  0  0  0  0
 33 74  1  0  0  0  0
 33 80  2  0  0  0  0
 34 70  1  0  0  0  0
 34 75  1  0  0  0  0
 34 81  2  0  0  0  0
 35 38  1  0  0  0  0
 36 50  1  0  0  0  0
 37 69  1  0  0  0  0
 38 40  1  0  0  0  0
 39 43  1  0  0  0  0
 39 46  1  0  0  0  0
 40 48  1  0  0  0  0
 41 44  1  0  0  0  0
 41 49  1  0  0  0  0
 42 45  1  0  0  0  0
 42 49  1  0  0  0  0
 43 51  1  0  0  0  0
 44 52  1  0  0  0  0
 45 52  1  0  0  0  0
 46 70  1  0  0  0  0
 47 51  1  0  0  0  0
 47 70  1  0  0  0  0
 48 73  1  0  0  0  0
 50 69  1  0  0  0  0
 51 67  1  0  0  0  0
 52 75  1  0  0  0  0
 53 62  1  0  0  0  0
 54 63  1  0  0  0  0
 55 63  1  0  0  0  0
 56 63  1  0  0  0  0
 57 68  1  0  0  0  0
 58 75  1  0  0  0  0
 59 76  1  0  0  0  0
 60 83  1  0  0  0  0
 61 63  1  0  0  0  0
 61 74  1  0  0  0  0
 62 76  1  0  0  0  0
 64 67  1  0  0  0  0
 65 66  1  0  0  0  0
M  CHG  1  76   1
M  ISO  4  34 100  60 101  75 100  83 101
M  END
> <Batch ID>
0058

> <Smiles>
CNC(C)C(=O)NC(C(=O)N1Cc2cc([101O:1][101CH2:1]c3nnc(C4CCC([100N:0](C)[100C:0](=O)N5CCCC(n6nc(-c7ccc(Oc8ccc(F)cc8F)cc7)c(C(N)=O)c6N)C5)CC4)n3C)ccc2CC1C(=O)NC1CCCc2ccccc21)C(C)(C)C

> <Shape>
0.316

> <Color>
0.105

> <Negative vol penalty>
0.000

$$$$

  -OEChem-04052317503D

 84 92  0     1  0  0  0  0  0999 V2000
  -18.0616  -25.8138   22.4359 C   0  0  0  0  0  0  0  0  0  0  0  0
  -19.3986  -25.4404   22.5277 C   0  0  0  0  0  0  0  0  0  0  0  0
  -25.8079  -13.6441   20.4581 C   0  0  0  0  0  0  0  0  0  0  0  0
  -25.5384  -13.6111   18.0574 C   0  0  0  0  0  0  0  0  0  0  0  0
  -17.7242  -27.0842   21.9709 C   0  0  0  0  0  0  0  0  0  0  0  0
  -20.3990  -26.3368   22.1536 C   0  0  0  0  0  0  0  0  0  0  0  0
  -25.9411  -26.9370   24.6895 C   0  0  0  0  0  0  0  0  0  0  0  0
  -24.7128  -12.7909   20.5928 C   0  0  0  0  0  0  0  0  0  0  0  0
  -24.4432  -12.7578   18.1921 C   0  0  0  0  0  0  0  0  0  0  0  0
  -27.1967  -26.4526   24.3253 C   0  0  0  0  0  0  0  0  0  0  0  0
  -24.0729   -9.4875   20.2591 C   0  0  0  0  0  0  0  0  0  0  0  0
  -24.1941   -8.4109   21.1376 C   0  0  0  0  0  0  0  0  0  0  0  0
  -27.6761  -28.5427   23.2204 C   0  0  0  0  0  0  0  0  0  0  0  0
  -22.3324   -9.2532   22.4268 C   0  0  0  0  0  0  0  0  0  0  0  0
  -28.9202  -24.1866   19.0466 C   0  0  0  0  0  0  0  0  0  0  0  0
  -26.2207  -14.0543   19.1904 C   0  0  0  0  0  0  0  0  0  0  0  0
  -28.7027  -14.5692   18.9037 C   0  0  0  0  0  0  0  0  0  0  0  0
  -18.7213  -28.0001   21.6000 C   0  0  0  0  0  0  0  0  0  0  0  0
  -25.5387  -28.2262   24.3118 C   0  0  0  0  0  0  0  0  0  0  0  0
  -20.0746  -27.6202   21.6820 C   0  0  0  0  0  0  0  0  0  0  0  0
  -26.4159  -29.0421   23.5832 C   0  0  0  0  0  0  0  0  0  0  0  0
  -24.0304  -12.3477   19.4598 C   0  0  0  0  0  0  0  0  0  0  0  0
  -28.0633  -27.2543   23.5882 C   0  0  0  0  0  0  0  0  0  0  0  0
  -23.0814  -10.4470   20.4644 C   0  0  0  0  0  0  0  0  0  0  0  0
  -23.3239   -8.2937   22.2214 C   0  0  0  0  0  0  0  0  0  0  0  0
  -22.2112  -10.3299   21.5482 C   0  0  0  0  0  0  0  0  0  0  0  0
  -27.3516  -14.9362   19.0506 C   0  0  0  0  0  0  0  0  0  0  0  0
  -29.0005  -25.2636   19.9496 C   0  0  0  0  0  0  0  0  0  0  0  0
  -27.5905  -24.1198   18.7092 C   0  0  0  0  0  0  0  0  0  0  0  0
  -29.3748  -15.7635   18.8110 C   0  0  0  0  0  0  0  0  0  0  0  0
  -29.2972  -13.2654   18.8553 C   0  0  0  0  0  0  0  0  0  0  0  0
  -23.1981  -29.4094   22.5158 C   0  0  0  0  0  0  0  0  0  0  0  0
  -24.3332  -32.2500   23.5952 C   0  0  0  0  0  0  0  0  0  0  0  0
  -26.9548  -34.0288   24.8640 C   0  0  0  0  0  0  0  0  0  0  0  0
  -27.8856  -21.0517   16.9606 C   0  0  0  0  0  0  0  0  0  0  0  0
  -18.3063  -29.3452   21.0585 C   0  0  0  0  0  0  0  0  0  0  0  0
  -24.1914  -28.7438   24.7353 C   0  0  0  0  0  0  0  0  0  0  0  0
  -26.0396  -30.4408   23.1704 C   0  0  0  0  0  0  0  0  0  0  0  0
  -19.4387  -30.3686   21.0365 C   0  0  0  0  0  0  0  0  0  0  0  0
  -29.1225  -20.3296   20.1887 C   0  0  0  0  0  0  0  0  0  0  0  0
  -20.7056  -29.7506   20.4536 C   0  0  0  0  0  0  0  0  0  0  0  0
  -28.9312  -18.8150   20.2542 C   0  0  0  0  0  0  0  0  0  0  0  0
  -27.9496  -21.0276   19.4977 C   0  0  0  0  0  0  0  0  0  0  0  0
  -27.4433  -18.9679   18.2233 C   0  0  0  0  0  0  0  0  0  0  0  0
  -21.1892  -28.5734   21.3090 C   0  0  1  0  0  0  0  0  0  0  0  0
  -23.6856  -29.8831   23.8558 C   0  0  1  0  0  0  0  0  0  0  0  0
  -28.6357  -18.2369   18.8594 C   0  0  2  0  0  0  0  0  0  0  0  0
  -24.8464  -24.9678   20.6212 C   0  0  0  0  0  0  0  0  0  0  0  0
  -27.2776  -23.3383   14.6860 C   0  0  0  0  0  0  0  0  0  0  0  0
  -27.5905  -36.3388   25.6102 C   0  0  0  0  0  0  0  0  0  0  0  0
  -24.5431  -33.1308   20.6814 C   0  0  0  0  0  0  0  0  0  0  0  0
  -26.0308  -35.0015   21.4269 C   0  0  0  0  0  0  0  0  0  0  0  0
  -23.6758  -34.8829   22.2410 C   0  0  0  0  0  0  0  0  0  0  0  0
  -27.5233  -33.1080   27.6185 C   0  0  0  0  0  0  0  0  0  0  0  0
  -30.2303  -25.7888   20.6463 C   0  0  0  0  0  0  0  0  0  0  0  0
  -26.8653  -23.2081   17.8055 C   0  0  0  0  0  0  0  0  0  0  0  0
  -30.5045  -25.1235   21.9968 C   0  0  0  0  0  0  0  0  0  0  0  0
  -25.5749  -25.4607   19.3827 C   0  0  0  0  0  0  0  0  0  0  0  0
  -28.2971  -23.1858   15.7967 C   0  0  0  0  0  0  0  0  0  0  0  0
  -29.4106  -25.3764   23.0277 C   0  0  0  0  0  0  0  0  0  1  0  0
  -25.3767  -33.2333   23.1229 C   0  0  1  0  0  0  0  0  0  0  0  0
  -27.0486  -34.9844   26.0398 C   0  0  2  0  0  0  0  0  0  0  0  0
  -24.9133  -34.0351   21.8740 C   0  0  0  0  0  0  0  0  0  0  0  0
  -27.1740  -16.2600   19.0519 N   0  0  0  0  0  0  0  0  0  0  0  0
  -27.8161  -25.8397   20.1717 N   0  0  0  0  0  0  0  0  0  0  0  0
  -26.9790  -25.1220   19.4033 N   0  0  0  0  0  0  0  0  0  0  0  0
  -28.4224  -16.7353   18.9047 N   0  0  0  0  0  0  0  0  0  0  0  0
  -24.7091  -30.8993   23.6030 N   0  0  0  0  0  0  0  0  0  0  0  0
  -27.6712  -20.4147   18.1917 N   0  0  0  0  0  0  0  0  0  0  0  0
  -30.6815  -16.0666   18.6594 N   0  0  0  0  0  0  0  0  0  0  0  0
  -28.4615  -12.1456   18.9653 N   0  0  0  0  0  0  0  0  0  0  0  0
  -21.8628  -29.0545   22.4962 N   0  0  0  0  0  0  0  0  0  0  0  0
  -25.7078  -34.0627   24.2765 N   0  0  0  0  0  0  0  0  0  0  0  0
  -27.7539  -22.4481   16.9286 N   0  0  0  0  0  0  0  0  0  0  0  0
  -27.9500  -34.4285   27.0883 N   0  3  0  0  0  0  0  0  0  0  0  0
  -30.5346  -13.0985   18.7351 O   0  0  0  0  0  0  0  0  0  0  0  0
  -23.9755  -29.3702   21.5694 O   0  0  0  0  0  0  0  0  0  0  0  0
  -23.2276  -32.6657   23.9510 O   0  0  0  0  0  0  0  0  0  0  0  0
  -27.8949  -33.3255   24.5005 O   0  0  0  0  0  0  0  0  0  0  0  0
  -28.1712  -20.4082   15.9425 O   0  0  0  0  0  0  0  0  0  0  0  0
  -22.9619  -11.5149   19.5909 O   0  0  0  0  0  0  0  0  0  0  0  0
  -29.2891  -26.7837   23.2310 O   0  0  0  0  0  0  0  0  0  1  0  0
  -23.4394   -7.2590   23.0641 F   0  0  0  0  0  0  0  0  0  0  0  0
  -21.2560  -11.2479   21.7499 F   0  0  0  0  0  0  0  0  0  0  0  0
  1  2  1  0  0  0  0
  1  5  2  0  0  0  0
  2  6  2  0  0  0  0
  3  8  2  0  0  0  0
  3 16  1  0  0  0  0
  4  9  1  0  0  0  0
  4 16  2  0  0  0  0
  5 18  1  0  0  0  0
  6 20  1  0  0  0  0
  7 10  2  0  0  0  0
  7 19  1  0  0  0  0
  8 22  1  0  0  0  0
  9 22  2  0  0  0  0
 10 23  1  0  0  0  0
 11 12  2  0  0  0  0
 11 24  1  0  0  0  0
 12 25  1  0  0  0  0
 13 21  1  0  0  0  0
 13 23  2  0  0  0  0
 14 25  2  0  0  0  0
 14 26  1  0  0  0  0
 15 28  1  0  0  0  0
 15 29  2  0  0  0  0
 16 27  1  0  0  0  0
 17 27  1  0  0  0  0
 17 30  2  0  0  0  0
 17 31  1  0  0  0  0
 18 20  2  0  0  0  0
 18 36  1  0  0  0  0
 19 21  2  0  0  0  0
 19 37  1  0  0  0  0
 20 45  1  0  0  0  0
 21 38  1  0  0  0  0
 22 81  1  0  0  0  0
 23 82  1  0  0  0  0
 24 26  2  0  0  0  0
 24 81  1  0  0  0  0
 25 83  1  0  0  0  0
 26 84  1  0  0  0  0
 27 64  2  0  0  0  0
 28 55  1  0  0  0  0
 28 65  2  0  0  0  0
 29 56  1  0  0  0  0
 29 66  1  0  0  0  0
 30 67  1  0  0  0  0
 30 70  1  0  0  0  0
 31 71  1  0  0  0  0
 31 76  2  0  0  0  0
 32 46  1  0  0  0  0
 32 72  1  0  0  0  0
 32 77  2  0  0  0  0
 33 61  1  0  0  0  0
 33 68  1  0  0  0  0
 33 78  2  0  0  0  0
 34 62  1  0  0  0  0
 34 73  1  0  0  0  0
 34 79  2  0  0  0  0
 35 69  1  0  0  0  0
 35 74  1  0  0  0  0
 35 80  2  0  0  0  0
 36 39  1  0  0  0  0
 37 46  1  0  0  0  0
 38 68  1  0  0  0  0
 39 41  1  0  0  0  0
 40 42  1  0  0  0  0
 40 43  1  0  0  0  0
 41 45  1  0  0  0  0
 42 47  1  0  0  0  0
 43 69  1  0  0  0  0
 44 47  1  0  0  0  0
 44 69  1  0  0  0  0
 45 72  1  0  0  0  0
 46 68  1  0  0  0  0
 47 67  1  0  0  0  0
 48 58  1  0  0  0  0
 49 59  1  0  0  0  0
 50 62  1  0  0  0  0
 51 63  1  0  0  0  0
 52 63  1  0  0  0  0
 53 63  1  0  0  0  0
 54 75  1  0  0  0  0
 55 57  1  0  0  0  0
 56 74  1  0  0  0  0
 57 60  1  0  0  0  0
 58 66  1  0  0  0  0
 59 74  1  0  0  0  0
 60 82  1  0  0  0  0
 61 63  1  0  0  0  0
 61 73  1  0  0  0  0
 62 75  1  0  0  0  0
 64 67  1  0  0  0  0
 65 66  1  0  0  0  0
M  CHG  1  75   1
M  ISO  4  35 100  60 101  74 100  82 101
M  END
> <Batch ID>
0058

> <Smiles>
CCn1nc(CC[101CH2:1][101O:1]c2ccc3c(c2)CN(C(=O)C(NC(=O)C(C)NC)C(C)(C)C)C(C(=O)NC2CCCc4ccccc42)C3)cc1C[100N:0](CC)[100C:0](=O)N1CCCC(n2nc(-c3ccc(Oc4ccc(F)cc4F)cc3)c(C(N)=O)c2N)C1

> <Shape>
0.278

> <Color>
0.082

> <Negative vol penalty>
0.000

$$$$

  -OEChem-04052317503D

 79 87  0     1  0  0  0  0  0999 V2000
  -28.5220  -33.1088   22.1974 C   0  0  0  0  0  0  0  0  0  0  0  0
  -28.5049  -31.7221   22.0864 C   0  0  0  0  0  0  0  0  0  0  0  0
  -23.4605  -12.2044   19.3640 C   0  0  0  0  0  0  0  0  0  0  0  0
  -25.1427  -11.9111   21.0731 C   0  0  0  0  0  0  0  0  0  0  0  0
  -27.4131  -33.7795   22.7115 C   0  0  0  0  0  0  0  0  0  0  0  0
  -27.3792  -31.0053   22.4906 C   0  0  0  0  0  0  0  0  0  0  0  0
  -26.0567  -27.4258   19.1615 C   0  0  0  0  0  0  0  0  0  0  0  0
  -23.3851  -10.8212   19.2008 C   0  0  0  0  0  0  0  0  0  0  0  0
  -25.0673  -10.5279   20.9100 C   0  0  0  0  0  0  0  0  0  0  0  0
  -26.8002  -26.2465   19.1656 C   0  0  0  0  0  0  0  0  0  0  0  0
  -23.0178   -8.0167   21.8661 C   0  0  0  0  0  0  0  0  0  0  0  0
  -22.9650   -7.2317   23.0179 C   0  0  0  0  0  0  0  0  0  0  0  0
  -25.0695  -25.1669   20.4534 C   0  0  0  0  0  0  0  0  0  0  0  0
  -25.0034   -6.1184   22.3527 C   0  0  0  0  0  0  0  0  0  0  0  0
  -29.0227  -21.6536   18.2722 C   0  0  0  0  0  0  0  0  0  0  0  0
  -24.3394  -12.7494   20.3002 C   0  0  0  0  0  0  0  0  0  0  0  0
  -23.6613  -14.9731   21.3504 C   0  0  0  0  0  0  0  0  0  0  0  0
  -26.2695  -33.0714   23.1132 C   0  0  0  0  0  0  0  0  0  0  0  0
  -24.8168  -27.4878   19.8137 C   0  0  0  0  0  0  0  0  0  0  0  0
  -26.2544  -31.6671   23.0119 C   0  0  0  0  0  0  0  0  0  0  0  0
  -24.3110  -26.3475   20.4539 C   0  0  0  0  0  0  0  0  0  0  0  0
  -24.1885   -9.9829   19.9738 C   0  0  0  0  0  0  0  0  0  0  0  0
  -26.3081  -25.1176   19.8141 C   0  0  0  0  0  0  0  0  0  0  0  0
  -24.0635   -7.8525   20.9576 C   0  0  0  0  0  0  0  0  0  0  0  0
  -23.9577   -6.2826   23.2612 C   0  0  0  0  0  0  0  0  0  0  0  0
  -25.0563   -6.9034   21.2009 C   0  0  0  0  0  0  0  0  0  0  0  0
  -24.4181  -14.1782   20.4688 C   0  0  0  0  0  0  0  0  0  0  0  0
  -28.9147  -22.6238   19.2366 C   0  0  0  0  0  0  0  0  0  0  0  0
  -24.1097  -16.2525   21.1299 C   0  0  0  0  0  0  0  0  0  0  0  0
  -22.6441  -14.5893   22.2851 C   0  0  0  0  0  0  0  0  0  0  0  0
  -23.6380  -29.1765   22.2349 C   0  0  0  0  0  0  0  0  0  0  0  0
  -29.3104  -18.2554   19.0765 C   0  0  0  0  0  0  0  0  0  0  0  0
  -20.8658  -27.7175   21.3930 C   0  0  0  0  0  0  0  0  0  0  0  0
  -19.3264  -25.0730   19.8817 C   0  0  0  0  0  0  0  0  0  0  0  0
  -25.1132  -33.8363   23.7070 C   0  0  0  0  0  0  0  0  0  0  0  0
  -24.0148  -28.7597   19.7772 C   0  0  0  0  0  0  0  0  0  0  0  0
  -22.9762  -26.3561   21.1514 C   0  0  0  0  0  0  0  0  0  0  0  0
  -23.8164  -33.0330   23.7636 C   0  0  0  0  0  0  0  0  0  0  0  0
  -26.0169  -19.0286   17.7417 C   0  0  0  0  0  0  0  0  0  0  0  0
  -24.0775  -31.6361   24.3180 C   0  0  0  0  0  0  0  0  0  0  0  0
  -25.1690  -17.9158   18.3565 C   0  0  0  0  0  0  0  0  0  0  0  0
  -27.4217  -18.5396   17.3991 C   0  0  0  0  0  0  0  0  0  0  0  0
  -27.2998  -16.8166   19.1713 C   0  0  0  0  0  0  0  0  0  0  0  0
  -25.0424  -30.8563   23.4166 C   0  0  1  0  0  0  0  0  0  0  0  0
  -23.0001  -28.8590   20.9120 C   0  0  1  0  0  0  0  0  0  0  0  0
  -25.8848  -17.2771   19.5595 C   0  0  2  0  0  0  0  0  0  0  0  0
  -17.0507  -24.1390   19.3858 C   0  0  0  0  0  0  0  0  0  0  0  0
  -20.6107  -26.8055   24.2936 C   0  0  0  0  0  0  0  0  0  0  0  0
  -18.8989  -25.1385   23.5459 C   0  0  0  0  0  0  0  0  0  0  0  0
  -18.4729  -27.5787   23.2512 C   0  0  0  0  0  0  0  0  0  0  0  0
  -19.7777  -25.2142   16.9601 C   0  0  0  0  0  0  0  0  0  0  0  0
  -28.2878  -23.9837   19.1425 C   0  0  0  0  0  0  0  0  0  1  0  0
  -31.5546  -19.0785   18.4379 C   0  0  0  0  0  0  0  0  0  0  0  0
  -30.0522  -19.3610   18.3685 C   0  0  2  0  0  0  0  0  0  0  0  0
  -20.1756  -26.4308   21.7764 C   0  0  1  0  0  0  0  0  0  0  0  0
  -18.1899  -25.0087   18.8773 C   0  0  2  0  0  0  0  0  0  0  0  0
  -19.5656  -26.4884   23.2054 C   0  0  0  0  0  0  0  0  0  0  0  0
  -25.2816  -14.8928   19.7423 N   0  0  0  0  0  0  0  0  0  0  0  0
  -29.4856  -22.1827   20.3981 N   0  0  0  0  0  0  0  0  0  0  0  0
  -29.9508  -20.9567   20.1843 N   0  0  0  0  0  0  0  0  0  0  0  0
  -29.6724  -20.6414   18.9090 N   0  0  0  0  0  0  0  0  0  0  0  0
  -25.0701  -16.1502   20.1669 N   0  0  0  0  0  0  0  0  0  0  0  0
  -22.2324  -27.6253   21.0933 N   0  0  0  0  0  0  0  0  0  0  0  0
  -28.0590  -17.9132   18.5635 N   0  0  0  0  0  0  0  0  0  0  0  0
  -23.7721  -17.4438   21.6676 N   0  0  0  0  0  0  0  0  0  0  0  0
  -22.3055  -13.2330   22.3845 N   0  0  0  0  0  0  0  0  0  0  0  0
  -24.3511  -30.3600   22.2460 N   0  0  0  0  0  0  0  0  0  0  0  0
  -19.2041  -26.1590   20.7225 N   0  0  0  0  0  0  0  0  0  0  0  0
  -32.2673  -19.8480   17.3869 N   0  3  0  0  0  0  0  0  0  0  0  0
  -18.6719  -24.4437   17.5852 N   0  3  0  0  0  0  0  0  0  0  0  0
  -22.0414  -15.4265   22.9988 O   0  0  0  0  0  0  0  0  0  0  0  0
  -23.4927  -28.4055   23.1763 O   0  0  0  0  0  0  0  0  0  0  0  0
  -29.8280  -17.7153   20.0576 O   0  0  0  0  0  0  0  0  0  0  0  0
  -20.2148  -28.7645   21.3537 O   0  0  0  0  0  0  0  0  0  0  0  0
  -20.2302  -24.2410   19.9191 O   0  0  0  0  0  0  0  0  0  0  0  0
  -24.1150   -8.6331   19.8149 O   0  0  0  0  0  0  0  0  0  0  0  0
  -27.0321  -23.9654   19.8202 O   0  0  0  0  0  0  0  0  0  1  0  0
  -23.9076   -5.5299   24.3681 F   0  0  0  0  0  0  0  0  0  0  0  0
  -26.0639   -6.7419   20.3323 F   0  0  0  0  0  0  0  0  0  0  0  0
  1  2  1  0  0  0  0
  1  5  2  0  0  0  0
  2  6  2  0  0  0  0
  3  8  2  0  0  0  0
  3 16  1  0  0  0  0
  4  9  1  0  0  0  0
  4 16  2  0  0  0  0
  5 18  1  0  0  0  0
  6 20  1  0  0  0  0
  7 10  2  0  0  0  0
  7 19  1  0  0  0  0
  8 22  1  0  0  0  0
  9 22  2  0  0  0  0
 10 23  1  0  0  0  0
 11 12  2  0  0  0  0
 11 24  1  0  0  0  0
 12 25  1  0  0  0  0
 13 21  1  0  0  0  0
 13 23  2  0  0  0  0
 14 25  2  0  0  0  0
 14 26  1  0  0  0  0
 15 28  2  0  0  0  0
 15 61  1  0  0  0  0
 16 27  1  0  0  0  0
 17 27  1  0  0  0  0
 17 29  2  0  0  0  0
 17 30  1  0  0  0  0
 18 20  2  0  0  0  0
 18 35  1  0  0  0  0
 19 21  2  0  0  0  0
 19 36  1  0  0  0  0
 20 44  1  0  0  0  0
 21 37  1  0  0  0  0
 22 76  1  0  0  0  0
 23 77  1  0  0  0  0
 24 26  2  0  0  0  0
 24 76  1  0  0  0  0
 25 78  1  0  0  0  0
 26 79  1  0  0  0  0
 27 58  2  0  0  0  0
 28 52  1  0  0  0  0
 28 59  1  0  0  0  0
 29 62  1  0  0  0  0
 29 65  1  0  0  0  0
 30 66  1  0  0  0  0
 30 71  2  0  0  0  0
 31 45  1  0  0  0  0
 31 67  1  0  0  0  0
 31 72  2  0  0  0  0
 32 54  1  0  0  0  0
 32 64  1  0  0  0  0
 32 73  2  0  0  0  0
 33 55  1  0  0  0  0
 33 63  1  0  0  0  0
 33 74  2  0  0  0  0
 34 56  1  0  0  0  0
 34 68  1  0  0  0  0
 34 75  2  0  0  0  0
 35 38  1  0  0  0  0
 36 45  1  0  0  0  0
 37 63  1  0  0  0  0
 38 40  1  0  0  0  0
 39 41  1  0  0  0  0
 39 42  1  0  0  0  0
 40 44  1  0  0  0  0
 41 46  1  0  0  0  0
 42 64  1  0  0  0  0
 43 46  1  0  0  0  0
 43 64  1  0  0  0  0
 44 67  1  0  0  0  0
 45 63  1  0  0  0  0
 46 62  1  0  0  0  0
 47 56  1  0  0  0  0
 48 57  1  0  0  0  0
 49 57  1  0  0  0  0
 50 57  1  0  0  0  0
 51 70  1  0  0  0  0
 52 77  1  0  0  0  0
 53 54  1  0  0  0  0
 53 69  1  0  0  0  0
 54 61  1  0  0  0  0
 55 57  1  0  0  0  0
 55 68  1  0  0  0  0
 56 70  1  0  0  0  0
 58 62  1  0  0  0  0
 59 60  2  0  0  0  0
 60 61  1  0  0  0  0
M  CHG  2  69   1  70   1
M  ISO  4  32 100  52 101  54 100  77 101
M  END
> <Batch ID>
0058

> <Smiles>
CNC(C)C(=O)NC(C(=O)N1Cc2cc([101O:1][101CH2:1]c3cn([100CH:0](CN)[100C:0](=O)N4CCCC(n5nc(-c6ccc(Oc7ccc(F)cc7F)cc6)c(C(N)=O)c5N)C4)nn3)ccc2CC1C(=O)NC1CCCc2ccccc21)C(C)(C)C

> <Shape>
0.256

> <Color>
0.065

> <Negative vol penalty>
0.000

$$$$

  -OEChem-04052317503D

 87 95  0     1  0  0  0  0  0999 V2000
  -17.0351  -28.8733   24.5640 C   0  0  0  0  0  0  0  0  0  0  0  0
  -17.7140  -27.8101   23.9774 C   0  0  0  0  0  0  0  0  0  0  0  0
  -26.4018  -12.8163   20.0332 C   0  0  0  0  0  0  0  0  0  0  0  0
  -25.1081  -14.6285   20.9709 C   0  0  0  0  0  0  0  0  0  0  0  0
  -17.3283  -30.1818   24.1823 C   0  0  0  0  0  0  0  0  0  0  0  0
  -18.6857  -28.0549   23.0077 C   0  0  0  0  0  0  0  0  0  0  0  0
  -22.8759  -25.3011   23.7181 C   0  0  0  0  0  0  0  0  0  0  0  0
  -25.6684  -11.9017   20.7890 C   0  0  0  0  0  0  0  0  0  0  0  0
  -24.3746  -13.7139   21.7266 C   0  0  0  0  0  0  0  0  0  0  0  0
  -22.8327  -23.9636   23.3269 C   0  0  0  0  0  0  0  0  0  0  0  0
  -23.8959   -9.0584   22.1995 C   0  0  0  0  0  0  0  0  0  0  0  0
  -23.4467   -7.9023   21.5613 C   0  0  0  0  0  0  0  0  0  0  0  0
  -23.9945  -24.5282   21.2896 C   0  0  0  0  0  0  0  0  0  0  0  0
  -22.1883   -9.2521   20.0019 C   0  0  0  0  0  0  0  0  0  0  0  0
  -26.1217  -14.1797   20.1242 C   0  0  0  0  0  0  0  0  0  0  0  0
  -26.5851  -15.5864   18.0472 C   0  0  0  0  0  0  0  0  0  0  0  0
  -18.3109  -30.4432   23.2144 C   0  0  0  0  0  0  0  0  0  0  0  0
  -23.4700  -26.2656   22.8915 C   0  0  0  0  0  0  0  0  0  0  0  0
  -18.9914  -29.3680   22.6116 C   0  0  0  0  0  0  0  0  0  0  0  0
  -24.0461  -25.8769   21.6737 C   0  0  0  0  0  0  0  0  0  0  0  0
  -24.6548  -12.3505   21.6356 C   0  0  0  0  0  0  0  0  0  0  0  0
  -23.3895  -23.5775   22.1112 C   0  0  0  0  0  0  0  0  0  0  0  0
  -23.4912  -10.3114   21.7389 C   0  0  0  0  0  0  0  0  0  0  0  0
  -22.5929   -7.9991   20.4625 C   0  0  0  0  0  0  0  0  0  0  0  0
  -22.6375  -10.4082   20.6401 C   0  0  0  0  0  0  0  0  0  0  0  0
  -26.8794  -15.1251   19.3442 C   0  0  0  0  0  0  0  0  0  0  0  0
  -26.4545  -19.7605   22.5614 C   0  0  0  0  0  0  0  0  0  0  0  0
  -25.3962  -20.1758   21.7835 C   0  0  0  0  0  0  0  0  0  0  0  0
  -27.9173  -20.5046   20.9690 C   0  0  0  0  0  0  0  0  0  0  0  0
  -26.8591  -20.9192   20.1906 C   0  0  0  0  0  0  0  0  0  0  0  0
  -27.6012  -16.4635   17.7560 C   0  0  0  0  0  0  0  0  0  0  0  0
  -25.4911  -15.2520   17.1828 C   0  0  0  0  0  0  0  0  0  0  0  0
  -22.4442  -28.8740   21.3923 C   0  0  0  0  0  0  0  0  0  0  0  0
  -25.5906  -29.2350   20.6906 C   0  0  0  0  0  0  0  0  0  0  0  0
  -28.6525  -27.7846   20.2810 C   0  0  0  0  0  0  0  0  0  0  0  0
  -31.2545  -19.4826   21.6388 C   0  0  0  0  0  0  0  0  0  0  0  0
  -18.5597  -31.8719   22.8000 C   0  0  0  0  0  0  0  0  0  0  0  0
  -23.5321  -27.7000   23.3401 C   0  0  0  0  0  0  0  0  0  0  0  0
  -24.7137  -26.8703   20.7594 C   0  0  0  0  0  0  0  0  0  0  0  0
  -19.8671  -32.0656   22.0360 C   0  0  0  0  0  0  0  0  0  0  0  0
  -32.1876  -17.3630   18.7513 C   0  0  0  0  0  0  0  0  0  0  0  0
  -20.0184  -30.9974   20.9576 C   0  0  0  0  0  0  0  0  0  0  0  0
  -30.9217  -16.5398   18.5194 C   0  0  0  0  0  0  0  0  0  0  0  0
  -32.3322  -17.7821   20.2111 C   0  0  0  0  0  0  0  0  0  0  0  0
  -29.8810  -17.6789   20.5195 C   0  0  0  0  0  0  0  0  0  0  0  0
  -20.0695  -29.5943   21.5741 C   0  0  1  0  0  0  0  0  0  0  0  0
  -23.7063  -28.6805   22.1844 C   0  0  1  0  0  0  0  0  0  0  0  0
  -29.6813  -17.2799   19.0496 C   0  0  2  0  0  0  0  0  0  0  0  0
  -27.5232  -19.0247   24.7069 C   0  0  0  0  0  0  0  0  0  0  0  0
  -31.0246  -28.3299   19.6700 C   0  0  0  0  0  0  0  0  0  0  0  0
  -24.7831  -29.4480   17.7559 C   0  0  0  0  0  0  0  0  0  0  0  0
  -27.1744  -29.0350   17.1401 C   0  0  0  0  0  0  0  0  0  0  0  0
  -26.5614  -31.0558   18.4679 C   0  0  0  0  0  0  0  0  0  0  0  0
  -30.3840  -21.5998   22.5550 C   0  0  0  0  0  0  0  0  0  0  0  0
  -29.6623  -26.8667   22.9072 C   0  0  0  0  0  0  0  0  0  0  0  0
  -26.2385  -19.1130   23.8864 C   0  0  0  0  0  0  0  0  0  0  0  0
  -23.9678  -19.9950   22.2366 C   0  0  0  0  0  0  0  0  0  0  0  0
  -29.3279  -20.6843   20.5223 C   0  0  0  0  0  0  0  0  0  0  0  0
  -23.3577  -21.2901   22.7614 C   0  0  0  0  0  0  0  0  0  1  0  0
  -26.4949  -28.7814   19.5701 C   0  0  1  0  0  0  0  0  0  0  0  0
  -30.0256  -28.1653   20.8048 C   0  0  2  0  0  0  0  0  0  0  0  0
  -27.0753  -21.5664   18.8655 C   0  0  0  0  0  0  0  0  0  0  0  0
  -26.2392  -29.5614   18.2496 C   0  0  0  0  0  0  0  0  0  0  0  0
  -27.9951  -15.6644   19.8426 N   0  0  0  0  0  0  0  0  0  0  0  0
  -27.7340  -19.9175   22.1682 N   0  0  0  0  0  0  0  0  0  0  0  0
  -25.5796  -20.7626   20.5841 N   0  0  0  0  0  0  0  0  0  0  0  0
  -28.4109  -16.4735   18.8534 N   0  0  0  0  0  0  0  0  0  0  0  0
  -24.7435  -28.2618   21.2394 N   0  0  0  0  0  0  0  0  0  0  0  0
  -31.1233  -18.4445   20.7018 N   0  0  0  0  0  0  0  0  0  0  0  0
  -27.8721  -17.2193   16.6708 N   0  0  0  0  0  0  0  0  0  0  0  0
  -24.5360  -14.3333   17.6389 N   0  0  0  0  0  0  0  0  0  0  0  0
  -21.3773  -29.3375   22.1382 N   0  0  0  0  0  0  0  0  0  0  0  0
  -27.8588  -28.8933   20.0757 N   0  0  0  0  0  0  0  0  0  0  0  0
  -30.2844  -20.4959   21.6108 N   0  0  0  0  0  0  0  0  0  0  0  0
  -30.5358  -27.1157   21.7316 N   0  3  0  0  0  0  0  0  0  0  0  0
  -25.3732  -15.7407   16.0336 O   0  0  0  0  0  0  0  0  0  0  0  0
  -22.4392  -28.6230   20.1929 O   0  0  0  0  0  0  0  0  0  0  0  0
  -25.6392  -30.4077   21.0699 O   0  0  0  0  0  0  0  0  0  0  0  0
  -28.3189  -26.6205   20.0713 O   0  0  0  0  0  0  0  0  0  0  0  0
  -32.1911  -19.5075   22.4476 O   0  0  0  0  0  0  0  0  0  0  0  0
  -23.9387  -11.4582   22.3731 O   0  0  0  0  0  0  0  0  0  0  0  0
  -23.3481  -22.2727   21.7267 O   0  0  0  0  0  0  0  0  0  1  0  0
  -22.1629   -6.8889   19.8489 F   0  0  0  0  0  0  0  0  0  0  0  0
  -22.2463  -11.6091   20.1923 F   0  0  0  0  0  0  0  0  0  0  0  0
  -28.3927  -21.6952   18.5266 F   0  0  0  0  0  0  0  0  0  0  0  0
  -26.5057  -20.8882   17.8252 F   0  0  0  0  0  0  0  0  0  0  0  0
  -26.5579  -22.8284   18.8057 F   0  0  0  0  0  0  0  0  0  0  0  0
  1  2  1  0  0  0  0
  1  5  2  0  0  0  0
  2  6  2  0  0  0  0
  3  8  2  0  0  0  0
  3 15  1  0  0  0  0
  4  9  1  0  0  0  0
  4 15  2  0  0  0  0
  5 17  1  0  0  0  0
  6 19  1  0  0  0  0
  7 10  2  0  0  0  0
  7 18  1  0  0  0  0
  8 21  1  0  0  0  0
  9 21  2  0  0  0  0
 10 22  1  0  0  0  0
 11 12  2  0  0  0  0
 11 23  1  0  0  0  0
 12 24  1  0  0  0  0
 13 20  1  0  0  0  0
 13 22  2  0  0  0  0
 14 24  2  0  0  0  0
 14 25  1  0  0  0  0
 15 26  1  0  0  0  0
 16 26  1  0  0  0  0
 16 31  2  0  0  0  0
 16 32  1  0  0  0  0
 17 19  2  0  0  0  0
 17 37  1  0  0  0  0
 18 20  2  0  0  0  0
 18 38  1  0  0  0  0
 19 46  1  0  0  0  0
 20 39  1  0  0  0  0
 21 81  1  0  0  0  0
 22 82  1  0  0  0  0
 23 25  2  0  0  0  0
 23 81  1  0  0  0  0
 24 83  1  0  0  0  0
 25 84  1  0  0  0  0
 26 64  2  0  0  0  0
 27 28  2  0  0  0  0
 27 56  1  0  0  0  0
 27 65  1  0  0  0  0
 28 57  1  0  0  0  0
 28 66  1  0  0  0  0
 29 30  1  0  0  0  0
 29 58  1  0  0  0  0
 29 65  2  0  0  0  0
 30 62  1  0  0  0  0
 30 66  2  0  0  0  0
 31 67  1  0  0  0  0
 31 70  1  0  0  0  0
 32 71  1  0  0  0  0
 32 76  2  0  0  0  0
 33 47  1  0  0  0  0
 33 72  1  0  0  0  0
 33 77  2  0  0  0  0
 34 60  1  0  0  0  0
 34 68  1  0  0  0  0
 34 78  2  0  0  0  0
 35 61  1  0  0  0  0
 35 73  1  0  0  0  0
 35 79  2  0  0  0  0
 36 69  1  0  0  0  0
 36 74  1  0  0  0  0
 36 80  2  0  0  0  0
 37 40  1  0  0  0  0
 38 47  1  0  0  0  0
 39 68  1  0  0  0  0
 40 42  1  0  0  0  0
 41 43  1  0  0  0  0
 41 44  1  0  0  0  0
 42 46  1  0  0  0  0
 43 48  1  0  0  0  0
 44 69  1  0  0  0  0
 45 48  1  0  0  0  0
 45 69  1  0  0  0  0
 46 72  1  0  0  0  0
 47 68  1  0  0  0  0
 48 67  1  0  0  0  0
 49 56  1  0  0  0  0
 50 61  1  0  0  0  0
 51 63  1  0  0  0  0
 52 63  1  0  0  0  0
 53 63  1  0  0  0  0
 54 74  1  0  0  0  0
 55 75  1  0  0  0  0
 57 59  1  0  0  0  0
 58 74  1  0  0  0  0
 59 82  1  0  0  0  0
 60 63  1  0  0  0  0
 60 73  1  0  0  0  0
 61 75  1  0  0  0  0
 62 85  1  0  0  0  0
 62 86  1  0  0  0  0
 62 87  1  0  0  0  0
 64 67  1  0  0  0  0
M  CHG  1  75   1
M  ISO  4  36 100  59 101  74 100  82 101
M  END
> <Batch ID>
0058

> <Smiles>
CCc1nc(C[100N:0](C)[100C:0](=O)N2CCCC(n3nc(-c4ccc(Oc5ccc(F)cc5F)cc4)c(C(N)=O)c3N)C2)c(C(F)(F)F)nc1C[101CH2:1][101O:1]c1ccc2c(c1)CN(C(=O)C(NC(=O)C(C)NC)C(C)(C)C)C(C(=O)NC1CCCc3ccccc31)C2

> <Shape>
0.230

> <Color>
0.086

> <Negative vol penalty>
0.000

$$$$

  -OEChem-04052317503D

 81 89  0     1  0  0  0  0  0999 V2000
  -20.8108  -23.0516   22.0907 C   0  0  0  0  0  0  0  0  0  0  0  0
  -22.1484  -22.8048   21.7987 C   0  0  0  0  0  0  0  0  0  0  0  0
  -26.6755  -29.1542   18.6112 C   0  0  0  0  0  0  0  0  0  0  0  0
  -26.3231  -29.0832   21.0003 C   0  0  0  0  0  0  0  0  0  0  0  0
  -20.0555  -22.0893   22.7597 C   0  0  0  0  0  0  0  0  0  0  0  0
  -22.7319  -21.5960   22.1766 C   0  0  0  0  0  0  0  0  0  0  0  0
  -27.0396  -18.4787   19.1382 C   0  0  0  0  0  0  0  0  0  0  0  0
  -25.4865  -29.8669   18.4570 C   0  0  0  0  0  0  0  0  0  0  0  0
  -25.1341  -29.7960   20.8461 C   0  0  0  0  0  0  0  0  0  0  0  0
  -28.4234  -18.4013   19.2889 C   0  0  0  0  0  0  0  0  0  0  0  0
  -21.9503  -29.1566   19.9053 C   0  0  0  0  0  0  0  0  0  0  0  0
  -20.8315  -28.7107   20.6090 C   0  0  0  0  0  0  0  0  0  0  0  0
  -28.1617  -16.3983   20.6076 C   0  0  0  0  0  0  0  0  0  0  0  0
  -20.7027  -30.8361   21.7506 C   0  0  0  0  0  0  0  0  0  0  0  0
  -32.5347  -19.8025   21.2069 C   0  0  0  0  0  0  0  0  0  0  0  0
  -27.0938  -28.7623   19.8829 C   0  0  0  0  0  0  0  0  0  0  0  0
  -29.6099  -28.5545   20.2488 C   0  0  0  0  0  0  0  0  0  0  0  0
  -20.6274  -20.8642   23.1374 C   0  0  0  0  0  0  0  0  0  0  0  0
  -26.2043  -17.5210   19.7311 C   0  0  0  0  0  0  0  0  0  0  0  0
  -21.9839  -20.6170   22.8525 C   0  0  0  0  0  0  0  0  0  0  0  0
  -26.7677  -16.4644   20.4607 C   0  0  0  0  0  0  0  0  0  0  0  0
  -24.7158  -30.1878   19.5744 C   0  0  0  0  0  0  0  0  0  0  0  0
  -28.9845  -17.3626   20.0262 C   0  0  0  0  0  0  0  0  0  0  0  0
  -22.4453  -30.4421   20.1243 C   0  0  0  0  0  0  0  0  0  0  0  0
  -20.2077  -29.5505   21.5316 C   0  0  0  0  0  0  0  0  0  0  0  0
  -21.8215  -31.2819   21.0469 C   0  0  0  0  0  0  0  0  0  0  0  0
  -28.3217  -28.0255   20.0428 C   0  0  0  0  0  0  0  0  0  0  0  0
  -30.4240  -27.4518   20.3369 C   0  0  0  0  0  0  0  0  0  0  0  0
  -31.8268  -20.6956   22.9557 C   0  0  0  0  0  0  0  0  0  0  0  0
  -30.0329  -29.9207   20.3513 C   0  0  0  0  0  0  0  0  0  0  0  0
  -23.9045  -17.6000   21.9239 C   0  0  0  0  0  0  0  0  0  0  0  0
  -23.5685  -14.4751   21.1214 C   0  0  0  0  0  0  0  0  0  0  0  0
  -24.9743  -11.6508   19.8199 C   0  0  0  0  0  0  0  0  0  0  0  0
  -28.8950  -21.6960   21.7762 C   0  0  0  0  0  0  0  0  0  0  0  0
  -19.7839  -19.8739   23.9007 C   0  0  0  0  0  0  0  0  0  0  0  0
  -24.7151  -17.6036   19.5367 C   0  0  0  0  0  0  0  0  0  0  0  0
  -25.9159  -15.3995   21.1003 C   0  0  0  0  0  0  0  0  0  0  0  0
  -20.3765  -18.4675   23.9344 C   0  0  0  0  0  0  0  0  0  0  0  0
  -30.7932  -22.9267   18.8463 C   0  0  0  0  0  0  0  0  0  0  0  0
  -21.8609  -18.5218   24.2811 C   0  0  0  0  0  0  0  0  0  0  0  0
  -30.4194  -24.4074   18.8053 C   0  0  0  0  0  0  0  0  0  0  0  0
  -29.6883  -22.0799   19.4708 C   0  0  0  0  0  0  0  0  0  0  0  0
  -28.8942  -24.0205   20.7813 C   0  0  0  0  0  0  0  0  0  0  0  0
  -22.6459  -19.3079   23.2240 C   0  0  1  0  0  0  0  0  0  0  0  0
  -23.9298  -16.8631   20.6148 C   0  0  1  0  0  0  0  0  0  0  0  0
  -30.0055  -24.9076   20.2002 C   0  0  2  0  0  0  0  0  0  0  0  0
  -24.4649   -9.2431   19.3290 C   0  0  0  0  0  0  0  0  0  0  0  0
  -23.8572  -13.8121   24.0856 C   0  0  0  0  0  0  0  0  0  0  0  0
  -24.2932  -11.4329   23.4396 C   0  0  0  0  0  0  0  0  0  0  0  0
  -22.1033  -12.4921   22.8875 C   0  0  0  0  0  0  0  0  0  0  0  0
  -28.2615  -21.5741   24.1560 C   0  0  0  0  0  0  0  0  0  0  0  0
  -25.4249  -12.0264   16.9191 C   0  0  0  0  0  0  0  0  0  0  0  0
  -31.4223  -21.6254   24.0065 C   0  0  0  0  0  0  0  0  0  0  0  0
  -32.2001  -17.2518   21.7091 C   0  0  0  0  0  0  0  0  0  0  0  0
  -30.3845  -22.6840   23.5672 C   0  0  0  0  0  0  0  0  0  0  0  0
  -30.8224  -16.6890   21.3769 C   0  0  0  0  0  0  0  0  0  1  0  0
  -24.1703  -13.1770   21.6028 C   0  0  1  0  0  0  0  0  0  0  0  0
  -24.4733  -10.6623   18.7825 C   0  0  2  0  0  0  0  0  0  0  0  0
  -23.6222  -12.7495   22.9936 C   0  0  0  0  0  0  0  0  0  0  0  0
  -32.3417  -21.0208   21.7927 N   0  0  0  0  0  0  0  0  0  0  0  0
  -28.3130  -26.6904   20.0024 N   0  0  0  0  0  0  0  0  0  0  0  0
  -31.7222  -19.3427   23.0477 N   0  0  0  0  0  0  0  0  0  0  0  0
  -32.1715  -18.7440   21.9342 N   0  0  0  0  0  0  0  0  0  0  0  0
  -29.6058  -26.3713   20.1840 N   0  0  0  0  0  0  0  0  0  0  0  0
  -24.4649  -15.5274   20.8869 N   0  0  0  0  0  0  0  0  0  0  0  0
  -29.2841  -22.6026   20.7764 N   0  0  0  0  0  0  0  0  0  0  0  0
  -31.7526  -27.3106   20.5294 N   0  0  0  0  0  0  0  0  0  0  0  0
  -29.0666  -30.9295   20.2380 N   0  0  0  0  0  0  0  0  0  0  0  0
  -22.8593  -18.4957   22.0453 N   0  0  0  0  0  0  0  0  0  0  0  0
  -23.9376  -12.2015   20.5433 N   0  0  0  0  0  0  0  0  0  0  0  0
  -29.1430  -22.0660   23.1067 N   0  0  0  0  0  0  0  0  0  0  0  0
  -25.3434  -10.6950   17.5731 N   0  3  0  0  0  0  0  0  0  0  0  0
  -31.2345  -30.2378   20.5214 O   0  0  0  0  0  0  0  0  0  0  0  0
  -24.7685  -17.3719   22.7625 O   0  0  0  0  0  0  0  0  0  0  0  0
  -22.3489  -14.5504   20.9525 O   0  0  0  0  0  0  0  0  0  0  0  0
  -26.1665  -11.9059   19.9757 O   0  0  0  0  0  0  0  0  0  0  0  0
  -28.3652  -20.6133   21.4951 O   0  0  0  0  0  0  0  0  0  0  0  0
  -23.5556  -30.8836   19.4243 O   0  0  0  0  0  0  0  0  0  0  0  0
  -30.3349  -17.2851   20.1755 O   0  0  0  0  0  0  0  0  0  1  0  0
  -19.1324  -29.1228   22.2062 F   0  0  0  0  0  0  0  0  0  0  0  0
  -22.2917  -32.5184   21.2607 F   0  0  0  0  0  0  0  0  0  0  0  0
  1  2  1  0  0  0  0
  1  5  2  0  0  0  0
  2  6  2  0  0  0  0
  3  8  2  0  0  0  0
  3 16  1  0  0  0  0
  4  9  1  0  0  0  0
  4 16  2  0  0  0  0
  5 18  1  0  0  0  0
  6 20  1  0  0  0  0
  7 10  2  0  0  0  0
  7 19  1  0  0  0  0
  8 22  1  0  0  0  0
  9 22  2  0  0  0  0
 10 23  1  0  0  0  0
 11 12  2  0  0  0  0
 11 24  1  0  0  0  0
 12 25  1  0  0  0  0
 13 21  1  0  0  0  0
 13 23  2  0  0  0  0
 14 25  2  0  0  0  0
 14 26  1  0  0  0  0
 15 60  2  0  0  0  0
 15 63  1  0  0  0  0
 16 27  1  0  0  0  0
 17 27  1  0  0  0  0
 17 28  2  0  0  0  0
 17 30  1  0  0  0  0
 18 20  2  0  0  0  0
 18 35  1  0  0  0  0
 19 21  2  0  0  0  0
 19 36  1  0  0  0  0
 20 44  1  0  0  0  0
 21 37  1  0  0  0  0
 22 78  1  0  0  0  0
 23 79  1  0  0  0  0
 24 26  2  0  0  0  0
 24 78  1  0  0  0  0
 25 80  1  0  0  0  0
 26 81  1  0  0  0  0
 27 61  2  0  0  0  0
 28 64  1  0  0  0  0
 28 67  1  0  0  0  0
 29 53  1  0  0  0  0
 29 60  1  0  0  0  0
 29 62  2  0  0  0  0
 30 68  1  0  0  0  0
 30 73  2  0  0  0  0
 31 45  1  0  0  0  0
 31 69  1  0  0  0  0
 31 74  2  0  0  0  0
 32 57  1  0  0  0  0
 32 65  1  0  0  0  0
 32 75  2  0  0  0  0
 33 58  1  0  0  0  0
 33 70  1  0  0  0  0
 33 76  2  0  0  0  0
 34 66  1  0  0  0  0
 34 71  1  0  0  0  0
 34 77  2  0  0  0  0
 35 38  1  0  0  0  0
 36 45  1  0  0  0  0
 37 65  1  0  0  0  0
 38 40  1  0  0  0  0
 39 41  1  0  0  0  0
 39 42  1  0  0  0  0
 40 44  1  0  0  0  0
 41 46  1  0  0  0  0
 42 66  1  0  0  0  0
 43 46  1  0  0  0  0
 43 66  1  0  0  0  0
 44 69  1  0  0  0  0
 45 65  1  0  0  0  0
 46 64  1  0  0  0  0
 47 58  1  0  0  0  0
 48 59  1  0  0  0  0
 49 59  1  0  0  0  0
 50 59  1  0  0  0  0
 51 71  1  0  0  0  0
 52 72  1  0  0  0  0
 53 55  1  0  0  0  0
 54 56  1  0  0  0  0
 54 63  1  0  0  0  0
 55 71  1  0  0  0  0
 56 79  1  0  0  0  0
 57 59  1  0  0  0  0
 57 70  1  0  0  0  0
 58 72  1  0  0  0  0
 61 64  1  0  0  0  0
 62 63  1  0  0  0  0
M  CHG  1  72   1
M  ISO  4  34 100  56 101  71 100  79 101
M  END
> <Batch ID>
0058

> <Smiles>
CNC(C)C(=O)NC(C(=O)N1Cc2cc([101O:1][101CH2:1]Cn3cnc(CC[100N:0](C)[100C:0](=O)N4CCCC(n5nc(-c6ccc(Oc7ccc(F)cc7F)cc6)c(C(N)=O)c5N)C4)n3)ccc2CC1C(=O)NC1CCCc2ccccc21)C(C)(C)C

> <Shape>
0.211

> <Color>
0.070

> <Negative vol penalty>
0.000

$$$$

  -OEChem-04052317503D

 85 93  0     1  0  0  0  0  0999 V2000
  -30.8560  -25.4578    6.7135 C   0  0  0  0  0  0  0  0  0  0  0  0
  -30.8846  -24.9186    7.9956 C   0  0  0  0  0  0  0  0  0  0  0  0
  -23.0792   -9.9127   19.9994 C   0  0  0  0  0  0  0  0  0  0  0  0
  -24.0669   -9.8767   22.2040 C   0  0  0  0  0  0  0  0  0  0  0  0
  -29.8201  -26.3138    6.3415 C   0  0  0  0  0  0  0  0  0  0  0  0
  -29.8780  -25.2359    8.9069 C   0  0  0  0  0  0  0  0  0  0  0  0
  -27.5124  -21.5690   13.2038 C   0  0  0  0  0  0  0  0  0  0  0  0
  -22.4001   -8.7281   20.2843 C   0  0  0  0  0  0  0  0  0  0  0  0
  -23.3877   -8.6921   22.4889 C   0  0  0  0  0  0  0  0  0  0  0  0
  -27.7588  -21.4448   14.5704 C   0  0  0  0  0  0  0  0  0  0  0  0
  -21.6331   -5.8507   23.9262 C   0  0  0  0  0  0  0  0  0  0  0  0
  -21.0010   -5.7465   25.1652 C   0  0  0  0  0  0  0  0  0  0  0  0
  -25.8860  -22.8931   15.0335 C   0  0  0  0  0  0  0  0  0  0  0  0
  -19.6300   -7.6616   24.6268 C   0  0  0  0  0  0  0  0  0  0  0  0
  -25.5635  -19.1003   18.0572 C   0  0  0  0  0  0  0  0  0  0  0  0
  -23.9126  -10.4870   20.9593 C   0  0  0  0  0  0  0  0  0  0  0  0
  -24.1631  -13.0247   20.8894 C   0  0  0  0  0  0  0  0  0  0  0  0
  -28.7951  -26.6340    7.2456 C   0  0  0  0  0  0  0  0  0  0  0  0
  -26.4558  -22.3662   12.7406 C   0  0  0  0  0  0  0  0  0  0  0  0
  -28.8282  -26.0980    8.5471 C   0  0  0  0  0  0  0  0  0  0  0  0
  -25.6267  -23.0236   13.6606 C   0  0  0  0  0  0  0  0  0  0  0  0
  -22.5543   -8.1178   21.5290 C   0  0  0  0  0  0  0  0  0  0  0  0
  -26.9473  -22.1093   15.4854 C   0  0  0  0  0  0  0  0  0  0  0  0
  -21.2637   -6.8604   23.0375 C   0  0  0  0  0  0  0  0  0  0  0  0
  -19.9995   -6.6520   25.5155 C   0  0  0  0  0  0  0  0  0  0  0  0
  -20.2622   -7.7658   23.3878 C   0  0  0  0  0  0  0  0  0  0  0  0
  -24.6149  -11.7103   20.6654 C   0  0  0  0  0  0  0  0  0  0  0  0
  -25.8509  -17.7700   17.8291 C   0  0  0  0  0  0  0  0  0  0  0  0
  -26.5438  -19.8194   18.7100 C   0  0  0  0  0  0  0  0  0  0  0  0
  -25.1894  -13.8212   20.4436 C   0  0  0  0  0  0  0  0  0  0  0  0
  -27.8792  -17.9841   18.8326 C   0  0  0  0  0  0  0  0  0  0  0  0
  -22.9264  -13.4845   21.4505 C   0  0  0  0  0  0  0  0  0  0  0  0
  -26.2364  -24.9660   10.9249 C   0  0  0  0  0  0  0  0  0  0  0  0
  -23.0518  -24.4125   11.1971 C   0  0  0  0  0  0  0  0  0  0  0  0
  -20.4963  -23.0080   12.9702 C   0  0  0  0  0  0  0  0  0  0  0  0
  -30.8047  -14.7042   20.5198 C   0  0  0  0  0  0  0  0  0  0  0  0
  -27.7217  -27.6013    6.8131 C   0  0  0  0  0  0  0  0  0  0  0  0
  -26.1868  -22.4683   11.2642 C   0  0  0  0  0  0  0  0  0  0  0  0
  -24.4671  -23.8754   13.2154 C   0  0  0  0  0  0  0  0  0  0  0  0
  -26.4918  -27.5904    7.7173 C   0  0  0  0  0  0  0  0  0  0  0  0
  -29.3292  -12.7028   17.7778 C   0  0  0  0  0  0  0  0  0  0  0  0
  -26.9075  -27.6310    9.1844 C   0  0  0  0  0  0  0  0  0  0  0  0
  -27.9625  -12.3199   18.3430 C   0  0  0  0  0  0  0  0  0  0  0  0
  -30.3612  -12.9121   18.8818 C   0  0  0  0  0  0  0  0  0  0  0  0
  -28.5760  -13.5106   20.4846 C   0  0  0  0  0  0  0  0  0  0  0  0
  -27.7411  -26.3987    9.5560 C   0  0  1  0  0  0  0  0  0  0  0  0
  -25.3993  -23.7188   10.8855 C   0  0  1  0  0  0  0  0  0  0  0  0
  -27.5014  -13.3379   19.4006 C   0  0  2  0  0  0  0  0  0  0  0  0
  -24.8516  -16.9115   17.1288 C   0  0  0  0  0  0  0  0  0  0  0  0
  -17.9995  -22.7563   12.9639 C   0  0  0  0  0  0  0  0  0  0  0  0
  -27.5011  -21.9858   19.7441 C   0  0  0  0  0  0  0  0  0  0  0  0
  -25.0774  -21.4639   19.9205 C   0  0  0  0  0  0  0  0  0  0  0  0
  -22.7615  -27.2906   12.1678 C   0  0  0  0  0  0  0  0  0  0  0  0
  -20.4868  -26.6972   13.0290 C   0  0  0  0  0  0  0  0  0  0  0  0
  -20.9751  -26.5374   10.5879 C   0  0  0  0  0  0  0  0  0  0  0  0
  -31.2589  -16.8817   21.5836 C   0  0  0  0  0  0  0  0  0  0  0  0
  -20.6779  -20.0599   12.7846 C   0  0  0  0  0  0  0  0  0  0  0  0
  -29.1671  -17.3656   19.2603 C   0  0  0  0  0  0  0  0  0  0  0  0
  -29.0516  -16.5288   20.5401 C   0  0  0  0  0  0  0  0  0  0  0  0
  -26.0614  -22.0919   17.6924 C   0  0  0  0  0  0  0  0  0  1  0  0
  -21.9726  -24.8323   12.1658 C   0  0  1  0  0  0  0  0  0  0  0  0
  -19.3250  -22.1449   12.5372 C   0  0  2  0  0  0  0  0  0  0  0  0
  -26.3169  -21.3133   19.0087 C   0  0  0  0  0  0  0  0  0  0  0  0
  -21.5720  -26.3250   11.9963 C   0  0  0  0  0  0  0  0  0  0  0  0
  -25.8332  -11.6699   20.1194 N   0  0  0  0  0  0  0  0  0  0  0  0
  -27.0031  -17.1769   18.2046 N   0  0  0  0  0  0  0  0  0  0  0  0
  -27.7178  -19.2912   19.1136 N   0  0  0  0  0  0  0  0  0  0  0  0
  -26.1557  -12.9687   19.9966 N   0  0  0  0  0  0  0  0  0  0  0  0
  -24.2486  -23.9490   11.7613 N   0  0  0  0  0  0  0  0  0  0  0  0
  -29.8799  -13.8509   19.8958 N   0  0  0  0  0  0  0  0  0  0  0  0
  -25.3505  -15.1606   20.3941 N   0  0  0  0  0  0  0  0  0  0  0  0
  -21.9821  -12.5319   21.8572 N   0  0  0  0  0  0  0  0  0  0  0  0
  -26.8854  -25.2457    9.7375 N   0  0  0  0  0  0  0  0  0  0  0  0
  -20.8713  -23.8933   11.9818 N   0  0  0  0  0  0  0  0  0  0  0  0
  -30.3351  -15.9573   20.9418 N   0  0  0  0  0  0  0  0  0  0  0  0
  -19.4318  -20.7864   13.1404 N   0  3  0  0  0  0  0  0  0  0  0  0
  -22.6596  -14.7041   21.5720 O   0  0  0  0  0  0  0  0  0  0  0  0
  -26.2883  -25.6264   11.9559 O   0  0  0  0  0  0  0  0  0  0  0  0
  -22.8379  -24.4863    9.9845 O   0  0  0  0  0  0  0  0  0  0  0  0
  -21.0234  -22.9095   14.0761 O   0  0  0  0  0  0  0  0  0  0  0  0
  -31.9852  -14.3691   20.6814 O   0  0  0  0  0  0  0  0  0  0  0  0
  -21.8917   -6.9620   21.8074 O   0  0  0  0  0  0  0  0  0  0  0  0
  -27.1860  -21.9904   16.8198 O   0  0  0  0  0  0  0  0  0  1  0  0
  -19.3915   -6.5509   26.7048 F   0  0  0  0  0  0  0  0  0  0  0  0
  -19.9022   -8.7372   22.5377 F   0  0  0  0  0  0  0  0  0  0  0  0
  1  2  1  0  0  0  0
  1  5  2  0  0  0  0
  2  6  2  0  0  0  0
  3  8  2  0  0  0  0
  3 16  1  0  0  0  0
  4  9  1  0  0  0  0
  4 16  2  0  0  0  0
  5 18  1  0  0  0  0
  6 20  1  0  0  0  0
  7 10  2  0  0  0  0
  7 19  1  0  0  0  0
  8 22  1  0  0  0  0
  9 22  2  0  0  0  0
 10 23  1  0  0  0  0
 11 12  2  0  0  0  0
 11 24  1  0  0  0  0
 12 25  1  0  0  0  0
 13 21  1  0  0  0  0
 13 23  2  0  0  0  0
 14 25  2  0  0  0  0
 14 26  1  0  0  0  0
 15 28  2  0  0  0  0
 15 29  1  0  0  0  0
 16 27  1  0  0  0  0
 17 27  1  0  0  0  0
 17 30  2  0  0  0  0
 17 32  1  0  0  0  0
 18 20  2  0  0  0  0
 18 37  1  0  0  0  0
 19 21  2  0  0  0  0
 19 38  1  0  0  0  0
 20 46  1  0  0  0  0
 21 39  1  0  0  0  0
 22 82  1  0  0  0  0
 23 83  1  0  0  0  0
 24 26  2  0  0  0  0
 24 82  1  0  0  0  0
 25 84  1  0  0  0  0
 26 85  1  0  0  0  0
 27 65  2  0  0  0  0
 28 49  1  0  0  0  0
 28 66  1  0  0  0  0
 29 63  1  0  0  0  0
 29 67  2  0  0  0  0
 30 68  1  0  0  0  0
 30 71  1  0  0  0  0
 31 58  1  0  0  0  0
 31 66  2  0  0  0  0
 31 67  1  0  0  0  0
 32 72  1  0  0  0  0
 32 77  2  0  0  0  0
 33 47  1  0  0  0  0
 33 73  1  0  0  0  0
 33 78  2  0  0  0  0
 34 61  1  0  0  0  0
 34 69  1  0  0  0  0
 34 79  2  0  0  0  0
 35 62  1  0  0  0  0
 35 74  1  0  0  0  0
 35 80  2  0  0  0  0
 36 70  1  0  0  0  0
 36 75  1  0  0  0  0
 36 81  2  0  0  0  0
 37 40  1  0  0  0  0
 38 47  1  0  0  0  0
 39 69  1  0  0  0  0
 40 42  1  0  0  0  0
 41 43  1  0  0  0  0
 41 44  1  0  0  0  0
 42 46  1  0  0  0  0
 43 48  1  0  0  0  0
 44 70  1  0  0  0  0
 45 48  1  0  0  0  0
 45 70  1  0  0  0  0
 46 73  1  0  0  0  0
 47 69  1  0  0  0  0
 48 68  1  0  0  0  0
 50 62  1  0  0  0  0
 51 63  1  0  0  0  0
 52 63  1  0  0  0  0
 53 64  1  0  0  0  0
 54 64  1  0  0  0  0
 55 64  1  0  0  0  0
 56 75  1  0  0  0  0
 57 76  1  0  0  0  0
 58 59  1  0  0  0  0
 59 75  1  0  0  0  0
 60 63  1  0  0  0  0
 60 83  1  0  0  0  0
 61 64  1  0  0  0  0
 61 74  1  0  0  0  0
 62 76  1  0  0  0  0
 65 68  1  0  0  0  0
M  CHG  1  76   1
M  ISO  4  36 100  60 101  75 100  83 101
M  END
> <Batch ID>
0058

> <Smiles>
CNC(C)C(=O)NC(C(=O)N1Cc2cc([101O:1][101CH2:1]C(C)(C)c3cc(C)nc(CC[100N:0](C)[100C:0](=O)N4CCCC(n5nc(-c6ccc(Oc7ccc(F)cc7F)cc6)c(C(N)=O)c5N)C4)n3)ccc2CC1C(=O)NC1CCCc2ccccc21)C(C)(C)C

> <Shape>
0.184

> <Color>
0.171

> <Negative vol penalty>
0.000

$$$$

  -OEChem-04052317503D

 81 89  0     1  0  0  0  0  0999 V2000
  -24.6212   -8.5098   23.1698 C   0  0  0  0  0  0  0  0  0  0  0  0
  -25.6852   -9.1737   22.5676 C   0  0  0  0  0  0  0  0  0  0  0  0
  -20.9820  -25.5694   22.3344 C   0  0  0  0  0  0  0  0  0  0  0  0
  -20.9775  -25.9492   19.9484 C   0  0  0  0  0  0  0  0  0  0  0  0
  -23.3507   -9.0840   23.1658 C   0  0  0  0  0  0  0  0  0  0  0  0
  -25.4789  -10.4117   21.9599 C   0  0  0  0  0  0  0  0  0  0  0  0
  -28.7949  -16.6362   20.7045 C   0  0  0  0  0  0  0  0  0  0  0  0
  -19.7835  -26.2736   22.4487 C   0  0  0  0  0  0  0  0  0  0  0  0
  -19.7789  -26.6534   20.0628 C   0  0  0  0  0  0  0  0  0  0  0  0
  -29.1027  -17.5000   19.6543 C   0  0  0  0  0  0  0  0  0  0  0  0
  -18.7891  -29.5034   22.5125 C   0  0  0  0  0  0  0  0  0  0  0  0
  -18.6818  -30.4352   23.5449 C   0  0  0  0  0  0  0  0  0  0  0  0
  -26.8811  -18.4320   19.7779 C   0  0  0  0  0  0  0  0  0  0  0  0
  -16.8040  -29.2146   24.4512 C   0  0  0  0  0  0  0  0  0  0  0  0
  -29.2890  -21.3567   17.4657 C   0  0  0  0  0  0  0  0  0  0  0  0
  -29.6813  -21.9625   20.0520 C   0  0  0  0  0  0  0  0  0  0  0  0
  -21.5791  -25.4072   21.0842 C   0  0  0  0  0  0  0  0  0  0  0  0
  -22.9746  -23.2988   20.7451 C   0  0  0  0  0  0  0  0  0  0  0  0
  -23.1307  -10.3341   22.5662 C   0  0  0  0  0  0  0  0  0  0  0  0
  -27.5223  -16.6563   21.2931 C   0  0  0  0  0  0  0  0  0  0  0  0
  -24.2039  -11.0025   21.9467 C   0  0  0  0  0  0  0  0  0  0  0  0
  -26.5606  -17.5692   20.8371 C   0  0  0  0  0  0  0  0  0  0  0  0
  -19.1819  -26.8156   21.3130 C   0  0  0  0  0  0  0  0  0  0  0  0
  -28.1448  -18.3961   19.1889 C   0  0  0  0  0  0  0  0  0  0  0  0
  -17.9039  -28.4273   22.4493 C   0  0  0  0  0  0  0  0  0  0  0  0
  -17.6893  -30.2908   24.5143 C   0  0  0  0  0  0  0  0  0  0  0  0
  -16.9114  -28.2829   23.4187 C   0  0  0  0  0  0  0  0  0  0  0  0
  -22.8175  -24.6803   20.9654 C   0  0  0  0  0  0  0  0  0  0  0  0
  -29.8165  -22.5677   17.8651 C   0  0  0  0  0  0  0  0  0  0  0  0
  -28.9765  -20.4772   18.4822 C   0  0  0  0  0  0  0  0  0  1  0  0
  -24.3344  -23.1089   20.7114 C   0  0  0  0  0  0  0  0  0  0  0  0
  -21.9801  -22.2784   20.5850 C   0  0  0  0  0  0  0  0  0  0  0  0
  -25.1561  -14.5551   21.5929 C   0  0  0  0  0  0  0  0  0  0  0  0
  -23.8521  -16.8755   23.4470 C   0  0  0  0  0  0  0  0  0  0  0  0
  -23.6782  -20.1885   24.2473 C   0  0  0  0  0  0  0  0  0  0  0  0
  -28.7237  -27.2137   19.5182 C   0  0  0  0  0  0  0  0  0  0  0  0
  -21.7300  -10.8929   22.5455 C   0  0  0  0  0  0  0  0  0  0  0  0
  -27.2148  -15.7365   22.4428 C   0  0  0  0  0  0  0  0  0  0  0  0
  -25.1861  -17.6446   21.4484 C   0  0  0  0  0  0  0  0  0  0  0  0
  -21.6727  -12.3805   22.2081 C   0  0  0  0  0  0  0  0  0  0  0  0
  -28.4224  -24.9146   22.4035 C   0  0  0  0  0  0  0  0  0  0  0  0
  -22.5571  -12.6894   21.0043 C   0  0  0  0  0  0  0  0  0  0  0  0
  -26.9420  -24.5382   22.3763 C   0  0  0  0  0  0  0  0  0  0  0  0
  -28.6667  -26.2986   21.8097 C   0  0  0  0  0  0  0  0  0  0  0  0
  -26.6393  -26.0935   20.4090 C   0  0  0  0  0  0  0  0  0  0  0  0
  -24.0252  -12.3584   21.2989 C   0  0  1  0  0  0  0  0  0  0  0  0
  -25.7207  -15.4884   22.6263 C   0  0  1  0  0  0  0  0  0  0  0  0
  -26.3645  -24.6853   20.9578 C   0  0  2  0  0  0  0  0  0  0  0  0
  -22.4941  -21.7857   25.7783 C   0  0  0  0  0  0  0  0  0  0  0  0
  -21.3534  -16.6882   21.7059 C   0  0  0  0  0  0  0  0  0  0  0  0
  -20.6190  -18.8900   22.6446 C   0  0  0  0  0  0  0  0  0  0  0  0
  -20.9033  -16.9248   24.1545 C   0  0  0  0  0  0  0  0  0  0  0  0
  -28.6298  -27.8647   17.1419 C   0  0  0  0  0  0  0  0  0  0  0  0
  -26.2131  -21.0229   25.5268 C   0  0  0  0  0  0  0  0  0  0  0  0
  -30.1847  -23.5838   16.8365 C   0  0  0  0  0  0  0  0  0  0  0  0
  -30.0585  -25.0450   17.3102 C   0  0  0  0  0  0  0  0  0  0  0  0
  -28.6404  -25.4607   17.6953 C   0  0  0  0  0  0  0  0  0  0  0  0
  -22.9503  -18.0607   23.1999 C   0  0  1  0  0  0  0  0  0  0  0  0
  -23.7188  -20.9051   25.5849 C   0  0  2  0  0  0  0  0  0  0  0  0
  -21.4817  -17.6384   22.9132 C   0  0  0  0  0  0  0  0  0  0  0  0
  -30.0268  -22.9051   19.1544 N   0  0  0  0  0  0  0  0  0  0  0  0
  -29.1602  -20.7485   19.7910 N   0  0  0  0  0  0  0  0  0  0  0  0
  -23.9844  -25.3225   21.0649 N   0  0  0  0  0  0  0  0  0  0  0  0
  -24.8877  -24.3402   20.9064 N   0  0  0  0  0  0  0  0  0  0  0  0
  -24.9315  -16.7203   22.5658 N   0  0  0  0  0  0  0  0  0  0  0  0
  -28.0703  -26.4250   20.4794 N   0  0  0  0  0  0  0  0  0  0  0  0
  -25.0990  -22.0104   20.5344 N   0  0  0  0  0  0  0  0  0  0  0  0
  -20.6292  -22.6465   20.6469 N   0  0  0  0  0  0  0  0  0  0  0  0
  -24.6223  -13.3929   22.1161 N   0  0  0  0  0  0  0  0  0  0  0  0
  -23.1050  -18.9390   24.3544 N   0  0  0  0  0  0  0  0  0  0  0  0
  -28.5729  -26.8396   18.1743 N   0  0  0  0  0  0  0  0  0  0  0  0
  -24.9338  -21.7633   25.6762 N   0  3  0  0  0  0  0  0  0  0  0  0
  -22.2807  -21.0733   20.4091 O   0  0  0  0  0  0  0  0  0  0  0  0
  -25.2001  -14.8671   20.4087 O   0  0  0  0  0  0  0  0  0  0  0  0
  -23.6118  -16.1194   24.3916 O   0  0  0  0  0  0  0  0  0  0  0  0
  -24.1084  -20.6887   23.2103 O   0  0  0  0  0  0  0  0  0  0  0  0
  -29.4108  -28.1904   19.8434 O   0  0  0  0  0  0  0  0  0  0  0  0
  -18.0122  -27.5027   21.4242 O   0  0  0  0  0  0  0  0  0  0  0  0
  -28.4423  -19.2399   18.1636 O   0  0  0  0  0  0  0  0  0  1  0  0
  -17.5873  -31.1847   25.5066 F   0  0  0  0  0  0  0  0  0  0  0  0
  -16.0588  -27.2505   23.3640 F   0  0  0  0  0  0  0  0  0  0  0  0
  1  2  1  0  0  0  0
  1  5  2  0  0  0  0
  2  6  2  0  0  0  0
  3  8  2  0  0  0  0
  3 17  1  0  0  0  0
  4  9  1  0  0  0  0
  4 17  2  0  0  0  0
  5 19  1  0  0  0  0
  6 21  1  0  0  0  0
  7 10  2  0  0  0  0
  7 20  1  0  0  0  0
  8 23  1  0  0  0  0
  9 23  2  0  0  0  0
 10 24  1  0  0  0  0
 11 12  2  0  0  0  0
 11 25  1  0  0  0  0
 12 26  1  0  0  0  0
 13 22  1  0  0  0  0
 13 24  2  0  0  0  0
 14 26  2  0  0  0  0
 14 27  1  0  0  0  0
 15 29  2  0  0  0  0
 15 30  1  0  0  0  0
 16 61  2  0  0  0  0
 16 62  1  0  0  0  0
 17 28  1  0  0  0  0
 18 28  1  0  0  0  0
 18 31  2  0  0  0  0
 18 32  1  0  0  0  0
 19 21  2  0  0  0  0
 19 37  1  0  0  0  0
 20 22  2  0  0  0  0
 20 38  1  0  0  0  0
 21 46  1  0  0  0  0
 22 39  1  0  0  0  0
 23 78  1  0  0  0  0
 24 79  1  0  0  0  0
 25 27  2  0  0  0  0
 25 78  1  0  0  0  0
 26 80  1  0  0  0  0
 27 81  1  0  0  0  0
 28 63  2  0  0  0  0
 29 55  1  0  0  0  0
 29 61  1  0  0  0  0
 30 62  2  0  0  0  0
 30 79  1  0  0  0  0
 31 64  1  0  0  0  0
 31 67  1  0  0  0  0
 32 68  1  0  0  0  0
 32 73  2  0  0  0  0
 33 47  1  0  0  0  0
 33 69  1  0  0  0  0
 33 74  2  0  0  0  0
 34 58  1  0  0  0  0
 34 65  1  0  0  0  0
 34 75  2  0  0  0  0
 35 59  1  0  0  0  0
 35 70  1  0  0  0  0
 35 76  2  0  0  0  0
 36 66  1  0  0  0  0
 36 71  1  0  0  0  0
 36 77  2  0  0  0  0
 37 40  1  0  0  0  0
 38 47  1  0  0  0  0
 39 65  1  0  0  0  0
 40 42  1  0  0  0  0
 41 43  1  0  0  0  0
 41 44  1  0  0  0  0
 42 46  1  0  0  0  0
 43 48  1  0  0  0  0
 44 66  1  0  0  0  0
 45 48  1  0  0  0  0
 45 66  1  0  0  0  0
 46 69  1  0  0  0  0
 47 65  1  0  0  0  0
 48 64  1  0  0  0  0
 49 59  1  0  0  0  0
 50 60  1  0  0  0  0
 51 60  1  0  0  0  0
 52 60  1  0  0  0  0
 53 71  1  0  0  0  0
 54 72  1  0  0  0  0
 55 56  1  0  0  0  0
 56 57  1  0  0  0  0
 57 71  1  0  0  0  0
 58 60  1  0  0  0  0
 58 70  1  0  0  0  0
 59 72  1  0  0  0  0
 63 64  1  0  0  0  0
M  CHG  1  72   1
M  ISO  4  30 101  36 100  71 100  79 101
M  END
> <Batch ID>
0058

> <Smiles>
CNC(C)C(=O)NC(C(=O)N1Cc2cc([101O:1][101c:1]3cc(CCC[100N:0](C)[100C:0](=O)N4CCCC(n5nc(-c6ccc(Oc7ccc(F)cc7F)cc6)c(C(N)=O)c5N)C4)ncn3)ccc2CC1C(=O)NC1CCCc2ccccc21)C(C)(C)C

> <Shape>
0.203

> <Color>
0.060

> <Negative vol penalty>
0.000

$$$$

  -OEChem-04052317503D

 84 92  0     1  0  0  0  0  0999 V2000
  -25.0697  -35.6990   21.8662 C   0  0  0  0  0  0  0  0  0  0  0  0
  -25.7926  -34.5106   21.8863 C   0  0  0  0  0  0  0  0  0  0  0  0
  -26.4115  -13.0208   20.5937 C   0  0  0  0  0  0  0  0  0  0  0  0
  -27.0323  -12.4870   18.3206 C   0  0  0  0  0  0  0  0  0  0  0  0
  -23.7461  -35.7160   22.3039 C   0  0  0  0  0  0  0  0  0  0  0  0
  -25.1925  -33.3385   22.3452 C   0  0  0  0  0  0  0  0  0  0  0  0
  -26.1523  -29.3654   19.3554 C   0  0  0  0  0  0  0  0  0  0  0  0
  -26.0370  -11.6936   20.8031 C   0  0  0  0  0  0  0  0  0  0  0  0
  -26.6577  -11.1597   18.5301 C   0  0  0  0  0  0  0  0  0  0  0  0
  -27.4041  -28.7640   19.4781 C   0  0  0  0  0  0  0  0  0  0  0  0
  -23.4023   -9.7050   20.0761 C   0  0  0  0  0  0  0  0  0  0  0  0
  -22.1925   -9.4692   20.7289 C   0  0  0  0  0  0  0  0  0  0  0  0
  -26.4308  -27.0308   20.8448 C   0  0  0  0  0  0  0  0  0  0  0  0
  -23.3671   -8.2876   22.4786 C   0  0  0  0  0  0  0  0  0  0  0  0
  -29.7123  -24.2161   17.7226 C   0  0  0  0  0  0  0  0  0  0  0  0
  -26.9091  -13.4175   19.3524 C   0  0  0  0  0  0  0  0  0  0  0  0
  -28.5655  -15.3576   19.3482 C   0  0  0  0  0  0  0  0  0  0  0  0
  -23.1264  -34.5415   22.7593 C   0  0  0  0  0  0  0  0  0  0  0  0
  -25.0305  -28.8091   19.9866 C   0  0  0  0  0  0  0  0  0  0  0  0
  -23.8598  -33.3400   22.7906 C   0  0  0  0  0  0  0  0  0  0  0  0
  -25.1654  -27.6257   20.7265 C   0  0  0  0  0  0  0  0  0  0  0  0
  -26.1601  -10.7631   19.7714 C   0  0  0  0  0  0  0  0  0  0  0  0
  -27.5440  -27.5981   20.2252 C   0  0  0  0  0  0  0  0  0  0  0  0
  -24.5946   -9.2322   20.6244 C   0  0  0  0  0  0  0  0  0  0  0  0
  -22.1749   -8.7605   21.9302 C   0  0  0  0  0  0  0  0  0  0  0  0
  -24.5769   -8.5235   21.8257 C   0  0  0  0  0  0  0  0  0  0  0  0
  -27.2957  -14.7885   19.1353 C   0  0  0  0  0  0  0  0  0  0  0  0
  -29.9273  -24.6759   19.0058 C   0  0  0  0  0  0  0  0  0  0  0  0
  -29.0542  -23.0072   17.6241 C   0  0  0  0  0  0  0  0  0  0  0  0
  -28.4140  -16.6765   18.9962 C   0  0  0  0  0  0  0  0  0  0  0  0
  -28.9026  -22.8480   19.8865 C   0  0  0  0  0  0  0  0  0  0  0  0
  -29.7740  -14.7485   19.8217 C   0  0  0  0  0  0  0  0  0  0  0  0
  -22.9997  -29.7911   22.2262 C   0  0  0  0  0  0  0  0  0  0  0  0
  -21.4677  -27.0261   21.4983 C   0  0  0  0  0  0  0  0  0  0  0  0
  -26.4680  -20.5223   15.4306 C   0  0  0  0  0  0  0  0  0  0  0  0
  -21.6446  -23.8636   20.2278 C   0  0  0  0  0  0  0  0  0  0  0  0
  -21.7083  -34.6188   23.2668 C   0  0  0  0  0  0  0  0  0  0  0  0
  -23.6822  -29.4553   19.8225 C   0  0  0  0  0  0  0  0  0  0  0  0
  -23.9885  -26.9773   21.4069 C   0  0  0  0  0  0  0  0  0  0  0  0
  -21.0290  -33.2570   23.3862 C   0  0  0  0  0  0  0  0  0  0  0  0
  -24.2596  -19.3732   18.0079 C   0  0  0  0  0  0  0  0  0  0  0  0
  -21.9544  -32.2571   24.0723 C   0  0  0  0  0  0  0  0  0  0  0  0
  -24.9417  -18.1083   18.5275 C   0  0  0  0  0  0  0  0  0  0  0  0
  -24.4683  -19.5435   16.5064 C   0  0  0  0  0  0  0  0  0  0  0  0
  -26.5868  -18.2693   16.6059 C   0  0  0  0  0  0  0  0  0  0  0  0
  -23.2360  -32.0429   23.2580 C   0  0  1  0  0  0  0  0  0  0  0  0
  -22.7034  -29.0859   20.9329 C   0  0  1  0  0  0  0  0  0  0  0  0
  -26.4265  -18.0755   18.1242 C   0  0  2  0  0  0  0  0  0  0  0  0
  -28.4495  -22.0894   21.0878 C   0  0  0  0  0  0  0  0  0  0  0  0
  -28.2982  -21.1555   13.8566 C   0  0  0  0  0  0  0  0  0  0  0  0
  -20.2366  -21.8310   19.7998 C   0  0  0  0  0  0  0  0  0  0  0  0
  -21.5629  -26.3374   24.4692 C   0  0  0  0  0  0  0  0  0  0  0  0
  -21.0340  -23.9660   23.8652 C   0  0  0  0  0  0  0  0  0  0  0  0
  -19.4038  -25.7789   23.3376 C   0  0  0  0  0  0  0  0  0  0  0  0
  -22.1232  -24.0037   17.3106 C   0  0  0  0  0  0  0  0  0  0  0  0
  -30.1184  -20.3337   16.3168 C   0  0  0  0  0  0  0  0  0  0  0  0
  -30.6392  -25.9903   19.2153 C   0  0  0  0  0  0  0  0  0  0  0  0
  -28.7748  -22.4301   16.2767 C   0  0  0  0  0  0  0  0  0  0  0  0
  -29.6753  -27.1710   19.2602 C   0  0  0  0  0  0  0  0  0  1  0  0
  -21.5384  -25.6021   21.9944 C   0  0  1  0  0  0  0  0  0  0  0  0
  -27.9372  -20.3920   15.1167 C   0  0  1  0  0  0  0  0  0  0  0  0
  -20.7736  -23.1316   19.2229 C   0  0  2  0  0  0  0  0  0  0  0  0
  -20.9075  -25.4341   23.4055 C   0  0  0  0  0  0  0  0  0  0  0  0
  -26.4032  -15.6734   18.6832 N   0  0  0  0  0  0  0  0  0  0  0  0
  -29.5344  -24.0152   20.1145 N   0  0  0  0  0  0  0  0  0  0  0  0
  -28.6338  -22.2935   18.6891 N   0  0  0  0  0  0  0  0  0  0  0  0
  -27.1132  -16.8120   18.6092 N   0  0  0  0  0  0  0  0  0  0  0  0
  -22.6923  -27.6505   21.2221 N   0  0  0  0  0  0  0  0  0  0  0  0
  -25.8898  -19.4841   16.1613 N   0  0  0  0  0  0  0  0  0  0  0  0
  -29.2680  -17.7220   18.9831 N   0  0  0  0  0  0  0  0  0  0  0  0
  -29.7547  -13.3832   20.1379 N   0  0  0  0  0  0  0  0  0  0  0  0
  -22.9797  -31.1696   22.1327 N   0  0  0  0  0  0  0  0  0  0  0  0
  -20.9194  -24.7787   20.9613 N   0  0  0  0  0  0  0  0  0  0  0  0
  -21.5554  -22.8134   17.9946 N   0  3  0  0  0  0  0  0  0  0  0  0
  -28.7403  -20.9418   16.2677 N   0  3  1  0  0  0  0  0  0  0  0  0
  -30.8352  -15.3994   19.9760 O   0  0  0  0  0  0  0  0  0  0  0  0
  -23.2280  -29.1333   23.2345 O   0  0  0  0  0  0  0  0  0  0  0  0
  -20.3661  -27.5622   21.3540 O   0  0  0  0  0  0  0  0  0  0  0  0
  -25.8550  -21.5191   15.0398 O   0  0  0  0  0  0  0  0  0  0  0  0
  -22.8473  -23.6429   20.3525 O   0  0  0  0  0  0  0  0  0  0  0  0
  -25.7950   -9.4678   19.9754 O   0  0  0  0  0  0  0  0  0  0  0  0
  -28.7649  -27.0094   20.3471 O   0  0  0  0  0  0  0  0  0  1  0  0
  -21.0132   -8.5354   22.5578 F   0  0  0  0  0  0  0  0  0  0  0  0
  -25.7192   -8.0677   22.3580 F   0  0  0  0  0  0  0  0  0  0  0  0
  1  2  1  0  0  0  0
  1  5  2  0  0  0  0
  2  6  2  0  0  0  0
  3  8  2  0  0  0  0
  3 16  1  0  0  0  0
  4  9  1  0  0  0  0
  4 16  2  0  0  0  0
  5 18  1  0  0  0  0
  6 20  1  0  0  0  0
  7 10  2  0  0  0  0
  7 19  1  0  0  0  0
  8 22  1  0  0  0  0
  9 22  2  0  0  0  0
 10 23  1  0  0  0  0
 11 12  2  0  0  0  0
 11 24  1  0  0  0  0
 12 25  1  0  0  0  0
 13 21  1  0  0  0  0
 13 23  2  0  0  0  0
 14 25  2  0  0  0  0
 14 26  1  0  0  0  0
 15 28  1  0  0  0  0
 15 29  2  0  0  0  0
 16 27  1  0  0  0  0
 17 27  1  0  0  0  0
 17 30  2  0  0  0  0
 17 32  1  0  0  0  0
 18 20  2  0  0  0  0
 18 37  1  0  0  0  0
 19 21  2  0  0  0  0
 19 38  1  0  0  0  0
 20 46  1  0  0  0  0
 21 39  1  0  0  0  0
 22 81  1  0  0  0  0
 23 82  1  0  0  0  0
 24 26  2  0  0  0  0
 24 81  1  0  0  0  0
 25 83  1  0  0  0  0
 26 84  1  0  0  0  0
 27 64  2  0  0  0  0
 28 57  1  0  0  0  0
 28 65  2  0  0  0  0
 29 58  1  0  0  0  0
 29 66  1  0  0  0  0
 30 67  1  0  0  0  0
 30 70  1  0  0  0  0
 31 49  1  0  0  0  0
 31 65  1  0  0  0  0
 31 66  2  0  0  0  0
 32 71  1  0  0  0  0
 32 76  2  0  0  0  0
 33 47  1  0  0  0  0
 33 72  1  0  0  0  0
 33 77  2  0  0  0  0
 34 60  1  0  0  0  0
 34 68  1  0  0  0  0
 34 78  2  0  0  0  0
 35 61  1  0  0  0  0
 35 69  1  0  0  0  0
 35 79  2  0  0  0  0
 36 62  1  0  0  0  0
 36 73  1  0  0  0  0
 36 80  2  0  0  0  0
 37 40  1  0  0  0  0
 38 47  1  0  0  0  0
 39 68  1  0  0  0  0
 40 42  1  0  0  0  0
 41 43  1  0  0  0  0
 41 44  1  0  0  0  0
 42 46  1  0  0  0  0
 43 48  1  0  0  0  0
 44 69  1  0  0  0  0
 45 48  1  0  0  0  0
 45 69  1  0  0  0  0
 46 72  1  0  0  0  0
 47 68  1  0  0  0  0
 48 67  1  0  0  0  0
 50 61  1  0  0  0  0
 51 62  1  0  0  0  0
 52 63  1  0  0  0  0
 53 63  1  0  0  0  0
 54 63  1  0  0  0  0
 55 74  1  0  0  0  0
 56 75  1  0  0  0  0
 57 59  1  0  0  0  0
 58 75  1  0  0  0  0
 59 82  1  0  0  0  0
 60 63  1  0  0  0  0
 60 73  1  0  0  0  0
 61 75  1  0  0  0  0
 62 74  1  0  0  0  0
 64 67  1  0  0  0  0
M  CHG  2  74   1  75   1
M  ISO  4  35 100  59 101  61 100  82 101
M  END
> <Batch ID>
0058

> <Smiles>
CNC(C)C(=O)NC(C(=O)N1Cc2cc([101O:1][101CH2:1]Cc3cc(CN(C)[100CH:0](C)[100C:0](=O)N4CCCC(n5nc(-c6ccc(Oc7ccc(F)cc7F)cc6)c(C(N)=O)c5N)C4)nc(C)n3)ccc2CC1C(=O)NC1CCCc2ccccc21)C(C)(C)C

> <Shape>
0.253

> <Color>
0.086

> <Negative vol penalty>
0.000

$$$$

  -OEChem-04052317503D

 81 89  0     1  0  0  0  0  0999 V2000
  -25.8882  -31.9334   14.3247 C   0  0  0  0  0  0  0  0  0  0  0  0
  -25.2291  -31.4113   15.4330 C   0  0  0  0  0  0  0  0  0  0  0  0
  -26.6338  -16.9420   20.0748 C   0  0  0  0  0  0  0  0  0  0  0  0
  -24.7600  -15.9864   21.2634 C   0  0  0  0  0  0  0  0  0  0  0  0
  -26.8737  -31.1836   13.6840 C   0  0  0  0  0  0  0  0  0  0  0  0
  -25.5544  -30.1385   15.9006 C   0  0  0  0  0  0  0  0  0  0  0  0
  -26.0268  -29.9824   20.9402 C   0  0  0  0  0  0  0  0  0  0  0  0
  -27.4158  -15.8405   20.4220 C   0  0  0  0  0  0  0  0  0  0  0  0
  -25.5420  -14.8848   21.6106 C   0  0  0  0  0  0  0  0  0  0  0  0
  -24.8514  -29.9492   21.6891 C   0  0  0  0  0  0  0  0  0  0  0  0
  -27.8145  -12.6447   19.3919 C   0  0  0  0  0  0  0  0  0  0  0  0
  -28.6003  -12.0674   18.3945 C   0  0  0  0  0  0  0  0  0  0  0  0
  -25.0998  -27.5653   21.9622 C   0  0  0  0  0  0  0  0  0  0  0  0
  -30.5858  -12.5296   19.6913 C   0  0  0  0  0  0  0  0  0  0  0  0
  -19.3450  -28.9896   22.2800 C   0  0  0  0  0  0  0  0  0  0  0  0
  -25.3059  -17.0150   20.4956 C   0  0  0  0  0  0  0  0  0  0  0  0
  -23.6953  -18.2986   18.9902 C   0  0  0  0  0  0  0  0  0  0  0  0
  -27.2180  -29.9049   14.1498 C   0  0  0  0  0  0  0  0  0  0  0  0
  -26.7430  -28.8036   20.6870 C   0  0  0  0  0  0  0  0  0  0  0  0
  -26.5445  -29.3704   15.2647 C   0  0  0  0  0  0  0  0  0  0  0  0
  -26.2854  -27.5866   21.2119 C   0  0  0  0  0  0  0  0  0  0  0  0
  -26.8700  -14.8118   21.1899 C   0  0  0  0  0  0  0  0  0  0  0  0
  -24.3861  -28.7402   22.1979 C   0  0  0  0  0  0  0  0  0  0  0  0
  -28.4143  -13.1645   20.5390 C   0  0  0  0  0  0  0  0  0  0  0  0
  -29.9859  -12.0098   18.5442 C   0  0  0  0  0  0  0  0  0  0  0  0
  -29.7999  -13.1070   20.6887 C   0  0  0  0  0  0  0  0  0  0  0  0
  -24.4977  -18.1530   20.1377 C   0  0  0  0  0  0  0  0  0  0  0  0
  -20.3381  -28.7590   23.1896 C   0  0  0  0  0  0  0  0  0  0  0  0
  -23.1379  -19.5475   19.1173 C   0  0  0  0  0  0  0  0  0  0  0  0
  -19.4562  -26.8068   22.6312 C   0  0  0  0  0  0  0  0  0  0  0  0
  -23.4735  -17.3865   17.9064 C   0  0  0  0  0  0  0  0  0  0  0  0
  -27.5534  -27.1893   18.0715 C   0  0  0  0  0  0  0  0  0  0  0  0
  -29.2389  -25.3876   20.1775 C   0  0  0  0  0  0  0  0  0  0  0  0
  -29.6404  -24.2984   23.3868 C   0  0  0  0  0  0  0  0  0  0  0  0
  -20.5707  -23.3266   22.1297 C   0  0  0  0  0  0  0  0  0  0  0  0
  -28.2567  -29.1130   13.3958 C   0  0  0  0  0  0  0  0  0  0  0  0
  -28.0234  -28.8602   19.8998 C   0  0  0  0  0  0  0  0  0  0  0  0
  -27.0282  -26.2960   20.9857 C   0  0  0  0  0  0  0  0  0  0  0  0
  -28.8048  -27.9241   14.1810 C   0  0  0  0  0  0  0  0  0  0  0  0
  -24.1840  -23.3107   22.3321 C   0  0  0  0  0  0  0  0  0  0  0  0
  -27.6660  -27.1363   14.8208 C   0  0  0  0  0  0  0  0  0  0  0  0
  -24.5193  -21.9687   21.6788 C   0  0  0  0  0  0  0  0  0  0  0  0
  -22.9142  -23.2143   23.1727 C   0  0  0  0  0  0  0  0  0  0  0  0
  -22.0546  -21.3728   21.7786 C   0  0  0  0  0  0  0  0  0  0  0  0
  -26.8867  -28.0035   15.8168 C   0  0  1  0  0  0  0  0  0  0  0  0
  -28.3970  -27.5221   19.2695 C   0  0  1  0  0  0  0  0  0  0  0  0
  -23.3159  -21.4100   20.8967 C   0  0  2  0  0  0  0  0  0  0  0  0
  -18.1481  -24.8759   23.5914 C   0  0  0  0  0  0  0  0  0  0  0  0
  -31.0830  -22.8026   24.7934 C   0  0  0  0  0  0  0  0  0  0  0  0
  -27.8152  -22.9432   19.0338 C   0  0  0  0  0  0  0  0  0  0  0  0
  -28.5505  -21.6573   21.0522 C   0  0  0  0  0  0  0  0  0  0  0  0
  -30.2506  -22.6110   19.4957 C   0  0  0  0  0  0  0  0  0  0  0  0
  -17.7343  -27.5481   21.0122 C   0  0  0  0  0  0  0  0  0  0  0  0
  -30.5253  -26.5549   25.0851 C   0  0  0  0  0  0  0  0  0  0  0  0
  -21.2704  -29.7031   23.9092 C   0  0  0  0  0  0  0  0  0  0  0  0
  -22.5621  -29.9441   23.1357 C   0  0  0  0  0  0  0  0  0  1  0  0
  -19.1985  -25.3464   22.5706 C   0  0  2  0  0  0  0  0  0  0  0  0
  -28.9473  -24.1616   21.0087 C   0  0  1  0  0  0  0  0  0  0  0  0
  -30.8675  -24.2165   24.2766 C   0  0  2  0  0  0  0  0  0  0  0  0
  -28.8756  -22.8671   20.1504 C   0  0  0  0  0  0  0  0  0  0  0  0
  -24.4566  -19.2238   20.9349 N   0  0  0  0  0  0  0  0  0  0  0  0
  -18.8170  -27.7644   21.9515 N   0  0  0  0  0  0  0  0  0  0  0  0
  -23.6217  -20.0543   20.2874 N   0  0  0  0  0  0  0  0  0  0  0  0
  -20.3846  -27.4002   23.3884 N   0  3  0  0  0  0  0  0  0  0  0  0
  -28.2715  -26.4022   20.2045 N   0  0  0  0  0  0  0  0  0  0  0  0
  -21.8026  -22.6936   22.3645 N   0  0  0  0  0  0  0  0  0  0  0  0
  -22.2860  -20.2505   18.3411 N   0  0  0  0  0  0  0  0  0  0  0  0
  -24.1245  -16.1457   17.9336 N   0  0  0  0  0  0  0  0  0  0  0  0
  -27.6183  -28.1278   17.0593 N   0  0  0  0  0  0  0  0  0  0  0  0
  -29.9617  -24.1283   22.0567 N   0  0  0  0  0  0  0  0  0  0  0  0
  -20.4092  -24.5712   22.7260 N   0  0  0  0  0  0  0  0  0  0  0  0
  -30.7204  -25.1274   25.4470 N   0  3  0  0  0  0  0  0  0  0  0  0
  -22.7332  -17.6703   16.9343 O   0  0  0  0  0  0  0  0  0  0  0  0
  -26.8936  -26.1566   18.0652 O   0  0  0  0  0  0  0  0  0  0  0  0
  -30.2896  -25.4461   19.5340 O   0  0  0  0  0  0  0  0  0  0  0  0
  -28.5093  -24.4902   23.8279 O   0  0  0  0  0  0  0  0  0  0  0  0
  -19.6817  -22.8220   21.4353 O   0  0  0  0  0  0  0  0  0  0  0  0
  -27.6327  -13.7367   21.5287 O   0  0  0  0  0  0  0  0  0  0  0  0
  -23.2387  -28.7049   22.9287 O   0  0  0  0  0  0  0  0  0  1  0  0
  -30.7403  -11.4540   17.5870 F   0  0  0  0  0  0  0  0  0  0  0  0
  -30.3818  -13.6036   21.7890 F   0  0  0  0  0  0  0  0  0  0  0  0
  1  2  1  0  0  0  0
  1  5  2  0  0  0  0
  2  6  2  0  0  0  0
  3  8  2  0  0  0  0
  3 16  1  0  0  0  0
  4  9  1  0  0  0  0
  4 16  2  0  0  0  0
  5 18  1  0  0  0  0
  6 20  1  0  0  0  0
  7 10  2  0  0  0  0
  7 19  1  0  0  0  0
  8 22  1  0  0  0  0
  9 22  2  0  0  0  0
 10 23  1  0  0  0  0
 11 12  2  0  0  0  0
 11 24  1  0  0  0  0
 12 25  1  0  0  0  0
 13 21  1  0  0  0  0
 13 23  2  0  0  0  0
 14 25  2  0  0  0  0
 14 26  1  0  0  0  0
 15 28  2  0  0  0  0
 15 62  1  0  0  0  0
 16 27  1  0  0  0  0
 17 27  1  0  0  0  0
 17 29  2  0  0  0  0
 17 31  1  0  0  0  0
 18 20  2  0  0  0  0
 18 36  1  0  0  0  0
 19 21  2  0  0  0  0
 19 37  1  0  0  0  0
 20 45  1  0  0  0  0
 21 38  1  0  0  0  0
 22 78  1  0  0  0  0
 23 79  1  0  0  0  0
 24 26  2  0  0  0  0
 24 78  1  0  0  0  0
 25 80  1  0  0  0  0
 26 81  1  0  0  0  0
 27 61  2  0  0  0  0
 28 55  1  0  0  0  0
 28 64  1  0  0  0  0
 29 63  1  0  0  0  0
 29 67  1  0  0  0  0
 30 57  1  0  0  0  0
 30 62  1  0  0  0  0
 30 64  2  0  0  0  0
 31 68  1  0  0  0  0
 31 73  2  0  0  0  0
 32 46  1  0  0  0  0
 32 69  1  0  0  0  0
 32 74  2  0  0  0  0
 33 58  1  0  0  0  0
 33 65  1  0  0  0  0
 33 75  2  0  0  0  0
 34 59  1  0  0  0  0
 34 70  1  0  0  0  0
 34 76  2  0  0  0  0
 35 66  1  0  0  0  0
 35 71  1  0  0  0  0
 35 77  2  0  0  0  0
 36 39  1  0  0  0  0
 37 46  1  0  0  0  0
 38 65  1  0  0  0  0
 39 41  1  0  0  0  0
 40 42  1  0  0  0  0
 40 43  1  0  0  0  0
 41 45  1  0  0  0  0
 42 47  1  0  0  0  0
 43 66  1  0  0  0  0
 44 47  1  0  0  0  0
 44 66  1  0  0  0  0
 45 69  1  0  0  0  0
 46 65  1  0  0  0  0
 47 63  1  0  0  0  0
 48 57  1  0  0  0  0
 49 59  1  0  0  0  0
 50 60  1  0  0  0  0
 51 60  1  0  0  0  0
 52 60  1  0  0  0  0
 53 62  1  0  0  0  0
 54 72  1  0  0  0  0
 55 56  1  0  0  0  0
 56 79  1  0  0  0  0
 57 71  1  0  0  0  0
 58 60  1  0  0  0  0
 58 70  1  0  0  0  0
 59 72  1  0  0  0  0
 61 63  1  0  0  0  0
M  CHG  2  64   1  72   1
M  ISO  4  35 100  56 101  71 100  79 101
M  END
> <Batch ID>
0058

> <Smiles>
CNC(C)C(=O)NC(C(=O)N1Cc2cc([101O:1][101CH2:1]Cc3cn(C)c(C(C)[100NH:0][100C:0](=O)N4CCCC(n5nc(-c6ccc(Oc7ccc(F)cc7F)cc6)c(C(N)=O)c5N)C4)n3)ccc2CC1C(=O)NC1CCCc2ccccc21)C(C)(C)C

> <Shape>
0.199

> <Color>
0.069

> <Negative vol penalty>
0.000

$$$$

  -OEChem-04052317503D

 86 94  0     1  0  0  0  0  0999 V2000
  -39.7817  -28.5336   12.3174 C   0  0  0  0  0  0  0  0  0  0  0  0
  -38.4782  -28.5994   12.7990 C   0  0  0  0  0  0  0  0  0  0  0  0
  -23.0661   -9.8367   19.9987 C   0  0  0  0  0  0  0  0  0  0  0  0
  -23.8013   -9.9272   22.2984 C   0  0  0  0  0  0  0  0  0  0  0  0
  -40.2787  -27.3311   11.8165 C   0  0  0  0  0  0  0  0  0  0  0  0
  -37.6705  -27.4629   12.7789 C   0  0  0  0  0  0  0  0  0  0  0  0
  -33.4229  -25.8916   16.9015 C   0  0  0  0  0  0  0  0  0  0  0  0
  -22.3095   -8.7005   20.2853 C   0  0  0  0  0  0  0  0  0  0  0  0
  -23.0447   -8.7910   22.5850 C   0  0  0  0  0  0  0  0  0  0  0  0
  -32.0362  -26.0340   16.9203 C   0  0  0  0  0  0  0  0  0  0  0  0
  -19.8033   -8.0444   23.1824 C   0  0  0  0  0  0  0  0  0  0  0  0
  -19.0335   -8.0567   24.3454 C   0  0  0  0  0  0  0  0  0  0  0  0
  -31.7998  -23.7823   16.0877 C   0  0  0  0  0  0  0  0  0  0  0  0
  -20.2499   -6.1393   25.1708 C   0  0  0  0  0  0  0  0  0  0  0  0
  -27.0684  -22.0186   18.3031 C   0  0  0  0  0  0  0  0  0  0  0  0
  -23.8121  -10.4500   21.0053 C   0  0  0  0  0  0  0  0  0  0  0  0
  -24.1773  -12.9656   20.7904 C   0  0  0  0  0  0  0  0  0  0  0  0
  -39.4799  -26.1769   11.7992 C   0  0  0  0  0  0  0  0  0  0  0  0
  -34.0098  -24.6954   16.4645 C   0  0  0  0  0  0  0  0  0  0  0  0
  -38.1568  -26.2441   12.2760 C   0  0  0  0  0  0  0  0  0  0  0  0
  -33.1942  -23.6264   16.0666 C   0  0  0  0  0  0  0  0  0  0  0  0
  -27.7746  -21.6620   19.4338 C   0  0  0  0  0  0  0  0  0  0  0  0
  -22.2988   -8.1776   21.5784 C   0  0  0  0  0  0  0  0  0  0  0  0
  -31.2244  -24.9803   16.5106 C   0  0  0  0  0  0  0  0  0  0  0  0
  -20.7964   -7.0795   23.0134 C   0  0  0  0  0  0  0  0  0  0  0  0
  -19.2568   -7.1042   25.3397 C   0  0  0  0  0  0  0  0  0  0  0  0
  -21.0197   -6.1270   24.0077 C   0  0  0  0  0  0  0  0  0  0  0  0
  -24.5943  -11.6234   20.7097 C   0  0  0  0  0  0  0  0  0  0  0  0
  -28.5245  -22.6666   20.0107 C   0  0  0  0  0  0  0  0  0  0  0  0
  -25.2799  -13.6911   20.4103 C   0  0  0  0  0  0  0  0  0  0  0  0
  -27.8542  -24.1482   18.4225 C   0  0  0  0  0  0  0  0  0  0  0  0
  -22.9070  -13.5080   21.1747 C   0  0  0  0  0  0  0  0  0  0  0  0
  -35.9557  -23.8902   14.0836 C   0  0  0  0  0  0  0  0  0  0  0  0
  -35.9272  -21.0000   15.5560 C   0  0  0  0  0  0  0  0  0  0  0  0
  -34.3123  -18.8180   17.6243 C   0  0  0  0  0  0  0  0  0  0  0  0
  -30.7700  -14.6710   20.6195 C   0  0  0  0  0  0  0  0  0  0  0  0
  -40.0454  -24.9115   11.2044 C   0  0  0  0  0  0  0  0  0  0  0  0
  -35.5067  -24.5483   16.4755 C   0  0  0  0  0  0  0  0  0  0  0  0
  -33.7742  -22.3143   15.6080 C   0  0  0  0  0  0  0  0  0  0  0  0
  -39.2483  -23.6602   11.5641 C   0  0  0  0  0  0  0  0  0  0  0  0
  -29.6373  -12.2043   18.3153 C   0  0  0  0  0  0  0  0  0  0  0  0
  -37.7549  -23.9054   11.3734 C   0  0  0  0  0  0  0  0  0  0  0  0
  -28.1927  -11.9398   18.7434 C   0  0  0  0  0  0  0  0  0  0  0  0
  -30.5433  -12.4644   19.5168 C   0  0  0  0  0  0  0  0  0  0  0  0
  -28.6333  -13.2651   20.8525 C   0  0  0  0  0  0  0  0  0  0  0  0
  -37.2580  -25.0268   12.2938 C   0  0  1  0  0  0  0  0  0  0  0  0
  -36.0078  -23.4661   15.5241 C   0  0  1  0  0  0  0  0  0  0  0  0
  -27.6703  -13.0526   19.6719 C   0  0  2  0  0  0  0  0  0  0  0  0
  -34.5171  -16.5189   18.6090 C   0  0  0  0  0  0  0  0  0  0  0  0
  -35.1185  -19.7832   12.8773 C   0  0  0  0  0  0  0  0  0  0  0  0
  -34.4252  -17.7145   14.1053 C   0  0  0  0  0  0  0  0  0  0  0  0
  -36.8065  -18.4557   14.1589 C   0  0  0  0  0  0  0  0  0  0  0  0
  -34.3455  -19.8782   20.3872 C   0  0  0  0  0  0  0  0  0  0  0  0
  -28.9938  -18.9915   18.2646 C   0  0  0  0  0  0  0  0  0  0  0  0
  -27.7076  -20.2766   19.9660 C   0  0  0  0  0  0  0  0  0  0  0  0
  -27.8989  -25.5459   17.8543 C   0  0  0  0  0  0  0  0  0  0  0  0
  -30.5803  -17.9824   20.7647 C   0  0  0  0  0  0  0  0  0  0  0  0
  -30.8414  -16.8677   21.7720 C   0  0  0  0  0  0  0  0  0  0  0  0
  -29.1017  -18.3351   20.6645 C   0  0  0  0  0  0  0  0  0  0  0  0
  -29.3178  -25.9880   17.5132 C   0  0  0  0  0  0  0  0  0  1  0  0
  -35.0732  -19.7589   15.4586 C   0  0  1  0  0  0  0  0  0  0  0  0
  -34.8020  -17.9998   18.8055 C   0  0  2  0  0  0  0  0  0  0  0  0
  -35.3446  -18.9533   14.1568 C   0  0  0  0  0  0  0  0  0  0  0  0
  -27.0854  -23.2570   17.7681 N   0  0  0  0  0  0  0  0  0  0  0  0
  -25.8627  -11.5007   20.3096 N   0  0  0  0  0  0  0  0  0  0  0  0
  -28.5877  -23.9255   19.5297 N   0  0  0  0  0  0  0  0  0  0  0  0
  -26.2522  -12.7751   20.1354 N   0  0  0  0  0  0  0  0  0  0  0  0
  -35.2434  -22.2217   15.6307 N   0  0  0  0  0  0  0  0  0  0  0  0
  -29.9923  -13.5314   20.3557 N   0  0  0  0  0  0  0  0  0  0  0  0
  -25.5027  -15.0169   20.2876 N   0  0  0  0  0  0  0  0  0  0  0  0
  -21.8836  -12.6212   21.5360 N   0  0  0  0  0  0  0  0  0  0  0  0
  -37.0960  -24.5365   13.6458 N   0  0  0  0  0  0  0  0  0  0  0  0
  -35.3055  -19.0062   16.6865 N   0  0  0  0  0  0  0  0  0  0  0  0
  -30.1700  -15.6370   21.4179 N   0  0  0  0  0  0  0  0  0  0  0  0
  -34.1298  -18.4455   20.0586 N   0  3  0  0  0  0  0  0  0  0  0  0
  -28.9326  -19.4717   19.6908 N   0  3  1  0  0  0  0  0  0  0  0  0
  -22.6809  -14.7419   21.1813 O   0  0  0  0  0  0  0  0  0  0  0  0
  -34.9557  -23.6477   13.4181 O   0  0  0  0  0  0  0  0  0  0  0  0
  -37.1556  -20.8889   15.5725 O   0  0  0  0  0  0  0  0  0  0  0  0
  -33.1626  -19.2441   17.5400 O   0  0  0  0  0  0  0  0  0  0  0  0
  -31.9123  -14.8190   20.1720 O   0  0  0  0  0  0  0  0  0  0  0  0
  -21.5604   -7.0691   21.8585 O   0  0  0  0  0  0  0  0  0  0  0  0
  -29.8706  -25.1168   16.5274 O   0  0  0  0  0  0  0  0  0  1  0  0
  -18.5184   -7.1170   26.4572 F   0  0  0  0  0  0  0  0  0  0  0  0
  -21.9731   -5.1983   23.8516 F   0  0  0  0  0  0  0  0  0  0  0  0
  -29.4700  -22.4124   21.4237 Cl  0  0  0  0  0  0  0  0  0  0  0  0
  1  2  1  0  0  0  0
  1  5  2  0  0  0  0
  2  6  2  0  0  0  0
  3  8  2  0  0  0  0
  3 16  1  0  0  0  0
  4  9  1  0  0  0  0
  4 16  2  0  0  0  0
  5 18  1  0  0  0  0
  6 20  1  0  0  0  0
  7 10  2  0  0  0  0
  7 19  1  0  0  0  0
  8 23  1  0  0  0  0
  9 23  2  0  0  0  0
 10 24  1  0  0  0  0
 11 12  2  0  0  0  0
 11 25  1  0  0  0  0
 12 26  1  0  0  0  0
 13 21  1  0  0  0  0
 13 24  2  0  0  0  0
 14 26  2  0  0  0  0
 14 27  1  0  0  0  0
 15 22  1  0  0  0  0
 15 64  2  0  0  0  0
 16 28  1  0  0  0  0
 17 28  1  0  0  0  0
 17 30  2  0  0  0  0
 17 32  1  0  0  0  0
 18 20  2  0  0  0  0
 18 37  1  0  0  0  0
 19 21  2  0  0  0  0
 19 38  1  0  0  0  0
 20 46  1  0  0  0  0
 21 39  1  0  0  0  0
 22 29  2  0  0  0  0
 22 55  1  0  0  0  0
 23 82  1  0  0  0  0
 24 83  1  0  0  0  0
 25 27  2  0  0  0  0
 25 82  1  0  0  0  0
 26 84  1  0  0  0  0
 27 85  1  0  0  0  0
 28 65  2  0  0  0  0
 29 66  1  0  0  0  0
 29 86  1  0  0  0  0
 30 67  1  0  0  0  0
 30 70  1  0  0  0  0
 31 56  1  0  0  0  0
 31 64  1  0  0  0  0
 31 66  2  0  0  0  0
 32 71  1  0  0  0  0
 32 77  2  0  0  0  0
 33 47  1  0  0  0  0
 33 72  1  0  0  0  0
 33 78  2  0  0  0  0
 34 61  1  0  0  0  0
 34 68  1  0  0  0  0
 34 79  2  0  0  0  0
 35 62  1  0  0  0  0
 35 73  1  0  0  0  0
 35 80  2  0  0  0  0
 36 69  1  0  0  0  0
 36 74  1  0  0  0  0
 36 81  2  0  0  0  0
 37 40  1  0  0  0  0
 38 47  1  0  0  0  0
 39 68  1  0  0  0  0
 40 42  1  0  0  0  0
 41 43  1  0  0  0  0
 41 44  1  0  0  0  0
 42 46  1  0  0  0  0
 43 48  1  0  0  0  0
 44 69  1  0  0  0  0
 45 48  1  0  0  0  0
 45 69  1  0  0  0  0
 46 72  1  0  0  0  0
 47 68  1  0  0  0  0
 48 67  1  0  0  0  0
 49 62  1  0  0  0  0
 50 63  1  0  0  0  0
 51 63  1  0  0  0  0
 52 63  1  0  0  0  0
 53 75  1  0  0  0  0
 54 76  1  0  0  0  0
 55 76  1  0  0  0  0
 56 60  1  0  0  0  0
 57 58  1  0  0  0  0
 57 59  1  0  0  0  0
 58 74  1  0  0  0  0
 59 76  1  0  0  0  0
 60 83  1  0  0  0  0
 61 63  1  0  0  0  0
 61 73  1  0  0  0  0
 62 75  1  0  0  0  0
 65 67  1  0  0  0  0
M  CHG  2  75   1  76   1
M  ISO  4  36 100  60 101  74 100  83 101
M  END
> <Batch ID>
0058

> <Smiles>
CNC(C)C(=O)NC(C(=O)N1Cc2cc([101O:1][101CH2:1]Cc3ncc(CN(C)CCC[100NH:0][100C:0](=O)N4CCCC(n5nc(-c6ccc(Oc7ccc(F)cc7F)cc6)c(C(N)=O)c5N)C4)c(Cl)n3)ccc2CC1C(=O)NC1CCCc2ccccc21)C(C)(C)C

> <Shape>
0.226

> <Color>
0.187

> <Negative vol penalty>
0.000

$$$$

  -OEChem-04052317503D

 83 91  0     1  0  0  0  0  0999 V2000
  -18.9213  -24.7038   24.4285 C   0  0  0  0  0  0  0  0  0  0  0  0
  -20.2838  -24.5440   24.1970 C   0  0  0  0  0  0  0  0  0  0  0  0
  -26.0433  -12.7141   18.9565 C   0  0  0  0  0  0  0  0  0  0  0  0
  -24.9198  -13.7974   20.8008 C   0  0  0  0  0  0  0  0  0  0  0  0
  -18.2745  -25.8635   24.0033 C   0  0  0  0  0  0  0  0  0  0  0  0
  -21.0000  -25.5433   23.5392 C   0  0  0  0  0  0  0  0  0  0  0  0
  -26.8110  -27.1865   24.5584 C   0  0  0  0  0  0  0  0  0  0  0  0
  -25.9117  -11.4832   19.5993 C   0  0  0  0  0  0  0  0  0  0  0  0
  -24.7882  -12.5665   21.4436 C   0  0  0  0  0  0  0  0  0  0  0  0
  -28.0038  -26.8648   23.9122 C   0  0  0  0  0  0  0  0  0  0  0  0
  -23.8356   -9.6577   23.4057 C   0  0  0  0  0  0  0  0  0  0  0  0
  -22.6004   -9.3525   23.9772 C   0  0  0  0  0  0  0  0  0  0  0  0
  -27.8462  -28.8973   22.6225 C   0  0  0  0  0  0  0  0  0  0  0  0
  -21.5502   -9.5442   21.8098 C   0  0  0  0  0  0  0  0  0  0  0  0
  -28.5936  -23.9137   22.3009 C   0  0  0  0  0  0  0  0  0  0  0  0
  -25.5474  -13.8712   19.5573 C   0  0  0  0  0  0  0  0  0  0  0  0
  -24.7762  -15.7341   17.9944 C   0  0  0  0  0  0  0  0  0  0  0  0
  -18.9851  -26.8818   23.3485 C   0  0  0  0  0  0  0  0  0  0  0  0
  -26.1200  -28.3626   24.2331 C   0  0  0  0  0  0  0  0  0  0  0  0
  -20.3618  -26.7171   23.1036 C   0  0  0  0  0  0  0  0  0  0  0  0
  -26.6462  -29.2329   23.2678 C   0  0  0  0  0  0  0  0  0  0  0  0
  -25.2842  -11.4094   20.8429 C   0  0  0  0  0  0  0  0  0  0  0  0
  -28.5201  -27.7188   22.9421 C   0  0  0  0  0  0  0  0  0  0  0  0
  -23.9282   -9.9063   22.0363 C   0  0  0  0  0  0  0  0  0  0  0  0
  -21.4577   -9.2957   23.1793 C   0  0  0  0  0  0  0  0  0  0  0  0
  -22.7855   -9.8495   21.2383 C   0  0  0  0  0  0  0  0  0  0  0  0
  -25.6835  -15.1431   18.8940 C   0  0  0  0  0  0  0  0  0  0  0  0
  -25.3618  -16.9281   17.6509 C   0  0  0  0  0  0  0  0  0  0  0  0
  -27.1610  -24.2285   20.8157 C   0  0  0  0  0  0  0  0  0  0  0  0
  -23.5166  -15.2474   17.5125 C   0  0  0  0  0  0  0  0  0  0  0  0
  -23.2509  -29.0195   23.0328 C   0  0  0  0  0  0  0  0  0  0  0  0
  -24.1234  -32.0819   23.6516 C   0  0  0  0  0  0  0  0  0  0  0  0
  -26.6397  -34.3375   24.1285 C   0  0  0  0  0  0  0  0  0  0  0  0
  -28.0706  -21.6015   19.0535 C   0  0  0  0  0  0  0  0  0  0  0  0
  -18.2332  -28.0966   22.8654 C   0  0  0  0  0  0  0  0  0  0  0  0
  -24.8484  -28.7084   24.9583 C   0  0  0  0  0  0  0  0  0  0  0  0
  -25.9534  -30.5177   22.8966 C   0  0  0  0  0  0  0  0  0  0  0  0
  -19.1396  -29.2718   22.5083 C   0  0  0  0  0  0  0  0  0  0  0  0
  -30.0284  -18.6762   18.5186 C   0  0  0  0  0  0  0  0  0  0  0  0
  -20.3126  -28.8010   21.6543 C   0  0  0  0  0  0  0  0  0  0  0  0
  -28.9987  -17.5451   18.5007 C   0  0  0  0  0  0  0  0  0  0  0  0
  -29.6584  -19.7604   19.5284 C   0  0  0  0  0  0  0  0  0  0  0  0
  -27.2692  -19.1803   19.3572 C   0  0  0  0  0  0  0  0  0  0  0  0
  -21.1781  -27.7895   22.4153 C   0  0  1  0  0  0  0  0  0  0  0  0
  -23.9621  -29.6771   24.1815 C   0  0  1  0  0  0  0  0  0  0  0  0
  -27.5700  -18.0904   18.3142 C   0  0  2  0  0  0  0  0  0  0  0  0
  -27.0428  -36.7733   24.5773 C   0  0  0  0  0  0  0  0  0  0  0  0
  -25.3963  -25.4973   19.4113 C   0  0  0  0  0  0  0  0  0  0  0  0
  -24.8177  -23.3706   20.5505 C   0  0  0  0  0  0  0  0  0  0  0  0
  -23.4723  -32.7235   20.7405 C   0  0  0  0  0  0  0  0  0  0  0  0
  -24.7627  -34.8540   20.9942 C   0  0  0  0  0  0  0  0  0  0  0  0
  -22.7285  -34.4571   22.3825 C   0  0  0  0  0  0  0  0  0  0  0  0
  -30.9562  -26.1536   20.7654 C   0  0  0  0  0  0  0  0  0  0  0  0
  -31.1260  -25.6298   23.1741 C   0  0  0  0  0  0  0  0  0  0  0  0
  -28.0032  -33.7588   26.6907 C   0  0  0  0  0  0  0  0  0  0  0  0
  -26.3612  -23.3340   18.5680 C   0  0  0  0  0  0  0  0  0  0  0  0
  -24.8427  -33.1645   22.8838 C   0  0  1  0  0  0  0  0  0  0  0  0
  -26.8545  -35.3964   25.1948 C   0  0  2  0  0  0  0  0  0  0  0  0
  -26.0313  -24.1314   19.8955 C   0  0  0  0  0  0  0  0  0  0  0  0
  -23.9638  -33.7747   21.7556 C   0  0  0  0  0  0  0  0  0  0  0  0
  -30.1308  -26.0495   22.0709 C   0  0  0  0  0  0  0  0  0  1  0  0
  -27.4819  -23.3532   21.7400 N   0  0  0  0  0  0  0  0  0  0  0  0
  -26.7635  -15.8992   19.1084 N   0  0  0  0  0  0  0  0  0  0  0  0
  -28.0480  -25.2594   20.8341 N   0  0  0  0  0  0  0  0  0  0  0  0
  -28.9808  -25.0807   21.7818 N   0  0  0  0  0  0  0  0  0  0  0  0
  -26.5386  -16.9776   18.3386 N   0  0  0  0  0  0  0  0  0  0  0  0
  -24.7099  -30.8085   23.6292 N   0  0  0  0  0  0  0  0  0  0  0  0
  -28.2924  -20.2358   19.2959 N   0  0  0  0  0  0  0  0  0  0  0  0
  -24.9797  -17.9300   16.8307 N   0  0  0  0  0  0  0  0  0  0  0  0
  -23.0634  -14.0016   17.9673 N   0  0  0  0  0  0  0  0  0  0  0  0
  -22.0290  -28.4687   23.3688 N   0  0  0  0  0  0  0  0  0  0  0  0
  -25.3000  -34.1327   23.8747 N   0  0  0  0  0  0  0  0  0  0  0  0
  -26.7476  -21.9668   18.8367 N   0  0  0  0  0  0  0  0  0  0  0  0
  -28.0625  -35.0762   26.0068 N   0  3  0  0  0  0  0  0  0  0  0  0
  -22.8215  -15.8906   16.6899 O   0  0  0  0  0  0  0  0  0  0  0  0
  -23.7716  -29.0135   21.9235 O   0  0  0  0  0  0  0  0  0  0  0  0
  -23.0835  -32.3575   24.2550 O   0  0  0  0  0  0  0  0  0  0  0  0
  -27.5676  -33.7533   23.5734 O   0  0  0  0  0  0  0  0  0  0  0  0
  -28.9845  -22.4328   19.0265 O   0  0  0  0  0  0  0  0  0  0  0  0
  -25.1554  -10.2084   21.4703 O   0  0  0  0  0  0  0  0  0  0  0  0
  -29.6839  -27.4070   22.3094 O   0  0  0  0  0  0  0  0  0  1  0  0
  -20.2718   -9.0011   23.7279 F   0  0  0  0  0  0  0  0  0  0  0  0
  -22.8684  -10.0861   19.9219 F   0  0  0  0  0  0  0  0  0  0  0  0
  1  2  1  0  0  0  0
  1  5  2  0  0  0  0
  2  6  2  0  0  0  0
  3  8  2  0  0  0  0
  3 16  1  0  0  0  0
  4  9  1  0  0  0  0
  4 16  2  0  0  0  0
  5 18  1  0  0  0  0
  6 20  1  0  0  0  0
  7 10  2  0  0  0  0
  7 19  1  0  0  0  0
  8 22  1  0  0  0  0
  9 22  2  0  0  0  0
 10 23  1  0  0  0  0
 11 12  2  0  0  0  0
 11 24  1  0  0  0  0
 12 25  1  0  0  0  0
 13 21  1  0  0  0  0
 13 23  2  0  0  0  0
 14 25  2  0  0  0  0
 14 26  1  0  0  0  0
 15 62  2  0  0  0  0
 15 65  1  0  0  0  0
 16 27  1  0  0  0  0
 17 27  1  0  0  0  0
 17 28  2  0  0  0  0
 17 30  1  0  0  0  0
 18 20  2  0  0  0  0
 18 35  1  0  0  0  0
 19 21  2  0  0  0  0
 19 36  1  0  0  0  0
 20 44  1  0  0  0  0
 21 37  1  0  0  0  0
 22 80  1  0  0  0  0
 23 81  1  0  0  0  0
 24 26  2  0  0  0  0
 24 80  1  0  0  0  0
 25 82  1  0  0  0  0
 26 83  1  0  0  0  0
 27 63  2  0  0  0  0
 28 66  1  0  0  0  0
 28 69  1  0  0  0  0
 29 59  1  0  0  0  0
 29 62  1  0  0  0  0
 29 64  2  0  0  0  0
 30 70  1  0  0  0  0
 30 75  2  0  0  0  0
 31 45  1  0  0  0  0
 31 71  1  0  0  0  0
 31 76  2  0  0  0  0
 32 57  1  0  0  0  0
 32 67  1  0  0  0  0
 32 77  2  0  0  0  0
 33 58  1  0  0  0  0
 33 72  1  0  0  0  0
 33 78  2  0  0  0  0
 34 68  1  0  0  0  0
 34 73  1  0  0  0  0
 34 79  2  0  0  0  0
 35 38  1  0  0  0  0
 36 45  1  0  0  0  0
 37 67  1  0  0  0  0
 38 40  1  0  0  0  0
 39 41  1  0  0  0  0
 39 42  1  0  0  0  0
 40 44  1  0  0  0  0
 41 46  1  0  0  0  0
 42 68  1  0  0  0  0
 43 46  1  0  0  0  0
 43 68  1  0  0  0  0
 44 71  1  0  0  0  0
 45 67  1  0  0  0  0
 46 66  1  0  0  0  0
 47 58  1  0  0  0  0
 48 59  1  0  0  0  0
 49 59  1  0  0  0  0
 50 60  1  0  0  0  0
 51 60  1  0  0  0  0
 52 60  1  0  0  0  0
 53 61  1  0  0  0  0
 54 61  1  0  0  0  0
 55 74  1  0  0  0  0
 56 59  1  0  0  0  0
 56 73  1  0  0  0  0
 57 60  1  0  0  0  0
 57 72  1  0  0  0  0
 58 74  1  0  0  0  0
 61 65  1  0  0  0  0
 61 81  1  0  0  0  0
 63 66  1  0  0  0  0
 64 65  1  0  0  0  0
M  CHG  1  74   1
M  ISO  4  34 100  61 101  73 100  81 101
M  END
> <Batch ID>
0058

> <Smiles>
CNC(C)C(=O)NC(C(=O)N1Cc2cc([101O:1][101C:1](C)(C)n3cnc(C(C)(C)C[100NH:0][100C:0](=O)N4CCCC(n5nc(-c6ccc(Oc7ccc(F)cc7F)cc6)c(C(N)=O)c5N)C4)n3)ccc2CC1C(=O)NC1CCCc2ccccc21)C(C)(C)C

> <Shape>
0.240

> <Color>
0.078

> <Negative vol penalty>
0.000

$$$$

  -OEChem-04052317503D

 85 93  0     1  0  0  0  0  0999 V2000
  -17.8157  -31.0707   25.9593 C   0  0  0  0  0  0  0  0  0  0  0  0
  -18.9619  -30.3521   26.2836 C   0  0  0  0  0  0  0  0  0  0  0  0
  -25.0304  -14.6177   21.5585 C   0  0  0  0  0  0  0  0  0  0  0  0
  -24.7370  -13.5486   19.4119 C   0  0  0  0  0  0  0  0  0  0  0  0
  -17.3171  -31.0354   24.6577 C   0  0  0  0  0  0  0  0  0  0  0  0
  -19.6096  -29.5967   25.3066 C   0  0  0  0  0  0  0  0  0  0  0  0
  -26.1520  -27.4355   23.3464 C   0  0  0  0  0  0  0  0  0  0  0  0
  -24.2103  -13.6566   22.1493 C   0  0  0  0  0  0  0  0  0  0  0  0
  -23.9168  -12.5874   20.0027 C   0  0  0  0  0  0  0  0  0  0  0  0
  -26.8512  -26.2726   23.0262 C   0  0  0  0  0  0  0  0  0  0  0  0
  -24.3002   -9.7828   21.8488 C   0  0  0  0  0  0  0  0  0  0  0  0
  -24.5133   -8.4489   21.5011 C   0  0  0  0  0  0  0  0  0  0  0  0
  -25.9443  -26.3495   20.7922 C   0  0  0  0  0  0  0  0  0  0  0  0
  -22.2525   -8.3066   20.6611 C   0  0  0  0  0  0  0  0  0  0  0  0
  -27.7904  -21.7503   20.7834 C   0  0  0  0  0  0  0  0  0  0  0  0
  -25.2938  -14.5638   20.1897 C   0  0  0  0  0  0  0  0  0  0  0  0
  -27.5376  -15.4989   19.4163 C   0  0  0  0  0  0  0  0  0  0  0  0
  -17.9645  -30.2869   23.6620 C   0  0  0  0  0  0  0  0  0  0  0  0
  -25.3337  -28.0591   22.3936 C   0  0  0  0  0  0  0  0  0  0  0  0
  -19.1184  -29.5502   23.9908 C   0  0  0  0  0  0  0  0  0  0  0  0
  -25.2377  -27.5217   21.1021 C   0  0  0  0  0  0  0  0  0  0  0  0
  -23.6535  -12.6414   21.3715 C   0  0  0  0  0  0  0  0  0  0  0  0
  -26.7451  -25.7278   21.7499 C   0  0  0  0  0  0  0  0  0  0  0  0
  -23.0631  -10.3786   21.6027 C   0  0  0  0  0  0  0  0  0  0  0  0
  -23.4896   -7.7108   20.9072 C   0  0  0  0  0  0  0  0  0  0  0  0
  -22.0393   -9.6405   21.0088 C   0  0  0  0  0  0  0  0  0  0  0  0
  -26.1405  -15.5567   19.5787 C   0  0  0  0  0  0  0  0  0  0  0  0
  -28.5727  -20.6310   20.5845 C   0  0  0  0  0  0  0  0  0  0  0  0
  -28.0709  -22.8273   19.9676 C   0  0  0  0  0  0  0  0  0  0  0  0
  -27.8589  -16.6758   18.7853 C   0  0  0  0  0  0  0  0  0  0  0  0
  -29.7315  -21.6731   18.9297 C   0  0  0  0  0  0  0  0  0  0  0  0
  -28.4624  -14.4731   19.8013 C   0  0  0  0  0  0  0  0  0  0  0  0
  -22.2291  -28.7080   22.1833 C   0  0  0  0  0  0  0  0  0  0  0  0
  -23.1388  -30.2893   19.5012 C   0  0  0  0  0  0  0  0  0  0  0  0
  -25.4188  -30.6598   16.9890 C   0  0  0  0  0  0  0  0  0  0  0  0
  -26.5405  -20.2295   14.5485 C   0  0  0  0  0  0  0  0  0  0  0  0
  -17.3612  -30.2415   22.2805 C   0  0  0  0  0  0  0  0  0  0  0  0
  -24.6070  -29.3278   22.7466 C   0  0  0  0  0  0  0  0  0  0  0  0
  -24.3886  -28.1641   20.0369 C   0  0  0  0  0  0  0  0  0  0  0  0
  -18.3194  -29.7166   21.2144 C   0  0  0  0  0  0  0  0  0  0  0  0
  -25.1105  -20.8204   17.9112 C   0  0  0  0  0  0  0  0  0  0  0  0
  -19.0218  -28.4538   21.7030 C   0  0  0  0  0  0  0  0  0  0  0  0
  -25.3069  -19.4702   18.5986 C   0  0  0  0  0  0  0  0  0  0  0  0
  -24.9688  -20.6718   16.3994 C   0  0  0  0  0  0  0  0  0  0  0  0
  -26.2851  -18.5792   16.4469 C   0  0  0  0  0  0  0  0  0  0  0  0
  -19.8632  -28.7390   22.9529 C   0  0  1  0  0  0  0  0  0  0  0  0
  -23.3984  -29.5923   21.8541 C   0  0  1  0  0  0  0  0  0  0  0  0
  -26.4778  -18.6979   17.9662 C   0  0  2  0  0  0  0  0  0  0  0  0
  -28.3433  -19.4157   21.4191 C   0  0  0  0  0  0  0  0  0  0  0  0
  -25.8717  -32.0105   14.9231 C   0  0  0  0  0  0  0  0  0  0  0  0
  -21.0404  -28.6725   17.9870 C   0  0  0  0  0  0  0  0  0  0  0  0
  -22.1649  -29.3428   15.8528 C   0  0  0  0  0  0  0  0  0  0  0  0
  -21.1691  -31.0838   17.3361 C   0  0  0  0  0  0  0  0  0  0  0  0
  -28.4337  -20.3344   12.9724 C   0  0  0  0  0  0  0  0  0  0  0  0
  -27.9410  -31.7343   18.1040 C   0  0  0  0  0  0  0  0  0  0  0  0
  -31.8862  -20.1569   16.2044 C   0  0  0  0  0  0  0  0  0  0  0  0
  -27.2714  -24.0892   20.1086 C   0  0  0  0  0  0  0  0  0  1  0  0
  -30.8070  -21.6297   17.8975 C   0  0  0  0  0  0  0  0  0  0  0  0
  -28.8934  -19.6940   15.3099 C   0  0  0  0  0  0  0  0  0  0  0  0
  -29.5497  -20.9467   15.8595 C   0  0  0  0  0  0  0  0  0  0  0  0
  -23.2992  -29.9216   18.0458 C   0  0  1  0  0  0  0  0  0  0  0  0
  -26.1014  -31.8914   16.4217 C   0  0  2  0  0  0  0  0  0  0  0  0
  -21.9330  -29.7417   17.3259 C   0  0  0  0  0  0  0  0  0  0  0  0
  -25.6106  -16.6814   19.0904 N   0  0  0  0  0  0  0  0  0  0  0  0
  -29.5556  -20.5575   19.6631 N   0  0  0  0  0  0  0  0  0  0  0  0
  -29.0380  -22.8234   19.0268 N   0  0  0  0  0  0  0  0  0  0  0  0
  -26.6805  -17.3412   18.6151 N   0  0  0  0  0  0  0  0  0  0  0  0
  -23.6925  -29.3996   20.4326 N   0  0  0  0  0  0  0  0  0  0  0  0
  -26.0720  -19.8971   15.8302 N   0  0  0  0  0  0  0  0  0  0  0  0
  -29.0315  -17.1961   18.3650 N   0  0  0  0  0  0  0  0  0  0  0  0
  -27.9638  -13.3295   20.4398 N   0  0  0  0  0  0  0  0  0  0  0  0
  -21.1011  -29.3949   22.5900 N   0  0  0  0  0  0  0  0  0  0  0  0
  -24.1542  -30.9470   17.4576 N   0  0  0  0  0  0  0  0  0  0  0  0
  -27.8982  -19.9954   14.2832 N   0  0  0  0  0  0  0  0  0  0  0  0
  -27.5698  -31.8298   16.6687 N   0  3  0  0  0  0  0  0  0  0  0  0
  -30.6000  -20.5697   16.8724 N   0  3  1  0  0  0  0  0  0  0  0  0
  -29.6963  -14.5752   19.6001 O   0  0  0  0  0  0  0  0  0  0  0  0
  -22.3414  -27.4925   22.0750 O   0  0  0  0  0  0  0  0  0  0  0  0
  -22.5502  -31.3313   19.8003 O   0  0  0  0  0  0  0  0  0  0  0  0
  -25.9525  -29.5529   17.0107 O   0  0  0  0  0  0  0  0  0  0  0  0
  -25.7903  -20.7172   13.6934 O   0  0  0  0  0  0  0  0  0  0  0  0
  -22.8533  -11.7032   21.9477 O   0  0  0  0  0  0  0  0  0  0  0  0
  -27.4261  -24.5925   21.4349 O   0  0  0  0  0  0  0  0  0  1  0  0
  -23.6949   -6.4303   20.5720 F   0  0  0  0  0  0  0  0  0  0  0  0
  -20.8492  -10.2077   20.7689 F   0  0  0  0  0  0  0  0  0  0  0  0
  1  2  1  0  0  0  0
  1  5  2  0  0  0  0
  2  6  2  0  0  0  0
  3  8  2  0  0  0  0
  3 16  1  0  0  0  0
  4  9  1  0  0  0  0
  4 16  2  0  0  0  0
  5 18  1  0  0  0  0
  6 20  1  0  0  0  0
  7 10  2  0  0  0  0
  7 19  1  0  0  0  0
  8 22  1  0  0  0  0
  9 22  2  0  0  0  0
 10 23  1  0  0  0  0
 11 12  2  0  0  0  0
 11 24  1  0  0  0  0
 12 25  1  0  0  0  0
 13 21  1  0  0  0  0
 13 23  2  0  0  0  0
 14 25  2  0  0  0  0
 14 26  1  0  0  0  0
 15 28  2  0  0  0  0
 15 29  1  0  0  0  0
 16 27  1  0  0  0  0
 17 27  1  0  0  0  0
 17 30  2  0  0  0  0
 17 32  1  0  0  0  0
 18 20  2  0  0  0  0
 18 37  1  0  0  0  0
 19 21  2  0  0  0  0
 19 38  1  0  0  0  0
 20 46  1  0  0  0  0
 21 39  1  0  0  0  0
 22 82  1  0  0  0  0
 23 83  1  0  0  0  0
 24 26  2  0  0  0  0
 24 82  1  0  0  0  0
 25 84  1  0  0  0  0
 26 85  1  0  0  0  0
 27 64  2  0  0  0  0
 28 49  1  0  0  0  0
 28 65  1  0  0  0  0
 29 57  1  0  0  0  0
 29 66  2  0  0  0  0
 30 67  1  0  0  0  0
 30 70  1  0  0  0  0
 31 58  1  0  0  0  0
 31 65  2  0  0  0  0
 31 66  1  0  0  0  0
 32 71  1  0  0  0  0
 32 77  2  0  0  0  0
 33 47  1  0  0  0  0
 33 72  1  0  0  0  0
 33 78  2  0  0  0  0
 34 61  1  0  0  0  0
 34 68  1  0  0  0  0
 34 79  2  0  0  0  0
 35 62  1  0  0  0  0
 35 73  1  0  0  0  0
 35 80  2  0  0  0  0
 36 69  1  0  0  0  0
 36 74  1  0  0  0  0
 36 81  2  0  0  0  0
 37 40  1  0  0  0  0
 38 47  1  0  0  0  0
 39 68  1  0  0  0  0
 40 42  1  0  0  0  0
 41 43  1  0  0  0  0
 41 44  1  0  0  0  0
 42 46  1  0  0  0  0
 43 48  1  0  0  0  0
 44 69  1  0  0  0  0
 45 48  1  0  0  0  0
 45 69  1  0  0  0  0
 46 72  1  0  0  0  0
 47 68  1  0  0  0  0
 48 67  1  0  0  0  0
 50 62  1  0  0  0  0
 51 63  1  0  0  0  0
 52 63  1  0  0  0  0
 53 63  1  0  0  0  0
 54 74  1  0  0  0  0
 55 75  1  0  0  0  0
 56 76  1  0  0  0  0
 57 83  1  0  0  0  0
 58 76  1  0  0  0  0
 59 60  1  0  0  0  0
 59 74  1  0  0  0  0
 60 76  1  0  0  0  0
 61 63  1  0  0  0  0
 61 73  1  0  0  0  0
 62 75  1  0  0  0  0
 64 67  1  0  0  0  0
M  CHG  2  75   1  76   1
M  ISO  4  36 100  57 101  74 100  83 101
M  END
> <Batch ID>
0058

> <Smiles>
CNC(C)C(=O)NC(C(=O)N1Cc2cc([101O:1][101CH2:1]c3cc(C)nc(CN(C)CC[100N:0](C)[100C:0](=O)N4CCCC(n5nc(-c6ccc(Oc7ccc(F)cc7F)cc6)c(C(N)=O)c5N)C4)n3)ccc2CC1C(=O)NC1CCCc2ccccc21)C(C)(C)C

> <Shape>
0.216

> <Color>
0.082

> <Negative vol penalty>
0.000

$$$$

  -OEChem-04052317503D

 83 91  0     1  0  0  0  0  0999 V2000
  -25.1333  -36.0732   22.4614 C   0  0  0  0  0  0  0  0  0  0  0  0
  -25.9306  -35.4155   21.5301 C   0  0  0  0  0  0  0  0  0  0  0  0
  -28.5020  -11.3312   21.5652 C   0  0  0  0  0  0  0  0  0  0  0  0
  -26.9796  -12.1783   19.8914 C   0  0  0  0  0  0  0  0  0  0  0  0
  -24.8309  -35.4591   23.6760 C   0  0  0  0  0  0  0  0  0  0  0  0
  -26.4268  -34.1436   21.8135 C   0  0  0  0  0  0  0  0  0  0  0  0
  -28.1398  -27.9754   18.5985 C   0  0  0  0  0  0  0  0  0  0  0  0
  -27.7054  -10.1962   21.7154 C   0  0  0  0  0  0  0  0  0  0  0  0
  -26.1830  -11.0432   20.0415 C   0  0  0  0  0  0  0  0  0  0  0  0
  -29.1967  -27.0721   18.4947 C   0  0  0  0  0  0  0  0  0  0  0  0
  -23.8627   -9.8980   22.2177 C   0  0  0  0  0  0  0  0  0  0  0  0
  -22.4829  -10.0818   22.3068 C   0  0  0  0  0  0  0  0  0  0  0  0
  -28.5436  -26.0763   20.5926 C   0  0  0  0  0  0  0  0  0  0  0  0
  -22.1744   -8.7228   20.3332 C   0  0  0  0  0  0  0  0  0  0  0  0
  -29.2900  -22.2162   17.9467 C   0  0  0  0  0  0  0  0  0  0  0  0
  -28.1391  -12.3224   20.6533 C   0  0  0  0  0  0  0  0  0  0  0  0
  -30.0371  -13.6677   19.6066 C   0  0  0  0  0  0  0  0  0  0  0  0
  -25.3158  -34.1750   23.9703 C   0  0  0  0  0  0  0  0  0  0  0  0
  -27.2819  -27.9429   19.7073 C   0  0  0  0  0  0  0  0  0  0  0  0
  -26.1318  -33.5122   23.0337 C   0  0  0  0  0  0  0  0  0  0  0  0
  -27.4750  -26.9786   20.7068 C   0  0  0  0  0  0  0  0  0  0  0  0
  -30.4929  -22.4232   18.5906 C   0  0  0  0  0  0  0  0  0  0  0  0
  -26.5459  -10.0521   20.9535 C   0  0  0  0  0  0  0  0  0  0  0  0
  -29.4005  -26.1243   19.4933 C   0  0  0  0  0  0  0  0  0  0  0  0
  -24.3984   -9.1267   21.1863 C   0  0  0  0  0  0  0  0  0  0  0  0
  -21.6388   -9.4942   21.3646 C   0  0  0  0  0  0  0  0  0  0  0  0
  -23.5543   -8.5391   20.2441 C   0  0  0  0  0  0  0  0  0  0  0  0
  -28.9613  -13.4954   20.4981 C   0  0  0  0  0  0  0  0  0  0  0  0
  -30.7334  -21.6128   19.6813 C   0  0  0  0  0  0  0  0  0  0  0  0
  -30.4815  -14.9447   19.8474 C   0  0  0  0  0  0  0  0  0  0  0  0
  -28.7353  -20.5645   19.4066 C   0  0  0  0  0  0  0  0  0  0  0  0
  -30.5855  -12.7549   18.6465 C   0  0  0  0  0  0  0  0  0  0  0  0
  -26.5464  -29.9790   22.0347 C   0  0  0  0  0  0  0  0  0  0  0  0
  -24.3568  -27.7104   22.7972 C   0  0  0  0  0  0  0  0  0  0  0  0
  -23.4058  -24.4362   22.6499 C   0  0  0  0  0  0  0  0  0  0  0  0
  -27.4342  -19.6248   22.3671 C   0  0  0  0  0  0  0  0  0  0  0  0
  -25.0012  -33.5711   25.3161 C   0  0  0  0  0  0  0  0  0  0  0  0
  -26.1304  -28.9069   19.7912 C   0  0  0  0  0  0  0  0  0  0  0  0
  -26.5701  -26.8888   21.9074 C   0  0  0  0  0  0  0  0  0  0  0  0
  -25.2574  -32.0677   25.3840 C   0  0  0  0  0  0  0  0  0  0  0  0
  -30.7411  -18.2442   23.2943 C   0  0  0  0  0  0  0  0  0  0  0  0
  -26.6148  -31.7295   24.7757 C   0  0  0  0  0  0  0  0  0  0  0  0
  -30.7113  -16.8543   22.6607 C   0  0  0  0  0  0  0  0  0  0  0  0
  -29.3417  -18.7333   23.6549 C   0  0  0  0  0  0  0  0  0  0  0  0
  -28.3537  -17.3198   21.8828 C   0  0  0  0  0  0  0  0  0  0  0  0
  -26.6685  -32.1214   23.2942 C   0  0  1  0  0  0  0  0  0  0  0  0
  -25.6284  -29.1155   21.2166 C   0  0  1  0  0  0  0  0  0  0  0  0
  -29.7437  -16.8171   21.4650 C   0  0  2  0  0  0  0  0  0  0  0  0
  -33.1881  -21.1050   19.7402 C   0  0  0  0  0  0  0  0  0  0  0  0
  -21.5866  -22.8777   23.3975 C   0  0  0  0  0  0  0  0  0  0  0  0
  -25.5029  -27.7328   25.6249 C   0  0  0  0  0  0  0  0  0  0  0  0
  -24.3367  -25.5566   26.0399 C   0  0  0  0  0  0  0  0  0  0  0  0
  -23.0081  -27.6007   25.5114 C   0  0  0  0  0  0  0  0  0  0  0  0
  -26.0112  -20.9574   20.8575 C   0  0  0  0  0  0  0  0  0  0  0  0
  -22.6914  -23.7466   19.8619 C   0  0  0  0  0  0  0  0  0  0  0  0
  -31.4643  -23.4750   18.1126 C   0  0  0  0  0  0  0  0  0  0  0  0
  -32.0031  -21.7469   20.4556 C   0  0  0  0  0  0  0  0  0  0  0  0
  -27.7595  -19.5316   19.8595 C   0  0  0  0  0  0  0  0  0  0  0  0
  -30.8425  -24.8669   18.0807 C   0  0  0  0  0  0  0  0  0  1  0  0
  -24.3489  -26.4862   23.6805 C   0  0  1  0  0  0  0  0  0  0  0  0
  -22.0833  -23.7868   22.2841 C   0  0  2  0  0  0  0  0  0  0  0  0
  -24.3175  -26.8467   25.1926 C   0  0  0  0  0  0  0  0  0  0  0  0
  -28.3844  -21.2921   18.3292 N   0  0  0  0  0  0  0  0  0  0  0  0
  -28.7361  -14.5765   21.2494 N   0  0  0  0  0  0  0  0  0  0  0  0
  -29.8734  -20.6697   20.1187 N   0  0  0  0  0  0  0  0  0  0  0  0
  -29.6765  -15.4404   20.8305 N   0  0  0  0  0  0  0  0  0  0  0  0
  -25.4620  -27.8574   21.9471 N   0  0  0  0  0  0  0  0  0  0  0  0
  -28.4316  -18.6466   22.5123 N   0  0  0  0  0  0  0  0  0  0  0  0
  -31.4785  -15.6808   19.3121 N   0  0  0  0  0  0  0  0  0  0  0  0
  -30.0088  -11.4830   18.5284 N   0  0  0  0  0  0  0  0  0  0  0  0
  -25.9643  -31.1475   22.4879 N   0  0  0  0  0  0  0  0  0  0  0  0
  -23.2237  -25.6703   23.2373 N   0  0  0  0  0  0  0  0  0  0  0  0
  -27.0340  -19.9411   21.0600 N   0  0  0  0  0  0  0  0  0  0  0  0
  -22.2310  -22.9736   21.0440 N   0  3  0  0  0  0  0  0  0  0  0  0
  -31.5687  -13.0524   17.9264 O   0  0  0  0  0  0  0  0  0  0  0  0
  -27.6972  -29.6117   22.2408 O   0  0  0  0  0  0  0  0  0  0  0  0
  -23.4135  -28.5032   22.8540 O   0  0  0  0  0  0  0  0  0  0  0  0
  -24.4917  -23.9004   22.4393 O   0  0  0  0  0  0  0  0  0  0  0  0
  -26.9370  -20.1905   23.3493 O   0  0  0  0  0  0  0  0  0  0  0  0
  -25.7684   -8.9445   21.0996 O   0  0  0  0  0  0  0  0  0  0  0  0
  -30.4317  -25.2418   19.3948 O   0  0  0  0  0  0  0  0  0  1  0  0
  -20.3136   -9.6695   21.4512 F   0  0  0  0  0  0  0  0  0  0  0  0
  -24.0630   -7.7960   19.2516 F   0  0  0  0  0  0  0  0  0  0  0  0
  1  2  1  0  0  0  0
  1  5  2  0  0  0  0
  2  6  2  0  0  0  0
  3  8  2  0  0  0  0
  3 16  1  0  0  0  0
  4  9  1  0  0  0  0
  4 16  2  0  0  0  0
  5 18  1  0  0  0  0
  6 20  1  0  0  0  0
  7 10  2  0  0  0  0
  7 19  1  0  0  0  0
  8 23  1  0  0  0  0
  9 23  2  0  0  0  0
 10 24  1  0  0  0  0
 11 12  2  0  0  0  0
 11 25  1  0  0  0  0
 12 26  1  0  0  0  0
 13 21  1  0  0  0  0
 13 24  2  0  0  0  0
 14 26  2  0  0  0  0
 14 27  1  0  0  0  0
 15 22  1  0  0  0  0
 15 63  2  0  0  0  0
 16 28  1  0  0  0  0
 17 28  1  0  0  0  0
 17 30  2  0  0  0  0
 17 32  1  0  0  0  0
 18 20  2  0  0  0  0
 18 37  1  0  0  0  0
 19 21  2  0  0  0  0
 19 38  1  0  0  0  0
 20 46  1  0  0  0  0
 21 39  1  0  0  0  0
 22 29  2  0  0  0  0
 22 56  1  0  0  0  0
 23 80  1  0  0  0  0
 24 81  1  0  0  0  0
 25 27  2  0  0  0  0
 25 80  1  0  0  0  0
 26 82  1  0  0  0  0
 27 83  1  0  0  0  0
 28 64  2  0  0  0  0
 29 57  1  0  0  0  0
 29 65  1  0  0  0  0
 30 66  1  0  0  0  0
 30 69  1  0  0  0  0
 31 58  1  0  0  0  0
 31 63  1  0  0  0  0
 31 65  2  0  0  0  0
 32 70  1  0  0  0  0
 32 75  2  0  0  0  0
 33 47  1  0  0  0  0
 33 71  1  0  0  0  0
 33 76  2  0  0  0  0
 34 60  1  0  0  0  0
 34 67  1  0  0  0  0
 34 77  2  0  0  0  0
 35 61  1  0  0  0  0
 35 72  1  0  0  0  0
 35 78  2  0  0  0  0
 36 68  1  0  0  0  0
 36 73  1  0  0  0  0
 36 79  2  0  0  0  0
 37 40  1  0  0  0  0
 38 47  1  0  0  0  0
 39 67  1  0  0  0  0
 40 42  1  0  0  0  0
 41 43  1  0  0  0  0
 41 44  1  0  0  0  0
 42 46  1  0  0  0  0
 43 48  1  0  0  0  0
 44 68  1  0  0  0  0
 45 48  1  0  0  0  0
 45 68  1  0  0  0  0
 46 71  1  0  0  0  0
 47 67  1  0  0  0  0
 48 66  1  0  0  0  0
 49 57  1  0  0  0  0
 50 61  1  0  0  0  0
 51 62  1  0  0  0  0
 52 62  1  0  0  0  0
 53 62  1  0  0  0  0
 54 73  1  0  0  0  0
 55 74  1  0  0  0  0
 56 59  1  0  0  0  0
 58 73  1  0  0  0  0
 59 81  1  0  0  0  0
 60 62  1  0  0  0  0
 60 72  1  0  0  0  0
 61 74  1  0  0  0  0
 64 66  1  0  0  0  0
M  CHG  1  74   1
M  ISO  4  36 100  59 101  73 100  81 101
M  END
> <Batch ID>
0058

> <Smiles>
CCc1nc(C[100N:0](C)[100C:0](=O)N2CCCC(n3nc(-c4ccc(Oc5ccc(F)cc5F)cc4)c(C(N)=O)c3N)C2)ncc1C[101CH2:1][101O:1]c1ccc2c(c1)CN(C(=O)C(NC(=O)C(C)NC)C(C)(C)C)C(C(=O)NC1CCCc3ccccc31)C2

> <Shape>
0.279

> <Color>
0.077

> <Negative vol penalty>
0.000

$$$$

  -OEChem-04052317503D

 86 94  0     1  0  0  0  0  0999 V2000
  -31.2097  -24.0952   17.3598 C   0  0  0  0  0  0  0  0  0  0  0  0
  -30.0409  -24.0553   18.1133 C   0  0  0  0  0  0  0  0  0  0  0  0
  -24.4937  -13.0640   21.6150 C   0  0  0  0  0  0  0  0  0  0  0  0
  -25.7353  -13.1641   19.5449 C   0  0  0  0  0  0  0  0  0  0  0  0
  -32.1153  -25.1407   17.5351 C   0  0  0  0  0  0  0  0  0  0  0  0
  -29.7775  -25.0604   19.0433 C   0  0  0  0  0  0  0  0  0  0  0  0
  -24.9948  -26.7098   18.8193 C   0  0  0  0  0  0  0  0  0  0  0  0
  -24.5777  -11.6718   21.5981 C   0  0  0  0  0  0  0  0  0  0  0  0
  -25.8194  -11.7718   19.5280 C   0  0  0  0  0  0  0  0  0  0  0  0
  -24.0180  -25.9129   19.4147 C   0  0  0  0  0  0  0  0  0  0  0  0
  -24.1550   -8.0736   21.9119 C   0  0  0  0  0  0  0  0  0  0  0  0
  -22.9992   -7.3491   22.2030 C   0  0  0  0  0  0  0  0  0  0  0  0
  -24.0333  -27.3514   21.3511 C   0  0  0  0  0  0  0  0  0  0  0  0
  -21.8822   -8.3754   20.3225 C   0  0  0  0  0  0  0  0  0  0  0  0
  -25.0725  -13.8101   20.5884 C   0  0  0  0  0  0  0  0  0  0  0  0
  -23.8143  -16.0293   20.5944 C   0  0  0  0  0  0  0  0  0  0  0  0
  -31.8583  -26.1643   18.4608 C   0  0  0  0  0  0  0  0  0  0  0  0
  -25.5070  -27.8291   19.4911 C   0  0  0  0  0  0  0  0  0  0  0  0
  -30.6812  -26.1199   19.2320 C   0  0  0  0  0  0  0  0  0  0  0  0
  -25.0147  -28.1624   20.7610 C   0  0  0  0  0  0  0  0  0  0  0  0
  -25.2405  -11.0257   20.5547 C   0  0  0  0  0  0  0  0  0  0  0  0
  -23.5391  -26.2320   20.6820 C   0  0  0  0  0  0  0  0  0  0  0  0
  -24.1744   -8.9492   20.8261 C   0  0  0  0  0  0  0  0  0  0  0  0
  -21.8628   -7.4999   21.4083 C   0  0  0  0  0  0  0  0  0  0  0  0
  -23.0380   -9.1000   20.0315 C   0  0  0  0  0  0  0  0  0  0  0  0
  -24.9855  -15.2483   20.6050 C   0  0  0  0  0  0  0  0  0  0  0  0
  -24.2662  -17.3261   20.6188 C   0  0  0  0  0  0  0  0  0  0  0  0
  -27.4921  -21.2364   24.0658 C   0  0  0  0  0  0  0  0  0  0  0  0
  -26.1997  -21.5233   24.2612 C   0  0  0  0  0  0  0  0  0  0  0  0
  -25.5931  -20.2246   24.6808 C   0  0  0  0  0  0  0  0  0  0  0  0
  -22.4408  -15.6192   20.5653 C   0  0  0  0  0  0  0  0  0  0  0  0
  -28.3772  -28.6895   20.5516 C   0  0  0  0  0  0  0  0  0  0  0  0
  -29.4030  -19.7491   22.5819 C   0  0  0  0  0  0  0  0  0  0  0  0
  -26.8632  -31.4787   21.2227 C   0  0  0  0  0  0  0  0  0  0  0  0
  -23.6777  -32.4840   22.5864 C   0  0  0  0  0  0  0  0  0  0  0  0
  -32.8896  -27.2486   18.6489 C   0  0  0  0  0  0  0  0  0  0  0  0
  -26.5412  -28.6939   18.8240 C   0  0  0  0  0  0  0  0  0  0  0  0
  -25.5171  -29.3651   21.5157 C   0  0  0  0  0  0  0  0  0  0  0  0
  -32.3572  -28.4740   19.3875 C   0  0  0  0  0  0  0  0  0  0  0  0
  -27.9778  -20.0316   19.3064 C   0  0  0  0  0  0  0  0  0  0  0  0
  -31.5663  -28.0516   20.6215 C   0  0  0  0  0  0  0  0  0  0  0  0
  -26.9628  -18.8903   19.2569 C   0  0  0  0  0  0  0  0  0  0  0  0
  -29.2106  -19.6476   20.1188 C   0  0  0  0  0  0  0  0  0  0  0  0
  -27.8889  -18.0413   21.4584 C   0  0  0  0  0  0  0  0  0  0  0  0
  -30.3483  -27.2049   20.2331 C   0  0  1  0  0  0  0  0  0  0  0  0
  -27.3617  -29.5152   19.8136 C   0  0  1  0  0  0  0  0  0  0  0  0
  -26.6146  -18.3985   20.6730 C   0  0  2  0  0  0  0  0  0  0  0  0
  -19.7466  -22.4639   20.4349 C   0  0  0  0  0  0  0  0  0  0  0  0
  -30.0666  -19.3635   24.9486 C   0  0  0  0  0  0  0  0  0  0  0  0
  -22.3443  -34.5817   22.2417 C   0  0  0  0  0  0  0  0  0  0  0  0
  -28.2790  -32.4481   23.7458 C   0  0  0  0  0  0  0  0  0  0  0  0
  -26.1393  -33.5469   24.4404 C   0  0  0  0  0  0  0  0  0  0  0  0
  -27.2849  -34.2650   22.3440 C   0  0  0  0  0  0  0  0  0  0  0  0
  -26.5710  -17.9066   25.0844 C   0  0  0  0  0  0  0  0  0  0  0  0
  -21.2900  -30.9627   21.7243 C   0  0  0  0  0  0  0  0  0  0  0  0
  -25.4486  -22.7828   24.0952 C   0  0  0  0  0  0  0  0  0  0  0  0
  -21.0199  -23.2842   20.2976 C   0  0  0  0  0  0  0  0  0  0  0  0
  -24.6149  -22.7849   22.8130 C   0  0  0  0  0  0  0  0  0  0  0  0
  -21.8219  -23.2872   21.5964 C   0  0  0  0  0  0  0  0  0  0  0  0
  -23.8171  -24.0812   22.6769 C   0  0  0  0  0  0  0  0  0  0  0  0
  -28.9656  -19.2008   23.9168 C   0  0  1  0  0  0  0  0  0  0  0  0
  -26.1098  -32.0274   22.4103 C   0  0  1  0  0  0  0  0  0  0  0  0
  -22.5290  -33.1288   21.8321 C   0  0  2  0  0  0  0  0  0  0  0  0
  -26.9541  -33.0439   23.2296 C   0  0  0  0  0  0  0  0  0  0  0  0
  -26.0978  -15.9872   20.6337 N   0  0  0  0  0  0  0  0  0  0  0  0
  -25.6276  -17.2461   20.6412 N   0  0  0  0  0  0  0  0  0  0  0  0
  -27.7926  -19.9279   24.3269 N   0  0  0  0  0  0  0  0  0  0  0  0
  -26.6162  -19.2854   24.6739 N   0  0  0  0  0  0  0  0  0  0  0  0
  -26.5328  -30.1758   20.8239 N   0  0  0  0  0  0  0  0  0  0  0  0
  -28.8363  -19.1646   21.4492 N   0  0  0  0  0  0  0  0  0  0  0  0
  -23.6279  -18.5156   20.6229 N   0  0  0  0  0  0  0  0  0  0  0  0
  -21.8222  -15.4437   19.3200 N   0  0  0  0  0  0  0  0  0  0  0  0
  -29.2855  -28.0489   19.7306 N   0  0  0  0  0  0  0  0  0  0  0  0
  -24.8622  -32.5723   21.8860 N   0  0  0  0  0  0  0  0  0  0  0  0
  -23.0433  -24.0734   21.4371 N   0  0  2  0  0  0  0  0  0  1  0  0
  -21.2578  -32.3992   22.1018 N   0  3  0  0  0  0  0  0  0  0  0  0
  -24.4169  -20.0754   24.9682 O   0  0  0  0  0  0  0  0  0  0  0  0
  -21.7768  -15.4304   21.6127 O   0  0  0  0  0  0  0  0  0  0  0  0
  -28.3405  -28.6387   21.7755 O   0  0  0  0  0  0  0  0  0  0  0  0
  -30.2218  -20.6715   22.5491 O   0  0  0  0  0  0  0  0  0  0  0  0
  -27.7085  -32.1830   20.6649 O   0  0  0  0  0  0  0  0  0  0  0  0
  -23.5391  -31.9581   23.6886 O   0  0  0  0  0  0  0  0  0  0  0  0
  -25.3229   -9.6672   20.5380 O   0  0  0  0  0  0  0  0  0  0  0  0
  -22.5861  -25.4555   21.2657 O   0  0  0  0  0  0  0  0  0  1  0  0
  -20.7535   -6.8029   21.6871 F   0  0  0  0  0  0  0  0  0  0  0  0
  -23.0510   -9.9387   18.9864 F   0  0  0  0  0  0  0  0  0  0  0  0
  1  2  1  0  0  0  0
  1  5  2  0  0  0  0
  2  6  2  0  0  0  0
  3  8  2  0  0  0  0
  3 15  1  0  0  0  0
  4  9  1  0  0  0  0
  4 15  2  0  0  0  0
  5 17  1  0  0  0  0
  6 19  1  0  0  0  0
  7 10  2  0  0  0  0
  7 18  1  0  0  0  0
  8 21  1  0  0  0  0
  9 21  2  0  0  0  0
 10 22  1  0  0  0  0
 11 12  2  0  0  0  0
 11 23  1  0  0  0  0
 12 24  1  0  0  0  0
 13 20  1  0  0  0  0
 13 22  2  0  0  0  0
 14 24  2  0  0  0  0
 14 25  1  0  0  0  0
 15 26  1  0  0  0  0
 16 26  1  0  0  0  0
 16 27  2  0  0  0  0
 16 31  1  0  0  0  0
 17 19  2  0  0  0  0
 17 36  1  0  0  0  0
 18 20  2  0  0  0  0
 18 37  1  0  0  0  0
 19 45  1  0  0  0  0
 20 38  1  0  0  0  0
 21 83  1  0  0  0  0
 22 84  1  0  0  0  0
 23 25  2  0  0  0  0
 23 83  1  0  0  0  0
 24 85  1  0  0  0  0
 25 86  1  0  0  0  0
 26 65  2  0  0  0  0
 27 66  1  0  0  0  0
 27 71  1  0  0  0  0
 28 29  2  0  0  0  0
 28 67  1  0  0  0  0
 29 30  1  0  0  0  0
 29 56  1  0  0  0  0
 30 68  1  0  0  0  0
 30 77  2  0  0  0  0
 31 72  1  0  0  0  0
 31 78  2  0  0  0  0
 32 46  1  0  0  0  0
 32 73  1  0  0  0  0
 32 79  2  0  0  0  0
 33 61  1  0  0  0  0
 33 70  1  0  0  0  0
 33 80  2  0  0  0  0
 34 62  1  0  0  0  0
 34 69  1  0  0  0  0
 34 81  2  0  0  0  0
 35 63  1  0  0  0  0
 35 74  1  0  0  0  0
 35 82  2  0  0  0  0
 36 39  1  0  0  0  0
 37 46  1  0  0  0  0
 38 69  1  0  0  0  0
 39 41  1  0  0  0  0
 40 42  1  0  0  0  0
 40 43  1  0  0  0  0
 41 45  1  0  0  0  0
 42 47  1  0  0  0  0
 43 70  1  0  0  0  0
 44 47  1  0  0  0  0
 44 70  1  0  0  0  0
 45 73  1  0  0  0  0
 46 69  1  0  0  0  0
 47 66  1  0  0  0  0
 48 57  1  0  0  0  0
 49 61  1  0  0  0  0
 50 63  1  0  0  0  0
 51 64  1  0  0  0  0
 52 64  1  0  0  0  0
 53 64  1  0  0  0  0
 54 68  1  0  0  0  0
 55 76  1  0  0  0  0
 56 58  1  0  0  0  0
 57 59  1  0  0  0  0
 58 60  1  0  0  0  0
 59 75  1  0  0  0  0
 60 75  1  0  0  0  0
 61 67  1  0  0  0  0
 62 64  1  0  0  0  0
 62 74  1  0  0  0  0
 63 76  1  0  0  0  0
 65 66  1  0  0  0  0
 67 68  1  0  0  0  0
 75 84  1  0  0  0  0
M  CHG  1  76   1
M  ISO  4  33 100  61 100  75 101  84 101
M  END
> <Batch ID>
0058

> <Smiles>
CCC[101N:1](CCCc1cn([100CH:0](C)[100C:0](=O)N2CCCC(n3nc(-c4ccc(Oc5ccc(F)cc5F)cc4)c(C(N)=O)c3N)C2)n(C)c1=O)[101O:1]c1ccc2c(c1)CN(C(=O)C(NC(=O)C(C)NC)C(C)(C)C)C(C(=O)NC1CCCc3ccccc31)C2

> <Shape>
0.244

> <Color>
0.066

> <Negative vol penalty>
0.000

$$$$

  -OEChem-04052317503D

 86 94  0     1  0  0  0  0  0999 V2000
  -28.7560  -26.0678   27.5886 C   0  0  0  0  0  0  0  0  0  0  0  0
  -29.3874  -25.2363   26.6691 C   0  0  0  0  0  0  0  0  0  0  0  0
  -23.1833   -9.8846   19.8687 C   0  0  0  0  0  0  0  0  0  0  0  0
  -23.8688   -9.8600   22.1852 C   0  0  0  0  0  0  0  0  0  0  0  0
  -27.6668  -26.8430   27.1928 C   0  0  0  0  0  0  0  0  0  0  0  0
  -28.9292  -25.1787   25.3534 C   0  0  0  0  0  0  0  0  0  0  0  0
  -32.3123  -24.4057   20.3074 C   0  0  0  0  0  0  0  0  0  0  0  0
  -22.4782   -8.6971   20.0647 C   0  0  0  0  0  0  0  0  0  0  0  0
  -23.1637   -8.6726   22.3813 C   0  0  0  0  0  0  0  0  0  0  0  0
  -32.5945  -23.2832   19.5301 C   0  0  0  0  0  0  0  0  0  0  0  0
  -19.9522   -7.7341   22.8569 C   0  0  0  0  0  0  0  0  0  0  0  0
  -19.1605   -7.6336   24.0009 C   0  0  0  0  0  0  0  0  0  0  0  0
  -30.8109  -23.8864   18.0221 C   0  0  0  0  0  0  0  0  0  0  0  0
  -20.4538   -5.7270   24.7284 C   0  0  0  0  0  0  0  0  0  0  0  0
  -29.8575  -17.9283   19.3121 C   0  0  0  0  0  0  0  0  0  0  0  0
  -23.8786  -10.4660   20.9289 C   0  0  0  0  0  0  0  0  0  0  0  0
  -24.1235  -13.0048   20.8843 C   0  0  0  0  0  0  0  0  0  0  0  0
  -27.2011  -26.8021   25.8691 C   0  0  0  0  0  0  0  0  0  0  0  0
  -31.2685  -25.2725   19.9532 C   0  0  0  0  0  0  0  0  0  0  0  0
  -27.8319  -25.9531   24.9398 C   0  0  0  0  0  0  0  0  0  0  0  0
  -30.5192  -25.0207   18.7951 C   0  0  0  0  0  0  0  0  0  0  0  0
  -22.4684   -8.0912   21.3210 C   0  0  0  0  0  0  0  0  0  0  0  0
  -31.8419  -23.0218   18.3889 C   0  0  0  0  0  0  0  0  0  0  0  0
  -20.9947   -6.8310   22.6486 C   0  0  0  0  0  0  0  0  0  0  0  0
  -19.4113   -6.6301   24.9367 C   0  0  0  0  0  0  0  0  0  0  0  0
  -21.2455   -5.8275   23.5844 C   0  0  0  0  0  0  0  0  0  0  0  0
  -24.6076  -11.6923   20.7269 C   0  0  0  0  0  0  0  0  0  0  0  0
  -30.0304  -19.1965   18.7963 C   0  0  0  0  0  0  0  0  0  0  0  0
  -29.2305  -17.8633   20.5396 C   0  0  0  0  0  0  0  0  0  0  0  0
  -25.1961  -13.8056   20.5762 C   0  0  0  0  0  0  0  0  0  0  0  0
  -29.0278  -20.1262   20.6123 C   0  0  0  0  0  0  0  0  0  0  0  0
  -22.8209  -13.4595   21.2741 C   0  0  0  0  0  0  0  0  0  0  0  0
  -28.5496  -26.1869   21.3227 C   0  0  0  0  0  0  0  0  0  0  0  0
  -28.4091  -28.2106   18.7915 C   0  0  0  0  0  0  0  0  0  0  0  0
  -29.3523  -28.9129   15.5878 C   0  0  0  0  0  0  0  0  0  0  0  0
  -30.7468  -14.7191   21.3962 C   0  0  0  0  0  0  0  0  0  0  0  0
  -25.9907  -27.6226   25.4998 C   0  0  0  0  0  0  0  0  0  0  0  0
  -30.9941  -26.4937   20.7874 C   0  0  0  0  0  0  0  0  0  0  0  0
  -29.4011  -25.9313   18.3603 C   0  0  0  0  0  0  0  0  0  0  0  0
  -25.8019  -27.7858   23.9938 C   0  0  0  0  0  0  0  0  0  0  0  0
  -29.6594  -12.7021   18.4891 C   0  0  0  0  0  0  0  0  0  0  0  0
  -25.9690  -26.4448   23.2864 C   0  0  0  0  0  0  0  0  0  0  0  0
  -28.2315  -12.3135   18.8687 C   0  0  0  0  0  0  0  0  0  0  0  0
  -30.5342  -12.9200   19.7199 C   0  0  0  0  0  0  0  0  0  0  0  0
  -28.5486  -13.5134   21.0687 C   0  0  0  0  0  0  0  0  0  0  0  0
  -27.3797  -25.8818   23.4974 C   0  0  1  0  0  0  0  0  0  0  0  0
  -29.5752  -27.0276   20.6164 C   0  0  1  0  0  0  0  0  0  0  0  0
  -27.6288  -13.3319   19.8520 C   0  0  2  0  0  0  0  0  0  0  0  0
  -29.0478  -30.6202   13.7740 C   0  0  0  0  0  0  0  0  0  0  0  0
  -25.6230  -27.1048   18.2219 C   0  0  0  0  0  0  0  0  0  0  0  0
  -25.7676  -28.1107   15.9337 C   0  0  0  0  0  0  0  0  0  0  0  0
  -25.8386  -29.5812   17.9475 C   0  0  0  0  0  0  0  0  0  0  0  0
  -31.0445  -16.9019   22.5034 C   0  0  0  0  0  0  0  0  0  0  0  0
  -32.2444  -29.5390   15.5316 C   0  0  0  0  0  0  0  0  0  0  0  0
  -30.7051  -19.3692   17.4590 C   0  0  0  0  0  0  0  0  0  0  0  0
  -28.9976  -16.5342   21.1766 C   0  0  0  0  0  0  0  0  0  0  0  0
  -32.2239  -19.5310   17.5518 C   0  0  0  0  0  0  0  0  0  0  0  0
  -32.6527  -20.7878   18.3000 C   0  0  0  0  0  0  0  0  0  1  0  0
  -27.8399  -28.1383   17.3952 C   0  0  1  0  0  0  0  0  0  0  0  0
  -29.9001  -30.1787   14.9536 C   0  0  2  0  0  0  0  0  0  0  0  0
  -28.5636  -21.3462   21.3333 C   0  0  0  0  0  0  0  0  0  0  0  0
  -26.2870  -28.2154   17.3836 C   0  0  0  0  0  0  0  0  0  0  0  0
  -25.8880  -11.6569   20.3482 N   0  0  0  0  0  0  0  0  0  0  0  0
  -29.6263  -20.3216   19.4219 N   0  0  0  0  0  0  0  0  0  0  0  0
  -28.8013  -18.9462   21.2204 N   0  0  0  0  0  0  0  0  0  0  0  0
  -26.2175  -12.9571   20.2649 N   0  0  0  0  0  0  0  0  0  0  0  0
  -29.1673  -27.1089   19.2124 N   0  0  0  0  0  0  0  0  0  0  0  0
  -29.9175  -13.8591   20.6576 N   0  0  0  0  0  0  0  0  0  0  0  0
  -25.3557  -15.1457   20.5439 N   0  0  0  0  0  0  0  0  0  0  0  0
  -21.8356  -12.5031   21.5548 N   0  0  0  0  0  0  0  0  0  0  0  0
  -28.3270  -26.5559   22.6356 N   0  0  0  0  0  0  0  0  0  0  0  0
  -28.4963  -29.1939   16.6316 N   0  0  0  0  0  0  0  0  0  0  0  0
  -30.2190  -15.9708   21.7475 N   0  0  0  0  0  0  0  0  0  0  0  0
  -31.2920  -29.9553   14.4701 N   0  3  0  0  0  0  0  0  0  0  0  0
  -22.5342  -14.6781   21.3548 O   0  0  0  0  0  0  0  0  0  0  0  0
  -27.9999  -25.2720   20.7207 O   0  0  0  0  0  0  0  0  0  0  0  0
  -28.1951  -29.2110   19.4808 O   0  0  0  0  0  0  0  0  0  0  0  0
  -29.6509  -27.7876   15.1941 O   0  0  0  0  0  0  0  0  0  0  0  0
  -31.8969  -14.3908   21.7147 O   0  0  0  0  0  0  0  0  0  0  0  0
  -21.7803   -6.9326   21.5128 O   0  0  0  0  0  0  0  0  0  0  0  0
  -32.1148  -21.9265   17.6288 O   0  0  0  0  0  0  0  0  0  1  0  0
  -18.6519   -6.5347   26.0360 F   0  0  0  0  0  0  0  0  0  0  0  0
  -22.2463   -4.9577   23.3903 F   0  0  0  0  0  0  0  0  0  0  0  0
  -28.8201  -22.5090   20.6637 F   0  0  0  0  0  0  0  0  0  0  0  0
  -27.2186  -21.3621   21.5715 F   0  0  0  0  0  0  0  0  0  0  0  0
  -29.1535  -21.4904   22.5557 F   0  0  0  0  0  0  0  0  0  0  0  0
  1  2  1  0  0  0  0
  1  5  2  0  0  0  0
  2  6  2  0  0  0  0
  3  8  2  0  0  0  0
  3 16  1  0  0  0  0
  4  9  1  0  0  0  0
  4 16  2  0  0  0  0
  5 18  1  0  0  0  0
  6 20  1  0  0  0  0
  7 10  2  0  0  0  0
  7 19  1  0  0  0  0
  8 22  1  0  0  0  0
  9 22  2  0  0  0  0
 10 23  1  0  0  0  0
 11 12  2  0  0  0  0
 11 24  1  0  0  0  0
 12 25  1  0  0  0  0
 13 21  1  0  0  0  0
 13 23  2  0  0  0  0
 14 25  2  0  0  0  0
 14 26  1  0  0  0  0
 15 28  1  0  0  0  0
 15 29  2  0  0  0  0
 16 27  1  0  0  0  0
 17 27  1  0  0  0  0
 17 30  2  0  0  0  0
 17 32  1  0  0  0  0
 18 20  2  0  0  0  0
 18 37  1  0  0  0  0
 19 21  2  0  0  0  0
 19 38  1  0  0  0  0
 20 46  1  0  0  0  0
 21 39  1  0  0  0  0
 22 80  1  0  0  0  0
 23 81  1  0  0  0  0
 24 26  2  0  0  0  0
 24 80  1  0  0  0  0
 25 82  1  0  0  0  0
 26 83  1  0  0  0  0
 27 63  2  0  0  0  0
 28 55  1  0  0  0  0
 28 64  2  0  0  0  0
 29 56  1  0  0  0  0
 29 65  1  0  0  0  0
 30 66  1  0  0  0  0
 30 69  1  0  0  0  0
 31 61  1  0  0  0  0
 31 64  1  0  0  0  0
 31 65  2  0  0  0  0
 32 70  1  0  0  0  0
 32 75  2  0  0  0  0
 33 47  1  0  0  0  0
 33 71  1  0  0  0  0
 33 76  2  0  0  0  0
 34 59  1  0  0  0  0
 34 67  1  0  0  0  0
 34 77  2  0  0  0  0
 35 60  1  0  0  0  0
 35 72  1  0  0  0  0
 35 78  2  0  0  0  0
 36 68  1  0  0  0  0
 36 73  1  0  0  0  0
 36 79  2  0  0  0  0
 37 40  1  0  0  0  0
 38 47  1  0  0  0  0
 39 67  1  0  0  0  0
 40 42  1  0  0  0  0
 41 43  1  0  0  0  0
 41 44  1  0  0  0  0
 42 46  1  0  0  0  0
 43 48  1  0  0  0  0
 44 68  1  0  0  0  0
 45 48  1  0  0  0  0
 45 68  1  0  0  0  0
 46 71  1  0  0  0  0
 47 67  1  0  0  0  0
 48 66  1  0  0  0  0
 49 60  1  0  0  0  0
 50 62  1  0  0  0  0
 51 62  1  0  0  0  0
 52 62  1  0  0  0  0
 53 73  1  0  0  0  0
 54 74  1  0  0  0  0
 55 57  1  0  0  0  0
 56 73  1  0  0  0  0
 57 58  1  0  0  0  0
 58 81  1  0  0  0  0
 59 62  1  0  0  0  0
 59 72  1  0  0  0  0
 60 74  1  0  0  0  0
 61 84  1  0  0  0  0
 61 85  1  0  0  0  0
 61 86  1  0  0  0  0
 63 66  1  0  0  0  0
M  CHG  1  74   1
M  ISO  4  36 100  58 101  73 100  81 101
M  END
> <Batch ID>
0058

> <Smiles>
CNC(C)C(=O)NC(C(=O)N1Cc2cc([101O:1][101CH2:1]CCc3cc(C[100N:0](C)[100C:0](=O)N4CCCC(n5nc(-c6ccc(Oc7ccc(F)cc7F)cc6)c(C(N)=O)c5N)C4)nc(C(F)(F)F)n3)ccc2CC1C(=O)NC1CCCc2ccccc21)C(C)(C)C

> <Shape>
0.290

> <Color>
0.192

> <Negative vol penalty>
0.000

$$$$

  -OEChem-04052317503D

 82 90  0     1  0  0  0  0  0999 V2000
  -17.0180  -28.4531   24.1871 C   0  0  0  0  0  0  0  0  0  0  0  0
  -17.6784  -27.6404   23.2713 C   0  0  0  0  0  0  0  0  0  0  0  0
  -24.9732  -10.5679   22.2714 C   0  0  0  0  0  0  0  0  0  0  0  0
  -24.7473  -12.2403   24.0003 C   0  0  0  0  0  0  0  0  0  0  0  0
  -17.4219  -29.7761   24.3615 C   0  0  0  0  0  0  0  0  0  0  0  0
  -18.7425  -28.1506   22.5284 C   0  0  0  0  0  0  0  0  0  0  0  0
  -22.6810  -24.9729   22.3406 C   0  0  0  0  0  0  0  0  0  0  0  0
  -24.9430   -9.5636   23.2388 C   0  0  0  0  0  0  0  0  0  0  0  0
  -24.7171  -11.2359   24.9678 C   0  0  0  0  0  0  0  0  0  0  0  0
  -22.5899  -23.8975   21.4580 C   0  0  0  0  0  0  0  0  0  0  0  0
  -22.6154   -7.9695   25.1027 C   0  0  0  0  0  0  0  0  0  0  0  0
  -21.8120   -6.8562   24.8565 C   0  0  0  0  0  0  0  0  0  0  0  0
  -23.9536  -25.0944   19.8684 C   0  0  0  0  0  0  0  0  0  0  0  0
  -23.7561   -5.4268   24.9773 C   0  0  0  0  0  0  0  0  0  0  0  0
  -25.6481  -18.7107   22.4720 C   0  0  0  0  0  0  0  0  0  0  0  0
  -24.8754  -11.9062   22.6521 C   0  0  0  0  0  0  0  0  0  0  0  0
  -23.8089  -13.5013   20.9710 C   0  0  0  0  0  0  0  0  0  0  0  0
  -18.4977  -30.3000   23.6274 C   0  0  0  0  0  0  0  0  0  0  0  0
  -23.4012  -26.1235   21.9887 C   0  0  0  0  0  0  0  0  0  0  0  0
  -19.1603  -29.4823   22.6922 C   0  0  0  0  0  0  0  0  0  0  0  0
  -24.0544  -26.1820   20.7493 C   0  0  0  0  0  0  0  0  0  0  0  0
  -24.8149   -9.8976   24.5871 C   0  0  0  0  0  0  0  0  0  0  0  0
  -23.2238  -23.9593   20.2205 C   0  0  0  0  0  0  0  0  0  0  0  0
  -23.9891   -7.8116   25.2862 C   0  0  0  0  0  0  0  0  0  0  0  0
  -22.3824   -5.5848   24.7938 C   0  0  0  0  0  0  0  0  0  0  0  0
  -24.5594   -6.5402   25.2235 C   0  0  0  0  0  0  0  0  0  0  0  0
  -24.9071  -12.9442   21.6532 C   0  0  0  0  0  0  0  0  0  0  0  0
  -25.5177  -18.8674   21.1210 C   0  0  0  0  0  0  0  0  0  0  0  0
  -24.3637  -14.4404   20.1363 C   0  0  0  0  0  0  0  0  0  0  0  0
  -23.4901  -18.8824   22.0092 C   0  0  0  0  0  0  0  0  0  0  0  0
  -22.4122  -13.1973   21.0821 C   0  0  0  0  0  0  0  0  0  0  0  0
  -22.6681  -29.1878   21.5689 C   0  0  0  0  0  0  0  0  0  0  0  0
  -25.8790  -29.5078   21.2374 C   0  0  0  0  0  0  0  0  0  0  0  0
  -28.8706  -28.0585   20.4650 C   0  0  0  0  0  0  0  0  0  0  0  0
  -28.9296  -18.1998   20.4581 C   0  0  0  0  0  0  0  0  0  0  0  0
  -18.8677  -31.7499   23.8161 C   0  0  0  0  0  0  0  0  0  0  0  0
  -23.5121  -27.2641   22.9628 C   0  0  0  0  0  0  0  0  0  0  0  0
  -24.8569  -27.3863   20.3320 C   0  0  0  0  0  0  0  0  0  0  0  0
  -20.2448  -32.1043   23.2610 C   0  0  0  0  0  0  0  0  0  0  0  0
  -28.8560  -15.2296   18.2503 C   0  0  0  0  0  0  0  0  0  0  0  0
  -20.4223  -31.5229   21.8620 C   0  0  0  0  0  0  0  0  0  0  0  0
  -27.7733  -14.3640   18.8925 C   0  0  0  0  0  0  0  0  0  0  0  0
  -29.5481  -16.1245   19.2740 C   0  0  0  0  0  0  0  0  0  0  0  0
  -27.5307  -16.1080   20.7036 C   0  0  0  0  0  0  0  0  0  0  0  0
  -20.3349  -29.9921   21.8856 C   0  0  1  0  0  0  0  0  0  0  0  0
  -23.8438  -28.5932   22.2914 C   0  0  1  0  0  0  0  0  0  0  0  0
  -26.7821  -15.2281   19.6912 C   0  0  2  0  0  0  0  0  0  0  0  0
  -22.0170  -18.9462   22.1777 C   0  0  0  0  0  0  0  0  0  0  0  0
  -31.3150  -28.5823   20.2460 C   0  0  0  0  0  0  0  0  0  0  0  0
  -25.3396  -30.9018   18.5774 C   0  0  0  0  0  0  0  0  0  0  0  0
  -27.7451  -30.5449   17.9821 C   0  0  0  0  0  0  0  0  0  0  0  0
  -27.1453  -31.9475   19.9558 C   0  0  0  0  0  0  0  0  0  0  0  0
  -28.2021  -20.4937   20.9952 C   0  0  0  0  0  0  0  0  0  0  0  0
  -29.5946  -26.1169   22.5781 C   0  0  0  0  0  0  0  0  0  0  0  0
  -26.5378  -18.9271   20.0670 C   0  0  0  0  0  0  0  0  0  0  0  0
  -23.6243  -20.5926   18.9806 C   0  0  0  0  0  0  0  0  0  0  0  0
  -23.5511  -19.1554   19.5011 C   0  0  0  0  0  0  0  0  0  0  0  0
  -22.9972  -21.6102   19.9264 C   0  0  0  0  0  0  0  0  0  1  0  0
  -26.8463  -29.4401   20.0804 C   0  0  1  0  0  0  0  0  0  0  0  0
  -30.2146  -28.0848   21.1703 C   0  0  2  0  0  0  0  0  0  0  0  0
  -26.7524  -30.6865   19.1557 C   0  0  0  0  0  0  0  0  0  0  0  0
  -26.0716  -13.4841   21.2837 N   0  0  0  0  0  0  0  0  0  0  0  0
  -24.1721  -18.9707   20.8626 N   0  0  0  0  0  0  0  0  0  0  0  0
  -25.7082  -14.3904   20.3602 N   0  0  0  0  0  0  0  0  0  0  0  0
  -24.3780  -18.7239   22.9961 N   0  3  0  0  0  0  0  0  0  0  0  0
  -24.9304  -28.4784   21.3166 N   0  0  0  0  0  0  0  0  0  0  0  0
  -28.5805  -16.9025   20.0484 N   0  0  0  0  0  0  0  0  0  0  0  0
  -23.8278  -15.2958   19.2399 N   0  0  0  0  0  0  0  0  0  0  0  0
  -22.0144  -12.2052   21.9886 N   0  0  0  0  0  0  0  0  0  0  0  0
  -21.5716  -29.4228   22.3764 N   0  0  0  0  0  0  0  0  0  0  0  0
  -28.1664  -29.2272   20.6639 N   0  0  0  0  0  0  0  0  0  0  0  0
  -27.8889  -19.1324   20.5844 N   0  0  0  0  0  0  0  0  0  0  0  0
  -30.5788  -26.7190   21.6422 N   0  3  0  0  0  0  0  0  0  0  0  0
  -21.5442  -13.7763   20.3857 O   0  0  0  0  0  0  0  0  0  0  0  0
  -22.7502  -29.4177   20.3680 O   0  0  0  0  0  0  0  0  0  0  0  0
  -25.9665  -30.4358   22.0453 O   0  0  0  0  0  0  0  0  0  0  0  0
  -28.4857  -27.0988   19.8007 O   0  0  0  0  0  0  0  0  0  0  0  0
  -30.1056  -18.5096   20.6881 O   0  0  0  0  0  0  0  0  0  0  0  0
  -24.7852   -8.9178   25.5314 O   0  0  0  0  0  0  0  0  0  0  0  0
  -23.1360  -22.9113   19.3569 O   0  0  0  0  0  0  0  0  0  1  0  0
  -21.6106   -4.5155   24.5589 F   0  0  0  0  0  0  0  0  0  0  0  0
  -25.8784   -6.3820   25.4002 F   0  0  0  0  0  0  0  0  0  0  0  0
  1  2  1  0  0  0  0
  1  5  2  0  0  0  0
  2  6  2  0  0  0  0
  3  8  2  0  0  0  0
  3 16  1  0  0  0  0
  4  9  1  0  0  0  0
  4 16  2  0  0  0  0
  5 18  1  0  0  0  0
  6 20  1  0  0  0  0
  7 10  2  0  0  0  0
  7 19  1  0  0  0  0
  8 22  1  0  0  0  0
  9 22  2  0  0  0  0
 10 23  1  0  0  0  0
 11 12  2  0  0  0  0
 11 24  1  0  0  0  0
 12 25  1  0  0  0  0
 13 21  1  0  0  0  0
 13 23  2  0  0  0  0
 14 25  2  0  0  0  0
 14 26  1  0  0  0  0
 15 28  2  0  0  0  0
 15 65  1  0  0  0  0
 16 27  1  0  0  0  0
 17 27  1  0  0  0  0
 17 29  2  0  0  0  0
 17 31  1  0  0  0  0
 18 20  2  0  0  0  0
 18 36  1  0  0  0  0
 19 21  2  0  0  0  0
 19 37  1  0  0  0  0
 20 45  1  0  0  0  0
 21 38  1  0  0  0  0
 22 79  1  0  0  0  0
 23 80  1  0  0  0  0
 24 26  2  0  0  0  0
 24 79  1  0  0  0  0
 25 81  1  0  0  0  0
 26 82  1  0  0  0  0
 27 62  2  0  0  0  0
 28 55  1  0  0  0  0
 28 63  1  0  0  0  0
 29 64  1  0  0  0  0
 29 68  1  0  0  0  0
 30 48  1  0  0  0  0
 30 63  1  0  0  0  0
 30 65  2  0  0  0  0
 31 69  1  0  0  0  0
 31 74  2  0  0  0  0
 32 46  1  0  0  0  0
 32 70  1  0  0  0  0
 32 75  2  0  0  0  0
 33 59  1  0  0  0  0
 33 66  1  0  0  0  0
 33 76  2  0  0  0  0
 34 60  1  0  0  0  0
 34 71  1  0  0  0  0
 34 77  2  0  0  0  0
 35 67  1  0  0  0  0
 35 72  1  0  0  0  0
 35 78  2  0  0  0  0
 36 39  1  0  0  0  0
 37 46  1  0  0  0  0
 38 66  1  0  0  0  0
 39 41  1  0  0  0  0
 40 42  1  0  0  0  0
 40 43  1  0  0  0  0
 41 45  1  0  0  0  0
 42 47  1  0  0  0  0
 43 67  1  0  0  0  0
 44 47  1  0  0  0  0
 44 67  1  0  0  0  0
 45 70  1  0  0  0  0
 46 66  1  0  0  0  0
 47 64  1  0  0  0  0
 49 60  1  0  0  0  0
 50 61  1  0  0  0  0
 51 61  1  0  0  0  0
 52 61  1  0  0  0  0
 53 72  1  0  0  0  0
 54 73  1  0  0  0  0
 55 72  1  0  0  0  0
 56 57  1  0  0  0  0
 56 58  1  0  0  0  0
 57 63  1  0  0  0  0
 58 80  1  0  0  0  0
 59 61  1  0  0  0  0
 59 71  1  0  0  0  0
 60 73  1  0  0  0  0
 62 64  1  0  0  0  0
M  CHG  2  65   1  73   1
M  ISO  4  35 100  58 101  72 100  80 101
M  END
> <Batch ID>
0058

> <Smiles>
CNC(C)C(=O)NC(C(=O)N1Cc2cc([101O:1][101CH2:1]CCn3c(C[100N:0](C)[100C:0](=O)N4CCCC(n5nc(-c6ccc(Oc7ccc(F)cc7F)cc6)c(C(N)=O)c5N)C4)cnc3C)ccc2CC1C(=O)NC1CCCc2ccccc21)C(C)(C)C

> <Shape>
0.228

> <Color>
0.082

> <Negative vol penalty>
0.000

$$$$

  -OEChem-04052317503D

 85 93  0     1  0  0  0  0  0999 V2000
  -16.9996  -28.6608   24.4527 C   0  0  0  0  0  0  0  0  0  0  0  0
  -17.6855  -27.6713   23.7558 C   0  0  0  0  0  0  0  0  0  0  0  0
  -26.1043  -13.1189   22.5270 C   0  0  0  0  0  0  0  0  0  0  0  0
  -25.1874  -14.7357   20.9835 C   0  0  0  0  0  0  0  0  0  0  0  0
  -17.3136  -30.0033   24.2449 C   0  0  0  0  0  0  0  0  0  0  0  0
  -18.6852  -28.0237   22.8497 C   0  0  0  0  0  0  0  0  0  0  0  0
  -22.8320  -25.1552   23.3194 C   0  0  0  0  0  0  0  0  0  0  0  0
  -24.9542  -12.3408   22.3952 C   0  0  0  0  0  0  0  0  0  0  0  0
  -24.0373  -13.9575   20.8517 C   0  0  0  0  0  0  0  0  0  0  0  0
  -22.7886  -23.8774   22.7635 C   0  0  0  0  0  0  0  0  0  0  0  0
  -22.4129   -9.7498   22.1869 C   0  0  0  0  0  0  0  0  0  0  0  0
  -22.5760   -8.3749   22.0183 C   0  0  0  0  0  0  0  0  0  0  0  0
  -24.0098  -24.6779   20.8433 C   0  0  0  0  0  0  0  0  0  0  0  0
  -23.8346   -8.7722   19.9947 C   0  0  0  0  0  0  0  0  0  0  0  0
  -26.9628  -20.3155   19.2128 C   0  0  0  0  0  0  0  0  0  0  0  0
  -26.2209  -14.3164   21.8212 C   0  0  0  0  0  0  0  0  0  0  0  0
  -28.5804  -15.0449   21.1812 C   0  0  0  0  0  0  0  0  0  0  0  0
  -18.3243  -30.3719   23.3430 C   0  0  0  0  0  0  0  0  0  0  0  0
  -23.4562  -26.2082   22.6353 C   0  0  0  0  0  0  0  0  0  0  0  0
  -19.0121  -29.3724   22.6287 C   0  0  0  0  0  0  0  0  0  0  0  0
  -24.0620  -25.9676   21.3939 C   0  0  0  0  0  0  0  0  0  0  0  0
  -27.9271  -20.6712   20.1337 C   0  0  0  0  0  0  0  0  0  0  0  0
  -23.9207  -12.7601   21.5575 C   0  0  0  0  0  0  0  0  0  0  0  0
  -23.3750  -23.6392   21.5239 C   0  0  0  0  0  0  0  0  0  0  0  0
  -22.9605  -10.6361   21.2593 C   0  0  0  0  0  0  0  0  0  0  0  0
  -23.2868   -7.8861   20.9223 C   0  0  0  0  0  0  0  0  0  0  0  0
  -23.6714  -10.1473   20.1632 C   0  0  0  0  0  0  0  0  0  0  0  0
  -27.4084  -15.1210   21.9574 C   0  0  0  0  0  0  0  0  0  0  0  0
  -27.4872  -20.8139   21.4338 C   0  0  0  0  0  0  0  0  0  0  0  0
  -29.4025  -16.0125   21.7050 C   0  0  0  0  0  0  0  0  0  0  0  0
  -25.3622  -20.2821   20.8265 C   0  0  0  0  0  0  0  0  0  0  0  0
  -28.8975  -14.1773   20.0847 C   0  0  0  0  0  0  0  0  0  0  0  0
  -22.4927  -28.9945   21.4472 C   0  0  0  0  0  0  0  0  0  0  0  0
  -25.6598  -29.4040   20.8778 C   0  0  0  0  0  0  0  0  0  0  0  0
  -28.7198  -27.9810   20.3701 C   0  0  0  0  0  0  0  0  0  0  0  0
  -27.8581  -20.9636   24.9669 C   0  0  0  0  0  0  0  0  0  0  0  0
  -18.5959  -31.8380   23.1167 C   0  0  0  0  0  0  0  0  0  0  0  0
  -23.5177  -27.5747   23.2608 C   0  0  0  0  0  0  0  0  0  0  0  0
  -24.7622  -27.0593   20.6283 C   0  0  0  0  0  0  0  0  0  0  0  0
  -19.9250  -32.1104   22.4170 C   0  0  0  0  0  0  0  0  0  0  0  0
  -30.3462  -18.3429   25.7687 C   0  0  0  0  0  0  0  0  0  0  0  0
  -20.0969  -31.1832   21.2180 C   0  0  0  0  0  0  0  0  0  0  0  0
  -29.9205  -17.1904   24.8607 C   0  0  0  0  0  0  0  0  0  0  0  0
  -29.1665  -19.2340   26.1452 C   0  0  0  0  0  0  0  0  0  0  0  0
  -27.9830  -18.6038   24.0676 C   0  0  0  0  0  0  0  0  0  0  0  0
  -20.1199  -29.7137   21.6558 C   0  0  1  0  0  0  0  0  0  0  0  0
  -23.7311  -28.6894   22.2414 C   0  0  1  0  0  0  0  0  0  0  0  0
  -29.1565  -17.7135   23.6319 C   0  0  2  0  0  0  0  0  0  0  0  0
  -31.1120  -28.5709   19.8937 C   0  0  0  0  0  0  0  0  0  0  0  0
  -24.9341  -29.9900   17.9727 C   0  0  0  0  0  0  0  0  0  0  0  0
  -27.3378  -29.6295   17.3724 C   0  0  0  0  0  0  0  0  0  0  0  0
  -26.7054  -31.4762   18.9257 C   0  0  0  0  0  0  0  0  0  0  0  0
  -27.1798  -22.9606   23.6897 C   0  0  0  0  0  0  0  0  0  0  0  0
  -29.6504  -26.7317   22.8865 C   0  0  0  0  0  0  0  0  0  0  0  0
  -28.4424  -21.1961   22.5160 C   0  0  0  0  0  0  0  0  0  0  0  0
  -23.9206  -20.0626   21.2163 C   0  0  0  0  0  0  0  0  0  0  0  0
  -23.3070  -21.2892   21.8826 C   0  0  0  0  0  0  0  0  0  1  0  0
  -26.5905  -29.0832   19.7334 C   0  0  1  0  0  0  0  0  0  0  0  0
  -30.0812  -28.2778   20.9727 C   0  0  2  0  0  0  0  0  0  0  0  0
  -29.3395  -20.8812   19.7259 C   0  0  0  0  0  0  0  0  0  0  0  0
  -26.3771  -30.0244   18.5143 C   0  0  0  0  0  0  0  0  0  0  0  0
  -25.6663  -20.1122   19.5257 N   0  0  0  0  0  0  0  0  0  0  0  0
  -27.4761  -16.0624   22.9025 N   0  0  0  0  0  0  0  0  0  0  0  0
  -26.2072  -20.6266   21.8170 N   0  0  0  0  0  0  0  0  0  0  0  0
  -28.7005  -16.5867   22.7236 N   0  0  0  0  0  0  0  0  0  0  0  0
  -24.7902  -28.3798   21.2787 N   0  0  0  0  0  0  0  0  0  0  0  0
  -28.4325  -19.6818   24.9612 N   0  0  0  0  0  0  0  0  0  0  0  0
  -30.6503  -16.4196   21.3890 N   0  0  0  0  0  0  0  0  0  0  0  0
  -27.9386  -13.2409   19.6747 N   0  0  0  0  0  0  0  0  0  0  0  0
  -21.4097  -29.3737   22.2172 N   0  0  0  0  0  0  0  0  0  0  0  0
  -27.9410  -29.1156   20.2842 N   0  0  0  0  0  0  0  0  0  0  0  0
  -27.7576  -21.6249   23.7335 N   0  0  0  0  0  0  0  0  0  0  0  0
  -30.5575  -27.1152   21.7743 N   0  3  0  0  0  0  0  0  0  0  0  0
  -30.0048  -14.2197   19.4968 O   0  0  0  0  0  0  0  0  0  0  0  0
  -22.5182  -28.8949   20.2261 O   0  0  0  0  0  0  0  0  0  0  0  0
  -25.7076  -30.5198   21.4017 O   0  0  0  0  0  0  0  0  0  0  0  0
  -28.3825  -26.8559   20.0082 O   0  0  0  0  0  0  0  0  0  0  0  0
  -27.4668  -21.4908   26.0161 O   0  0  0  0  0  0  0  0  0  0  0  0
  -22.7984  -12.0009   21.4285 O   0  0  0  0  0  0  0  0  0  0  0  0
  -23.3335  -22.3931   20.9787 O   0  0  0  0  0  0  0  0  0  1  0  0
  -23.4447   -6.5657   20.7613 F   0  0  0  0  0  0  0  0  0  0  0  0
  -24.2009  -10.9938   19.2694 F   0  0  0  0  0  0  0  0  0  0  0  0
  -29.5645  -20.6896   18.3896 F   0  0  0  0  0  0  0  0  0  0  0  0
  -29.8079  -22.1411   19.9827 F   0  0  0  0  0  0  0  0  0  0  0  0
  -30.2074  -20.0374   20.3619 F   0  0  0  0  0  0  0  0  0  0  0  0
  1  2  1  0  0  0  0
  1  5  2  0  0  0  0
  2  6  2  0  0  0  0
  3  8  2  0  0  0  0
  3 16  1  0  0  0  0
  4  9  1  0  0  0  0
  4 16  2  0  0  0  0
  5 18  1  0  0  0  0
  6 20  1  0  0  0  0
  7 10  2  0  0  0  0
  7 19  1  0  0  0  0
  8 23  1  0  0  0  0
  9 23  2  0  0  0  0
 10 24  1  0  0  0  0
 11 12  2  0  0  0  0
 11 25  1  0  0  0  0
 12 26  1  0  0  0  0
 13 21  1  0  0  0  0
 13 24  2  0  0  0  0
 14 26  2  0  0  0  0
 14 27  1  0  0  0  0
 15 22  1  0  0  0  0
 15 62  2  0  0  0  0
 16 28  1  0  0  0  0
 17 28  1  0  0  0  0
 17 30  2  0  0  0  0
 17 32  1  0  0  0  0
 18 20  2  0  0  0  0
 18 37  1  0  0  0  0
 19 21  2  0  0  0  0
 19 38  1  0  0  0  0
 20 46  1  0  0  0  0
 21 39  1  0  0  0  0
 22 29  2  0  0  0  0
 22 60  1  0  0  0  0
 23 79  1  0  0  0  0
 24 80  1  0  0  0  0
 25 27  2  0  0  0  0
 25 79  1  0  0  0  0
 26 81  1  0  0  0  0
 27 82  1  0  0  0  0
 28 63  2  0  0  0  0
 29 55  1  0  0  0  0
 29 64  1  0  0  0  0
 30 65  1  0  0  0  0
 30 68  1  0  0  0  0
 31 56  1  0  0  0  0
 31 62  1  0  0  0  0
 31 64  2  0  0  0  0
 32 69  1  0  0  0  0
 32 74  2  0  0  0  0
 33 47  1  0  0  0  0
 33 70  1  0  0  0  0
 33 75  2  0  0  0  0
 34 58  1  0  0  0  0
 34 66  1  0  0  0  0
 34 76  2  0  0  0  0
 35 59  1  0  0  0  0
 35 71  1  0  0  0  0
 35 77  2  0  0  0  0
 36 67  1  0  0  0  0
 36 72  1  0  0  0  0
 36 78  2  0  0  0  0
 37 40  1  0  0  0  0
 38 47  1  0  0  0  0
 39 66  1  0  0  0  0
 40 42  1  0  0  0  0
 41 43  1  0  0  0  0
 41 44  1  0  0  0  0
 42 46  1  0  0  0  0
 43 48  1  0  0  0  0
 44 67  1  0  0  0  0
 45 48  1  0  0  0  0
 45 67  1  0  0  0  0
 46 70  1  0  0  0  0
 47 66  1  0  0  0  0
 48 65  1  0  0  0  0
 49 59  1  0  0  0  0
 50 61  1  0  0  0  0
 51 61  1  0  0  0  0
 52 61  1  0  0  0  0
 53 72  1  0  0  0  0
 54 73  1  0  0  0  0
 55 72  1  0  0  0  0
 56 57  1  0  0  0  0
 57 80  1  0  0  0  0
 58 61  1  0  0  0  0
 58 71  1  0  0  0  0
 59 73  1  0  0  0  0
 60 83  1  0  0  0  0
 60 84  1  0  0  0  0
 60 85  1  0  0  0  0
 63 65  1  0  0  0  0
M  CHG  1  73   1
M  ISO  4  36 100  57 101  72 100  80 101
M  END
> <Batch ID>
0058

> <Smiles>
CNC(C)C(=O)NC(C(=O)N1Cc2cc([101O:1][101CH2:1]Cc3ncc(C(F)(F)F)c(C[100N:0](C)[100C:0](=O)N4CCCC(n5nc(-c6ccc(Oc7ccc(F)cc7F)cc6)c(C(N)=O)c5N)C4)n3)ccc2CC1C(=O)NC1CCCc2ccccc21)C(C)(C)C

> <Shape>
0.238

> <Color>
0.078

> <Negative vol penalty>
0.000

$$$$

  -OEChem-04052317503D

 86 94  0     1  0  0  0  0  0999 V2000
  -27.1456  -38.0716   20.2146 C   0  0  0  0  0  0  0  0  0  0  0  0
  -27.6460  -36.9052   19.6449 C   0  0  0  0  0  0  0  0  0  0  0  0
  -26.4535  -10.6448   18.1755 C   0  0  0  0  0  0  0  0  0  0  0  0
  -27.3310   -9.9382   20.3128 C   0  0  0  0  0  0  0  0  0  0  0  0
  -26.4892  -38.0198   21.4435 C   0  0  0  0  0  0  0  0  0  0  0  0
  -27.4912  -35.6864   20.3044 C   0  0  0  0  0  0  0  0  0  0  0  0
  -26.5483  -28.7078   18.9904 C   0  0  0  0  0  0  0  0  0  0  0  0
  -27.3483   -9.7939   17.5268 C   0  0  0  0  0  0  0  0  0  0  0  0
  -28.2258   -9.0873   19.6641 C   0  0  0  0  0  0  0  0  0  0  0  0
  -27.0930  -27.4670   19.3180 C   0  0  0  0  0  0  0  0  0  0  0  0
  -30.6225   -9.7946   16.6876 C   0  0  0  0  0  0  0  0  0  0  0  0
  -31.3115  -10.2989   15.5847 C   0  0  0  0  0  0  0  0  0  0  0  0
  -25.8721  -27.4868   21.3984 C   0  0  0  0  0  0  0  0  0  0  0  0
  -30.3387   -8.5813   14.1916 C   0  0  0  0  0  0  0  0  0  0  0  0
  -27.9685  -22.4840   22.5009 C   0  0  0  0  0  0  0  0  0  0  0  0
  -26.4448  -10.7170   19.5685 C   0  0  0  0  0  0  0  0  0  0  0  0
  -24.2176  -11.2889   20.6730 C   0  0  0  0  0  0  0  0  0  0  0  0
  -26.3178  -36.7984   22.1139 C   0  0  0  0  0  0  0  0  0  0  0  0
  -25.6684  -29.3536   19.8708 C   0  0  0  0  0  0  0  0  0  0  0  0
  -26.8331  -35.6184   21.5442 C   0  0  0  0  0  0  0  0  0  0  0  0
  -25.3156  -28.7347   21.0785 C   0  0  0  0  0  0  0  0  0  0  0  0
  -28.5084  -23.0331   21.3636 C   0  0  0  0  0  0  0  0  0  0  0  0
  -28.2344   -9.0151   18.2711 C   0  0  0  0  0  0  0  0  0  0  0  0
  -26.7572  -26.8576   20.5234 C   0  0  0  0  0  0  0  0  0  0  0  0
  -29.7916   -8.6836   16.5426 C   0  0  0  0  0  0  0  0  0  0  0  0
  -31.1696   -9.6923   14.3366 C   0  0  0  0  0  0  0  0  0  0  0  0
  -29.6497   -8.0770   15.2946 C   0  0  0  0  0  0  0  0  0  0  0  0
  -25.5211  -11.5962   20.2392 C   0  0  0  0  0  0  0  0  0  0  0  0
  -28.1530  -22.1374   20.3373 C   0  0  0  0  0  0  0  0  0  0  0  0
  -23.7630  -12.4519   21.2451 C   0  0  0  0  0  0  0  0  0  0  0  0
  -23.4833  -10.0619   20.5683 C   0  0  0  0  0  0  0  0  0  0  0  0
  -25.7112  -32.0986   21.4730 C   0  0  0  0  0  0  0  0  0  0  0  0
  -22.6773  -31.2472   22.2427 C   0  0  0  0  0  0  0  0  0  0  0  0
  -20.3783  -28.7555   22.6345 C   0  0  0  0  0  0  0  0  0  0  0  0
  -26.3922  -16.9258   23.8295 C   0  0  0  0  0  0  0  0  0  0  0  0
  -25.6430  -36.7990   23.4627 C   0  0  0  0  0  0  0  0  0  0  0  0
  -25.0686  -30.6796   19.4908 C   0  0  0  0  0  0  0  0  0  0  0  0
  -24.3596  -29.3769   22.0491 C   0  0  0  0  0  0  0  0  0  0  0  0
  -25.1910  -35.4140   23.9183 C   0  0  0  0  0  0  0  0  0  0  0  0
  -24.2715  -17.1955   21.0185 C   0  0  0  0  0  0  0  0  0  0  0  0
  -26.3028  -34.3920   23.7029 C   0  0  0  0  0  0  0  0  0  0  0  0
  -24.2298  -15.7479   20.5309 C   0  0  0  0  0  0  0  0  0  0  0  0
  -25.6679  -17.6020   21.4929 C   0  0  0  0  0  0  0  0  0  0  0  0
  -26.2010  -15.2443   22.0216 C   0  0  0  0  0  0  0  0  0  0  0  0
  -26.6631  -34.2737   22.2171 C   0  0  1  0  0  0  0  0  0  0  0  0
  -24.5838  -31.4829   20.6937 C   0  0  1  0  0  0  0  0  0  0  0  0
  -24.7957  -14.7923   21.5956 C   0  0  2  0  0  0  0  0  0  0  0  0
  -28.4735  -22.2347   18.9025 C   0  0  0  0  0  0  0  0  0  0  0  0
  -17.9932  -28.3642   23.3094 C   0  0  0  0  0  0  0  0  0  0  0  0
  -27.6389  -19.7407   25.8743 C   0  0  0  0  0  0  0  0  0  0  0  0
  -25.1852  -19.1929   25.8204 C   0  0  0  0  0  0  0  0  0  0  0  0
  -30.7497  -24.1329   20.6954 C   0  0  0  0  0  0  0  0  0  0  0  0
  -29.4682  -24.9638   22.6562 C   0  0  0  0  0  0  0  0  0  0  0  0
  -23.4448  -31.6333   25.1704 C   0  0  0  0  0  0  0  0  0  0  0  0
  -21.3944  -30.3447   25.8056 C   0  0  0  0  0  0  0  0  0  0  0  0
  -21.1777  -32.4972   24.5636 C   0  0  0  0  0  0  0  0  0  0  0  0
  -19.6921  -27.6285   19.9854 C   0  0  0  0  0  0  0  0  0  0  0  0
  -26.6326  -20.4118   22.9486 C   0  0  0  0  0  0  0  0  0  0  0  0
  -27.4431  -19.1624   23.2838 C   0  0  0  0  0  0  0  0  0  0  0  0
  -28.5857  -25.3489   20.3325 C   0  0  0  0  0  0  0  0  0  1  0  0
  -22.0401  -30.4506   23.3555 C   0  0  1  0  0  0  0  0  0  0  0  0
  -18.9452  -28.6222   22.1519 C   0  0  2  0  0  0  0  0  0  0  0  0
  -26.5940  -18.6806   25.5494 C   0  0  0  0  0  0  0  0  0  0  0  0
  -29.3196  -24.3376   21.2505 C   0  0  0  0  0  0  0  0  0  0  0  0
  -22.0338  -31.2200   24.7066 C   0  0  0  0  0  0  0  0  0  0  0  0
  -25.8719  -12.8558   20.5122 N   0  0  0  0  0  0  0  0  0  0  0  0
  -27.4423  -21.0981   20.7833 N   0  0  0  0  0  0  0  0  0  0  0  0
  -27.3470  -21.3373   22.1023 N   0  0  0  0  0  0  0  0  0  0  0  0
  -24.7820  -13.3502   21.1236 N   0  0  0  0  0  0  0  0  0  0  0  0
  -23.8046  -30.6762   21.6352 N   0  0  0  0  0  0  0  0  0  0  0  0
  -26.1896  -16.6383   22.4717 N   0  0  0  0  0  0  0  0  0  0  0  0
  -22.5949  -12.7836   21.8351 N   0  0  0  0  0  0  0  0  0  0  0  0
  -24.1000   -8.9648   19.9516 N   0  0  0  0  0  0  0  0  0  0  0  0
  -25.6752  -33.4792   21.5192 N   0  0  0  0  0  0  0  0  0  0  0  0
  -20.7149  -30.0703   22.8783 N   0  0  0  0  0  0  0  0  0  0  0  0
  -26.7177  -18.2487   24.1643 N   0  0  0  0  0  0  0  0  0  0  0  0
  -18.8270  -27.4938   21.1856 N   0  3  0  0  0  0  0  0  0  0  0  0
  -22.3090   -9.9468   20.9939 O   0  0  0  0  0  0  0  0  0  0  0  0
  -26.5509  -31.3746   21.9951 O   0  0  0  0  0  0  0  0  0  0  0  0
  -22.1884  -32.3326   21.9193 O   0  0  0  0  0  0  0  0  0  0  0  0
  -21.1234  -27.7896   22.7842 O   0  0  0  0  0  0  0  0  0  0  0  0
  -26.2958  -16.0472   24.6961 O   0  0  0  0  0  0  0  0  0  0  0  0
  -29.1076   -8.1845   17.6384 O   0  0  0  0  0  0  0  0  0  0  0  0
  -27.2880  -25.6467   20.8458 O   0  0  0  0  0  0  0  0  0  1  0  0
  -31.8301  -10.1777   13.2773 F   0  0  0  0  0  0  0  0  0  0  0  0
  -28.8520   -7.0101   15.1488 F   0  0  0  0  0  0  0  0  0  0  0  0
  1  2  1  0  0  0  0
  1  5  2  0  0  0  0
  2  6  2  0  0  0  0
  3  8  2  0  0  0  0
  3 16  1  0  0  0  0
  4  9  1  0  0  0  0
  4 16  2  0  0  0  0
  5 18  1  0  0  0  0
  6 20  1  0  0  0  0
  7 10  2  0  0  0  0
  7 19  1  0  0  0  0
  8 23  1  0  0  0  0
  9 23  2  0  0  0  0
 10 24  1  0  0  0  0
 11 12  2  0  0  0  0
 11 25  1  0  0  0  0
 12 26  1  0  0  0  0
 13 21  1  0  0  0  0
 13 24  2  0  0  0  0
 14 26  2  0  0  0  0
 14 27  1  0  0  0  0
 15 22  2  0  0  0  0
 15 68  1  0  0  0  0
 16 28  1  0  0  0  0
 17 28  1  0  0  0  0
 17 30  2  0  0  0  0
 17 31  1  0  0  0  0
 18 20  2  0  0  0  0
 18 36  1  0  0  0  0
 19 21  2  0  0  0  0
 19 37  1  0  0  0  0
 20 45  1  0  0  0  0
 21 38  1  0  0  0  0
 22 29  1  0  0  0  0
 22 64  1  0  0  0  0
 23 83  1  0  0  0  0
 24 84  1  0  0  0  0
 25 27  2  0  0  0  0
 25 83  1  0  0  0  0
 26 85  1  0  0  0  0
 27 86  1  0  0  0  0
 28 66  2  0  0  0  0
 29 48  1  0  0  0  0
 29 67  2  0  0  0  0
 30 69  1  0  0  0  0
 30 72  1  0  0  0  0
 31 73  1  0  0  0  0
 31 78  2  0  0  0  0
 32 46  1  0  0  0  0
 32 74  1  0  0  0  0
 32 79  2  0  0  0  0
 33 61  1  0  0  0  0
 33 70  1  0  0  0  0
 33 80  2  0  0  0  0
 34 62  1  0  0  0  0
 34 75  1  0  0  0  0
 34 81  2  0  0  0  0
 35 71  1  0  0  0  0
 35 76  1  0  0  0  0
 35 82  2  0  0  0  0
 36 39  1  0  0  0  0
 37 46  1  0  0  0  0
 38 70  1  0  0  0  0
 39 41  1  0  0  0  0
 40 42  1  0  0  0  0
 40 43  1  0  0  0  0
 41 45  1  0  0  0  0
 42 47  1  0  0  0  0
 43 71  1  0  0  0  0
 44 47  1  0  0  0  0
 44 71  1  0  0  0  0
 45 74  1  0  0  0  0
 46 70  1  0  0  0  0
 47 69  1  0  0  0  0
 49 62  1  0  0  0  0
 50 63  1  0  0  0  0
 51 63  1  0  0  0  0
 52 64  1  0  0  0  0
 53 64  1  0  0  0  0
 54 65  1  0  0  0  0
 55 65  1  0  0  0  0
 56 65  1  0  0  0  0
 57 77  1  0  0  0  0
 58 59  1  0  0  0  0
 58 68  1  0  0  0  0
 59 76  1  0  0  0  0
 60 64  1  0  0  0  0
 60 84  1  0  0  0  0
 61 65  1  0  0  0  0
 61 75  1  0  0  0  0
 62 77  1  0  0  0  0
 63 76  1  0  0  0  0
 66 69  1  0  0  0  0
 67 68  1  0  0  0  0
M  CHG  1  77   1
M  ISO  4  35 100  60 101  76 100  84 101
M  END
> <Batch ID>
0058

> <Smiles>
CNC(C)C(=O)NC(C(=O)N1Cc2cc([101O:1][101CH2:1]C(C)(C)c3cn(CC[100N:0](C(C)C)[100C:0](=O)N4CCCC(n5nc(-c6ccc(Oc7ccc(F)cc7F)cc6)c(C(N)=O)c5N)C4)nc3C)ccc2CC1C(=O)NC1CCCc2ccccc21)C(C)(C)C

> <Shape>
0.229

> <Color>
0.077

> <Negative vol penalty>
0.000

$$$$

  -OEChem-04052317503D

 88 96  0     1  0  0  0  0  0999 V2000
  -29.5236  -33.9436   21.8094 C   0  0  0  0  0  0  0  0  0  0  0  0
  -29.7865  -32.6436   21.3893 C   0  0  0  0  0  0  0  0  0  0  0  0
  -23.2614   -9.8382   19.8652 C   0  0  0  0  0  0  0  0  0  0  0  0
  -23.8138   -9.8830   22.2168 C   0  0  0  0  0  0  0  0  0  0  0  0
  -28.2074  -34.3963   21.8896 C   0  0  0  0  0  0  0  0  0  0  0  0
  -28.7331  -31.7952   21.0502 C   0  0  0  0  0  0  0  0  0  0  0  0
  -28.7261  -27.4966   16.6881 C   0  0  0  0  0  0  0  0  0  0  0  0
  -22.5360   -8.6626   20.0579 C   0  0  0  0  0  0  0  0  0  0  0  0
  -23.0883   -8.7073   22.4096 C   0  0  0  0  0  0  0  0  0  0  0  0
  -28.9148  -26.1159   16.7315 C   0  0  0  0  0  0  0  0  0  0  0  0
  -19.4978   -7.7770   21.2487 C   0  0  0  0  0  0  0  0  0  0  0  0
  -18.2414   -7.6850   20.6499 C   0  0  0  0  0  0  0  0  0  0  0  0
  -26.5244  -25.7974   16.7949 C   0  0  0  0  0  0  0  0  0  0  0  0
  -18.9792   -5.7542   19.3989 C   0  0  0  0  0  0  0  0  0  0  0  0
  -23.9003  -10.4485   20.9447 C   0  0  0  0  0  0  0  0  0  0  0  0
  -24.1695  -12.9828   20.8341 C   0  0  0  0  0  0  0  0  0  0  0  0
  -27.1378  -33.5561   21.5420 C   0  0  0  0  0  0  0  0  0  0  0  0
  -27.4333  -28.0393   16.7088 C   0  0  0  0  0  0  0  0  0  0  0  0
  -27.4012  -32.2367   21.1271 C   0  0  0  0  0  0  0  0  0  0  0  0
  -26.3220  -27.1852   16.7491 C   0  0  0  0  0  0  0  0  0  0  0  0
  -29.8351  -20.1448   19.4392 C   0  0  0  0  0  0  0  0  0  0  0  0
  -22.4495   -8.0971   21.3301 C   0  0  0  0  0  0  0  0  0  0  0  0
  -27.8139  -25.2662   16.7879 C   0  0  0  0  0  0  0  0  0  0  0  0
  -20.4949   -6.8577   20.9226 C   0  0  0  0  0  0  0  0  0  0  0  0
  -17.9821   -6.6735   19.7250 C   0  0  0  0  0  0  0  0  0  0  0  0
  -20.2356   -5.8463   19.9977 C   0  0  0  0  0  0  0  0  0  0  0  0
  -24.6503  -11.6626   20.7461 C   0  0  0  0  0  0  0  0  0  0  0  0
  -30.2490  -18.9438   18.9001 C   0  0  0  0  0  0  0  0  0  0  0  0
  -29.1437  -20.0579   20.6302 C   0  0  0  0  0  0  0  0  0  0  0  0
  -25.2647  -13.7660   20.5628 C   0  0  0  0  0  0  0  0  0  0  0  0
  -29.3284  -17.7923   20.6304 C   0  0  0  0  0  0  0  0  0  0  0  0
  -22.8507  -13.4587   21.1344 C   0  0  0  0  0  0  0  0  0  0  0  0
  -25.8352  -29.9530   18.6806 C   0  0  0  0  0  0  0  0  0  0  0  0
  -23.5787  -29.8208   16.3540 C   0  0  0  0  0  0  0  0  0  0  0  0
  -22.2393  -28.1294   13.7098 C   0  0  0  0  0  0  0  0  0  0  0  0
  -30.7675  -14.6669   21.6696 C   0  0  0  0  0  0  0  0  0  0  0  0
  -25.7294  -34.0749   21.6900 C   0  0  0  0  0  0  0  0  0  0  0  0
  -27.2461  -29.5299   16.6345 C   0  0  0  0  0  0  0  0  0  0  0  0
  -24.9129  -27.7170   16.7530 C   0  0  0  0  0  0  0  0  0  0  0  0
  -24.6898  -33.2333   20.9543 C   0  0  0  0  0  0  0  0  0  0  0  0
  -29.8298  -12.5657   18.7701 C   0  0  0  0  0  0  0  0  0  0  0  0
  -24.9117  -31.7496   21.2304 C   0  0  0  0  0  0  0  0  0  0  0  0
  -28.3793  -12.1992   19.0795 C   0  0  0  0  0  0  0  0  0  0  0  0
  -30.6350  -12.8168   20.0414 C   0  0  0  0  0  0  0  0  0  0  0  0
  -28.5811  -13.4666   21.2552 C   0  0  0  0  0  0  0  0  0  0  0  0
  -26.2868  -31.2943   20.7270 C   0  0  1  0  0  0  0  0  0  0  0  0
  -25.8979  -29.9907   17.1798 C   0  0  1  0  0  0  0  0  0  0  0  0
  -27.7305  -13.2526   19.9941 C   0  0  2  0  0  0  0  0  0  0  0  0
  -31.0953  -17.5079   17.0270 C   0  0  0  0  0  0  0  0  0  0  0  0
  -20.3761  -28.2514   12.0331 C   0  0  0  0  0  0  0  0  0  0  0  0
  -21.5903  -28.9665   18.5050 C   0  0  0  0  0  0  0  0  0  0  0  0
  -20.0547  -28.1996   16.6824 C   0  0  0  0  0  0  0  0  0  0  0  0
  -20.6907  -30.6062   16.8447 C   0  0  0  0  0  0  0  0  0  0  0  0
  -31.0207  -16.8820   22.7228 C   0  0  0  0  0  0  0  0  0  0  0  0
  -24.1336  -28.2030   11.4371 C   0  0  0  0  0  0  0  0  0  0  0  0
  -30.1215  -21.4658   18.7709 C   0  0  0  0  0  0  0  0  0  0  0  0
  -31.0065  -18.9137   17.6134 C   0  0  0  0  0  0  0  0  0  0  0  0
  -29.0495  -16.4861   21.2933 C   0  0  0  0  0  0  0  0  0  0  0  0
  -28.9114  -22.0685   18.0540 C   0  0  0  0  0  0  0  0  0  0  0  0
  -29.1872  -23.4428   17.4550 C   0  0  0  0  0  0  0  0  0  1  0  0
  -22.4030  -28.9223   16.0548 C   0  0  1  0  0  0  0  0  0  0  0  0
  -21.8303  -28.5900   12.3223 C   0  0  2  0  0  0  0  0  0  0  0  0
  -28.6448  -21.2917   21.3075 C   0  0  0  0  0  0  0  0  0  0  0  0
  -21.2111  -29.1634   17.0236 C   0  0  0  0  0  0  0  0  0  0  0  0
  -25.9498  -11.6063   20.4425 N   0  0  0  0  0  0  0  0  0  0  0  0
  -30.0120  -17.7446   19.4711 N   0  0  0  0  0  0  0  0  0  0  0  0
  -28.8716  -18.8940   21.2559 N   0  0  0  0  0  0  0  0  0  0  0  0
  -26.2948  -12.9009   20.3373 N   0  0  0  0  0  0  0  0  0  0  0  0
  -24.7819  -29.1818   16.6854 N   0  0  0  0  0  0  0  0  0  0  0  0
  -29.9742  -13.7895   20.9122 N   0  0  0  0  0  0  0  0  0  0  0  0
  -25.4375  -15.1032   20.4975 N   0  0  0  0  0  0  0  0  0  0  0  0
  -21.8428  -12.5185   21.3882 N   0  0  0  0  0  0  0  0  0  0  0  0
  -26.2656  -31.1157   19.2910 N   0  0  0  0  0  0  0  0  0  0  0  0
  -22.0799  -29.1281   14.6471 N   0  0  0  0  0  0  0  0  0  0  0  0
  -30.2315  -15.9328   21.9506 N   0  0  0  0  0  0  0  0  0  0  0  0
  -22.6800  -27.9353   11.2878 N   0  3  0  0  0  0  0  0  0  0  0  0
  -22.5705  -14.6811   21.1601 O   0  0  0  0  0  0  0  0  0  0  0  0
  -25.4254  -28.9444   19.2430 O   0  0  0  0  0  0  0  0  0  0  0  0
  -23.4366  -31.0444   16.2890 O   0  0  0  0  0  0  0  0  0  0  0  0
  -22.6548  -26.9959   13.9398 O   0  0  0  0  0  0  0  0  0  0  0  0
  -31.8947  -14.3411   22.0635 O   0  0  0  0  0  0  0  0  0  0  0  0
  -21.7415   -6.9500   21.5186 O   0  0  0  0  0  0  0  0  0  0  0  0
  -27.9952  -23.9182   16.8310 O   0  0  0  0  0  0  0  0  0  1  0  0
  -16.7751   -6.5843   19.1512 F   0  0  0  0  0  0  0  0  0  0  0  0
  -21.1892   -4.9595   19.6813 F   0  0  0  0  0  0  0  0  0  0  0  0
  -28.9441  -22.4419   20.6357 F   0  0  0  0  0  0  0  0  0  0  0  0
  -27.2895  -21.3144   21.4692 F   0  0  0  0  0  0  0  0  0  0  0  0
  -29.1671  -21.4498   22.5578 F   0  0  0  0  0  0  0  0  0  0  0  0
  1  2  1  0  0  0  0
  1  5  2  0  0  0  0
  2  6  2  0  0  0  0
  3  8  2  0  0  0  0
  3 15  1  0  0  0  0
  4  9  1  0  0  0  0
  4 15  2  0  0  0  0
  5 17  1  0  0  0  0
  6 19  1  0  0  0  0
  7 10  2  0  0  0  0
  7 18  1  0  0  0  0
  8 22  1  0  0  0  0
  9 22  2  0  0  0  0
 10 23  1  0  0  0  0
 11 12  2  0  0  0  0
 11 24  1  0  0  0  0
 12 25  1  0  0  0  0
 13 20  1  0  0  0  0
 13 23  2  0  0  0  0
 14 25  2  0  0  0  0
 14 26  1  0  0  0  0
 15 27  1  0  0  0  0
 16 27  1  0  0  0  0
 16 30  2  0  0  0  0
 16 32  1  0  0  0  0
 17 19  2  0  0  0  0
 17 37  1  0  0  0  0
 18 20  2  0  0  0  0
 18 38  1  0  0  0  0
 19 46  1  0  0  0  0
 20 39  1  0  0  0  0
 21 28  2  0  0  0  0
 21 29  1  0  0  0  0
 21 56  1  0  0  0  0
 22 82  1  0  0  0  0
 23 83  1  0  0  0  0
 24 26  2  0  0  0  0
 24 82  1  0  0  0  0
 25 84  1  0  0  0  0
 26 85  1  0  0  0  0
 27 65  2  0  0  0  0
 28 57  1  0  0  0  0
 28 66  1  0  0  0  0
 29 63  1  0  0  0  0
 29 67  2  0  0  0  0
 30 68  1  0  0  0  0
 30 71  1  0  0  0  0
 31 58  1  0  0  0  0
 31 66  2  0  0  0  0
 31 67  1  0  0  0  0
 32 72  1  0  0  0  0
 32 77  2  0  0  0  0
 33 47  1  0  0  0  0
 33 73  1  0  0  0  0
 33 78  2  0  0  0  0
 34 61  1  0  0  0  0
 34 69  1  0  0  0  0
 34 79  2  0  0  0  0
 35 62  1  0  0  0  0
 35 74  1  0  0  0  0
 35 80  2  0  0  0  0
 36 70  1  0  0  0  0
 36 75  1  0  0  0  0
 36 81  2  0  0  0  0
 37 40  1  0  0  0  0
 38 47  1  0  0  0  0
 39 69  1  0  0  0  0
 40 42  1  0  0  0  0
 41 43  1  0  0  0  0
 41 44  1  0  0  0  0
 42 46  1  0  0  0  0
 43 48  1  0  0  0  0
 44 70  1  0  0  0  0
 45 48  1  0  0  0  0
 45 70  1  0  0  0  0
 46 73  1  0  0  0  0
 47 69  1  0  0  0  0
 48 68  1  0  0  0  0
 49 57  1  0  0  0  0
 50 62  1  0  0  0  0
 51 64  1  0  0  0  0
 52 64  1  0  0  0  0
 53 64  1  0  0  0  0
 54 75  1  0  0  0  0
 55 76  1  0  0  0  0
 56 59  1  0  0  0  0
 58 75  1  0  0  0  0
 59 60  1  0  0  0  0
 60 83  1  0  0  0  0
 61 64  1  0  0  0  0
 61 74  1  0  0  0  0
 62 76  1  0  0  0  0
 63 86  1  0  0  0  0
 63 87  1  0  0  0  0
 63 88  1  0  0  0  0
 65 68  1  0  0  0  0
M  CHG  1  76   1
M  ISO  4  36 100  60 101  75 100  83 101
M  END
> <Batch ID>
0058

> <Smiles>
CCc1nc(C[100N:0](C)[100C:0](=O)N2CCCC(n3nc(-c4ccc(Oc5ccc(F)cc5F)cc4)c(C(N)=O)c3N)C2)nc(C(F)(F)F)c1CC[101CH2:1][101O:1]c1ccc2c(c1)CN(C(=O)C(NC(=O)C(C)NC)C(C)(C)C)C(C(=O)NC1CCCc3ccccc31)C2

> <Shape>
0.239

> <Color>
0.186

> <Negative vol penalty>
0.000

$$$$

  -OEChem-04052317503D

 83 91  0     1  0  0  0  0  0999 V2000
  -21.3785  -34.3992   18.0568 C   0  0  0  0  0  0  0  0  0  0  0  0
  -21.2455  -33.0422   17.7805 C   0  0  0  0  0  0  0  0  0  0  0  0
  -23.0962   -9.9480   21.5461 C   0  0  0  0  0  0  0  0  0  0  0  0
  -23.8519  -10.9176   23.6260 C   0  0  0  0  0  0  0  0  0  0  0  0
  -22.4054  -34.8425   18.8893 C   0  0  0  0  0  0  0  0  0  0  0  0
  -22.1400  -32.1278   18.3356 C   0  0  0  0  0  0  0  0  0  0  0  0
  -22.4519  -25.3986   20.7722 C   0  0  0  0  0  0  0  0  0  0  0  0
  -22.3739   -8.9886   22.2558 C   0  0  0  0  0  0  0  0  0  0  0  0
  -23.1296   -9.9583   24.3357 C   0  0  0  0  0  0  0  0  0  0  0  0
  -23.1929  -24.2285   20.6124 C   0  0  0  0  0  0  0  0  0  0  0  0
  -23.0087   -6.0993   23.8909 C   0  0  0  0  0  0  0  0  0  0  0  0
  -23.0967   -4.7749   23.4623 C   0  0  0  0  0  0  0  0  0  0  0  0
  -24.8799  -25.1010   22.0997 C   0  0  0  0  0  0  0  0  0  0  0  0
  -20.7101   -4.7372   23.0886 C   0  0  0  0  0  0  0  0  0  0  0  0
  -28.1009  -21.2495   20.6989 C   0  0  0  0  0  0  0  0  0  0  0  0
  -23.8352  -10.9124   22.2312 C   0  0  0  0  0  0  0  0  0  0  0  0
  -24.1292  -13.1670   21.0744 C   0  0  0  0  0  0  0  0  0  0  0  0
  -23.3071  -33.9321   19.4627 C   0  0  0  0  0  0  0  0  0  0  0  0
  -22.9254  -26.4349   21.5897 C   0  0  0  0  0  0  0  0  0  0  0  0
  -23.1807  -32.5595   19.1755 C   0  0  0  0  0  0  0  0  0  0  0  0
  -24.1418  -26.2821   22.2702 C   0  0  0  0  0  0  0  0  0  0  0  0
  -22.3906   -8.9938   23.6505 C   0  0  0  0  0  0  0  0  0  0  0  0
  -24.4085  -24.0807   21.2739 C   0  0  0  0  0  0  0  0  0  0  0  0
  -21.7714   -6.7428   23.9184 C   0  0  0  0  0  0  0  0  0  0  0  0
  -21.9474   -4.0938   23.0612 C   0  0  0  0  0  0  0  0  0  0  0  0
  -20.6221   -6.0617   23.5172 C   0  0  0  0  0  0  0  0  0  0  0  0
  -24.5820  -11.9033   21.4987 C   0  0  0  0  0  0  0  0  0  0  0  0
  -28.2433  -19.8528   20.8031 C   0  0  0  0  0  0  0  0  0  0  0  0
  -27.0298  -21.5465   21.5058 C   0  0  0  0  0  0  0  0  0  0  0  0
  -25.2075  -13.7183   20.4265 C   0  0  0  0  0  0  0  0  0  0  0  0
  -22.8484  -13.7870   21.2502 C   0  0  0  0  0  0  0  0  0  0  0  0
  -23.7534  -29.4668   21.1145 C   0  0  0  0  0  0  0  0  0  0  0  0
  -30.6926  -14.8024   20.2570 C   0  0  0  0  0  0  0  0  0  0  0  0
  -24.0257  -29.4919   24.3468 C   0  0  0  0  0  0  0  0  0  0  0  0
  -24.5168  -27.7279   27.2267 C   0  0  0  0  0  0  0  0  0  0  0  0
  -24.4296  -34.4634   20.3184 C   0  0  0  0  0  0  0  0  0  0  0  0
  -22.1012  -27.6798   21.7727 C   0  0  0  0  0  0  0  0  0  0  0  0
  -24.6844  -27.3567   23.1754 C   0  0  0  0  0  0  0  0  0  0  0  0
  -25.1084  -33.3914   21.1671 C   0  0  0  0  0  0  0  0  0  0  0  0
  -29.5758  -11.6597   18.9471 C   0  0  0  0  0  0  0  0  0  0  0  0
  -25.4074  -32.1546   20.3259 C   0  0  0  0  0  0  0  0  0  0  0  0
  -28.1508  -11.5328   19.4843 C   0  0  0  0  0  0  0  0  0  0  0  0
  -30.4903  -12.3573   19.9492 C   0  0  0  0  0  0  0  0  0  0  0  0
  -28.5709  -13.5713   20.9311 C   0  0  0  0  0  0  0  0  0  0  0  0
  -24.1162  -31.5343   19.7786 C   0  0  1  0  0  0  0  0  0  0  0  0
  -22.9260  -28.8813   22.2238 C   0  0  1  0  0  0  0  0  0  0  0  0
  -27.6071  -12.8995   19.9371 C   0  0  2  0  0  0  0  0  0  0  0  0
  -24.2839  -19.5883   22.2340 C   0  0  0  0  0  0  0  0  0  0  0  0
  -24.7266  -28.0282   29.7093 C   0  0  0  0  0  0  0  0  0  0  0  0
  -26.8564  -30.5681   23.9749 C   0  0  0  0  0  0  0  0  0  0  0  0
  -27.3285  -29.9523   26.3552 C   0  0  0  0  0  0  0  0  0  0  0  0
  -25.5682  -31.6403   25.8311 C   0  0  0  0  0  0  0  0  0  0  0  0
  -22.1531  -26.0253   27.7493 C   0  0  0  0  0  0  0  0  0  0  0  0
  -31.3488  -19.5968   21.3235 C   0  0  0  0  0  0  0  0  0  0  0  0
  -29.2424  -19.0006   20.1367 C   0  0  0  0  0  0  0  0  0  0  0  0
  -26.3706  -22.8557   21.8265 C   0  0  0  0  0  0  0  0  0  1  0  0
  -30.0441  -16.0867   20.7088 C   0  0  0  0  0  0  0  0  0  0  0  0
  -25.5113  -20.1445   22.9351 C   0  0  0  0  0  0  0  0  0  0  0  0
  -30.9843  -17.2649   20.5290 C   0  0  0  0  0  0  0  0  0  0  0  0
  -25.1349  -29.2007   25.3285 C   0  0  1  0  0  0  0  0  0  0  0  0
  -23.7802  -27.7410   28.5540 C   0  0  2  0  0  0  0  0  0  0  0  0
  -26.2130  -30.3207   25.3539 C   0  0  0  0  0  0  0  0  0  0  0  0
  -25.8491  -11.6657   21.1497 N   0  0  0  0  0  0  0  0  0  0  0  0
  -27.3354  -19.3009   21.6125 N   0  0  0  0  0  0  0  0  0  0  0  0
  -26.6123  -20.3561   22.0243 N   0  0  0  0  0  0  0  0  0  0  0  0
  -26.2018  -12.7875   20.4990 N   0  0  0  0  0  0  0  0  0  0  0  0
  -23.8450  -28.5578   23.3169 N   0  0  0  0  0  0  0  0  0  0  0  0
  -29.9279  -13.6413   20.3715 N   0  0  0  0  0  0  0  0  0  0  0  0
  -25.3927  -14.9036   19.8075 N   0  0  0  0  0  0  0  0  0  0  0  0
  -21.8534  -13.0810   21.9400 N   0  0  0  0  0  0  0  0  0  0  0  0
  -23.4412  -30.7784   20.8118 N   0  0  0  0  0  0  0  0  0  0  0  0
  -24.4894  -28.9634   26.6152 N   0  0  0  0  0  0  0  0  0  0  0  0
  -23.1277  -26.4234   28.7974 N   0  3  0  0  0  0  0  0  0  0  0  0
  -30.3354  -18.5220   21.0401 N   0  3  1  0  0  0  0  0  0  0  0  0
  -22.5888  -14.9264   20.7944 O   0  0  0  0  0  0  0  0  0  0  0  0
  -24.6125  -28.7798   20.5744 O   0  0  0  0  0  0  0  0  0  0  0  0
  -31.8433  -14.8328   19.8131 O   0  0  0  0  0  0  0  0  0  0  0  0
  -23.3400  -30.5069   24.4926 O   0  0  0  0  0  0  0  0  0  0  0  0
  -25.0650  -26.7231   26.7791 O   0  0  0  0  0  0  0  0  0  0  0  0
  -21.6858   -8.0580   24.3433 O   0  0  0  0  0  0  0  0  0  0  0  0
  -25.1341  -22.9399   21.1192 O   0  0  0  0  0  0  0  0  0  1  0  0
  -22.0323   -2.8225   22.6482 F   0  0  0  0  0  0  0  0  0  0  0  0
  -19.4308   -6.6749   23.5403 F   0  0  0  0  0  0  0  0  0  0  0  0
  1  2  1  0  0  0  0
  1  5  2  0  0  0  0
  2  6  2  0  0  0  0
  3  8  2  0  0  0  0
  3 16  1  0  0  0  0
  4  9  1  0  0  0  0
  4 16  2  0  0  0  0
  5 18  1  0  0  0  0
  6 20  1  0  0  0  0
  7 10  2  0  0  0  0
  7 19  1  0  0  0  0
  8 22  1  0  0  0  0
  9 22  2  0  0  0  0
 10 23  1  0  0  0  0
 11 12  2  0  0  0  0
 11 24  1  0  0  0  0
 12 25  1  0  0  0  0
 13 21  1  0  0  0  0
 13 23  2  0  0  0  0
 14 25  2  0  0  0  0
 14 26  1  0  0  0  0
 15 28  1  0  0  0  0
 15 29  2  0  0  0  0
 16 27  1  0  0  0  0
 17 27  1  0  0  0  0
 17 30  2  0  0  0  0
 17 31  1  0  0  0  0
 18 20  2  0  0  0  0
 18 36  1  0  0  0  0
 19 21  2  0  0  0  0
 19 37  1  0  0  0  0
 20 45  1  0  0  0  0
 21 38  1  0  0  0  0
 22 80  1  0  0  0  0
 23 81  1  0  0  0  0
 24 26  2  0  0  0  0
 24 80  1  0  0  0  0
 25 82  1  0  0  0  0
 26 83  1  0  0  0  0
 27 63  2  0  0  0  0
 28 55  1  0  0  0  0
 28 64  2  0  0  0  0
 29 56  1  0  0  0  0
 29 65  1  0  0  0  0
 30 66  1  0  0  0  0
 30 69  1  0  0  0  0
 31 70  1  0  0  0  0
 31 75  2  0  0  0  0
 32 46  1  0  0  0  0
 32 71  1  0  0  0  0
 32 76  2  0  0  0  0
 33 57  1  0  0  0  0
 33 68  1  0  0  0  0
 33 77  2  0  0  0  0
 34 60  1  0  0  0  0
 34 67  1  0  0  0  0
 34 78  2  0  0  0  0
 35 61  1  0  0  0  0
 35 72  1  0  0  0  0
 35 79  2  0  0  0  0
 36 39  1  0  0  0  0
 37 46  1  0  0  0  0
 38 67  1  0  0  0  0
 39 41  1  0  0  0  0
 40 42  1  0  0  0  0
 40 43  1  0  0  0  0
 41 45  1  0  0  0  0
 42 47  1  0  0  0  0
 43 68  1  0  0  0  0
 44 47  1  0  0  0  0
 44 68  1  0  0  0  0
 45 71  1  0  0  0  0
 46 67  1  0  0  0  0
 47 66  1  0  0  0  0
 48 58  1  0  0  0  0
 49 61  1  0  0  0  0
 50 62  1  0  0  0  0
 51 62  1  0  0  0  0
 52 62  1  0  0  0  0
 53 73  1  0  0  0  0
 54 74  1  0  0  0  0
 55 74  1  0  0  0  0
 56 81  1  0  0  0  0
 57 59  1  0  0  0  0
 58 65  1  0  0  0  0
 59 74  1  0  0  0  0
 60 62  1  0  0  0  0
 60 72  1  0  0  0  0
 61 73  1  0  0  0  0
 63 66  1  0  0  0  0
 64 65  1  0  0  0  0
M  CHG  2  73   1  74   1
M  ISO  4  33 100  56 101  57 100  81 101
M  END
> <Batch ID>
0058

> <Smiles>
CCn1nc(CN(C)C[100CH2:0][100C:0](=O)N2CCCC(n3nc(-c4ccc(Oc5ccc(F)cc5F)cc4)c(C(N)=O)c3N)C2)cc1[101CH2:1][101O:1]c1ccc2c(c1)CN(C(=O)C(NC(=O)C(C)NC)C(C)(C)C)C(C(=O)NC1CCCc3ccccc31)C2

> <Shape>
0.256

> <Color>
0.164

> <Negative vol penalty>
0.000

$$$$

  -OEChem-04052317503D

 83 91  0     1  0  0  0  0  0999 V2000
  -26.7453  -21.2492   15.4398 C   0  0  0  0  0  0  0  0  0  0  0  0
  -27.4215  -20.4292   16.3374 C   0  0  0  0  0  0  0  0  0  0  0  0
  -23.2540  -28.6023   22.7938 C   0  0  0  0  0  0  0  0  0  0  0  0
  -25.0492  -29.5666   21.4959 C   0  0  0  0  0  0  0  0  0  0  0  0
  -25.4013  -21.5536   15.6519 C   0  0  0  0  0  0  0  0  0  0  0  0
  -26.7544  -19.9139   17.4482 C   0  0  0  0  0  0  0  0  0  0  0  0
  -27.7279  -15.0002   18.1922 C   0  0  0  0  0  0  0  0  0  0  0  0
  -22.9382  -29.8650   23.2951 C   0  0  0  0  0  0  0  0  0  0  0  0
  -24.7333  -30.8293   21.9972 C   0  0  0  0  0  0  0  0  0  0  0  0
  -28.9480  -14.6753   18.7833 C   0  0  0  0  0  0  0  0  0  0  0  0
  -24.6300  -34.2535   23.2113 C   0  0  0  0  0  0  0  0  0  0  0  0
  -25.6822  -35.0628   23.6397 C   0  0  0  0  0  0  0  0  0  0  0  0
  -27.8383  -14.3973   20.9070 C   0  0  0  0  0  0  0  0  0  0  0  0
  -26.3032  -33.3920   25.2707 C   0  0  0  0  0  0  0  0  0  0  0  0
  -24.3096  -28.4531   21.8942 C   0  0  0  0  0  0  0  0  0  0  0  0
  -24.1229  -26.5421   20.2146 C   0  0  0  0  0  0  0  0  0  0  0  0
  -24.7148  -21.0340   16.7606 C   0  0  0  0  0  0  0  0  0  0  0  0
  -26.5535  -15.0369   18.9577 C   0  0  0  0  0  0  0  0  0  0  0  0
  -25.4004  -20.2127   17.6760 C   0  0  0  0  0  0  0  0  0  0  0  0
  -26.6041  -14.7205   20.3228 C   0  0  0  0  0  0  0  0  0  0  0  0
  -23.6778  -30.9785   22.8968 C   0  0  0  0  0  0  0  0  0  0  0  0
  -29.0039  -14.3765   20.1415 C   0  0  0  0  0  0  0  0  0  0  0  0
  -24.4143  -33.0135   23.8126 C   0  0  0  0  0  0  0  0  0  0  0  0
  -26.5188  -34.6320   24.6693 C   0  0  0  0  0  0  0  0  0  0  0  0
  -25.2509  -32.5828   24.8423 C   0  0  0  0  0  0  0  0  0  0  0  0
  -24.6367  -27.1488   21.3764 C   0  0  0  0  0  0  0  0  0  0  0  0
  -24.7441  -25.3182   20.1630 C   0  0  0  0  0  0  0  0  0  0  0  0
  -31.5017  -17.7153   23.0161 C   0  0  0  0  0  0  0  0  0  0  0  0
  -30.8549  -17.8552   20.9440 C   0  0  0  0  0  0  0  0  0  0  0  0
  -23.1694  -27.0402   19.2668 C   0  0  0  0  0  0  0  0  0  0  0  0
  -24.4416  -17.2871   19.7192 C   0  0  0  0  0  0  0  0  0  0  0  0
  -29.3576  -22.3368   20.4876 C   0  0  0  0  0  0  0  0  0  0  0  0
  -22.8502  -14.7942   21.0516 C   0  0  0  0  0  0  0  0  0  0  0  0
  -22.9790  -11.6578   22.3906 C   0  0  0  0  0  0  0  0  0  0  0  0
  -23.2750  -21.4293   16.9735 C   0  0  0  0  0  0  0  0  0  0  0  0
  -25.2410  -15.3632   18.2995 C   0  0  0  0  0  0  0  0  0  0  0  0
  -25.3688  -14.7259   21.1844 C   0  0  0  0  0  0  0  0  0  0  0  0
  -22.5403  -20.5392   17.9726 C   0  0  0  0  0  0  0  0  0  0  0  0
  -27.5457  -22.8896   23.5922 C   0  0  0  0  0  0  0  0  0  0  0  0
  -23.3893  -20.3247   19.2216 C   0  0  0  0  0  0  0  0  0  0  0  0
  -26.6020  -24.0247   23.1973 C   0  0  0  0  0  0  0  0  0  0  0  0
  -28.8973  -23.0148   22.8939 C   0  0  0  0  0  0  0  0  0  0  0  0
  -27.8575  -24.2342   21.0081 C   0  0  0  0  0  0  0  0  0  0  0  0
  -24.7045  -19.6144   18.8793 C   0  0  1  0  0  0  0  0  0  0  0  0
  -24.1903  -15.8718   19.2817 C   0  0  1  0  0  0  0  0  0  0  0  0
  -26.4723  -24.1277   21.6675 C   0  0  2  0  0  0  0  0  0  0  0  0
  -31.4004  -21.0633   19.9978 C   0  0  0  0  0  0  0  0  0  0  0  0
  -21.5221   -9.8972   23.4275 C   0  0  0  0  0  0  0  0  0  0  0  0
  -33.8301  -16.1185   21.7813 C   0  0  0  0  0  0  0  0  0  0  0  0
  -22.7581  -16.4007   23.6440 C   0  0  0  0  0  0  0  0  0  0  0  0
  -22.1755  -14.2865   24.8518 C   0  0  0  0  0  0  0  0  0  0  0  0
  -20.6446  -15.1808   23.0970 C   0  0  0  0  0  0  0  0  0  0  0  0
  -23.6205   -9.7069   20.2594 C   0  0  0  0  0  0  0  0  0  0  0  0
  -31.8265  -14.7073   22.3571 C   0  0  0  0  0  0  0  0  0  0  0  0
  -29.5051  -19.9625   21.2335 C   0  0  0  0  0  0  0  0  0  0  0  0
  -30.3557  -14.3974   22.0980 C   0  0  0  0  0  0  0  0  0  1  0  0
  -30.2770  -21.2610   21.0085 C   0  0  2  0  0  0  0  0  0  0  0  0
  -22.8411  -14.1347   22.4095 C   0  0  1  0  0  0  0  0  0  0  0  0
  -22.1375  -10.4197   22.1387 C   0  0  2  0  0  0  0  0  0  0  0  0
  -32.3428  -15.8892   21.5293 C   0  0  1  0  0  0  0  0  0  0  0  0
  -22.1286  -15.0024   23.4850 C   0  0  0  0  0  0  0  0  0  0  0  0
  -25.5164  -26.3742   22.0167 N   0  0  0  0  0  0  0  0  0  0  0  0
  -30.7779  -18.7873   23.0233 N   0  0  0  0  0  0  0  0  0  0  0  0
  -25.5602  -25.2681   21.2547 N   0  0  0  0  0  0  0  0  0  0  0  0
  -31.6036  -17.0946   21.8217 N   0  0  0  0  0  0  0  0  0  0  0  0
  -30.3507  -18.9073   21.7251 N   0  0  0  0  0  0  0  0  0  0  0  0
  -24.1103  -15.0573   20.4959 N   0  0  0  0  0  0  0  0  0  0  0  0
  -28.7291  -23.1382   21.4410 N   0  0  0  0  0  0  0  0  0  0  0  0
  -24.6664  -24.2907   19.2909 N   0  0  0  0  0  0  0  0  0  0  0  0
  -22.6296  -28.3175   19.4705 N   0  0  0  0  0  0  0  0  0  0  0  0
  -24.4778  -18.1988   18.6814 N   0  0  0  0  0  0  0  0  0  0  0  0
  -22.2493  -12.8150   22.2183 N   0  0  0  0  0  0  0  0  0  0  0  0
  -22.9726   -9.3379   21.5444 N   0  3  0  0  0  0  0  0  0  0  0  0
  -30.6691  -17.6614   19.7512 O   0  0  0  0  0  0  0  0  0  0  0  0
  -22.7945  -26.3659   18.2777 O   0  0  0  0  0  0  0  0  0  0  0  0
  -24.5902  -17.5339   20.9103 O   0  0  0  0  0  0  0  0  0  0  0  0
  -29.2019  -22.4579   19.2697 O   0  0  0  0  0  0  0  0  0  0  0  0
  -21.7788  -15.0595   20.5009 O   0  0  0  0  0  0  0  0  0  0  0  0
  -24.1641  -11.6037   22.7119 O   0  0  0  0  0  0  0  0  0  0  0  0
  -23.3697  -32.2109   23.3857 O   0  0  0  0  0  0  0  0  0  0  0  0
  -30.1937  -14.0596   20.7210 O   0  0  0  0  0  0  0  0  0  1  0  0
  -27.5302  -35.4086   25.0796 F   0  0  0  0  0  0  0  0  0  0  0  0
  -25.0494  -31.3920   25.4230 F   0  0  0  0  0  0  0  0  0  0  0  0
  1  2  1  0  0  0  0
  1  5  2  0  0  0  0
  2  6  2  0  0  0  0
  3  8  2  0  0  0  0
  3 15  1  0  0  0  0
  4  9  1  0  0  0  0
  4 15  2  0  0  0  0
  5 17  1  0  0  0  0
  6 19  1  0  0  0  0
  7 10  2  0  0  0  0
  7 18  1  0  0  0  0
  8 21  1  0  0  0  0
  9 21  2  0  0  0  0
 10 22  1  0  0  0  0
 11 12  2  0  0  0  0
 11 23  1  0  0  0  0
 12 24  1  0  0  0  0
 13 20  1  0  0  0  0
 13 22  2  0  0  0  0
 14 24  2  0  0  0  0
 14 25  1  0  0  0  0
 15 26  1  0  0  0  0
 16 26  1  0  0  0  0
 16 27  2  0  0  0  0
 16 30  1  0  0  0  0
 17 19  2  0  0  0  0
 17 35  1  0  0  0  0
 18 20  2  0  0  0  0
 18 36  1  0  0  0  0
 19 44  1  0  0  0  0
 20 37  1  0  0  0  0
 21 80  1  0  0  0  0
 22 81  1  0  0  0  0
 23 25  2  0  0  0  0
 23 80  1  0  0  0  0
 24 82  1  0  0  0  0
 25 83  1  0  0  0  0
 26 62  2  0  0  0  0
 27 64  1  0  0  0  0
 27 69  1  0  0  0  0
 28 63  2  0  0  0  0
 28 65  1  0  0  0  0
 29 65  1  0  0  0  0
 29 66  1  0  0  0  0
 29 74  2  0  0  0  0
 30 70  1  0  0  0  0
 30 75  2  0  0  0  0
 31 45  1  0  0  0  0
 31 71  1  0  0  0  0
 31 76  2  0  0  0  0
 32 57  1  0  0  0  0
 32 68  1  0  0  0  0
 32 77  2  0  0  0  0
 33 58  1  0  0  0  0
 33 67  1  0  0  0  0
 33 78  2  0  0  0  0
 34 59  1  0  0  0  0
 34 72  1  0  0  0  0
 34 79  2  0  0  0  0
 35 38  1  0  0  0  0
 36 45  1  0  0  0  0
 37 67  1  0  0  0  0
 38 40  1  0  0  0  0
 39 41  1  0  0  0  0
 39 42  1  0  0  0  0
 40 44  1  0  0  0  0
 41 46  1  0  0  0  0
 42 68  1  0  0  0  0
 43 46  1  0  0  0  0
 43 68  1  0  0  0  0
 44 71  1  0  0  0  0
 45 67  1  0  0  0  0
 46 64  1  0  0  0  0
 47 57  1  0  0  0  0
 48 59  1  0  0  0  0
 49 60  1  0  0  0  0
 50 61  1  0  0  0  0
 51 61  1  0  0  0  0
 52 61  1  0  0  0  0
 53 73  1  0  0  0  0
 54 56  1  0  0  0  0
 54 60  1  0  0  0  0
 55 57  1  0  0  0  0
 55 66  1  0  0  0  0
 56 81  1  0  0  0  0
 58 61  1  0  0  0  0
 58 72  1  0  0  0  0
 59 73  1  0  0  0  0
 60 65  1  0  0  0  0
 62 64  1  0  0  0  0
 63 66  1  0  0  0  0
M  CHG  1  73   1
M  ISO  4  32 100  56 101  57 100  81 101
M  END
> <Batch ID>
0058

> <Smiles>
CNC(C)C(=O)NC(C(=O)N1Cc2cc([101O:1][101CH2:1]CC(C)n3cnn(C[100CH:0](C)[100C:0](=O)N4CCCC(n5nc(-c6ccc(Oc7ccc(F)cc7F)cc6)c(C(N)=O)c5N)C4)c3=O)ccc2CC1C(=O)NC1CCCc2ccccc21)C(C)(C)C

> <Shape>
0.218

> <Color>
0.074

> <Negative vol penalty>
0.000

$$$$

  -OEChem-04052317503D

 83 91  0     1  0  0  0  0  0999 V2000
  -20.2462  -29.9393   17.2669 C   0  0  0  0  0  0  0  0  0  0  0  0
  -21.5776  -29.9643   17.6698 C   0  0  0  0  0  0  0  0  0  0  0  0
  -24.8030  -13.2902   21.7530 C   0  0  0  0  0  0  0  0  0  0  0  0
  -25.8363  -13.4365   19.5740 C   0  0  0  0  0  0  0  0  0  0  0  0
  -19.2320  -29.8601   18.2203 C   0  0  0  0  0  0  0  0  0  0  0  0
  -21.8954  -29.9112   19.0265 C   0  0  0  0  0  0  0  0  0  0  0  0
  -25.6806  -26.6944   20.0107 C   0  0  0  0  0  0  0  0  0  0  0  0
  -24.0449  -12.2022   21.3204 C   0  0  0  0  0  0  0  0  0  0  0  0
  -25.0783  -12.3484   19.1415 C   0  0  0  0  0  0  0  0  0  0  0  0
  -26.9753  -27.1301   19.7319 C   0  0  0  0  0  0  0  0  0  0  0  0
  -24.5023   -8.8899   20.8182 C   0  0  0  0  0  0  0  0  0  0  0  0
  -24.4089   -7.7866   21.6666 C   0  0  0  0  0  0  0  0  0  0  0  0
  -27.2985  -27.6447   22.0664 C   0  0  0  0  0  0  0  0  0  0  0  0
  -22.0091   -8.0530   21.7490 C   0  0  0  0  0  0  0  0  0  0  0  0
  -30.2163  -23.9860   21.0558 C   0  0  0  0  0  0  0  0  0  0  0  0
  -29.6160  -24.3671   18.9699 C   0  0  0  0  0  0  0  0  0  0  0  0
  -25.6987  -13.9074   20.8797 C   0  0  0  0  0  0  0  0  0  0  0  0
  -27.7542  -14.9966   21.9267 C   0  0  0  0  0  0  0  0  0  0  0  0
  -19.5378  -29.7964   19.5889 C   0  0  0  0  0  0  0  0  0  0  0  0
  -25.1805  -26.7408   21.3200 C   0  0  0  0  0  0  0  0  0  0  0  0
  -20.8842  -29.8325   19.9991 C   0  0  0  0  0  0  0  0  0  0  0  0
  -25.9980  -27.2065   22.3597 C   0  0  0  0  0  0  0  0  0  0  0  0
  -24.1826  -11.7313   20.0147 C   0  0  0  0  0  0  0  0  0  0  0  0
  -27.7834  -27.6080   20.7593 C   0  0  0  0  0  0  0  0  0  0  0  0
  -23.3490   -9.5748   20.4353 C   0  0  0  0  0  0  0  0  0  0  0  0
  -23.1624   -7.3682   22.1320 C   0  0  0  0  0  0  0  0  0  0  0  0
  -22.1024   -9.1563   20.9007 C   0  0  0  0  0  0  0  0  0  0  0  0
  -26.4816  -15.0318   21.3258 C   0  0  0  0  0  0  0  0  0  0  0  0
  -31.1501  -24.7490   20.3952 C   0  0  0  0  0  0  0  0  0  0  0  0
  -28.0605  -16.3151   22.1596 C   0  0  0  0  0  0  0  0  0  0  0  0
  -28.5851  -13.8726   22.2459 C   0  0  0  0  0  0  0  0  0  0  0  0
  -22.7741  -28.2468   22.7499 C   0  0  0  0  0  0  0  0  0  0  0  0
  -28.3236  -21.5030   20.3444 C   0  0  0  0  0  0  0  0  0  0  0  0
  -23.6645  -26.4376   25.2908 C   0  0  0  0  0  0  0  0  0  0  0  0
  -26.1196  -24.6704   26.8709 C   0  0  0  0  0  0  0  0  0  0  0  0
  -18.4058  -29.7593   20.5847 C   0  0  0  0  0  0  0  0  0  0  0  0
  -23.7911  -26.2421   21.6086 C   0  0  0  0  0  0  0  0  0  0  0  0
  -25.5156  -27.2579   23.7855 C   0  0  0  0  0  0  0  0  0  0  0  0
  -18.8391  -29.3289   21.9838 C   0  0  0  0  0  0  0  0  0  0  0  0
  -25.1987  -20.4677   21.8904 C   0  0  0  0  0  0  0  0  0  0  0  0
  -20.1037  -30.0718   22.4031 C   0  0  0  0  0  0  0  0  0  0  0  0
  -25.3519  -18.9473   21.9010 C   0  0  0  0  0  0  0  0  0  0  0  0
  -25.8344  -21.0873   20.6486 C   0  0  0  0  0  0  0  0  0  0  0  0
  -27.4262  -19.2008   20.4706 C   0  0  0  0  0  0  0  0  0  0  0  0
  -21.2699  -29.7518   21.4602 C   0  0  1  0  0  0  0  0  0  0  0  0
  -23.2059  -26.8151   22.8957 C   0  0  1  0  0  0  0  0  0  0  0  0
  -26.8249  -18.5399   21.7222 C   0  0  2  0  0  0  0  0  0  0  0  0
  -34.0650  -28.7680   20.3490 C   0  0  0  0  0  0  0  0  0  0  0  0
  -26.5589  -23.3354   28.9498 C   0  0  0  0  0  0  0  0  0  0  0  0
  -23.8378  -29.0187   26.9088 C   0  0  0  0  0  0  0  0  0  0  0  0
  -25.1615  -27.7700   28.6283 C   0  0  0  0  0  0  0  0  0  0  0  0
  -22.8141  -27.0900   28.1280 C   0  0  0  0  0  0  0  0  0  0  0  0
  -26.7274  -22.2282   25.3137 C   0  0  0  0  0  0  0  0  0  0  0  0
  -32.4404  -25.3036   20.9258 C   0  0  0  0  0  0  0  0  0  0  0  0
  -28.0348  -22.9830   20.3358 C   0  0  0  0  0  0  0  0  0  0  0  0
  -32.9824  -28.0499   19.5733 C   0  0  0  0  0  0  0  0  0  0  0  0
  -32.3064  -26.6904   21.5469 C   0  0  0  0  0  0  0  0  0  0  0  0
  -31.2097  -28.8831   21.1112 C   0  0  0  0  0  0  0  0  0  0  0  0
  -29.8202  -28.5119   21.5902 C   0  0  0  0  0  0  0  0  0  1  0  0
  -24.6313  -26.6074   26.4378 C   0  0  1  0  0  0  0  0  0  0  0  0
  -26.1224  -23.2861   27.4939 C   0  0  2  0  0  0  0  0  0  0  0  0
  -24.1199  -27.6225   27.4987 C   0  0  0  0  0  0  0  0  0  0  0  0
  -30.7704  -24.9830   19.0972 N   0  0  0  0  0  0  0  0  0  0  0  0
  -26.0117  -16.2742   21.1857 N   0  0  0  0  0  0  0  0  0  0  0  0
  -29.2394  -23.7496   20.1300 N   0  0  0  0  0  0  0  0  0  0  0  0
  -26.9941  -17.0319   21.7021 N   0  0  0  0  0  0  0  0  0  0  0  0
  -24.1476  -26.7651   24.0160 N   0  0  0  0  0  0  0  0  0  0  0  0
  -27.2284  -20.6528   20.4990 N   0  0  0  0  0  0  0  0  0  0  0  0
  -29.1352  -16.9197   22.7090 N   0  0  0  0  0  0  0  0  0  0  0  0
  -28.1177  -12.5876   21.9387 N   0  0  0  0  0  0  0  0  0  0  0  0
  -21.8250  -28.4508   21.7665 N   0  0  0  0  0  0  0  0  0  0  0  0
  -24.8810  -25.2693   26.9627 N   0  0  0  0  0  0  0  0  0  0  0  0
  -27.0529  -22.3872   26.7544 N   0  3  0  0  0  0  0  0  0  0  0  0
  -31.8560  -27.6893   20.5099 N   0  3  1  0  0  0  0  0  0  0  0  0
  -29.7018  -14.0030   22.8023 O   0  0  0  0  0  0  0  0  0  0  0  0
  -23.2644  -29.1028   23.4769 O   0  0  0  0  0  0  0  0  0  0  0  0
  -29.4886  -21.1162   20.2202 O   0  0  0  0  0  0  0  0  0  0  0  0
  -22.5250  -26.0227   25.5168 O   0  0  0  0  0  0  0  0  0  0  0  0
  -27.1174  -25.1719   26.3577 O   0  0  0  0  0  0  0  0  0  0  0  0
  -23.4432  -10.6694   19.5924 O   0  0  0  0  0  0  0  0  0  0  0  0
  -29.0472  -28.0346   20.4898 O   0  0  0  0  0  0  0  0  0  1  0  0
  -23.0728   -6.3077   22.9454 F   0  0  0  0  0  0  0  0  0  0  0  0
  -20.9908   -9.8095   20.5353 F   0  0  0  0  0  0  0  0  0  0  0  0
  1  2  1  0  0  0  0
  1  5  2  0  0  0  0
  2  6  2  0  0  0  0
  3  8  2  0  0  0  0
  3 17  1  0  0  0  0
  4  9  1  0  0  0  0
  4 17  2  0  0  0  0
  5 19  1  0  0  0  0
  6 21  1  0  0  0  0
  7 10  2  0  0  0  0
  7 20  1  0  0  0  0
  8 23  1  0  0  0  0
  9 23  2  0  0  0  0
 10 24  1  0  0  0  0
 11 12  2  0  0  0  0
 11 25  1  0  0  0  0
 12 26  1  0  0  0  0
 13 22  1  0  0  0  0
 13 24  2  0  0  0  0
 14 26  2  0  0  0  0
 14 27  1  0  0  0  0
 15 29  2  0  0  0  0
 15 65  1  0  0  0  0
 16 63  2  0  0  0  0
 16 65  1  0  0  0  0
 17 28  1  0  0  0  0
 18 28  1  0  0  0  0
 18 30  2  0  0  0  0
 18 31  1  0  0  0  0
 19 21  2  0  0  0  0
 19 36  1  0  0  0  0
 20 22  2  0  0  0  0
 20 37  1  0  0  0  0
 21 45  1  0  0  0  0
 22 38  1  0  0  0  0
 23 80  1  0  0  0  0
 24 81  1  0  0  0  0
 25 27  2  0  0  0  0
 25 80  1  0  0  0  0
 26 82  1  0  0  0  0
 27 83  1  0  0  0  0
 28 64  2  0  0  0  0
 29 54  1  0  0  0  0
 29 63  1  0  0  0  0
 30 66  1  0  0  0  0
 30 69  1  0  0  0  0
 31 70  1  0  0  0  0
 31 75  2  0  0  0  0
 32 46  1  0  0  0  0
 32 71  1  0  0  0  0
 32 76  2  0  0  0  0
 33 55  1  0  0  0  0
 33 68  1  0  0  0  0
 33 77  2  0  0  0  0
 34 60  1  0  0  0  0
 34 67  1  0  0  0  0
 34 78  2  0  0  0  0
 35 61  1  0  0  0  0
 35 72  1  0  0  0  0
 35 79  2  0  0  0  0
 36 39  1  0  0  0  0
 37 46  1  0  0  0  0
 38 67  1  0  0  0  0
 39 41  1  0  0  0  0
 40 42  1  0  0  0  0
 40 43  1  0  0  0  0
 41 45  1  0  0  0  0
 42 47  1  0  0  0  0
 43 68  1  0  0  0  0
 44 47  1  0  0  0  0
 44 68  1  0  0  0  0
 45 71  1  0  0  0  0
 46 67  1  0  0  0  0
 47 66  1  0  0  0  0
 48 56  1  0  0  0  0
 49 61  1  0  0  0  0
 50 62  1  0  0  0  0
 51 62  1  0  0  0  0
 52 62  1  0  0  0  0
 53 73  1  0  0  0  0
 54 57  1  0  0  0  0
 55 65  1  0  0  0  0
 56 74  1  0  0  0  0
 57 74  1  0  0  0  0
 58 59  1  0  0  0  0
 58 74  1  0  0  0  0
 59 81  1  0  0  0  0
 60 62  1  0  0  0  0
 60 72  1  0  0  0  0
 61 73  1  0  0  0  0
 64 66  1  0  0  0  0
M  CHG  2  73   1  74   1
M  ISO  4  33 100  55 100  59 101  81 101
M  END
> <Batch ID>
0058

> <Smiles>
CCN(CCc1cn([100CH2:0][100C:0](=O)N2CCCC(n3nc(-c4ccc(Oc5ccc(F)cc5F)cc4)c(C(N)=O)c3N)C2)cn1)C[101CH2:1][101O:1]c1ccc2c(c1)CN(C(=O)C(NC(=O)C(C)NC)C(C)(C)C)C(C(=O)NC1CCCc3ccccc31)C2

> <Shape>
0.204

> <Color>
0.080

> <Negative vol penalty>
0.000

$$$$

  -OEChem-04052317503D

 81 89  0     1  0  0  0  0  0999 V2000
  -24.3204  -23.4165   18.7195 C   0  0  0  0  0  0  0  0  0  0  0  0
  -25.2607  -22.4417   18.4017 C   0  0  0  0  0  0  0  0  0  0  0  0
  -26.2533  -27.7932   18.8903 C   0  0  0  0  0  0  0  0  0  0  0  0
  -26.5863  -27.5358   21.2693 C   0  0  0  0  0  0  0  0  0  0  0  0
  -23.5095  -23.2612   19.8430 C   0  0  0  0  0  0  0  0  0  0  0  0
  -25.3914  -21.3115   19.2079 C   0  0  0  0  0  0  0  0  0  0  0  0
  -26.7760  -15.6305   17.3871 C   0  0  0  0  0  0  0  0  0  0  0  0
  -25.0845  -28.5151   19.1319 C   0  0  0  0  0  0  0  0  0  0  0  0
  -25.4175  -28.2579   21.5110 C   0  0  0  0  0  0  0  0  0  0  0  0
  -27.9720  -14.9140   17.3771 C   0  0  0  0  0  0  0  0  0  0  0  0
  -22.0846  -27.6920   21.4622 C   0  0  0  0  0  0  0  0  0  0  0  0
  -21.1999  -27.1921   22.4177 C   0  0  0  0  0  0  0  0  0  0  0  0
  -27.3742  -13.8984   19.4820 C   0  0  0  0  0  0  0  0  0  0  0  0
  -21.4434  -29.2219   23.7052 C   0  0  0  0  0  0  0  0  0  0  0  0
  -27.0041  -27.3035   19.9590 C   0  0  0  0  0  0  0  0  0  0  0  0
  -29.5164  -27.0692   19.5829 C   0  0  0  0  0  0  0  0  0  0  0  0
  -23.6237  -22.1239   20.6580 C   0  0  0  0  0  0  0  0  0  0  0  0
  -25.8736  -15.4943   18.4518 C   0  0  0  0  0  0  0  0  0  0  0  0
  -24.5822  -21.1415   20.3442 C   0  0  0  0  0  0  0  0  0  0  0  0
  -26.1663  -14.6124   19.5018 C   0  0  0  0  0  0  0  0  0  0  0  0
  -24.6667  -28.7475   20.4423 C   0  0  0  0  0  0  0  0  0  0  0  0
  -28.2726  -14.0500   18.4260 C   0  0  0  0  0  0  0  0  0  0  0  0
  -22.6488  -28.9569   21.6283 C   0  0  0  0  0  0  0  0  0  0  0  0
  -20.8792  -27.9570   23.5392 C   0  0  0  0  0  0  0  0  0  0  0  0
  -22.3281  -29.7218   22.7498 C   0  0  0  0  0  0  0  0  0  0  0  0
  -28.2112  -26.5571   19.7100 C   0  0  0  0  0  0  0  0  0  0  0  0
  -30.2984  -25.9634   19.3547 C   0  0  0  0  0  0  0  0  0  0  0  0
  -31.2170  -16.9804   20.9998 C   0  0  0  0  0  0  0  0  0  0  0  0
  -29.9804  -28.4234   19.6640 C   0  0  0  0  0  0  0  0  0  0  0  0
  -24.6799  -17.4602   20.6459 C   0  0  0  0  0  0  0  0  0  0  0  0
  -22.8560  -14.8853   21.3981 C   0  0  0  0  0  0  0  0  0  0  0  0
  -22.4699  -11.4948   21.3499 C   0  0  0  0  0  0  0  0  0  0  0  0
  -29.5999  -20.2841   20.8082 C   0  0  0  0  0  0  0  0  0  0  0  0
  -22.7577  -22.0229   21.8887 C   0  0  0  0  0  0  0  0  0  0  0  0
  -24.5756  -16.2540   18.4345 C   0  0  0  0  0  0  0  0  0  0  0  0
  -25.2218  -14.4151   20.6583 C   0  0  0  0  0  0  0  0  0  0  0  0
  -22.7012  -20.6166   22.4798 C   0  0  0  0  0  0  0  0  0  0  0  0
  -30.1118  -21.5703   17.4644 C   0  0  0  0  0  0  0  0  0  0  0  0
  -24.1016  -20.0187   22.5699 C   0  0  0  0  0  0  0  0  0  0  0  0
  -29.8023  -23.0557   17.6592 C   0  0  0  0  0  0  0  0  0  0  0  0
  -29.1870  -20.6977   18.3080 C   0  0  0  0  0  0  0  0  0  0  0  0
  -28.8876  -22.5014   19.9605 C   0  0  0  0  0  0  0  0  0  0  0  0
  -24.7368  -19.8896   21.1802 C   0  0  1  0  0  0  0  0  0  0  0  0
  -23.9656  -16.4263   19.8222 C   0  0  1  0  0  0  0  0  0  0  0  0
  -29.8037  -23.4373   19.1514 C   0  0  2  0  0  0  0  0  0  0  0  0
  -29.0329  -17.4446   22.1728 C   0  0  0  0  0  0  0  0  0  0  0  0
  -20.8940   -9.6812   22.0741 C   0  0  0  0  0  0  0  0  0  0  0  0
  -23.8196  -15.2005   24.2760 C   0  0  0  0  0  0  0  0  0  0  0  0
  -23.0078  -12.8758   24.7289 C   0  0  0  0  0  0  0  0  0  0  0  0
  -21.3916  -14.6481   24.0434 C   0  0  0  0  0  0  0  0  0  0  0  0
  -22.0395  -10.5961   18.5632 C   0  0  0  0  0  0  0  0  0  0  0  0
  -31.5260  -12.9429   19.5314 C   0  0  0  0  0  0  0  0  0  0  0  0
  -32.1590  -14.2412   19.0257 C   0  0  0  0  0  0  0  0  0  0  0  0
  -30.0121  -13.0293   19.6862 C   0  0  0  0  0  0  0  0  0  1  0  0
  -30.3085  -18.0114   21.5082 C   0  0  2  0  0  0  0  0  0  0  0  0
  -23.0005  -13.7095   22.3339 C   0  0  1  0  0  0  0  0  0  0  0  0
  -21.2961  -10.6203   20.9476 C   0  0  2  0  0  0  0  0  0  0  0  0
  -22.8238  -14.1134   23.8249 C   0  0  0  0  0  0  0  0  0  0  0  0
  -28.1628  -25.2293   19.5737 N   0  0  0  0  0  0  0  0  0  0  0  0
  -32.4989  -16.8361   21.4408 N   0  0  0  0  0  0  0  0  0  0  0  0
  -30.8575  -16.0925   20.0694 N   0  0  0  0  0  0  0  0  0  0  0  0
  -33.0028  -15.8078   20.7697 N   0  0  0  0  0  0  0  0  0  0  0  0
  -29.4472  -24.8977   19.3585 N   0  0  0  0  0  0  0  0  0  0  0  0
  -32.0027  -15.4024   19.9748 N   0  0  0  0  0  0  0  0  0  0  0  0
  -23.9683  -15.1850   20.5989 N   0  0  0  0  0  0  0  0  0  0  0  0
  -29.2492  -21.1004   19.7201 N   0  0  0  0  0  0  0  0  0  0  0  0
  -31.6242  -25.8084   19.1531 N   0  0  0  0  0  0  0  0  0  0  0  0
  -29.0432  -29.4375   19.9041 N   0  0  0  0  0  0  0  0  0  0  0  0
  -24.1953  -18.7437   20.4814 N   0  0  0  0  0  0  0  0  0  0  0  0
  -22.0529  -12.7011   21.8716 N   0  0  0  0  0  0  0  0  0  0  0  0
  -29.9220  -18.9690   20.4959 N   0  0  0  0  0  0  0  0  0  0  0  0
  -21.6467   -9.7996   19.7541 N   0  3  0  0  0  0  0  0  0  0  0  0
  -31.1878  -28.7270   19.5112 O   0  0  0  0  0  0  0  0  0  0  0  0
  -25.6015  -17.1184   21.3778 O   0  0  0  0  0  0  0  0  0  0  0  0
  -21.7928  -15.5103   21.3720 O   0  0  0  0  0  0  0  0  0  0  0  0
  -23.6397  -11.1415   21.2183 O   0  0  0  0  0  0  0  0  0  0  0  0
  -29.6291  -20.6981   21.9722 O   0  0  0  0  0  0  0  0  0  0  0  0
  -23.5264  -29.4521   20.6784 O   0  0  0  0  0  0  0  0  0  0  0  0
  -29.4395  -13.3500   18.4191 O   0  0  0  0  0  0  0  0  0  1  0  0
  -20.0284  -27.4774   24.4558 F   0  0  0  0  0  0  0  0  0  0  0  0
  -22.8661  -30.9381   22.9142 F   0  0  0  0  0  0  0  0  0  0  0  0
  1  2  1  0  0  0  0
  1  5  2  0  0  0  0
  2  6  2  0  0  0  0
  3  8  2  0  0  0  0
  3 15  1  0  0  0  0
  4  9  1  0  0  0  0
  4 15  2  0  0  0  0
  5 17  1  0  0  0  0
  6 19  1  0  0  0  0
  7 10  2  0  0  0  0
  7 18  1  0  0  0  0
  8 21  1  0  0  0  0
  9 21  2  0  0  0  0
 10 22  1  0  0  0  0
 11 12  2  0  0  0  0
 11 23  1  0  0  0  0
 12 24  1  0  0  0  0
 13 20  1  0  0  0  0
 13 22  2  0  0  0  0
 14 24  2  0  0  0  0
 14 25  1  0  0  0  0
 15 26  1  0  0  0  0
 16 26  1  0  0  0  0
 16 27  2  0  0  0  0
 16 29  1  0  0  0  0
 17 19  2  0  0  0  0
 17 34  1  0  0  0  0
 18 20  2  0  0  0  0
 18 35  1  0  0  0  0
 19 43  1  0  0  0  0
 20 36  1  0  0  0  0
 21 78  1  0  0  0  0
 22 79  1  0  0  0  0
 23 25  2  0  0  0  0
 23 78  1  0  0  0  0
 24 80  1  0  0  0  0
 25 81  1  0  0  0  0
 26 59  2  0  0  0  0
 27 63  1  0  0  0  0
 27 67  1  0  0  0  0
 28 55  1  0  0  0  0
 28 60  1  0  0  0  0
 28 61  2  0  0  0  0
 29 68  1  0  0  0  0
 29 73  2  0  0  0  0
 30 44  1  0  0  0  0
 30 69  1  0  0  0  0
 30 74  2  0  0  0  0
 31 56  1  0  0  0  0
 31 65  1  0  0  0  0
 31 75  2  0  0  0  0
 32 57  1  0  0  0  0
 32 70  1  0  0  0  0
 32 76  2  0  0  0  0
 33 66  1  0  0  0  0
 33 71  1  0  0  0  0
 33 77  2  0  0  0  0
 34 37  1  0  0  0  0
 35 44  1  0  0  0  0
 36 65  1  0  0  0  0
 37 39  1  0  0  0  0
 38 40  1  0  0  0  0
 38 41  1  0  0  0  0
 39 43  1  0  0  0  0
 40 45  1  0  0  0  0
 41 66  1  0  0  0  0
 42 45  1  0  0  0  0
 42 66  1  0  0  0  0
 43 69  1  0  0  0  0
 44 65  1  0  0  0  0
 45 63  1  0  0  0  0
 46 55  1  0  0  0  0
 47 57  1  0  0  0  0
 48 58  1  0  0  0  0
 49 58  1  0  0  0  0
 50 58  1  0  0  0  0
 51 72  1  0  0  0  0
 52 53  1  0  0  0  0
 52 54  1  0  0  0  0
 53 64  1  0  0  0  0
 54 79  1  0  0  0  0
 55 71  1  0  0  0  0
 56 58  1  0  0  0  0
 56 70  1  0  0  0  0
 57 72  1  0  0  0  0
 59 63  1  0  0  0  0
 60 62  2  0  0  0  0
 61 64  1  0  0  0  0
 62 64  1  0  0  0  0
M  CHG  1  72   1
M  ISO  4  33 100  54 101  71 100  79 101
M  END
> <Batch ID>
0058

> <Smiles>
CNC(C)C(=O)NC(C(=O)N1Cc2cc([101O:1][101CH2:1]CCn3nnc(C(C)[100NH:0][100C:0](=O)N4CCCC(n5nc(-c6ccc(Oc7ccc(F)cc7F)cc6)c(C(N)=O)c5N)C4)n3)ccc2CC1C(=O)NC1CCCc2ccccc21)C(C)(C)C

> <Shape>
0.271

> <Color>
0.049

> <Negative vol penalty>
0.000

$$$$

  -OEChem-04052317503D

 87 95  0     1  0  0  0  0  0999 V2000
  -18.0562  -28.0879   22.7797 C   0  0  0  0  0  0  0  0  0  0  0  0
  -18.0780  -26.8253   22.1960 C   0  0  0  0  0  0  0  0  0  0  0  0
  -27.5438  -23.6750   19.7226 C   0  0  0  0  0  0  0  0  0  0  0  0
  -29.8738  -23.3472   19.1740 C   0  0  0  0  0  0  0  0  0  0  0  0
  -19.2482  -28.6904   23.1797 C   0  0  0  0  0  0  0  0  0  0  0  0
  -19.2920  -26.1648   22.0110 C   0  0  0  0  0  0  0  0  0  0  0  0
  -20.2965  -20.1349   22.3825 C   0  0  0  0  0  0  0  0  0  0  0  0
  -27.7693  -25.0444   19.8623 C   0  0  0  0  0  0  0  0  0  0  0  0
  -30.0993  -24.7166   19.3136 C   0  0  0  0  0  0  0  0  0  0  0  0
  -20.3959  -19.1390   21.4119 C   0  0  0  0  0  0  0  0  0  0  0  0
  -29.0719  -27.1300   22.1813 C   0  0  0  0  0  0  0  0  0  0  0  0
  -28.5177  -27.7674   23.2914 C   0  0  0  0  0  0  0  0  0  0  0  0
  -22.7981  -19.3571   21.4426 C   0  0  0  0  0  0  0  0  0  0  0  0
  -27.2538  -29.2163   21.8284 C   0  0  0  0  0  0  0  0  0  0  0  0
  -26.2369  -14.7435   20.4362 C   0  0  0  0  0  0  0  0  0  0  0  0
  -28.5960  -22.8264   19.3785 C   0  0  0  0  0  0  0  0  0  0  0  0
  -27.4821  -20.7820   18.3358 C   0  0  0  0  0  0  0  0  0  0  0  0
  -20.4766  -28.0328   23.0084 C   0  0  0  0  0  0  0  0  0  0  0  0
  -21.4486  -20.7581   22.8834 C   0  0  0  0  0  0  0  0  0  0  0  0
  -20.5018  -26.7596   22.4079 C   0  0  0  0  0  0  0  0  0  0  0  0
  -22.7108  -20.3589   22.4214 C   0  0  0  0  0  0  0  0  0  0  0  0
  -29.0471  -25.5652   19.6578 C   0  0  0  0  0  0  0  0  0  0  0  0
  -21.6466  -18.7520   20.9397 C   0  0  0  0  0  0  0  0  0  0  0  0
  -28.7170  -27.5358   20.8948 C   0  0  0  0  0  0  0  0  0  0  0  0
  -27.6087  -28.8105   23.1149 C   0  0  0  0  0  0  0  0  0  0  0  0
  -27.8079  -28.5789   20.7183 C   0  0  0  0  0  0  0  0  0  0  0  0
  -28.3638  -21.4117   19.2346 C   0  0  0  0  0  0  0  0  0  0  0  0
  -26.6602  -15.1552   21.7142 C   0  0  0  0  0  0  0  0  0  0  0  0
  -24.8683  -14.8529   20.4760 C   0  0  0  0  0  0  0  0  0  0  0  0
  -27.6293  -19.4409   18.5931 C   0  0  0  0  0  0  0  0  0  0  0  0
  -26.6081  -21.3579   17.3559 C   0  0  0  0  0  0  0  0  0  0  0  0
  -28.0379  -15.2325   22.2169 C   0  0  0  0  0  0  0  0  0  0  0  0
  -22.5668  -23.7336   22.8894 C   0  0  0  0  0  0  0  0  0  0  0  0
  -24.8603  -22.4530   24.7927 C   0  0  0  0  0  0  0  0  0  0  0  0
  -26.5865  -19.6815   25.7857 C   0  0  0  0  0  0  0  0  0  0  0  0
  -21.7434  -28.7441   23.4134 C   0  0  0  0  0  0  0  0  0  0  0  0
  -21.3260  -21.8120   23.9495 C   0  0  0  0  0  0  0  0  0  0  0  0
  -23.9793  -20.9825   22.9415 C   0  0  0  0  0  0  0  0  0  0  0  0
  -22.9526  -27.8189   23.5241 C   0  0  0  0  0  0  0  0  0  0  0  0
  -31.0451  -16.9648   21.3821 C   0  0  0  0  0  0  0  0  0  0  0  0
  -23.0348  -26.9000   22.3093 C   0  0  0  0  0  0  0  0  0  0  0  0
  -30.5457  -18.2354   20.6919 C   0  0  0  0  0  0  0  0  0  0  0  0
  -30.1162  -16.5368   22.5154 C   0  0  0  0  0  0  0  0  0  0  0  0
  -28.1971  -17.6515   21.4296 C   0  0  0  0  0  0  0  0  0  0  0  0
  -21.7965  -26.0007   22.2131 C   0  0  1  0  0  0  0  0  0  0  0  0
  -22.5358  -22.7390   24.0153 C   0  0  1  0  0  0  0  0  0  0  0  0
  -29.0781  -18.0887   20.2477 C   0  0  1  0  0  0  0  0  0  0  0  0
  -24.1173  -10.4933   19.2795 C   0  0  0  0  0  0  0  0  0  0  0  0
  -28.1835  -18.2917   27.1330 C   0  0  0  0  0  0  0  0  0  0  0  0
  -24.3924  -14.8061   17.9693 C   0  0  0  0  0  0  0  0  0  0  0  0
  -26.9270  -23.6240   22.8777 C   0  0  0  0  0  0  0  0  0  0  0  0
  -28.6335  -22.1043   23.9007 C   0  0  0  0  0  0  0  0  0  0  0  0
  -27.5107  -23.8373   25.3001 C   0  0  0  0  0  0  0  0  0  0  0  0
  -22.6764  -12.6823   20.8951 C   0  0  0  0  0  0  0  0  0  0  0  0
  -22.1675  -12.6880   18.4670 C   0  0  0  0  0  0  0  0  0  0  0  0
  -23.2515  -15.5808   22.2568 C   0  0  0  0  0  0  0  0  0  0  0  0
  -24.5125  -19.0395   27.7970 C   0  0  0  0  0  0  0  0  0  0  0  0
  -24.4657  -11.9818   19.2702 C   0  0  0  0  0  0  0  0  0  0  0  0
  -22.9289  -16.9775   20.0108 C   0  0  0  0  0  0  0  0  0  1  0  0
  -26.2032  -21.8039   24.5598 C   0  0  1  0  0  0  0  0  0  0  0  0
  -26.9266  -19.1473   27.1653 C   0  0  2  0  0  0  0  0  0  0  0  0
  -23.7823  -14.5546   19.3921 C   0  0  1  0  0  0  0  0  0  0  0  0
  -27.2948  -22.8318   24.1481 C   0  0  0  0  0  0  0  0  0  0  0  0
  -23.2889  -12.9906   19.5002 C   0  0  0  0  0  0  0  0  0  0  0  0
  -22.5795  -15.5823   19.4931 C   0  0  0  0  0  0  0  0  0  0  0  0
  -29.0223  -20.5420   20.0054 N   0  0  0  0  0  0  0  0  0  0  0  0
  -25.6430  -15.5003   22.5080 N   0  0  0  0  0  0  0  0  0  0  0  0
  -24.5668  -15.3058   21.7267 N   0  0  0  0  0  0  0  0  0  0  0  0
  -28.5540  -19.3522   19.5918 N   0  0  0  0  0  0  0  0  0  0  0  0
  -28.7370  -16.4290   22.0412 N   0  0  0  0  0  0  0  0  0  0  0  0
  -23.8069  -22.0129   23.9788 N   0  0  0  0  0  0  0  0  0  0  0  0
  -27.0566  -18.3406   18.0604 N   0  0  0  0  0  0  0  0  0  0  0  0
  -27.1008  -21.5639   16.0600 N   0  0  0  0  0  0  0  0  0  0  0  0
  -21.8905  -24.9083   23.1577 N   0  0  0  0  0  0  0  0  0  0  0  0
  -26.5125  -21.0583   25.7750 N   0  0  0  0  0  0  0  0  0  0  0  0
  -25.8060  -18.3167   27.6900 N   0  3  0  0  0  0  0  0  0  0  0  0
  -25.4305  -21.6954   17.6258 O   0  0  0  0  0  0  0  0  0  0  0  0
  -28.4792  -14.2162   22.7515 O   0  0  0  0  0  0  0  0  0  0  0  0
  -23.1616  -23.4563   21.8545 O   0  0  0  0  0  0  0  0  0  0  0  0
  -24.7484  -23.3134   25.6694 O   0  0  0  0  0  0  0  0  0  0  0  0
  -26.4082  -18.9507   24.8137 O   0  0  0  0  0  0  0  0  0  0  0  0
  -29.2674  -26.9014   19.7937 O   0  0  0  0  0  0  0  0  0  0  0  0
  -21.7470  -17.7752   19.9865 O   0  0  0  0  0  0  0  0  0  1  0  0
  -27.0754  -29.4215   24.1810 F   0  0  0  0  0  0  0  0  0  0  0  0
  -27.4623  -28.9723   19.4848 F   0  0  0  0  0  0  0  0  0  0  0  0
  -22.0281  -15.7478   18.2561 F   0  0  0  0  0  0  0  0  0  0  0  0
  -21.5777  -15.0956   20.2698 F   0  0  0  0  0  0  0  0  0  0  0  0
  1  2  1  0  0  0  0
  1  5  2  0  0  0  0
  2  6  2  0  0  0  0
  3  8  2  0  0  0  0
  3 16  1  0  0  0  0
  4  9  1  0  0  0  0
  4 16  2  0  0  0  0
  5 18  1  0  0  0  0
  6 20  1  0  0  0  0
  7 10  2  0  0  0  0
  7 19  1  0  0  0  0
  8 22  1  0  0  0  0
  9 22  2  0  0  0  0
 10 23  1  0  0  0  0
 11 12  2  0  0  0  0
 11 24  1  0  0  0  0
 12 25  1  0  0  0  0
 13 21  1  0  0  0  0
 13 23  2  0  0  0  0
 14 25  2  0  0  0  0
 14 26  1  0  0  0  0
 15 28  1  0  0  0  0
 15 29  2  0  0  0  0
 16 27  1  0  0  0  0
 17 27  1  0  0  0  0
 17 30  2  0  0  0  0
 17 31  1  0  0  0  0
 18 20  2  0  0  0  0
 18 36  1  0  0  0  0
 19 21  2  0  0  0  0
 19 37  1  0  0  0  0
 20 45  1  0  0  0  0
 21 38  1  0  0  0  0
 22 82  1  0  0  0  0
 23 83  1  0  0  0  0
 24 26  2  0  0  0  0
 24 82  1  0  0  0  0
 25 84  1  0  0  0  0
 26 85  1  0  0  0  0
 27 66  2  0  0  0  0
 28 32  1  0  0  0  0
 28 67  2  0  0  0  0
 29 62  1  0  0  0  0
 29 68  1  0  0  0  0
 30 69  1  0  0  0  0
 30 72  1  0  0  0  0
 31 73  1  0  0  0  0
 31 77  2  0  0  0  0
 32 70  1  0  0  0  0
 32 78  2  0  0  0  0
 33 46  1  0  0  0  0
 33 74  1  0  0  0  0
 33 79  2  0  0  0  0
 34 60  1  0  0  0  0
 34 71  1  0  0  0  0
 34 80  2  0  0  0  0
 35 61  1  0  0  0  0
 35 75  1  0  0  0  0
 35 81  2  0  0  0  0
 36 39  1  0  0  0  0
 37 46  1  0  0  0  0
 38 71  1  0  0  0  0
 39 41  1  0  0  0  0
 40 42  1  0  0  0  0
 40 43  1  0  0  0  0
 41 45  1  0  0  0  0
 42 47  1  0  0  0  0
 43 70  1  0  0  0  0
 44 47  1  0  0  0  0
 44 70  1  0  0  0  0
 45 74  1  0  0  0  0
 46 71  1  0  0  0  0
 47 69  1  0  0  0  0
 48 58  1  0  0  0  0
 49 61  1  0  0  0  0
 50 62  1  0  0  0  0
 51 63  1  0  0  0  0
 52 63  1  0  0  0  0
 53 63  1  0  0  0  0
 54 64  1  0  0  0  0
 55 64  1  0  0  0  0
 56 68  1  0  0  0  0
 57 76  1  0  0  0  0
 58 64  1  0  0  0  0
 59 65  1  0  0  0  0
 59 83  1  0  0  0  0
 60 63  1  0  0  0  0
 60 75  1  0  0  0  0
 61 76  1  0  0  0  0
 62 64  1  0  0  0  0
 62 65  1  0  0  0  0
 65 86  1  0  0  0  0
 65 87  1  0  0  0  0
 66 69  1  0  0  0  0
 67 68  1  0  0  0  0
M  CHG  1  76   1
M  ISO  4  28 100  32 100  59 101  83 101
M  END
> <Batch ID>
0058

> <Smiles>
CCC(C)(C)C(C)(c1c[100c:0]([100C:0](=O)N2CCCC(n3nc(-c4ccc(Oc5ccc(F)cc5F)cc4)c(C(N)=O)c3N)C2)nn1C)C(F)(F)[101CH2:1][101O:1]c1ccc2c(c1)CN(C(=O)C(NC(=O)C(C)NC)C(C)(C)C)C(C(=O)NC1CCCc3ccccc31)C2

> <Shape>
0.204

> <Color>
0.042

> <Negative vol penalty>
0.000

$$$$

  -OEChem-04052317503D

 81 89  0     1  0  0  0  0  0999 V2000
  -28.8029  -36.6770   24.6794 C   0  0  0  0  0  0  0  0  0  0  0  0
  -29.1200  -35.9073   23.5648 C   0  0  0  0  0  0  0  0  0  0  0  0
  -28.1077  -14.0546   22.3476 C   0  0  0  0  0  0  0  0  0  0  0  0
  -26.8265  -15.3441   20.7561 C   0  0  0  0  0  0  0  0  0  0  0  0
  -28.1068  -36.1062   25.7441 C   0  0  0  0  0  0  0  0  0  0  0  0
  -28.7421  -34.5660   23.5147 C   0  0  0  0  0  0  0  0  0  0  0  0
  -26.6907  -29.5134   18.8692 C   0  0  0  0  0  0  0  0  0  0  0  0
  -27.4253  -12.9007   21.9621 C   0  0  0  0  0  0  0  0  0  0  0  0
  -26.1441  -14.1902   20.3705 C   0  0  0  0  0  0  0  0  0  0  0  0
  -27.0094  -28.2124   18.4827 C   0  0  0  0  0  0  0  0  0  0  0  0
  -27.5217  -10.6855   19.4093 C   0  0  0  0  0  0  0  0  0  0  0  0
  -28.2727   -9.5303   19.1922 C   0  0  0  0  0  0  0  0  0  0  0  0
  -25.7409  -27.3544   20.3465 C   0  0  0  0  0  0  0  0  0  0  0  0
  -27.0261   -8.3947   20.9224 C   0  0  0  0  0  0  0  0  0  0  0  0
  -25.1466  -20.6357   20.5361 C   0  0  0  0  0  0  0  0  0  0  0  0
  -26.1765  -21.2171   19.8347 C   0  0  0  0  0  0  0  0  0  0  0  0
  -27.8082  -15.2763   21.7447 C   0  0  0  0  0  0  0  0  0  0  0  0
  -29.7051  -16.9753   21.5930 C   0  0  0  0  0  0  0  0  0  0  0  0
  -27.7118  -34.7598   25.7029 C   0  0  0  0  0  0  0  0  0  0  0  0
  -25.9024  -29.7455   20.0055 C   0  0  0  0  0  0  0  0  0  0  0  0
  -28.0413  -33.9763   24.5805 C   0  0  0  0  0  0  0  0  0  0  0  0
  -25.4115  -28.6592   20.7439 C   0  0  0  0  0  0  0  0  0  0  0  0
  -26.4436  -12.9685   20.9735 C   0  0  0  0  0  0  0  0  0  0  0  0
  -26.5369  -27.1327   19.2230 C   0  0  0  0  0  0  0  0  0  0  0  0
  -26.5230  -10.6954   20.3830 C   0  0  0  0  0  0  0  0  0  0  0  0
  -28.0249   -8.3849   19.9487 C   0  0  0  0  0  0  0  0  0  0  0  0
  -26.2751   -9.5500   21.1395 C   0  0  0  0  0  0  0  0  0  0  0  0
  -28.5123  -16.4686   22.1430 C   0  0  0  0  0  0  0  0  0  0  0  0
  -29.9576  -18.1170   22.3135 C   0  0  0  0  0  0  0  0  0  0  0  0
  -26.2821  -21.7113   21.9798 C   0  0  0  0  0  0  0  0  0  0  0  0
  -30.5125  -16.4600   20.5261 C   0  0  0  0  0  0  0  0  0  0  0  0
  -26.3503  -31.2270   22.7819 C   0  0  0  0  0  0  0  0  0  0  0  0
  -23.1930  -30.5993   23.1816 C   0  0  0  0  0  0  0  0  0  0  0  0
  -20.4985  -28.6665   22.3748 C   0  0  0  0  0  0  0  0  0  0  0  0
  -26.0177  -21.5505   25.5114 C   0  0  0  0  0  0  0  0  0  0  0  0
  -27.0024  -34.1745   26.8983 C   0  0  0  0  0  0  0  0  0  0  0  0
  -25.5454  -31.1541   20.3938 C   0  0  0  0  0  0  0  0  0  0  0  0
  -24.5447  -28.8540   21.9601 C   0  0  0  0  0  0  0  0  0  0  0  0
  -26.3106  -32.8455   26.6056 C   0  0  0  0  0  0  0  0  0  0  0  0
  -29.2356  -20.0856   26.6075 C   0  0  0  0  0  0  0  0  0  0  0  0
  -27.2426  -31.9174   25.8330 C   0  0  0  0  0  0  0  0  0  0  0  0
  -29.4711  -18.9868   25.5724 C   0  0  0  0  0  0  0  0  0  0  0  0
  -27.7494  -20.3647   26.8102 C   0  0  0  0  0  0  0  0  0  0  0  0
  -27.2543  -19.5817   24.5176 C   0  0  0  0  0  0  0  0  0  0  0  0
  -27.6270  -32.5244   24.4782 C   0  0  1  0  0  0  0  0  0  0  0  0
  -25.1621  -31.2896   21.8642 C   0  0  1  0  0  0  0  0  0  0  0  0
  -28.7430  -19.3084   24.2557 C   0  0  2  0  0  0  0  0  0  0  0  0
  -18.0606  -28.3714   22.8913 C   0  0  0  0  0  0  0  0  0  0  0  0
  -23.9172  -29.2958   25.8436 C   0  0  0  0  0  0  0  0  0  0  0  0
  -21.6605  -28.2115   25.8471 C   0  0  0  0  0  0  0  0  0  0  0  0
  -21.8475  -30.6985   25.8978 C   0  0  0  0  0  0  0  0  0  0  0  0
  -24.7515  -23.2467   24.2469 C   0  0  0  0  0  0  0  0  0  0  0  0
  -19.7214  -29.1895   19.5674 C   0  0  0  0  0  0  0  0  0  0  0  0
  -26.7948  -22.3134   23.2274 C   0  0  0  0  0  0  0  0  0  0  0  0
  -27.9396  -23.8146   19.4582 C   0  0  0  0  0  0  0  0  0  0  0  0
  -28.1361  -22.7171   20.5063 C   0  0  0  0  0  0  0  0  0  0  0  0
  -26.9399  -24.8838   19.8833 C   0  0  0  0  0  0  0  0  0  1  0  0
  -22.3953  -29.4577   23.7642 C   0  0  1  0  0  0  0  0  0  0  0  0
  -19.0800  -29.0318   21.9762 C   0  0  2  0  0  0  0  0  0  0  0  0
  -22.4730  -29.4119   25.3164 C   0  0  0  0  0  0  0  0  0  0  0  0
  -25.2179  -20.9474   21.8707 N   0  0  0  0  0  0  0  0  0  0  0  0
  -28.0400  -17.2263   23.1364 N   0  0  0  0  0  0  0  0  0  0  0  0
  -26.8951  -21.9032   20.7728 N   0  0  0  0  0  0  0  0  0  0  0  0
  -28.9406  -18.2206   23.2163 N   0  0  0  0  0  0  0  0  0  0  0  0
  -24.2285  -30.2504   22.3031 N   0  0  0  0  0  0  0  0  0  0  0  0
  -27.0735  -20.6245   25.5387 N   0  0  0  0  0  0  0  0  0  0  0  0
  -30.9482  -19.0323   22.2566 N   0  0  0  0  0  0  0  0  0  0  0  0
  -30.1080  -15.2764   19.8938 N   0  0  0  0  0  0  0  0  0  0  0  0
  -26.5438  -32.3722   23.5306 N   0  0  0  0  0  0  0  0  0  0  0  0
  -21.0417  -29.5949   23.2375 N   0  0  0  0  0  0  0  0  0  0  0  0
  -25.8259  -22.2669   24.3203 N   0  0  0  0  0  0  0  0  0  0  0  0
  -18.8069  -28.5971   20.5771 N   0  3  0  0  0  0  0  0  0  0  0  0
  -31.5703  -17.0233   20.1557 O   0  0  0  0  0  0  0  0  0  0  0  0
  -27.0395  -30.2141   22.8097 O   0  0  0  0  0  0  0  0  0  0  0  0
  -22.9032  -31.7583   23.4889 O   0  0  0  0  0  0  0  0  0  0  0  0
  -21.0664  -27.6565   21.9650 O   0  0  0  0  0  0  0  0  0  0  0  0
  -25.2942  -21.7338   26.4988 O   0  0  0  0  0  0  0  0  0  0  0  0
  -25.7777  -11.8428   20.5968 O   0  0  0  0  0  0  0  0  0  0  0  0
  -26.8471  -25.8617   18.8483 O   0  0  0  0  0  0  0  0  0  1  0  0
  -28.7451   -7.2752   19.7391 F   0  0  0  0  0  0  0  0  0  0  0  0
  -25.3161   -9.5530   22.0756 F   0  0  0  0  0  0  0  0  0  0  0  0
  1  2  1  0  0  0  0
  1  5  2  0  0  0  0
  2  6  2  0  0  0  0
  3  8  2  0  0  0  0
  3 17  1  0  0  0  0
  4  9  1  0  0  0  0
  4 17  2  0  0  0  0
  5 19  1  0  0  0  0
  6 21  1  0  0  0  0
  7 10  2  0  0  0  0
  7 20  1  0  0  0  0
  8 23  1  0  0  0  0
  9 23  2  0  0  0  0
 10 24  1  0  0  0  0
 11 12  2  0  0  0  0
 11 25  1  0  0  0  0
 12 26  1  0  0  0  0
 13 22  1  0  0  0  0
 13 24  2  0  0  0  0
 14 26  2  0  0  0  0
 14 27  1  0  0  0  0
 15 16  2  0  0  0  0
 15 61  1  0  0  0  0
 16 63  1  0  0  0  0
 17 28  1  0  0  0  0
 18 28  1  0  0  0  0
 18 29  2  0  0  0  0
 18 31  1  0  0  0  0
 19 21  2  0  0  0  0
 19 36  1  0  0  0  0
 20 22  2  0  0  0  0
 20 37  1  0  0  0  0
 21 45  1  0  0  0  0
 22 38  1  0  0  0  0
 23 78  1  0  0  0  0
 24 79  1  0  0  0  0
 25 27  2  0  0  0  0
 25 78  1  0  0  0  0
 26 80  1  0  0  0  0
 27 81  1  0  0  0  0
 28 62  2  0  0  0  0
 29 64  1  0  0  0  0
 29 67  1  0  0  0  0
 30 54  1  0  0  0  0
 30 61  2  0  0  0  0
 30 63  1  0  0  0  0
 31 68  1  0  0  0  0
 31 73  2  0  0  0  0
 32 46  1  0  0  0  0
 32 69  1  0  0  0  0
 32 74  2  0  0  0  0
 33 58  1  0  0  0  0
 33 65  1  0  0  0  0
 33 75  2  0  0  0  0
 34 59  1  0  0  0  0
 34 70  1  0  0  0  0
 34 76  2  0  0  0  0
 35 66  1  0  0  0  0
 35 71  1  0  0  0  0
 35 77  2  0  0  0  0
 36 39  1  0  0  0  0
 37 46  1  0  0  0  0
 38 65  1  0  0  0  0
 39 41  1  0  0  0  0
 40 42  1  0  0  0  0
 40 43  1  0  0  0  0
 41 45  1  0  0  0  0
 42 47  1  0  0  0  0
 43 66  1  0  0  0  0
 44 47  1  0  0  0  0
 44 66  1  0  0  0  0
 45 69  1  0  0  0  0
 46 65  1  0  0  0  0
 47 64  1  0  0  0  0
 48 59  1  0  0  0  0
 49 60  1  0  0  0  0
 50 60  1  0  0  0  0
 51 60  1  0  0  0  0
 52 71  1  0  0  0  0
 53 72  1  0  0  0  0
 54 71  1  0  0  0  0
 55 56  1  0  0  0  0
 55 57  1  0  0  0  0
 56 63  1  0  0  0  0
 57 79  1  0  0  0  0
 58 60  1  0  0  0  0
 58 70  1  0  0  0  0
 59 72  1  0  0  0  0
 62 64  1  0  0  0  0
M  CHG  1  72   1
M  ISO  4  35 100  57 101  71 100  79 101
M  END
> <Batch ID>
0058

> <Smiles>
CNC(C)C(=O)NC(C(=O)N1Cc2cc([101O:1][101CH2:1]CCn3ccnc3C[100N:0](C)[100C:0](=O)N3CCCC(n4nc(-c5ccc(Oc6ccc(F)cc6F)cc5)c(C(N)=O)c4N)C3)ccc2CC1C(=O)NC1CCCc2ccccc21)C(C)(C)C

> <Shape>
0.225

> <Color>
0.070

> <Negative vol penalty>
0.000

$$$$

  -OEChem-04052317503D

 82 90  0     1  0  0  0  0  0999 V2000
  -16.7499  -29.1594   24.1805 C   0  0  0  0  0  0  0  0  0  0  0  0
  -17.3267  -28.2328   23.3179 C   0  0  0  0  0  0  0  0  0  0  0  0
  -26.6480  -12.7024   20.0386 C   0  0  0  0  0  0  0  0  0  0  0  0
  -24.5097  -13.6827   20.5896 C   0  0  0  0  0  0  0  0  0  0  0  0
  -17.2979  -30.4361   24.2979 C   0  0  0  0  0  0  0  0  0  0  0  0
  -18.4513  -28.5827   22.5714 C   0  0  0  0  0  0  0  0  0  0  0  0
  -22.0089  -24.9789   22.6129 C   0  0  0  0  0  0  0  0  0  0  0  0
  -26.2510  -11.5035   20.6306 C   0  0  0  0  0  0  0  0  0  0  0  0
  -24.1126  -12.4837   21.1815 C   0  0  0  0  0  0  0  0  0  0  0  0
  -21.8090  -23.8773   21.7820 C   0  0  0  0  0  0  0  0  0  0  0  0
  -24.6245  -10.8573   24.1010 C   0  0  0  0  0  0  0  0  0  0  0  0
  -23.9901  -10.9258   25.3414 C   0  0  0  0  0  0  0  0  0  0  0  0
  -23.3200  -24.8325   20.1622 C   0  0  0  0  0  0  0  0  0  0  0  0
  -22.0347   -9.8642   24.4000 C   0  0  0  0  0  0  0  0  0  0  0  0
  -25.7774  -13.7920   20.0181 C   0  0  0  0  0  0  0  0  0  0  0  0
  -26.0161  -15.4136   18.0633 C   0  0  0  0  0  0  0  0  0  0  0  0
  -18.4355  -30.7986   23.5597 C   0  0  0  0  0  0  0  0  0  0  0  0
  -22.8588  -26.0225   22.2191 C   0  0  0  0  0  0  0  0  0  0  0  0
  -19.0142  -29.8658   22.6781 C   0  0  0  0  0  0  0  0  0  0  0  0
  -23.5309  -25.9451   20.9910 C   0  0  0  0  0  0  0  0  0  0  0  0
  -24.9832  -11.3941   21.2020 C   0  0  0  0  0  0  0  0  0  0  0  0
  -22.4624  -23.8054   20.5552 C   0  0  0  0  0  0  0  0  0  0  0  0
  -23.9639  -10.2922   23.0101 C   0  0  0  0  0  0  0  0  0  0  0  0
  -22.6952  -10.4293   25.4909 C   0  0  0  0  0  0  0  0  0  0  0  0
  -22.6690   -9.7957   23.1596 C   0  0  0  0  0  0  0  0  0  0  0  0
  -26.1872  -15.0310   19.4073 C   0  0  0  0  0  0  0  0  0  0  0  0
  -26.5712  -16.6678   17.9901 C   0  0  0  0  0  0  0  0  0  0  0  0
  -24.3527  -20.1696   21.0349 C   0  0  0  0  0  0  0  0  0  0  0  0
  -25.4095  -14.6992   16.9782 C   0  0  0  0  0  0  0  0  0  0  0  0
  -22.4812  -29.1245   21.6370 C   0  0  0  0  0  0  0  0  0  0  0  0
  -25.7119  -29.0663   21.3513 C   0  0  0  0  0  0  0  0  0  0  0  0
  -28.5312  -27.2544   20.7070 C   0  0  0  0  0  0  0  0  0  0  0  0
  -27.5266  -20.6793   22.5215 C   0  0  0  0  0  0  0  0  0  0  0  0
  -18.9639  -32.2057   23.6847 C   0  0  0  0  0  0  0  0  0  0  0  0
  -23.0845  -27.1913   23.1386 C   0  0  0  0  0  0  0  0  0  0  0  0
  -24.4695  -27.0294   20.5309 C   0  0  0  0  0  0  0  0  0  0  0  0
  -20.3795  -32.3754   23.1392 C   0  0  0  0  0  0  0  0  0  0  0  0
  -29.9246  -19.4147   20.0011 C   0  0  0  0  0  0  0  0  0  0  0  0
  -20.5090  -31.7079   21.7737 C   0  0  0  0  0  0  0  0  0  0  0  0
  -29.2455  -18.1389   19.5060 C   0  0  0  0  0  0  0  0  0  0  0  0
  -29.5373  -19.7415   21.4402 C   0  0  0  0  0  0  0  0  0  0  0  0
  -27.3893  -18.5468   21.1699 C   0  0  0  0  0  0  0  0  0  0  0  0
  -20.2495  -30.1997   21.8701 C   0  0  1  0  0  0  0  0  0  0  0  0
  -23.5726  -28.4394   22.4097 C   0  0  1  0  0  0  0  0  0  0  0  0
  -27.7221  -18.2146   19.7076 C   0  0  2  0  0  0  0  0  0  0  0  0
  -31.0218  -27.4897   20.5092 C   0  0  0  0  0  0  0  0  0  0  0  0
  -25.3684  -30.3759   18.6169 C   0  0  0  0  0  0  0  0  0  0  0  0
  -27.7262  -29.7226   18.0853 C   0  0  0  0  0  0  0  0  0  0  0  0
  -27.2619  -31.2813   19.9768 C   0  0  0  0  0  0  0  0  0  0  0  0
  -24.5899  -20.4795   17.7808 C   0  0  0  0  0  0  0  0  0  0  0  0
  -22.1101  -20.3947   17.9247 C   0  0  0  0  0  0  0  0  0  0  0  0
  -25.6241  -22.1202   23.1408 C   0  0  0  0  0  0  0  0  0  0  0  0
  -29.0036  -25.3531   22.9253 C   0  0  0  0  0  0  0  0  0  0  0  0
  -25.5701  -20.9920   20.9477 C   0  0  0  0  0  0  0  0  0  0  0  0
  -23.3512  -22.3575   18.8910 C   0  0  0  0  0  0  0  0  0  1  0  0
  -26.6808  -28.8326   20.2175 C   0  0  1  0  0  0  0  0  0  0  0  0
  -29.8600  -27.1658   21.4356 C   0  0  2  0  0  0  0  0  0  0  0  0
  -26.7402  -30.0334   19.2316 C   0  0  0  0  0  0  0  0  0  0  0  0
  -23.3845  -20.8205   18.6896 C   0  0  0  0  0  0  0  0  0  0  0  0
  -26.8030  -15.9663   20.1353 N   0  0  0  0  0  0  0  0  0  0  0  0
  -23.9739  -19.3940   22.0244 N   0  0  0  0  0  0  0  0  0  0  0  0
  -22.7756  -18.8446   21.6277 N   0  0  0  0  0  0  0  0  0  0  0  0
  -22.4291  -19.2763   20.4212 N   0  0  0  0  0  0  0  0  0  0  0  0
  -27.0237  -16.9491   19.2456 N   0  0  0  0  0  0  0  0  0  0  0  0
  -23.4166  -20.1043   20.0527 N   0  0  0  0  0  0  0  0  0  0  0  0
  -24.6524  -28.1547   21.4624 N   0  0  0  0  0  0  0  0  0  0  0  0
  -28.0845  -19.7645   21.6133 N   0  0  0  0  0  0  0  0  0  0  0  0
  -26.7115  -17.5464   16.9748 N   0  0  0  0  0  0  0  0  0  0  0  0
  -24.8890  -13.4220   17.2273 N   0  0  0  0  0  0  0  0  0  0  0  0
  -21.4075  -29.5211   22.4113 N   0  0  0  0  0  0  0  0  0  0  0  0
  -27.9605  -28.5030   20.8355 N   0  0  0  0  0  0  0  0  0  0  0  0
  -26.2403  -21.1611   22.2351 N   0  0  0  0  0  0  0  0  0  0  0  0
  -30.0617  -25.7932   21.9801 N   0  3  0  0  0  0  0  0  0  0  0  0
  -25.3461  -15.1726   15.8183 O   0  0  0  0  0  0  0  0  0  0  0  0
  -22.6047  -29.2830   20.4282 O   0  0  0  0  0  0  0  0  0  0  0  0
  -25.8926  -30.0183   22.1146 O   0  0  0  0  0  0  0  0  0  0  0  0
  -28.0495  -26.3114   20.0830 O   0  0  0  0  0  0  0  0  0  0  0  0
  -28.1469  -21.0518   23.5256 O   0  0  0  0  0  0  0  0  0  0  0  0
  -24.5954  -10.2242   21.7795 O   0  0  0  0  0  0  0  0  0  0  0  0
  -22.2686  -22.7316   19.7421 O   0  0  0  0  0  0  0  0  0  1  0  0
  -22.0867  -10.4938   26.6824 F   0  0  0  0  0  0  0  0  0  0  0  0
  -22.0298   -9.2506   22.1155 F   0  0  0  0  0  0  0  0  0  0  0  0
  1  2  1  0  0  0  0
  1  5  2  0  0  0  0
  2  6  2  0  0  0  0
  3  8  2  0  0  0  0
  3 15  1  0  0  0  0
  4  9  1  0  0  0  0
  4 15  2  0  0  0  0
  5 17  1  0  0  0  0
  6 19  1  0  0  0  0
  7 10  2  0  0  0  0
  7 18  1  0  0  0  0
  8 21  1  0  0  0  0
  9 21  2  0  0  0  0
 10 22  1  0  0  0  0
 11 12  2  0  0  0  0
 11 23  1  0  0  0  0
 12 24  1  0  0  0  0
 13 20  1  0  0  0  0
 13 22  2  0  0  0  0
 14 24  2  0  0  0  0
 14 25  1  0  0  0  0
 15 26  1  0  0  0  0
 16 26  1  0  0  0  0
 16 27  2  0  0  0  0
 16 29  1  0  0  0  0
 17 19  2  0  0  0  0
 17 34  1  0  0  0  0
 18 20  2  0  0  0  0
 18 35  1  0  0  0  0
 19 43  1  0  0  0  0
 20 36  1  0  0  0  0
 21 79  1  0  0  0  0
 22 80  1  0  0  0  0
 23 25  2  0  0  0  0
 23 79  1  0  0  0  0
 24 81  1  0  0  0  0
 25 82  1  0  0  0  0
 26 60  2  0  0  0  0
 27 64  1  0  0  0  0
 27 68  1  0  0  0  0
 28 54  1  0  0  0  0
 28 61  2  0  0  0  0
 28 65  1  0  0  0  0
 29 69  1  0  0  0  0
 29 74  2  0  0  0  0
 30 44  1  0  0  0  0
 30 70  1  0  0  0  0
 30 75  2  0  0  0  0
 31 56  1  0  0  0  0
 31 66  1  0  0  0  0
 31 76  2  0  0  0  0
 32 57  1  0  0  0  0
 32 71  1  0  0  0  0
 32 77  2  0  0  0  0
 33 67  1  0  0  0  0
 33 72  1  0  0  0  0
 33 78  2  0  0  0  0
 34 37  1  0  0  0  0
 35 44  1  0  0  0  0
 36 66  1  0  0  0  0
 37 39  1  0  0  0  0
 38 40  1  0  0  0  0
 38 41  1  0  0  0  0
 39 43  1  0  0  0  0
 40 45  1  0  0  0  0
 41 67  1  0  0  0  0
 42 45  1  0  0  0  0
 42 67  1  0  0  0  0
 43 70  1  0  0  0  0
 44 66  1  0  0  0  0
 45 64  1  0  0  0  0
 46 57  1  0  0  0  0
 47 58  1  0  0  0  0
 48 58  1  0  0  0  0
 49 58  1  0  0  0  0
 50 59  1  0  0  0  0
 51 59  1  0  0  0  0
 52 72  1  0  0  0  0
 53 73  1  0  0  0  0
 54 72  1  0  0  0  0
 55 59  1  0  0  0  0
 55 80  1  0  0  0  0
 56 58  1  0  0  0  0
 56 71  1  0  0  0  0
 57 73  1  0  0  0  0
 59 65  1  0  0  0  0
 60 64  1  0  0  0  0
 61 62  1  0  0  0  0
 62 63  2  0  0  0  0
 63 65  1  0  0  0  0
M  CHG  1  73   1
M  ISO  4  33 100  55 101  72 100  80 101
M  END
> <Batch ID>
0058

> <Smiles>
CNC(C)C(=O)NC(C(=O)N1Cc2cc([101O:1][101CH2:1]C(C)(C)n3nnnc3C[100N:0](C)[100C:0](=O)N3CCCC(n4nc(-c5ccc(Oc6ccc(F)cc6F)cc5)c(C(N)=O)c4N)C3)ccc2CC1C(=O)NC1CCCc2ccccc21)C(C)(C)C

> <Shape>
0.197

> <Color>
0.069

> <Negative vol penalty>
0.000

$$$$

  -OEChem-04052317503D

 82 90  0     1  0  0  0  0  0999 V2000
  -16.7830  -24.7001   23.4629 C   0  0  0  0  0  0  0  0  0  0  0  0
  -17.6653  -24.2015   22.5098 C   0  0  0  0  0  0  0  0  0  0  0  0
  -26.5842  -13.8868   19.9980 C   0  0  0  0  0  0  0  0  0  0  0  0
  -25.8498  -13.4420   22.2563 C   0  0  0  0  0  0  0  0  0  0  0  0
  -16.8636  -26.0357   23.8547 C   0  0  0  0  0  0  0  0  0  0  0  0
  -18.6282  -25.0386   21.9472 C   0  0  0  0  0  0  0  0  0  0  0  0
  -23.1908  -22.8563   21.6936 C   0  0  0  0  0  0  0  0  0  0  0  0
  -25.5283  -13.1212   19.5037 C   0  0  0  0  0  0  0  0  0  0  0  0
  -24.7937  -12.6764   21.7620 C   0  0  0  0  0  0  0  0  0  0  0  0
  -23.4007  -21.9369   20.6668 C   0  0  0  0  0  0  0  0  0  0  0  0
  -24.3398   -9.5636   20.5229 C   0  0  0  0  0  0  0  0  0  0  0  0
  -24.0898   -8.3342   21.1325 C   0  0  0  0  0  0  0  0  0  0  0  0
  -24.5495  -23.6321   19.3918 C   0  0  0  0  0  0  0  0  0  0  0  0
  -21.8658   -9.0760   21.7164 C   0  0  0  0  0  0  0  0  0  0  0  0
  -26.7450  -14.0472   21.3743 C   0  0  0  0  0  0  0  0  0  0  0  0
  -29.2121  -14.6145   21.6895 C   0  0  0  0  0  0  0  0  0  0  0  0
  -17.8342  -26.8872   23.3037 C   0  0  0  0  0  0  0  0  0  0  0  0
  -23.6500  -24.1758   21.5724 C   0  0  0  0  0  0  0  0  0  0  0  0
  -18.7210  -26.3872   22.3310 C   0  0  0  0  0  0  0  0  0  0  0  0
  -24.3465  -24.5657   20.4196 C   0  0  0  0  0  0  0  0  0  0  0  0
  -24.6330  -12.5160   20.3857 C   0  0  0  0  0  0  0  0  0  0  0  0
  -24.0776  -22.3255   19.5145 C   0  0  0  0  0  0  0  0  0  0  0  0
  -23.3528  -10.5493   20.5101 C   0  0  0  0  0  0  0  0  0  0  0  0
  -22.8528   -8.0904   21.7292 C   0  0  0  0  0  0  0  0  0  0  0  0
  -22.1158  -10.3054   21.1068 C   0  0  0  0  0  0  0  0  0  0  0  0
  -27.8360  -14.8375   21.8855 C   0  0  0  0  0  0  0  0  0  0  0  0
  -29.8261  -15.6349   22.3738 C   0  0  0  0  0  0  0  0  0  0  0  0
  -28.6327  -20.3476   20.7125 C   0  0  0  0  0  0  0  0  0  0  0  0
  -27.3768  -19.6623   19.1926 C   0  0  0  0  0  0  0  0  0  0  0  0
  -29.8759  -13.5778   20.9546 C   0  0  0  0  0  0  0  0  0  0  0  0
  -22.2650  -27.0362   21.5114 C   0  0  0  0  0  0  0  0  0  0  0  0
  -25.3326  -28.0905   21.5293 C   0  0  0  0  0  0  0  0  0  0  0  0
  -28.6168  -27.4602   20.8485 C   0  0  0  0  0  0  0  0  0  0  0  0
  -27.5082  -21.0715   23.9890 C   0  0  0  0  0  0  0  0  0  0  0  0
  -17.8520  -28.3355   23.7239 C   0  0  0  0  0  0  0  0  0  0  0  0
  -23.4390  -25.1483   22.7003 C   0  0  0  0  0  0  0  0  0  0  0  0
  -24.8774  -25.9648   20.2489 C   0  0  0  0  0  0  0  0  0  0  0  0
  -19.1433  -29.0611   23.3543 C   0  0  0  0  0  0  0  0  0  0  0  0
  -29.2138  -18.5579   26.1042 C   0  0  0  0  0  0  0  0  0  0  0  0
  -19.5329  -28.7559   21.9114 C   0  0  0  0  0  0  0  0  0  0  0  0
  -29.1015  -17.2857   25.2658 C   0  0  0  0  0  0  0  0  0  0  0  0
  -28.0644  -19.5224   25.8281 C   0  0  0  0  0  0  0  0  0  0  0  0
  -27.7891  -18.5971   23.5517 C   0  0  0  0  0  0  0  0  0  0  0  0
  -19.7952  -27.2578   21.7159 C   0  0  1  0  0  0  0  0  0  0  0  0
  -23.4992  -26.6053   22.2521 C   0  0  1  0  0  0  0  0  0  0  0  0
  -28.9572  -17.6242   23.7719 C   0  0  2  0  0  0  0  0  0  0  0  0
  -31.0964  -27.8410   20.7854 C   0  0  0  0  0  0  0  0  0  0  0  0
  -24.6518  -29.7300   19.0477 C   0  0  0  0  0  0  0  0  0  0  0  0
  -27.1069  -29.9985   18.6369 C   0  0  0  0  0  0  0  0  0  0  0  0
  -26.0851  -30.9148   20.7199 C   0  0  0  0  0  0  0  0  0  0  0  0
  -29.2024  -19.0566   17.5605 C   0  0  0  0  0  0  0  0  0  0  0  0
  -27.5875  -22.8555   22.2888 C   0  0  0  0  0  0  0  0  0  0  0  0
  -28.9914  -26.2239   23.5112 C   0  0  0  0  0  0  0  0  0  0  0  0
  -29.0647  -20.9009   22.0013 C   0  0  0  0  0  0  0  0  0  0  0  0
  -26.2203  -19.2469   18.3188 C   0  0  0  0  0  0  0  0  0  0  0  0
  -25.9046  -20.2423   17.2003 C   0  0  0  0  0  0  0  0  0  0  0  0
  -25.4544  -21.6049   17.7141 C   0  0  0  0  0  0  0  0  0  1  0  0
  -26.3582  -28.4138   20.4698 C   0  0  1  0  0  0  0  0  0  0  0  0
  -29.8742  -27.6669   21.6735 C   0  0  2  0  0  0  0  0  0  0  0  0
  -26.0389  -29.7384   19.7207 C   0  0  0  0  0  0  0  0  0  0  0  0
  -27.5899  -15.9148   22.6357 N   0  0  0  0  0  0  0  0  0  0  0  0
  -27.3151  -20.1656   20.4035 N   0  0  0  0  0  0  0  0  0  0  0  0
  -29.5058  -19.9886   19.7688 N   0  0  0  0  0  0  0  0  0  0  0  0
  -28.8197  -16.3779   22.9172 N   0  0  0  0  0  0  0  0  0  0  0  0
  -28.6767  -19.5539   18.8076 N   0  0  0  0  0  0  0  0  0  0  0  0
  -24.6404  -26.8807   21.3769 N   0  0  0  0  0  0  0  0  0  0  0  0
  -27.9224  -19.7930   24.3971 N   0  0  0  0  0  0  0  0  0  0  0  0
  -31.1234  -15.9601   22.5577 N   0  0  0  0  0  0  0  0  0  0  0  0
  -30.1541  -13.7936   19.5980 N   0  0  0  0  0  0  0  0  0  0  0  0
  -21.0970  -26.9003   22.2373 N   0  0  0  0  0  0  0  0  0  0  0  0
  -27.6542  -28.4036   21.1395 N   0  0  0  0  0  0  0  0  0  0  0  0
  -27.9799  -21.5315   22.7501 N   0  0  0  0  0  0  0  0  0  0  0  0
  -30.1055  -26.4969   22.5672 N   0  3  0  0  0  0  0  0  0  0  0  0
  -30.1978  -12.4856   21.4811 O   0  0  0  0  0  0  0  0  0  0  0  0
  -22.3650  -27.4618   20.3666 O   0  0  0  0  0  0  0  0  0  0  0  0
  -25.1574  -28.8787   22.4619 O   0  0  0  0  0  0  0  0  0  0  0  0
  -28.5015  -26.5548   20.0253 O   0  0  0  0  0  0  0  0  0  0  0  0
  -26.7673  -21.7664   24.6962 O   0  0  0  0  0  0  0  0  0  0  0  0
  -23.6023  -11.7690   19.9038 O   0  0  0  0  0  0  0  0  0  0  0  0
  -24.2832  -21.4302   18.5104 O   0  0  0  0  0  0  0  0  0  1  0  0
  -22.6123   -6.9092   22.3133 F   0  0  0  0  0  0  0  0  0  0  0  0
  -21.1634  -11.2480   21.0966 F   0  0  0  0  0  0  0  0  0  0  0  0
  1  2  1  0  0  0  0
  1  5  2  0  0  0  0
  2  6  2  0  0  0  0
  3  8  2  0  0  0  0
  3 15  1  0  0  0  0
  4  9  1  0  0  0  0
  4 15  2  0  0  0  0
  5 17  1  0  0  0  0
  6 19  1  0  0  0  0
  7 10  2  0  0  0  0
  7 18  1  0  0  0  0
  8 21  1  0  0  0  0
  9 21  2  0  0  0  0
 10 22  1  0  0  0  0
 11 12  2  0  0  0  0
 11 23  1  0  0  0  0
 12 24  1  0  0  0  0
 13 20  1  0  0  0  0
 13 22  2  0  0  0  0
 14 24  2  0  0  0  0
 14 25  1  0  0  0  0
 15 26  1  0  0  0  0
 16 26  1  0  0  0  0
 16 27  2  0  0  0  0
 16 30  1  0  0  0  0
 17 19  2  0  0  0  0
 17 35  1  0  0  0  0
 18 20  2  0  0  0  0
 18 36  1  0  0  0  0
 19 44  1  0  0  0  0
 20 37  1  0  0  0  0
 21 79  1  0  0  0  0
 22 80  1  0  0  0  0
 23 25  2  0  0  0  0
 23 79  1  0  0  0  0
 24 81  1  0  0  0  0
 25 82  1  0  0  0  0
 26 61  2  0  0  0  0
 27 64  1  0  0  0  0
 27 68  1  0  0  0  0
 28 54  1  0  0  0  0
 28 62  1  0  0  0  0
 28 63  2  0  0  0  0
 29 55  1  0  0  0  0
 29 62  2  0  0  0  0
 29 65  1  0  0  0  0
 30 69  1  0  0  0  0
 30 74  2  0  0  0  0
 31 45  1  0  0  0  0
 31 70  1  0  0  0  0
 31 75  2  0  0  0  0
 32 58  1  0  0  0  0
 32 66  1  0  0  0  0
 32 76  2  0  0  0  0
 33 59  1  0  0  0  0
 33 71  1  0  0  0  0
 33 77  2  0  0  0  0
 34 67  1  0  0  0  0
 34 72  1  0  0  0  0
 34 78  2  0  0  0  0
 35 38  1  0  0  0  0
 36 45  1  0  0  0  0
 37 66  1  0  0  0  0
 38 40  1  0  0  0  0
 39 41  1  0  0  0  0
 39 42  1  0  0  0  0
 40 44  1  0  0  0  0
 41 46  1  0  0  0  0
 42 67  1  0  0  0  0
 43 46  1  0  0  0  0
 43 67  1  0  0  0  0
 44 70  1  0  0  0  0
 45 66  1  0  0  0  0
 46 64  1  0  0  0  0
 47 59  1  0  0  0  0
 48 60  1  0  0  0  0
 49 60  1  0  0  0  0
 50 60  1  0  0  0  0
 51 65  1  0  0  0  0
 52 72  1  0  0  0  0
 53 73  1  0  0  0  0
 54 72  1  0  0  0  0
 55 56  1  0  0  0  0
 56 57  1  0  0  0  0
 57 80  1  0  0  0  0
 58 60  1  0  0  0  0
 58 71  1  0  0  0  0
 59 73  1  0  0  0  0
 61 64  1  0  0  0  0
 63 65  1  0  0  0  0
M  CHG  1  73   1
M  ISO  4  34 100  57 101  72 100  80 101
M  END
> <Batch ID>
0058

> <Smiles>
CNC(C)C(=O)NC(C(=O)N1Cc2cc([101O:1][101CH2:1]CCc3nc(C[100N:0](C)[100C:0](=O)N4CCCC(n5nc(-c6ccc(Oc7ccc(F)cc7F)cc6)c(C(N)=O)c5N)C4)nn3C)ccc2CC1C(=O)NC1CCCc2ccccc21)C(C)(C)C

> <Shape>
0.245

> <Color>
0.079

> <Negative vol penalty>
0.000

$$$$

  -OEChem-04052317503D

 84 92  0     1  0  0  0  0  0999 V2000
  -22.3725  -23.0637   18.2982 C   0  0  0  0  0  0  0  0  0  0  0  0
  -23.6676  -22.5568   18.3308 C   0  0  0  0  0  0  0  0  0  0  0  0
  -26.4828  -29.6906   19.7724 C   0  0  0  0  0  0  0  0  0  0  0  0
  -26.0804  -28.7558   21.9636 C   0  0  0  0  0  0  0  0  0  0  0  0
  -21.3906  -22.5181   19.1242 C   0  0  0  0  0  0  0  0  0  0  0  0
  -23.9819  -21.5047   19.1903 C   0  0  0  0  0  0  0  0  0  0  0  0
  -27.9593  -16.9651   18.1516 C   0  0  0  0  0  0  0  0  0  0  0  0
  -25.3062  -30.4329   19.8729 C   0  0  0  0  0  0  0  0  0  0  0  0
  -24.9038  -29.4982   22.0641 C   0  0  0  0  0  0  0  0  0  0  0  0
  -29.2831  -16.7699   18.5432 C   0  0  0  0  0  0  0  0  0  0  0  0
  -21.6092  -30.8722   22.7483 C   0  0  0  0  0  0  0  0  0  0  0  0
  -20.4715  -30.2222   23.2265 C   0  0  0  0  0  0  0  0  0  0  0  0
  -28.5288  -15.4381   20.4077 C   0  0  0  0  0  0  0  0  0  0  0  0
  -20.5926  -28.6582   21.3889 C   0  0  0  0  0  0  0  0  0  0  0  0
  -32.2461  -19.6183   22.8294 C   0  0  0  0  0  0  0  0  0  0  0  0
  -26.8699  -28.8520   20.8177 C   0  0  0  0  0  0  0  0  0  0  0  0
  -29.3751  -28.4766   21.1186 C   0  0  0  0  0  0  0  0  0  0  0  0
  -21.6907  -21.4524   19.9872 C   0  0  0  0  0  0  0  0  0  0  0  0
  -26.9081  -16.4064   18.8926 C   0  0  0  0  0  0  0  0  0  0  0  0
  -23.0035  -20.9452   20.0295 C   0  0  0  0  0  0  0  0  0  0  0  0
  -27.1927  -15.6255   20.0220 C   0  0  0  0  0  0  0  0  0  0  0  0
  -24.5167  -30.3367   21.0188 C   0  0  0  0  0  0  0  0  0  0  0  0
  -29.5679  -16.0087   19.6731 C   0  0  0  0  0  0  0  0  0  0  0  0
  -22.2386  -30.4152   21.5904 C   0  0  0  0  0  0  0  0  0  0  0  0
  -19.9632  -29.1152   22.5468 C   0  0  0  0  0  0  0  0  0  0  0  0
  -21.7304  -29.3082   20.9107 C   0  0  0  0  0  0  0  0  0  0  0  0
  -28.0850  -28.0845   20.7142 C   0  0  0  0  0  0  0  0  0  0  0  0
  -31.7251  -18.4189   22.4331 C   0  0  0  0  0  0  0  0  0  0  0  0
  -30.1734  -27.4029   20.8081 C   0  0  0  0  0  0  0  0  0  0  0  0
  -30.0777  -19.8969   22.4815 C   0  0  0  0  0  0  0  0  0  0  0  0
  -29.8129  -29.7017   21.7212 C   0  0  0  0  0  0  0  0  0  0  0  0
  -24.4404  -17.5765   20.5191 C   0  0  0  0  0  0  0  0  0  0  0  0
  -23.6374  -14.4457   20.7944 C   0  0  0  0  0  0  0  0  0  0  0  0
  -24.6448  -11.1850   20.7889 C   0  0  0  0  0  0  0  0  0  0  0  0
  -29.0676  -21.5552   20.1504 C   0  0  0  0  0  0  0  0  0  0  0  0
  -20.6075  -20.9268   20.8956 C   0  0  0  0  0  0  0  0  0  0  0  0
  -25.4868  -16.6040   18.4417 C   0  0  0  0  0  0  0  0  0  0  0  0
  -26.1012  -14.9871   20.8402 C   0  0  0  0  0  0  0  0  0  0  0  0
  -20.9318  -19.5658   21.5060 C   0  0  0  0  0  0  0  0  0  0  0  0
  -30.5047  -23.7465   17.7402 C   0  0  0  0  0  0  0  0  0  0  0  0
  -22.3568  -19.5505   22.0500 C   0  0  0  0  0  0  0  0  0  0  0  0
  -30.1639  -25.1422   18.2655 C   0  0  0  0  0  0  0  0  0  0  0  0
  -29.3755  -22.7529   18.0040 C   0  0  0  0  0  0  0  0  0  0  0  0
  -28.5944  -24.0703   19.9348 C   0  0  0  0  0  0  0  0  0  0  0  0
  -23.3773  -19.7882   20.9304 C   0  0  1  0  0  0  0  0  0  0  0  0
  -24.4719  -16.4160   19.5651 C   0  0  1  0  0  0  0  0  0  0  0  0
  -29.7262  -25.0941   19.7418 C   0  0  2  0  0  0  0  0  0  0  0  0
  -27.6506  -19.4921   21.9275 C   0  0  0  0  0  0  0  0  0  0  0  0
  -23.7675   -8.8518   21.0781 C   0  0  0  0  0  0  0  0  0  0  0  0
  -32.2200  -22.6857   22.2532 C   0  0  0  0  0  0  0  0  0  0  0  0
  -31.7565  -22.0913   24.6695 C   0  0  0  0  0  0  0  0  0  0  0  0
  -23.4871  -14.8787   23.8110 C   0  0  0  0  0  0  0  0  0  0  0  0
  -23.5561  -12.3928   24.1010 C   0  0  0  0  0  0  0  0  0  0  0  0
  -21.6622  -13.4510   22.8698 C   0  0  0  0  0  0  0  0  0  0  0  0
  -25.4600  -10.4148   18.0501 C   0  0  0  0  0  0  0  0  0  0  0  0
  -32.3709  -17.0724   22.2245 C   0  0  0  0  0  0  0  0  0  0  0  0
  -32.8913  -16.8525   20.8024 C   0  0  0  0  0  0  0  0  0  0  0  0
  -31.7894  -16.8543   19.7492 C   0  0  0  0  0  0  0  0  0  1  0  0
  -28.7259  -20.4993   22.3702 C   0  0  2  0  0  0  0  0  0  0  0  0
  -23.9427  -13.3467   21.7833 C   0  0  1  0  0  0  0  0  0  0  0  0
  -24.0877   -9.9598   20.0869 C   0  0  2  0  0  0  0  0  0  0  0  0
  -31.3158  -21.9129   23.2154 C   0  0  0  0  0  0  0  0  0  0  0  0
  -23.1827  -13.5308   23.1272 C   0  0  0  0  0  0  0  0  0  0  0  0
  -28.0605  -26.8576   20.1869 N   0  0  0  0  0  0  0  0  0  0  0  0
  -31.2048  -20.5145   22.8501 N   0  0  0  0  0  0  0  0  0  0  0  0
  -29.3452  -26.4695   20.2577 N   0  0  0  0  0  0  0  0  0  0  0  0
  -30.3820  -18.6205   22.2250 N   0  3  0  0  0  0  0  0  0  0  0  0
  -24.7274  -15.2147   20.3624 N   0  0  0  0  0  0  0  0  0  0  0  0
  -29.0089  -22.7549   19.4223 N   0  0  0  0  0  0  0  0  0  0  0  0
  -31.4960  -27.1756   20.9548 N   0  0  0  0  0  0  0  0  0  0  0  0
  -28.8618  -30.7003   21.9716 N   0  0  0  0  0  0  0  0  0  0  0  0
  -23.5655  -18.5816   20.1536 N   0  0  0  0  0  0  0  0  0  0  0  0
  -23.6527  -12.0907   21.1001 N   0  0  0  0  0  0  0  0  0  0  0  0
  -28.7099  -21.6463   21.4900 N   0  0  0  0  0  0  0  0  0  0  0  0
  -25.0728   -9.4363   19.0987 N   0  3  0  0  0  0  0  0  0  0  0  0
  -31.0146  -29.9114   22.0133 O   0  0  0  0  0  0  0  0  0  0  0  0
  -25.1558  -17.5604   21.5139 O   0  0  0  0  0  0  0  0  0  0  0  0
  -22.4759  -14.6111   20.4135 O   0  0  0  0  0  0  0  0  0  0  0  0
  -25.8400  -11.3231   21.0398 O   0  0  0  0  0  0  0  0  0  0  0  0
  -29.4183  -20.4832   19.6455 O   0  0  0  0  0  0  0  0  0  0  0  0
  -23.3686  -31.0611   21.1173 O   0  0  0  0  0  0  0  0  0  0  0  0
  -30.8590  -15.8172   20.0579 O   0  0  0  0  0  0  0  0  0  1  0  0
  -18.8715  -28.4902   23.0070 F   0  0  0  0  0  0  0  0  0  0  0  0
  -22.3314  -28.8639   19.7985 F   0  0  0  0  0  0  0  0  0  0  0  0
  1  2  1  0  0  0  0
  1  5  2  0  0  0  0
  2  6  2  0  0  0  0
  3  8  2  0  0  0  0
  3 16  1  0  0  0  0
  4  9  1  0  0  0  0
  4 16  2  0  0  0  0
  5 18  1  0  0  0  0
  6 20  1  0  0  0  0
  7 10  2  0  0  0  0
  7 19  1  0  0  0  0
  8 22  1  0  0  0  0
  9 22  2  0  0  0  0
 10 23  1  0  0  0  0
 11 12  2  0  0  0  0
 11 24  1  0  0  0  0
 12 25  1  0  0  0  0
 13 21  1  0  0  0  0
 13 23  2  0  0  0  0
 14 25  2  0  0  0  0
 14 26  1  0  0  0  0
 15 28  2  0  0  0  0
 15 65  1  0  0  0  0
 16 27  1  0  0  0  0
 17 27  1  0  0  0  0
 17 29  2  0  0  0  0
 17 31  1  0  0  0  0
 18 20  2  0  0  0  0
 18 36  1  0  0  0  0
 19 21  2  0  0  0  0
 19 37  1  0  0  0  0
 20 45  1  0  0  0  0
 21 38  1  0  0  0  0
 22 81  1  0  0  0  0
 23 82  1  0  0  0  0
 24 26  2  0  0  0  0
 24 81  1  0  0  0  0
 25 83  1  0  0  0  0
 26 84  1  0  0  0  0
 27 64  2  0  0  0  0
 28 56  1  0  0  0  0
 28 67  1  0  0  0  0
 29 66  1  0  0  0  0
 29 70  1  0  0  0  0
 30 59  1  0  0  0  0
 30 65  1  0  0  0  0
 30 67  2  0  0  0  0
 31 71  1  0  0  0  0
 31 76  2  0  0  0  0
 32 46  1  0  0  0  0
 32 72  1  0  0  0  0
 32 77  2  0  0  0  0
 33 60  1  0  0  0  0
 33 68  1  0  0  0  0
 33 78  2  0  0  0  0
 34 61  1  0  0  0  0
 34 73  1  0  0  0  0
 34 79  2  0  0  0  0
 35 69  1  0  0  0  0
 35 74  1  0  0  0  0
 35 80  2  0  0  0  0
 36 39  1  0  0  0  0
 37 46  1  0  0  0  0
 38 68  1  0  0  0  0
 39 41  1  0  0  0  0
 40 42  1  0  0  0  0
 40 43  1  0  0  0  0
 41 45  1  0  0  0  0
 42 47  1  0  0  0  0
 43 69  1  0  0  0  0
 44 47  1  0  0  0  0
 44 69  1  0  0  0  0
 45 72  1  0  0  0  0
 46 68  1  0  0  0  0
 47 66  1  0  0  0  0
 48 59  1  0  0  0  0
 49 61  1  0  0  0  0
 50 62  1  0  0  0  0
 51 62  1  0  0  0  0
 52 63  1  0  0  0  0
 53 63  1  0  0  0  0
 54 63  1  0  0  0  0
 55 75  1  0  0  0  0
 56 57  1  0  0  0  0
 57 58  1  0  0  0  0
 58 82  1  0  0  0  0
 59 74  1  0  0  0  0
 60 63  1  0  0  0  0
 60 73  1  0  0  0  0
 61 75  1  0  0  0  0
 62 65  1  0  0  0  0
 64 66  1  0  0  0  0
M  CHG  2  67   1  75   1
M  ISO  4  35 100  58 101  74 100  82 101
M  END
> <Batch ID>
0058

> <Smiles>
CNC(C)C(=O)NC(C(=O)N1Cc2cc([101O:1][101CH2:1]CCc3cn(C(C)C)c(C(C)[100NH:0][100C:0](=O)N4CCCC(n5nc(-c6ccc(Oc7ccc(F)cc7F)cc6)c(C(N)=O)c5N)C4)n3)ccc2CC1C(=O)NC1CCCc2ccccc21)C(C)(C)C

> <Shape>
0.253

> <Color>
0.074

> <Negative vol penalty>
0.000

$$$$

  -OEChem-04052317503D

 84 92  0     1  0  0  0  0  0999 V2000
  -35.4298  -19.4508   26.3735 C   0  0  0  0  0  0  0  0  0  0  0  0
  -34.5405  -19.9411   25.4227 C   0  0  0  0  0  0  0  0  0  0  0  0
  -20.2446  -26.6954   21.9833 C   0  0  0  0  0  0  0  0  0  0  0  0
  -20.1964  -28.4813   23.6097 C   0  0  0  0  0  0  0  0  0  0  0  0
  -35.7367  -18.0911   26.4037 C   0  0  0  0  0  0  0  0  0  0  0  0
  -33.9584  -19.0720   24.5006 C   0  0  0  0  0  0  0  0  0  0  0  0
  -28.9924  -19.8846   23.9318 C   0  0  0  0  0  0  0  0  0  0  0  0
  -18.9054  -26.9375   21.6777 C   0  0  0  0  0  0  0  0  0  0  0  0
  -18.8571  -28.7235   23.3040 C   0  0  0  0  0  0  0  0  0  0  0  0
  -28.6109  -20.9676   23.1410 C   0  0  0  0  0  0  0  0  0  0  0  0
  -15.8490  -27.3669   24.0402 C   0  0  0  0  0  0  0  0  0  0  0  0
  -14.9655  -27.5550   25.1030 C   0  0  0  0  0  0  0  0  0  0  0  0
  -28.2011  -19.4684   21.2962 C   0  0  0  0  0  0  0  0  0  0  0  0
  -14.4396  -29.7630   24.2750 C   0  0  0  0  0  0  0  0  0  0  0  0
  -26.2426  -26.1519   16.9227 C   0  0  0  0  0  0  0  0  0  0  0  0
  -20.8901  -27.4673   22.9494 C   0  0  0  0  0  0  0  0  0  0  0  0
  -22.8295  -26.0228   23.7616 C   0  0  0  0  0  0  0  0  0  0  0  0
  -35.1507  -17.2034   25.4877 C   0  0  0  0  0  0  0  0  0  0  0  0
  -28.9915  -18.5844   23.4065 C   0  0  0  0  0  0  0  0  0  0  0  0
  -34.2588  -17.6993   24.5176 C   0  0  0  0  0  0  0  0  0  0  0  0
  -28.5806  -18.3703   22.0831 C   0  0  0  0  0  0  0  0  0  0  0  0
  -27.1215  -27.4712   19.0900 C   0  0  0  0  0  0  0  0  0  0  0  0
  -18.2116  -27.9516   22.3380 C   0  0  0  0  0  0  0  0  0  0  0  0
  -28.2179  -20.7599   21.8221 C   0  0  0  0  0  0  0  0  0  0  0  0
  -16.0279  -28.3769   23.0948 C   0  0  0  0  0  0  0  0  0  0  0  0
  -14.2608  -28.7530   25.2204 C   0  0  0  0  0  0  0  0  0  0  0  0
  -15.3232  -29.5748   23.2122 C   0  0  0  0  0  0  0  0  0  0  0  0
  -22.2733  -27.2173   23.2660 C   0  0  0  0  0  0  0  0  0  0  0  0
  -25.8931  -27.7329   18.5182 C   0  0  0  0  0  0  0  0  0  0  0  0
  -27.8687  -26.4872   18.4753 C   0  0  0  0  0  0  0  0  0  0  0  0
  -24.1689  -26.2968   23.8942 C   0  0  0  0  0  0  0  0  0  0  0  0
  -22.1925  -24.7769   24.0741 C   0  0  0  0  0  0  0  0  0  0  0  0
  -31.2116  -16.3645   22.9095 C   0  0  0  0  0  0  0  0  0  0  0  0
  -28.6538  -14.5463   22.0886 C   0  0  0  0  0  0  0  0  0  0  0  0
  -25.4306  -14.4147   20.9749 C   0  0  0  0  0  0  0  0  0  0  0  0
  -27.4719  -30.6089   21.0598 C   0  0  0  0  0  0  0  0  0  0  0  0
  -35.5495  -15.7495   25.5290 C   0  0  0  0  0  0  0  0  0  0  0  0
  -29.3803  -17.4238   24.2807 C   0  0  0  0  0  0  0  0  0  0  0  0
  -28.5427  -16.9917   21.4778 C   0  0  0  0  0  0  0  0  0  0  0  0
  -34.6021  -14.8357   24.7558 C   0  0  0  0  0  0  0  0  0  0  0  0
  -27.2054  -29.9012   24.6833 C   0  0  0  0  0  0  0  0  0  0  0  0
  -34.2902  -15.4274   23.3849 C   0  0  0  0  0  0  0  0  0  0  0  0
  -25.9137  -29.0901   24.7701 C   0  0  0  0  0  0  0  0  0  0  0  0
  -27.1928  -30.8628   23.4989 C   0  0  0  0  0  0  0  0  0  0  0  0
  -25.6194  -29.3954   22.2800 C   0  0  0  0  0  0  0  0  0  0  0  0
  -33.5878  -16.7842   23.5164 C   0  0  1  0  0  0  0  0  0  0  0  0
  -29.8336  -16.2029   23.4862 C   0  0  1  0  0  0  0  0  0  0  0  0
  -25.6189  -28.3834   23.4356 C   0  0  2  0  0  0  0  0  0  0  0  0
  -24.9964  -28.7774   19.0970 C   0  0  0  0  0  0  0  0  0  0  0  0
  -23.6220  -12.7853   20.3654 C   0  0  0  0  0  0  0  0  0  0  0  0
  -30.0777  -13.9544   19.4557 C   0  0  0  0  0  0  0  0  0  0  0  0
  -27.8928  -13.1498   18.5353 C   0  0  0  0  0  0  0  0  0  0  0  0
  -28.9271  -11.9867   20.4847 C   0  0  0  0  0  0  0  0  0  0  0  0
  -28.3360  -30.0448   18.8204 C   0  0  0  0  0  0  0  0  0  0  0  0
  -23.6239  -15.4565   23.0747 C   0  0  0  0  0  0  0  0  0  0  0  0
  -27.6085  -28.2022   20.2905 C   0  0  0  0  0  0  0  0  0  0  0  0
  -29.2281  -26.1140   19.0107 C   0  0  0  0  0  0  0  0  0  0  0  0
  -29.1795  -25.2492   20.2752 C   0  0  0  0  0  0  0  0  0  0  0  0
  -28.5204  -23.8885   20.0450 C   0  0  0  0  0  0  0  0  0  0  0  0
  -28.4545  -23.0747   21.3302 C   0  0  0  0  0  0  0  0  0  1  0  0
  -27.9018  -14.2751   20.8080 C   0  0  1  0  0  0  0  0  0  0  0  0
  -24.2243  -13.6381   21.4712 C   0  0  2  0  0  0  0  0  0  0  0  0
  -28.7023  -13.3678   19.8314 C   0  0  0  0  0  0  0  0  0  0  0  0
  -25.4205  -27.0899   17.4303 N   0  0  0  0  0  0  0  0  0  0  0  0
  -27.4585  -25.8047   17.3862 N   0  0  0  0  0  0  0  0  0  0  0  0
  -23.1848  -28.1786   23.0955 N   0  0  0  0  0  0  0  0  0  0  0  0
  -24.3273  -27.5885   23.4862 N   0  0  0  0  0  0  0  0  0  0  0  0
  -28.9379  -15.8900   22.3708 N   0  0  0  0  0  0  0  0  0  0  0  0
  -26.8676  -30.1726   22.2503 N   0  0  0  0  0  0  0  0  0  0  0  0
  -25.2147  -25.5564   24.3190 N   0  0  0  0  0  0  0  0  0  0  0  0
  -21.7019  -24.5846   25.3728 N   0  0  0  0  0  0  0  0  0  0  0  0
  -32.1925  -16.6004   23.8538 N   0  0  0  0  0  0  0  0  0  0  0  0
  -26.6066  -13.7317   21.2024 N   0  0  0  0  0  0  0  0  0  0  0  0
  -27.7014  -29.6434   20.0678 N   0  0  0  0  0  0  0  0  0  0  0  0
  -23.1753  -14.5726   21.9682 N   0  3  0  0  0  0  0  0  0  0  0  0
  -22.0768  -23.8550   23.2313 O   0  0  0  0  0  0  0  0  0  0  0  0
  -31.3732  -16.2800   21.6977 O   0  0  0  0  0  0  0  0  0  0  0  0
  -28.9709  -13.6014   22.8154 O   0  0  0  0  0  0  0  0  0  0  0  0
  -25.3385  -15.5153   20.4357 O   0  0  0  0  0  0  0  0  0  0  0  0
  -27.7970  -31.7919   20.8968 O   0  0  0  0  0  0  0  0  0  0  0  0
  -16.9049  -28.1883   22.0398 O   0  0  0  0  0  0  0  0  0  0  0  0
  -27.8457  -21.8153   21.0479 O   0  0  0  0  0  0  0  0  0  1  0  0
  -13.4112  -28.9329   26.2402 F   0  0  0  0  0  0  0  0  0  0  0  0
  -15.4900  -30.5483   22.3064 F   0  0  0  0  0  0  0  0  0  0  0  0
  1  2  1  0  0  0  0
  1  5  2  0  0  0  0
  2  6  2  0  0  0  0
  3  8  2  0  0  0  0
  3 16  1  0  0  0  0
  4  9  1  0  0  0  0
  4 16  2  0  0  0  0
  5 18  1  0  0  0  0
  6 20  1  0  0  0  0
  7 10  2  0  0  0  0
  7 19  1  0  0  0  0
  8 23  1  0  0  0  0
  9 23  2  0  0  0  0
 10 24  1  0  0  0  0
 11 12  2  0  0  0  0
 11 25  1  0  0  0  0
 12 26  1  0  0  0  0
 13 21  1  0  0  0  0
 13 24  2  0  0  0  0
 14 26  2  0  0  0  0
 14 27  1  0  0  0  0
 15 64  1  0  0  0  0
 15 65  2  0  0  0  0
 16 28  1  0  0  0  0
 17 28  1  0  0  0  0
 17 31  2  0  0  0  0
 17 32  1  0  0  0  0
 18 20  2  0  0  0  0
 18 37  1  0  0  0  0
 19 21  2  0  0  0  0
 19 38  1  0  0  0  0
 20 46  1  0  0  0  0
 21 39  1  0  0  0  0
 22 29  1  0  0  0  0
 22 30  2  0  0  0  0
 22 56  1  0  0  0  0
 23 81  1  0  0  0  0
 24 82  1  0  0  0  0
 25 27  2  0  0  0  0
 25 81  1  0  0  0  0
 26 83  1  0  0  0  0
 27 84  1  0  0  0  0
 28 66  2  0  0  0  0
 29 49  1  0  0  0  0
 29 64  2  0  0  0  0
 30 57  1  0  0  0  0
 30 65  1  0  0  0  0
 31 67  1  0  0  0  0
 31 70  1  0  0  0  0
 32 71  1  0  0  0  0
 32 76  2  0  0  0  0
 33 47  1  0  0  0  0
 33 72  1  0  0  0  0
 33 77  2  0  0  0  0
 34 61  1  0  0  0  0
 34 68  1  0  0  0  0
 34 78  2  0  0  0  0
 35 62  1  0  0  0  0
 35 73  1  0  0  0  0
 35 79  2  0  0  0  0
 36 69  1  0  0  0  0
 36 74  1  0  0  0  0
 36 80  2  0  0  0  0
 37 40  1  0  0  0  0
 38 47  1  0  0  0  0
 39 68  1  0  0  0  0
 40 42  1  0  0  0  0
 41 43  1  0  0  0  0
 41 44  1  0  0  0  0
 42 46  1  0  0  0  0
 43 48  1  0  0  0  0
 44 69  1  0  0  0  0
 45 48  1  0  0  0  0
 45 69  1  0  0  0  0
 46 72  1  0  0  0  0
 47 68  1  0  0  0  0
 48 67  1  0  0  0  0
 50 62  1  0  0  0  0
 51 63  1  0  0  0  0
 52 63  1  0  0  0  0
 53 63  1  0  0  0  0
 54 74  1  0  0  0  0
 55 75  1  0  0  0  0
 56 74  1  0  0  0  0
 57 58  1  0  0  0  0
 58 59  1  0  0  0  0
 59 60  1  0  0  0  0
 60 82  1  0  0  0  0
 61 63  1  0  0  0  0
 61 73  1  0  0  0  0
 62 75  1  0  0  0  0
 66 67  1  0  0  0  0
M  CHG  1  75   1
M  ISO  4  36 100  60 101  74 100  82 101
M  END
> <Batch ID>
0058

> <Smiles>
CNC(C)C(=O)NC(C(=O)N1Cc2cc([101O:1][101CH2:1]CCCc3ncnc(C)c3C[100N:0](C)[100C:0](=O)N3CCCC(n4nc(-c5ccc(Oc6ccc(F)cc6F)cc5)c(C(N)=O)c4N)C3)ccc2CC1C(=O)NC1CCCc2ccccc21)C(C)(C)C

> <Shape>
0.243

> <Color>
0.047

> <Negative vol penalty>
0.000

$$$$

  -OEChem-04052317503D

 85 93  0     1  0  0  0  0  0999 V2000
  -26.0010  -10.8516   19.4480 C   0  0  0  0  0  0  0  0  0  0  0  0
  -25.6045  -11.9817   20.1558 C   0  0  0  0  0  0  0  0  0  0  0  0
  -25.8162  -30.7328   23.2390 C   0  0  0  0  0  0  0  0  0  0  0  0
  -26.3142  -28.4253   23.7531 C   0  0  0  0  0  0  0  0  0  0  0  0
  -27.3069  -10.7527   18.9696 C   0  0  0  0  0  0  0  0  0  0  0  0
  -26.5140  -13.0131   20.3867 C   0  0  0  0  0  0  0  0  0  0  0  0
  -24.5207  -17.5890   19.5307 C   0  0  0  0  0  0  0  0  0  0  0  0
  -26.8844  -31.1413   24.0375 C   0  0  0  0  0  0  0  0  0  0  0  0
  -27.3825  -28.8338   24.5516 C   0  0  0  0  0  0  0  0  0  0  0  0
  -23.6859  -18.1144   20.5160 C   0  0  0  0  0  0  0  0  0  0  0  0
  -30.2501  -31.3421   23.7836 C   0  0  0  0  0  0  0  0  0  0  0  0
  -31.0996  -32.3253   23.2764 C   0  0  0  0  0  0  0  0  0  0  0  0
  -25.5088  -19.4685   21.3300 C   0  0  0  0  0  0  0  0  0  0  0  0
  -30.5544  -33.7592   25.1430 C   0  0  0  0  0  0  0  0  0  0  0  0
  -25.5311  -29.3748   23.0968 C   0  0  0  0  0  0  0  0  0  0  0  0
  -24.4594  -28.6526   20.8974 C   0  0  0  0  0  0  0  0  0  0  0  0
  -28.2301  -11.7877   19.1864 C   0  0  0  0  0  0  0  0  0  0  0  0
  -25.8611  -17.9920   19.4443 C   0  0  0  0  0  0  0  0  0  0  0  0
  -27.8339  -12.9274   19.9120 C   0  0  0  0  0  0  0  0  0  0  0  0
  -26.3579  -18.9487   20.3410 C   0  0  0  0  0  0  0  0  0  0  0  0
  -27.6675  -30.1918   24.6938 C   0  0  0  0  0  0  0  0  0  0  0  0
  -24.1807  -19.0521   21.4177 C   0  0  0  0  0  0  0  0  0  0  0  0
  -29.5526  -31.5675   24.9704 C   0  0  0  0  0  0  0  0  0  0  0  0
  -31.2519  -33.5338   23.9561 C   0  0  0  0  0  0  0  0  0  0  0  0
  -29.7048  -32.7760   25.6501 C   0  0  0  0  0  0  0  0  0  0  0  0
  -24.4274  -28.9522   22.2725 C   0  0  0  0  0  0  0  0  0  0  0  0
  -23.1663  -28.3045   20.5917 C   0  0  0  0  0  0  0  0  0  0  0  0
  -17.4230  -21.7718   20.1347 C   0  0  0  0  0  0  0  0  0  0  0  0
  -18.9394  -22.2474   21.4880 C   0  0  0  0  0  0  0  0  0  0  0  0
  -25.5595  -28.6858   19.9785 C   0  0  0  0  0  0  0  0  0  0  0  0
  -28.6669  -16.5213   19.7050 C   0  0  0  0  0  0  0  0  0  0  0  0
  -18.5059  -25.4811   21.8561 C   0  0  0  0  0  0  0  0  0  0  0  0
  -29.8264  -19.4116   18.7973 C   0  0  0  0  0  0  0  0  0  0  0  0
  -29.3651  -22.7874   18.6037 C   0  0  0  0  0  0  0  0  0  0  0  0
  -29.6441  -11.6147   18.6910 C   0  0  0  0  0  0  0  0  0  0  0  0
  -26.7414  -17.4358   18.3589 C   0  0  0  0  0  0  0  0  0  0  0  0
  -27.7838  -19.4296   20.2780 C   0  0  0  0  0  0  0  0  0  0  0  0
  -30.4403  -12.9167   18.6544 C   0  0  0  0  0  0  0  0  0  0  0  0
  -18.9071  -28.7495   23.2692 C   0  0  0  0  0  0  0  0  0  0  0  0
  -30.2542  -13.6928   19.9544 C   0  0  0  0  0  0  0  0  0  0  0  0
  -20.3880  -29.0561   23.0499 C   0  0  0  0  0  0  0  0  0  0  0  0
  -18.6800  -27.2685   23.5559 C   0  0  0  0  0  0  0  0  0  0  0  0
  -20.7177  -26.6601   22.2914 C   0  0  0  0  0  0  0  0  0  0  0  0
  -28.7845  -14.0782   20.1613 C   0  0  1  0  0  0  0  0  0  0  0  0
  -28.2282  -17.5347   18.6861 C   0  0  1  0  0  0  0  0  0  0  0  0
  -20.9878  -28.1403   21.9683 C   0  0  2  0  0  0  0  0  0  0  0  0
  -16.4098  -20.9902   19.4161 C   0  0  0  0  0  0  0  0  0  0  0  0
  -30.5043  -24.8911   17.8459 C   0  0  0  0  0  0  0  0  0  0  0  0
  -31.6154  -19.3298   21.2677 C   0  0  0  0  0  0  0  0  0  0  0  0
  -32.0007  -21.7874   20.9843 C   0  0  0  0  0  0  0  0  0  0  0  0
  -32.7270  -20.1992   19.2030 C   0  0  0  0  0  0  0  0  0  0  0  0
  -27.2296  -23.3747   16.6406 C   0  0  0  0  0  0  0  0  0  0  0  0
  -19.8029  -25.3198   17.0667 C   0  0  0  0  0  0  0  0  0  0  0  0
  -21.2120  -24.1995   18.7872 C   0  0  0  0  0  0  0  0  0  0  0  0
  -19.9973  -22.2623   22.5625 C   0  0  0  0  0  0  0  0  0  0  0  0
  -21.3082  -21.5835   22.1501 C   0  0  0  0  0  0  0  0  0  0  0  0
  -22.3406  -21.5406   23.2776 C   0  0  0  0  0  0  0  0  0  0  0  0
  -19.1489  -25.4164   19.4677 C   0  0  0  0  0  0  0  0  0  0  0  0
  -23.6419  -20.8959   22.8198 C   0  0  0  0  0  0  0  0  0  1  0  0
  -19.1970  -24.6597   20.7969 C   0  0  2  0  0  0  0  0  0  0  0  0
  -30.2620  -20.6635   19.5196 C   0  0  1  0  0  0  0  0  0  0  0  0
  -29.5566  -23.7663   17.4593 C   0  0  2  0  0  0  0  0  0  0  0  0
  -31.6249  -20.4847   20.2463 C   0  0  0  0  0  0  0  0  0  0  0  0
  -23.2105  -28.8074   22.8037 N   0  0  0  0  0  0  0  0  0  0  0  0
  -18.1903  -21.2316   21.1267 N   0  0  0  0  0  0  0  0  0  0  0  0
  -17.6503  -23.0578   19.8594 N   0  0  0  0  0  0  0  0  0  0  0  0
  -22.4657  -28.4129   21.7569 N   0  0  0  0  0  0  0  0  0  0  0  0
  -18.6243  -23.3378   20.7387 N   0  0  0  0  0  0  0  0  0  0  0  0
  -28.6068  -18.8514   19.2030 N   0  0  0  0  0  0  0  0  0  0  0  0
  -19.2839  -26.4315   22.5176 N   0  0  0  0  0  0  0  0  0  0  0  0
  -22.5717  -27.9194   19.4426 N   0  0  0  0  0  0  0  0  0  0  0  0
  -26.8201  -29.0657   20.4590 N   0  0  0  0  0  0  0  0  0  0  0  0
  -28.4372  -15.2111   19.3305 N   0  0  0  0  0  0  0  0  0  0  0  0
  -30.2499  -21.7327   18.5271 N   0  0  0  0  0  0  0  0  0  0  0  0
  -28.2502  -24.3664   17.0669 N   0  3  0  0  0  0  0  0  0  0  0  0
  -19.8154  -24.6226   18.4045 N   0  3  0  0  0  0  0  0  0  0  0  0
  -25.4251  -28.4032   18.7638 O   0  0  0  0  0  0  0  0  0  0  0  0
  -29.1774  -16.8999   20.7528 O   0  0  0  0  0  0  0  0  0  0  0  0
  -17.3097  -25.2844   22.0852 O   0  0  0  0  0  0  0  0  0  0  0  0
  -30.5385  -18.9518   17.9011 O   0  0  0  0  0  0  0  0  0  0  0  0
  -28.5180  -22.9448   19.4801 O   0  0  0  0  0  0  0  0  0  0  0  0
  -28.7101  -30.5901   25.4729 O   0  0  0  0  0  0  0  0  0  0  0  0
  -23.3682  -19.5659   22.3808 O   0  0  0  0  0  0  0  0  0  1  0  0
  -32.0689  -34.4773   23.4699 F   0  0  0  0  0  0  0  0  0  0  0  0
  -29.0383  -32.9978   26.7913 F   0  0  0  0  0  0  0  0  0  0  0  0
  1  2  1  0  0  0  0
  1  5  2  0  0  0  0
  2  6  2  0  0  0  0
  3  8  2  0  0  0  0
  3 15  1  0  0  0  0
  4  9  1  0  0  0  0
  4 15  2  0  0  0  0
  5 17  1  0  0  0  0
  6 19  1  0  0  0  0
  7 10  2  0  0  0  0
  7 18  1  0  0  0  0
  8 21  1  0  0  0  0
  9 21  2  0  0  0  0
 10 22  1  0  0  0  0
 11 12  2  0  0  0  0
 11 23  1  0  0  0  0
 12 24  1  0  0  0  0
 13 20  1  0  0  0  0
 13 22  2  0  0  0  0
 14 24  2  0  0  0  0
 14 25  1  0  0  0  0
 15 26  1  0  0  0  0
 16 26  1  0  0  0  0
 16 27  2  0  0  0  0
 16 30  1  0  0  0  0
 17 19  2  0  0  0  0
 17 35  1  0  0  0  0
 18 20  2  0  0  0  0
 18 36  1  0  0  0  0
 19 44  1  0  0  0  0
 20 37  1  0  0  0  0
 21 82  1  0  0  0  0
 22 83  1  0  0  0  0
 23 25  2  0  0  0  0
 23 82  1  0  0  0  0
 24 84  1  0  0  0  0
 25 85  1  0  0  0  0
 26 64  2  0  0  0  0
 27 67  1  0  0  0  0
 27 71  1  0  0  0  0
 28 47  1  0  0  0  0
 28 65  1  0  0  0  0
 28 66  2  0  0  0  0
 29 55  1  0  0  0  0
 29 65  2  0  0  0  0
 29 68  1  0  0  0  0
 30 72  1  0  0  0  0
 30 77  2  0  0  0  0
 31 45  1  0  0  0  0
 31 73  1  0  0  0  0
 31 78  2  0  0  0  0
 32 60  1  0  0  0  0
 32 70  1  0  0  0  0
 32 79  2  0  0  0  0
 33 61  1  0  0  0  0
 33 69  1  0  0  0  0
 33 80  2  0  0  0  0
 34 62  1  0  0  0  0
 34 74  1  0  0  0  0
 34 81  2  0  0  0  0
 35 38  1  0  0  0  0
 36 45  1  0  0  0  0
 37 69  1  0  0  0  0
 38 40  1  0  0  0  0
 39 41  1  0  0  0  0
 39 42  1  0  0  0  0
 40 44  1  0  0  0  0
 41 46  1  0  0  0  0
 42 70  1  0  0  0  0
 43 46  1  0  0  0  0
 43 70  1  0  0  0  0
 44 73  1  0  0  0  0
 45 69  1  0  0  0  0
 46 67  1  0  0  0  0
 48 62  1  0  0  0  0
 49 63  1  0  0  0  0
 50 63  1  0  0  0  0
 51 63  1  0  0  0  0
 52 75  1  0  0  0  0
 53 76  1  0  0  0  0
 54 76  1  0  0  0  0
 55 56  1  0  0  0  0
 56 57  1  0  0  0  0
 57 59  1  0  0  0  0
 58 60  1  0  0  0  0
 58 76  1  0  0  0  0
 59 83  1  0  0  0  0
 60 68  1  0  0  0  0
 61 63  1  0  0  0  0
 61 74  1  0  0  0  0
 62 75  1  0  0  0  0
 64 67  1  0  0  0  0
 66 68  1  0  0  0  0
M  CHG  2  75   1  76   1
M  ISO  4  32 100  59 101  60 100  83 101
M  END
> <Batch ID>
0058

> <Smiles>
CNC(C)C(=O)NC(C(=O)N1Cc2cc([101O:1][101CH2:1]CCCc3nc(C)nn3[100CH:0](CN(C)C)[100C:0](=O)N3CCCC(n4nc(-c5ccc(Oc6ccc(F)cc6F)cc5)c(C(N)=O)c4N)C3)ccc2CC1C(=O)NC1CCCc2ccccc21)C(C)(C)C

> <Shape>
0.244

> <Color>
0.058

> <Negative vol penalty>
0.000

$$$$

  -OEChem-04052317503D

 84 92  0     1  0  0  0  0  0999 V2000
  -18.2045  -25.3862   23.0380 C   0  0  0  0  0  0  0  0  0  0  0  0
  -19.5527  -25.0443   23.0090 C   0  0  0  0  0  0  0  0  0  0  0  0
  -25.8623  -13.8753   22.5844 C   0  0  0  0  0  0  0  0  0  0  0  0
  -25.7469  -13.2878   20.2437 C   0  0  0  0  0  0  0  0  0  0  0  0
  -17.7950  -26.6411   22.5894 C   0  0  0  0  0  0  0  0  0  0  0  0
  -20.4921  -25.9569   22.5303 C   0  0  0  0  0  0  0  0  0  0  0  0
  -26.2313  -26.7213   24.5261 C   0  0  0  0  0  0  0  0  0  0  0  0
  -24.7764  -13.0403   22.8475 C   0  0  0  0  0  0  0  0  0  0  0  0
  -24.6610  -12.4528   20.5068 C   0  0  0  0  0  0  0  0  0  0  0  0
  -27.4585  -26.2593   24.0524 C   0  0  0  0  0  0  0  0  0  0  0  0
  -24.1476   -9.3600   21.7684 C   0  0  0  0  0  0  0  0  0  0  0  0
  -24.1499   -8.0931   21.1849 C   0  0  0  0  0  0  0  0  0  0  0  0
  -27.7825  -28.3418   22.8788 C   0  0  0  0  0  0  0  0  0  0  0  0
  -22.0907   -8.6187   20.0357 C   0  0  0  0  0  0  0  0  0  0  0  0
  -26.3475  -13.9991   21.2824 C   0  0  0  0  0  0  0  0  0  0  0  0
  -28.8330  -14.5149   21.0295 C   0  0  0  0  0  0  0  0  0  0  0  0
  -18.7309  -27.5731   22.1140 C   0  0  0  0  0  0  0  0  0  0  0  0
  -25.7647  -27.9949   24.1703 C   0  0  0  0  0  0  0  0  0  0  0  0
  -20.0945  -27.2250   22.0737 C   0  0  0  0  0  0  0  0  0  0  0  0
  -26.5503  -28.8186   23.3514 C   0  0  0  0  0  0  0  0  0  0  0  0
  -24.1758  -12.3291   21.8088 C   0  0  0  0  0  0  0  0  0  0  0  0
  -28.2330  -27.0685   23.2263 C   0  0  0  0  0  0  0  0  0  0  0  0
  -23.1168  -10.2563   21.4857 C   0  0  0  0  0  0  0  0  0  0  0  0
  -23.1215   -7.7225   20.3185 C   0  0  0  0  0  0  0  0  0  0  0  0
  -22.0884   -9.8856   20.6193 C   0  0  0  0  0  0  0  0  0  0  0  0
  -27.4688  -14.8619   21.0099 C   0  0  0  0  0  0  0  0  0  0  0  0
  -29.4878  -15.6777   20.7045 C   0  0  0  0  0  0  0  0  0  0  0  0
  -28.8728  -25.0418   19.5434 C   0  0  0  0  0  0  0  0  0  0  0  0
  -27.5620  -23.7289   18.5867 C   0  0  0  0  0  0  0  0  0  0  0  0
  -29.4529  -13.2541   21.3158 C   0  0  0  0  0  0  0  0  0  0  0  0
  -23.2389  -29.0967   22.5860 C   0  0  0  0  0  0  0  0  0  0  0  0
  -24.4021  -31.9788   23.5150 C   0  0  0  0  0  0  0  0  0  0  0  0
  -27.0878  -33.8358   24.5075 C   0  0  0  0  0  0  0  0  0  0  0  0
  -28.0240  -20.3548   17.6079 C   0  0  0  0  0  0  0  0  0  0  0  0
  -18.2352  -28.8998   21.5955 C   0  0  0  0  0  0  0  0  0  0  0  0
  -24.4511  -28.4889   24.7114 C   0  0  0  0  0  0  0  0  0  0  0  0
  -26.1039  -30.2018   22.9567 C   0  0  0  0  0  0  0  0  0  0  0  0
  -19.3359  -29.9479   21.4532 C   0  0  0  0  0  0  0  0  0  0  0  0
  -29.0656  -20.4270   20.9816 C   0  0  0  0  0  0  0  0  0  0  0  0
  -20.5570  -29.3493   20.7624 C   0  0  0  0  0  0  0  0  0  0  0  0
  -28.8980  -18.9618   21.3815 C   0  0  0  0  0  0  0  0  0  0  0  0
  -27.9267  -20.9111   20.0823 C   0  0  0  0  0  0  0  0  0  0  0  0
  -27.5400  -18.6001   19.2870 C   0  0  0  0  0  0  0  0  0  0  0  0
  -21.1464  -28.1969   21.5847 C   0  0  1  0  0  0  0  0  0  0  0  0
  -23.8382  -29.6024   23.8677 C   0  0  1  0  0  0  0  0  0  0  0  0
  -28.7025  -18.0720   20.1416 C   0  0  2  0  0  0  0  0  0  0  0  0
  -27.7355  -36.1710   25.1591 C   0  0  0  0  0  0  0  0  0  0  0  0
  -27.6288  -23.2956   15.4045 C   0  0  0  0  0  0  0  0  0  0  0  0
  -29.9005  -22.6403   16.2607 C   0  0  0  0  0  0  0  0  0  0  0  0
  -24.3176  -32.8178   20.5826 C   0  0  0  0  0  0  0  0  0  0  0  0
  -25.8235  -34.7330   21.1594 C   0  0  0  0  0  0  0  0  0  0  0  0
  -23.5585  -34.5746   22.1926 C   0  0  0  0  0  0  0  0  0  0  0  0
  -25.4952  -25.1541   18.8325 C   0  0  0  0  0  0  0  0  0  0  0  0
  -27.9334  -32.9718   27.2089 C   0  0  0  0  0  0  0  0  0  0  0  0
  -30.1495  -25.6054   20.1143 C   0  0  0  0  0  0  0  0  0  0  0  0
  -26.9131  -22.6129   17.8754 C   0  0  0  0  0  0  0  0  0  0  0  0
  -30.5646  -24.9679   21.4420 C   0  0  0  0  0  0  0  0  0  0  0  0
  -29.5662  -25.2126   22.5675 C   0  0  0  0  0  0  0  0  0  1  0  0
  -25.3732  -32.9776   22.9334 C   0  0  1  0  0  0  0  0  0  0  0  0
  -27.2685  -34.8118   25.6561 C   0  0  2  0  0  0  0  0  0  0  0  0
  -28.4701  -22.1798   16.0115 C   0  0  0  0  0  0  0  0  0  0  0  0
  -24.7760  -33.7490   21.7227 C   0  0  0  0  0  0  0  0  0  0  0  0
  -27.2676  -16.1448   20.6973 N   0  0  0  0  0  0  0  0  0  0  0  0
  -28.8271  -23.8259   18.9236 N   0  0  0  0  0  0  0  0  0  0  0  0
  -27.7155  -25.7032   19.6111 N   0  0  0  0  0  0  0  0  0  0  0  0
  -28.5140  -16.6141   20.5176 N   0  0  0  0  0  0  0  0  0  0  0  0
  -26.8938  -24.8419   18.9922 N   0  0  0  0  0  0  0  0  0  0  0  0
  -24.8092  -30.6372   23.5060 N   0  0  0  0  0  0  0  0  0  0  0  0
  -27.7432  -20.0083   18.9377 N   0  0  0  0  0  0  0  0  0  0  0  0
  -30.7959  -15.9802   20.5633 N   0  0  0  0  0  0  0  0  0  0  0  0
  -28.6323  -12.1625   21.6311 N   0  0  0  0  0  0  0  0  0  0  0  0
  -21.9164  -28.7118   22.6967 N   0  0  0  0  0  0  0  0  0  0  0  0
  -25.7909  -33.8325   24.0393 N   0  0  0  0  0  0  0  0  0  0  0  0
  -27.8694  -21.7022   17.2490 N   0  0  0  0  0  0  0  0  0  0  0  0
  -28.2770  -34.2930   26.6229 N   0  3  0  0  0  0  0  0  0  0  0  0
  -30.6982  -13.1042   21.3089 O   0  0  0  0  0  0  0  0  0  0  0  0
  -23.9251  -29.0600   21.5714 O   0  0  0  0  0  0  0  0  0  0  0  0
  -23.3251  -32.3753   23.9673 O   0  0  0  0  0  0  0  0  0  0  0  0
  -28.0063  -33.1481   24.0671 O   0  0  0  0  0  0  0  0  0  0  0  0
  -28.3856  -19.5059   16.7828 O   0  0  0  0  0  0  0  0  0  0  0  0
  -23.1163  -11.5140   22.0652 O   0  0  0  0  0  0  0  0  0  0  0  0
  -29.4309  -26.6198   22.7620 O   0  0  0  0  0  0  0  0  0  1  0  0
  -23.1246   -6.5064   19.7570 F   0  0  0  0  0  0  0  0  0  0  0  0
  -21.0960  -10.7428   20.3429 F   0  0  0  0  0  0  0  0  0  0  0  0
  1  2  1  0  0  0  0
  1  5  2  0  0  0  0
  2  6  2  0  0  0  0
  3  8  2  0  0  0  0
  3 15  1  0  0  0  0
  4  9  1  0  0  0  0
  4 15  2  0  0  0  0
  5 17  1  0  0  0  0
  6 19  1  0  0  0  0
  7 10  2  0  0  0  0
  7 18  1  0  0  0  0
  8 21  1  0  0  0  0
  9 21  2  0  0  0  0
 10 22  1  0  0  0  0
 11 12  2  0  0  0  0
 11 23  1  0  0  0  0
 12 24  1  0  0  0  0
 13 20  1  0  0  0  0
 13 22  2  0  0  0  0
 14 24  2  0  0  0  0
 14 25  1  0  0  0  0
 15 26  1  0  0  0  0
 16 26  1  0  0  0  0
 16 27  2  0  0  0  0
 16 30  1  0  0  0  0
 17 19  2  0  0  0  0
 17 35  1  0  0  0  0
 18 20  2  0  0  0  0
 18 36  1  0  0  0  0
 19 44  1  0  0  0  0
 20 37  1  0  0  0  0
 21 81  1  0  0  0  0
 22 82  1  0  0  0  0
 23 25  2  0  0  0  0
 23 81  1  0  0  0  0
 24 83  1  0  0  0  0
 25 84  1  0  0  0  0
 26 63  2  0  0  0  0
 27 66  1  0  0  0  0
 27 70  1  0  0  0  0
 28 55  1  0  0  0  0
 28 64  1  0  0  0  0
 28 65  2  0  0  0  0
 29 56  1  0  0  0  0
 29 64  2  0  0  0  0
 29 67  1  0  0  0  0
 30 71  1  0  0  0  0
 30 76  2  0  0  0  0
 31 45  1  0  0  0  0
 31 72  1  0  0  0  0
 31 77  2  0  0  0  0
 32 59  1  0  0  0  0
 32 68  1  0  0  0  0
 32 78  2  0  0  0  0
 33 60  1  0  0  0  0
 33 73  1  0  0  0  0
 33 79  2  0  0  0  0
 34 69  1  0  0  0  0
 34 74  1  0  0  0  0
 34 80  2  0  0  0  0
 35 38  1  0  0  0  0
 36 45  1  0  0  0  0
 37 68  1  0  0  0  0
 38 40  1  0  0  0  0
 39 41  1  0  0  0  0
 39 42  1  0  0  0  0
 40 44  1  0  0  0  0
 41 46  1  0  0  0  0
 42 69  1  0  0  0  0
 43 46  1  0  0  0  0
 43 69  1  0  0  0  0
 44 72  1  0  0  0  0
 45 68  1  0  0  0  0
 46 66  1  0  0  0  0
 47 60  1  0  0  0  0
 48 61  1  0  0  0  0
 49 61  1  0  0  0  0
 50 62  1  0  0  0  0
 51 62  1  0  0  0  0
 52 62  1  0  0  0  0
 53 67  1  0  0  0  0
 54 75  1  0  0  0  0
 55 57  1  0  0  0  0
 56 74  1  0  0  0  0
 57 58  1  0  0  0  0
 58 82  1  0  0  0  0
 59 62  1  0  0  0  0
 59 73  1  0  0  0  0
 60 75  1  0  0  0  0
 61 74  1  0  0  0  0
 63 66  1  0  0  0  0
 65 67  1  0  0  0  0
M  CHG  1  75   1
M  ISO  4  34 100  58 101  74 100  82 101
M  END
> <Batch ID>
0058

> <Smiles>
CNC(C)C(=O)NC(C(=O)N1Cc2cc([101O:1][101CH2:1]CCc3nc(C[100N:0](C(C)C)[100C:0](=O)N4CCCC(n5nc(-c6ccc(Oc7ccc(F)cc7F)cc6)c(C(N)=O)c5N)C4)n(C)n3)ccc2CC1C(=O)NC1CCCc2ccccc21)C(C)(C)C

> <Shape>
0.293

> <Color>
0.089

> <Negative vol penalty>
0.000

$$$$
