
  -OEChem-04052317533D

 82 90  0     1  0  0  0  0  0999 V2000
  -16.5211  -29.1671   23.5211 C   0  0  0  0  0  0  0  0  0  0  0  0
  -17.4252  -30.2059   23.3306 C   0  0  0  0  0  0  0  0  0  0  0  0
  -24.8772  -14.2281   21.0910 C   0  0  0  0  0  0  0  0  0  0  0  0
  -24.0158  -14.7756   18.9011 C   0  0  0  0  0  0  0  0  0  0  0  0
  -16.9807  -27.8544   23.6030 C   0  0  0  0  0  0  0  0  0  0  0  0
  -18.7879  -29.9314   23.2101 C   0  0  0  0  0  0  0  0  0  0  0  0
  -26.9001  -29.7858   21.3197 C   0  0  0  0  0  0  0  0  0  0  0  0
  -24.7502  -12.8696   20.8013 C   0  0  0  0  0  0  0  0  0  0  0  0
  -23.8889  -13.4171   18.6114 C   0  0  0  0  0  0  0  0  0  0  0  0
  -27.8329  -28.7781   21.0785 C   0  0  0  0  0  0  0  0  0  0  0  0
  -24.3146   -9.2594   20.7707 C   0  0  0  0  0  0  0  0  0  0  0  0
  -23.7561   -8.4358   21.7480 C   0  0  0  0  0  0  0  0  0  0  0  0
  -26.1682  -27.5400   19.8477 C   0  0  0  0  0  0  0  0  0  0  0  0
  -21.7217   -9.7374   21.6824 C   0  0  0  0  0  0  0  0  0  0  0  0
  -24.5099  -15.1811   20.1409 C   0  0  0  0  0  0  0  0  0  0  0  0
  -25.7607  -17.4035   20.2037 C   0  0  0  0  0  0  0  0  0  0  0  0
  -18.3512  -27.5657   23.4959 C   0  0  0  0  0  0  0  0  0  0  0  0
  -25.5890  -29.6728   20.8351 C   0  0  0  0  0  0  0  0  0  0  0  0
  -19.2690  -28.6108   23.2662 C   0  0  0  0  0  0  0  0  0  0  0  0
  -25.2213  -28.5488   20.0819 C   0  0  0  0  0  0  0  0  0  0  0  0
  -24.2561  -12.4641   19.5615 C   0  0  0  0  0  0  0  0  0  0  0  0
  -27.4663  -27.6537   20.3448 C   0  0  0  0  0  0  0  0  0  0  0  0
  -23.5767  -10.3222   20.2492 C   0  0  0  0  0  0  0  0  0  0  0  0
  -22.4597   -8.6747   22.2039 C   0  0  0  0  0  0  0  0  0  0  0  0
  -22.2802  -10.5611   20.7051 C   0  0  0  0  0  0  0  0  0  0  0  0
  -24.6403  -16.5846   20.4398 C   0  0  0  0  0  0  0  0  0  0  0  0
  -25.3831  -18.6423   20.6610 C   0  0  0  0  0  0  0  0  0  0  0  0
  -28.1111  -23.1846   19.7464 C   0  0  0  0  0  0  0  0  0  0  0  0
  -26.6711  -23.8512   21.3334 C   0  0  0  0  0  0  0  0  0  0  0  0
  -27.9642  -25.3578   20.2871 C   0  0  0  0  0  0  0  0  0  1  0  0
  -27.0294  -17.0739   19.6227 C   0  0  0  0  0  0  0  0  0  0  0  0
  -22.7088  -29.5230   22.1714 C   0  0  0  0  0  0  0  0  0  0  0  0
  -21.7008  -29.6684   19.0917 C   0  0  0  0  0  0  0  0  0  0  0  0
  -22.6804  -28.2332   15.9297 C   0  0  0  0  0  0  0  0  0  0  0  0
  -21.2883  -22.5857   20.6628 C   0  0  0  0  0  0  0  0  0  0  0  0
  -18.7931  -26.1262   23.5840 C   0  0  0  0  0  0  0  0  0  0  0  0
  -24.6021  -30.7810   21.0811 C   0  0  0  0  0  0  0  0  0  0  0  0
  -23.8322  -28.3889   19.5222 C   0  0  0  0  0  0  0  0  0  0  0  0
  -20.2801  -25.9784   23.8892 C   0  0  0  0  0  0  0  0  0  0  0  0
  -21.3888  -20.0865   23.3915 C   0  0  0  0  0  0  0  0  0  0  0  0
  -21.0932  -26.8571   22.9505 C   0  0  0  0  0  0  0  0  0  0  0  0
  -22.2808  -18.9920   22.8080 C   0  0  0  0  0  0  0  0  0  0  0  0
  -20.6476  -20.8551   22.3017 C   0  0  0  0  0  0  0  0  0  0  0  0
  -22.4302  -20.3298   20.6706 C   0  0  0  0  0  0  0  0  0  0  0  0
  -20.7589  -28.3390   23.1630 C   0  0  1  0  0  0  0  0  0  0  0  0
  -23.1507  -30.3223   20.9783 C   0  0  1  0  0  0  0  0  0  0  0  0
  -23.2269  -19.5669   21.7396 C   0  0  2  0  0  0  0  0  0  0  0  0
  -28.7183  -22.0949   18.9297 C   0  0  0  0  0  0  0  0  0  0  0  0
  -22.3790  -29.0844   13.5883 C   0  0  0  0  0  0  0  0  0  0  0  0
  -19.1676  -27.9676   19.1089 C   0  0  0  0  0  0  0  0  0  0  0  0
  -19.6421  -27.3613   16.7265 C   0  0  0  0  0  0  0  0  0  0  0  0
  -19.2217  -29.7408   17.3461 C   0  0  0  0  0  0  0  0  0  0  0  0
  -22.1494  -24.6353   19.5965 C   0  0  0  0  0  0  0  0  0  0  0  0
  -25.5792  -28.0438   15.3637 C   0  0  0  0  0  0  0  0  0  0  0  0
  -25.6232  -23.5280   22.3436 C   0  0  0  0  0  0  0  0  0  0  0  0
  -24.1807  -23.8144   21.8813 C   0  0  0  0  0  0  0  0  0  0  0  0
  -23.7702  -23.0755   20.6093 C   0  0  0  0  0  0  0  0  0  0  0  0
  -21.4036  -28.6528   18.0149 C   0  0  1  0  0  0  0  0  0  0  0  0
  -23.3327  -28.9577   14.7660 C   0  0  2  0  0  0  0  0  0  0  0  0
  -19.8780  -28.4255   17.8194 C   0  0  0  0  0  0  0  0  0  0  0  0
  -23.6269  -17.2473   21.0036 N   0  0  0  0  0  0  0  0  0  0  0  0
  -27.1735  -22.8198   20.6358 N   0  0  0  0  0  0  0  0  0  0  0  0
  -28.5562  -24.4305   19.5171 N   0  0  0  0  0  0  0  0  0  0  0  0
  -27.0167  -25.1433   21.2139 N   0  0  0  0  0  0  0  0  0  0  0  0
  -24.1091  -18.4957   21.1256 N   0  0  0  0  0  0  0  0  0  0  0  0
  -22.9014  -29.4965   19.7951 N   0  0  0  0  0  0  0  0  0  0  0  0
  -21.5656  -21.3533   21.2769 N   0  0  0  0  0  0  0  0  0  0  0  0
  -26.0198  -19.8318   20.7072 N   0  0  0  0  0  0  0  0  0  0  0  0
  -27.2510  -15.7541   19.2064 N   0  0  0  0  0  0  0  0  0  0  0  0
  -21.3883  -29.1192   22.1203 N   0  0  0  0  0  0  0  0  0  0  0  0
  -22.0975  -29.1131   16.8170 N   0  0  0  0  0  0  0  0  0  0  0  0
  -22.3853  -23.3451   20.2287 N   0  0  0  0  0  0  0  0  0  0  0  0
  -24.5456  -28.2206   14.3114 N   0  3  0  0  0  0  0  0  0  0  0  0
  -27.9455  -17.9208   19.4922 O   0  0  0  0  0  0  0  0  0  0  0  0
  -23.5072  -29.2886   23.0711 O   0  0  0  0  0  0  0  0  0  0  0  0
  -20.9006  -30.5847   19.2961 O   0  0  0  0  0  0  0  0  0  0  0  0
  -22.6841  -27.0090   16.0386 O   0  0  0  0  0  0  0  0  0  0  0  0
  -20.1268  -22.9887   20.5197 O   0  0  0  0  0  0  0  0  0  0  0  0
  -24.1323  -11.1385   19.2784 O   0  0  0  0  0  0  0  0  0  0  0  0
  -28.3746  -26.6683   20.1085 O   0  0  0  0  0  0  0  0  0  1  0  0
  -21.9229   -7.8827   23.1413 F   0  0  0  0  0  0  0  0  0  0  0  0
  -21.5660  -11.5797   20.2070 F   0  0  0  0  0  0  0  0  0  0  0  0
  1  2  1  0  0  0  0
  1  5  2  0  0  0  0
  2  6  2  0  0  0  0
  3  8  2  0  0  0  0
  3 15  1  0  0  0  0
  4  9  1  0  0  0  0
  4 15  2  0  0  0  0
  5 17  1  0  0  0  0
  6 19  1  0  0  0  0
  7 10  2  0  0  0  0
  7 18  1  0  0  0  0
  8 21  1  0  0  0  0
  9 21  2  0  0  0  0
 10 22  1  0  0  0  0
 11 12  2  0  0  0  0
 11 23  1  0  0  0  0
 12 24  1  0  0  0  0
 13 20  1  0  0  0  0
 13 22  2  0  0  0  0
 14 24  2  0  0  0  0
 14 25  1  0  0  0  0
 15 26  1  0  0  0  0
 16 26  1  0  0  0  0
 16 27  2  0  0  0  0
 16 31  1  0  0  0  0
 17 19  2  0  0  0  0
 17 36  1  0  0  0  0
 18 20  2  0  0  0  0
 18 37  1  0  0  0  0
 19 45  1  0  0  0  0
 20 38  1  0  0  0  0
 21 79  1  0  0  0  0
 22 80  1  0  0  0  0
 23 25  2  0  0  0  0
 23 79  1  0  0  0  0
 24 81  1  0  0  0  0
 25 82  1  0  0  0  0
 26 61  2  0  0  0  0
 27 65  1  0  0  0  0
 27 68  1  0  0  0  0
 28 48  1  0  0  0  0
 28 62  1  0  0  0  0
 28 63  2  0  0  0  0
 29 55  1  0  0  0  0
 29 62  2  0  0  0  0
 29 64  1  0  0  0  0
 30 63  1  0  0  0  0
 30 64  2  0  0  0  0
 30 80  1  0  0  0  0
 31 69  1  0  0  0  0
 31 74  2  0  0  0  0
 32 46  1  0  0  0  0
 32 70  1  0  0  0  0
 32 75  2  0  0  0  0
 33 58  1  0  0  0  0
 33 66  1  0  0  0  0
 33 76  2  0  0  0  0
 34 59  1  0  0  0  0
 34 71  1  0  0  0  0
 34 77  2  0  0  0  0
 35 67  1  0  0  0  0
 35 72  1  0  0  0  0
 35 78  2  0  0  0  0
 36 39  1  0  0  0  0
 37 46  1  0  0  0  0
 38 66  1  0  0  0  0
 39 41  1  0  0  0  0
 40 42  1  0  0  0  0
 40 43  1  0  0  0  0
 41 45  1  0  0  0  0
 42 47  1  0  0  0  0
 43 67  1  0  0  0  0
 44 47  1  0  0  0  0
 44 67  1  0  0  0  0
 45 70  1  0  0  0  0
 46 66  1  0  0  0  0
 47 65  1  0  0  0  0
 49 59  1  0  0  0  0
 50 60  1  0  0  0  0
 51 60  1  0  0  0  0
 52 60  1  0  0  0  0
 53 72  1  0  0  0  0
 54 73  1  0  0  0  0
 55 56  1  0  0  0  0
 56 57  1  0  0  0  0
 57 72  1  0  0  0  0
 58 60  1  0  0  0  0
 58 71  1  0  0  0  0
 59 73  1  0  0  0  0
 61 65  1  0  0  0  0
M  CHG  1  73   1
M  ISO  4  30 101  35 100  72 100  80 101
M  END
> <Batch ID>
0059

> <Smiles>
CNC(C)C(=O)NC(C(=O)N1Cc2cc([101O:1][101c:1]3nc(C)nc(CCC[100N:0](C)[100C:0](=O)N4CCCC(n5nc(-c6ccc(Oc7ccc(F)cc7F)cc6)c(C(N)=O)c5N)C4)n3)ccc2CC1C(=O)NC1CCCc2ccccc21)C(C)(C)C

> <Shape>
0.223

> <Color>
0.115

> <Negative vol penalty>
0.000

$$$$

  -OEChem-04052317533D

 84 92  0     1  0  0  0  0  0999 V2000
  -20.5796  -26.1080   25.3375 C   0  0  0  0  0  0  0  0  0  0  0  0
  -21.8356  -25.6840   24.9155 C   0  0  0  0  0  0  0  0  0  0  0  0
  -27.1269  -14.1631   22.8163 C   0  0  0  0  0  0  0  0  0  0  0  0
  -27.2939  -15.0494   20.5750 C   0  0  0  0  0  0  0  0  0  0  0  0
  -19.7560  -26.8195   24.4661 C   0  0  0  0  0  0  0  0  0  0  0  0
  -22.2683  -25.9703   23.6212 C   0  0  0  0  0  0  0  0  0  0  0  0
  -27.9963  -27.2103   21.8442 C   0  0  0  0  0  0  0  0  0  0  0  0
  -26.6659  -12.9510   22.3028 C   0  0  0  0  0  0  0  0  0  0  0  0
  -26.8329  -13.8372   20.0613 C   0  0  0  0  0  0  0  0  0  0  0  0
  -28.9889  -26.4233   21.2618 C   0  0  0  0  0  0  0  0  0  0  0  0
  -25.1028   -9.7432   21.6026 C   0  0  0  0  0  0  0  0  0  0  0  0
  -24.0070   -9.1474   22.2268 C   0  0  0  0  0  0  0  0  0  0  0  0
  -28.3335  -27.2208   19.0815 C   0  0  0  0  0  0  0  0  0  0  0  0
  -22.6666  -11.0961   21.7337 C   0  0  0  0  0  0  0  0  0  0  0  0
  -31.0976  -20.8678   19.2240 C   0  0  0  0  0  0  0  0  0  0  0  0
  -27.4409  -15.2123   21.9525 C   0  0  0  0  0  0  0  0  0  0  0  0
  -29.2536  -16.8316   22.7268 C   0  0  0  0  0  0  0  0  0  0  0  0
  -20.1828  -27.1230   23.1636 C   0  0  0  0  0  0  0  0  0  0  0  0
  -27.1564  -28.0015   21.0474 C   0  0  0  0  0  0  0  0  0  0  0  0
  -21.4491  -26.6853   22.7310 C   0  0  0  0  0  0  0  0  0  0  0  0
  -27.3328  -28.0189   19.6565 C   0  0  0  0  0  0  0  0  0  0  0  0
  -26.5189  -12.7880   20.9253 C   0  0  0  0  0  0  0  0  0  0  0  0
  -29.1558  -26.4262   19.8801 C   0  0  0  0  0  0  0  0  0  0  0  0
  -24.9806  -11.0155   21.0439 C   0  0  0  0  0  0  0  0  0  0  0  0
  -22.7889   -9.8239   22.2924 C   0  0  0  0  0  0  0  0  0  0  0  0
  -23.7626  -11.6919   21.1094 C   0  0  0  0  0  0  0  0  0  0  0  0
  -27.9166  -16.4649   22.4824 C   0  0  0  0  0  0  0  0  0  0  0  0
  -30.2698  -19.9093   19.7721 C   0  0  0  0  0  0  0  0  0  0  0  0
  -30.4962  -22.0712   18.9170 C   0  0  0  0  0  0  0  0  0  0  0  0
  -29.1737  -18.1090   23.2250 C   0  0  0  0  0  0  0  0  0  0  0  0
  -28.4870  -21.3154   19.6647 C   0  0  0  0  0  0  0  0  0  0  0  0
  -30.4600  -16.0843   22.5217 C   0  0  0  0  0  0  0  0  0  0  0  0
  -24.0279  -28.0976   20.4931 C   0  0  0  0  0  0  0  0  0  0  0  0
  -24.8027  -30.7589   18.8080 C   0  0  0  0  0  0  0  0  0  0  0  0
  -27.1766  -32.5170   17.0989 C   0  0  0  0  0  0  0  0  0  0  0  0
  -24.6512  -22.1858   22.5433 C   0  0  0  0  0  0  0  0  0  0  0  0
  -19.2384  -27.8535   22.2421 C   0  0  0  0  0  0  0  0  0  0  0  0
  -26.1080  -28.8653   21.6932 C   0  0  0  0  0  0  0  0  0  0  0  0
  -26.4704  -28.8664   18.7583 C   0  0  0  0  0  0  0  0  0  0  0  0
  -19.9222  -28.4408   21.0101 C   0  0  0  0  0  0  0  0  0  0  0  0
  -26.2667  -21.0157   25.6613 C   0  0  0  0  0  0  0  0  0  0  0  0
  -20.8504  -27.4115   20.3730 C   0  0  0  0  0  0  0  0  0  0  0  0
  -26.9247  -19.7078   25.2250 C   0  0  0  0  0  0  0  0  0  0  0  0
  -25.0285  -21.3331   24.8285 C   0  0  0  0  0  0  0  0  0  0  0  0
  -25.9353  -20.0414   22.9250 C   0  0  0  0  0  0  0  0  0  0  0  0
  -21.9640  -26.9980   21.3427 C   0  0  1  0  0  0  0  0  0  0  0  0
  -24.9733  -29.2382   20.7440 C   0  0  1  0  0  0  0  0  0  0  0  0
  -27.2127  -19.7160   23.7136 C   0  0  2  0  0  0  0  0  0  0  0  0
  -30.8303  -18.5757   20.1376 C   0  0  0  0  0  0  0  0  0  0  0  0
  -27.5020  -34.6404   15.8018 C   0  0  0  0  0  0  0  0  0  0  0  0
  -23.3373  -29.5287   16.4313 C   0  0  0  0  0  0  0  0  0  0  0  0
  -24.4838  -31.1921   14.9525 C   0  0  0  0  0  0  0  0  0  0  0  0
  -22.9402  -31.9775   16.7478 C   0  0  0  0  0  0  0  0  0  0  0  0
  -24.6883  -23.5432   20.4852 C   0  0  0  0  0  0  0  0  0  0  0  0
  -29.2257  -33.4982   18.9956 C   0  0  0  0  0  0  0  0  0  0  0  0
  -31.3204  -23.1814   18.3155 C   0  0  0  0  0  0  0  0  0  0  0  0
  -27.0380  -21.5659   19.9125 C   0  0  0  0  0  0  0  0  0  0  0  0
  -31.9549  -24.1093   19.3537 C   0  0  0  0  0  0  0  0  0  0  0  0
  -26.7651  -22.4010   21.1693 C   0  0  0  0  0  0  0  0  0  0  0  0
  -30.9318  -24.8743   20.1853 C   0  0  0  0  0  0  0  0  0  1  0  0
  -25.2022  -31.0414   17.3799 C   0  0  1  0  0  0  0  0  0  0  0  0
  -27.5932  -33.9752   17.1663 C   0  0  2  0  0  0  0  0  0  0  0  0
  -24.0060  -30.9174   16.3944 C   0  0  0  0  0  0  0  0  0  0  0  0
  -27.0507  -17.4312   22.7995 N   0  0  0  0  0  0  0  0  0  0  0  0
  -28.9550  -20.0999   20.0069 N   0  0  0  0  0  0  0  0  0  0  0  0
  -29.1885  -22.3302   19.1247 N   0  0  0  0  0  0  0  0  0  0  0  0
  -27.8455  -18.4177   23.2482 N   0  0  0  0  0  0  0  0  0  0  0  0
  -25.4551  -29.6889   19.4367 N   0  0  0  0  0  0  0  0  0  0  0  0
  -25.3203  -21.2918   23.3952 N   0  0  0  0  0  0  0  0  0  0  0  0
  -30.1108  -18.9871   23.6413 N   0  0  0  0  0  0  0  0  0  0  0  0
  -30.3617  -14.7864   22.0020 N   0  0  0  0  0  0  0  0  0  0  0  0
  -22.9887  -28.0184   21.4004 N   0  0  0  0  0  0  0  0  0  0  0  0
  -25.8377  -32.3546   17.3859 N   0  0  0  0  0  0  0  0  0  0  0  0
  -25.3359  -22.6075   21.3935 N   0  0  0  0  0  0  0  0  0  0  0  0
  -28.9972  -34.0908   17.6526 N   0  3  0  0  0  0  0  0  0  0  0  0
  -31.5903  -16.5476   22.8066 O   0  0  0  0  0  0  0  0  0  0  0  0
  -24.2258  -27.3460   19.5457 O   0  0  0  0  0  0  0  0  0  0  0  0
  -23.9487  -31.4662   19.3483 O   0  0  0  0  0  0  0  0  0  0  0  0
  -27.9596  -31.6129   16.8161 O   0  0  0  0  0  0  0  0  0  0  0  0
  -23.5106  -22.5917   22.8008 O   0  0  0  0  0  0  0  0  0  0  0  0
  -26.0693  -11.6053   20.4237 O   0  0  0  0  0  0  0  0  0  0  0  0
  -30.1234  -25.6584   19.3090 O   0  0  0  0  0  0  0  0  0  1  0  0
  -21.7362   -9.2510   22.8906 F   0  0  0  0  0  0  0  0  0  0  0  0
  -23.6388  -12.9139   20.5735 F   0  0  0  0  0  0  0  0  0  0  0  0
  1  2  1  0  0  0  0
  1  5  2  0  0  0  0
  2  6  2  0  0  0  0
  3  8  2  0  0  0  0
  3 16  1  0  0  0  0
  4  9  1  0  0  0  0
  4 16  2  0  0  0  0
  5 18  1  0  0  0  0
  6 20  1  0  0  0  0
  7 10  2  0  0  0  0
  7 19  1  0  0  0  0
  8 22  1  0  0  0  0
  9 22  2  0  0  0  0
 10 23  1  0  0  0  0
 11 12  2  0  0  0  0
 11 24  1  0  0  0  0
 12 25  1  0  0  0  0
 13 21  1  0  0  0  0
 13 23  2  0  0  0  0
 14 25  2  0  0  0  0
 14 26  1  0  0  0  0
 15 28  2  0  0  0  0
 15 29  1  0  0  0  0
 16 27  1  0  0  0  0
 17 27  1  0  0  0  0
 17 30  2  0  0  0  0
 17 32  1  0  0  0  0
 18 20  2  0  0  0  0
 18 37  1  0  0  0  0
 19 21  2  0  0  0  0
 19 38  1  0  0  0  0
 20 46  1  0  0  0  0
 21 39  1  0  0  0  0
 22 81  1  0  0  0  0
 23 82  1  0  0  0  0
 24 26  2  0  0  0  0
 24 81  1  0  0  0  0
 25 83  1  0  0  0  0
 26 84  1  0  0  0  0
 27 64  2  0  0  0  0
 28 49  1  0  0  0  0
 28 65  1  0  0  0  0
 29 56  1  0  0  0  0
 29 66  2  0  0  0  0
 30 67  1  0  0  0  0
 30 70  1  0  0  0  0
 31 57  1  0  0  0  0
 31 65  2  0  0  0  0
 31 66  1  0  0  0  0
 32 71  1  0  0  0  0
 32 76  2  0  0  0  0
 33 47  1  0  0  0  0
 33 72  1  0  0  0  0
 33 77  2  0  0  0  0
 34 61  1  0  0  0  0
 34 68  1  0  0  0  0
 34 78  2  0  0  0  0
 35 62  1  0  0  0  0
 35 73  1  0  0  0  0
 35 79  2  0  0  0  0
 36 69  1  0  0  0  0
 36 74  1  0  0  0  0
 36 80  2  0  0  0  0
 37 40  1  0  0  0  0
 38 47  1  0  0  0  0
 39 68  1  0  0  0  0
 40 42  1  0  0  0  0
 41 43  1  0  0  0  0
 41 44  1  0  0  0  0
 42 46  1  0  0  0  0
 43 48  1  0  0  0  0
 44 69  1  0  0  0  0
 45 48  1  0  0  0  0
 45 69  1  0  0  0  0
 46 72  1  0  0  0  0
 47 68  1  0  0  0  0
 48 67  1  0  0  0  0
 50 62  1  0  0  0  0
 51 63  1  0  0  0  0
 52 63  1  0  0  0  0
 53 63  1  0  0  0  0
 54 74  1  0  0  0  0
 55 75  1  0  0  0  0
 56 58  1  0  0  0  0
 57 59  1  0  0  0  0
 58 60  1  0  0  0  0
 59 74  1  0  0  0  0
 60 82  1  0  0  0  0
 61 63  1  0  0  0  0
 61 73  1  0  0  0  0
 62 75  1  0  0  0  0
 64 67  1  0  0  0  0
M  CHG  1  75   1
M  ISO  4  36 100  60 101  74 100  82 101
M  END
> <Batch ID>
0059

> <Smiles>
CNC(C)C(=O)NC(C(=O)N1Cc2cc([101O:1][101CH2:1]CCc3cc(C)nc(CC[100N:0](C)[100C:0](=O)N4CCCC(n5nc(-c6ccc(Oc7ccc(F)cc7F)cc6)c(C(N)=O)c5N)C4)n3)ccc2CC1C(=O)NC1CCCc2ccccc21)C(C)(C)C

> <Shape>
0.220

> <Color>
0.075

> <Negative vol penalty>
0.000

$$$$

  -OEChem-04052317533D

 80 88  0     1  0  0  0  0  0999 V2000
  -19.9555  -23.1463   21.0358 C   0  0  0  0  0  0  0  0  0  0  0  0
  -21.3229  -22.9024   21.1148 C   0  0  0  0  0  0  0  0  0  0  0  0
  -23.0276  -26.8444   22.4176 C   0  0  0  0  0  0  0  0  0  0  0  0
  -22.4522  -28.6888   20.9670 C   0  0  0  0  0  0  0  0  0  0  0  0
  -19.0491  -22.1614   21.4261 C   0  0  0  0  0  0  0  0  0  0  0  0
  -21.7847  -21.6736   21.5853 C   0  0  0  0  0  0  0  0  0  0  0  0
  -25.5293  -19.7887   18.7446 C   0  0  0  0  0  0  0  0  0  0  0  0
  -21.6920  -26.7312   22.8035 C   0  0  0  0  0  0  0  0  0  0  0  0
  -21.1165  -28.5756   21.3528 C   0  0  0  0  0  0  0  0  0  0  0  0
  -26.8014  -20.3289   18.9280 C   0  0  0  0  0  0  0  0  0  0  0  0
  -17.6152  -29.0064   22.2274 C   0  0  0  0  0  0  0  0  0  0  0  0
  -16.9277  -30.1802   22.5358 C   0  0  0  0  0  0  0  0  0  0  0  0
  -27.3970  -18.4422   20.3082 C   0  0  0  0  0  0  0  0  0  0  0  0
  -18.5122  -30.6448   24.2995 C   0  0  0  0  0  0  0  0  0  0  0  0
  -31.1851  -26.3536   22.6795 C   0  0  0  0  0  0  0  0  0  0  0  0
  -23.4077  -27.8232   21.4993 C   0  0  0  0  0  0  0  0  0  0  0  0
  -25.4194  -27.2914   20.0236 C   0  0  0  0  0  0  0  0  0  0  0  0
  -19.5000  -20.9164   21.8925 C   0  0  0  0  0  0  0  0  0  0  0  0
  -25.1773  -18.5745   19.3515 C   0  0  0  0  0  0  0  0  0  0  0  0
  -20.8835  -20.6716   21.9835 C   0  0  0  0  0  0  0  0  0  0  0  0
  -26.1206  -17.8874   20.1288 C   0  0  0  0  0  0  0  0  0  0  0  0
  -20.7365  -27.5968   22.2711 C   0  0  0  0  0  0  0  0  0  0  0  0
  -27.7346  -19.6571   19.7123 C   0  0  0  0  0  0  0  0  0  0  0  0
  -18.7512  -28.6517   22.9552 C   0  0  0  0  0  0  0  0  0  0  0  0
  -17.3762  -30.9995   23.5718 C   0  0  0  0  0  0  0  0  0  0  0  0
  -19.1997  -29.4710   23.9912 C   0  0  0  0  0  0  0  0  0  0  0  0
  -24.7873  -27.9411   21.1007 C   0  0  0  0  0  0  0  0  0  0  0  0
  -31.6130  -27.6092   22.3232 C   0  0  0  0  0  0  0  0  0  0  0  0
  -31.7554  -25.5007   21.7156 C   0  0  0  0  0  0  0  0  0  0  0  0
  -26.7187  -27.7344   20.0702 C   0  0  0  0  0  0  0  0  0  0  0  0
  -24.8804  -26.3699   19.0666 C   0  0  0  0  0  0  0  0  0  0  0  0
  -31.3272  -28.8951   22.9725 C   0  0  0  0  0  0  0  0  0  0  0  0
  -23.0006  -17.6838   21.4898 C   0  0  0  0  0  0  0  0  0  0  0  0
  -24.0936  -14.7116   20.7870 C   0  0  0  0  0  0  0  0  0  0  0  0
  -26.6373  -12.7625   19.6135 C   0  0  0  0  0  0  0  0  0  0  0  0
  -18.4829  -19.9000   22.3476 C   0  0  0  0  0  0  0  0  0  0  0  0
  -23.8097  -17.9919   19.1220 C   0  0  0  0  0  0  0  0  0  0  0  0
  -25.7991  -16.5707   20.7856 C   0  0  0  0  0  0  0  0  0  0  0  0
  -19.0497  -18.4890   22.4815 C   0  0  0  0  0  0  0  0  0  0  0  0
  -28.8492  -31.4550   22.7527 C   0  0  0  0  0  0  0  0  0  0  0  0
  -20.3798  -18.5166   23.2276 C   0  0  0  0  0  0  0  0  0  0  0  0
  -27.6156  -30.7143   22.2333 C   0  0  0  0  0  0  0  0  0  0  0  0
  -29.6737  -30.5836   23.6969 C   0  0  0  0  0  0  0  0  0  0  0  0
  -28.8301  -28.5282   22.6159 C   0  0  0  0  0  0  0  0  0  0  0  0
  -21.4230  -19.3423   22.4652 C   0  0  1  0  0  0  0  0  0  0  0  0
  -23.3909  -17.0050   20.2074 C   0  0  1  0  0  0  0  0  0  0  0  0
  -27.9985  -29.3540   21.6207 C   0  0  1  0  0  0  0  0  0  0  0  0
  -27.2499  -10.3654   19.1940 C   0  0  0  0  0  0  0  0  0  0  0  0
  -24.5408  -14.3049   23.7778 C   0  0  0  0  0  0  0  0  0  0  0  0
  -25.9957  -12.3445   23.2229 C   0  0  0  0  0  0  0  0  0  0  0  0
  -23.5836  -12.3247   22.5874 C   0  0  0  0  0  0  0  0  0  0  0  0
  -33.0625  -28.4688   20.4595 C   0  0  0  0  0  0  0  0  0  0  0  0
  -26.9779  -13.2363   16.7121 C   0  0  0  0  0  0  0  0  0  0  0  0
  -31.6173  -24.0022   21.6187 C   0  0  0  0  0  0  0  0  0  0  0  0
  -30.4268  -23.5437   20.7693 C   0  0  0  0  0  0  0  0  0  0  0  0
  -30.2579  -22.0239   20.7461 C   0  0  0  0  0  0  0  0  0  0  0  0
  -29.0915  -21.6045   19.8618 C   0  0  0  0  0  0  0  0  0  1  0  0
  -25.1856  -13.8191   21.3254 C   0  0  1  0  0  0  0  0  0  0  0  0
  -26.6554  -11.6327   18.5997 C   0  0  2  0  0  0  0  0  0  0  0  0
  -24.8322  -13.2241   22.7177 C   0  0  0  0  0  0  0  0  0  0  0  0
  -25.6167  -28.7362   21.7818 N   0  0  0  0  0  0  0  0  0  0  0  0
  -32.4897  -26.1588   20.8147 N   0  0  0  0  0  0  0  0  0  0  0  0
  -32.3837  -27.4386   21.2109 N   0  0  0  0  0  0  0  0  0  0  0  0
  -26.7834  -28.5889   21.1312 N   0  0  0  0  0  0  0  0  0  0  0  0
  -29.9943  -29.3016   23.0704 N   0  0  0  0  0  0  0  0  0  0  0  0
  -24.4466  -16.0451   20.5364 N   0  0  0  0  0  0  0  0  0  0  0  0
  -27.8007  -27.4724   19.3066 N   0  0  0  0  0  0  0  0  0  0  0  0
  -23.5260  -26.0223   19.1632 N   0  0  0  0  0  0  0  0  0  0  0  0
  -21.9583  -18.5812   21.3567 N   0  0  0  0  0  0  0  0  0  0  0  0
  -25.4399  -12.8181   20.2949 N   0  0  0  0  0  0  0  0  0  0  0  0
  -27.4646  -12.0180   17.4091 N   0  3  0  0  0  0  0  0  0  0  0  0
  -25.5829  -25.8569   18.1628 O   0  0  0  0  0  0  0  0  0  0  0  0
  -32.3014  -29.5291   23.3751 O   0  0  0  0  0  0  0  0  0  0  0  0
  -23.5997  -17.4123   22.5237 O   0  0  0  0  0  0  0  0  0  0  0  0
  -22.9706  -14.2410   20.5892 O   0  0  0  0  0  0  0  0  0  0  0  0
  -27.5915  -13.5176   19.7865 O   0  0  0  0  0  0  0  0  0  0  0  0
  -19.4330  -27.4864   22.6473 O   0  0  0  0  0  0  0  0  0  0  0  0
  -28.9768  -20.1825   19.8935 O   0  0  0  0  0  0  0  0  0  1  0  0
  -16.7168  -32.1274   23.8668 F   0  0  0  0  0  0  0  0  0  0  0  0
  -20.2910  -29.1361   24.6930 F   0  0  0  0  0  0  0  0  0  0  0  0
  1  2  1  0  0  0  0
  1  5  2  0  0  0  0
  2  6  2  0  0  0  0
  3  8  2  0  0  0  0
  3 16  1  0  0  0  0
  4  9  1  0  0  0  0
  4 16  2  0  0  0  0
  5 18  1  0  0  0  0
  6 20  1  0  0  0  0
  7 10  2  0  0  0  0
  7 19  1  0  0  0  0
  8 22  1  0  0  0  0
  9 22  2  0  0  0  0
 10 23  1  0  0  0  0
 11 12  2  0  0  0  0
 11 24  1  0  0  0  0
 12 25  1  0  0  0  0
 13 21  1  0  0  0  0
 13 23  2  0  0  0  0
 14 25  2  0  0  0  0
 14 26  1  0  0  0  0
 15 28  2  0  0  0  0
 15 29  1  0  0  0  0
 16 27  1  0  0  0  0
 17 27  1  0  0  0  0
 17 30  2  0  0  0  0
 17 31  1  0  0  0  0
 18 20  2  0  0  0  0
 18 36  1  0  0  0  0
 19 21  2  0  0  0  0
 19 37  1  0  0  0  0
 20 45  1  0  0  0  0
 21 38  1  0  0  0  0
 22 77  1  0  0  0  0
 23 78  1  0  0  0  0
 24 26  2  0  0  0  0
 24 77  1  0  0  0  0
 25 79  1  0  0  0  0
 26 80  1  0  0  0  0
 27 61  2  0  0  0  0
 28 32  1  0  0  0  0
 28 63  1  0  0  0  0
 29 54  1  0  0  0  0
 29 62  2  0  0  0  0
 30 64  1  0  0  0  0
 30 67  1  0  0  0  0
 31 68  1  0  0  0  0
 31 72  2  0  0  0  0
 32 65  1  0  0  0  0
 32 73  2  0  0  0  0
 33 46  1  0  0  0  0
 33 69  1  0  0  0  0
 33 74  2  0  0  0  0
 34 58  1  0  0  0  0
 34 66  1  0  0  0  0
 34 75  2  0  0  0  0
 35 59  1  0  0  0  0
 35 70  1  0  0  0  0
 35 76  2  0  0  0  0
 36 39  1  0  0  0  0
 37 46  1  0  0  0  0
 38 66  1  0  0  0  0
 39 41  1  0  0  0  0
 40 42  1  0  0  0  0
 40 43  1  0  0  0  0
 41 45  1  0  0  0  0
 42 47  1  0  0  0  0
 43 65  1  0  0  0  0
 44 47  1  0  0  0  0
 44 65  1  0  0  0  0
 45 69  1  0  0  0  0
 46 66  1  0  0  0  0
 47 64  1  0  0  0  0
 48 59  1  0  0  0  0
 49 60  1  0  0  0  0
 50 60  1  0  0  0  0
 51 60  1  0  0  0  0
 52 63  1  0  0  0  0
 53 71  1  0  0  0  0
 54 55  1  0  0  0  0
 55 56  1  0  0  0  0
 56 57  1  0  0  0  0
 57 78  1  0  0  0  0
 58 60  1  0  0  0  0
 58 70  1  0  0  0  0
 59 71  1  0  0  0  0
 61 64  1  0  0  0  0
 62 63  1  0  0  0  0
M  CHG  1  71   1
M  ISO  4  28 100  32 100  57 101  78 101
M  END
> <Batch ID>
0059

> <Smiles>
CNC(C)C(=O)NC(C(=O)N1Cc2cc([101O:1][101CH2:1]CCCc3c[100c:0]([100C:0](=O)N4CCCC(n5nc(-c6ccc(Oc7ccc(F)cc7F)cc6)c(C(N)=O)c5N)C4)n(C)n3)ccc2CC1C(=O)NC1CCCc2ccccc21)C(C)(C)C

> <Shape>
0.206

> <Color>
0.060

> <Negative vol penalty>
0.000

$$$$

  -OEChem-04052317533D

 79 87  0     1  0  0  0  0  0999 V2000
  -19.3585  -25.6866   20.2401 C   0  0  0  0  0  0  0  0  0  0  0  0
  -19.6529  -24.5367   19.5145 C   0  0  0  0  0  0  0  0  0  0  0  0
  -27.7345  -23.6345   20.8611 C   0  0  0  0  0  0  0  0  0  0  0  0
  -28.5176  -23.3888   18.5888 C   0  0  0  0  0  0  0  0  0  0  0  0
  -20.0537  -25.9643   21.4163 C   0  0  0  0  0  0  0  0  0  0  0  0
  -20.6436  -23.6645   19.9641 C   0  0  0  0  0  0  0  0  0  0  0  0
  -22.3171  -16.7001   20.0802 C   0  0  0  0  0  0  0  0  0  0  0  0
  -27.8129  -25.0217   20.7382 C   0  0  0  0  0  0  0  0  0  0  0  0
  -28.5959  -24.7761   18.4658 C   0  0  0  0  0  0  0  0  0  0  0  0
  -23.3646  -15.8386   19.7574 C   0  0  0  0  0  0  0  0  0  0  0  0
  -25.9807  -27.5079   19.3617 C   0  0  0  0  0  0  0  0  0  0  0  0
  -24.9084  -28.2625   19.8375 C   0  0  0  0  0  0  0  0  0  0  0  0
  -24.4454  -16.3802   21.8449 C   0  0  0  0  0  0  0  0  0  0  0  0
  -26.3872  -29.3923   21.3782 C   0  0  0  0  0  0  0  0  0  0  0  0
  -28.6871  -11.6553   18.6747 C   0  0  0  0  0  0  0  0  0  0  0  0
  -26.4533  -11.8993   19.0989 C   0  0  0  0  0  0  0  0  0  0  0  0
  -28.0869  -22.8181   19.7865 C   0  0  0  0  0  0  0  0  0  0  0  0
  -26.8996  -20.5663   19.6199 C   0  0  0  0  0  0  0  0  0  0  0  0
  -21.0467  -25.0901   21.8857 C   0  0  0  0  0  0  0  0  0  0  0  0
  -22.3312  -17.4177   21.2850 C   0  0  0  0  0  0  0  0  0  0  0  0
  -21.3537  -23.9315   21.1470 C   0  0  0  0  0  0  0  0  0  0  0  0
  -23.3957  -17.2482   22.1818 C   0  0  0  0  0  0  0  0  0  0  0  0
  -28.2436  -25.5925   19.5405 C   0  0  0  0  0  0  0  0  0  0  0  0
  -24.4304  -15.6807   20.6384 C   0  0  0  0  0  0  0  0  0  0  0  0
  -27.2563  -27.6955   19.8941 C   0  0  0  0  0  0  0  0  0  0  0  0
  -25.1117  -29.2047   20.8457 C   0  0  0  0  0  0  0  0  0  0  0  0
  -27.4595  -28.6377   20.9023 C   0  0  0  0  0  0  0  0  0  0  0  0
  -28.0067  -21.3850   19.9131 C   0  0  0  0  0  0  0  0  0  0  0  0
  -28.8039  -13.0174   18.5056 C   0  0  0  0  0  0  0  0  0  0  0  0
  -26.5701  -13.2615   18.9306 C   0  0  0  0  0  0  0  0  0  0  0  0
  -27.3291  -19.2932   19.9046 C   0  0  0  0  0  0  0  0  0  0  0  0
  -25.5993  -20.9247   19.1335 C   0  0  0  0  0  0  0  0  0  0  0  0
  -22.3767  -20.5002   22.0594 C   0  0  0  0  0  0  0  0  0  0  0  0
  -22.0292  -19.3481   25.0717 C   0  0  0  0  0  0  0  0  0  0  0  0
  -22.4399  -16.7490   27.2450 C   0  0  0  0  0  0  0  0  0  0  0  0
  -31.2164  -15.2971   19.6492 C   0  0  0  0  0  0  0  0  0  0  0  0
  -21.8041  -25.4567   23.1374 C   0  0  0  0  0  0  0  0  0  0  0  0
  -21.1806  -18.3227   21.6306 C   0  0  0  0  0  0  0  0  0  0  0  0
  -23.4485  -17.9801   23.4971 C   0  0  0  0  0  0  0  0  0  0  0  0
  -22.5796  -24.2901   23.7438 C   0  0  0  0  0  0  0  0  0  0  0  0
  -31.4907  -17.6772   22.2830 C   0  0  0  0  0  0  0  0  0  0  0  0
  -23.3539  -23.5439   22.6619 C   0  0  0  0  0  0  0  0  0  0  0  0
  -30.5225  -18.7886   21.8739 C   0  0  0  0  0  0  0  0  0  0  0  0
  -32.1978  -17.0710   21.0728 C   0  0  0  0  0  0  0  0  0  0  0  0
  -30.3311  -17.7074   19.5950 C   0  0  0  0  0  0  0  0  0  0  0  0
  -22.4044  -22.9482   21.6154 C   0  0  1  0  0  0  0  0  0  0  0  0
  -21.5493  -19.3946   22.6516 C   0  0  1  0  0  0  0  0  0  0  0  0
  -29.5525  -18.3114   20.7763 C   0  0  2  0  0  0  0  0  0  0  0  0
  -22.0972  -16.1191   29.6498 C   0  0  0  0  0  0  0  0  0  0  0  0
  -24.4787  -20.9930   25.8492 C   0  0  0  0  0  0  0  0  0  0  0  0
  -24.6516  -19.6203   27.9359 C   0  0  0  0  0  0  0  0  0  0  0  0
  -22.6273  -21.0204   27.5302 C   0  0  0  0  0  0  0  0  0  0  0  0
  -20.5739  -14.5667   26.5280 C   0  0  0  0  0  0  0  0  0  0  0  0
  -30.1206  -13.6282   18.1751 C   0  0  0  0  0  0  0  0  0  0  0  0
  -25.3722  -14.1531   19.0779 C   0  0  0  0  0  0  0  0  0  1  0  0
  -22.9743  -18.9190   26.1679 C   0  0  1  0  0  0  0  0  0  0  0  0
  -21.4952  -16.1202   28.2532 C   0  0  2  0  0  0  0  0  0  0  0  0
  -23.6832  -20.1257   26.8452 C   0  0  0  0  0  0  0  0  0  0  0  0
  -27.5098  -11.0718   18.9743 N   0  0  0  0  0  0  0  0  0  0  0  0
  -29.0602  -20.6903   20.3507 N   0  0  0  0  0  0  0  0  0  0  0  0
  -27.7474  -13.8450   18.6306 N   0  0  0  0  0  0  0  0  0  0  0  0
  -28.6170  -19.4217   20.3347 N   0  0  0  0  0  0  0  0  0  0  0  0
  -22.3030  -18.8584   23.7868 N   0  0  0  0  0  0  0  0  0  0  0  0
  -31.2219  -16.6372   20.0702 N   0  0  0  0  0  0  0  0  0  0  0  0
  -26.7269  -18.0875   19.8267 N   0  0  0  0  0  0  0  0  0  0  0  0
  -25.3254  -22.2781   18.8936 N   0  0  0  0  0  0  0  0  0  0  0  0
  -21.7813  -21.7454   22.1248 N   0  0  0  0  0  0  0  0  0  0  0  0
  -22.1912  -18.0956   27.0829 N   0  0  0  0  0  0  0  0  0  0  0  0
  -30.2552  -14.9683   18.7012 N   0  0  0  0  0  0  0  0  0  0  0  0
  -21.1922  -14.7120   27.8709 N   0  3  0  0  0  0  0  0  0  0  0  0
  -24.7015  -20.0717   18.9337 O   0  0  0  0  0  0  0  0  0  0  0  0
  -23.4748  -20.2428   21.5800 O   0  0  0  0  0  0  0  0  0  0  0  0
  -21.0787  -20.0848   25.3468 O   0  0  0  0  0  0  0  0  0  0  0  0
  -23.3136  -16.1105   26.6624 O   0  0  0  0  0  0  0  0  0  0  0  0
  -32.0060  -14.4548   20.0898 O   0  0  0  0  0  0  0  0  0  0  0  0
  -28.3200  -26.9461   19.4201 O   0  0  0  0  0  0  0  0  0  0  0  0
  -25.4545  -14.8409   20.3255 O   0  0  0  0  0  0  0  0  0  1  0  0
  -24.0822  -29.9303   21.3015 F   0  0  0  0  0  0  0  0  0  0  0  0
  -28.6829  -28.8232   21.4170 F   0  0  0  0  0  0  0  0  0  0  0  0
  1  2  1  0  0  0  0
  1  5  2  0  0  0  0
  2  6  2  0  0  0  0
  3  8  2  0  0  0  0
  3 17  1  0  0  0  0
  4  9  1  0  0  0  0
  4 17  2  0  0  0  0
  5 19  1  0  0  0  0
  6 21  1  0  0  0  0
  7 10  2  0  0  0  0
  7 20  1  0  0  0  0
  8 23  1  0  0  0  0
  9 23  2  0  0  0  0
 10 24  1  0  0  0  0
 11 12  2  0  0  0  0
 11 25  1  0  0  0  0
 12 26  1  0  0  0  0
 13 22  1  0  0  0  0
 13 24  2  0  0  0  0
 14 26  2  0  0  0  0
 14 27  1  0  0  0  0
 15 29  2  0  0  0  0
 15 59  1  0  0  0  0
 16 30  1  0  0  0  0
 16 59  2  0  0  0  0
 17 28  1  0  0  0  0
 18 28  1  0  0  0  0
 18 31  2  0  0  0  0
 18 32  1  0  0  0  0
 19 21  2  0  0  0  0
 19 37  1  0  0  0  0
 20 22  2  0  0  0  0
 20 38  1  0  0  0  0
 21 46  1  0  0  0  0
 22 39  1  0  0  0  0
 23 76  1  0  0  0  0
 24 77  1  0  0  0  0
 25 27  2  0  0  0  0
 25 76  1  0  0  0  0
 26 78  1  0  0  0  0
 27 79  1  0  0  0  0
 28 60  2  0  0  0  0
 29 54  1  0  0  0  0
 29 61  1  0  0  0  0
 30 55  1  0  0  0  0
 30 61  2  0  0  0  0
 31 62  1  0  0  0  0
 31 65  1  0  0  0  0
 32 66  1  0  0  0  0
 32 71  2  0  0  0  0
 33 47  1  0  0  0  0
 33 67  1  0  0  0  0
 33 72  2  0  0  0  0
 34 56  1  0  0  0  0
 34 63  1  0  0  0  0
 34 73  2  0  0  0  0
 35 57  1  0  0  0  0
 35 68  1  0  0  0  0
 35 74  2  0  0  0  0
 36 64  1  0  0  0  0
 36 69  1  0  0  0  0
 36 75  2  0  0  0  0
 37 40  1  0  0  0  0
 38 47  1  0  0  0  0
 39 63  1  0  0  0  0
 40 42  1  0  0  0  0
 41 43  1  0  0  0  0
 41 44  1  0  0  0  0
 42 46  1  0  0  0  0
 43 48  1  0  0  0  0
 44 64  1  0  0  0  0
 45 48  1  0  0  0  0
 45 64  1  0  0  0  0
 46 67  1  0  0  0  0
 47 63  1  0  0  0  0
 48 62  1  0  0  0  0
 49 57  1  0  0  0  0
 50 58  1  0  0  0  0
 51 58  1  0  0  0  0
 52 58  1  0  0  0  0
 53 70  1  0  0  0  0
 54 69  1  0  0  0  0
 55 77  1  0  0  0  0
 56 58  1  0  0  0  0
 56 68  1  0  0  0  0
 57 70  1  0  0  0  0
 60 62  1  0  0  0  0
M  CHG  1  70   1
M  ISO  4  36 100  55 101  69 100  77 101
M  END
> <Batch ID>
0059

> <Smiles>
CNC(C)C(=O)NC(C(=O)N1Cc2cc([101O:1][101CH2:1]c3cncc(C[100NH:0][100C:0](=O)N4CCCC(n5nc(-c6ccc(Oc7ccc(F)cc7F)cc6)c(C(N)=O)c5N)C4)n3)ccc2CC1C(=O)NC1CCCc2ccccc21)C(C)(C)C

> <Shape>
0.190

> <Color>
0.080

> <Negative vol penalty>
0.000

$$$$

  -OEChem-04052317533D

 89 97  0     1  0  0  0  0  0999 V2000
  -18.7593  -28.9206   22.7139 C   0  0  0  0  0  0  0  0  0  0  0  0
  -18.1437  -27.6832   22.8731 C   0  0  0  0  0  0  0  0  0  0  0  0
  -30.4002  -19.6210   19.4354 C   0  0  0  0  0  0  0  0  0  0  0  0
  -28.4363  -19.7232   20.8387 C   0  0  0  0  0  0  0  0  0  0  0  0
  -20.1101  -28.9874   22.3748 C   0  0  0  0  0  0  0  0  0  0  0  0
  -18.8783  -26.5118   22.6923 C   0  0  0  0  0  0  0  0  0  0  0  0
  -19.3495  -19.7874   25.1162 C   0  0  0  0  0  0  0  0  0  0  0  0
  -30.1240  -20.9012   18.9555 C   0  0  0  0  0  0  0  0  0  0  0  0
  -28.1600  -21.0034   20.3588 C   0  0  0  0  0  0  0  0  0  0  0  0
  -19.3782  -18.4738   24.6497 C   0  0  0  0  0  0  0  0  0  0  0  0
  -30.4943  -24.0915   20.0128 C   0  0  0  0  0  0  0  0  0  0  0  0
  -31.5537  -24.9949   19.9287 C   0  0  0  0  0  0  0  0  0  0  0  0
  -21.7247  -18.7115   24.1429 C   0  0  0  0  0  0  0  0  0  0  0  0
  -31.1968  -25.1920   17.5474 C   0  0  0  0  0  0  0  0  0  0  0  0
  -23.1994  -12.9658   21.2302 C   0  0  0  0  0  0  0  0  0  0  0  0
  -29.5564  -19.0320   20.3770 C   0  0  0  0  0  0  0  0  0  0  0  0
  -30.6236  -17.3715   21.9930 C   0  0  0  0  0  0  0  0  0  0  0  0
  -20.8639  -27.8163   22.1992 C   0  0  0  0  0  0  0  0  0  0  0  0
  -20.5076  -20.5777   25.0894 C   0  0  0  0  0  0  0  0  0  0  0  0
  -20.2400  -26.5630   22.3492 C   0  0  0  0  0  0  0  0  0  0  0  0
  -21.7086  -20.0339   24.6120 C   0  0  0  0  0  0  0  0  0  0  0  0
  -29.0039  -21.5924   19.4172 C   0  0  0  0  0  0  0  0  0  0  0  0
  -20.5652  -17.9366   24.1603 C   0  0  0  0  0  0  0  0  0  0  0  0
  -29.7861  -23.7382   18.8641 C   0  0  0  0  0  0  0  0  0  0  0  0
  -31.9049  -25.5452   18.6961 C   0  0  0  0  0  0  0  0  0  0  0  0
  -30.1373  -24.2885   17.6314 C   0  0  0  0  0  0  0  0  0  0  0  0
  -29.8409  -17.7093   20.8727 C   0  0  0  0  0  0  0  0  0  0  0  0
  -30.5837  -15.9993   22.0385 C   0  0  0  0  0  0  0  0  0  0  0  0
  -24.2970  -12.2256   20.8921 C   0  0  0  0  0  0  0  0  0  0  0  0
  -22.7247  -10.8346   21.5945 C   0  0  0  0  0  0  0  0  0  0  0  0
  -31.3240  -18.2220   22.9105 C   0  0  0  0  0  0  0  0  0  0  0  0
  -21.3433  -23.2841   23.6469 C   0  0  0  0  0  0  0  0  0  0  0  0
  -24.0196  -22.9635   25.4517 C   0  0  0  0  0  0  0  0  0  0  0  0
  -26.1231  -20.9000   27.1733 C   0  0  0  0  0  0  0  0  0  0  0  0
  -26.6553  -11.9613   20.0467 C   0  0  0  0  0  0  0  0  0  0  0  0
  -22.3095  -27.9385   21.7867 C   0  0  0  0  0  0  0  0  0  0  0  0
  -20.4663  -21.9841   25.6210 C   0  0  0  0  0  0  0  0  0  0  0  0
  -22.9842  -20.8341   24.5805 C   0  0  0  0  0  0  0  0  0  0  0  0
  -23.1089  -26.6526   21.9803 C   0  0  0  0  0  0  0  0  0  0  0  0
  -30.1078  -12.1706   19.2016 C   0  0  0  0  0  0  0  0  0  0  0  0
  -22.3347  -25.4557   21.4371 C   0  0  0  0  0  0  0  0  0  0  0  0
  -30.5038  -13.5818   19.6417 C   0  0  0  0  0  0  0  0  0  0  0  0
  -28.6910  -12.1310   18.6316 C   0  0  0  0  0  0  0  0  0  0  0  0
  -28.0523  -14.1183   19.9399 C   0  0  0  0  0  0  0  0  0  0  0  0
  -21.0094  -25.2702   22.1858 C   0  0  1  0  0  0  0  0  0  0  0  0
  -21.5837  -22.8643   25.0695 C   0  0  1  0  0  0  0  0  0  0  0  0
  -29.4475  -14.1965   20.5808 C   0  0  2  0  0  0  0  0  0  0  0  0
  -18.4167  -12.8816   21.1625 C   0  0  0  0  0  0  0  0  0  0  0  0
  -28.2460  -20.9224   28.5113 C   0  0  0  0  0  0  0  0  0  0  0  0
  -20.7235   -9.3817   21.1149 C   0  0  0  0  0  0  0  0  0  0  0  0
  -21.5886   -9.5932   23.4693 C   0  0  0  0  0  0  0  0  0  0  0  0
  -22.8393   -8.2603   21.7840 C   0  0  0  0  0  0  0  0  0  0  0  0
  -25.6362  -23.2295   22.8777 C   0  0  0  0  0  0  0  0  0  0  0  0
  -27.6141  -22.3106   24.1073 C   0  0  0  0  0  0  0  0  0  0  0  0
  -26.5836  -24.4621   24.8367 C   0  0  0  0  0  0  0  0  0  0  0  0
  -22.9745  -13.7582   24.0976 C   0  0  0  0  0  0  0  0  0  0  0  0
  -20.7939  -14.1753   25.2614 C   0  0  0  0  0  0  0  0  0  0  0  0
  -20.2466  -11.4996   23.2018 C   0  0  0  0  0  0  0  0  0  0  0  0
  -24.7464  -19.8916   29.5913 C   0  0  0  0  0  0  0  0  0  0  0  0
  -19.8587  -12.4487   20.9050 C   0  0  0  0  0  0  0  0  0  0  0  0
  -20.7841  -13.9447   22.7032 C   0  0  0  0  0  0  0  0  0  0  0  0
  -21.8278  -15.9477   23.8352 C   0  0  0  0  0  0  0  0  0  1  0  0
  -25.3592  -22.2925   25.2675 C   0  0  1  0  0  0  0  0  0  0  0  0
  -26.7285  -21.0090   28.5611 C   0  0  2  0  0  0  0  0  0  0  0  0
  -22.0185   -9.5840   21.9665 C   0  0  0  0  0  0  0  0  0  0  0  0
  -26.2740  -23.0589   24.2710 C   0  0  0  0  0  0  0  0  0  0  0  0
  -21.5936  -14.4136   23.9622 C   0  0  0  0  0  0  0  0  0  0  0  0
  -20.8289  -12.4658   22.1466 C   0  0  1  0  0  0  0  0  0  0  0  0
  -29.3405  -16.6381   20.2513 N   0  0  0  0  0  0  0  0  0  0  0  0
  -22.2418  -12.0795   21.6609 N   0  0  0  0  0  0  0  0  0  0  0  0
  -29.8100  -15.6137   20.9836 N   0  0  0  0  0  0  0  0  0  0  0  0
  -23.9752  -10.9107   21.1277 N   0  3  0  0  0  0  0  0  0  0  0  0
  -22.8914  -22.2065   25.1054 N   0  0  0  0  0  0  0  0  0  0  0  0
  -27.7443  -12.7260   19.5774 N   0  0  0  0  0  0  0  0  0  0  0  0
  -31.1354  -15.0971   22.8776 N   0  0  0  0  0  0  0  0  0  0  0  0
  -31.2596  -19.6088   22.7182 N   0  0  0  0  0  0  0  0  0  0  0  0
  -25.5317  -12.7106   20.3940 N   0  0  0  0  0  0  0  0  0  0  0  0
  -21.2388  -24.6510   23.4736 N   0  0  0  0  0  0  0  0  0  0  0  0
  -25.9264  -22.1399   26.6030 N   0  0  0  0  0  0  0  0  0  0  0  0
  -26.2235  -19.9119   29.4342 N   0  3  0  0  0  0  0  0  0  0  0  0
  -32.0007  -17.7650   23.8627 O   0  0  0  0  0  0  0  0  0  0  0  0
  -21.2604  -22.4310   22.7711 O   0  0  0  0  0  0  0  0  0  0  0  0
  -23.9754  -24.1144   25.8935 O   0  0  0  0  0  0  0  0  0  0  0  0
  -25.8551  -19.8225   26.6463 O   0  0  0  0  0  0  0  0  0  0  0  0
  -26.7246  -10.7347   20.1598 O   0  0  0  0  0  0  0  0  0  0  0  0
  -28.7341  -22.8418   18.9493 O   0  0  0  0  0  0  0  0  0  0  0  0
  -20.5960  -16.6463   23.7006 O   0  0  0  0  0  0  0  0  0  1  0  0
  -32.9213  -26.4139   18.6158 F   0  0  0  0  0  0  0  0  0  0  0  0
  -29.4600  -23.9539   16.5246 F   0  0  0  0  0  0  0  0  0  0  0  0
  1  2  1  0  0  0  0
  1  5  2  0  0  0  0
  2  6  2  0  0  0  0
  3  8  2  0  0  0  0
  3 16  1  0  0  0  0
  4  9  1  0  0  0  0
  4 16  2  0  0  0  0
  5 18  1  0  0  0  0
  6 20  1  0  0  0  0
  7 10  2  0  0  0  0
  7 19  1  0  0  0  0
  8 22  1  0  0  0  0
  9 22  2  0  0  0  0
 10 23  1  0  0  0  0
 11 12  2  0  0  0  0
 11 24  1  0  0  0  0
 12 25  1  0  0  0  0
 13 21  1  0  0  0  0
 13 23  2  0  0  0  0
 14 25  2  0  0  0  0
 14 26  1  0  0  0  0
 15 29  2  0  0  0  0
 15 70  1  0  0  0  0
 16 27  1  0  0  0  0
 17 27  1  0  0  0  0
 17 28  2  0  0  0  0
 17 31  1  0  0  0  0
 18 20  2  0  0  0  0
 18 36  1  0  0  0  0
 19 21  2  0  0  0  0
 19 37  1  0  0  0  0
 20 45  1  0  0  0  0
 21 38  1  0  0  0  0
 22 86  1  0  0  0  0
 23 87  1  0  0  0  0
 24 26  2  0  0  0  0
 24 86  1  0  0  0  0
 25 88  1  0  0  0  0
 26 89  1  0  0  0  0
 27 69  2  0  0  0  0
 28 71  1  0  0  0  0
 28 75  1  0  0  0  0
 29 72  1  0  0  0  0
 29 77  1  0  0  0  0
 30 65  1  0  0  0  0
 30 70  1  0  0  0  0
 30 72  2  0  0  0  0
 31 76  1  0  0  0  0
 31 81  2  0  0  0  0
 32 46  1  0  0  0  0
 32 78  1  0  0  0  0
 32 82  2  0  0  0  0
 33 63  1  0  0  0  0
 33 73  1  0  0  0  0
 33 83  2  0  0  0  0
 34 64  1  0  0  0  0
 34 79  1  0  0  0  0
 34 84  2  0  0  0  0
 35 74  1  0  0  0  0
 35 77  1  0  0  0  0
 35 85  2  0  0  0  0
 36 39  1  0  0  0  0
 37 46  1  0  0  0  0
 38 73  1  0  0  0  0
 39 41  1  0  0  0  0
 40 42  1  0  0  0  0
 40 43  1  0  0  0  0
 41 45  1  0  0  0  0
 42 47  1  0  0  0  0
 43 74  1  0  0  0  0
 44 47  1  0  0  0  0
 44 74  1  0  0  0  0
 45 78  1  0  0  0  0
 46 73  1  0  0  0  0
 47 71  1  0  0  0  0
 48 60  1  0  0  0  0
 49 64  1  0  0  0  0
 50 65  1  0  0  0  0
 51 65  1  0  0  0  0
 52 65  1  0  0  0  0
 53 66  1  0  0  0  0
 54 66  1  0  0  0  0
 55 66  1  0  0  0  0
 56 67  1  0  0  0  0
 57 67  1  0  0  0  0
 58 68  1  0  0  0  0
 59 80  1  0  0  0  0
 60 68  1  0  0  0  0
 61 67  1  0  0  0  0
 61 68  1  0  0  0  0
 62 67  1  0  0  0  0
 62 87  1  0  0  0  0
 63 66  1  0  0  0  0
 63 79  1  0  0  0  0
 64 80  1  0  0  0  0
 68 70  1  0  0  0  0
 69 71  1  0  0  0  0
M  CHG  2  72   1  80   1
M  ISO  4  35 100  62 101  77 100  87 101
M  END
> <Batch ID>
0059

> <Smiles>
CCC(C)(CC(C)(C)[101CH2:1][101O:1]c1ccc2c(c1)CN(C(=O)C(NC(=O)C(C)NC)C(C)(C)C)C(C(=O)NC1CCCc3ccccc31)C2)n1cc([100NH:0][100C:0](=O)N2CCCC(n3nc(-c4ccc(Oc5ccc(F)cc5F)cc4)c(C(N)=O)c3N)C2)nc1C(C)(C)C

> <Shape>
0.243

> <Color>
0.054

> <Negative vol penalty>
0.000

$$$$

  -OEChem-04052317533D

 88 96  0     1  0  0  0  0  0999 V2000
  -16.5098  -29.8541   23.3740 C   0  0  0  0  0  0  0  0  0  0  0  0
  -17.5382  -30.6573   23.8565 C   0  0  0  0  0  0  0  0  0  0  0  0
  -26.4918  -17.3935   20.1363 C   0  0  0  0  0  0  0  0  0  0  0  0
  -28.8179  -17.1925   20.7577 C   0  0  0  0  0  0  0  0  0  0  0  0
  -16.7979  -28.5948   22.8496 C   0  0  0  0  0  0  0  0  0  0  0  0
  -18.8553  -30.2011   23.8158 C   0  0  0  0  0  0  0  0  0  0  0  0
  -25.5641  -32.5778   23.0040 C   0  0  0  0  0  0  0  0  0  0  0  0
  -26.3450  -16.0102   20.2380 C   0  0  0  0  0  0  0  0  0  0  0  0
  -28.6711  -15.8091   20.8595 C   0  0  0  0  0  0  0  0  0  0  0  0
  -26.8107  -32.5175   23.6253 C   0  0  0  0  0  0  0  0  0  0  0  0
  -29.0010  -12.1903   20.9329 C   0  0  0  0  0  0  0  0  0  0  0  0
  -29.9920  -11.3897   20.3650 C   0  0  0  0  0  0  0  0  0  0  0  0
  -32.0067  -32.5441   21.8955 C   0  0  0  0  0  0  0  0  0  0  0  0
  -27.1984  -30.3572   22.6244 C   0  0  0  0  0  0  0  0  0  0  0  0
  -29.5307  -12.3552   18.1988 C   0  0  0  0  0  0  0  0  0  0  0  0
  -32.3661  -31.5882   20.9770 C   0  0  0  0  0  0  0  0  0  0  0  0
  -27.7282  -17.9847   20.3961 C   0  0  0  0  0  0  0  0  0  0  0  0
  -27.6910  -20.3662   21.3096 C   0  0  0  0  0  0  0  0  0  0  0  0
  -18.1202  -28.1269   22.7935 C   0  0  0  0  0  0  0  0  0  0  0  0
  -25.1199  -31.5216   22.1955 C   0  0  0  0  0  0  0  0  0  0  0  0
  -19.1612  -28.9338   23.2913 C   0  0  0  0  0  0  0  0  0  0  0  0
  -25.9468  -30.4076   21.9918 C   0  0  0  0  0  0  0  0  0  0  0  0
  -27.4347  -15.2179   20.5996 C   0  0  0  0  0  0  0  0  0  0  0  0
  -27.6269  -31.4058   23.4379 C   0  0  0  0  0  0  0  0  0  0  0  0
  -28.2748  -13.0733   20.1338 C   0  0  0  0  0  0  0  0  0  0  0  0
  -30.2569  -11.4721   18.9980 C   0  0  0  0  0  0  0  0  0  0  0  0
  -28.5396  -13.1557   18.7668 C   0  0  0  0  0  0  0  0  0  0  0  0
  -27.8806  -19.4136   20.2907 C   0  0  0  0  0  0  0  0  0  0  0  0
  -31.5453  -31.8105   23.0048 C   0  0  0  0  0  0  0  0  0  0  0  0
  -27.9570  -21.5714   20.7069 C   0  0  0  0  0  0  0  0  0  0  0  0
  -27.3085  -20.1785   22.6787 C   0  0  0  0  0  0  0  0  0  0  0  0
  -22.6769  -29.4908   22.3002 C   0  0  0  0  0  0  0  0  0  0  0  0
  -23.8054  -28.5912   19.3951 C   0  0  0  0  0  0  0  0  0  0  0  0
  -26.4478  -28.4087   17.2430 C   0  0  0  0  0  0  0  0  0  0  0  0
  -31.1028  -24.7568   17.3748 C   0  0  0  0  0  0  0  0  0  0  0  0
  -18.3774  -26.7394   22.2611 C   0  0  0  0  0  0  0  0  0  0  0  0
  -23.7839  -31.6138   21.5108 C   0  0  0  0  0  0  0  0  0  0  0  0
  -25.5251  -29.2563   21.1172 C   0  0  0  0  0  0  0  0  0  0  0  0
  -19.8408  -26.4831   21.9103 C   0  0  0  0  0  0  0  0  0  0  0  0
  -28.6094  -22.7396   15.8287 C   0  0  0  0  0  0  0  0  0  0  0  0
  -20.7521  -26.9723   23.0314 C   0  0  0  0  0  0  0  0  0  0  0  0
  -28.1868  -21.7696   16.9335 C   0  0  0  0  0  0  0  0  0  0  0  0
  -30.1043  -23.0455   15.8878 C   0  0  0  0  0  0  0  0  0  0  0  0
  -30.1649  -22.5528   18.3018 C   0  0  0  0  0  0  0  0  0  0  0  0
  -20.6053  -28.4842   23.2416 C   0  0  1  0  0  0  0  0  0  0  0  0
  -23.2162  -30.2521   21.1224 C   0  0  1  0  0  0  0  0  0  0  0  0
  -28.6553  -22.2576   18.3176 C   0  0  2  0  0  0  0  0  0  0  0  0
  -27.0726  -27.5861   14.9560 C   0  0  0  0  0  0  0  0  0  0  0  0
  -23.8642  -25.7266   20.4441 C   0  0  0  0  0  0  0  0  0  0  0  0
  -25.3482  -25.1260   18.5191 C   0  0  0  0  0  0  0  0  0  0  0  0
  -23.0359  -25.9609   18.0960 C   0  0  0  0  0  0  0  0  0  0  0  0
  -32.3566  -29.4162   18.3799 C   0  0  0  0  0  0  0  0  0  0  0  0
  -30.2292  -29.7932   19.6012 C   0  0  0  0  0  0  0  0  0  0  0  0
  -31.8948  -27.9837   22.0058 C   0  0  0  0  0  0  0  0  0  0  0  0
  -33.8623  -28.8843   20.8420 C   0  0  0  0  0  0  0  0  0  0  0  0
  -27.1601  -31.1327   16.3310 C   0  0  0  0  0  0  0  0  0  0  0  0
  -31.0213  -32.3534   24.3121 C   0  0  0  0  0  0  0  0  0  0  0  0
  -32.0585  -26.3789   18.9918 C   0  0  0  0  0  0  0  0  0  0  0  0
  -29.5139  -32.5812   24.2827 C   0  0  0  0  0  0  0  0  0  1  0  0
  -24.8070  -27.5733   18.9056 C   0  0  1  0  0  0  0  0  0  0  0  0
  -26.5771  -28.7686   15.7739 C   0  0  2  0  0  0  0  0  0  0  0  0
  -24.2712  -26.1174   19.0093 C   0  0  0  0  0  0  0  0  0  0  0  0
  -31.5213  -28.9174   19.5885 C   0  0  0  0  0  0  0  0  0  0  0  0
  -32.3239  -29.0829   20.9895 C   0  0  0  0  0  0  0  0  0  0  0  0
  -31.0232  -27.4624   19.2561 C   0  0  0  0  0  0  0  0  0  0  0  0
  -28.2393  -19.9659   19.1287 N   0  0  0  0  0  0  0  0  0  0  0  0
  -31.6049  -30.4903   22.8109 N   0  0  0  0  0  0  0  0  0  0  0  0
  -32.1078  -30.3869   21.5690 N   0  0  0  0  0  0  0  0  0  0  0  0
  -28.2771  -21.2787   19.4138 N   0  0  0  0  0  0  0  0  0  0  0  0
  -24.2073  -29.3906   20.4746 N   0  0  0  0  0  0  0  0  0  0  0  0
  -30.4833  -23.5050   17.2262 N   0  0  0  0  0  0  0  0  0  0  0  0
  -27.9460  -22.8422   21.1621 N   0  0  0  0  0  0  0  0  0  0  0  0
  -27.0734  -18.8740   23.1339 N   0  0  0  0  0  0  0  0  0  0  0  0
  -21.3266  -29.2092   22.2175 N   0  0  0  0  0  0  0  0  0  0  0  0
  -25.1747  -27.9798   17.5536 N   0  0  0  0  0  0  0  0  0  0  0  0
  -31.4233  -25.1185   18.6776 N   0  0  0  0  0  0  0  0  0  0  0  0
  -27.5364  -29.8957   15.5993 N   0  3  0  0  0  0  0  0  0  0  0  0
  -27.1632  -21.1406   23.4704 O   0  0  0  0  0  0  0  0  0  0  0  0
  -23.4304  -29.1804   23.2154 O   0  0  0  0  0  0  0  0  0  0  0  0
  -22.7096  -28.6789   18.8355 O   0  0  0  0  0  0  0  0  0  0  0  0
  -27.3836  -28.4956   18.0350 O   0  0  0  0  0  0  0  0  0  0  0  0
  -31.3470  -25.4996   16.4180 O   0  0  0  0  0  0  0  0  0  0  0  0
  -27.2917  -13.8680   20.6992 O   0  0  0  0  0  0  0  0  0  0  0  0
  -28.8438  -31.3441   24.0438 O   0  0  0  0  0  0  0  0  0  1  0  0
  -31.2096  -10.7043   18.4530 F   0  0  0  0  0  0  0  0  0  0  0  0
  -27.8461  -14.0030   17.9942 F   0  0  0  0  0  0  0  0  0  0  0  0
  -30.2287  -27.5365   18.1414 F   0  0  0  0  0  0  0  0  0  0  0  0
  -30.1982  -27.0260   20.2496 F   0  0  0  0  0  0  0  0  0  0  0  0
  1  2  1  0  0  0  0
  1  5  2  0  0  0  0
  2  6  2  0  0  0  0
  3  8  2  0  0  0  0
  3 17  1  0  0  0  0
  4  9  1  0  0  0  0
  4 17  2  0  0  0  0
  5 19  1  0  0  0  0
  6 21  1  0  0  0  0
  7 10  2  0  0  0  0
  7 20  1  0  0  0  0
  8 23  1  0  0  0  0
  9 23  2  0  0  0  0
 10 24  1  0  0  0  0
 11 12  2  0  0  0  0
 11 25  1  0  0  0  0
 12 26  1  0  0  0  0
 13 16  2  0  0  0  0
 13 29  1  0  0  0  0
 14 22  1  0  0  0  0
 14 24  2  0  0  0  0
 15 26  2  0  0  0  0
 15 27  1  0  0  0  0
 16 68  1  0  0  0  0
 17 28  1  0  0  0  0
 18 28  1  0  0  0  0
 18 30  2  0  0  0  0
 18 31  1  0  0  0  0
 19 21  2  0  0  0  0
 19 36  1  0  0  0  0
 20 22  2  0  0  0  0
 20 37  1  0  0  0  0
 21 45  1  0  0  0  0
 22 38  1  0  0  0  0
 23 83  1  0  0  0  0
 24 84  1  0  0  0  0
 25 27  2  0  0  0  0
 25 83  1  0  0  0  0
 26 85  1  0  0  0  0
 27 86  1  0  0  0  0
 28 66  2  0  0  0  0
 29 57  1  0  0  0  0
 29 67  2  0  0  0  0
 30 69  1  0  0  0  0
 30 72  1  0  0  0  0
 31 73  1  0  0  0  0
 31 78  2  0  0  0  0
 32 46  1  0  0  0  0
 32 74  1  0  0  0  0
 32 79  2  0  0  0  0
 33 60  1  0  0  0  0
 33 70  1  0  0  0  0
 33 80  2  0  0  0  0
 34 61  1  0  0  0  0
 34 75  1  0  0  0  0
 34 81  2  0  0  0  0
 35 71  1  0  0  0  0
 35 76  1  0  0  0  0
 35 82  2  0  0  0  0
 36 39  1  0  0  0  0
 37 46  1  0  0  0  0
 38 70  1  0  0  0  0
 39 41  1  0  0  0  0
 40 42  1  0  0  0  0
 40 43  1  0  0  0  0
 41 45  1  0  0  0  0
 42 47  1  0  0  0  0
 43 71  1  0  0  0  0
 44 47  1  0  0  0  0
 44 71  1  0  0  0  0
 45 74  1  0  0  0  0
 46 70  1  0  0  0  0
 47 69  1  0  0  0  0
 48 61  1  0  0  0  0
 49 62  1  0  0  0  0
 50 62  1  0  0  0  0
 51 62  1  0  0  0  0
 52 63  1  0  0  0  0
 53 63  1  0  0  0  0
 54 64  1  0  0  0  0
 55 64  1  0  0  0  0
 56 77  1  0  0  0  0
 57 59  1  0  0  0  0
 58 65  1  0  0  0  0
 58 76  1  0  0  0  0
 59 84  1  0  0  0  0
 60 62  1  0  0  0  0
 60 75  1  0  0  0  0
 61 77  1  0  0  0  0
 63 64  1  0  0  0  0
 63 65  1  0  0  0  0
 64 68  1  0  0  0  0
 65 87  1  0  0  0  0
 65 88  1  0  0  0  0
 66 69  1  0  0  0  0
 67 68  1  0  0  0  0
M  CHG  1  77   1
M  ISO  4  35 100  59 101  76 100  84 101
M  END
> <Batch ID>
0059

> <Smiles>
CNC(C)C(=O)NC(C(=O)N1Cc2cc([101O:1][101CH2:1]Cc3ccn(C(C)(C)C(C)(C)C(F)(F)C[100NH:0][100C:0](=O)N4CCCC(n5nc(-c6ccc(Oc7ccc(F)cc7F)cc6)c(C(N)=O)c5N)C4)n3)ccc2CC1C(=O)NC1CCCc2ccccc21)C(C)(C)C

> <Shape>
0.322

> <Color>
0.105

> <Negative vol penalty>
0.000

$$$$

  -OEChem-04052317533D

 83 91  0     1  0  0  0  0  0999 V2000
  -21.7570  -30.4815   23.3976 C   0  0  0  0  0  0  0  0  0  0  0  0
  -21.2823  -29.4745   22.5634 C   0  0  0  0  0  0  0  0  0  0  0  0
  -24.2113  -14.2169   20.9696 C   0  0  0  0  0  0  0  0  0  0  0  0
  -25.5899  -14.0786   18.9903 C   0  0  0  0  0  0  0  0  0  0  0  0
  -23.0137  -31.0401   23.1687 C   0  0  0  0  0  0  0  0  0  0  0  0
  -22.0636  -29.0263   21.4990 C   0  0  0  0  0  0  0  0  0  0  0  0
  -23.5077  -23.1015   17.7402 C   0  0  0  0  0  0  0  0  0  0  0  0
  -24.4523  -12.8683   21.2318 C   0  0  0  0  0  0  0  0  0  0  0  0
  -25.8310  -12.7299   19.2525 C   0  0  0  0  0  0  0  0  0  0  0  0
  -23.5568  -22.6467   16.4232 C   0  0  0  0  0  0  0  0  0  0  0  0
  -23.3382   -9.8772   20.1197 C   0  0  0  0  0  0  0  0  0  0  0  0
  -22.2500   -9.0838   20.4827 C   0  0  0  0  0  0  0  0  0  0  0  0
  -25.7451  -23.6302   16.1716 C   0  0  0  0  0  0  0  0  0  0  0  0
  -23.3222   -8.5763   22.5875 C   0  0  0  0  0  0  0  0  0  0  0  0
  -24.7800  -14.8220   19.8488 C   0  0  0  0  0  0  0  0  0  0  0  0
  -25.2847  -17.3164   20.0249 C   0  0  0  0  0  0  0  0  0  0  0  0
  -23.8150  -30.5918   22.1067 C   0  0  0  0  0  0  0  0  0  0  0  0
  -24.5741  -23.8346   18.2803 C   0  0  0  0  0  0  0  0  0  0  0  0
  -23.3317  -29.5804   21.2548 C   0  0  0  0  0  0  0  0  0  0  0  0
  -25.7081  -24.0909   17.4965 C   0  0  0  0  0  0  0  0  0  0  0  0
  -25.2622  -12.1248   20.3733 C   0  0  0  0  0  0  0  0  0  0  0  0
  -24.6743  -22.9135   15.6378 C   0  0  0  0  0  0  0  0  0  0  0  0
  -24.4185  -10.0202   20.9905 C   0  0  0  0  0  0  0  0  0  0  0  0
  -22.2419   -8.4334   21.7166 C   0  0  0  0  0  0  0  0  0  0  0  0
  -24.4104   -9.3697   22.2244 C   0  0  0  0  0  0  0  0  0  0  0  0
  -24.5310  -16.2150   19.5771 C   0  0  0  0  0  0  0  0  0  0  0  0
  -24.9372  -18.4858   12.1383 C   0  0  0  0  0  0  0  0  0  0  0  0
  -23.8773  -19.3373   12.3247 C   0  0  0  0  0  0  0  0  0  0  0  0
  -24.6408  -18.4097   19.4989 C   0  0  0  0  0  0  0  0  0  0  0  0
  -26.4617  -17.3485   20.8430 C   0  0  0  0  0  0  0  0  0  0  0  0
  -24.9130  -26.7711   19.4491 C   0  0  0  0  0  0  0  0  0  0  0  0
  -27.8897  -25.7138   20.1864 C   0  0  0  0  0  0  0  0  0  0  0  0
  -30.4303  -23.5284   19.5416 C   0  0  0  0  0  0  0  0  0  0  0  0
  -21.1039  -19.1524   14.7250 C   0  0  0  0  0  0  0  0  0  0  0  0
  -25.1468  -31.2589   21.8703 C   0  0  0  0  0  0  0  0  0  0  0  0
  -24.5170  -24.2951   19.7111 C   0  0  0  0  0  0  0  0  0  0  0  0
  -26.8881  -24.8562   18.0354 C   0  0  0  0  0  0  0  0  0  0  0  0
  -26.0691  -30.4674   20.9467 C   0  0  0  0  0  0  0  0  0  0  0  0
  -20.3090  -19.8967   18.1148 C   0  0  0  0  0  0  0  0  0  0  0  0
  -25.3079  -29.9891   19.7143 C   0  0  0  0  0  0  0  0  0  0  0  0
  -21.3689  -19.1369   18.9144 C   0  0  0  0  0  0  0  0  0  0  0  0
  -19.8731  -19.1197   16.8745 C   0  0  0  0  0  0  0  0  0  0  0  0
  -22.0345  -17.9387   16.7884 C   0  0  0  0  0  0  0  0  0  0  0  0
  -24.1601  -29.0502   20.1047 C   0  0  1  0  0  0  0  0  0  0  0  0
  -25.4409  -25.4751   19.9963 C   0  0  1  0  0  0  0  0  0  0  0  0
  -22.5463  -18.7076   18.0184 C   0  0  2  0  0  0  0  0  0  0  0  0
  -32.7523  -22.9325   20.2839 C   0  0  0  0  0  0  0  0  0  0  0  0
  -28.9847  -28.1465   18.7056 C   0  0  0  0  0  0  0  0  0  0  0  0
  -31.2206  -27.0213   18.6535 C   0  0  0  0  0  0  0  0  0  0  0  0
  -30.1700  -27.6036   20.8398 C   0  0  0  0  0  0  0  0  0  0  0  0
  -29.6019  -20.7998   20.3337 C   0  0  0  0  0  0  0  0  0  0  0  0
  -22.4599  -19.1083   12.6469 C   0  0  0  0  0  0  0  0  0  0  0  0
  -23.7386  -21.9139   12.2189 C   0  0  0  0  0  0  0  0  0  0  0  0
  -23.4838  -22.3515   13.6572 C   0  0  0  0  0  0  0  0  0  1  0  0
  -29.2232  -25.6947   19.4790 C   0  0  1  0  0  0  0  0  0  0  0  0
  -31.2672  -22.6570   20.4608 C   0  0  2  0  0  0  0  0  0  0  0  0
  -24.9751  -17.0188   12.2081 C   0  0  0  0  0  0  0  0  0  0  0  0
  -29.8767  -27.1037   19.4084 C   0  0  0  0  0  0  0  0  0  0  0  0
  -23.4879  -16.5755   18.8248 N   0  0  0  0  0  0  0  0  0  0  0  0
  -26.0624  -19.2084   11.8531 N   0  0  0  0  0  0  0  0  0  0  0  0
  -25.7329  -20.4955   11.8572 N   0  0  0  0  0  0  0  0  0  0  0  0
  -24.4224  -20.5706   12.1403 N   0  0  0  0  0  0  0  0  0  0  0  0
  -23.5816  -17.9159   18.7958 N   0  0  0  0  0  0  0  0  0  0  0  0
  -26.7821  -25.2908   19.4381 N   0  0  0  0  0  0  0  0  0  0  0  0
  -21.0364  -18.7440   16.0673 N   0  0  0  0  0  0  0  0  0  0  0  0
  -24.8829  -19.7357   19.5740 N   0  0  0  0  0  0  0  0  0  0  0  0
  -26.9921  -16.1337   21.2984 N   0  0  0  0  0  0  0  0  0  0  0  0
  -24.6689  -27.7309   20.4128 N   0  0  0  0  0  0  0  0  0  0  0  0
  -30.0341  -24.6935   20.1634 N   0  0  0  0  0  0  0  0  0  0  0  0
  -22.2431  -18.7594   14.0333 N   0  0  0  0  0  0  0  0  0  0  0  0
  -31.0193  -21.2155   20.1754 N   0  3  0  0  0  0  0  0  0  0  0  0
  -27.0167  -18.4234   21.1745 O   0  0  0  0  0  0  0  0  0  0  0  0
  -24.7412  -26.8919   18.2418 O   0  0  0  0  0  0  0  0  0  0  0  0
  -27.8340  -26.0834   21.3620 O   0  0  0  0  0  0  0  0  0  0  0  0
  -30.1587  -23.2092   18.3863 O   0  0  0  0  0  0  0  0  0  0  0  0
  -20.2174  -19.8226   14.1847 O   0  0  0  0  0  0  0  0  0  0  0  0
  -25.4978  -10.8089   20.6289 O   0  0  0  0  0  0  0  0  0  0  0  0
  -24.7246  -22.4714   14.3517 O   0  0  0  0  0  0  0  0  0  1  0  0
  -21.1962   -7.6727   22.0658 F   0  0  0  0  0  0  0  0  0  0  0  0
  -25.4448   -9.5042   23.0657 F   0  0  0  0  0  0  0  0  0  0  0  0
  -23.7676  -16.4311   12.5034 F   0  0  0  0  0  0  0  0  0  0  0  0
  -25.3718  -16.4039   11.0440 F   0  0  0  0  0  0  0  0  0  0  0  0
  -25.8365  -16.5384   13.1641 F   0  0  0  0  0  0  0  0  0  0  0  0
  1  2  1  0  0  0  0
  1  5  2  0  0  0  0
  2  6  2  0  0  0  0
  3  8  2  0  0  0  0
  3 15  1  0  0  0  0
  4  9  1  0  0  0  0
  4 15  2  0  0  0  0
  5 17  1  0  0  0  0
  6 19  1  0  0  0  0
  7 10  2  0  0  0  0
  7 18  1  0  0  0  0
  8 21  1  0  0  0  0
  9 21  2  0  0  0  0
 10 22  1  0  0  0  0
 11 12  2  0  0  0  0
 11 23  1  0  0  0  0
 12 24  1  0  0  0  0
 13 20  1  0  0  0  0
 13 22  2  0  0  0  0
 14 24  2  0  0  0  0
 14 25  1  0  0  0  0
 15 26  1  0  0  0  0
 16 26  1  0  0  0  0
 16 29  2  0  0  0  0
 16 30  1  0  0  0  0
 17 19  2  0  0  0  0
 17 35  1  0  0  0  0
 18 20  2  0  0  0  0
 18 36  1  0  0  0  0
 19 44  1  0  0  0  0
 20 37  1  0  0  0  0
 21 77  1  0  0  0  0
 22 78  1  0  0  0  0
 23 25  2  0  0  0  0
 23 77  1  0  0  0  0
 24 79  1  0  0  0  0
 25 80  1  0  0  0  0
 26 59  2  0  0  0  0
 27 28  2  0  0  0  0
 27 57  1  0  0  0  0
 27 60  1  0  0  0  0
 28 52  1  0  0  0  0
 28 62  1  0  0  0  0
 29 63  1  0  0  0  0
 29 66  1  0  0  0  0
 30 67  1  0  0  0  0
 30 72  2  0  0  0  0
 31 45  1  0  0  0  0
 31 68  1  0  0  0  0
 31 73  2  0  0  0  0
 32 55  1  0  0  0  0
 32 64  1  0  0  0  0
 32 74  2  0  0  0  0
 33 56  1  0  0  0  0
 33 69  1  0  0  0  0
 33 75  2  0  0  0  0
 34 65  1  0  0  0  0
 34 70  1  0  0  0  0
 34 76  2  0  0  0  0
 35 38  1  0  0  0  0
 36 45  1  0  0  0  0
 37 64  1  0  0  0  0
 38 40  1  0  0  0  0
 39 41  1  0  0  0  0
 39 42  1  0  0  0  0
 40 44  1  0  0  0  0
 41 46  1  0  0  0  0
 42 65  1  0  0  0  0
 43 46  1  0  0  0  0
 43 65  1  0  0  0  0
 44 68  1  0  0  0  0
 45 64  1  0  0  0  0
 46 63  1  0  0  0  0
 47 56  1  0  0  0  0
 48 58  1  0  0  0  0
 49 58  1  0  0  0  0
 50 58  1  0  0  0  0
 51 71  1  0  0  0  0
 52 70  1  0  0  0  0
 53 54  1  0  0  0  0
 53 62  1  0  0  0  0
 54 78  1  0  0  0  0
 55 58  1  0  0  0  0
 55 69  1  0  0  0  0
 56 71  1  0  0  0  0
 57 81  1  0  0  0  0
 57 82  1  0  0  0  0
 57 83  1  0  0  0  0
 59 63  1  0  0  0  0
 60 61  2  0  0  0  0
 61 62  1  0  0  0  0
M  CHG  1  71   1
M  ISO  4  34 100  54 101  70 100  78 101
M  END
> <Batch ID>
0059

> <Smiles>
CNC(C)C(=O)NC(C(=O)N1Cc2cc([101O:1][101CH2:1]Cn3nnc(C(F)(F)F)c3C[100NH:0][100C:0](=O)N3CCCC(n4nc(-c5ccc(Oc6ccc(F)cc6F)cc5)c(C(N)=O)c4N)C3)ccc2CC1C(=O)NC1CCCc2ccccc21)C(C)(C)C

> <Shape>
0.200

> <Color>
0.056

> <Negative vol penalty>
0.000

$$$$

  -OEChem-04052317533D

 83 91  0     1  0  0  0  0  0999 V2000
  -17.1639  -26.2182   21.3210 C   0  0  0  0  0  0  0  0  0  0  0  0
  -18.4471  -25.7211   21.1165 C   0  0  0  0  0  0  0  0  0  0  0  0
  -24.3758   -9.5807   22.1731 C   0  0  0  0  0  0  0  0  0  0  0  0
  -23.5760   -9.6672   19.8949 C   0  0  0  0  0  0  0  0  0  0  0  0
  -16.9885  -27.4808   21.8857 C   0  0  0  0  0  0  0  0  0  0  0  0
  -19.5557  -26.4870   21.4758 C   0  0  0  0  0  0  0  0  0  0  0  0
  -23.0727  -23.7861   23.9213 C   0  0  0  0  0  0  0  0  0  0  0  0
  -23.3125   -8.7452   22.5147 C   0  0  0  0  0  0  0  0  0  0  0  0
  -22.5127   -8.8316   20.2366 C   0  0  0  0  0  0  0  0  0  0  0  0
  -23.8970  -22.9676   23.1504 C   0  0  0  0  0  0  0  0  0  0  0  0
  -22.5119   -5.4755   22.1965 C   0  0  0  0  0  0  0  0  0  0  0  0
  -22.7928   -4.3562   22.9800 C   0  0  0  0  0  0  0  0  0  0  0  0
  -25.6374  -24.6350   23.2519 C   0  0  0  0  0  0  0  0  0  0  0  0
  -21.2931   -5.1754   24.6880 C   0  0  0  0  0  0  0  0  0  0  0  0
  -29.1064  -20.1129   20.7209 C   0  0  0  0  0  0  0  0  0  0  0  0
  -28.7622  -21.4655   18.8479 C   0  0  0  0  0  0  0  0  0  0  0  0
  -24.5076  -10.0418   20.8632 C   0  0  0  0  0  0  0  0  0  0  0  0
  -26.8777  -10.5175   20.0482 C   0  0  0  0  0  0  0  0  0  0  0  0
  -18.0953  -28.2585   22.2609 C   0  0  0  0  0  0  0  0  0  0  0  0
  -23.5214  -25.0419   24.3549 C   0  0  0  0  0  0  0  0  0  0  0  0
  -19.3949  -27.7617   22.0448 C   0  0  0  0  0  0  0  0  0  0  0  0
  -24.8178  -25.4664   24.0304 C   0  0  0  0  0  0  0  0  0  0  0  0
  -29.2849  -20.2978   19.3651 C   0  0  0  0  0  0  0  0  0  0  0  0
  -22.3809   -8.3706   21.5465 C   0  0  0  0  0  0  0  0  0  0  0  0
  -25.1785  -23.3932   22.8131 C   0  0  0  0  0  0  0  0  0  0  0  0
  -21.6217   -6.4449   22.6588 C   0  0  0  0  0  0  0  0  0  0  0  0
  -22.1834   -4.2061   24.2257 C   0  0  0  0  0  0  0  0  0  0  0  0
  -21.0123   -6.2948   23.9045 C   0  0  0  0  0  0  0  0  0  0  0  0
  -25.6055  -10.9054   20.5098 C   0  0  0  0  0  0  0  0  0  0  0  0
  -27.5488  -11.7005   19.8566 C   0  0  0  0  0  0  0  0  0  0  0  0
  -28.0044  -22.0932   20.8970 C   0  0  0  0  0  0  0  0  0  0  0  0
  -27.4055   -9.2053   19.8136 C   0  0  0  0  0  0  0  0  0  0  0  0
  -22.5899  -28.0436   23.8793 C   0  0  0  0  0  0  0  0  0  0  0  0
  -24.8788  -28.6921   26.0845 C   0  0  0  0  0  0  0  0  0  0  0  0
  -27.7623  -27.7306   27.6360 C   0  0  0  0  0  0  0  0  0  0  0  0
  -27.8896  -16.7563   18.0447 C   0  0  0  0  0  0  0  0  0  0  0  0
  -17.8564  -29.6370   22.8242 C   0  0  0  0  0  0  0  0  0  0  0  0
  -22.6297  -25.9016   25.2083 C   0  0  0  0  0  0  0  0  0  0  0  0
  -25.3543  -26.7972   24.4881 C   0  0  0  0  0  0  0  0  0  0  0  0
  -19.0777  -30.2297   23.5224 C   0  0  0  0  0  0  0  0  0  0  0  0
  -26.3826  -16.4196   21.2208 C   0  0  0  0  0  0  0  0  0  0  0  0
  -20.3262  -30.0403   22.6666 C   0  0  0  0  0  0  0  0  0  0  0  0
  -26.1382  -14.9125   21.2816 C   0  0  0  0  0  0  0  0  0  0  0  0
  -26.1012  -16.9917   19.8302 C   0  0  0  0  0  0  0  0  0  0  0  0
  -26.5834  -14.7934   18.8018 C   0  0  0  0  0  0  0  0  0  0  0  0
  -20.6220  -28.5522   22.4442 C   0  0  1  0  0  0  0  0  0  0  0  0
  -23.0032  -27.3800   25.1625 C   0  0  1  0  0  0  0  0  0  0  0  0
  -26.9164  -14.1838   20.1722 C   0  0  2  0  0  0  0  0  0  0  0  0
  -29.4134  -28.4858   29.3684 C   0  0  0  0  0  0  0  0  0  0  0  0
  -30.5220  -18.0271   19.2651 C   0  0  0  0  0  0  0  0  0  0  0  0
  -31.2676  -19.9381   17.8694 C   0  0  0  0  0  0  0  0  0  0  0  0
  -26.0652  -30.6708   24.0877 C   0  0  0  0  0  0  0  0  0  0  0  0
  -28.1699  -30.6702   25.4436 C   0  0  0  0  0  0  0  0  0  0  0  0
  -26.0357  -31.4708   26.4570 C   0  0  0  0  0  0  0  0  0  0  0  0
  -26.6673  -18.9400   17.6674 C   0  0  0  0  0  0  0  0  0  0  0  0
  -27.2180  -25.3784   29.3477 C   0  0  0  0  0  0  0  0  0  0  0  0
  -27.2858  -23.0954   21.7518 C   0  0  0  0  0  0  0  0  0  1  0  0
  -29.1054  -18.7778   17.3281 C   0  0  0  0  0  0  0  0  0  0  0  0
  -26.3560  -28.9989   26.0335 C   0  0  1  0  0  0  0  0  0  0  0  0
  -28.1492  -27.6831   29.1032 C   0  0  2  0  0  0  0  0  0  0  0  0
  -29.9901  -19.3048   18.5190 C   0  0  0  0  0  0  0  0  0  0  0  0
  -26.6462  -30.4284   25.4951 C   0  0  0  0  0  0  0  0  0  0  0  0
  -28.4687  -20.9933   21.5200 N   0  0  0  0  0  0  0  0  0  0  0  0
  -28.1134  -22.3887   19.5877 N   0  0  0  0  0  0  0  0  0  0  0  0
  -25.4739  -12.2311   20.6058 N   0  0  0  0  0  0  0  0  0  0  0  0
  -26.6721  -12.6866   20.2020 N   0  0  0  0  0  0  0  0  0  0  0  0
  -24.4421  -27.6044   25.3150 N   0  0  0  0  0  0  0  0  0  0  0  0
  -26.8255  -16.2382   18.7975 N   0  0  0  0  0  0  0  0  0  0  0  0
  -28.7974  -11.9830   19.4282 N   0  0  0  0  0  0  0  0  0  0  0  0
  -26.5812   -8.0993   20.0618 N   0  0  0  0  0  0  0  0  0  0  0  0
  -21.2337  -27.9769   23.6229 N   0  0  0  0  0  0  0  0  0  0  0  0
  -26.8711  -28.7500   27.3756 N   0  0  0  0  0  0  0  0  0  0  0  0
  -27.8816  -18.1352   17.7858 N   0  0  0  0  0  0  0  0  0  0  0  0
  -28.3879  -26.2755   29.5306 N   0  3  0  0  0  0  0  0  0  0  0  0
  -28.5790   -9.0184   19.4118 O   0  0  0  0  0  0  0  0  0  0  0  0
  -23.4383  -28.5779   23.1749 O   0  0  0  0  0  0  0  0  0  0  0  0
  -24.1406  -29.3874   26.7869 O   0  0  0  0  0  0  0  0  0  0  0  0
  -28.2091  -26.9445   26.8036 O   0  0  0  0  0  0  0  0  0  0  0  0
  -28.7943  -16.0265   17.6194 O   0  0  0  0  0  0  0  0  0  0  0  0
  -21.3433   -7.5551   21.8794 O   0  0  0  0  0  0  0  0  0  0  0  0
  -25.9849  -22.5965   22.0602 O   0  0  0  0  0  0  0  0  0  1  0  0
  -22.4521   -3.1304   24.9773 F   0  0  0  0  0  0  0  0  0  0  0  0
  -20.1553   -7.2220   24.3534 F   0  0  0  0  0  0  0  0  0  0  0  0
  1  2  1  0  0  0  0
  1  5  2  0  0  0  0
  2  6  2  0  0  0  0
  3  8  2  0  0  0  0
  3 17  1  0  0  0  0
  4  9  1  0  0  0  0
  4 17  2  0  0  0  0
  5 19  1  0  0  0  0
  6 21  1  0  0  0  0
  7 10  2  0  0  0  0
  7 20  1  0  0  0  0
  8 24  1  0  0  0  0
  9 24  2  0  0  0  0
 10 25  1  0  0  0  0
 11 12  2  0  0  0  0
 11 26  1  0  0  0  0
 12 27  1  0  0  0  0
 13 22  1  0  0  0  0
 13 25  2  0  0  0  0
 14 27  2  0  0  0  0
 14 28  1  0  0  0  0
 15 23  1  0  0  0  0
 15 63  2  0  0  0  0
 16 23  2  0  0  0  0
 16 64  1  0  0  0  0
 17 29  1  0  0  0  0
 18 29  1  0  0  0  0
 18 30  2  0  0  0  0
 18 32  1  0  0  0  0
 19 21  2  0  0  0  0
 19 37  1  0  0  0  0
 20 22  2  0  0  0  0
 20 38  1  0  0  0  0
 21 46  1  0  0  0  0
 22 39  1  0  0  0  0
 23 61  1  0  0  0  0
 24 80  1  0  0  0  0
 25 81  1  0  0  0  0
 26 28  2  0  0  0  0
 26 80  1  0  0  0  0
 27 82  1  0  0  0  0
 28 83  1  0  0  0  0
 29 65  2  0  0  0  0
 30 66  1  0  0  0  0
 30 69  1  0  0  0  0
 31 57  1  0  0  0  0
 31 63  1  0  0  0  0
 31 64  2  0  0  0  0
 32 70  1  0  0  0  0
 32 75  2  0  0  0  0
 33 47  1  0  0  0  0
 33 71  1  0  0  0  0
 33 76  2  0  0  0  0
 34 59  1  0  0  0  0
 34 67  1  0  0  0  0
 34 77  2  0  0  0  0
 35 60  1  0  0  0  0
 35 72  1  0  0  0  0
 35 78  2  0  0  0  0
 36 68  1  0  0  0  0
 36 73  1  0  0  0  0
 36 79  2  0  0  0  0
 37 40  1  0  0  0  0
 38 47  1  0  0  0  0
 39 67  1  0  0  0  0
 40 42  1  0  0  0  0
 41 43  1  0  0  0  0
 41 44  1  0  0  0  0
 42 46  1  0  0  0  0
 43 48  1  0  0  0  0
 44 68  1  0  0  0  0
 45 48  1  0  0  0  0
 45 68  1  0  0  0  0
 46 71  1  0  0  0  0
 47 67  1  0  0  0  0
 48 66  1  0  0  0  0
 49 60  1  0  0  0  0
 50 61  1  0  0  0  0
 51 61  1  0  0  0  0
 52 62  1  0  0  0  0
 53 62  1  0  0  0  0
 54 62  1  0  0  0  0
 55 73  1  0  0  0  0
 56 74  1  0  0  0  0
 57 81  1  0  0  0  0
 58 61  1  0  0  0  0
 58 73  1  0  0  0  0
 59 62  1  0  0  0  0
 59 72  1  0  0  0  0
 60 74  1  0  0  0  0
 65 66  1  0  0  0  0
M  CHG  1  74   1
M  ISO  4  36 100  57 101  73 100  81 101
M  END
> <Batch ID>
0059

> <Smiles>
CNC(C)C(=O)NC(C(=O)N1Cc2cc([101O:1][101CH2:1]c3ncc(C(C)(C)C[100N:0](C)[100C:0](=O)N4CCCC(n5nc(-c6ccc(Oc7ccc(F)cc7F)cc6)c(C(N)=O)c5N)C4)cn3)ccc2CC1C(=O)NC1CCCc2ccccc21)C(C)(C)C

> <Shape>
0.265

> <Color>
0.100

> <Negative vol penalty>
0.000

$$$$

  -OEChem-04052317533D

 82 90  0     1  0  0  0  0  0999 V2000
  -18.2563  -28.5506   23.8764 C   0  0  0  0  0  0  0  0  0  0  0  0
  -18.9708  -27.3644   23.7426 C   0  0  0  0  0  0  0  0  0  0  0  0
  -23.1394   -9.8454   19.9217 C   0  0  0  0  0  0  0  0  0  0  0  0
  -23.9151   -9.8485   22.2097 C   0  0  0  0  0  0  0  0  0  0  0  0
  -18.3277  -29.5224   22.8792 C   0  0  0  0  0  0  0  0  0  0  0  0
  -19.7563  -27.1489   22.6108 C   0  0  0  0  0  0  0  0  0  0  0  0
  -25.0784  -24.1306   22.3437 C   0  0  0  0  0  0  0  0  0  0  0  0
  -22.4200   -8.6758   20.1671 C   0  0  0  0  0  0  0  0  0  0  0  0
  -23.1957   -8.6790   22.4552 C   0  0  0  0  0  0  0  0  0  0  0  0
  -25.3995  -22.8268   21.9684 C   0  0  0  0  0  0  0  0  0  0  0  0
  -19.9881   -7.8129   23.0732 C   0  0  0  0  0  0  0  0  0  0  0  0
  -19.2403   -7.7485   24.2489 C   0  0  0  0  0  0  0  0  0  0  0  0
  -25.9376  -23.6046   19.7492 C   0  0  0  0  0  0  0  0  0  0  0  0
  -20.5246   -5.8299   24.9607 C   0  0  0  0  0  0  0  0  0  0  0  0
  -23.8870  -10.4317   20.9430 C   0  0  0  0  0  0  0  0  0  0  0  0
  -24.1783  -12.9640   20.8416 C   0  0  0  0  0  0  0  0  0  0  0  0
  -19.1221  -29.3227   21.7392 C   0  0  0  0  0  0  0  0  0  0  0  0
  -25.1742  -25.1812   21.4199 C   0  0  0  0  0  0  0  0  0  0  0  0
  -19.8374  -28.1184   21.5968 C   0  0  0  0  0  0  0  0  0  0  0  0
  -25.6196  -24.9212   20.1160 C   0  0  0  0  0  0  0  0  0  0  0  0
  -22.4482   -8.0926   21.4339 C   0  0  0  0  0  0  0  0  0  0  0  0
  -25.8264  -22.5632   20.6702 C   0  0  0  0  0  0  0  0  0  0  0  0
  -21.0041   -6.8858   22.8412 C   0  0  0  0  0  0  0  0  0  0  0  0
  -19.5086   -6.7570   25.1926 C   0  0  0  0  0  0  0  0  0  0  0  0
  -21.2724   -5.8943   23.7849 C   0  0  0  0  0  0  0  0  0  0  0  0
  -24.6307  -11.6396   20.6899 C   0  0  0  0  0  0  0  0  0  0  0  0
  -25.2530  -13.7378   20.4771 C   0  0  0  0  0  0  0  0  0  0  0  0
  -26.2297  -17.6532   17.8727 C   0  0  0  0  0  0  0  0  0  0  0  0
  -28.1410  -17.8301   19.0357 C   0  0  0  0  0  0  0  0  0  0  0  0
  -26.8383  -19.6331   18.7369 C   0  0  0  0  0  0  0  0  0  0  0  0
  -22.9010  -13.4513   21.2735 C   0  0  0  0  0  0  0  0  0  0  0  0
  -23.1151  -27.2354   20.1375 C   0  0  0  0  0  0  0  0  0  0  0  0
  -25.8012  -28.5288   18.8590 C   0  0  0  0  0  0  0  0  0  0  0  0
  -29.0434  -28.0986   17.8845 C   0  0  0  0  0  0  0  0  0  0  0  0
  -30.8481  -14.5556   21.0626 C   0  0  0  0  0  0  0  0  0  0  0  0
  -19.1306  -30.3821   20.6657 C   0  0  0  0  0  0  0  0  0  0  0  0
  -24.8497  -26.5862   21.8480 C   0  0  0  0  0  0  0  0  0  0  0  0
  -25.7589  -26.0170   19.0922 C   0  0  0  0  0  0  0  0  0  0  0  0
  -20.2814  -30.2347   19.6736 C   0  0  0  0  0  0  0  0  0  0  0  0
  -29.6088  -12.5091   18.2382 C   0  0  0  0  0  0  0  0  0  0  0  0
  -20.4083  -28.7856   19.2146 C   0  0  0  0  0  0  0  0  0  0  0  0
  -28.1898  -12.1556   18.6804 C   0  0  0  0  0  0  0  0  0  0  0  0
  -30.5353  -12.7316   19.4296 C   0  0  0  0  0  0  0  0  0  0  0  0
  -28.6161  -13.3881   20.8437 C   0  0  0  0  0  0  0  0  0  0  0  0
  -20.7201  -27.8582   20.3954 C   0  0  1  0  0  0  0  0  0  0  0  0
  -24.4915  -27.4992   20.6795 C   0  0  1  0  0  0  0  0  0  0  0  0
  -27.6458  -13.2032   19.6674 C   0  0  2  0  0  0  0  0  0  0  0  0
  -25.2633  -16.8260   17.0952 C   0  0  0  0  0  0  0  0  0  0  0  0
  -30.9660  -29.3273   16.8399 C   0  0  0  0  0  0  0  0  0  0  0  0
  -24.4621  -28.2968   16.1272 C   0  0  0  0  0  0  0  0  0  0  0  0
  -26.7102  -28.6241   15.0749 C   0  0  0  0  0  0  0  0  0  0  0  0
  -25.7246  -30.4244   16.4927 C   0  0  0  0  0  0  0  0  0  0  0  0
  -31.2309  -16.7515   22.1167 C   0  0  0  0  0  0  0  0  0  0  0  0
  -30.7429  -27.7084   20.2758 C   0  0  0  0  0  0  0  0  0  0  0  0
  -29.3736  -17.2066   19.5965 C   0  0  0  0  0  0  0  0  0  0  0  0
  -26.5704  -21.0932   18.9551 C   0  0  0  0  0  0  0  0  0  1  0  0
  -29.1266  -16.4009   20.8778 C   0  0  0  0  0  0  0  0  0  0  0  0
  -26.5899  -28.3171   17.5894 C   0  0  1  0  0  0  0  0  0  0  0  0
  -30.2906  -28.9248   18.1417 C   0  0  2  0  0  0  0  0  0  0  0  0
  -25.8673  -28.8944   16.3395 C   0  0  0  0  0  0  0  0  0  0  0  0
  -25.8942  -11.5721   20.2622 N   0  0  0  0  0  0  0  0  0  0  0  0
  -27.3172  -17.0240   18.3471 N   0  0  0  0  0  0  0  0  0  0  0  0
  -25.9242  -18.9516   18.0275 N   0  0  0  0  0  0  0  0  0  0  0  0
  -27.9677  -19.1408   19.2707 N   0  0  0  0  0  0  0  0  0  0  0  0
  -26.2450  -12.8638   20.1419 N   0  0  0  0  0  0  0  0  0  0  0  0
  -25.4237  -27.3731   19.5573 N   0  0  0  0  0  0  0  0  0  0  0  0
  -29.9742  -13.6992   20.3730 N   0  0  0  0  0  0  0  0  0  0  0  0
  -25.4367  -15.0737   20.4137 N   0  0  0  0  0  0  0  0  0  0  0  0
  -21.9095  -12.5197   21.6101 N   0  0  0  0  0  0  0  0  0  0  0  0
  -22.1166  -27.9584   20.7617 N   0  0  0  0  0  0  0  0  0  0  0  0
  -27.9120  -28.8848   17.8306 N   0  0  0  0  0  0  0  0  0  0  0  0
  -30.3586  -15.8236   21.4110 N   0  0  0  0  0  0  0  0  0  0  0  0
  -31.2670  -28.1487   18.9574 N   0  3  0  0  0  0  0  0  0  0  0  0
  -22.6410  -14.6765   21.3427 O   0  0  0  0  0  0  0  0  0  0  0  0
  -22.9701  -26.4362   19.2199 O   0  0  0  0  0  0  0  0  0  0  0  0
  -25.5361  -29.6777   19.2218 O   0  0  0  0  0  0  0  0  0  0  0  0
  -29.0706  -26.8782   17.7417 O   0  0  0  0  0  0  0  0  0  0  0  0
  -32.0034  -14.2104   21.3420 O   0  0  0  0  0  0  0  0  0  0  0  0
  -21.7462   -6.9515   21.6738 O   0  0  0  0  0  0  0  0  0  0  0  0
  -26.1398  -21.2914   20.3011 O   0  0  0  0  0  0  0  0  0  1  0  0
  -18.7914   -6.6963   26.3223 F   0  0  0  0  0  0  0  0  0  0  0  0
  -22.2480   -5.0015   23.5681 F   0  0  0  0  0  0  0  0  0  0  0  0
  1  2  1  0  0  0  0
  1  5  2  0  0  0  0
  2  6  2  0  0  0  0
  3  8  2  0  0  0  0
  3 15  1  0  0  0  0
  4  9  1  0  0  0  0
  4 15  2  0  0  0  0
  5 17  1  0  0  0  0
  6 19  1  0  0  0  0
  7 10  2  0  0  0  0
  7 18  1  0  0  0  0
  8 21  1  0  0  0  0
  9 21  2  0  0  0  0
 10 22  1  0  0  0  0
 11 12  2  0  0  0  0
 11 23  1  0  0  0  0
 12 24  1  0  0  0  0
 13 20  1  0  0  0  0
 13 22  2  0  0  0  0
 14 24  2  0  0  0  0
 14 25  1  0  0  0  0
 15 26  1  0  0  0  0
 16 26  1  0  0  0  0
 16 27  2  0  0  0  0
 16 31  1  0  0  0  0
 17 19  2  0  0  0  0
 17 36  1  0  0  0  0
 18 20  2  0  0  0  0
 18 37  1  0  0  0  0
 19 45  1  0  0  0  0
 20 38  1  0  0  0  0
 21 79  1  0  0  0  0
 22 80  1  0  0  0  0
 23 25  2  0  0  0  0
 23 79  1  0  0  0  0
 24 81  1  0  0  0  0
 25 82  1  0  0  0  0
 26 61  2  0  0  0  0
 27 65  1  0  0  0  0
 27 68  1  0  0  0  0
 28 48  1  0  0  0  0
 28 62  1  0  0  0  0
 28 63  2  0  0  0  0
 29 55  1  0  0  0  0
 29 62  2  0  0  0  0
 29 64  1  0  0  0  0
 30 56  1  0  0  0  0
 30 63  1  0  0  0  0
 30 64  2  0  0  0  0
 31 69  1  0  0  0  0
 31 74  2  0  0  0  0
 32 46  1  0  0  0  0
 32 70  1  0  0  0  0
 32 75  2  0  0  0  0
 33 58  1  0  0  0  0
 33 66  1  0  0  0  0
 33 76  2  0  0  0  0
 34 59  1  0  0  0  0
 34 71  1  0  0  0  0
 34 77  2  0  0  0  0
 35 67  1  0  0  0  0
 35 72  1  0  0  0  0
 35 78  2  0  0  0  0
 36 39  1  0  0  0  0
 37 46  1  0  0  0  0
 38 66  1  0  0  0  0
 39 41  1  0  0  0  0
 40 42  1  0  0  0  0
 40 43  1  0  0  0  0
 41 45  1  0  0  0  0
 42 47  1  0  0  0  0
 43 67  1  0  0  0  0
 44 47  1  0  0  0  0
 44 67  1  0  0  0  0
 45 70  1  0  0  0  0
 46 66  1  0  0  0  0
 47 65  1  0  0  0  0
 49 59  1  0  0  0  0
 50 60  1  0  0  0  0
 51 60  1  0  0  0  0
 52 60  1  0  0  0  0
 53 72  1  0  0  0  0
 54 73  1  0  0  0  0
 55 57  1  0  0  0  0
 56 80  1  0  0  0  0
 57 72  1  0  0  0  0
 58 60  1  0  0  0  0
 58 71  1  0  0  0  0
 59 73  1  0  0  0  0
 61 65  1  0  0  0  0
M  CHG  1  73   1
M  ISO  4  35 100  56 101  72 100  80 101
M  END
> <Batch ID>
0059

> <Smiles>
CNC(C)C(=O)NC(C(=O)N1Cc2cc([101O:1][101CH2:1]c3nc(C)nc(CC[100N:0](C)[100C:0](=O)N4CCCC(n5nc(-c6ccc(Oc7ccc(F)cc7F)cc6)c(C(N)=O)c5N)C4)n3)ccc2CC1C(=O)NC1CCCc2ccccc21)C(C)(C)C

> <Shape>
0.281

> <Color>
0.188

> <Negative vol penalty>
0.000

$$$$

  -OEChem-04052317533D

 85 93  0     1  0  0  0  0  0999 V2000
  -31.2849  -23.7759   18.0425 C   0  0  0  0  0  0  0  0  0  0  0  0
  -30.0509  -23.6651   18.6753 C   0  0  0  0  0  0  0  0  0  0  0  0
  -26.0548  -14.3512   19.6322 C   0  0  0  0  0  0  0  0  0  0  0  0
  -24.7832  -14.2537   21.6842 C   0  0  0  0  0  0  0  0  0  0  0  0
  -32.1757  -24.7779   18.4249 C   0  0  0  0  0  0  0  0  0  0  0  0
  -29.7075  -24.5559   19.6917 C   0  0  0  0  0  0  0  0  0  0  0  0
  -24.9749  -26.2980   19.2309 C   0  0  0  0  0  0  0  0  0  0  0  0
  -26.1270  -12.9584   19.6107 C   0  0  0  0  0  0  0  0  0  0  0  0
  -24.8553  -12.8609   21.6626 C   0  0  0  0  0  0  0  0  0  0  0  0
  -23.9428  -25.4517   19.6337 C   0  0  0  0  0  0  0  0  0  0  0  0
  -23.3159  -10.3131   20.0628 C   0  0  0  0  0  0  0  0  0  0  0  0
  -22.1474   -9.6009   20.3330 C   0  0  0  0  0  0  0  0  0  0  0  0
  -23.7854  -26.6477   21.7227 C   0  0  0  0  0  0  0  0  0  0  0  0
  -23.2232   -8.5542   22.2262 C   0  0  0  0  0  0  0  0  0  0  0  0
  -25.3830  -14.9989   20.6690 C   0  0  0  0  0  0  0  0  0  0  0  0
  -24.3125  -17.2468   20.1134 C   0  0  0  0  0  0  0  0  0  0  0  0
  -31.8391  -25.6874   19.4399 C   0  0  0  0  0  0  0  0  0  0  0  0
  -25.4281  -27.3204   20.0769 C   0  0  0  0  0  0  0  0  0  0  0  0
  -30.5952  -25.5702   20.0890 C   0  0  0  0  0  0  0  0  0  0  0  0
  -24.8217  -27.5073   21.3273 C   0  0  0  0  0  0  0  0  0  0  0  0
  -25.5272  -12.2132   20.6259 C   0  0  0  0  0  0  0  0  0  0  0  0
  -23.3498  -25.6246   20.8809 C   0  0  0  0  0  0  0  0  0  0  0  0
  -24.4381  -10.1458   20.8742 C   0  0  0  0  0  0  0  0  0  0  0  0
  -22.1010   -8.7215   21.4147 C   0  0  0  0  0  0  0  0  0  0  0  0
  -24.3917   -9.2663   21.9559 C   0  0  0  0  0  0  0  0  0  0  0  0
  -25.3086  -16.4376   20.6921 C   0  0  0  0  0  0  0  0  0  0  0  0
  -24.6963  -18.5310   20.4133 C   0  0  0  0  0  0  0  0  0  0  0  0
  -24.1345  -22.3983   24.4231 C   0  0  0  0  0  0  0  0  0  0  0  0
  -22.0957  -22.8401   24.3525 C   0  0  0  0  0  0  0  0  0  0  0  0
  -23.1447  -16.8711   19.3713 C   0  0  0  0  0  0  0  0  0  0  0  0
  -28.1918  -28.0007   21.4923 C   0  0  0  0  0  0  0  0  0  0  0  0
  -26.6363  -30.7139   22.3534 C   0  0  0  0  0  0  0  0  0  0  0  0
  -23.6659  -32.2893   22.9380 C   0  0  0  0  0  0  0  0  0  0  0  0
  -28.3743  -20.4514   24.9214 C   0  0  0  0  0  0  0  0  0  0  0  0
  -32.8540  -26.7244   19.8513 C   0  0  0  0  0  0  0  0  0  0  0  0
  -26.5244  -28.2418   19.6167 C   0  0  0  0  0  0  0  0  0  0  0  0
  -25.2579  -28.6026   22.2645 C   0  0  0  0  0  0  0  0  0  0  0  0
  -32.2616  -27.8611   20.6804 C   0  0  0  0  0  0  0  0  0  0  0  0
  -28.5711  -21.1838   21.2983 C   0  0  0  0  0  0  0  0  0  0  0  0
  -31.3572  -27.3070   21.7767 C   0  0  0  0  0  0  0  0  0  0  0  0
  -27.7256  -20.0681   20.6865 C   0  0  0  0  0  0  0  0  0  0  0  0
  -29.2063  -20.7556   22.6177 C   0  0  0  0  0  0  0  0  0  0  0  0
  -27.3847  -19.1293   23.0067 C   0  0  0  0  0  0  0  0  0  0  0  0
  -30.1762  -26.5328   21.1789 C   0  0  1  0  0  0  0  0  0  0  0  0
  -27.2536  -28.9253   20.7693 C   0  0  1  0  0  0  0  0  0  0  0  0
  -26.6928  -19.5441   21.6995 C   0  0  2  0  0  0  0  0  0  0  0  0
  -22.7157  -34.4948   23.6661 C   0  0  0  0  0  0  0  0  0  0  0  0
  -20.4587  -23.4798   26.1571 C   0  0  0  0  0  0  0  0  0  0  0  0
  -19.7095  -22.0409   24.2324 C   0  0  0  0  0  0  0  0  0  0  0  0
  -20.1404  -24.4665   23.8973 C   0  0  0  0  0  0  0  0  0  0  0  0
  -27.4048  -30.0894   25.2395 C   0  0  0  0  0  0  0  0  0  0  0  0
  -25.6743  -31.7385   25.9837 C   0  0  0  0  0  0  0  0  0  0  0  0
  -27.6081  -32.4996   24.6040 C   0  0  0  0  0  0  0  0  0  0  0  0
  -27.3295  -20.7979   27.1277 C   0  0  0  0  0  0  0  0  0  0  0  0
  -22.2236  -32.6445   20.3782 C   0  0  0  0  0  0  0  0  0  0  0  0
  -25.4818  -22.1819   24.9634 C   0  0  0  0  0  0  0  0  0  0  0  0
  -21.7809  -22.5119   21.8088 C   0  0  0  0  0  0  0  0  0  0  0  0
  -25.8659  -20.6984   25.1444 C   0  0  0  0  0  0  0  0  0  0  0  0
  -22.3578  -23.4660   20.7688 C   0  0  0  0  0  0  0  0  0  1  0  0
  -25.7786  -31.1287   23.5244 C   0  0  1  0  0  0  0  0  0  0  0  0
  -23.1332  -33.6359   22.4826 C   0  0  2  0  0  0  0  0  0  0  0  0
  -20.6926  -23.1924   24.6350 C   0  0  0  0  0  0  0  0  0  0  0  0
  -26.6093  -31.3421   24.8213 C   0  0  0  0  0  0  0  0  0  0  0  0
  -26.2542  -17.1483   21.3124 N   0  0  0  0  0  0  0  0  0  0  0  0
  -23.0817  -22.7569   25.2152 N   0  0  0  0  0  0  0  0  0  0  0  0
  -23.8620  -22.2544   23.1244 N   0  0  0  0  0  0  0  0  0  0  0  0
  -25.8540  -18.4175   21.1253 N   0  0  0  0  0  0  0  0  0  0  0  0
  -22.5518  -22.5426   23.1062 N   0  0  0  0  0  0  0  0  0  0  0  0
  -26.3377  -29.4736   21.7717 N   0  0  0  0  0  0  0  0  0  0  0  0
  -28.2088  -20.2216   23.5456 N   0  0  0  0  0  0  0  0  0  0  0  0
  -24.1530  -19.7350   20.1347 N   0  0  0  0  0  0  0  0  0  0  0  0
  -22.9007  -15.5081   19.1545 N   0  0  0  0  0  0  0  0  0  0  0  0
  -29.1691  -27.4482   20.6866 N   0  0  0  0  0  0  0  0  0  0  0  0
  -25.0363  -32.3069   23.0896 N   0  0  0  0  0  0  0  0  0  0  0  0
  -27.2099  -20.5488   25.6982 N   0  0  0  0  0  0  0  0  0  0  0  0
  -21.9503  -33.4517   21.5951 N   0  3  0  0  0  0  0  0  0  0  0  0
  -22.3501  -17.7196   18.9000 O   0  0  0  0  0  0  0  0  0  0  0  0
  -28.0411  -27.8044   22.6924 O   0  0  0  0  0  0  0  0  0  0  0  0
  -27.5334  -31.4660   21.9645 O   0  0  0  0  0  0  0  0  0  0  0  0
  -22.9387  -31.3198   23.1425 O   0  0  0  0  0  0  0  0  0  0  0  0
  -29.4984  -20.5725   25.4249 O   0  0  0  0  0  0  0  0  0  0  0  0
  -25.5972  -10.8541   20.6050 O   0  0  0  0  0  0  0  0  0  0  0  0
  -22.3427  -24.7995   21.2768 O   0  0  0  0  0  0  0  0  0  1  0  0
  -20.9783   -8.0388   21.6750 F   0  0  0  0  0  0  0  0  0  0  0  0
  -25.4662   -9.1023   22.7397 F   0  0  0  0  0  0  0  0  0  0  0  0
  1  2  1  0  0  0  0
  1  5  2  0  0  0  0
  2  6  2  0  0  0  0
  3  8  2  0  0  0  0
  3 15  1  0  0  0  0
  4  9  1  0  0  0  0
  4 15  2  0  0  0  0
  5 17  1  0  0  0  0
  6 19  1  0  0  0  0
  7 10  2  0  0  0  0
  7 18  1  0  0  0  0
  8 21  1  0  0  0  0
  9 21  2  0  0  0  0
 10 22  1  0  0  0  0
 11 12  2  0  0  0  0
 11 23  1  0  0  0  0
 12 24  1  0  0  0  0
 13 20  1  0  0  0  0
 13 22  2  0  0  0  0
 14 24  2  0  0  0  0
 14 25  1  0  0  0  0
 15 26  1  0  0  0  0
 16 26  1  0  0  0  0
 16 27  2  0  0  0  0
 16 30  1  0  0  0  0
 17 19  2  0  0  0  0
 17 35  1  0  0  0  0
 18 20  2  0  0  0  0
 18 36  1  0  0  0  0
 19 44  1  0  0  0  0
 20 37  1  0  0  0  0
 21 82  1  0  0  0  0
 22 83  1  0  0  0  0
 23 25  2  0  0  0  0
 23 82  1  0  0  0  0
 24 84  1  0  0  0  0
 25 85  1  0  0  0  0
 26 64  2  0  0  0  0
 27 67  1  0  0  0  0
 27 71  1  0  0  0  0
 28 56  1  0  0  0  0
 28 65  1  0  0  0  0
 28 66  2  0  0  0  0
 29 62  1  0  0  0  0
 29 65  2  0  0  0  0
 29 68  1  0  0  0  0
 30 72  1  0  0  0  0
 30 77  2  0  0  0  0
 31 45  1  0  0  0  0
 31 73  1  0  0  0  0
 31 78  2  0  0  0  0
 32 60  1  0  0  0  0
 32 69  1  0  0  0  0
 32 79  2  0  0  0  0
 33 61  1  0  0  0  0
 33 74  1  0  0  0  0
 33 80  2  0  0  0  0
 34 70  1  0  0  0  0
 34 75  1  0  0  0  0
 34 81  2  0  0  0  0
 35 38  1  0  0  0  0
 36 45  1  0  0  0  0
 37 69  1  0  0  0  0
 38 40  1  0  0  0  0
 39 41  1  0  0  0  0
 39 42  1  0  0  0  0
 40 44  1  0  0  0  0
 41 46  1  0  0  0  0
 42 70  1  0  0  0  0
 43 46  1  0  0  0  0
 43 70  1  0  0  0  0
 44 73  1  0  0  0  0
 45 69  1  0  0  0  0
 46 67  1  0  0  0  0
 47 61  1  0  0  0  0
 48 62  1  0  0  0  0
 49 62  1  0  0  0  0
 50 62  1  0  0  0  0
 51 63  1  0  0  0  0
 52 63  1  0  0  0  0
 53 63  1  0  0  0  0
 54 75  1  0  0  0  0
 55 76  1  0  0  0  0
 56 58  1  0  0  0  0
 57 59  1  0  0  0  0
 57 68  1  0  0  0  0
 58 75  1  0  0  0  0
 59 83  1  0  0  0  0
 60 63  1  0  0  0  0
 60 74  1  0  0  0  0
 61 76  1  0  0  0  0
 64 67  1  0  0  0  0
 66 68  1  0  0  0  0
M  CHG  1  76   1
M  ISO  4  34 100  59 101  75 100  83 101
M  END
> <Batch ID>
0059

> <Smiles>
CNC(C)C(=O)NC(C(=O)N1Cc2cc([101O:1][101CH2:1]Cn3nc(CC[100N:0](C)[100C:0](=O)N4CCCC(n5nc(-c6ccc(Oc7ccc(F)cc7F)cc6)c(C(N)=O)c5N)C4)nc3C(C)(C)C)ccc2CC1C(=O)NC1CCCc2ccccc21)C(C)(C)C

> <Shape>
0.234

> <Color>
0.066

> <Negative vol penalty>
0.000

$$$$

  -OEChem-04052317533D

 81 89  0     1  0  0  0  0  0999 V2000
  -30.8499  -10.7174   18.7004 C   0  0  0  0  0  0  0  0  0  0  0  0
  -30.6425  -12.0840   18.5434 C   0  0  0  0  0  0  0  0  0  0  0  0
  -23.2685  -25.3167   22.9995 C   0  0  0  0  0  0  0  0  0  0  0  0
  -23.5309  -24.9407   20.6274 C   0  0  0  0  0  0  0  0  0  0  0  0
  -29.8188   -9.9068   19.1735 C   0  0  0  0  0  0  0  0  0  0  0  0
  -29.4035  -12.6408   18.8583 C   0  0  0  0  0  0  0  0  0  0  0  0
  -29.8205  -16.9286   21.5201 C   0  0  0  0  0  0  0  0  0  0  0  0
  -21.9251  -25.6346   22.8006 C   0  0  0  0  0  0  0  0  0  0  0  0
  -22.1874  -25.2586   20.4285 C   0  0  0  0  0  0  0  0  0  0  0  0
  -30.1532  -18.0852   20.8163 C   0  0  0  0  0  0  0  0  0  0  0  0
  -20.1262  -28.2869   21.7264 C   0  0  0  0  0  0  0  0  0  0  0  0
  -19.6230  -29.4107   22.3817 C   0  0  0  0  0  0  0  0  0  0  0  0
  -27.8330  -18.7457   20.8168 C   0  0  0  0  0  0  0  0  0  0  0  0
  -18.0121  -28.0214   23.5272 C   0  0  0  0  0  0  0  0  0  0  0  0
  -24.0715  -24.9698   21.9130 C   0  0  0  0  0  0  0  0  0  0  0  0
  -26.0028  -23.3697   22.3793 C   0  0  0  0  0  0  0  0  0  0  0  0
  -28.5695  -10.4554   19.5035 C   0  0  0  0  0  0  0  0  0  0  0  0
  -28.4878  -16.6661   21.8687 C   0  0  0  0  0  0  0  0  0  0  0  0
  -28.3543  -11.8366   19.3349 C   0  0  0  0  0  0  0  0  0  0  0  0
  -27.4864  -17.5863   21.5273 C   0  0  0  0  0  0  0  0  0  0  0  0
  -21.3845  -25.6056   21.5151 C   0  0  0  0  0  0  0  0  0  0  0  0
  -29.1590  -18.9925   20.4620 C   0  0  0  0  0  0  0  0  0  0  0  0
  -19.5723  -27.0303   21.9714 C   0  0  0  0  0  0  0  0  0  0  0  0
  -18.5660  -29.2780   23.2821 C   0  0  0  0  0  0  0  0  0  0  0  0
  -18.5153  -26.8976   22.8718 C   0  0  0  0  0  0  0  0  0  0  0  0
  -25.4595  -24.6418   22.1178 C   0  0  0  0  0  0  0  0  0  0  0  0
  -27.3537  -23.5901   22.4929 C   0  0  0  0  0  0  0  0  0  0  0  0
  -28.9613  -22.1691   18.6683 C   0  0  0  0  0  0  0  0  0  0  0  0
  -29.9167  -23.2424   17.1542 C   0  0  0  0  0  0  0  0  0  0  0  0
  -25.3452  -22.1022   22.5079 C   0  0  0  0  0  0  0  0  0  0  0  0
  -26.3976  -14.3741   21.1749 C   0  0  0  0  0  0  0  0  0  0  0  0
  -24.5611  -15.9288   23.3504 C   0  0  0  0  0  0  0  0  0  0  0  0
  -23.2521  -18.9058   24.9129 C   0  0  0  0  0  0  0  0  0  0  0  0
  -30.6515  -28.2508   20.2700 C   0  0  0  0  0  0  0  0  0  0  0  0
  -27.4706   -9.5320   19.9664 C   0  0  0  0  0  0  0  0  0  0  0  0
  -28.1490  -15.4271   22.6513 C   0  0  0  0  0  0  0  0  0  0  0  0
  -26.0434  -17.3610   21.8954 C   0  0  0  0  0  0  0  0  0  0  0  0
  -26.3049  -10.2584   20.6326 C   0  0  0  0  0  0  0  0  0  0  0  0
  -30.5210  -26.9470   23.7318 C   0  0  0  0  0  0  0  0  0  0  0  0
  -25.8864  -11.4687   19.8039 C   0  0  0  0  0  0  0  0  0  0  0  0
  -29.2120  -26.1593   23.7420 C   0  0  0  0  0  0  0  0  0  0  0  0
  -30.4844  -28.0948   22.7275 C   0  0  0  0  0  0  0  0  0  0  0  0
  -28.8198  -26.8867   21.3550 C   0  0  0  0  0  0  0  0  0  0  0  0
  -27.0320  -12.4816   19.6893 C   0  0  1  0  0  0  0  0  0  0  0  0
  -26.6892  -15.0087   22.5053 C   0  0  1  0  0  0  0  0  0  0  0  0
  -28.8405  -25.6943   22.3232 C   0  0  2  0  0  0  0  0  0  0  0  0
  -30.6392  -23.6946   15.9518 C   0  0  0  0  0  0  0  0  0  0  0  0
  -21.7045  -19.1754   26.8699 C   0  0  0  0  0  0  0  0  0  0  0  0
  -22.3694  -16.0457   21.2308 C   0  0  0  0  0  0  0  0  0  0  0  0
  -21.2327  -17.8044   22.6031 C   0  0  0  0  0  0  0  0  0  0  0  0
  -21.5624  -15.5152   23.5378 C   0  0  0  0  0  0  0  0  0  0  0  0
  -31.4026  -28.0555   17.9296 C   0  0  0  0  0  0  0  0  0  0  0  0
  -25.1727  -20.6476   26.3400 C   0  0  0  0  0  0  0  0  0  0  0  0
  -28.4123  -21.0079   19.4438 C   0  0  0  0  0  0  0  0  0  1  0  0
  -29.5811  -25.5290   18.1653 C   0  0  0  0  0  0  0  0  0  0  0  0
  -30.6876  -26.0063   19.1023 C   0  0  0  0  0  0  0  0  0  0  0  0
  -23.5546  -17.0524   23.2919 C   0  0  1  0  0  0  0  0  0  0  0  0
  -23.1517  -19.1812   26.4024 C   0  0  2  0  0  0  0  0  0  0  0  0
  -22.2066  -16.6080   22.6571 C   0  0  0  0  0  0  0  0  0  0  0  0
  -26.3893  -25.5994   22.0683 N   0  0  0  0  0  0  0  0  0  0  0  0
  -29.6104  -22.0075   17.4778 N   0  0  0  0  0  0  0  0  0  0  0  0
  -28.8466  -23.4263   19.1016 N   0  0  0  0  0  0  0  0  0  0  0  0
  -27.5306  -24.9287   22.3004 N   0  0  0  0  0  0  0  0  0  0  0  0
  -29.4658  -24.0926   18.1152 N   0  0  0  0  0  0  0  0  0  0  0  0
  -25.7616  -16.1318   22.6551 N   0  0  0  0  0  0  0  0  0  0  0  0
  -30.0868  -27.6321   21.3974 N   0  0  0  0  0  0  0  0  0  0  0  0
  -28.3957  -22.7675   22.7378 N   0  0  0  0  0  0  0  0  0  0  0  0
  -23.9520  -22.0545   22.3621 N   0  0  0  0  0  0  0  0  0  0  0  0
  -27.1533  -13.2477   20.9111 N   0  0  0  0  0  0  0  0  0  0  0  0
  -23.4343  -17.5640   24.6528 N   0  0  0  0  0  0  0  0  0  0  0  0
  -30.8111  -27.4622   19.1204 N   0  0  0  0  0  0  0  0  0  0  0  0
  -23.7443  -20.5101   26.7246 N   0  3  0  0  0  0  0  0  0  0  0  0
  -25.9725  -21.0459   22.7613 O   0  0  0  0  0  0  0  0  0  0  0  0
  -25.5486  -14.8688   20.4427 O   0  0  0  0  0  0  0  0  0  0  0  0
  -24.2950  -14.9115   23.9954 O   0  0  0  0  0  0  0  0  0  0  0  0
  -23.1729  -19.7918   24.0648 O   0  0  0  0  0  0  0  0  0  0  0  0
  -31.0022  -29.4375   20.2927 O   0  0  0  0  0  0  0  0  0  0  0  0
  -20.0735  -25.9155   21.3206 O   0  0  0  0  0  0  0  0  0  0  0  0
  -29.4809  -20.1219   19.7744 O   0  0  0  0  0  0  0  0  0  1  0  0
  -18.0839  -30.3570   23.9125 F   0  0  0  0  0  0  0  0  0  0  0  0
  -17.9798  -25.6929   23.1121 F   0  0  0  0  0  0  0  0  0  0  0  0
  1  2  1  0  0  0  0
  1  5  2  0  0  0  0
  2  6  2  0  0  0  0
  3  8  2  0  0  0  0
  3 15  1  0  0  0  0
  4  9  1  0  0  0  0
  4 15  2  0  0  0  0
  5 17  1  0  0  0  0
  6 19  1  0  0  0  0
  7 10  2  0  0  0  0
  7 18  1  0  0  0  0
  8 21  1  0  0  0  0
  9 21  2  0  0  0  0
 10 22  1  0  0  0  0
 11 12  2  0  0  0  0
 11 23  1  0  0  0  0
 12 24  1  0  0  0  0
 13 20  1  0  0  0  0
 13 22  2  0  0  0  0
 14 24  2  0  0  0  0
 14 25  1  0  0  0  0
 15 26  1  0  0  0  0
 16 26  1  0  0  0  0
 16 27  2  0  0  0  0
 16 30  1  0  0  0  0
 17 19  2  0  0  0  0
 17 35  1  0  0  0  0
 18 20  2  0  0  0  0
 18 36  1  0  0  0  0
 19 44  1  0  0  0  0
 20 37  1  0  0  0  0
 21 78  1  0  0  0  0
 22 79  1  0  0  0  0
 23 25  2  0  0  0  0
 23 78  1  0  0  0  0
 24 80  1  0  0  0  0
 25 81  1  0  0  0  0
 26 60  2  0  0  0  0
 27 63  1  0  0  0  0
 27 67  1  0  0  0  0
 28 54  1  0  0  0  0
 28 61  1  0  0  0  0
 28 62  2  0  0  0  0
 29 47  1  0  0  0  0
 29 61  2  0  0  0  0
 29 64  1  0  0  0  0
 30 68  1  0  0  0  0
 30 73  2  0  0  0  0
 31 45  1  0  0  0  0
 31 69  1  0  0  0  0
 31 74  2  0  0  0  0
 32 57  1  0  0  0  0
 32 65  1  0  0  0  0
 32 75  2  0  0  0  0
 33 58  1  0  0  0  0
 33 70  1  0  0  0  0
 33 76  2  0  0  0  0
 34 66  1  0  0  0  0
 34 71  1  0  0  0  0
 34 77  2  0  0  0  0
 35 38  1  0  0  0  0
 36 45  1  0  0  0  0
 37 65  1  0  0  0  0
 38 40  1  0  0  0  0
 39 41  1  0  0  0  0
 39 42  1  0  0  0  0
 40 44  1  0  0  0  0
 41 46  1  0  0  0  0
 42 66  1  0  0  0  0
 43 46  1  0  0  0  0
 43 66  1  0  0  0  0
 44 69  1  0  0  0  0
 45 65  1  0  0  0  0
 46 63  1  0  0  0  0
 48 58  1  0  0  0  0
 49 59  1  0  0  0  0
 50 59  1  0  0  0  0
 51 59  1  0  0  0  0
 52 71  1  0  0  0  0
 53 72  1  0  0  0  0
 54 79  1  0  0  0  0
 55 56  1  0  0  0  0
 55 64  1  0  0  0  0
 56 71  1  0  0  0  0
 57 59  1  0  0  0  0
 57 70  1  0  0  0  0
 58 72  1  0  0  0  0
 60 63  1  0  0  0  0
 62 64  1  0  0  0  0
M  CHG  1  72   1
M  ISO  4  34 100  54 101  71 100  79 101
M  END
> <Batch ID>
0059

> <Smiles>
CNC(C)C(=O)NC(C(=O)N1Cc2cc([101O:1][101CH2:1]c3nc(C)n(CC[100N:0](C)[100C:0](=O)N4CCCC(n5nc(-c6ccc(Oc7ccc(F)cc7F)cc6)c(C(N)=O)c5N)C4)n3)ccc2CC1C(=O)NC1CCCc2ccccc21)C(C)(C)C

> <Shape>
0.215

> <Color>
0.065

> <Negative vol penalty>
0.000

$$$$

  -OEChem-04052317533D

 85 93  0     1  0  0  0  0  0999 V2000
  -22.1121  -31.4200   18.2296 C   0  0  0  0  0  0  0  0  0  0  0  0
  -22.8996  -30.3434   17.8341 C   0  0  0  0  0  0  0  0  0  0  0  0
  -23.9040   -9.9076   22.1266 C   0  0  0  0  0  0  0  0  0  0  0  0
  -22.2198  -10.4143   20.4702 C   0  0  0  0  0  0  0  0  0  0  0  0
  -22.3223  -32.0166   19.4721 C   0  0  0  0  0  0  0  0  0  0  0  0
  -23.8985  -29.8636   18.6805 C   0  0  0  0  0  0  0  0  0  0  0  0
  -25.6901  -24.0436   19.3319 C   0  0  0  0  0  0  0  0  0  0  0  0
  -23.4422   -8.5932   22.1941 C   0  0  0  0  0  0  0  0  0  0  0  0
  -21.7580   -9.0998   20.5376 C   0  0  0  0  0  0  0  0  0  0  0  0
  -26.7581  -23.3254   18.7960 C   0  0  0  0  0  0  0  0  0  0  0  0
  -23.7311   -5.7552   20.3787 C   0  0  0  0  0  0  0  0  0  0  0  0
  -24.6806   -4.7334   20.3723 C   0  0  0  0  0  0  0  0  0  0  0  0
  -28.0403  -23.7532   20.7940 C   0  0  0  0  0  0  0  0  0  0  0  0
  -23.8901   -3.9854   22.5294 C   0  0  0  0  0  0  0  0  0  0  0  0
  -27.0804  -17.9288   21.8447 C   0  0  0  0  0  0  0  0  0  0  0  0
  -23.2927  -10.8182   21.2647 C   0  0  0  0  0  0  0  0  0  0  0  0
  -24.7638  -12.6855   20.3388 C   0  0  0  0  0  0  0  0  0  0  0  0
  -23.3179  -31.5377   20.3382 C   0  0  0  0  0  0  0  0  0  0  0  0
  -25.7932  -24.6322   20.6005 C   0  0  0  0  0  0  0  0  0  0  0  0
  -24.1231  -30.4552   19.9352 C   0  0  0  0  0  0  0  0  0  0  0  0
  -26.9712  -24.4761   21.3448 C   0  0  0  0  0  0  0  0  0  0  0  0
  -22.3692   -8.1892   21.3996 C   0  0  0  0  0  0  0  0  0  0  0  0
  -27.9345  -23.1826   19.5259 C   0  0  0  0  0  0  0  0  0  0  0  0
  -22.8612   -5.8922   21.4605 C   0  0  0  0  0  0  0  0  0  0  0  0
  -24.7601   -3.8485   21.4476 C   0  0  0  0  0  0  0  0  0  0  0  0
  -22.9407   -5.0072   22.5358 C   0  0  0  0  0  0  0  0  0  0  0  0
  -23.7689  -12.1763   21.1949 C   0  0  0  0  0  0  0  0  0  0  0  0
  -26.5723  -18.9241   21.0393 C   0  0  0  0  0  0  0  0  0  0  0  0
  -29.0492  -17.9938   20.6834 C   0  0  0  0  0  0  0  0  0  0  0  0
  -28.5411  -18.9886   19.8774 C   0  0  0  0  0  0  0  0  0  0  0  0
  -24.8457  -14.0179   20.6619 C   0  0  0  0  0  0  0  0  0  0  0  0
  -25.5439  -12.0140   19.3408 C   0  0  0  0  0  0  0  0  0  0  0  0
  -25.6750  -27.6092   21.7084 C   0  0  0  0  0  0  0  0  0  0  0  0
  -25.8023  -26.1268   24.5909 C   0  0  0  0  0  0  0  0  0  0  0  0
  -26.6969  -23.3714   26.3948 C   0  0  0  0  0  0  0  0  0  0  0  0
  -21.9114  -18.7809   21.6720 C   0  0  0  0  0  0  0  0  0  0  0  0
  -23.5392  -32.2452   21.6516 C   0  0  0  0  0  0  0  0  0  0  0  0
  -24.6224  -25.3811   21.1755 C   0  0  0  0  0  0  0  0  0  0  0  0
  -27.1252  -25.0714   22.7198 C   0  0  0  0  0  0  0  0  0  0  0  0
  -24.3697  -31.4379   22.6460 C   0  0  0  0  0  0  0  0  0  0  0  0
  -22.8748  -16.6167   24.5163 C   0  0  0  0  0  0  0  0  0  0  0  0
  -25.6004  -30.8514   21.9616 C   0  0  0  0  0  0  0  0  0  0  0  0
  -23.2043  -15.2921   23.8302 C   0  0  0  0  0  0  0  0  0  0  0  0
  -21.8436  -17.4212   23.7307 C   0  0  0  0  0  0  0  0  0  0  0  0
  -22.5496  -16.3348   21.6246 C   0  0  0  0  0  0  0  0  0  0  0  0
  -25.2001  -29.8903   20.8358 C   0  0  1  0  0  0  0  0  0  0  0  0
  -25.0235  -26.3737   22.2624 C   0  0  1  0  0  0  0  0  0  0  0  0
  -23.6203  -15.5209   22.3667 C   0  0  2  0  0  0  0  0  0  0  0  0
  -30.6740  -16.1757   21.2675 C   0  0  0  0  0  0  0  0  0  0  0  0
  -26.7096  -22.4685   28.7362 C   0  0  0  0  0  0  0  0  0  0  0  0
  -28.1822  -27.9136   25.2644 C   0  0  0  0  0  0  0  0  0  0  0  0
  -28.7278  -26.3581   27.1488 C   0  0  0  0  0  0  0  0  0  0  0  0
  -26.5581  -27.5890   27.1383 C   0  0  0  0  0  0  0  0  0  0  0  0
  -22.4890  -20.4565   19.9579 C   0  0  0  0  0  0  0  0  0  0  0  0
  -24.9466  -21.1029   25.6535 C   0  0  0  0  0  0  0  0  0  0  0  0
  -25.1897  -19.4340   21.2497 C   0  0  0  0  0  0  0  0  0  0  0  0
  -30.4309  -17.4682   20.4919 C   0  0  0  0  0  0  0  0  0  0  0  0
  -29.3586  -19.5924   18.7636 C   0  0  0  0  0  0  0  0  0  0  0  0
  -30.4220  -20.5812   19.2463 C   0  0  0  0  0  0  0  0  0  0  0  0
  -24.1236  -18.6752   20.4483 C   0  0  0  0  0  0  0  0  0  0  0  0
  -29.8365  -21.8125   19.9278 C   0  0  0  0  0  0  0  0  0  1  0  0
  -26.9089  -25.6817   25.5162 C   0  0  1  0  0  0  0  0  0  0  0  0
  -25.9410  -22.5540   27.4267 C   0  0  2  0  0  0  0  0  0  0  0  0
  -27.5924  -26.8759   26.2402 C   0  0  0  0  0  0  0  0  0  0  0  0
  -28.3280  -17.4458   21.6813 N   0  0  0  0  0  0  0  0  0  0  0  0
  -23.2558  -13.1093   22.0014 N   0  0  0  0  0  0  0  0  0  0  0  0
  -27.2936  -19.4718   20.0411 N   0  0  0  0  0  0  0  0  0  0  0  0
  -23.9309  -14.2180   21.6534 N   0  0  0  0  0  0  0  0  0  0  0  0
  -25.9547  -25.8000   23.2360 N   0  0  0  0  0  0  0  0  0  0  0  0
  -22.2432  -17.5867   22.3328 N   0  0  0  0  0  0  0  0  0  0  0  0
  -25.6104  -15.0261   20.1917 N   0  0  0  0  0  0  0  0  0  0  0  0
  -25.3325  -10.6435   19.1377 N   0  0  0  0  0  0  0  0  0  0  0  0
  -24.7863  -28.6159   21.3825 N   0  0  0  0  0  0  0  0  0  0  0  0
  -26.3176  -24.6969   26.4156 N   0  0  0  0  0  0  0  0  0  0  0  0
  -22.7840  -19.2178   20.6639 N   0  0  0  0  0  0  0  0  0  0  0  0
  -25.7125  -21.1695   26.9247 N   0  3  0  0  0  0  0  0  0  0  0  0
  -26.4147  -12.6082   18.6609 O   0  0  0  0  0  0  0  0  0  0  0  0
  -26.8938  -27.6469   21.5871 O   0  0  0  0  0  0  0  0  0  0  0  0
  -24.8347  -26.7357   25.0544 O   0  0  0  0  0  0  0  0  0  0  0  0
  -27.5421  -22.8836   25.6477 O   0  0  0  0  0  0  0  0  0  0  0  0
  -20.8983  -19.4251   21.9729 O   0  0  0  0  0  0  0  0  0  0  0  0
  -21.9185   -6.9066   21.4650 O   0  0  0  0  0  0  0  0  0  0  0  0
  -28.9788  -22.4826   19.0049 O   0  0  0  0  0  0  0  0  0  1  0  0
  -25.6709   -2.8664   21.4406 F   0  0  0  0  0  0  0  0  0  0  0  0
  -22.1068   -5.1331   23.5773 F   0  0  0  0  0  0  0  0  0  0  0  0
  1  2  1  0  0  0  0
  1  5  2  0  0  0  0
  2  6  2  0  0  0  0
  3  8  2  0  0  0  0
  3 16  1  0  0  0  0
  4  9  1  0  0  0  0
  4 16  2  0  0  0  0
  5 18  1  0  0  0  0
  6 20  1  0  0  0  0
  7 10  2  0  0  0  0
  7 19  1  0  0  0  0
  8 22  1  0  0  0  0
  9 22  2  0  0  0  0
 10 23  1  0  0  0  0
 11 12  2  0  0  0  0
 11 24  1  0  0  0  0
 12 25  1  0  0  0  0
 13 21  1  0  0  0  0
 13 23  2  0  0  0  0
 14 25  2  0  0  0  0
 14 26  1  0  0  0  0
 15 28  1  0  0  0  0
 15 65  2  0  0  0  0
 16 27  1  0  0  0  0
 17 27  1  0  0  0  0
 17 31  2  0  0  0  0
 17 32  1  0  0  0  0
 18 20  2  0  0  0  0
 18 37  1  0  0  0  0
 19 21  2  0  0  0  0
 19 38  1  0  0  0  0
 20 46  1  0  0  0  0
 21 39  1  0  0  0  0
 22 82  1  0  0  0  0
 23 83  1  0  0  0  0
 24 26  2  0  0  0  0
 24 82  1  0  0  0  0
 25 84  1  0  0  0  0
 26 85  1  0  0  0  0
 27 66  2  0  0  0  0
 28 56  1  0  0  0  0
 28 67  2  0  0  0  0
 29 30  2  0  0  0  0
 29 57  1  0  0  0  0
 29 65  1  0  0  0  0
 30 58  1  0  0  0  0
 30 67  1  0  0  0  0
 31 68  1  0  0  0  0
 31 71  1  0  0  0  0
 32 72  1  0  0  0  0
 32 77  2  0  0  0  0
 33 47  1  0  0  0  0
 33 73  1  0  0  0  0
 33 78  2  0  0  0  0
 34 62  1  0  0  0  0
 34 69  1  0  0  0  0
 34 79  2  0  0  0  0
 35 63  1  0  0  0  0
 35 74  1  0  0  0  0
 35 80  2  0  0  0  0
 36 70  1  0  0  0  0
 36 75  1  0  0  0  0
 36 81  2  0  0  0  0
 37 40  1  0  0  0  0
 38 47  1  0  0  0  0
 39 69  1  0  0  0  0
 40 42  1  0  0  0  0
 41 43  1  0  0  0  0
 41 44  1  0  0  0  0
 42 46  1  0  0  0  0
 43 48  1  0  0  0  0
 44 70  1  0  0  0  0
 45 48  1  0  0  0  0
 45 70  1  0  0  0  0
 46 73  1  0  0  0  0
 47 69  1  0  0  0  0
 48 68  1  0  0  0  0
 49 57  1  0  0  0  0
 50 63  1  0  0  0  0
 51 64  1  0  0  0  0
 52 64  1  0  0  0  0
 53 64  1  0  0  0  0
 54 75  1  0  0  0  0
 55 76  1  0  0  0  0
 56 60  1  0  0  0  0
 58 59  1  0  0  0  0
 59 61  1  0  0  0  0
 60 75  1  0  0  0  0
 61 83  1  0  0  0  0
 62 64  1  0  0  0  0
 62 74  1  0  0  0  0
 63 76  1  0  0  0  0
 66 68  1  0  0  0  0
M  CHG  1  76   1
M  ISO  4  36 100  61 101  75 100  83 101
M  END
> <Batch ID>
0059

> <Smiles>
CCc1ncc(CC[100N:0](C)[100C:0](=O)N2CCCC(n3nc(-c4ccc(Oc5ccc(F)cc5F)cc4)c(C(N)=O)c3N)C2)nc1CC[101CH2:1][101O:1]c1ccc2c(c1)CN(C(=O)C(NC(=O)C(C)NC)C(C)(C)C)C(C(=O)NC1CCCc3ccccc31)C2

> <Shape>
0.194

> <Color>
0.094

> <Negative vol penalty>
0.000

$$$$

  -OEChem-04052317533D

 83 91  0     1  0  0  0  0  0999 V2000
  -30.5831  -33.6883   13.8037 C   0  0  0  0  0  0  0  0  0  0  0  0
  -30.4687  -32.3377   14.1168 C   0  0  0  0  0  0  0  0  0  0  0  0
  -22.6011  -10.3508   21.8842 C   0  0  0  0  0  0  0  0  0  0  0  0
  -24.2204   -9.6560   20.2313 C   0  0  0  0  0  0  0  0  0  0  0  0
  -30.4612  -34.6482   14.8075 C   0  0  0  0  0  0  0  0  0  0  0  0
  -30.2335  -31.9460   15.4342 C   0  0  0  0  0  0  0  0  0  0  0  0
  -26.8893  -27.1725   17.3146 C   0  0  0  0  0  0  0  0  0  0  0  0
  -22.0846   -9.0557   21.9226 C   0  0  0  0  0  0  0  0  0  0  0  0
  -23.7039   -8.3608   20.2697 C   0  0  0  0  0  0  0  0  0  0  0  0
  -27.2376  -25.8853   17.7213 C   0  0  0  0  0  0  0  0  0  0  0  0
  -22.9046   -6.0874   23.3189 C   0  0  0  0  0  0  0  0  0  0  0  0
  -22.6429   -5.5308   24.5708 C   0  0  0  0  0  0  0  0  0  0  0  0
  -29.5169  -21.8555   19.6141 C   0  0  0  0  0  0  0  0  0  0  0  0
  -27.1766  -26.6026   20.0237 C   0  0  0  0  0  0  0  0  0  0  0  0
  -20.3138   -5.2886   23.9763 C   0  0  0  0  0  0  0  0  0  0  0  0
  -29.7414  -20.6174   20.1807 C   0  0  0  0  0  0  0  0  0  0  0  0
  -23.6690  -10.6510   21.0384 C   0  0  0  0  0  0  0  0  0  0  0  0
  -25.2392  -12.5150   21.7918 C   0  0  0  0  0  0  0  0  0  0  0  0
  -30.2148  -34.2686   16.1363 C   0  0  0  0  0  0  0  0  0  0  0  0
  -26.6923  -28.1889   18.2605 C   0  0  0  0  0  0  0  0  0  0  0  0
  -30.1096  -32.9016   16.4570 C   0  0  0  0  0  0  0  0  0  0  0  0
  -26.8233  -27.9013   19.6266 C   0  0  0  0  0  0  0  0  0  0  0  0
  -22.6360   -8.0607   21.1154 C   0  0  0  0  0  0  0  0  0  0  0  0
  -27.3842  -25.6009   19.0758 C   0  0  0  0  0  0  0  0  0  0  0  0
  -21.8709   -6.2447   22.3957 C   0  0  0  0  0  0  0  0  0  0  0  0
  -21.3475   -5.1314   24.8995 C   0  0  0  0  0  0  0  0  0  0  0  0
  -20.5755   -5.8453   22.7243 C   0  0  0  0  0  0  0  0  0  0  0  0
  -24.2026  -11.9888   20.9978 C   0  0  0  0  0  0  0  0  0  0  0  0
  -28.2552  -22.0529   19.0912 C   0  0  0  0  0  0  0  0  0  0  0  0
  -25.3681  -13.8158   21.3701 C   0  0  0  0  0  0  0  0  0  0  0  0
  -27.6222  -19.9546   19.6941 C   0  0  0  0  0  0  0  0  0  0  0  0
  -26.0160  -11.8844   22.8187 C   0  0  0  0  0  0  0  0  0  0  0  0
  -28.0829  -30.9801   18.8764 C   0  0  0  0  0  0  0  0  0  0  0  0
  -25.6648  -31.2699   21.0191 C   0  0  0  0  0  0  0  0  0  0  0  0
  -23.3387  -29.7336   22.9878 C   0  0  0  0  0  0  0  0  0  0  0  0
  -25.7580  -17.2619   16.8657 C   0  0  0  0  0  0  0  0  0  0  0  0
  -30.1376  -35.3400   17.1950 C   0  0  0  0  0  0  0  0  0  0  0  0
  -26.2907  -29.5657   17.8070 C   0  0  0  0  0  0  0  0  0  0  0  0
  -26.6030  -28.9521   20.6829 C   0  0  0  0  0  0  0  0  0  0  0  0
  -29.5157  -34.8595   18.5037 C   0  0  0  0  0  0  0  0  0  0  0  0
  -22.4368  -16.6299   18.3730 C   0  0  0  0  0  0  0  0  0  0  0  0
  -30.1151  -33.5199   18.9195 C   0  0  0  0  0  0  0  0  0  0  0  0
  -22.6797  -15.3663   19.1966 C   0  0  0  0  0  0  0  0  0  0  0  0
  -23.3714  -16.7112   17.1698 C   0  0  0  0  0  0  0  0  0  0  0  0
  -25.0566  -15.3328   18.3422 C   0  0  0  0  0  0  0  0  0  0  0  0
  -29.8299  -32.4385   17.8703 C   0  0  1  0  0  0  0  0  0  0  0  0
  -26.6178  -30.6504   18.8287 C   0  0  1  0  0  0  0  0  0  0  0  0
  -24.1626  -15.2433   19.5881 C   0  0  2  0  0  0  0  0  0  0  0  0
  -21.5314  -30.2319   24.6560 C   0  0  0  0  0  0  0  0  0  0  0  0
  -25.1931  -19.2914   19.0973 C   0  0  0  0  0  0  0  0  0  0  0  0
  -26.2295  -18.5282   21.2184 C   0  0  0  0  0  0  0  0  0  0  0  0
  -27.7826  -31.8175   23.1463 C   0  0  0  0  0  0  0  0  0  0  0  0
  -26.0465  -31.3631   24.8921 C   0  0  0  0  0  0  0  0  0  0  0  0
  -25.7479  -33.2631   23.3035 C   0  0  0  0  0  0  0  0  0  0  0  0
  -27.9536  -18.3831   16.9024 C   0  0  0  0  0  0  0  0  0  0  0  0
  -21.2595  -28.5079   21.2751 C   0  0  0  0  0  0  0  0  0  0  0  0
  -27.9167  -23.3681   18.4534 C   0  0  0  0  0  0  0  0  0  1  0  0
  -27.0223  -17.5673   19.0361 C   0  0  0  0  0  0  0  0  0  0  0  0
  -25.4693  -30.8932   22.4678 C   0  0  1  0  0  0  0  0  0  0  0  0
  -21.8573  -29.9971   23.1892 C   0  0  2  0  0  0  0  0  0  0  0  0
  -26.5704  -18.8987   19.7376 C   0  0  0  0  0  0  0  0  0  0  0  0
  -26.2677  -31.8147   23.4327 C   0  0  0  0  0  0  0  0  0  0  0  0
  -28.8132  -19.6399   20.2381 N   0  0  0  0  0  0  0  0  0  0  0  0
  -23.7081  -12.8824   20.1370 N   0  0  0  0  0  0  0  0  0  0  0  0
  -27.2800  -21.1207   19.1140 N   0  0  0  0  0  0  0  0  0  0  0  0
  -24.4370  -13.9832   20.3877 N   0  0  0  0  0  0  0  0  0  0  0  0
  -26.2180  -30.2845   20.1891 N   0  0  0  0  0  0  0  0  0  0  0  0
  -24.7708  -16.5481   17.5650 N   0  0  0  0  0  0  0  0  0  0  0  0
  -26.1860  -14.8213   21.7476 N   0  0  0  0  0  0  0  0  0  0  0  0
  -25.7532  -10.5425   23.1263 N   0  0  0  0  0  0  0  0  0  0  0  0
  -28.4668  -31.9668   17.9884 N   0  0  0  0  0  0  0  0  0  0  0  0
  -24.0287  -30.8918   22.6984 N   0  0  0  0  0  0  0  0  0  0  0  0
  -26.9070  -17.6319   17.5808 N   0  0  0  0  0  0  0  0  0  0  0  0
  -21.0549  -28.8365   22.7094 N   0  3  0  0  0  0  0  0  0  0  0  0
  -26.9055  -12.4975   23.4562 O   0  0  0  0  0  0  0  0  0  0  0  0
  -28.8110  -30.3845   19.6618 O   0  0  0  0  0  0  0  0  0  0  0  0
  -25.3322  -32.3944   20.6364 O   0  0  0  0  0  0  0  0  0  0  0  0
  -23.8348  -28.6131   23.0818 O   0  0  0  0  0  0  0  0  0  0  0  0
  -25.6158  -17.5600   15.6729 O   0  0  0  0  0  0  0  0  0  0  0  0
  -22.1324   -6.7968   21.1529 O   0  0  0  0  0  0  0  0  0  0  0  0
  -27.7248  -24.3454   19.4754 O   0  0  0  0  0  0  0  0  0  1  0  0
  -21.0967   -4.5954   26.1012 F   0  0  0  0  0  0  0  0  0  0  0  0
  -19.5785   -5.9928   21.8411 F   0  0  0  0  0  0  0  0  0  0  0  0
  1  2  1  0  0  0  0
  1  5  2  0  0  0  0
  2  6  2  0  0  0  0
  3  8  2  0  0  0  0
  3 17  1  0  0  0  0
  4  9  1  0  0  0  0
  4 17  2  0  0  0  0
  5 19  1  0  0  0  0
  6 21  1  0  0  0  0
  7 10  2  0  0  0  0
  7 20  1  0  0  0  0
  8 23  1  0  0  0  0
  9 23  2  0  0  0  0
 10 24  1  0  0  0  0
 11 12  2  0  0  0  0
 11 25  1  0  0  0  0
 12 26  1  0  0  0  0
 13 16  2  0  0  0  0
 13 29  1  0  0  0  0
 14 22  1  0  0  0  0
 14 24  2  0  0  0  0
 15 26  2  0  0  0  0
 15 27  1  0  0  0  0
 16 63  1  0  0  0  0
 17 28  1  0  0  0  0
 18 28  1  0  0  0  0
 18 30  2  0  0  0  0
 18 32  1  0  0  0  0
 19 21  2  0  0  0  0
 19 37  1  0  0  0  0
 20 22  2  0  0  0  0
 20 38  1  0  0  0  0
 21 46  1  0  0  0  0
 22 39  1  0  0  0  0
 23 80  1  0  0  0  0
 24 81  1  0  0  0  0
 25 27  2  0  0  0  0
 25 80  1  0  0  0  0
 26 82  1  0  0  0  0
 27 83  1  0  0  0  0
 28 64  2  0  0  0  0
 29 57  1  0  0  0  0
 29 65  2  0  0  0  0
 30 66  1  0  0  0  0
 30 69  1  0  0  0  0
 31 61  1  0  0  0  0
 31 63  2  0  0  0  0
 31 65  1  0  0  0  0
 32 70  1  0  0  0  0
 32 75  2  0  0  0  0
 33 47  1  0  0  0  0
 33 71  1  0  0  0  0
 33 76  2  0  0  0  0
 34 59  1  0  0  0  0
 34 67  1  0  0  0  0
 34 77  2  0  0  0  0
 35 60  1  0  0  0  0
 35 72  1  0  0  0  0
 35 78  2  0  0  0  0
 36 68  1  0  0  0  0
 36 73  1  0  0  0  0
 36 79  2  0  0  0  0
 37 40  1  0  0  0  0
 38 47  1  0  0  0  0
 39 67  1  0  0  0  0
 40 42  1  0  0  0  0
 41 43  1  0  0  0  0
 41 44  1  0  0  0  0
 42 46  1  0  0  0  0
 43 48  1  0  0  0  0
 44 68  1  0  0  0  0
 45 48  1  0  0  0  0
 45 68  1  0  0  0  0
 46 71  1  0  0  0  0
 47 67  1  0  0  0  0
 48 66  1  0  0  0  0
 49 60  1  0  0  0  0
 50 61  1  0  0  0  0
 51 61  1  0  0  0  0
 52 62  1  0  0  0  0
 53 62  1  0  0  0  0
 54 62  1  0  0  0  0
 55 73  1  0  0  0  0
 56 74  1  0  0  0  0
 57 81  1  0  0  0  0
 58 61  1  0  0  0  0
 58 73  1  0  0  0  0
 59 62  1  0  0  0  0
 59 72  1  0  0  0  0
 60 74  1  0  0  0  0
 64 66  1  0  0  0  0
M  CHG  1  74   1
M  ISO  4  36 100  57 101  73 100  81 101
M  END
> <Batch ID>
0059

> <Smiles>
CNC(C)C(=O)NC(C(=O)N1Cc2cc([101O:1][101CH2:1]c3ccnc(C(C)(C)C[100N:0](C)[100C:0](=O)N4CCCC(n5nc(-c6ccc(Oc7ccc(F)cc7F)cc6)c(C(N)=O)c5N)C4)n3)ccc2CC1C(=O)NC1CCCc2ccccc21)C(C)(C)C

> <Shape>
0.230

> <Color>
0.100

> <Negative vol penalty>
0.000

$$$$

  -OEChem-04052317533D

 82 90  0     1  0  0  0  0  0999 V2000
  -22.6246  -28.9215   21.7371 C   0  0  0  0  0  0  0  0  0  0  0  0
  -22.5594  -27.6167   21.2589 C   0  0  0  0  0  0  0  0  0  0  0  0
  -22.7170  -10.5115   21.4751 C   0  0  0  0  0  0  0  0  0  0  0  0
  -24.1373   -8.9831   20.2571 C   0  0  0  0  0  0  0  0  0  0  0  0
  -23.7809  -29.6763   21.5443 C   0  0  0  0  0  0  0  0  0  0  0  0
  -23.6501  -27.0663   20.5867 C   0  0  0  0  0  0  0  0  0  0  0  0
  -24.6936  -22.3511   22.1109 C   0  0  0  0  0  0  0  0  0  0  0  0
  -21.9956   -9.4332   21.9872 C   0  0  0  0  0  0  0  0  0  0  0  0
  -23.4160   -7.9046   20.7693 C   0  0  0  0  0  0  0  0  0  0  0  0
  -23.8835  -21.3288   21.6185 C   0  0  0  0  0  0  0  0  0  0  0  0
  -22.1753   -4.7325   22.0406 C   0  0  0  0  0  0  0  0  0  0  0  0
  -22.8957   -3.6386   22.5202 C   0  0  0  0  0  0  0  0  0  0  0  0
  -25.5757  -20.7809   19.9889 C   0  0  0  0  0  0  0  0  0  0  0  0
  -23.9818   -5.0643   24.1404 C   0  0  0  0  0  0  0  0  0  0  0  0
  -25.1576  -15.6133   22.0633 C   0  0  0  0  0  0  0  0  0  0  0  0
  -23.7878  -10.2865   20.6099 C   0  0  0  0  0  0  0  0  0  0  0  0
  -24.0382  -12.4555   19.2906 C   0  0  0  0  0  0  0  0  0  0  0  0
  -24.8899  -29.1316   20.8780 C   0  0  0  0  0  0  0  0  0  0  0  0
  -25.9484  -22.6034   21.5379 C   0  0  0  0  0  0  0  0  0  0  0  0
  -24.8218  -27.8150   20.3838 C   0  0  0  0  0  0  0  0  0  0  0  0
  -26.4009  -21.8053   20.4776 C   0  0  0  0  0  0  0  0  0  0  0  0
  -22.3451   -8.1297   21.6344 C   0  0  0  0  0  0  0  0  0  0  0  0
  -24.3233  -20.5454   20.5555 C   0  0  0  0  0  0  0  0  0  0  0  0
  -22.3582   -5.9923   22.6109 C   0  0  0  0  0  0  0  0  0  0  0  0
  -23.7990   -3.8045   23.5701 C   0  0  0  0  0  0  0  0  0  0  0  0
  -23.2614   -6.1582   23.6608 C   0  0  0  0  0  0  0  0  0  0  0  0
  -24.5329  -11.4001   20.0801 C   0  0  0  0  0  0  0  0  0  0  0  0
  -26.1500  -15.9928   22.9317 C   0  0  0  0  0  0  0  0  0  0  0  0
  -25.1344  -13.2471   19.0496 C   0  0  0  0  0  0  0  0  0  0  0  0
  -22.7068  -12.6985   18.8174 C   0  0  0  0  0  0  0  0  0  0  0  0
  -27.2734  -25.0723   20.0369 C   0  0  0  0  0  0  0  0  0  0  0  0
  -29.9384  -23.2285   20.1790 C   0  0  0  0  0  0  0  0  0  0  0  0
  -31.2906  -20.1060   20.4406 C   0  0  0  0  0  0  0  0  0  0  0  0
  -30.3433  -13.6153   22.2544 C   0  0  0  0  0  0  0  0  0  0  0  0
  -26.1006  -30.0022   20.6520 C   0  0  0  0  0  0  0  0  0  0  0  0
  -26.8215  -23.6926   22.0980 C   0  0  0  0  0  0  0  0  0  0  0  0
  -27.7484  -22.0223   19.8407 C   0  0  0  0  0  0  0  0  0  0  0  0
  -27.3499  -29.2179   20.2587 C   0  0  0  0  0  0  0  0  0  0  0  0
  -29.8900  -13.0496   18.6245 C   0  0  0  0  0  0  0  0  0  0  0  0
  -27.0203  -28.1983   19.1731 C   0  0  0  0  0  0  0  0  0  0  0  0
  -28.4378  -12.5829   18.5389 C   0  0  0  0  0  0  0  0  0  0  0  0
  -30.5199  -12.6996   19.9693 C   0  0  0  0  0  0  0  0  0  0  0  0
  -28.2994  -12.7315   21.0567 C   0  0  0  0  0  0  0  0  0  0  0  0
  -25.9933  -27.1743   19.6715 C   0  0  1  0  0  0  0  0  0  0  0  0
  -27.8639  -24.1937   21.1032 C   0  0  1  0  0  0  0  0  0  0  0  0
  -27.6210  -13.1099   19.7316 C   0  0  2  0  0  0  0  0  0  0  0  0
  -33.4977  -18.9129   20.4899 C   0  0  0  0  0  0  0  0  0  0  0  0
  -30.2014  -23.5953   17.1613 C   0  0  0  0  0  0  0  0  0  0  0  0
  -31.7981  -21.6671   17.1362 C   0  0  0  0  0  0  0  0  0  0  0  0
  -32.3579  -23.7310   18.4205 C   0  0  0  0  0  0  0  0  0  0  0  0
  -30.3332  -15.1162   24.2106 C   0  0  0  0  0  0  0  0  0  0  0  0
  -30.7869  -19.0433   23.1565 C   0  0  0  0  0  0  0  0  0  0  0  0
  -27.3218  -15.2329   23.3858 C   0  0  0  0  0  0  0  0  0  0  0  0
  -23.3251  -17.1820   19.7299 C   0  0  0  0  0  0  0  0  0  0  0  0
  -23.0797  -16.8727   21.2084 C   0  0  0  0  0  0  0  0  0  0  0  0
  -28.5756  -15.4085   22.5044 C   0  0  0  0  0  0  0  0  0  0  0  0
  -24.1929  -18.4150   19.5066 C   0  0  0  0  0  0  0  0  0  1  0  0
  -30.5612  -22.1792   19.2900 C   0  0  1  0  0  0  0  0  0  0  0  0
  -32.4001  -19.5592   21.3207 C   0  0  2  0  0  0  0  0  0  0  0  0
  -31.2034  -22.7901   18.0125 C   0  0  0  0  0  0  0  0  0  0  0  0
  -25.8416  -11.5085   20.3243 N   0  0  0  0  0  0  0  0  0  0  0  0
  -25.9165  -17.2676   23.3675 N   0  0  0  0  0  0  0  0  0  0  0  0
  -24.7985  -17.6972   22.7926 N   0  0  0  0  0  0  0  0  0  0  0  0
  -24.3449  -16.7037   22.0111 N   0  0  0  0  0  0  0  0  0  0  0  0
  -26.1785  -12.6412   19.6844 N   0  0  0  0  0  0  0  0  0  0  0  0
  -28.5628  -23.1035   20.4196 N   0  0  0  0  0  0  0  0  0  0  0  0
  -29.7014  -13.1744   21.0855 N   0  0  0  0  0  0  0  0  0  0  0  0
  -25.2975  -14.3954   18.3588 N   0  0  0  0  0  0  0  0  0  0  0  0
  -22.3302  -12.1637   17.5779 N   0  0  0  0  0  0  0  0  0  0  0  0
  -26.6301  -26.1939   20.5244 N   0  0  0  0  0  0  0  0  0  0  0  0
  -31.4930  -21.4339   20.1293 N   0  0  0  0  0  0  0  0  0  0  0  0
  -29.7015  -14.6179   22.9971 N   0  0  0  0  0  0  0  0  0  0  0  0
  -31.8593  -18.5377   22.2613 N   0  3  0  0  0  0  0  0  0  0  0  0
  -21.8808  -13.3838   19.4668 O   0  0  0  0  0  0  0  0  0  0  0  0
  -27.3937  -24.7567   18.8589 O   0  0  0  0  0  0  0  0  0  0  0  0
  -30.6478  -24.1217   20.6485 O   0  0  0  0  0  0  0  0  0  0  0  0
  -30.3413  -19.4223   20.0637 O   0  0  0  0  0  0  0  0  0  0  0  0
  -31.4327  -13.1467   22.6086 O   0  0  0  0  0  0  0  0  0  0  0  0
  -21.6416   -7.0772   22.1341 O   0  0  0  0  0  0  0  0  0  0  0  0
  -23.5343  -19.5474   20.0725 O   0  0  0  0  0  0  0  0  0  1  0  0
  -24.4896   -2.7536   24.0316 F   0  0  0  0  0  0  0  0  0  0  0  0
  -23.4405   -7.3658   24.2134 F   0  0  0  0  0  0  0  0  0  0  0  0
  1  2  1  0  0  0  0
  1  5  2  0  0  0  0
  2  6  2  0  0  0  0
  3  8  2  0  0  0  0
  3 16  1  0  0  0  0
  4  9  1  0  0  0  0
  4 16  2  0  0  0  0
  5 18  1  0  0  0  0
  6 20  1  0  0  0  0
  7 10  2  0  0  0  0
  7 19  1  0  0  0  0
  8 22  1  0  0  0  0
  9 22  2  0  0  0  0
 10 23  1  0  0  0  0
 11 12  2  0  0  0  0
 11 24  1  0  0  0  0
 12 25  1  0  0  0  0
 13 21  1  0  0  0  0
 13 23  2  0  0  0  0
 14 25  2  0  0  0  0
 14 26  1  0  0  0  0
 15 28  2  0  0  0  0
 15 64  1  0  0  0  0
 16 27  1  0  0  0  0
 17 27  1  0  0  0  0
 17 29  2  0  0  0  0
 17 30  1  0  0  0  0
 18 20  2  0  0  0  0
 18 35  1  0  0  0  0
 19 21  2  0  0  0  0
 19 36  1  0  0  0  0
 20 44  1  0  0  0  0
 21 37  1  0  0  0  0
 22 79  1  0  0  0  0
 23 80  1  0  0  0  0
 24 26  2  0  0  0  0
 24 79  1  0  0  0  0
 25 81  1  0  0  0  0
 26 82  1  0  0  0  0
 27 61  2  0  0  0  0
 28 53  1  0  0  0  0
 28 62  1  0  0  0  0
 29 65  1  0  0  0  0
 29 68  1  0  0  0  0
 30 69  1  0  0  0  0
 30 74  2  0  0  0  0
 31 45  1  0  0  0  0
 31 70  1  0  0  0  0
 31 75  2  0  0  0  0
 32 58  1  0  0  0  0
 32 66  1  0  0  0  0
 32 76  2  0  0  0  0
 33 59  1  0  0  0  0
 33 71  1  0  0  0  0
 33 77  2  0  0  0  0
 34 67  1  0  0  0  0
 34 72  1  0  0  0  0
 34 78  2  0  0  0  0
 35 38  1  0  0  0  0
 36 45  1  0  0  0  0
 37 66  1  0  0  0  0
 38 40  1  0  0  0  0
 39 41  1  0  0  0  0
 39 42  1  0  0  0  0
 40 44  1  0  0  0  0
 41 46  1  0  0  0  0
 42 67  1  0  0  0  0
 43 46  1  0  0  0  0
 43 67  1  0  0  0  0
 44 70  1  0  0  0  0
 45 66  1  0  0  0  0
 46 65  1  0  0  0  0
 47 59  1  0  0  0  0
 48 60  1  0  0  0  0
 49 60  1  0  0  0  0
 50 60  1  0  0  0  0
 51 72  1  0  0  0  0
 52 73  1  0  0  0  0
 53 56  1  0  0  0  0
 54 55  1  0  0  0  0
 54 57  1  0  0  0  0
 55 64  1  0  0  0  0
 56 72  1  0  0  0  0
 57 80  1  0  0  0  0
 58 60  1  0  0  0  0
 58 71  1  0  0  0  0
 59 73  1  0  0  0  0
 61 65  1  0  0  0  0
 62 63  2  0  0  0  0
 63 64  1  0  0  0  0
M  CHG  1  73   1
M  ISO  4  34 100  57 101  72 100  80 101
M  END
> <Batch ID>
0059

> <Smiles>
CNC(C)C(=O)NC(C(=O)N1Cc2cc([101O:1][101CH2:1]CCn3cc(CC[100N:0](C)[100C:0](=O)N4CCCC(n5nc(-c6ccc(Oc7ccc(F)cc7F)cc6)c(C(N)=O)c5N)C4)nn3)ccc2CC1C(=O)NC1CCCc2ccccc21)C(C)(C)C

> <Shape>
0.226

> <Color>
0.100

> <Negative vol penalty>
0.000

$$$$

  -OEChem-04052317533D

 86 94  0     1  0  0  0  0  0999 V2000
  -17.3541  -26.3194   22.5740 C   0  0  0  0  0  0  0  0  0  0  0  0
  -18.6535  -25.8224   22.5603 C   0  0  0  0  0  0  0  0  0  0  0  0
  -27.2741  -14.0320   22.5163 C   0  0  0  0  0  0  0  0  0  0  0  0
  -26.7894  -13.4197   20.2299 C   0  0  0  0  0  0  0  0  0  0  0  0
  -17.1077  -27.6342   22.1810 C   0  0  0  0  0  0  0  0  0  0  0  0
  -19.7071  -26.6398   22.1526 C   0  0  0  0  0  0  0  0  0  0  0  0
  -25.4331  -26.6231   24.3248 C   0  0  0  0  0  0  0  0  0  0  0  0
  -26.5498  -12.9279   22.9655 C   0  0  0  0  0  0  0  0  0  0  0  0
  -26.0651  -12.3155   20.6792 C   0  0  0  0  0  0  0  0  0  0  0  0
  -26.6117  -26.0429   23.8579 C   0  0  0  0  0  0  0  0  0  0  0  0
  -22.9991  -11.7030   21.9658 C   0  0  0  0  0  0  0  0  0  0  0  0
  -21.7611  -11.4552   21.3730 C   0  0  0  0  0  0  0  0  0  0  0  0
  -27.2121  -28.1270   22.8018 C   0  0  0  0  0  0  0  0  0  0  0  0
  -22.5454   -9.2910   20.6395 C   0  0  0  0  0  0  0  0  0  0  0  0
  -26.7535  -25.4004   19.4820 C   0  0  0  0  0  0  0  0  0  0  0  0
  -27.3939  -14.2780   21.1484 C   0  0  0  0  0  0  0  0  0  0  0  0
  -29.5150  -15.4683   20.3791 C   0  0  0  0  0  0  0  0  0  0  0  0
  -18.1600  -28.4711   21.7775 C   0  0  0  0  0  0  0  0  0  0  0  0
  -25.1294  -27.9587   24.0240 C   0  0  0  0  0  0  0  0  0  0  0  0
  -19.4743  -27.9666   21.7525 C   0  0  0  0  0  0  0  0  0  0  0  0
  -26.0302  -28.7225   23.2682 C   0  0  0  0  0  0  0  0  0  0  0  0
  -25.9454  -12.0696   22.0470 C   0  0  0  0  0  0  0  0  0  0  0  0
  -27.5001  -26.7940   23.0939 C   0  0  0  0  0  0  0  0  0  0  0  0
  -24.0104  -10.7448   21.8954 C   0  0  0  0  0  0  0  0  0  0  0  0
  -21.5342  -10.2492   20.7099 C   0  0  0  0  0  0  0  0  0  0  0  0
  -23.7835   -9.5388   21.2322 C   0  0  0  0  0  0  0  0  0  0  0  0
  -28.1415  -15.4187   20.6837 C   0  0  0  0  0  0  0  0  0  0  0  0
  -28.0102  -24.8869   19.3278 C   0  0  0  0  0  0  0  0  0  0  0  0
  -29.7326  -16.7658   19.9846 C   0  0  0  0  0  0  0  0  0  0  0  0
  -26.6385  -23.7394   18.0232 C   0  0  0  0  0  0  0  0  0  0  0  0
  -30.5055  -14.4339   20.4466 C   0  0  0  0  0  0  0  0  0  0  0  0
  -22.7987  -29.4267   22.4376 C   0  0  0  0  0  0  0  0  0  0  0  0
  -24.2618  -32.1027   23.5424 C   0  0  0  0  0  0  0  0  0  0  0  0
  -27.1146  -33.5791   24.6949 C   0  0  0  0  0  0  0  0  0  0  0  0
  -27.9022  -20.9645   16.7249 C   0  0  0  0  0  0  0  0  0  0  0  0
  -17.8386  -29.8706   21.3163 C   0  0  0  0  0  0  0  0  0  0  0  0
  -23.8666  -28.5776   24.5576 C   0  0  0  0  0  0  0  0  0  0  0  0
  -25.7605  -30.1663   22.9347 C   0  0  0  0  0  0  0  0  0  0  0  0
  -19.0579  -30.7870   21.2554 C   0  0  0  0  0  0  0  0  0  0  0  0
  -26.7854  -20.8526   20.2931 C   0  0  0  0  0  0  0  0  0  0  0  0
  -20.2212  -30.0824   20.5645 C   0  0  0  0  0  0  0  0  0  0  0  0
  -27.0993  -19.4009   20.6514 C   0  0  0  0  0  0  0  0  0  0  0  0
  -26.4746  -20.9998   18.8085 C   0  0  0  0  0  0  0  0  0  0  0  0
  -27.8722  -19.0335   18.2635 C   0  0  0  0  0  0  0  0  0  0  0  0
  -20.6468  -28.8300   21.3403 C   0  0  1  0  0  0  0  0  0  0  0  0
  -23.4138  -29.7953   23.7580 C   0  0  1  0  0  0  0  0  0  0  0  0
  -28.2128  -18.8402   19.7506 C   0  0  2  0  0  0  0  0  0  0  0  0
  -27.7721  -23.1712   12.6557 C   0  0  0  0  0  0  0  0  0  0  0  0
  -28.0105  -35.7871   25.4820 C   0  0  0  0  0  0  0  0  0  0  0  0
  -24.1826  -26.2654   17.9379 C   0  0  0  0  0  0  0  0  0  0  0  0
  -23.7466  -24.6376   19.8264 C   0  0  0  0  0  0  0  0  0  0  0  0
  -24.3647  -33.0870   20.6562 C   0  0  0  0  0  0  0  0  0  0  0  0
  -26.0658  -34.7806   21.3678 C   0  0  0  0  0  0  0  0  0  0  0  0
  -23.7675  -34.8410   22.3358 C   0  0  0  0  0  0  0  0  0  0  0  0
  -27.7712  -32.4914   27.3679 C   0  0  0  0  0  0  0  0  0  0  0  0
  -29.3261  -25.2674   19.9581 C   0  0  0  0  0  0  0  0  0  0  0  0
  -26.1320  -22.7427   17.0470 C   0  0  0  0  0  0  0  0  0  0  0  0
  -27.2054  -22.3861   13.8305 C   0  0  0  0  0  0  0  0  0  0  0  0
  -29.6235  -24.5217   21.2608 C   0  0  0  0  0  0  0  0  0  0  0  0
  -27.7329  -22.8741   15.1745 C   0  0  0  0  0  0  0  0  0  0  0  0
  -28.6269  -24.8278   22.3728 C   0  0  0  0  0  0  0  0  0  1  0  0
  -25.3600  -33.0068   23.0371 C   0  0  1  0  0  0  0  0  0  0  0  0
  -27.3731  -34.4701   25.8965 C   0  0  2  0  0  0  0  0  0  0  0  0
  -24.4988  -24.8852   18.5174 C   0  0  0  0  0  0  0  0  0  0  0  0
  -24.8940  -33.9011   21.8537 C   0  0  0  0  0  0  0  0  0  0  0  0
  -27.5297  -16.5916   20.4988 N   0  0  0  0  0  0  0  0  0  0  0  0
  -25.9251  -24.6719   18.6628 N   0  0  0  0  0  0  0  0  0  0  0  0
  -28.5234  -17.3903   20.0738 N   0  0  0  0  0  0  0  0  0  0  0  0
  -27.9095  -23.8605   18.4199 N   0  3  0  0  0  0  0  0  0  0  0  0
  -24.5095  -30.7244   23.4741 N   0  0  0  0  0  0  0  0  0  0  0  0
  -27.5394  -20.4299   17.9722 N   0  0  0  0  0  0  0  0  0  0  0  0
  -30.8384  -17.4220   19.5736 N   0  0  0  0  0  0  0  0  0  0  0  0
  -30.1114  -13.1582   20.8726 N   0  0  0  0  0  0  0  0  0  0  0  0
  -21.4376  -29.1958   22.4959 N   0  0  0  0  0  0  0  0  0  0  0  0
  -25.8410  -33.7517   24.1957 N   0  0  0  0  0  0  0  0  0  0  0  0
  -27.2052  -22.1019   16.2903 N   0  0  0  0  0  0  0  0  0  0  0  0
  -28.2843  -33.7895   26.8596 N   0  3  0  0  0  0  0  0  0  0  0  0
  -31.7079  -14.6392   20.1539 O   0  0  0  0  0  0  0  0  0  0  0  0
  -23.5064  -29.3584   21.4395 O   0  0  0  0  0  0  0  0  0  0  0  0
  -23.2252  -32.6013   23.9882 O   0  0  0  0  0  0  0  0  0  0  0  0
  -27.9594  -32.8099   24.2421 O   0  0  0  0  0  0  0  0  0  0  0  0
  -28.8046  -20.4604   16.0441 O   0  0  0  0  0  0  0  0  0  0  0  0
  -25.2387  -10.9920   22.4851 O   0  0  0  0  0  0  0  0  0  0  0  0
  -28.6509  -26.2300   22.6364 O   0  0  0  0  0  0  0  0  0  1  0  0
  -20.3447  -10.0108   20.1420 F   0  0  0  0  0  0  0  0  0  0  0  0
  -24.7508   -8.6140   21.1623 F   0  0  0  0  0  0  0  0  0  0  0  0
  1  2  1  0  0  0  0
  1  5  2  0  0  0  0
  2  6  2  0  0  0  0
  3  8  2  0  0  0  0
  3 16  1  0  0  0  0
  4  9  1  0  0  0  0
  4 16  2  0  0  0  0
  5 18  1  0  0  0  0
  6 20  1  0  0  0  0
  7 10  2  0  0  0  0
  7 19  1  0  0  0  0
  8 22  1  0  0  0  0
  9 22  2  0  0  0  0
 10 23  1  0  0  0  0
 11 12  2  0  0  0  0
 11 24  1  0  0  0  0
 12 25  1  0  0  0  0
 13 21  1  0  0  0  0
 13 23  2  0  0  0  0
 14 25  2  0  0  0  0
 14 26  1  0  0  0  0
 15 28  2  0  0  0  0
 15 67  1  0  0  0  0
 16 27  1  0  0  0  0
 17 27  1  0  0  0  0
 17 29  2  0  0  0  0
 17 31  1  0  0  0  0
 18 20  2  0  0  0  0
 18 36  1  0  0  0  0
 19 21  2  0  0  0  0
 19 37  1  0  0  0  0
 20 45  1  0  0  0  0
 21 38  1  0  0  0  0
 22 83  1  0  0  0  0
 23 84  1  0  0  0  0
 24 26  2  0  0  0  0
 24 83  1  0  0  0  0
 25 85  1  0  0  0  0
 26 86  1  0  0  0  0
 27 66  2  0  0  0  0
 28 56  1  0  0  0  0
 28 69  1  0  0  0  0
 29 68  1  0  0  0  0
 29 72  1  0  0  0  0
 30 57  1  0  0  0  0
 30 67  1  0  0  0  0
 30 69  2  0  0  0  0
 31 73  1  0  0  0  0
 31 78  2  0  0  0  0
 32 46  1  0  0  0  0
 32 74  1  0  0  0  0
 32 79  2  0  0  0  0
 33 62  1  0  0  0  0
 33 70  1  0  0  0  0
 33 80  2  0  0  0  0
 34 63  1  0  0  0  0
 34 75  1  0  0  0  0
 34 81  2  0  0  0  0
 35 71  1  0  0  0  0
 35 76  1  0  0  0  0
 35 82  2  0  0  0  0
 36 39  1  0  0  0  0
 37 46  1  0  0  0  0
 38 70  1  0  0  0  0
 39 41  1  0  0  0  0
 40 42  1  0  0  0  0
 40 43  1  0  0  0  0
 41 45  1  0  0  0  0
 42 47  1  0  0  0  0
 43 71  1  0  0  0  0
 44 47  1  0  0  0  0
 44 71  1  0  0  0  0
 45 74  1  0  0  0  0
 46 70  1  0  0  0  0
 47 68  1  0  0  0  0
 48 58  1  0  0  0  0
 49 63  1  0  0  0  0
 50 64  1  0  0  0  0
 51 64  1  0  0  0  0
 52 65  1  0  0  0  0
 53 65  1  0  0  0  0
 54 65  1  0  0  0  0
 55 77  1  0  0  0  0
 56 59  1  0  0  0  0
 57 76  1  0  0  0  0
 58 60  1  0  0  0  0
 59 61  1  0  0  0  0
 60 76  1  0  0  0  0
 61 84  1  0  0  0  0
 62 65  1  0  0  0  0
 62 75  1  0  0  0  0
 63 77  1  0  0  0  0
 64 67  1  0  0  0  0
 66 68  1  0  0  0  0
M  CHG  2  69   1  77   1
M  ISO  4  35 100  61 101  76 100  84 101
M  END
> <Batch ID>
0059

> <Smiles>
CCC[100N:0](Cc1nc(CC[101CH2:1][101O:1]c2ccc3c(c2)CN(C(=O)C(NC(=O)C(C)NC)C(C)(C)C)C(C(=O)NC2CCCc4ccccc42)C3)cn1C(C)C)[100C:0](=O)N1CCCC(n2nc(-c3ccc(Oc4ccc(F)cc4F)cc3)c(C(N)=O)c2N)C1

> <Shape>
0.258

> <Color>
0.090

> <Negative vol penalty>
0.000

$$$$

  -OEChem-04052317533D

 80 88  0     1  0  0  0  0  0999 V2000
  -23.1853  -11.1319   18.6512 C   0  0  0  0  0  0  0  0  0  0  0  0
  -22.4951  -12.3322   18.7854 C   0  0  0  0  0  0  0  0  0  0  0  0
  -26.0246  -28.9386   20.9983 C   0  0  0  0  0  0  0  0  0  0  0  0
  -25.2600  -26.6571   21.2149 C   0  0  0  0  0  0  0  0  0  0  0  0
  -24.4021  -10.9516   19.3075 C   0  0  0  0  0  0  0  0  0  0  0  0
  -23.0207  -13.3528   19.5770 C   0  0  0  0  0  0  0  0  0  0  0  0
  -22.5644  -19.3804   18.5942 C   0  0  0  0  0  0  0  0  0  0  0  0
  -27.2193  -28.4852   20.4392 C   0  0  0  0  0  0  0  0  0  0  0  0
  -26.4547  -26.2036   20.6557 C   0  0  0  0  0  0  0  0  0  0  0  0
  -21.7129  -20.3538   19.1148 C   0  0  0  0  0  0  0  0  0  0  0  0
  -30.1247  -27.1416   21.5244 C   0  0  0  0  0  0  0  0  0  0  0  0
  -31.3119  -27.7118   21.9838 C   0  0  0  0  0  0  0  0  0  0  0  0
  -23.3858  -20.9317   20.7540 C   0  0  0  0  0  0  0  0  0  0  0  0
  -31.8082  -28.4804   19.7477 C   0  0  0  0  0  0  0  0  0  0  0  0
  -19.7308  -24.4370   21.5456 C   0  0  0  0  0  0  0  0  0  0  0  0
  -25.0449  -28.0246   21.3862 C   0  0  0  0  0  0  0  0  0  0  0  0
  -22.8636  -29.3472   21.3695 C   0  0  0  0  0  0  0  0  0  0  0  0
  -24.9477  -11.9740   20.0998 C   0  0  0  0  0  0  0  0  0  0  0  0
  -23.8309  -19.1675   19.1574 C   0  0  0  0  0  0  0  0  0  0  0  0
  -24.2454  -13.1856   20.2456 C   0  0  0  0  0  0  0  0  0  0  0  0
  -24.2524  -19.9567   20.2370 C   0  0  0  0  0  0  0  0  0  0  0  0
  -27.4343  -27.1177   20.2679 C   0  0  0  0  0  0  0  0  0  0  0  0
  -22.1224  -21.1277   20.1967 C   0  0  0  0  0  0  0  0  0  0  0  0
  -29.7793  -27.2408   20.1765 C   0  0  0  0  0  0  0  0  0  0  0  0
  -32.1536  -28.3812   21.0955 C   0  0  0  0  0  0  0  0  0  0  0  0
  -30.6210  -27.9102   19.2883 C   0  0  0  0  0  0  0  0  0  0  0  0
  -23.8108  -28.4923   21.9644 C   0  0  0  0  0  0  0  0  0  0  0  0
  -20.7150  -23.8022   22.2494 C   0  0  0  0  0  0  0  0  0  0  0  0
  -21.8814  -29.4854   22.3196 C   0  0  0  0  0  0  0  0  0  0  0  0
  -19.5726  -25.0674   23.6618 C   0  0  0  0  0  0  0  0  0  0  0  0
  -22.8709  -29.9613   20.0740 C   0  0  0  0  0  0  0  0  0  0  0  0
  -25.2658  -16.7200   20.5908 C   0  0  0  0  0  0  0  0  0  0  0  0
  -27.8488  -18.6798   20.4902 C   0  0  0  0  0  0  0  0  0  0  0  0
  -29.0648  -21.8632   20.3064 C   0  0  0  0  0  0  0  0  0  0  0  0
  -20.5605  -25.7592   27.0004 C   0  0  0  0  0  0  0  0  0  0  0  0
  -26.2429  -11.7154   20.8279 C   0  0  0  0  0  0  0  0  0  0  0  0
  -24.7480  -18.1317   18.5671 C   0  0  0  0  0  0  0  0  0  0  0  0
  -25.6102  -19.7815   20.8649 C   0  0  0  0  0  0  0  0  0  0  0  0
  -26.9141  -12.9846   21.3465 C   0  0  0  0  0  0  0  0  0  0  0  0
  -21.1906  -29.4065   27.0474 C   0  0  0  0  0  0  0  0  0  0  0  0
  -25.8958  -13.8795   22.0457 C   0  0  0  0  0  0  0  0  0  0  0  0
  -21.9188  -29.6358   25.7240 C   0  0  0  0  0  0  0  0  0  0  0  0
  -21.4211  -27.9974   27.5849 C   0  0  0  0  0  0  0  0  0  0  0  0
  -21.8054  -27.1492   25.2942 C   0  0  0  0  0  0  0  0  0  0  0  0
  -24.7951  -14.3254   21.0755 C   0  0  1  0  0  0  0  0  0  0  0  0
  -25.8144  -17.6504   19.5462 C   0  0  1  0  0  0  0  0  0  0  0  0
  -21.5560  -28.5444   24.7020 C   0  0  2  0  0  0  0  0  0  0  0  0
  -31.2185  -23.1510   20.2828 C   0  0  0  0  0  0  0  0  0  0  0  0
  -28.1378  -18.2468   23.4967 C   0  0  0  0  0  0  0  0  0  0  0  0
  -29.6503  -20.2406   23.5680 C   0  0  0  0  0  0  0  0  0  0  0  0
  -30.2937  -18.2365   22.2292 C   0  0  0  0  0  0  0  0  0  0  0  0
  -17.9064  -26.0564   22.1187 C   0  0  0  0  0  0  0  0  0  0  0  0
  -19.0930  -23.8407   26.5052 C   0  0  0  0  0  0  0  0  0  0  0  0
  -28.5065  -22.9730   17.6202 C   0  0  0  0  0  0  0  0  0  0  0  0
  -21.7769  -22.8346   21.8163 C   0  0  0  0  0  0  0  0  0  1  0  0
  -19.1277  -25.7264   24.9150 C   0  0  0  0  0  0  0  0  0  0  0  0
  -28.4290  -19.7315   21.4046 C   0  0  1  0  0  0  0  0  0  0  0  0
  -30.1467  -22.4797   19.4382 C   0  0  2  0  0  0  0  0  0  0  0  0
  -29.1013  -19.1161   22.6643 C   0  0  0  0  0  0  0  0  0  0  0  0
  -23.4618  -28.1142   23.1970 N   0  0  0  0  0  0  0  0  0  0  0  0
  -19.0391  -25.2127   22.4445 N   0  0  0  0  0  0  0  0  0  0  0  0
  -22.2844  -28.7344   23.3844 N   0  0  0  0  0  0  0  0  0  0  0  0
  -20.5937  -24.2109   23.5556 N   0  3  0  0  0  0  0  0  0  0  0  0
  -26.4682  -18.7516   20.2561 N   0  0  0  0  0  0  0  0  0  0  0  0
  -21.1098  -26.9813   26.5789 N   0  0  0  0  0  0  0  0  0  0  0  0
  -20.7209  -30.1748   22.3397 N   0  0  0  0  0  0  0  0  0  0  0  0
  -22.2857  -29.2708   19.0039 N   0  0  0  0  0  0  0  0  0  0  0  0
  -25.2760  -15.3889   20.2199 N   0  0  0  0  0  0  0  0  0  0  0  0
  -29.3251  -20.5376   20.5827 N   0  0  0  0  0  0  0  0  0  0  0  0
  -19.6966  -25.1050   26.1090 N   0  0  0  0  0  0  0  0  0  0  0  0
  -29.5593  -23.5010   18.5256 N   0  3  0  0  0  0  0  0  0  0  0  0
  -23.3958  -31.0818   19.8679 O   0  0  0  0  0  0  0  0  0  0  0  0
  -24.8644  -17.1759   21.6551 O   0  0  0  0  0  0  0  0  0  0  0  0
  -28.5942  -17.8302   19.9960 O   0  0  0  0  0  0  0  0  0  0  0  0
  -28.0884  -22.4955   20.7032 O   0  0  0  0  0  0  0  0  0  0  0  0
  -20.8195  -25.2849   28.1139 O   0  0  0  0  0  0  0  0  0  0  0  0
  -28.5999  -26.6749   19.7221 O   0  0  0  0  0  0  0  0  0  0  0  0
  -21.2930  -22.0781   20.7073 O   0  0  0  0  0  0  0  0  0  1  0  0
  -33.2929  -28.9300   21.5372 F   0  0  0  0  0  0  0  0  0  0  0  0
  -30.2939  -28.0097   17.9925 F   0  0  0  0  0  0  0  0  0  0  0  0
  1  2  1  0  0  0  0
  1  5  2  0  0  0  0
  2  6  2  0  0  0  0
  3  8  2  0  0  0  0
  3 16  1  0  0  0  0
  4  9  1  0  0  0  0
  4 16  2  0  0  0  0
  5 18  1  0  0  0  0
  6 20  1  0  0  0  0
  7 10  2  0  0  0  0
  7 19  1  0  0  0  0
  8 22  1  0  0  0  0
  9 22  2  0  0  0  0
 10 23  1  0  0  0  0
 11 12  2  0  0  0  0
 11 24  1  0  0  0  0
 12 25  1  0  0  0  0
 13 21  1  0  0  0  0
 13 23  2  0  0  0  0
 14 25  2  0  0  0  0
 14 26  1  0  0  0  0
 15 28  2  0  0  0  0
 15 61  1  0  0  0  0
 16 27  1  0  0  0  0
 17 27  1  0  0  0  0
 17 29  2  0  0  0  0
 17 31  1  0  0  0  0
 18 20  2  0  0  0  0
 18 36  1  0  0  0  0
 19 21  2  0  0  0  0
 19 37  1  0  0  0  0
 20 45  1  0  0  0  0
 21 38  1  0  0  0  0
 22 77  1  0  0  0  0
 23 78  1  0  0  0  0
 24 26  2  0  0  0  0
 24 77  1  0  0  0  0
 25 79  1  0  0  0  0
 26 80  1  0  0  0  0
 27 60  2  0  0  0  0
 28 55  1  0  0  0  0
 28 63  1  0  0  0  0
 29 62  1  0  0  0  0
 29 66  1  0  0  0  0
 30 56  1  0  0  0  0
 30 61  1  0  0  0  0
 30 63  2  0  0  0  0
 31 67  1  0  0  0  0
 31 72  2  0  0  0  0
 32 46  1  0  0  0  0
 32 68  1  0  0  0  0
 32 73  2  0  0  0  0
 33 57  1  0  0  0  0
 33 64  1  0  0  0  0
 33 74  2  0  0  0  0
 34 58  1  0  0  0  0
 34 69  1  0  0  0  0
 34 75  2  0  0  0  0
 35 65  1  0  0  0  0
 35 70  1  0  0  0  0
 35 76  2  0  0  0  0
 36 39  1  0  0  0  0
 37 46  1  0  0  0  0
 38 64  1  0  0  0  0
 39 41  1  0  0  0  0
 40 42  1  0  0  0  0
 40 43  1  0  0  0  0
 41 45  1  0  0  0  0
 42 47  1  0  0  0  0
 43 65  1  0  0  0  0
 44 47  1  0  0  0  0
 44 65  1  0  0  0  0
 45 68  1  0  0  0  0
 46 64  1  0  0  0  0
 47 62  1  0  0  0  0
 48 58  1  0  0  0  0
 49 59  1  0  0  0  0
 50 59  1  0  0  0  0
 51 59  1  0  0  0  0
 52 61  1  0  0  0  0
 53 70  1  0  0  0  0
 54 71  1  0  0  0  0
 55 78  1  0  0  0  0
 56 70  1  0  0  0  0
 57 59  1  0  0  0  0
 57 69  1  0  0  0  0
 58 71  1  0  0  0  0
 60 62  1  0  0  0  0
M  CHG  2  63   1  71   1
M  ISO  4  35 100  55 101  70 100  78 101
M  END
> <Batch ID>
0059

> <Smiles>
CNC(C)C(=O)NC(C(=O)N1Cc2cc([101O:1][101CH2:1]c3cn(C)c(C[100N:0](C)[100C:0](=O)N4CCCC(n5nc(-c6ccc(Oc7ccc(F)cc7F)cc6)c(C(N)=O)c5N)C4)n3)ccc2CC1C(=O)NC1CCCc2ccccc21)C(C)(C)C

> <Shape>
0.210

> <Color>
0.077

> <Negative vol penalty>
0.000

$$$$

  -OEChem-04052317533D

 81 89  0     1  0  0  0  0  0999 V2000
  -27.0839  -24.2687   13.9229 C   0  0  0  0  0  0  0  0  0  0  0  0
  -26.1984  -24.3503   14.9928 C   0  0  0  0  0  0  0  0  0  0  0  0
  -26.9094  -14.9050   19.3462 C   0  0  0  0  0  0  0  0  0  0  0  0
  -24.5504  -14.8811   19.8671 C   0  0  0  0  0  0  0  0  0  0  0  0
  -28.4385  -24.5347   14.1187 C   0  0  0  0  0  0  0  0  0  0  0  0
  -26.6673  -24.6969   16.2595 C   0  0  0  0  0  0  0  0  0  0  0  0
  -23.7119  -28.1061   18.5591 C   0  0  0  0  0  0  0  0  0  0  0  0
  -27.0128  -13.5748   19.7531 C   0  0  0  0  0  0  0  0  0  0  0  0
  -24.6537  -13.5508   20.2739 C   0  0  0  0  0  0  0  0  0  0  0  0
  -22.5294  -27.6402   19.1322 C   0  0  0  0  0  0  0  0  0  0  0  0
  -24.8188  -10.5072   18.8147 C   0  0  0  0  0  0  0  0  0  0  0  0
  -23.8367   -9.6189   18.3766 C   0  0  0  0  0  0  0  0  0  0  0  0
  -23.5867  -27.6415   21.3004 C   0  0  0  0  0  0  0  0  0  0  0  0
  -23.2377   -9.1500   20.6697 C   0  0  0  0  0  0  0  0  0  0  0  0
  -20.5913  -24.0986   23.3373 C   0  0  0  0  0  0  0  0  0  0  0  0
  -21.4657  -23.3597   21.4599 C   0  0  0  0  0  0  0  0  0  0  0  0
  -25.6782  -15.5581   19.4032 C   0  0  0  0  0  0  0  0  0  0  0  0
  -25.2804  -17.4060   17.6902 C   0  0  0  0  0  0  0  0  0  0  0  0
  -28.9226  -24.8941   15.3864 C   0  0  0  0  0  0  0  0  0  0  0  0
  -24.8459  -28.3332   19.3521 C   0  0  0  0  0  0  0  0  0  0  0  0
  -28.0298  -24.9666   16.4727 C   0  0  0  0  0  0  0  0  0  0  0  0
  -24.7816  -28.1127   20.7354 C   0  0  0  0  0  0  0  0  0  0  0  0
  -20.5303  -24.2444   21.9384 C   0  0  0  0  0  0  0  0  0  0  0  0
  -25.8849  -12.8977   20.2169 C   0  0  0  0  0  0  0  0  0  0  0  0
  -22.4675  -27.4051   20.5026 C   0  0  0  0  0  0  0  0  0  0  0  0
  -25.0104  -10.7169   20.1804 C   0  0  0  0  0  0  0  0  0  0  0  0
  -23.0461   -8.9403   19.3040 C   0  0  0  0  0  0  0  0  0  0  0  0
  -24.2199  -10.0383   21.1079 C   0  0  0  0  0  0  0  0  0  0  0  0
  -25.5710  -16.9324   18.9836 C   0  0  0  0  0  0  0  0  0  0  0  0
  -25.2931  -18.7738   17.8145 C   0  0  0  0  0  0  0  0  0  0  0  0
  -25.0219  -16.6750   16.4842 C   0  0  0  0  0  0  0  0  0  0  0  0
  -27.7869  -27.1319   19.4570 C   0  0  0  0  0  0  0  0  0  0  0  0
  -24.4105  -22.3819   22.5384 C   0  0  0  0  0  0  0  0  0  0  0  0
  -28.2374  -29.4555   21.6751 C   0  0  0  0  0  0  0  0  0  0  0  0
  -26.8674  -31.5561   23.9897 C   0  0  0  0  0  0  0  0  0  0  0  0
  -30.4027  -25.1262   15.5592 C   0  0  0  0  0  0  0  0  0  0  0  0
  -26.1058  -28.8612   18.7227 C   0  0  0  0  0  0  0  0  0  0  0  0
  -25.9649  -28.3602   21.6337 C   0  0  0  0  0  0  0  0  0  0  0  0
  -30.7583  -25.8522   16.8541 C   0  0  0  0  0  0  0  0  0  0  0  0
  -27.2660  -22.2905   20.3756 C   0  0  0  0  0  0  0  0  0  0  0  0
  -30.0139  -25.2351   18.0339 C   0  0  0  0  0  0  0  0  0  0  0  0
  -27.1440  -20.9369   19.6769 C   0  0  0  0  0  0  0  0  0  0  0  0
  -26.7700  -22.2218   21.8166 C   0  0  0  0  0  0  0  0  0  0  0  0
  -25.2505  -20.3511   21.2570 C   0  0  0  0  0  0  0  0  0  0  0  0
  -28.4961  -25.3636   17.8566 C   0  0  1  0  0  0  0  0  0  0  0  0
  -27.3546  -28.5680   19.5485 C   0  0  1  0  0  0  0  0  0  0  0  0
  -25.7122  -20.3839   19.7893 C   0  0  2  0  0  0  0  0  0  0  0  0
  -22.9248  -20.8003   23.7496 C   0  0  0  0  0  0  0  0  0  0  0  0
  -27.4919  -33.3112   25.6711 C   0  0  0  0  0  0  0  0  0  0  0  0
  -18.6771  -26.0446   21.9992 C   0  0  0  0  0  0  0  0  0  0  0  0
  -18.7190  -24.3329   20.1976 C   0  0  0  0  0  0  0  0  0  0  0  0
  -29.2492  -27.2828   23.5634 C   0  0  0  0  0  0  0  0  0  0  0  0
  -28.9515  -28.8900   25.4599 C   0  0  0  0  0  0  0  0  0  0  0  0
  -30.5594  -29.4121   23.6256 C   0  0  0  0  0  0  0  0  0  0  0  0
  -25.2536  -33.6178   22.6097 C   0  0  0  0  0  0  0  0  0  0  0  0
  -20.4725  -26.1355   20.2495 C   0  0  0  0  0  0  0  0  0  1  0  0
  -23.0406  -21.7519   22.5614 C   0  0  1  0  0  0  0  0  0  0  0  0
  -28.0758  -29.5493   23.1731 C   0  0  1  0  0  0  0  0  0  0  0  0
  -27.0570  -33.0415   24.2390 C   0  0  2  0  0  0  0  0  0  0  0  0
  -19.6187  -25.1821   21.1248 C   0  0  0  0  0  0  0  0  0  0  0  0
  -29.1871  -28.7770   23.9386 C   0  0  0  0  0  0  0  0  0  0  0  0
  -21.4939  -23.1925   23.7224 N   0  0  0  0  0  0  0  0  0  0  0  0
  -25.7550  -17.9191   19.8648 N   0  0  0  0  0  0  0  0  0  0  0  0
  -22.0086  -22.7609   22.5585 N   0  0  0  0  0  0  0  0  0  0  0  0
  -25.5797  -19.0264   19.1238 N   0  0  0  0  0  0  0  0  0  0  0  0
  -27.1761  -28.8704   20.9701 N   0  0  0  0  0  0  0  0  0  0  0  0
  -25.4154  -21.6706   21.8826 N   0  0  0  0  0  0  0  0  0  0  0  0
  -25.0870  -19.7731   16.9305 N   0  0  0  0  0  0  0  0  0  0  0  0
  -25.0477  -15.2746   16.5332 N   0  0  0  0  0  0  0  0  0  0  0  0
  -28.0626  -26.7081   18.1709 N   0  0  0  0  0  0  0  0  0  0  0  0
  -28.0115  -30.9723   23.4885 N   0  0  0  0  0  0  0  0  0  0  0  0
  -25.7844  -33.7754   23.9883 N   0  3  0  0  0  0  0  0  0  0  0  0
  -24.7916  -17.2469   15.3917 O   0  0  0  0  0  0  0  0  0  0  0  0
  -27.8660  -26.4585   20.4778 O   0  0  0  0  0  0  0  0  0  0  0  0
  -24.5796  -23.4750   23.0849 O   0  0  0  0  0  0  0  0  0  0  0  0
  -29.2642  -29.8920   21.1491 O   0  0  0  0  0  0  0  0  0  0  0  0
  -25.8112  -30.9715   24.2202 O   0  0  0  0  0  0  0  0  0  0  0  0
  -25.9854  -11.5997   20.6138 O   0  0  0  0  0  0  0  0  0  0  0  0
  -21.3147  -26.9498   21.0644 O   0  0  0  0  0  0  0  0  0  1  0  0
  -22.1020   -8.0885   18.8831 F   0  0  0  0  0  0  0  0  0  0  0  0
  -24.3985  -10.2365   22.4211 F   0  0  0  0  0  0  0  0  0  0  0  0
  1  2  1  0  0  0  0
  1  5  2  0  0  0  0
  2  6  2  0  0  0  0
  3  8  2  0  0  0  0
  3 17  1  0  0  0  0
  4  9  1  0  0  0  0
  4 17  2  0  0  0  0
  5 19  1  0  0  0  0
  6 21  1  0  0  0  0
  7 10  2  0  0  0  0
  7 20  1  0  0  0  0
  8 24  1  0  0  0  0
  9 24  2  0  0  0  0
 10 25  1  0  0  0  0
 11 12  2  0  0  0  0
 11 26  1  0  0  0  0
 12 27  1  0  0  0  0
 13 22  1  0  0  0  0
 13 25  2  0  0  0  0
 14 27  2  0  0  0  0
 14 28  1  0  0  0  0
 15 23  1  0  0  0  0
 15 62  2  0  0  0  0
 16 23  2  0  0  0  0
 16 64  1  0  0  0  0
 17 29  1  0  0  0  0
 18 29  1  0  0  0  0
 18 30  2  0  0  0  0
 18 31  1  0  0  0  0
 19 21  2  0  0  0  0
 19 36  1  0  0  0  0
 20 22  2  0  0  0  0
 20 37  1  0  0  0  0
 21 45  1  0  0  0  0
 22 38  1  0  0  0  0
 23 60  1  0  0  0  0
 24 78  1  0  0  0  0
 25 79  1  0  0  0  0
 26 28  2  0  0  0  0
 26 78  1  0  0  0  0
 27 80  1  0  0  0  0
 28 81  1  0  0  0  0
 29 63  2  0  0  0  0
 30 65  1  0  0  0  0
 30 68  1  0  0  0  0
 31 69  1  0  0  0  0
 31 73  2  0  0  0  0
 32 46  1  0  0  0  0
 32 70  1  0  0  0  0
 32 74  2  0  0  0  0
 33 57  1  0  0  0  0
 33 67  1  0  0  0  0
 33 75  2  0  0  0  0
 34 58  1  0  0  0  0
 34 66  1  0  0  0  0
 34 76  2  0  0  0  0
 35 59  1  0  0  0  0
 35 71  1  0  0  0  0
 35 77  2  0  0  0  0
 36 39  1  0  0  0  0
 37 46  1  0  0  0  0
 38 66  1  0  0  0  0
 39 41  1  0  0  0  0
 40 42  1  0  0  0  0
 40 43  1  0  0  0  0
 41 45  1  0  0  0  0
 42 47  1  0  0  0  0
 43 67  1  0  0  0  0
 44 47  1  0  0  0  0
 44 67  1  0  0  0  0
 45 70  1  0  0  0  0
 46 66  1  0  0  0  0
 47 65  1  0  0  0  0
 48 57  1  0  0  0  0
 49 59  1  0  0  0  0
 50 60  1  0  0  0  0
 51 60  1  0  0  0  0
 52 61  1  0  0  0  0
 53 61  1  0  0  0  0
 54 61  1  0  0  0  0
 55 72  1  0  0  0  0
 56 60  1  0  0  0  0
 56 79  1  0  0  0  0
 57 64  1  0  0  0  0
 58 61  1  0  0  0  0
 58 71  1  0  0  0  0
 59 72  1  0  0  0  0
 62 64  1  0  0  0  0
 63 65  1  0  0  0  0
M  CHG  1  72   1
M  ISO  4  33 100  56 101  57 100  79 101
M  END
> <Batch ID>
0059

> <Smiles>
CNC(C)C(=O)NC(C(=O)N1Cc2cc([101O:1][101CH2:1]C(C)(C)c3cnn([100CH:0](C)[100C:0](=O)N4CCCC(n5nc(-c6ccc(Oc7ccc(F)cc7F)cc6)c(C(N)=O)c5N)C4)c3)ccc2CC1C(=O)NC1CCCc2ccccc21)C(C)(C)C

> <Shape>
0.189

> <Color>
0.067

> <Negative vol penalty>
0.000

$$$$

  -OEChem-04052317533D

 82 90  0     1  0  0  0  0  0999 V2000
  -25.8202  -37.3984   23.3176 C   0  0  0  0  0  0  0  0  0  0  0  0
  -26.5708  -36.3536   22.7880 C   0  0  0  0  0  0  0  0  0  0  0  0
  -25.6523  -12.9736   21.8492 C   0  0  0  0  0  0  0  0  0  0  0  0
  -25.5747  -13.6258   19.5242 C   0  0  0  0  0  0  0  0  0  0  0  0
  -24.7446  -37.1247   24.1615 C   0  0  0  0  0  0  0  0  0  0  0  0
  -26.2468  -35.0344   23.1030 C   0  0  0  0  0  0  0  0  0  0  0  0
  -26.7477  -30.1470   19.4466 C   0  0  0  0  0  0  0  0  0  0  0  0
  -25.3163  -11.6673   21.4940 C   0  0  0  0  0  0  0  0  0  0  0  0
  -25.2388  -12.3194   19.1690 C   0  0  0  0  0  0  0  0  0  0  0  0
  -27.7211  -29.1552   19.3347 C   0  0  0  0  0  0  0  0  0  0  0  0
  -24.1263   -8.2410   21.2327 C   0  0  0  0  0  0  0  0  0  0  0  0
  -23.1520   -7.5915   21.9906 C   0  0  0  0  0  0  0  0  0  0  0  0
  -26.4159  -27.7209   20.7695 C   0  0  0  0  0  0  0  0  0  0  0  0
  -21.5526   -9.3041   21.4023 C   0  0  0  0  0  0  0  0  0  0  0  0
  -29.2588  -21.7535   22.3571 C   0  0  0  0  0  0  0  0  0  0  0  0
  -25.7814  -13.9529   20.8643 C   0  0  0  0  0  0  0  0  0  0  0  0
  -27.4210  -15.8484   21.3404 C   0  0  0  0  0  0  0  0  0  0  0  0
  -24.4014  -35.8011   24.4792 C   0  0  0  0  0  0  0  0  0  0  0  0
  -25.6044  -29.9371   20.2309 C   0  0  0  0  0  0  0  0  0  0  0  0
  -25.1665  -34.7427   23.9530 C   0  0  0  0  0  0  0  0  0  0  0  0
  -25.4283  -28.7108   20.8877 C   0  0  0  0  0  0  0  0  0  0  0  0
  -25.1096  -11.3402   20.1539 C   0  0  0  0  0  0  0  0  0  0  0  0
  -27.5567  -27.9430   19.9985 C   0  0  0  0  0  0  0  0  0  0  0  0
  -23.8138   -9.4222   20.5596 C   0  0  0  0  0  0  0  0  0  0  0  0
  -21.8652   -8.1230   22.0754 C   0  0  0  0  0  0  0  0  0  0  0  0
  -22.5269   -9.9537   20.6444 C   0  0  0  0  0  0  0  0  0  0  0  0
  -26.1279  -15.3027   21.2306 C   0  0  0  0  0  0  0  0  0  0  0  0
  -27.2122  -17.1539   21.7126 C   0  0  0  0  0  0  0  0  0  0  0  0
  -28.6857  -22.6271   20.5500 C   0  0  0  0  0  0  0  0  0  0  0  0
  -28.6967  -15.2306   21.1250 C   0  0  0  0  0  0  0  0  0  0  0  0
  -24.3725  -31.3181   22.8153 C   0  0  0  0  0  0  0  0  0  0  0  0
  -21.8982  -29.3023   22.2355 C   0  0  0  0  0  0  0  0  0  0  0  0
  -20.7976  -26.3979   20.8212 C   0  0  0  0  0  0  0  0  0  0  0  0
  -23.1428  -21.2857   20.5074 C   0  0  0  0  0  0  0  0  0  0  0  0
  -23.2595  -35.5564   25.4336 C   0  0  0  0  0  0  0  0  0  0  0  0
  -24.5510  -31.0070   20.3198 C   0  0  0  0  0  0  0  0  0  0  0  0
  -24.2093  -28.4280   21.7258 C   0  0  0  0  0  0  0  0  0  0  0  0
  -22.7507  -34.1172   25.4184 C   0  0  0  0  0  0  0  0  0  0  0  0
  -23.5021  -19.6462   23.8066 C   0  0  0  0  0  0  0  0  0  0  0  0
  -23.9186  -33.1375   25.4734 C   0  0  0  0  0  0  0  0  0  0  0  0
  -24.2758  -18.3742   23.4639 C   0  0  0  0  0  0  0  0  0  0  0  0
  -22.6558  -20.1289   22.6325 C   0  0  0  0  0  0  0  0  0  0  0  0
  -24.1996  -19.0491   21.0310 C   0  0  0  0  0  0  0  0  0  0  0  0
  -24.8310  -33.2976   24.2514 C   0  0  1  0  0  0  0  0  0  0  0  0
  -23.6724  -30.8789   21.5605 C   0  0  1  0  0  0  0  0  0  0  0  0
  -25.0985  -18.5623   22.1775 C   0  0  2  0  0  0  0  0  0  0  0  0
  -18.7320  -24.9994   20.5472 C   0  0  0  0  0  0  0  0  0  0  0  0
  -22.1706  -28.3393   25.1179 C   0  0  0  0  0  0  0  0  0  0  0  0
  -20.7803  -26.3477   24.5105 C   0  0  0  0  0  0  0  0  0  0  0  0
  -19.8140  -28.6410   24.3372 C   0  0  0  0  0  0  0  0  0  0  0  0
  -23.9314  -22.8928   18.8119 C   0  0  0  0  0  0  0  0  0  0  0  0
  -20.8773  -26.6504   17.8736 C   0  0  0  0  0  0  0  0  0  0  0  0
  -28.6099  -23.2604   19.1837 C   0  0  0  0  0  0  0  0  0  0  0  0
  -29.0000  -24.7399   19.1680 C   0  0  0  0  0  0  0  0  0  0  0  0
  -26.2025  -22.6063   20.9945 C   0  0  0  0  0  0  0  0  0  0  0  0
  -25.6133  -21.5708   20.0404 C   0  0  0  0  0  0  0  0  0  0  0  0
  -28.0647  -25.6197   19.9894 C   0  0  0  0  0  0  0  0  0  1  0  0
  -21.5454  -27.8949   22.6526 C   0  0  1  0  0  0  0  0  0  0  0  0
  -19.5954  -26.0967   19.9445 C   0  0  2  0  0  0  0  0  0  0  0  0
  -21.1016  -27.8115   24.1404 C   0  0  0  0  0  0  0  0  0  0  0  0
  -29.7676  -22.2517   21.1919 N   0  0  0  0  0  0  0  0  0  0  0  0
  -27.9301  -21.7971   22.4764 N   0  0  0  0  0  0  0  0  0  0  0  0
  -25.1687  -16.1889   21.5107 N   0  0  0  0  0  0  0  0  0  0  0  0
  -25.8595  -17.3048   21.8002 N   0  0  0  0  0  0  0  0  0  0  0  0
  -27.5882  -22.3601   21.3075 N   0  0  0  0  0  0  0  0  0  0  0  0
  -23.2105  -29.5079   21.7868 N   0  0  0  0  0  0  0  0  0  0  0  0
  -23.4535  -20.2576   21.4126 N   0  0  0  0  0  0  0  0  0  0  0  0
  -28.0555  -18.1760   21.9705 N   0  0  0  0  0  0  0  0  0  0  0  0
  -28.7304  -13.8816   20.7463 N   0  0  0  0  0  0  0  0  0  0  0  0
  -24.2387  -32.6652   23.0922 N   0  0  0  0  0  0  0  0  0  0  0  0
  -20.5419  -27.4270   21.7026 N   0  0  0  0  0  0  0  0  0  0  0  0
  -24.2014  -21.8172   19.7554 N   0  0  0  0  0  0  0  0  0  0  0  0
  -20.0384  -25.6564   18.5914 N   0  3  0  0  0  0  0  0  0  0  0  0
  -29.7754  -15.8518   21.2802 O   0  0  0  0  0  0  0  0  0  0  0  0
  -24.9874  -30.4953   23.4837 O   0  0  0  0  0  0  0  0  0  0  0  0
  -21.0389  -30.1850   22.2985 O   0  0  0  0  0  0  0  0  0  0  0  0
  -21.8562  -25.7794   20.7355 O   0  0  0  0  0  0  0  0  0  0  0  0
  -21.9869  -21.7110   20.3857 O   0  0  0  0  0  0  0  0  0  0  0  0
  -24.7819  -10.0655   19.8070 O   0  0  0  0  0  0  0  0  0  0  0  0
  -28.5055  -26.9734   19.8915 O   0  0  0  0  0  0  0  0  0  1  0  0
  -20.9292   -7.4983   22.8019 F   0  0  0  0  0  0  0  0  0  0  0  0
  -22.2204  -11.0874   19.9991 F   0  0  0  0  0  0  0  0  0  0  0  0
  1  2  1  0  0  0  0
  1  5  2  0  0  0  0
  2  6  2  0  0  0  0
  3  8  2  0  0  0  0
  3 16  1  0  0  0  0
  4  9  1  0  0  0  0
  4 16  2  0  0  0  0
  5 18  1  0  0  0  0
  6 20  1  0  0  0  0
  7 10  2  0  0  0  0
  7 19  1  0  0  0  0
  8 22  1  0  0  0  0
  9 22  2  0  0  0  0
 10 23  1  0  0  0  0
 11 12  2  0  0  0  0
 11 24  1  0  0  0  0
 12 25  1  0  0  0  0
 13 21  1  0  0  0  0
 13 23  2  0  0  0  0
 14 25  2  0  0  0  0
 14 26  1  0  0  0  0
 15 61  1  0  0  0  0
 15 62  2  0  0  0  0
 16 27  1  0  0  0  0
 17 27  1  0  0  0  0
 17 28  2  0  0  0  0
 17 30  1  0  0  0  0
 18 20  2  0  0  0  0
 18 35  1  0  0  0  0
 19 21  2  0  0  0  0
 19 36  1  0  0  0  0
 20 44  1  0  0  0  0
 21 37  1  0  0  0  0
 22 79  1  0  0  0  0
 23 80  1  0  0  0  0
 24 26  2  0  0  0  0
 24 79  1  0  0  0  0
 25 81  1  0  0  0  0
 26 82  1  0  0  0  0
 27 63  2  0  0  0  0
 28 64  1  0  0  0  0
 28 68  1  0  0  0  0
 29 53  1  0  0  0  0
 29 61  2  0  0  0  0
 29 65  1  0  0  0  0
 30 69  1  0  0  0  0
 30 74  2  0  0  0  0
 31 45  1  0  0  0  0
 31 70  1  0  0  0  0
 31 75  2  0  0  0  0
 32 58  1  0  0  0  0
 32 66  1  0  0  0  0
 32 76  2  0  0  0  0
 33 59  1  0  0  0  0
 33 71  1  0  0  0  0
 33 77  2  0  0  0  0
 34 67  1  0  0  0  0
 34 72  1  0  0  0  0
 34 78  2  0  0  0  0
 35 38  1  0  0  0  0
 36 45  1  0  0  0  0
 37 66  1  0  0  0  0
 38 40  1  0  0  0  0
 39 41  1  0  0  0  0
 39 42  1  0  0  0  0
 40 44  1  0  0  0  0
 41 46  1  0  0  0  0
 42 67  1  0  0  0  0
 43 46  1  0  0  0  0
 43 67  1  0  0  0  0
 44 70  1  0  0  0  0
 45 66  1  0  0  0  0
 46 64  1  0  0  0  0
 47 59  1  0  0  0  0
 48 60  1  0  0  0  0
 49 60  1  0  0  0  0
 50 60  1  0  0  0  0
 51 72  1  0  0  0  0
 52 73  1  0  0  0  0
 53 54  1  0  0  0  0
 54 57  1  0  0  0  0
 55 56  1  0  0  0  0
 55 65  1  0  0  0  0
 56 72  1  0  0  0  0
 57 80  1  0  0  0  0
 58 60  1  0  0  0  0
 58 71  1  0  0  0  0
 59 73  1  0  0  0  0
 62 65  1  0  0  0  0
 63 64  1  0  0  0  0
M  CHG  1  73   1
M  ISO  4  34 100  57 101  72 100  80 101
M  END
> <Batch ID>
0059

> <Smiles>
CNC(C)C(=O)NC(C(=O)N1Cc2cc([101O:1][101CH2:1]CCc3ncnn3CC[100N:0](C)[100C:0](=O)N3CCCC(n4nc(-c5ccc(Oc6ccc(F)cc6F)cc5)c(C(N)=O)c4N)C3)ccc2CC1C(=O)NC1CCCc2ccccc21)C(C)(C)C

> <Shape>
0.292

> <Color>
0.079

> <Negative vol penalty>
0.000

$$$$

  -OEChem-04052317533D

 81 89  0     1  0  0  0  0  0999 V2000
  -32.5448  -11.4836   19.5835 C   0  0  0  0  0  0  0  0  0  0  0  0
  -32.6591  -12.8574   19.3966 C   0  0  0  0  0  0  0  0  0  0  0  0
  -23.8121  -29.6760   22.7831 C   0  0  0  0  0  0  0  0  0  0  0  0
  -22.3928  -29.3009   20.8642 C   0  0  0  0  0  0  0  0  0  0  0  0
  -31.2840  -10.8988   19.6947 C   0  0  0  0  0  0  0  0  0  0  0  0
  -31.5125  -13.6472   19.3196 C   0  0  0  0  0  0  0  0  0  0  0  0
  -30.8473  -19.3809   21.3659 C   0  0  0  0  0  0  0  0  0  0  0  0
  -22.7244  -30.1935   23.4864 C   0  0  0  0  0  0  0  0  0  0  0  0
  -21.3051  -29.8183   21.5676 C   0  0  0  0  0  0  0  0  0  0  0  0
  -30.9069  -20.6181   20.7260 C   0  0  0  0  0  0  0  0  0  0  0  0
  -18.0755  -30.7070   22.9812 C   0  0  0  0  0  0  0  0  0  0  0  0
  -16.8672  -30.0137   22.9102 C   0  0  0  0  0  0  0  0  0  0  0  0
  -28.5049  -20.6122   20.5038 C   0  0  0  0  0  0  0  0  0  0  0  0
  -17.9291  -28.0653   23.8659 C   0  0  0  0  0  0  0  0  0  0  0  0
  -23.6463  -29.2297   21.4719 C   0  0  0  0  0  0  0  0  0  0  0  0
  -25.1901  -27.3530   20.6959 C   0  0  0  0  0  0  0  0  0  0  0  0
  -30.1216  -11.6831   19.6287 C   0  0  0  0  0  0  0  0  0  0  0  0
  -29.6148  -18.7439   21.5703 C   0  0  0  0  0  0  0  0  0  0  0  0
  -30.2349  -13.0722   19.4287 C   0  0  0  0  0  0  0  0  0  0  0  0
  -28.4321  -19.3681   21.1489 C   0  0  0  0  0  0  0  0  0  0  0  0
  -21.4709  -30.2646   22.8787 C   0  0  0  0  0  0  0  0  0  0  0  0
  -29.7359  -21.2326   20.2922 C   0  0  0  0  0  0  0  0  0  0  0  0
  -19.2106  -30.0794   23.4944 C   0  0  0  0  0  0  0  0  0  0  0  0
  -16.7940  -28.6929   23.3526 C   0  0  0  0  0  0  0  0  0  0  0  0
  -19.1374  -28.7586   23.9368 C   0  0  0  0  0  0  0  0  0  0  0  0
  -24.7696  -28.6956   20.7446 C   0  0  0  0  0  0  0  0  0  0  0  0
  -30.9321  -24.3507   18.8113 C   0  0  0  0  0  0  0  0  0  0  0  0
  -30.6527  -24.6305   17.4972 C   0  0  0  0  0  0  0  0  0  0  0  0
  -26.2924  -27.3679   19.8766 C   0  0  0  0  0  0  0  0  0  0  0  0
  -24.6339  -26.1958   21.3341 C   0  0  0  0  0  0  0  0  0  0  0  0
  -28.3213  -16.0020   20.6150 C   0  0  0  0  0  0  0  0  0  0  0  0
  -25.9315  -16.8790   22.6254 C   0  0  0  0  0  0  0  0  0  0  0  0
  -24.2876  -19.3896   24.2506 C   0  0  0  0  0  0  0  0  0  0  0  0
  -28.4464  -29.2332   14.9575 C   0  0  0  0  0  0  0  0  0  0  0  0
  -28.7794  -10.9997   19.7069 C   0  0  0  0  0  0  0  0  0  0  0  0
  -29.5651  -17.4220   22.2861 C   0  0  0  0  0  0  0  0  0  0  0  0
  -27.0820  -18.7355   21.3623 C   0  0  0  0  0  0  0  0  0  0  0  0
  -27.6242  -11.9566   19.9898 C   0  0  0  0  0  0  0  0  0  0  0  0
  -28.9965  -31.2142   18.0356 C   0  0  0  0  0  0  0  0  0  0  0  0
  -27.7206  -13.1889   19.0959 C   0  0  0  0  0  0  0  0  0  0  0  0
  -27.9280  -30.6659   18.9799 C   0  0  0  0  0  0  0  0  0  0  0  0
  -28.5770  -31.0940   16.5737 C   0  0  0  0  0  0  0  0  0  0  0  0
  -27.1258  -29.1659   17.1126 C   0  0  0  0  0  0  0  0  0  0  0  0
  -29.0152  -13.9656   19.3649 C   0  0  1  0  0  0  0  0  0  0  0  0
  -28.3003  -16.6250   21.9821 C   0  0  1  0  0  0  0  0  0  0  0  0
  -27.5371  -29.2294   18.5912 C   0  0  2  0  0  0  0  0  0  0  0  0
  -30.4099  -23.7737   16.3258 C   0  0  0  0  0  0  0  0  0  0  0  0
  -22.3504  -19.8012   25.7918 C   0  0  0  0  0  0  0  0  0  0  0  0
  -23.9992  -16.4928   20.2957 C   0  0  0  0  0  0  0  0  0  0  0  0
  -22.2951  -17.7989   21.5836 C   0  0  0  0  0  0  0  0  0  0  0  0
  -23.1638  -15.6457   22.4955 C   0  0  0  0  0  0  0  0  0  0  0  0
  -28.9768  -27.2948   13.5289 C   0  0  0  0  0  0  0  0  0  0  0  0
  -26.0457  -20.5166   26.3478 C   0  0  0  0  0  0  0  0  0  0  0  0
  -31.0828  -23.0200   19.4878 C   0  0  0  0  0  0  0  0  0  1  0  0
  -30.3906  -26.8457   16.3223 C   0  0  0  0  0  0  0  0  0  0  0  0
  -28.9094  -26.9620   15.9723 C   0  0  0  0  0  0  0  0  0  0  0  0
  -24.6610  -17.6829   22.4893 C   0  0  1  0  0  0  0  0  0  0  0  0
  -23.8443  -19.5333   25.6954 C   0  0  2  0  0  0  0  0  0  0  0  0
  -23.5552  -16.9164   21.7101 C   0  0  0  0  0  0  0  0  0  0  0  0
  -25.5420  -29.5046   20.0146 N   0  0  0  0  0  0  0  0  0  0  0  0
  -31.0737  -25.5178   19.5094 N   0  0  0  0  0  0  0  0  0  0  0  0
  -30.8884  -26.5249   18.6630 N   0  0  0  0  0  0  0  0  0  0  0  0
  -30.6360  -25.9907   17.4571 N   0  0  0  0  0  0  0  0  0  0  0  0
  -26.4589  -28.6680   19.4994 N   0  0  0  0  0  0  0  0  0  0  0  0
  -27.0862  -17.4398   22.0614 N   0  0  0  0  0  0  0  0  0  0  0  0
  -28.1695  -29.7282   16.2425 N   0  0  0  0  0  0  0  0  0  0  0  0
  -27.1258  -26.3957   19.4494 N   0  0  0  0  0  0  0  0  0  0  0  0
  -23.5001  -26.3583   22.1418 N   0  0  0  0  0  0  0  0  0  0  0  0
  -28.8941  -14.7450   20.5783 N   0  0  0  0  0  0  0  0  0  0  0  0
  -24.2778  -18.0727   23.8419 N   0  0  0  0  0  0  0  0  0  0  0  0
  -28.6744  -27.8539   14.8388 N   0  0  0  0  0  0  0  0  0  0  0  0
  -24.5671  -20.6606   26.3493 N   0  3  0  0  0  0  0  0  0  0  0  0
  -25.1375  -25.0541   21.2054 O   0  0  0  0  0  0  0  0  0  0  0  0
  -27.8514  -16.6156   19.6640 O   0  0  0  0  0  0  0  0  0  0  0  0
  -25.9020  -15.7969   23.2167 O   0  0  0  0  0  0  0  0  0  0  0  0
  -24.6069  -20.3499   23.5532 O   0  0  0  0  0  0  0  0  0  0  0  0
  -28.4968  -29.9830   13.9740 O   0  0  0  0  0  0  0  0  0  0  0  0
  -20.4092  -30.7693   23.5649 O   0  0  0  0  0  0  0  0  0  0  0  0
  -29.7913  -22.4398   19.6667 O   0  0  0  0  0  0  0  0  0  1  0  0
  -15.6332  -28.0277   23.2859 F   0  0  0  0  0  0  0  0  0  0  0  0
  -20.2242  -28.1508   24.4320 F   0  0  0  0  0  0  0  0  0  0  0  0
  1  2  1  0  0  0  0
  1  5  2  0  0  0  0
  2  6  2  0  0  0  0
  3  8  2  0  0  0  0
  3 15  1  0  0  0  0
  4  9  1  0  0  0  0
  4 15  2  0  0  0  0
  5 17  1  0  0  0  0
  6 19  1  0  0  0  0
  7 10  2  0  0  0  0
  7 18  1  0  0  0  0
  8 21  1  0  0  0  0
  9 21  2  0  0  0  0
 10 22  1  0  0  0  0
 11 12  2  0  0  0  0
 11 23  1  0  0  0  0
 12 24  1  0  0  0  0
 13 20  1  0  0  0  0
 13 22  2  0  0  0  0
 14 24  2  0  0  0  0
 14 25  1  0  0  0  0
 15 26  1  0  0  0  0
 16 26  1  0  0  0  0
 16 29  2  0  0  0  0
 16 30  1  0  0  0  0
 17 19  2  0  0  0  0
 17 35  1  0  0  0  0
 18 20  2  0  0  0  0
 18 36  1  0  0  0  0
 19 44  1  0  0  0  0
 20 37  1  0  0  0  0
 21 78  1  0  0  0  0
 22 79  1  0  0  0  0
 23 25  2  0  0  0  0
 23 78  1  0  0  0  0
 24 80  1  0  0  0  0
 25 81  1  0  0  0  0
 26 60  2  0  0  0  0
 27 28  2  0  0  0  0
 27 54  1  0  0  0  0
 27 61  1  0  0  0  0
 28 47  1  0  0  0  0
 28 63  1  0  0  0  0
 29 64  1  0  0  0  0
 29 67  1  0  0  0  0
 30 68  1  0  0  0  0
 30 73  2  0  0  0  0
 31 45  1  0  0  0  0
 31 69  1  0  0  0  0
 31 74  2  0  0  0  0
 32 57  1  0  0  0  0
 32 65  1  0  0  0  0
 32 75  2  0  0  0  0
 33 58  1  0  0  0  0
 33 70  1  0  0  0  0
 33 76  2  0  0  0  0
 34 66  1  0  0  0  0
 34 71  1  0  0  0  0
 34 77  2  0  0  0  0
 35 38  1  0  0  0  0
 36 45  1  0  0  0  0
 37 65  1  0  0  0  0
 38 40  1  0  0  0  0
 39 41  1  0  0  0  0
 39 42  1  0  0  0  0
 40 44  1  0  0  0  0
 41 46  1  0  0  0  0
 42 66  1  0  0  0  0
 43 46  1  0  0  0  0
 43 66  1  0  0  0  0
 44 69  1  0  0  0  0
 45 65  1  0  0  0  0
 46 64  1  0  0  0  0
 48 58  1  0  0  0  0
 49 59  1  0  0  0  0
 50 59  1  0  0  0  0
 51 59  1  0  0  0  0
 52 71  1  0  0  0  0
 53 72  1  0  0  0  0
 54 79  1  0  0  0  0
 55 56  1  0  0  0  0
 55 63  1  0  0  0  0
 56 71  1  0  0  0  0
 57 59  1  0  0  0  0
 57 70  1  0  0  0  0
 58 72  1  0  0  0  0
 60 64  1  0  0  0  0
 61 62  2  0  0  0  0
 62 63  1  0  0  0  0
M  CHG  1  72   1
M  ISO  4  34 100  54 101  71 100  79 101
M  END
> <Batch ID>
0059

> <Smiles>
CNC(C)C(=O)NC(C(=O)N1Cc2cc([101O:1][101CH2:1]c3nnn(CC[100N:0](C)[100C:0](=O)N4CCCC(n5nc(-c6ccc(Oc7ccc(F)cc7F)cc6)c(C(N)=O)c5N)C4)c3C)ccc2CC1C(=O)NC1CCCc2ccccc21)C(C)(C)C

> <Shape>
0.233

> <Color>
0.080

> <Negative vol penalty>
0.000

$$$$

  -OEChem-04052317533D

 80 88  0     1  0  0  0  0  0999 V2000
  -31.7785  -21.3928   26.9231 C   0  0  0  0  0  0  0  0  0  0  0  0
  -31.5189  -22.0021   25.6997 C   0  0  0  0  0  0  0  0  0  0  0  0
  -25.6819  -15.4459   22.3303 C   0  0  0  0  0  0  0  0  0  0  0  0
  -25.4809  -14.7247   20.0332 C   0  0  0  0  0  0  0  0  0  0  0  0
  -30.7709  -20.6825   27.5744 C   0  0  0  0  0  0  0  0  0  0  0  0
  -30.2518  -21.9007   25.1264 C   0  0  0  0  0  0  0  0  0  0  0  0
  -28.5841  -26.3217   23.3047 C   0  0  0  0  0  0  0  0  0  0  0  0
  -24.6201  -14.6138   22.6845 C   0  0  0  0  0  0  0  0  0  0  0  0
  -24.4190  -13.8925   20.3875 C   0  0  0  0  0  0  0  0  0  0  0  0
  -29.0979  -26.7393   22.0778 C   0  0  0  0  0  0  0  0  0  0  0  0
  -21.8895  -11.3066   20.7513 C   0  0  0  0  0  0  0  0  0  0  0  0
  -21.8833  -10.0087   20.2403 C   0  0  0  0  0  0  0  0  0  0  0  0
  -27.0981  -25.9547   20.9802 C   0  0  0  0  0  0  0  0  0  0  0  0
  -23.9947   -9.5698   21.3295 C   0  0  0  0  0  0  0  0  0  0  0  0
  -30.6208  -24.0714   17.4938 C   0  0  0  0  0  0  0  0  0  0  0  0
  -26.1123  -15.5015   21.0046 C   0  0  0  0  0  0  0  0  0  0  0  0
  -28.5777  -16.0331   20.6210 C   0  0  0  0  0  0  0  0  0  0  0  0
  -29.4881  -20.5804   27.0135 C   0  0  0  0  0  0  0  0  0  0  0  0
  -27.3260  -25.7065   23.3773 C   0  0  0  0  0  0  0  0  0  0  0  0
  -29.2265  -21.1873   25.7702 C   0  0  0  0  0  0  0  0  0  0  0  0
  -26.5695  -25.5325   22.2096 C   0  0  0  0  0  0  0  0  0  0  0  0
  -23.9886  -13.8370   21.7132 C   0  0  0  0  0  0  0  0  0  0  0  0
  -28.3561  -26.5532   20.9149 C   0  0  0  0  0  0  0  0  0  0  0  0
  -22.9483  -11.7361   21.5513 C   0  0  0  0  0  0  0  0  0  0  0  0
  -22.9359   -9.1403   20.5294 C   0  0  0  0  0  0  0  0  0  0  0  0
  -24.0009  -10.8677   21.8404 C   0  0  0  0  0  0  0  0  0  0  0  0
  -27.2088  -16.3613   20.6380 C   0  0  0  0  0  0  0  0  0  0  0  0
  -29.2015  -17.1836   20.2043 C   0  0  0  0  0  0  0  0  0  0  0  0
  -28.6202  -23.7482   16.9935 C   0  0  0  0  0  0  0  0  0  0  0  0
  -29.2272  -14.7985   20.9522 C   0  0  0  0  0  0  0  0  0  0  0  0
  -26.2753  -22.8503   24.2946 C   0  0  0  0  0  0  0  0  0  0  0  0
  -23.3645  -24.1992   23.8152 C   0  0  0  0  0  0  0  0  0  0  0  0
  -27.2147  -21.7218   16.9283 C   0  0  0  0  0  0  0  0  0  0  0  0
  -21.5020  -26.5892   22.2449 C   0  0  0  0  0  0  0  0  0  0  0  0
  -28.4446  -19.7623   27.7321 C   0  0  0  0  0  0  0  0  0  0  0  0
  -26.7745  -25.2859   24.7120 C   0  0  0  0  0  0  0  0  0  0  0  0
  -25.2049  -24.8958   22.2363 C   0  0  0  0  0  0  0  0  0  0  0  0
  -27.0232  -20.0180   27.2375 C   0  0  0  0  0  0  0  0  0  0  0  0
  -28.7173  -21.9363   20.2333 C   0  0  0  0  0  0  0  0  0  0  0  0
  -26.9787  -20.0084   25.7128 C   0  0  0  0  0  0  0  0  0  0  0  0
  -28.5956  -20.4925   20.7187 C   0  0  0  0  0  0  0  0  0  0  0  0
  -27.5227  -22.3422   19.3741 C   0  0  0  0  0  0  0  0  0  0  0  0
  -27.1585  -19.9905   18.6949 C   0  0  0  0  0  0  0  0  0  0  0  0
  -27.8578  -21.1206   25.1282 C   0  0  1  0  0  0  0  0  0  0  0  0
  -25.7033  -24.2052   24.6021 C   0  0  1  0  0  0  0  0  0  0  0  0
  -28.3587  -19.5321   19.5400 C   0  0  2  0  0  0  0  0  0  0  0  0
  -19.1440  -27.4186   22.0228 C   0  0  0  0  0  0  0  0  0  0  0  0
  -27.1182  -23.2875   15.0379 C   0  0  0  0  0  0  0  0  0  0  0  0
  -26.0460  -23.7976   17.2342 C   0  0  0  0  0  0  0  0  0  0  0  0
  -22.7060  -21.8345   22.0029 C   0  0  0  0  0  0  0  0  0  0  0  0
  -20.7883  -23.1590   21.0883 C   0  0  0  0  0  0  0  0  0  0  0  0
  -20.8392  -22.5481   23.5063 C   0  0  0  0  0  0  0  0  0  0  0  0
  -22.2143  -29.2524   23.3216 C   0  0  0  0  0  0  0  0  0  0  0  0
  -30.6345  -26.6169   18.1190 C   0  0  0  0  0  0  0  0  0  0  0  0
  -30.2744  -26.9433   19.5643 C   0  0  0  0  0  0  0  0  0  1  0  0
  -22.4222  -24.3199   22.6420 C   0  0  1  0  0  0  0  0  0  0  0  0
  -20.4609  -27.5612   22.7700 C   0  0  2  0  0  0  0  0  0  0  0  0
  -27.3371  -23.1846   16.5831 C   0  0  0  0  0  0  0  0  0  0  0  0
  -21.7154  -22.9756   22.3088 C   0  0  0  0  0  0  0  0  0  0  0  0
  -29.7587  -23.0994   17.0735 N   0  0  0  0  0  0  0  0  0  0  0  0
  -26.9761  -17.6217   20.2621 N   0  0  0  0  0  0  0  0  0  0  0  0
  -28.8073  -25.0467   17.3521 N   0  0  0  0  0  0  0  0  0  0  0  0
  -30.0873  -25.2807   17.6789 N   0  0  0  0  0  0  0  0  0  0  0  0
  -28.2072  -18.0956   20.0051 N   0  0  0  0  0  0  0  0  0  0  0  0
  -24.7117  -24.4956   23.5645 N   0  0  0  0  0  0  0  0  0  0  0  0
  -27.3139  -21.3874   18.2791 N   0  0  0  0  0  0  0  0  0  0  0  0
  -30.4981  -17.4940   19.9926 N   0  0  0  0  0  0  0  0  0  0  0  0
  -28.4363  -13.7164   21.3620 N   0  0  0  0  0  0  0  0  0  0  0  0
  -27.1882  -22.3997   25.2290 N   0  0  0  0  0  0  0  0  0  0  0  0
  -21.5091  -25.4117   22.9623 N   0  0  0  0  0  0  0  0  0  0  0  0
  -20.9385  -28.9645   22.6169 N   0  3  0  0  0  0  0  0  0  0  0  0
  -30.4734  -14.6641   20.9025 O   0  0  0  0  0  0  0  0  0  0  0  0
  -25.9140  -22.2569   23.2851 O   0  0  0  0  0  0  0  0  0  0  0  0
  -22.9202  -23.8615   24.9153 O   0  0  0  0  0  0  0  0  0  0  0  0
  -27.0390  -20.9023   16.0230 O   0  0  0  0  0  0  0  0  0  0  0  0
  -22.2331  -26.8472   21.2913 O   0  0  0  0  0  0  0  0  0  0  0  0
  -22.9526  -13.0247   22.0585 O   0  0  0  0  0  0  0  0  0  0  0  0
  -28.8556  -26.9593   19.7159 O   0  0  0  0  0  0  0  0  0  1  0  0
  -22.9291   -7.8935   20.0399 F   0  0  0  0  0  0  0  0  0  0  0  0
  -25.0203  -11.2743   22.6094 F   0  0  0  0  0  0  0  0  0  0  0  0
  1  2  1  0  0  0  0
  1  5  2  0  0  0  0
  2  6  2  0  0  0  0
  3  8  2  0  0  0  0
  3 16  1  0  0  0  0
  4  9  1  0  0  0  0
  4 16  2  0  0  0  0
  5 18  1  0  0  0  0
  6 20  1  0  0  0  0
  7 10  2  0  0  0  0
  7 19  1  0  0  0  0
  8 22  1  0  0  0  0
  9 22  2  0  0  0  0
 10 23  1  0  0  0  0
 11 12  2  0  0  0  0
 11 24  1  0  0  0  0
 12 25  1  0  0  0  0
 13 21  1  0  0  0  0
 13 23  2  0  0  0  0
 14 25  2  0  0  0  0
 14 26  1  0  0  0  0
 15 60  2  0  0  0  0
 15 63  1  0  0  0  0
 16 27  1  0  0  0  0
 17 27  1  0  0  0  0
 17 28  2  0  0  0  0
 17 30  1  0  0  0  0
 18 20  2  0  0  0  0
 18 35  1  0  0  0  0
 19 21  2  0  0  0  0
 19 36  1  0  0  0  0
 20 44  1  0  0  0  0
 21 37  1  0  0  0  0
 22 77  1  0  0  0  0
 23 78  1  0  0  0  0
 24 26  2  0  0  0  0
 24 77  1  0  0  0  0
 25 79  1  0  0  0  0
 26 80  1  0  0  0  0
 27 61  2  0  0  0  0
 28 64  1  0  0  0  0
 28 67  1  0  0  0  0
 29 58  1  0  0  0  0
 29 60  1  0  0  0  0
 29 62  2  0  0  0  0
 30 68  1  0  0  0  0
 30 72  2  0  0  0  0
 31 45  1  0  0  0  0
 31 69  1  0  0  0  0
 31 73  2  0  0  0  0
 32 56  1  0  0  0  0
 32 65  1  0  0  0  0
 32 74  2  0  0  0  0
 33 58  1  0  0  0  0
 33 66  1  0  0  0  0
 33 75  2  0  0  0  0
 34 57  1  0  0  0  0
 34 70  1  0  0  0  0
 34 76  2  0  0  0  0
 35 38  1  0  0  0  0
 36 45  1  0  0  0  0
 37 65  1  0  0  0  0
 38 40  1  0  0  0  0
 39 41  1  0  0  0  0
 39 42  1  0  0  0  0
 40 44  1  0  0  0  0
 41 46  1  0  0  0  0
 42 66  1  0  0  0  0
 43 46  1  0  0  0  0
 43 66  1  0  0  0  0
 44 69  1  0  0  0  0
 45 65  1  0  0  0  0
 46 64  1  0  0  0  0
 47 57  1  0  0  0  0
 48 58  1  0  0  0  0
 49 58  1  0  0  0  0
 50 59  1  0  0  0  0
 51 59  1  0  0  0  0
 52 59  1  0  0  0  0
 53 71  1  0  0  0  0
 54 55  1  0  0  0  0
 54 63  1  0  0  0  0
 55 78  1  0  0  0  0
 56 59  1  0  0  0  0
 56 70  1  0  0  0  0
 57 71  1  0  0  0  0
 61 64  1  0  0  0  0
 62 63  1  0  0  0  0
M  CHG  1  71   1
M  ISO  4  33 100  55 101  58 100  78 101
M  END
> <Batch ID>
0059

> <Smiles>
CNC(C)C(=O)NC(C(=O)N1Cc2cc([101O:1][101CH2:1]Cn3cnc([100C:0](C)(C)[100C:0](=O)N4CCCC(n5nc(-c6ccc(Oc7ccc(F)cc7F)cc6)c(C(N)=O)c5N)C4)n3)ccc2CC1C(=O)NC1CCCc2ccccc21)C(C)(C)C

> <Shape>
0.210

> <Color>
0.050

> <Negative vol penalty>
0.000

$$$$

  -OEChem-04052317533D

 83 91  0     1  0  0  0  0  0999 V2000
  -17.8520  -26.1834   22.7452 C   0  0  0  0  0  0  0  0  0  0  0  0
  -18.1945  -24.8989   22.3350 C   0  0  0  0  0  0  0  0  0  0  0  0
  -27.6812  -23.2329   21.0533 C   0  0  0  0  0  0  0  0  0  0  0  0
  -28.8042  -23.0011   18.9268 C   0  0  0  0  0  0  0  0  0  0  0  0
  -18.8272  -27.0289   23.2723 C   0  0  0  0  0  0  0  0  0  0  0  0
  -19.5129  -24.4597   22.4507 C   0  0  0  0  0  0  0  0  0  0  0  0
  -21.4006  -18.7771   23.7355 C   0  0  0  0  0  0  0  0  0  0  0  0
  -27.7219  -24.6211   20.9235 C   0  0  0  0  0  0  0  0  0  0  0  0
  -28.8449  -24.3894   18.7969 C   0  0  0  0  0  0  0  0  0  0  0  0
  -21.8502  -17.7330   22.9282 C   0  0  0  0  0  0  0  0  0  0  0  0
  -27.2074  -28.2193   20.9825 C   0  0  0  0  0  0  0  0  0  0  0  0
  -26.0482  -28.9332   21.2858 C   0  0  0  0  0  0  0  0  0  0  0  0
  -24.1308  -18.3922   23.3563 C   0  0  0  0  0  0  0  0  0  0  0  0
  -24.8576  -27.7334   19.5595 C   0  0  0  0  0  0  0  0  0  0  0  0
  -24.0534  -13.1865   19.8825 C   0  0  0  0  0  0  0  0  0  0  0  0
  -28.2224  -22.4229   20.0549 C   0  0  0  0  0  0  0  0  0  0  0  0
  -27.0362  -20.1789   20.3094 C   0  0  0  0  0  0  0  0  0  0  0  0
  -20.1563  -26.5964   23.4035 C   0  0  0  0  0  0  0  0  0  0  0  0
  -22.3140  -19.6447   24.3514 C   0  0  0  0  0  0  0  0  0  0  0  0
  -20.5071  -25.3007   22.9788 C   0  0  0  0  0  0  0  0  0  0  0  0
  -23.6904  -19.4449   24.1729 C   0  0  0  0  0  0  0  0  0  0  0  0
  -28.3037  -25.1993   19.7953 C   0  0  0  0  0  0  0  0  0  0  0  0
  -23.2154  -17.5422   22.7362 C   0  0  0  0  0  0  0  0  0  0  0  0
  -27.1918  -27.2624   19.9676 C   0  0  0  0  0  0  0  0  0  0  0  0
  -24.8732  -28.6903   20.5744 C   0  0  0  0  0  0  0  0  0  0  0  0
  -26.0169  -27.0194   19.2562 C   0  0  0  0  0  0  0  0  0  0  0  0
  -28.1812  -20.9888   20.1887 C   0  0  0  0  0  0  0  0  0  0  0  0
  -24.5221  -14.4642   20.0504 C   0  0  0  0  0  0  0  0  0  0  0  0
  -27.5287  -18.9005   20.4072 C   0  0  0  0  0  0  0  0  0  0  0  0
  -26.4648  -13.6153   20.8282 C   0  0  0  0  0  0  0  0  0  0  0  0
  -25.6512  -20.5490   20.3311 C   0  0  0  0  0  0  0  0  0  0  0  0
  -22.9057  -22.7634   24.1879 C   0  0  0  0  0  0  0  0  0  0  0  0
  -24.9603  -22.1049   26.6101 C   0  0  0  0  0  0  0  0  0  0  0  0
  -26.8894  -19.8005   28.2272 C   0  0  0  0  0  0  0  0  0  0  0  0
  -31.1712  -15.1071   18.2486 C   0  0  0  0  0  0  0  0  0  0  0  0
  -21.1850  -27.5627   23.9352 C   0  0  0  0  0  0  0  0  0  0  0  0
  -21.8137  -20.7498   25.2407 C   0  0  0  0  0  0  0  0  0  0  0  0
  -24.7126  -20.3361   24.8282 C   0  0  0  0  0  0  0  0  0  0  0  0
  -22.4841  -26.8902   24.3715 C   0  0  0  0  0  0  0  0  0  0  0  0
  -32.2358  -17.2107   21.1022 C   0  0  0  0  0  0  0  0  0  0  0  0
  -22.9523  -25.8963   23.3133 C   0  0  0  0  0  0  0  0  0  0  0  0
  -31.2173  -18.3491   21.0750 C   0  0  0  0  0  0  0  0  0  0  0  0
  -32.4602  -16.6172   19.7147 C   0  0  0  0  0  0  0  0  0  0  0  0
  -30.1920  -17.3090   19.0141 C   0  0  0  0  0  0  0  0  0  0  0  0
  -21.9215  -24.7791   23.1113 C   0  0  1  0  0  0  0  0  0  0  0  0
  -22.8184  -21.8861   25.4045 C   0  0  1  0  0  0  0  0  0  0  0  0
  -29.9082  -17.8982   20.4040 C   0  0  2  0  0  0  0  0  0  0  0  0
  -28.4847  -19.5682   30.1504 C   0  0  0  0  0  0  0  0  0  0  0  0
  -27.1415  -23.4591   24.9612 C   0  0  0  0  0  0  0  0  0  0  0  0
  -28.8403  -22.3789   26.4497 C   0  0  0  0  0  0  0  0  0  0  0  0
  -27.1962  -23.9943   27.4036 C   0  0  0  0  0  0  0  0  0  0  0  0
  -29.8984  -13.1976   17.3467 C   0  0  0  0  0  0  0  0  0  0  0  0
  -25.1405  -17.8416   29.5922 C   0  0  0  0  0  0  0  0  0  0  0  0
  -23.6584  -15.6505   19.6969 C   0  0  0  0  0  0  0  0  0  0  0  0
  -27.8360  -13.8279   21.3707 C   0  0  0  0  0  0  0  0  0  0  0  0
  -28.9675  -13.6460   20.3388 C   0  0  0  0  0  0  0  0  0  0  0  0
  -28.8596  -14.5610   19.1208 C   0  0  0  0  0  0  0  0  0  0  0  0
  -22.8097  -16.1207   20.8732 C   0  0  0  0  0  0  0  0  0  1  0  0
  -26.4108  -21.6963   26.7004 C   0  0  1  0  0  0  0  0  0  0  0  0
  -27.0357  -19.4650   29.7005 C   0  0  2  0  0  0  0  0  0  0  0  0
  -27.3781  -22.8664   26.3647 C   0  0  0  0  0  0  0  0  0  0  0  0
  -24.8172  -12.1249   20.1983 N   0  0  0  0  0  0  0  0  0  0  0  0
  -29.3157  -20.2841   20.2080 N   0  0  0  0  0  0  0  0  0  0  0  0
  -25.7500  -14.7108   20.5314 N   0  0  0  0  0  0  0  0  0  0  0  0
  -26.0573  -12.3388   20.6849 N   0  0  0  0  0  0  0  0  0  0  0  0
  -28.8859  -19.0179   20.3420 N   0  0  0  0  0  0  0  0  0  0  0  0
  -24.1735  -21.4065   25.6833 N   0  0  0  0  0  0  0  0  0  0  0  0
  -31.1965  -16.2371   19.0824 N   0  0  0  0  0  0  0  0  0  0  0  0
  -26.9288  -17.6986   20.5419 N   0  0  0  0  0  0  0  0  0  0  0  0
  -24.9564  -20.6086   19.1154 N   0  0  0  0  0  0  0  0  0  0  0  0
  -22.0066  -23.8127   24.1851 N   0  0  0  0  0  0  0  0  0  0  0  0
  -26.5941  -21.1334   28.0338 N   0  0  0  0  0  0  0  0  0  0  0  0
  -29.9706  -14.3834   18.1884 N   0  0  0  0  0  0  0  0  0  0  0  0
  -26.5588  -18.0783   29.9658 N   0  3  0  0  0  0  0  0  0  0  0  0
  -25.0519  -20.8348   21.3954 O   0  0  0  0  0  0  0  0  0  0  0  0
  -23.7290  -22.5082   23.3168 O   0  0  0  0  0  0  0  0  0  0  0  0
  -24.5392  -23.0056   27.3402 O   0  0  0  0  0  0  0  0  0  0  0  0
  -27.0273  -18.9646   27.3369 O   0  0  0  0  0  0  0  0  0  0  0  0
  -32.1679  -14.7591   17.6025 O   0  0  0  0  0  0  0  0  0  0  0  0
  -28.3433  -26.5539   19.6682 O   0  0  0  0  0  0  0  0  0  0  0  0
  -23.6569  -16.5244   21.9483 O   0  0  0  0  0  0  0  0  0  1  0  0
  -23.7597  -29.3748   20.8668 F   0  0  0  0  0  0  0  0  0  0  0  0
  -25.9954  -26.1006   18.2810 F   0  0  0  0  0  0  0  0  0  0  0  0
  1  2  1  0  0  0  0
  1  5  2  0  0  0  0
  2  6  2  0  0  0  0
  3  8  2  0  0  0  0
  3 16  1  0  0  0  0
  4  9  1  0  0  0  0
  4 16  2  0  0  0  0
  5 18  1  0  0  0  0
  6 20  1  0  0  0  0
  7 10  2  0  0  0  0
  7 19  1  0  0  0  0
  8 22  1  0  0  0  0
  9 22  2  0  0  0  0
 10 23  1  0  0  0  0
 11 12  2  0  0  0  0
 11 24  1  0  0  0  0
 12 25  1  0  0  0  0
 13 21  1  0  0  0  0
 13 23  2  0  0  0  0
 14 25  2  0  0  0  0
 14 26  1  0  0  0  0
 15 28  1  0  0  0  0
 15 62  2  0  0  0  0
 16 27  1  0  0  0  0
 17 27  1  0  0  0  0
 17 29  2  0  0  0  0
 17 31  1  0  0  0  0
 18 20  2  0  0  0  0
 18 36  1  0  0  0  0
 19 21  2  0  0  0  0
 19 37  1  0  0  0  0
 20 45  1  0  0  0  0
 21 38  1  0  0  0  0
 22 80  1  0  0  0  0
 23 81  1  0  0  0  0
 24 26  2  0  0  0  0
 24 80  1  0  0  0  0
 25 82  1  0  0  0  0
 26 83  1  0  0  0  0
 27 63  2  0  0  0  0
 28 54  1  0  0  0  0
 28 64  2  0  0  0  0
 29 66  1  0  0  0  0
 29 69  1  0  0  0  0
 30 55  1  0  0  0  0
 30 64  1  0  0  0  0
 30 65  2  0  0  0  0
 31 70  1  0  0  0  0
 31 75  2  0  0  0  0
 32 46  1  0  0  0  0
 32 71  1  0  0  0  0
 32 76  2  0  0  0  0
 33 59  1  0  0  0  0
 33 67  1  0  0  0  0
 33 77  2  0  0  0  0
 34 60  1  0  0  0  0
 34 72  1  0  0  0  0
 34 78  2  0  0  0  0
 35 68  1  0  0  0  0
 35 73  1  0  0  0  0
 35 79  2  0  0  0  0
 36 39  1  0  0  0  0
 37 46  1  0  0  0  0
 38 67  1  0  0  0  0
 39 41  1  0  0  0  0
 40 42  1  0  0  0  0
 40 43  1  0  0  0  0
 41 45  1  0  0  0  0
 42 47  1  0  0  0  0
 43 68  1  0  0  0  0
 44 47  1  0  0  0  0
 44 68  1  0  0  0  0
 45 71  1  0  0  0  0
 46 67  1  0  0  0  0
 47 66  1  0  0  0  0
 48 60  1  0  0  0  0
 49 61  1  0  0  0  0
 50 61  1  0  0  0  0
 51 61  1  0  0  0  0
 52 73  1  0  0  0  0
 53 74  1  0  0  0  0
 54 58  1  0  0  0  0
 55 56  1  0  0  0  0
 56 57  1  0  0  0  0
 57 73  1  0  0  0  0
 58 81  1  0  0  0  0
 59 61  1  0  0  0  0
 59 72  1  0  0  0  0
 60 74  1  0  0  0  0
 62 65  1  0  0  0  0
 63 66  1  0  0  0  0
M  CHG  1  74   1
M  ISO  4  35 100  58 101  73 100  81 101
M  END
> <Batch ID>
0059

> <Smiles>
CNC(C)C(=O)NC(C(=O)N1Cc2cc([101O:1][101CH2:1]Cc3cnnc(CCC[100N:0](C)[100C:0](=O)N4CCCC(n5nc(-c6ccc(Oc7ccc(F)cc7F)cc6)c(C(N)=O)c5N)C4)n3)ccc2CC1C(=O)NC1CCCc2ccccc21)C(C)(C)C

> <Shape>
0.198

> <Color>
0.092

> <Negative vol penalty>
0.000

$$$$

  -OEChem-04052317533D

 85 93  0     1  0  0  0  0  0999 V2000
  -30.3478  -33.0399   23.2003 C   0  0  0  0  0  0  0  0  0  0  0  0
  -30.6510  -31.7143   22.9067 C   0  0  0  0  0  0  0  0  0  0  0  0
  -23.9967   -9.4329   21.3602 C   0  0  0  0  0  0  0  0  0  0  0  0
  -24.6419  -10.4843   23.4375 C   0  0  0  0  0  0  0  0  0  0  0  0
  -29.3421  -33.3367   24.1192 C   0  0  0  0  0  0  0  0  0  0  0  0
  -29.9493  -30.6846   23.5327 C   0  0  0  0  0  0  0  0  0  0  0  0
  -27.5336  -24.0466   22.3422 C   0  0  0  0  0  0  0  0  0  0  0  0
  -23.5761   -8.3035   22.0624 C   0  0  0  0  0  0  0  0  0  0  0  0
  -24.2212   -9.3549   24.1398 C   0  0  0  0  0  0  0  0  0  0  0  0
  -27.5642  -22.7719   22.9063 C   0  0  0  0  0  0  0  0  0  0  0  0
  -20.8924   -7.3643   23.8924 C   0  0  0  0  0  0  0  0  0  0  0  0
  -19.6634   -6.8045   23.5435 C   0  0  0  0  0  0  0  0  0  0  0  0
  -25.7934  -23.4047   24.4173 C   0  0  0  0  0  0  0  0  0  0  0  0
  -20.7665   -4.7273   22.9907 C   0  0  0  0  0  0  0  0  0  0  0  0
  -26.6099  -19.0631   27.1811 C   0  0  0  0  0  0  0  0  0  0  0  0
  -24.5296  -10.5233   22.0477 C   0  0  0  0  0  0  0  0  0  0  0  0
  -24.1946  -12.8204   20.9901 C   0  0  0  0  0  0  0  0  0  0  0  0
  -28.6212  -32.3102   24.7496 C   0  0  0  0  0  0  0  0  0  0  0  0
  -26.6386  -25.0149   22.8196 C   0  0  0  0  0  0  0  0  0  0  0  0
  -28.9339  -30.9679   24.4619 C   0  0  0  0  0  0  0  0  0  0  0  0
  -25.7517  -24.6900   23.8559 C   0  0  0  0  0  0  0  0  0  0  0  0
  -23.6883   -8.2645   23.4522 C   0  0  0  0  0  0  0  0  0  0  0  0
  -26.6960  -22.4517   23.9459 C   0  0  0  0  0  0  0  0  0  0  0  0
  -22.0585   -6.6057   23.7903 C   0  0  0  0  0  0  0  0  0  0  0  0
  -19.6005   -5.4860   23.0927 C   0  0  0  0  0  0  0  0  0  0  0  0
  -21.9956   -5.2872   23.3395 C   0  0  0  0  0  0  0  0  0  0  0  0
  -24.9648  -11.6900   21.3228 C   0  0  0  0  0  0  0  0  0  0  0  0
  -26.0113  -19.5459   26.0517 C   0  0  0  0  0  0  0  0  0  0  0  0
  -25.0619  -13.6382   20.3078 C   0  0  0  0  0  0  0  0  0  0  0  0
  -25.8807  -17.3366   26.0031 C   0  0  0  0  0  0  0  0  0  0  0  0
  -22.8182  -13.1058   21.2726 C   0  0  0  0  0  0  0  0  0  0  0  0
  -26.9407  -27.8690   24.1859 C   0  0  0  0  0  0  0  0  0  0  0  0
  -23.7119  -27.9254   23.8785 C   0  0  0  0  0  0  0  0  0  0  0  0
  -20.8004  -26.1728   23.5648 C   0  0  0  0  0  0  0  0  0  0  0  0
  -30.8369  -14.9033   20.6718 C   0  0  0  0  0  0  0  0  0  0  0  0
  -27.5749  -32.6796   25.7712 C   0  0  0  0  0  0  0  0  0  0  0  0
  -26.5997  -26.3769   22.1825 C   0  0  0  0  0  0  0  0  0  0  0  0
  -24.7578  -25.6873   24.3909 C   0  0  0  0  0  0  0  0  0  0  0  0
  -26.6241  -31.5346   26.1105 C   0  0  0  0  0  0  0  0  0  0  0  0
  -29.3167  -12.9891   17.8921 C   0  0  0  0  0  0  0  0  0  0  0  0
  -27.4047  -30.2474   26.3561 C   0  0  0  0  0  0  0  0  0  0  0  0
  -28.0000  -12.5084   18.4997 C   0  0  0  0  0  0  0  0  0  0  0  0
  -30.3932  -13.1865   18.9550 C   0  0  0  0  0  0  0  0  0  0  0  0
  -28.6669  -13.6055   20.6750 C   0  0  0  0  0  0  0  0  0  0  0  0
  -28.1783  -29.8235   25.1018 C   0  0  1  0  0  0  0  0  0  0  0  0
  -26.0013  -27.4452   23.0924 C   0  0  1  0  0  0  0  0  0  0  0  0
  -27.5473  -13.4414   19.6362 C   0  0  2  0  0  0  0  0  0  0  0  0
  -18.3189  -26.4935   23.3737 C   0  0  0  0  0  0  0  0  0  0  0  0
  -23.5637  -28.5385   26.8638 C   0  0  0  0  0  0  0  0  0  0  0  0
  -21.1407  -27.9113   26.8014 C   0  0  0  0  0  0  0  0  0  0  0  0
  -21.9630  -29.8405   25.4507 C   0  0  0  0  0  0  0  0  0  0  0  0
  -27.0224  -16.7808   28.1299 C   0  0  0  0  0  0  0  0  0  0  0  0
  -31.2533  -16.6343   22.3776 C   0  0  0  0  0  0  0  0  0  0  0  0
  -26.5245  -13.8094   25.0543 C   0  0  0  0  0  0  0  0  0  0  0  0
  -20.7200  -24.8719   20.9077 C   0  0  0  0  0  0  0  0  0  0  0  0
  -25.8069  -20.9488   25.5604 C   0  0  0  0  0  0  0  0  0  1  0  0
  -25.5692  -15.9563   25.5553 C   0  0  0  0  0  0  0  0  0  0  0  0
  -28.5329  -15.4725   23.3838 C   0  0  0  0  0  0  0  0  0  0  0  0
  -28.9252  -15.9221   21.9795 C   0  0  0  0  0  0  0  0  0  0  0  0
  -27.0510  -15.7087   23.6803 C   0  0  0  0  0  0  0  0  0  0  0  0
  -22.5487  -27.4874   24.7352 C   0  0  1  0  0  0  0  0  0  0  0  0
  -19.6269  -26.3310   22.6150 C   0  0  2  0  0  0  0  0  0  0  0  0
  -22.3240  -28.4260   25.9543 C   0  0  0  0  0  0  0  0  0  0  0  0
  -26.2245  -11.7781   20.8876 N   0  0  0  0  0  0  0  0  0  0  0  0
  -26.5141  -17.6935   27.1251 N   0  0  0  0  0  0  0  0  0  0  0  0
  -26.2524  -12.9736   20.2743 N   0  0  0  0  0  0  0  0  0  0  0  0
  -25.5696  -18.4558   25.3413 N   0  3  0  0  0  0  0  0  0  0  0  0
  -24.7627  -27.0075   23.7394 N   0  0  0  0  0  0  0  0  0  0  0  0
  -29.9217  -14.0420   20.0445 N   0  0  0  0  0  0  0  0  0  0  0  0
  -24.9146  -14.8536   19.7391 N   0  0  0  0  0  0  0  0  0  0  0  0
  -22.0714  -12.1568   21.9840 N   0  0  0  0  0  0  0  0  0  0  0  0
  -27.2873  -29.2059   24.1431 N   0  0  0  0  0  0  0  0  0  0  0  0
  -21.4001  -27.3831   23.8417 N   0  0  0  0  0  0  0  0  0  0  0  0
  -30.3455  -15.7163   21.7044 N   0  0  0  0  0  0  0  0  0  0  0  0
  -26.7280  -15.2643   25.0428 N   0  0  2  0  0  0  0  0  0  0  0  0
  -19.5118  -25.1371   21.7305 N   0  3  0  0  0  0  0  0  0  0  0  0
  -22.2624  -14.1636   20.8908 O   0  0  0  0  0  0  0  0  0  0  0  0
  -27.3216  -27.0443   25.0084 O   0  0  0  0  0  0  0  0  0  0  0  0
  -23.6860  -29.0379   23.3464 O   0  0  0  0  0  0  0  0  0  0  0  0
  -21.1479  -25.0848   24.0189 O   0  0  0  0  0  0  0  0  0  0  0  0
  -32.0232  -14.9502   20.3220 O   0  0  0  0  0  0  0  0  0  0  0  0
  -23.2778   -7.1627   24.1378 O   0  0  0  0  0  0  0  0  0  0  0  0
  -26.7243  -21.2085   24.4987 O   0  0  0  0  0  0  0  0  0  1  0  0
  -18.4200   -4.9480   22.7592 F   0  0  0  0  0  0  0  0  0  0  0  0
  -23.1123   -4.5531   23.2406 F   0  0  0  0  0  0  0  0  0  0  0  0
  1  2  1  0  0  0  0
  1  5  2  0  0  0  0
  2  6  2  0  0  0  0
  3  8  2  0  0  0  0
  3 16  1  0  0  0  0
  4  9  1  0  0  0  0
  4 16  2  0  0  0  0
  5 18  1  0  0  0  0
  6 20  1  0  0  0  0
  7 10  2  0  0  0  0
  7 19  1  0  0  0  0
  8 22  1  0  0  0  0
  9 22  2  0  0  0  0
 10 23  1  0  0  0  0
 11 12  2  0  0  0  0
 11 24  1  0  0  0  0
 12 25  1  0  0  0  0
 13 21  1  0  0  0  0
 13 23  2  0  0  0  0
 14 25  2  0  0  0  0
 14 26  1  0  0  0  0
 15 28  2  0  0  0  0
 15 65  1  0  0  0  0
 16 27  1  0  0  0  0
 17 27  1  0  0  0  0
 17 29  2  0  0  0  0
 17 31  1  0  0  0  0
 18 20  2  0  0  0  0
 18 36  1  0  0  0  0
 19 21  2  0  0  0  0
 19 37  1  0  0  0  0
 20 45  1  0  0  0  0
 21 38  1  0  0  0  0
 22 82  1  0  0  0  0
 23 83  1  0  0  0  0
 24 26  2  0  0  0  0
 24 82  1  0  0  0  0
 25 84  1  0  0  0  0
 26 85  1  0  0  0  0
 27 64  2  0  0  0  0
 28 56  1  0  0  0  0
 28 67  1  0  0  0  0
 29 66  1  0  0  0  0
 29 70  1  0  0  0  0
 30 57  1  0  0  0  0
 30 65  1  0  0  0  0
 30 67  2  0  0  0  0
 31 71  1  0  0  0  0
 31 77  2  0  0  0  0
 32 46  1  0  0  0  0
 32 72  1  0  0  0  0
 32 78  2  0  0  0  0
 33 61  1  0  0  0  0
 33 68  1  0  0  0  0
 33 79  2  0  0  0  0
 34 62  1  0  0  0  0
 34 73  1  0  0  0  0
 34 80  2  0  0  0  0
 35 69  1  0  0  0  0
 35 74  1  0  0  0  0
 35 81  2  0  0  0  0
 36 39  1  0  0  0  0
 37 46  1  0  0  0  0
 38 68  1  0  0  0  0
 39 41  1  0  0  0  0
 40 42  1  0  0  0  0
 40 43  1  0  0  0  0
 41 45  1  0  0  0  0
 42 47  1  0  0  0  0
 43 69  1  0  0  0  0
 44 47  1  0  0  0  0
 44 69  1  0  0  0  0
 45 72  1  0  0  0  0
 46 68  1  0  0  0  0
 47 66  1  0  0  0  0
 48 62  1  0  0  0  0
 49 63  1  0  0  0  0
 50 63  1  0  0  0  0
 51 63  1  0  0  0  0
 52 65  1  0  0  0  0
 53 74  1  0  0  0  0
 54 75  1  0  0  0  0
 55 76  1  0  0  0  0
 56 83  1  0  0  0  0
 57 75  1  0  0  0  0
 58 59  1  0  0  0  0
 58 60  1  0  0  0  0
 59 74  1  0  0  0  0
 60 75  1  0  0  0  0
 61 63  1  0  0  0  0
 61 73  1  0  0  0  0
 62 76  1  0  0  0  0
 64 66  1  0  0  0  0
M  CHG  2  67   1  76   1
M  ISO  4  35 100  56 101  74 100  83 101
M  END
> <Batch ID>
0059

> <Smiles>
CNC(C)C(=O)NC(C(=O)N1Cc2cc([101O:1][101CH2:1]c3cn(C)c(CN(C)CCC[100N:0](C)[100C:0](=O)N4CCCC(n5nc(-c6ccc(Oc7ccc(F)cc7F)cc6)c(C(N)=O)c5N)C4)n3)ccc2CC1C(=O)NC1CCCc2ccccc21)C(C)(C)C

> <Shape>
0.225

> <Color>
0.139

> <Negative vol penalty>
0.000

$$$$

  -OEChem-04052317533D

 82 90  0     1  0  0  0  0  0999 V2000
  -19.0849  -33.8320   21.2240 C   0  0  0  0  0  0  0  0  0  0  0  0
  -20.4518  -33.6227   21.0719 C   0  0  0  0  0  0  0  0  0  0  0  0
  -25.7837  -15.3589   20.3607 C   0  0  0  0  0  0  0  0  0  0  0  0
  -28.0683  -14.7492   19.8648 C   0  0  0  0  0  0  0  0  0  0  0  0
  -18.3344  -32.9738   22.0266 C   0  0  0  0  0  0  0  0  0  0  0  0
  -21.0693  -32.5555   21.7233 C   0  0  0  0  0  0  0  0  0  0  0  0
  -25.7514  -29.1924   19.6563 C   0  0  0  0  0  0  0  0  0  0  0  0
  -25.4636  -14.0133   20.5405 C   0  0  0  0  0  0  0  0  0  0  0  0
  -27.7482  -13.4035   20.0446 C   0  0  0  0  0  0  0  0  0  0  0  0
  -27.1224  -29.2400   19.9052 C   0  0  0  0  0  0  0  0  0  0  0  0
  -24.7976  -11.3304   18.5955 C   0  0  0  0  0  0  0  0  0  0  0  0
  -23.6220  -10.8608   18.0099 C   0  0  0  0  0  0  0  0  0  0  0  0
  -26.8707  -27.5272   21.5851 C   0  0  0  0  0  0  0  0  0  0  0  0
  -22.7840  -10.2406   20.1894 C   0  0  0  0  0  0  0  0  0  0  0  0
  -29.2893  -26.0739   18.2067 C   0  0  0  0  0  0  0  0  0  0  0  0
  -27.0860  -15.7269   20.0228 C   0  0  0  0  0  0  0  0  0  0  0  0
  -27.8712  -18.0212   20.8150 C   0  0  0  0  0  0  0  0  0  0  0  0
  -18.9413  -31.8899   22.6805 C   0  0  0  0  0  0  0  0  0  0  0  0
  -24.9267  -28.3181   20.3787 C   0  0  0  0  0  0  0  0  0  0  0  0
  -20.3265  -31.6828   22.5366 C   0  0  0  0  0  0  0  0  0  0  0  0
  -25.4899  -27.4686   21.3416 C   0  0  0  0  0  0  0  0  0  0  0  0
  -26.4458  -13.0356   20.3825 C   0  0  0  0  0  0  0  0  0  0  0  0
  -27.6818  -28.4094   20.8718 C   0  0  0  0  0  0  0  0  0  0  0  0
  -24.9665  -11.2550   19.9781 C   0  0  0  0  0  0  0  0  0  0  0  0
  -22.6152  -10.3159   18.8068 C   0  0  0  0  0  0  0  0  0  0  0  0
  -23.9596  -10.7102   20.7750 C   0  0  0  0  0  0  0  0  0  0  0  0
  -27.4172  -17.1168   19.8363 C   0  0  0  0  0  0  0  0  0  0  0  0
  -28.0406  -19.2038   20.1374 C   0  0  0  0  0  0  0  0  0  0  0  0
  -29.9984  -24.1155   18.0685 C   0  0  0  0  0  0  0  0  0  0  0  0
  -28.1178  -17.8110   22.2116 C   0  0  0  0  0  0  0  0  0  0  0  0
  -22.4693  -28.6777   22.3625 C   0  0  0  0  0  0  0  0  0  0  0  0
  -22.3614  -25.4401   22.1935 C   0  0  0  0  0  0  0  0  0  0  0  0
  -24.0090  -22.5142   21.5839 C   0  0  0  0  0  0  0  0  0  0  0  0
  -30.1747  -21.6689   15.4805 C   0  0  0  0  0  0  0  0  0  0  0  0
  -18.0975  -31.0172   23.5755 C   0  0  0  0  0  0  0  0  0  0  0  0
  -23.4538  -28.2598   20.0795 C   0  0  0  0  0  0  0  0  0  0  0  0
  -24.6511  -26.4977   22.1304 C   0  0  0  0  0  0  0  0  0  0  0  0
  -18.7602  -29.6889   23.9314 C   0  0  0  0  0  0  0  0  0  0  0  0
  -26.6351  -20.5859   15.4888 C   0  0  0  0  0  0  0  0  0  0  0  0
  -20.2097  -29.9111   24.3513 C   0  0  0  0  0  0  0  0  0  0  0  0
  -26.5890  -19.6071   16.6609 C   0  0  0  0  0  0  0  0  0  0  0  0
  -28.0200  -20.6426   14.8513 C   0  0  0  0  0  0  0  0  0  0  0  0
  -29.0682  -19.9653   16.9860 C   0  0  0  0  0  0  0  0  0  0  0  0
  -21.0280  -30.5217   23.2071 C   0  0  1  0  0  0  0  0  0  0  0  0
  -22.6312  -27.6979   21.2349 C   0  0  1  0  0  0  0  0  0  0  0  0
  -27.6986  -19.9189   17.6800 C   0  0  2  0  0  0  0  0  0  0  0  0
  -31.0079  -21.9482   18.8718 C   0  0  0  0  0  0  0  0  0  0  0  0
  -23.6669  -20.0283   21.5626 C   0  0  0  0  0  0  0  0  0  0  0  0
  -22.4638  -25.4023   25.2428 C   0  0  0  0  0  0  0  0  0  0  0  0
  -23.0732  -22.9769   25.1228 C   0  0  0  0  0  0  0  0  0  0  0  0
  -20.8769  -23.7549   24.2318 C   0  0  0  0  0  0  0  0  0  0  0  0
  -31.9339  -23.2610   16.1515 C   0  0  0  0  0  0  0  0  0  0  0  0
  -24.6533  -22.3335   18.7010 C   0  0  0  0  0  0  0  0  0  0  0  0
  -31.0813  -27.2282   21.0692 C   0  0  0  0  0  0  0  0  0  0  0  0
  -31.2015  -27.2648   19.5441 C   0  0  0  0  0  0  0  0  0  0  0  0
  -29.6391  -27.2482   21.5621 C   0  0  0  0  0  0  0  0  0  1  0  0
  -30.1833  -22.6932   17.7943 C   0  0  2  0  0  0  0  0  0  0  0  0
  -22.9942  -24.3075   22.9654 C   0  0  1  0  0  0  0  0  0  0  0  0
  -23.6400  -21.3073   20.7403 C   0  0  2  0  0  0  0  0  0  0  0  0
  -22.3678  -24.1300   24.3774 C   0  0  0  0  0  0  0  0  0  0  0  0
  -28.9664  -24.8435   17.7101 N   0  0  0  0  0  0  0  0  0  0  0  0
  -27.3051  -17.6769   18.6290 N   0  0  0  0  0  0  0  0  0  0  0  0
  -30.8894  -24.8873   18.7470 N   0  0  0  0  0  0  0  0  0  0  0  0
  -30.4563  -26.1530   18.8497 N   0  0  0  0  0  0  0  0  0  0  0  0
  -27.6910  -18.9460   18.8445 N   0  0  0  0  0  0  0  0  0  0  0  0
  -23.2152  -26.4825   21.8059 N   0  0  0  0  0  0  0  0  0  0  0  0
  -29.0602  -20.8974   15.8486 N   0  0  0  0  0  0  0  0  0  0  0  0
  -28.4529  -20.4287   20.5273 N   0  0  0  0  0  0  0  0  0  0  0  0
  -27.8923  -16.5348   22.7453 N   0  0  0  0  0  0  0  0  0  0  0  0
  -21.3715  -29.5070   22.2340 N   0  0  0  0  0  0  0  0  0  0  0  0
  -22.8934  -23.1269   22.1143 N   0  0  0  0  0  0  0  0  0  0  0  0
  -30.7821  -22.4356   16.4865 N   0  0  0  0  0  0  0  0  0  0  0  0
  -24.5947  -21.1568   19.6059 N   0  3  0  0  0  0  0  0  0  0  0  0
  -28.5104  -18.7319   22.9675 O   0  0  0  0  0  0  0  0  0  0  0  0
  -23.2795  -28.6800   23.2819 O   0  0  0  0  0  0  0  0  0  0  0  0
  -21.1554  -25.3978   21.9375 O   0  0  0  0  0  0  0  0  0  0  0  0
  -25.1709  -22.8750   21.7582 O   0  0  0  0  0  0  0  0  0  0  0  0
  -30.5965  -21.6796   14.3170 O   0  0  0  0  0  0  0  0  0  0  0  0
  -26.1339  -11.7224   20.5581 O   0  0  0  0  0  0  0  0  0  0  0  0
  -29.0195  -28.4543   21.1172 O   0  0  0  0  0  0  0  0  0  1  0  0
  -21.4856   -9.8664   18.2444 F   0  0  0  0  0  0  0  0  0  0  0  0
  -24.1156  -10.6362   22.1039 F   0  0  0  0  0  0  0  0  0  0  0  0
  1  2  1  0  0  0  0
  1  5  2  0  0  0  0
  2  6  2  0  0  0  0
  3  8  2  0  0  0  0
  3 16  1  0  0  0  0
  4  9  1  0  0  0  0
  4 16  2  0  0  0  0
  5 18  1  0  0  0  0
  6 20  1  0  0  0  0
  7 10  2  0  0  0  0
  7 19  1  0  0  0  0
  8 22  1  0  0  0  0
  9 22  2  0  0  0  0
 10 23  1  0  0  0  0
 11 12  2  0  0  0  0
 11 24  1  0  0  0  0
 12 25  1  0  0  0  0
 13 21  1  0  0  0  0
 13 23  2  0  0  0  0
 14 25  2  0  0  0  0
 14 26  1  0  0  0  0
 15 61  2  0  0  0  0
 15 64  1  0  0  0  0
 16 27  1  0  0  0  0
 17 27  1  0  0  0  0
 17 28  2  0  0  0  0
 17 30  1  0  0  0  0
 18 20  2  0  0  0  0
 18 35  1  0  0  0  0
 19 21  2  0  0  0  0
 19 36  1  0  0  0  0
 20 44  1  0  0  0  0
 21 37  1  0  0  0  0
 22 79  1  0  0  0  0
 23 80  1  0  0  0  0
 24 26  2  0  0  0  0
 24 79  1  0  0  0  0
 25 81  1  0  0  0  0
 26 82  1  0  0  0  0
 27 62  2  0  0  0  0
 28 65  1  0  0  0  0
 28 68  1  0  0  0  0
 29 57  1  0  0  0  0
 29 61  1  0  0  0  0
 29 63  2  0  0  0  0
 30 69  1  0  0  0  0
 30 74  2  0  0  0  0
 31 45  1  0  0  0  0
 31 70  1  0  0  0  0
 31 75  2  0  0  0  0
 32 58  1  0  0  0  0
 32 66  1  0  0  0  0
 32 76  2  0  0  0  0
 33 59  1  0  0  0  0
 33 71  1  0  0  0  0
 33 77  2  0  0  0  0
 34 67  1  0  0  0  0
 34 72  1  0  0  0  0
 34 78  2  0  0  0  0
 35 38  1  0  0  0  0
 36 45  1  0  0  0  0
 37 66  1  0  0  0  0
 38 40  1  0  0  0  0
 39 41  1  0  0  0  0
 39 42  1  0  0  0  0
 40 44  1  0  0  0  0
 41 46  1  0  0  0  0
 42 67  1  0  0  0  0
 43 46  1  0  0  0  0
 43 67  1  0  0  0  0
 44 70  1  0  0  0  0
 45 66  1  0  0  0  0
 46 65  1  0  0  0  0
 47 57  1  0  0  0  0
 48 59  1  0  0  0  0
 49 60  1  0  0  0  0
 50 60  1  0  0  0  0
 51 60  1  0  0  0  0
 52 72  1  0  0  0  0
 53 73  1  0  0  0  0
 54 55  1  0  0  0  0
 54 56  1  0  0  0  0
 55 64  1  0  0  0  0
 56 80  1  0  0  0  0
 57 72  1  0  0  0  0
 58 60  1  0  0  0  0
 58 71  1  0  0  0  0
 59 73  1  0  0  0  0
 62 65  1  0  0  0  0
 63 64  1  0  0  0  0
M  CHG  1  73   1
M  ISO  4  34 100  56 101  72 100  80 101
M  END
> <Batch ID>
0059

> <Smiles>
CNC(C)C(=O)NC(C(=O)N1Cc2cc([101O:1][101CH2:1]CCn3cnc(C(C)[100N:0](C)[100C:0](=O)N4CCCC(n5nc(-c6ccc(Oc7ccc(F)cc7F)cc6)c(C(N)=O)c5N)C4)n3)ccc2CC1C(=O)NC1CCCc2ccccc21)C(C)(C)C

> <Shape>
0.225

> <Color>
0.088

> <Negative vol penalty>
0.000

$$$$

  -OEChem-04052317533D

 85 93  0     1  0  0  0  0  0999 V2000
  -39.9326  -25.1323   17.0811 C   0  0  0  0  0  0  0  0  0  0  0  0
  -38.9576  -24.2978   17.6182 C   0  0  0  0  0  0  0  0  0  0  0  0
  -23.2015   -9.8496   19.9525 C   0  0  0  0  0  0  0  0  0  0  0  0
  -23.9059   -9.9337   22.2620 C   0  0  0  0  0  0  0  0  0  0  0  0
  -40.9601  -25.6136   17.8914 C   0  0  0  0  0  0  0  0  0  0  0  0
  -39.0102  -23.9432   18.9657 C   0  0  0  0  0  0  0  0  0  0  0  0
  -34.4948  -24.2622   21.2361 C   0  0  0  0  0  0  0  0  0  0  0  0
  -22.5089   -8.6658   20.2068 C   0  0  0  0  0  0  0  0  0  0  0  0
  -23.2132   -8.7500   22.5164 C   0  0  0  0  0  0  0  0  0  0  0  0
  -33.5917  -23.2253   21.0059 C   0  0  0  0  0  0  0  0  0  0  0  0
  -20.0144   -7.8054   23.0601 C   0  0  0  0  0  0  0  0  0  0  0  0
  -19.2329   -7.7487   24.2141 C   0  0  0  0  0  0  0  0  0  0  0  0
  -34.1789  -22.2499   23.1327 C   0  0  0  0  0  0  0  0  0  0  0  0
  -20.5494   -5.8876   25.0143 C   0  0  0  0  0  0  0  0  0  0  0  0
  -33.1939  -18.0383   21.2852 C   0  0  0  0  0  0  0  0  0  0  0  0
  -23.9000  -10.4835   20.9801 C   0  0  0  0  0  0  0  0  0  0  0  0
  -24.1214  -13.0199   20.8211 C   0  0  0  0  0  0  0  0  0  0  0  0
  -41.0198  -25.2725   19.2518 C   0  0  0  0  0  0  0  0  0  0  0  0
  -35.2559  -24.2950   22.4134 C   0  0  0  0  0  0  0  0  0  0  0  0
  -40.0402  -24.4193   19.7947 C   0  0  0  0  0  0  0  0  0  0  0  0
  -35.0891  -23.2897   23.3765 C   0  0  0  0  0  0  0  0  0  0  0  0
  -22.5148   -8.1161   21.4888 C   0  0  0  0  0  0  0  0  0  0  0  0
  -33.4357  -22.2174   21.9530 C   0  0  0  0  0  0  0  0  0  0  0  0
  -21.0634   -6.9031   22.8832 C   0  0  0  0  0  0  0  0  0  0  0  0
  -19.5004   -6.7899   25.1912 C   0  0  0  0  0  0  0  0  0  0  0  0
  -21.3309   -5.9442   23.8603 C   0  0  0  0  0  0  0  0  0  0  0  0
  -24.6161  -11.7060   20.7179 C   0  0  0  0  0  0  0  0  0  0  0  0
  -31.9074  -18.4428   21.0661 C   0  0  0  0  0  0  0  0  0  0  0  0
  -25.1840  -13.8156   20.4689 C   0  0  0  0  0  0  0  0  0  0  0  0
  -31.8436  -16.5762   22.2544 C   0  0  0  0  0  0  0  0  0  0  0  0
  -22.8178  -13.4800   21.2014 C   0  0  0  0  0  0  0  0  0  0  0  0
  -38.3625  -24.1978   23.0794 C   0  0  0  0  0  0  0  0  0  0  0  0
  -37.3339  -24.7539   26.1052 C   0  0  0  0  0  0  0  0  0  0  0  0
  -34.8066  -24.5501   28.3895 C   0  0  0  0  0  0  0  0  0  0  0  0
  -30.9463  -14.0572   20.9713 C   0  0  0  0  0  0  0  0  0  0  0  0
  -42.1761  -25.7791   20.0771 C   0  0  0  0  0  0  0  0  0  0  0  0
  -36.2063  -25.4347   22.6587 C   0  0  0  0  0  0  0  0  0  0  0  0
  -35.8676  -23.2897   24.6659 C   0  0  0  0  0  0  0  0  0  0  0  0
  -41.9493  -25.6586   21.5819 C   0  0  0  0  0  0  0  0  0  0  0  0
  -29.3642  -13.1200   17.9225 C   0  0  0  0  0  0  0  0  0  0  0  0
  -41.4049  -24.2770   21.9308 C   0  0  0  0  0  0  0  0  0  0  0  0
  -27.9326  -12.7820   18.3421 C   0  0  0  0  0  0  0  0  0  0  0  0
  -30.3783  -12.6946   18.9821 C   0  0  0  0  0  0  0  0  0  0  0  0
  -28.6783  -12.8711   20.7576 C   0  0  0  0  0  0  0  0  0  0  0  0
  -40.0491  -24.0322   21.2576 C   0  0  1  0  0  0  0  0  0  0  0  0
  -37.3042  -25.0920   23.6609 C   0  0  1  0  0  0  0  0  0  0  0  0
  -27.6151  -13.3317   19.7458 C   0  0  2  0  0  0  0  0  0  0  0  0
  -34.2768  -25.0500   30.7909 C   0  0  0  0  0  0  0  0  0  0  0  0
  -30.5076  -15.7078   24.2866 C   0  0  0  0  0  0  0  0  0  0  0  0
  -32.5607  -14.5307   23.5082 C   0  0  0  0  0  0  0  0  0  0  0  0
  -38.9345  -22.3029   26.9660 C   0  0  0  0  0  0  0  0  0  0  0  0
  -37.6360  -22.2932   29.1066 C   0  0  0  0  0  0  0  0  0  0  0  0
  -39.0783  -24.2462   28.5337 C   0  0  0  0  0  0  0  0  0  0  0  0
  -29.1202  -18.2401   20.4139 C   0  0  0  0  0  0  0  0  0  0  0  0
  -29.1562  -18.3350   22.9377 C   0  0  0  0  0  0  0  0  0  0  0  0
  -28.9805  -16.1558   21.7589 C   0  0  0  0  0  0  0  0  0  0  0  0
  -32.6543  -26.4391   27.6422 C   0  0  0  0  0  0  0  0  0  0  0  0
  -31.3718  -19.6409   20.3203 C   0  0  0  0  0  0  0  0  0  0  0  0
  -32.3249  -20.8300   20.3728 C   0  0  0  0  0  0  0  0  0  1  0  0
  -36.9185  -23.8872   27.2693 C   0  0  1  0  0  0  0  0  0  0  0  0
  -34.2435  -25.5704   29.3623 C   0  0  2  0  0  0  0  0  0  0  0  0
  -31.3629  -15.3978   23.0178 C   0  0  0  0  0  0  0  0  0  0  0  0
  -38.1284  -23.1810   27.9438 C   0  0  0  0  0  0  0  0  0  0  0  0
  -29.6425  -17.5546   21.6961 C   0  0  0  0  0  0  0  0  0  0  0  0
  -25.8937  -11.6651   20.3303 N   0  0  0  0  0  0  0  0  0  0  0  0
  -31.0929  -17.5196   21.6763 N   0  0  0  0  0  0  0  0  0  0  0  0
  -26.2106  -12.9632   20.1868 N   0  0  0  0  0  0  0  0  0  0  0  0
  -33.1245  -16.8812   22.0231 N   0  3  0  0  0  0  0  0  0  0  0  0
  -36.7889  -24.4220   24.8567 N   0  0  0  0  0  0  0  0  0  0  0  0
  -30.0206  -13.2503   20.2894 N   0  0  0  0  0  0  0  0  0  0  0  0
  -25.3311  -15.1543   20.3760 N   0  0  0  0  0  0  0  0  0  0  0  0
  -21.8436  -12.5283   21.5324 N   0  0  0  0  0  0  0  0  0  0  0  0
  -38.9980  -24.7251   21.9714 N   0  0  0  0  0  0  0  0  0  0  0  0
  -36.1528  -24.7469   28.1655 N   0  0  0  0  0  0  0  0  0  0  0  0
  -30.5251  -14.5485   22.2009 N   0  0  0  0  0  0  0  0  0  0  0  0
  -32.8314  -25.8947   29.0130 N   0  3  0  0  0  0  0  0  0  0  0  0
  -22.5206  -14.6983   21.2306 O   0  0  0  0  0  0  0  0  0  0  0  0
  -38.5870  -23.1107   23.5984 O   0  0  0  0  0  0  0  0  0  0  0  0
  -38.1076  -25.6951   26.2977 O   0  0  0  0  0  0  0  0  0  0  0  0
  -34.1216  -23.6647   27.8821 O   0  0  0  0  0  0  0  0  0  0  0  0
  -32.0632  -14.3247   20.5154 O   0  0  0  0  0  0  0  0  0  0  0  0
  -21.8388   -6.9611   21.7374 O   0  0  0  0  0  0  0  0  0  0  0  0
  -32.5554  -21.2037   21.7305 O   0  0  0  0  0  0  0  0  0  1  0  0
  -18.7508   -6.7366   26.3000 F   0  0  0  0  0  0  0  0  0  0  0  0
  -22.3380   -5.0755   23.6965 F   0  0  0  0  0  0  0  0  0  0  0  0
  1  2  1  0  0  0  0
  1  5  2  0  0  0  0
  2  6  2  0  0  0  0
  3  8  2  0  0  0  0
  3 16  1  0  0  0  0
  4  9  1  0  0  0  0
  4 16  2  0  0  0  0
  5 18  1  0  0  0  0
  6 20  1  0  0  0  0
  7 10  2  0  0  0  0
  7 19  1  0  0  0  0
  8 22  1  0  0  0  0
  9 22  2  0  0  0  0
 10 23  1  0  0  0  0
 11 12  2  0  0  0  0
 11 24  1  0  0  0  0
 12 25  1  0  0  0  0
 13 21  1  0  0  0  0
 13 23  2  0  0  0  0
 14 25  2  0  0  0  0
 14 26  1  0  0  0  0
 15 28  2  0  0  0  0
 15 68  1  0  0  0  0
 16 27  1  0  0  0  0
 17 27  1  0  0  0  0
 17 29  2  0  0  0  0
 17 31  1  0  0  0  0
 18 20  2  0  0  0  0
 18 36  1  0  0  0  0
 19 21  2  0  0  0  0
 19 37  1  0  0  0  0
 20 45  1  0  0  0  0
 21 38  1  0  0  0  0
 22 82  1  0  0  0  0
 23 83  1  0  0  0  0
 24 26  2  0  0  0  0
 24 82  1  0  0  0  0
 25 84  1  0  0  0  0
 26 85  1  0  0  0  0
 27 65  2  0  0  0  0
 28 58  1  0  0  0  0
 28 66  1  0  0  0  0
 29 67  1  0  0  0  0
 29 71  1  0  0  0  0
 30 62  1  0  0  0  0
 30 66  1  0  0  0  0
 30 68  2  0  0  0  0
 31 72  1  0  0  0  0
 31 77  2  0  0  0  0
 32 46  1  0  0  0  0
 32 73  1  0  0  0  0
 32 78  2  0  0  0  0
 33 60  1  0  0  0  0
 33 69  1  0  0  0  0
 33 79  2  0  0  0  0
 34 61  1  0  0  0  0
 34 74  1  0  0  0  0
 34 80  2  0  0  0  0
 35 70  1  0  0  0  0
 35 75  1  0  0  0  0
 35 81  2  0  0  0  0
 36 39  1  0  0  0  0
 37 46  1  0  0  0  0
 38 69  1  0  0  0  0
 39 41  1  0  0  0  0
 40 42  1  0  0  0  0
 40 43  1  0  0  0  0
 41 45  1  0  0  0  0
 42 47  1  0  0  0  0
 43 70  1  0  0  0  0
 44 47  1  0  0  0  0
 44 70  1  0  0  0  0
 45 73  1  0  0  0  0
 46 69  1  0  0  0  0
 47 67  1  0  0  0  0
 48 61  1  0  0  0  0
 49 62  1  0  0  0  0
 50 62  1  0  0  0  0
 51 63  1  0  0  0  0
 52 63  1  0  0  0  0
 53 63  1  0  0  0  0
 54 64  1  0  0  0  0
 55 64  1  0  0  0  0
 56 64  1  0  0  0  0
 57 76  1  0  0  0  0
 58 59  1  0  0  0  0
 59 83  1  0  0  0  0
 60 63  1  0  0  0  0
 60 74  1  0  0  0  0
 61 76  1  0  0  0  0
 62 75  1  0  0  0  0
 64 66  1  0  0  0  0
 65 67  1  0  0  0  0
M  CHG  2  68   1  76   1
M  ISO  4  35 100  59 101  75 100  83 101
M  END
> <Batch ID>
0059

> <Smiles>
CNC(C)C(=O)NC(C(=O)N1Cc2cc([101O:1][101CH2:1]Cc3cnc(C(C)(C)[100NH:0][100C:0](=O)N4CCCC(n5nc(-c6ccc(Oc7ccc(F)cc7F)cc6)c(C(N)=O)c5N)C4)n3C(C)(C)C)ccc2CC1C(=O)NC1CCCc2ccccc21)C(C)(C)C

> <Shape>
0.188

> <Color>
0.177

> <Negative vol penalty>
0.000

$$$$

  -OEChem-04052317533D

 81 89  0     1  0  0  0  0  0999 V2000
  -22.2580  -10.7008   20.2271 C   0  0  0  0  0  0  0  0  0  0  0  0
  -22.0946  -11.6989   21.1823 C   0  0  0  0  0  0  0  0  0  0  0  0
  -25.5133  -31.2275   23.0714 C   0  0  0  0  0  0  0  0  0  0  0  0
  -25.9415  -29.4982   24.7033 C   0  0  0  0  0  0  0  0  0  0  0  0
  -23.4871  -10.5434   19.5881 C   0  0  0  0  0  0  0  0  0  0  0  0
  -23.1608  -12.5397   21.4998 C   0  0  0  0  0  0  0  0  0  0  0  0
  -22.8508  -18.4632   23.0234 C   0  0  0  0  0  0  0  0  0  0  0  0
  -26.4075  -32.0710   23.7305 C   0  0  0  0  0  0  0  0  0  0  0  0
  -26.8358  -30.3416   25.3624 C   0  0  0  0  0  0  0  0  0  0  0  0
  -22.8669  -19.1172   24.2546 C   0  0  0  0  0  0  0  0  0  0  0  0
  -30.0266  -31.3827   24.9686 C   0  0  0  0  0  0  0  0  0  0  0  0
  -31.2490  -30.8431   25.3689 C   0  0  0  0  0  0  0  0  0  0  0  0
  -25.2388  -19.4891   24.0192 C   0  0  0  0  0  0  0  0  0  0  0  0
  -30.7284  -31.3700   27.6686 C   0  0  0  0  0  0  0  0  0  0  0  0
  -22.2538  -24.4330   25.0273 C   0  0  0  0  0  0  0  0  0  0  0  0
  -20.9773  -23.1781   26.5279 C   0  0  0  0  0  0  0  0  0  0  0  0
  -25.2802  -29.9411   23.5578 C   0  0  0  0  0  0  0  0  0  0  0  0
  -24.6485  -28.1632   21.8409 C   0  0  0  0  0  0  0  0  0  0  0  0
  -24.5660  -11.3889   19.8910 C   0  0  0  0  0  0  0  0  0  0  0  0
  -24.0325  -18.3075   22.2846 C   0  0  0  0  0  0  0  0  0  0  0  0
  -24.4059  -12.3926   20.8652 C   0  0  0  0  0  0  0  0  0  0  0  0
  -25.2345  -18.8351   22.7777 C   0  0  0  0  0  0  0  0  0  0  0  0
  -21.0020  -24.1077   25.5085 C   0  0  0  0  0  0  0  0  0  0  0  0
  -27.0688  -31.6280   24.8760 C   0  0  0  0  0  0  0  0  0  0  0  0
  -24.0615  -19.6277   24.7540 C   0  0  0  0  0  0  0  0  0  0  0  0
  -29.1552  -31.9161   25.9183 C   0  0  0  0  0  0  0  0  0  0  0  0
  -31.5999  -30.8367   26.7189 C   0  0  0  0  0  0  0  0  0  0  0  0
  -29.5061  -31.9097   27.2683 C   0  0  0  0  0  0  0  0  0  0  0  0
  -24.3561  -29.0696   22.8777 C   0  0  0  0  0  0  0  0  0  0  0  0
  -23.4406  -27.5815   21.5426 C   0  0  0  0  0  0  0  0  0  0  0  0
  -23.2434  -23.0038   26.4920 C   0  0  0  0  0  0  0  0  0  0  0  0
  -25.9001  -27.8731   21.2044 C   0  0  0  0  0  0  0  0  0  0  0  0
  -25.7273  -15.8204   21.2621 C   0  0  0  0  0  0  0  0  0  0  0  0
  -18.4392  -26.8286   24.7878 C   0  0  0  0  0  0  0  0  0  0  0  0
  -27.4468  -18.1131   19.7424 C   0  0  0  0  0  0  0  0  0  0  0  0
  -28.4262  -21.3788   19.5933 C   0  0  0  0  0  0  0  0  0  0  0  0
  -25.8894  -11.1500   19.2082 C   0  0  0  0  0  0  0  0  0  0  0  0
  -23.9935  -17.6231   20.9458 C   0  0  0  0  0  0  0  0  0  0  0  0
  -26.5268  -18.7120   22.0140 C   0  0  0  0  0  0  0  0  0  0  0  0
  -26.8588  -12.3228   19.3311 C   0  0  0  0  0  0  0  0  0  0  0  0
  -18.7428  -28.4451   21.6043 C   0  0  0  0  0  0  0  0  0  0  0  0
  -26.9053  -12.8284   20.7695 C   0  0  0  0  0  0  0  0  0  0  0  0
  -20.2394  -28.7316   21.4885 C   0  0  0  0  0  0  0  0  0  0  0  0
  -18.2596  -28.5739   23.0454 C   0  0  0  0  0  0  0  0  0  0  0  0
  -20.5109  -28.0107   23.9033 C   0  0  0  0  0  0  0  0  0  0  0  0
  -25.5315  -13.3403   21.2191 C   0  0  1  0  0  0  0  0  0  0  0  0
  -25.3492  -17.0697   20.5179 C   0  0  1  0  0  0  0  0  0  0  0  0
  -21.0463  -27.8614   22.4682 C   0  0  2  0  0  0  0  0  0  0  0  0
  -18.5845  -25.7211   26.9804 C   0  0  0  0  0  0  0  0  0  0  0  0
  -29.8648  -22.9451   18.2612 C   0  0  0  0  0  0  0  0  0  0  0  0
  -29.9372  -16.9427   21.0606 C   0  0  0  0  0  0  0  0  0  0  0  0
  -31.1506  -19.0552   20.4832 C   0  0  0  0  0  0  0  0  0  0  0  0
  -30.2377  -17.6074   18.6685 C   0  0  0  0  0  0  0  0  0  0  0  0
  -26.1087  -23.0652   18.8555 C   0  0  0  0  0  0  0  0  0  0  0  0
  -19.7642  -24.7160   24.9633 C   0  0  0  0  0  0  0  0  0  0  0  0
  -24.5027  -22.3803   27.0432 C   0  0  0  0  0  0  0  0  0  0  0  0
  -25.0572  -21.2909   26.1318 C   0  0  0  0  0  0  0  0  0  1  0  0
  -19.3355  -26.0134   25.6857 C   0  0  1  0  0  0  0  0  0  0  0  0
  -28.6465  -18.9591   20.0942 C   0  0  1  0  0  0  0  0  0  0  0  0
  -28.4703  -22.3656   18.4406 C   0  0  2  0  0  0  0  0  0  0  0  0
  -29.9692  -18.1419   20.0922 C   0  0  0  0  0  0  0  0  0  0  0  0
  -23.3998  -23.8983   25.4976 N   0  0  0  0  0  0  0  0  0  0  0  0
  -22.0828  -22.6036   27.0456 N   0  0  0  0  0  0  0  0  0  0  0  0
  -23.0638  -29.0674   23.2152 N   0  0  0  0  0  0  0  0  0  0  0  0
  -22.5334  -28.1527   22.3857 N   0  0  0  0  0  0  0  0  0  0  0  0
  -26.4383  -18.0290   20.7128 N   0  0  0  0  0  0  0  0  0  0  0  0
  -19.0654  -27.7496   23.9478 N   0  0  0  0  0  0  0  0  0  0  0  0
  -23.0765  -26.6423   20.6438 N   0  0  0  0  0  0  0  0  0  0  0  0
  -27.0431  -28.5617   21.6331 N   0  0  0  0  0  0  0  0  0  0  0  0
  -25.2778  -14.6553   20.6705 N   0  0  0  0  0  0  0  0  0  0  0  0
  -28.6382  -20.0850   19.1664 N   0  0  0  0  0  0  0  0  0  0  0  0
  -27.5221  -23.4893   18.6840 N   0  3  0  0  0  0  0  0  0  0  0  0
  -25.9988  -27.0402   20.2717 O   0  0  0  0  0  0  0  0  0  0  0  0
  -26.3799  -15.9069   22.2957 O   0  0  0  0  0  0  0  0  0  0  0  0
  -17.2194  -26.6486   24.8310 O   0  0  0  0  0  0  0  0  0  0  0  0
  -27.4027  -17.5534   18.6440 O   0  0  0  0  0  0  0  0  0  0  0  0
  -28.2274  -21.7220   20.7566 O   0  0  0  0  0  0  0  0  0  0  0  0
  -27.9417  -32.4507   25.5193 O   0  0  0  0  0  0  0  0  0  0  0  0
  -24.0802  -20.2658   25.9558 O   0  0  0  0  0  0  0  0  0  1  0  0
  -32.7730  -30.3171   27.1034 F   0  0  0  0  0  0  0  0  0  0  0  0
  -28.6725  -32.4196   28.1853 F   0  0  0  0  0  0  0  0  0  0  0  0
  1  2  1  0  0  0  0
  1  5  2  0  0  0  0
  2  6  2  0  0  0  0
  3  8  2  0  0  0  0
  3 17  1  0  0  0  0
  4  9  1  0  0  0  0
  4 17  2  0  0  0  0
  5 19  1  0  0  0  0
  6 21  1  0  0  0  0
  7 10  2  0  0  0  0
  7 20  1  0  0  0  0
  8 24  1  0  0  0  0
  9 24  2  0  0  0  0
 10 25  1  0  0  0  0
 11 12  2  0  0  0  0
 11 26  1  0  0  0  0
 12 27  1  0  0  0  0
 13 22  1  0  0  0  0
 13 25  2  0  0  0  0
 14 27  2  0  0  0  0
 14 28  1  0  0  0  0
 15 23  1  0  0  0  0
 15 62  2  0  0  0  0
 16 23  2  0  0  0  0
 16 63  1  0  0  0  0
 17 29  1  0  0  0  0
 18 29  1  0  0  0  0
 18 30  2  0  0  0  0
 18 32  1  0  0  0  0
 19 21  2  0  0  0  0
 19 37  1  0  0  0  0
 20 22  2  0  0  0  0
 20 38  1  0  0  0  0
 21 46  1  0  0  0  0
 22 39  1  0  0  0  0
 23 55  1  0  0  0  0
 24 78  1  0  0  0  0
 25 79  1  0  0  0  0
 26 28  2  0  0  0  0
 26 78  1  0  0  0  0
 27 80  1  0  0  0  0
 28 81  1  0  0  0  0
 29 64  2  0  0  0  0
 30 65  1  0  0  0  0
 30 68  1  0  0  0  0
 31 56  1  0  0  0  0
 31 62  1  0  0  0  0
 31 63  2  0  0  0  0
 32 69  1  0  0  0  0
 32 73  2  0  0  0  0
 33 47  1  0  0  0  0
 33 70  1  0  0  0  0
 33 74  2  0  0  0  0
 34 58  1  0  0  0  0
 34 67  1  0  0  0  0
 34 75  2  0  0  0  0
 35 59  1  0  0  0  0
 35 66  1  0  0  0  0
 35 76  2  0  0  0  0
 36 60  1  0  0  0  0
 36 71  1  0  0  0  0
 36 77  2  0  0  0  0
 37 40  1  0  0  0  0
 38 47  1  0  0  0  0
 39 66  1  0  0  0  0
 40 42  1  0  0  0  0
 41 43  1  0  0  0  0
 41 44  1  0  0  0  0
 42 46  1  0  0  0  0
 43 48  1  0  0  0  0
 44 67  1  0  0  0  0
 45 48  1  0  0  0  0
 45 67  1  0  0  0  0
 46 70  1  0  0  0  0
 47 66  1  0  0  0  0
 48 65  1  0  0  0  0
 49 58  1  0  0  0  0
 50 60  1  0  0  0  0
 51 61  1  0  0  0  0
 52 61  1  0  0  0  0
 53 61  1  0  0  0  0
 54 72  1  0  0  0  0
 55 58  1  0  0  0  0
 56 57  1  0  0  0  0
 57 79  1  0  0  0  0
 59 61  1  0  0  0  0
 59 71  1  0  0  0  0
 60 72  1  0  0  0  0
 64 65  1  0  0  0  0
M  CHG  1  72   1
M  ISO  4  34 100  57 101  58 100  79 101
M  END
> <Batch ID>
0059

> <Smiles>
CNC(C)C(=O)NC(C(=O)N1Cc2cc([101O:1][101CH2:1]Cc3ncc(C[100CH:0](C)[100C:0](=O)N4CCCC(n5nc(-c6ccc(Oc7ccc(F)cc7F)cc6)c(C(N)=O)c5N)C4)cn3)ccc2CC1C(=O)NC1CCCc2ccccc21)C(C)(C)C

> <Shape>
0.233

> <Color>
0.052

> <Negative vol penalty>
0.000

$$$$

  -OEChem-04052317533D

 83 91  0     1  0  0  0  0  0999 V2000
  -27.9977  -36.3427   22.2967 C   0  0  0  0  0  0  0  0  0  0  0  0
  -28.2624  -34.9780   22.2423 C   0  0  0  0  0  0  0  0  0  0  0  0
  -26.4727  -13.5501   21.8698 C   0  0  0  0  0  0  0  0  0  0  0  0
  -25.9990  -13.6305   19.5021 C   0  0  0  0  0  0  0  0  0  0  0  0
  -26.7672  -36.7945   22.7717 C   0  0  0  0  0  0  0  0  0  0  0  0
  -27.2971  -34.0643   22.6640 C   0  0  0  0  0  0  0  0  0  0  0  0
  -26.7840  -30.1677   19.4706 C   0  0  0  0  0  0  0  0  0  0  0  0
  -25.6377  -12.4403   21.9992 C   0  0  0  0  0  0  0  0  0  0  0  0
  -25.1640  -12.5207   19.6314 C   0  0  0  0  0  0  0  0  0  0  0  0
  -27.7498  -29.1639   19.5304 C   0  0  0  0  0  0  0  0  0  0  0  0
  -25.8001   -9.1172   21.3967 C   0  0  0  0  0  0  0  0  0  0  0  0
  -26.2624   -8.0432   22.1574 C   0  0  0  0  0  0  0  0  0  0  0  0
  -26.2490  -27.8066   20.8436 C   0  0  0  0  0  0  0  0  0  0  0  0
  -24.3781   -8.2889   23.6495 C   0  0  0  0  0  0  0  0  0  0  0  0
  -29.0948  -22.1594   18.0136 C   0  0  0  0  0  0  0  0  0  0  0  0
  -26.6533  -14.1453   20.6213 C   0  0  0  0  0  0  0  0  0  0  0  0
  -28.8957  -15.2902   20.2107 C   0  0  0  0  0  0  0  0  0  0  0  0
  -25.7827  -35.8856   23.1903 C   0  0  0  0  0  0  0  0  0  0  0  0
  -25.5455  -30.0025   20.1070 C   0  0  0  0  0  0  0  0  0  0  0  0
  -26.0528  -34.5045   23.1463 C   0  0  0  0  0  0  0  0  0  0  0  0
  -25.2683  -28.8086   20.7881 C   0  0  0  0  0  0  0  0  0  0  0  0
  -24.9834  -11.9256   20.8800 C   0  0  0  0  0  0  0  0  0  0  0  0
  -27.4835  -27.9844   20.2195 C   0  0  0  0  0  0  0  0  0  0  0  0
  -24.6268   -9.7770   21.7625 C   0  0  0  0  0  0  0  0  0  0  0  0
  -25.5514   -7.6291   23.2837 C   0  0  0  0  0  0  0  0  0  0  0  0
  -23.9158   -9.3629   22.8888 C   0  0  0  0  0  0  0  0  0  0  0  0
  -27.5153  -15.2920   20.4871 C   0  0  0  0  0  0  0  0  0  0  0  0
  -28.2456  -21.5326   17.0821 C   0  0  0  0  0  0  0  0  0  0  0  0
  -29.9629  -22.8961   17.2453 C   0  0  0  0  0  0  0  0  0  0  0  0
  -29.2425  -16.6190   20.1855 C   0  0  0  0  0  0  0  0  0  0  0  0
  -29.7848  -14.1862   19.9958 C   0  0  0  0  0  0  0  0  0  0  0  0
  -24.0066  -31.5088   22.4452 C   0  0  0  0  0  0  0  0  0  0  0  0
  -21.6011  -29.4887   21.6354 C   0  0  0  0  0  0  0  0  0  0  0  0
  -20.6541  -26.5323   20.2178 C   0  0  0  0  0  0  0  0  0  0  0  0
  -25.6371  -21.4775   19.2194 C   0  0  0  0  0  0  0  0  0  0  0  0
  -24.4854  -36.4230   23.7406 C   0  0  0  0  0  0  0  0  0  0  0  0
  -24.5043  -31.0838   20.0105 C   0  0  0  0  0  0  0  0  0  0  0  0
  -23.9466  -28.5738   21.4711 C   0  0  0  0  0  0  0  0  0  0  0  0
  -23.3762  -35.3770   23.8168 C   0  0  0  0  0  0  0  0  0  0  0  0
  -27.9994  -20.8606   22.0016 C   0  0  0  0  0  0  0  0  0  0  0  0
  -23.9034  -34.0837   24.4304 C   0  0  0  0  0  0  0  0  0  0  0  0
  -28.1978  -19.3471   21.9406 C   0  0  0  0  0  0  0  0  0  0  0  0
  -26.6309  -21.2751   21.4695 C   0  0  0  0  0  0  0  0  0  0  0  0
  -26.5397  -19.2617   20.0370 C   0  0  0  0  0  0  0  0  0  0  0  0
  -25.0219  -33.4814   23.5714 C   0  0  1  0  0  0  0  0  0  0  0  0
  -23.4699  -31.0189   21.1300 C   0  0  1  0  0  0  0  0  0  0  0  0
  -27.9268  -18.8149   20.5227 C   0  0  2  0  0  0  0  0  0  0  0  0
  -18.6227  -25.1395   19.7374 C   0  0  0  0  0  0  0  0  0  0  0  0
  -21.4823  -28.6548   24.5681 C   0  0  0  0  0  0  0  0  0  0  0  0
  -20.1555  -26.6491   23.8718 C   0  0  0  0  0  0  0  0  0  0  0  0
  -19.2519  -28.9398   23.4733 C   0  0  0  0  0  0  0  0  0  0  0  0
  -30.2075  -23.2313   14.7670 C   0  0  0  0  0  0  0  0  0  0  0  0
  -25.1993  -22.0785   16.8685 C   0  0  0  0  0  0  0  0  0  0  0  0
  -21.1207  -26.6507   17.2977 C   0  0  0  0  0  0  0  0  0  0  0  0
  -27.1256  -20.6185   17.3622 C   0  0  0  0  0  0  0  0  0  0  0  0
  -31.1120  -23.7926   17.6325 C   0  0  0  0  0  0  0  0  0  0  0  0
  -30.7093  -25.2550   17.8528 C   0  0  0  0  0  0  0  0  0  0  0  0
  -29.7303  -25.4380   19.0134 C   0  0  0  0  0  0  0  0  0  0  0  0
  -29.3230  -26.8961   19.1765 C   0  0  0  0  0  0  0  0  0  1  0  0
  -21.1775  -28.1046   22.0640 C   0  0  1  0  0  0  0  0  0  0  0  0
  -19.5723  -26.2015   19.2054 C   0  0  2  0  0  0  0  0  0  0  0  0
  -20.5425  -28.0920   23.4832 C   0  0  0  0  0  0  0  0  0  0  0  0
  -27.0192  -16.5241   20.6276 N   0  0  0  0  0  0  0  0  0  0  0  0
  -28.5468  -21.8441   15.8186 N   0  0  0  0  0  0  0  0  0  0  0  0
  -29.5949  -22.6747   15.9508 N   0  0  0  0  0  0  0  0  0  0  0  0
  -28.0937  -17.3090   20.4389 N   0  0  0  0  0  0  0  0  0  0  0  0
  -22.9634  -29.6633   21.3537 N   0  0  0  0  0  0  0  0  0  0  0  0
  -26.3816  -20.7203   20.1386 N   0  0  0  0  0  0  0  0  0  0  0  0
  -30.4151  -17.2527   19.9718 N   0  0  0  0  0  0  0  0  0  0  0  0
  -29.2634  -12.8867   20.0567 N   0  0  0  0  0  0  0  0  0  0  0  0
  -24.4662  -32.8116   22.4152 N   0  0  0  0  0  0  0  0  0  0  0  0
  -20.3000  -27.6023   21.0123 N   0  0  0  0  0  0  0  0  0  0  0  0
  -25.9363  -21.3069   17.8592 N   0  0  0  0  0  0  0  0  0  0  0  0
  -20.1817  -25.6970   17.9424 N   0  3  0  0  0  0  0  0  0  0  0  0
  -31.0088  -14.3467   19.7730 O   0  0  0  0  0  0  0  0  0  0  0  0
  -24.0025  -30.7606   23.4157 O   0  0  0  0  0  0  0  0  0  0  0  0
  -20.7533  -30.3803   21.5468 O   0  0  0  0  0  0  0  0  0  0  0  0
  -21.7061  -25.9021   20.2984 O   0  0  0  0  0  0  0  0  0  0  0  0
  -24.7617  -22.2685   19.5937 O   0  0  0  0  0  0  0  0  0  0  0  0
  -24.1687  -10.8425   21.0059 O   0  0  0  0  0  0  0  0  0  0  0  0
  -28.4246  -27.0033   20.2800 O   0  0  0  0  0  0  0  0  0  1  0  0
  -25.9947   -6.5968   24.0131 F   0  0  0  0  0  0  0  0  0  0  0  0
  -22.7874   -9.9921   23.2445 F   0  0  0  0  0  0  0  0  0  0  0  0
  1  2  1  0  0  0  0
  1  5  2  0  0  0  0
  2  6  2  0  0  0  0
  3  8  2  0  0  0  0
  3 16  1  0  0  0  0
  4  9  1  0  0  0  0
  4 16  2  0  0  0  0
  5 18  1  0  0  0  0
  6 20  1  0  0  0  0
  7 10  2  0  0  0  0
  7 19  1  0  0  0  0
  8 22  1  0  0  0  0
  9 22  2  0  0  0  0
 10 23  1  0  0  0  0
 11 12  2  0  0  0  0
 11 24  1  0  0  0  0
 12 25  1  0  0  0  0
 13 21  1  0  0  0  0
 13 23  2  0  0  0  0
 14 25  2  0  0  0  0
 14 26  1  0  0  0  0
 15 28  1  0  0  0  0
 15 29  2  0  0  0  0
 16 27  1  0  0  0  0
 17 27  1  0  0  0  0
 17 30  2  0  0  0  0
 17 31  1  0  0  0  0
 18 20  2  0  0  0  0
 18 36  1  0  0  0  0
 19 21  2  0  0  0  0
 19 37  1  0  0  0  0
 20 45  1  0  0  0  0
 21 38  1  0  0  0  0
 22 80  1  0  0  0  0
 23 81  1  0  0  0  0
 24 26  2  0  0  0  0
 24 80  1  0  0  0  0
 25 82  1  0  0  0  0
 26 83  1  0  0  0  0
 27 63  2  0  0  0  0
 28 55  1  0  0  0  0
 28 64  2  0  0  0  0
 29 56  1  0  0  0  0
 29 65  1  0  0  0  0
 30 66  1  0  0  0  0
 30 69  1  0  0  0  0
 31 70  1  0  0  0  0
 31 75  2  0  0  0  0
 32 46  1  0  0  0  0
 32 71  1  0  0  0  0
 32 76  2  0  0  0  0
 33 60  1  0  0  0  0
 33 67  1  0  0  0  0
 33 77  2  0  0  0  0
 34 61  1  0  0  0  0
 34 72  1  0  0  0  0
 34 78  2  0  0  0  0
 35 68  1  0  0  0  0
 35 73  1  0  0  0  0
 35 79  2  0  0  0  0
 36 39  1  0  0  0  0
 37 46  1  0  0  0  0
 38 67  1  0  0  0  0
 39 41  1  0  0  0  0
 40 42  1  0  0  0  0
 40 43  1  0  0  0  0
 41 45  1  0  0  0  0
 42 47  1  0  0  0  0
 43 68  1  0  0  0  0
 44 47  1  0  0  0  0
 44 68  1  0  0  0  0
 45 71  1  0  0  0  0
 46 67  1  0  0  0  0
 47 66  1  0  0  0  0
 48 61  1  0  0  0  0
 49 62  1  0  0  0  0
 50 62  1  0  0  0  0
 51 62  1  0  0  0  0
 52 65  1  0  0  0  0
 53 73  1  0  0  0  0
 54 74  1  0  0  0  0
 55 73  1  0  0  0  0
 56 57  1  0  0  0  0
 57 58  1  0  0  0  0
 58 59  1  0  0  0  0
 59 81  1  0  0  0  0
 60 62  1  0  0  0  0
 60 72  1  0  0  0  0
 61 74  1  0  0  0  0
 63 66  1  0  0  0  0
 64 65  1  0  0  0  0
M  CHG  1  74   1
M  ISO  4  35 100  59 101  73 100  81 101
M  END
> <Batch ID>
0059

> <Smiles>
CNC(C)C(=O)NC(C(=O)N1Cc2cc([101O:1][101CH2:1]CCCc3cc(C[100N:0](C)[100C:0](=O)N4CCCC(n5nc(-c6ccc(Oc7ccc(F)cc7F)cc6)c(C(N)=O)c5N)C4)nn3C)ccc2CC1C(=O)NC1CCCc2ccccc21)C(C)(C)C

> <Shape>
0.303

> <Color>
0.083

> <Negative vol penalty>
0.000

$$$$

  -OEChem-04052317533D

 83 91  0     1  0  0  0  0  0999 V2000
  -35.7163  -27.8168   21.6611 C   0  0  0  0  0  0  0  0  0  0  0  0
  -34.9464  -26.6826   21.4239 C   0  0  0  0  0  0  0  0  0  0  0  0
  -23.3248   -9.6846   19.9786 C   0  0  0  0  0  0  0  0  0  0  0  0
  -23.8961   -9.9128   22.3149 C   0  0  0  0  0  0  0  0  0  0  0  0
  -35.1028  -29.0640   21.7707 C   0  0  0  0  0  0  0  0  0  0  0  0
  -33.5623  -26.7949   21.2972 C   0  0  0  0  0  0  0  0  0  0  0  0
  -31.7451  -24.1217   17.3989 C   0  0  0  0  0  0  0  0  0  0  0  0
  -22.6736   -8.4826   20.2552 C   0  0  0  0  0  0  0  0  0  0  0  0
  -23.2448   -8.7107   22.5916 C   0  0  0  0  0  0  0  0  0  0  0  0
  -31.6099  -22.7458   17.5783 C   0  0  0  0  0  0  0  0  0  0  0  0
  -21.4224   -5.8836   23.9715 C   0  0  0  0  0  0  0  0  0  0  0  0
  -20.5828   -5.8412   25.0845 C   0  0  0  0  0  0  0  0  0  0  0  0
  -29.2524  -23.0383   17.9980 C   0  0  0  0  0  0  0  0  0  0  0  0
  -19.2260   -7.5965   24.1278 C   0  0  0  0  0  0  0  0  0  0  0  0
  -28.8415  -17.6180   17.5829 C   0  0  0  0  0  0  0  0  0  0  0  0
  -29.4154  -16.6469   16.8119 C   0  0  0  0  0  0  0  0  0  0  0  0
  -23.9361  -10.3998   21.0085 C   0  0  0  0  0  0  0  0  0  0  0  0
  -24.0507  -12.9334   20.7339 C   0  0  0  0  0  0  0  0  0  0  0  0
  -33.7115  -29.1929   21.6357 C   0  0  0  0  0  0  0  0  0  0  0  0
  -30.6352  -24.9689   17.5286 C   0  0  0  0  0  0  0  0  0  0  0  0
  -32.9294  -28.0448   21.4064 C   0  0  0  0  0  0  0  0  0  0  0  0
  -29.3758  -24.4244   17.8172 C   0  0  0  0  0  0  0  0  0  0  0  0
  -22.6336   -7.9956   21.5617 C   0  0  0  0  0  0  0  0  0  0  0  0
  -30.3640  -22.2042   17.8808 C   0  0  0  0  0  0  0  0  0  0  0  0
  -21.1639   -6.7825   22.9367 C   0  0  0  0  0  0  0  0  0  0  0  0
  -19.4845   -6.6976   25.1627 C   0  0  0  0  0  0  0  0  0  0  0  0
  -20.0657   -7.6389   23.0148 C   0  0  0  0  0  0  0  0  0  0  0  0
  -24.6095  -11.6413   20.7233 C   0  0  0  0  0  0  0  0  0  0  0  0
  -25.0941  -13.7614   20.3988 C   0  0  0  0  0  0  0  0  0  0  0  0
  -30.9162  -17.3181   18.2943 C   0  0  0  0  0  0  0  0  0  0  0  0
  -22.7086  -13.3480   21.0211 C   0  0  0  0  0  0  0  0  0  0  0  0
  -29.8623  -27.3737   19.4583 C   0  0  0  0  0  0  0  0  0  0  0  0
  -27.2983  -27.6186   17.4864 C   0  0  0  0  0  0  0  0  0  0  0  0
  -25.1990  -26.1048   15.2621 C   0  0  0  0  0  0  0  0  0  0  0  0
  -30.1931  -15.4280   20.8263 C   0  0  0  0  0  0  0  0  0  0  0  0
  -33.0885  -30.5555   21.8090 C   0  0  0  0  0  0  0  0  0  0  0  0
  -30.7927  -26.4481   17.3056 C   0  0  0  0  0  0  0  0  0  0  0  0
  -28.1491  -25.2885   17.9472 C   0  0  0  0  0  0  0  0  0  0  0  0
  -31.6557  -30.6406   21.2893 C   0  0  0  0  0  0  0  0  0  0  0  0
  -29.7014  -12.7164   18.6179 C   0  0  0  0  0  0  0  0  0  0  0  0
  -30.8417  -29.4432   21.7692 C   0  0  0  0  0  0  0  0  0  0  0  0
  -28.2790  -12.2884   18.9762 C   0  0  0  0  0  0  0  0  0  0  0  0
  -30.5132  -13.1052   19.8549 C   0  0  0  0  0  0  0  0  0  0  0  0
  -28.4360  -13.6989   21.0612 C   0  0  0  0  0  0  0  0  0  0  0  0
  -31.4279  -28.1293   21.2384 C   0  0  1  0  0  0  0  0  0  0  0  0
  -29.6936  -27.2726   17.9686 C   0  0  1  0  0  0  0  0  0  0  0  0
  -27.5806  -13.3605   19.8306 C   0  0  2  0  0  0  0  0  0  0  0  0
  -23.1748  -26.5499   13.8472 C   0  0  0  0  0  0  0  0  0  0  0  0
  -32.8681  -18.8521   19.0247 C   0  0  0  0  0  0  0  0  0  0  0  0
  -33.2686  -16.4645   18.4818 C   0  0  0  0  0  0  0  0  0  0  0  0
  -25.5317  -27.4636   19.9694 C   0  0  0  0  0  0  0  0  0  0  0  0
  -23.5906  -26.9575   18.4714 C   0  0  0  0  0  0  0  0  0  0  0  0
  -24.7895  -29.1352   18.2637 C   0  0  0  0  0  0  0  0  0  0  0  0
  -32.6054  -14.7441   21.1704 C   0  0  0  0  0  0  0  0  0  0  0  0
  -26.6734  -25.5199   12.7635 C   0  0  0  0  0  0  0  0  0  0  0  0
  -29.5941  -19.0729   19.5501 C   0  0  0  0  0  0  0  0  0  0  0  0
  -32.0190  -17.0659   20.5773 C   0  0  0  0  0  0  0  0  0  0  0  0
  -29.2104  -20.4233   18.9549 C   0  0  0  0  0  0  0  0  0  1  0  0
  -25.9130  -27.0197   17.4547 C   0  0  1  0  0  0  0  0  0  0  0  0
  -24.6947  -26.5384   13.8975 C   0  0  2  0  0  0  0  0  0  0  0  0
  -32.1838  -17.4374   19.0567 C   0  0  0  0  0  0  0  0  0  0  0  0
  -24.9795  -27.6276   18.5393 C   0  0  0  0  0  0  0  0  0  0  0  0
  -25.9070  -11.6432   20.4063 N   0  0  0  0  0  0  0  0  0  0  0  0
  -29.7923  -18.0148   18.4920 N   0  0  0  0  0  0  0  0  0  0  0  0
  -26.1722  -12.9466   20.2146 N   0  0  0  0  0  0  0  0  0  0  0  0
  -30.6989  -16.4820   17.2740 N   0  3  0  0  0  0  0  0  0  0  0  0
  -28.3555  -26.7294   17.7264 N   0  0  0  0  0  0  0  0  0  0  0  0
  -29.7902  -14.0941   20.6662 N   0  0  0  0  0  0  0  0  0  0  0  0
  -25.1852  -15.0996   20.2466 N   0  0  0  0  0  0  0  0  0  0  0  0
  -21.7618  -12.3676   21.3476 N   0  0  0  0  0  0  0  0  0  0  0  0
  -31.0616  -27.9362   19.8517 N   0  0  0  0  0  0  0  0  0  0  0  0
  -25.4282  -27.1844   16.0886 N   0  0  0  0  0  0  0  0  0  0  0  0
  -31.5694  -15.6943   20.7700 N   0  0  0  0  0  0  0  0  0  0  0  0
  -25.1927  -25.6111   12.8425 N   0  3  0  0  0  0  0  0  0  0  0  0
  -22.3555  -14.5507   20.9732 O   0  0  0  0  0  0  0  0  0  0  0  0
  -28.9699  -26.9725   20.1960 O   0  0  0  0  0  0  0  0  0  0  0  0
  -27.4380  -28.8297   17.2979 O   0  0  0  0  0  0  0  0  0  0  0  0
  -25.3687  -24.9260   15.5658 O   0  0  0  0  0  0  0  0  0  0  0  0
  -29.3695  -16.3320   21.0174 O   0  0  0  0  0  0  0  0  0  0  0  0
  -21.9980   -6.8228   21.8320 O   0  0  0  0  0  0  0  0  0  0  0  0
  -30.2293  -20.8615   18.0570 O   0  0  0  0  0  0  0  0  0  1  0  0
  -18.6774   -6.6557   26.2309 F   0  0  0  0  0  0  0  0  0  0  0  0
  -19.8115   -8.5037   22.0232 F   0  0  0  0  0  0  0  0  0  0  0  0
  1  2  1  0  0  0  0
  1  5  2  0  0  0  0
  2  6  2  0  0  0  0
  3  8  2  0  0  0  0
  3 17  1  0  0  0  0
  4  9  1  0  0  0  0
  4 17  2  0  0  0  0
  5 19  1  0  0  0  0
  6 21  1  0  0  0  0
  7 10  2  0  0  0  0
  7 20  1  0  0  0  0
  8 23  1  0  0  0  0
  9 23  2  0  0  0  0
 10 24  1  0  0  0  0
 11 12  2  0  0  0  0
 11 25  1  0  0  0  0
 12 26  1  0  0  0  0
 13 22  1  0  0  0  0
 13 24  2  0  0  0  0
 14 26  2  0  0  0  0
 14 27  1  0  0  0  0
 15 16  2  0  0  0  0
 15 64  1  0  0  0  0
 16 66  1  0  0  0  0
 17 28  1  0  0  0  0
 18 28  1  0  0  0  0
 18 29  2  0  0  0  0
 18 31  1  0  0  0  0
 19 21  2  0  0  0  0
 19 36  1  0  0  0  0
 20 22  2  0  0  0  0
 20 37  1  0  0  0  0
 21 45  1  0  0  0  0
 22 38  1  0  0  0  0
 23 80  1  0  0  0  0
 24 81  1  0  0  0  0
 25 27  2  0  0  0  0
 25 80  1  0  0  0  0
 26 82  1  0  0  0  0
 27 83  1  0  0  0  0
 28 63  2  0  0  0  0
 29 65  1  0  0  0  0
 29 69  1  0  0  0  0
 30 61  1  0  0  0  0
 30 64  1  0  0  0  0
 30 66  2  0  0  0  0
 31 70  1  0  0  0  0
 31 75  2  0  0  0  0
 32 46  1  0  0  0  0
 32 71  1  0  0  0  0
 32 76  2  0  0  0  0
 33 59  1  0  0  0  0
 33 67  1  0  0  0  0
 33 77  2  0  0  0  0
 34 60  1  0  0  0  0
 34 72  1  0  0  0  0
 34 78  2  0  0  0  0
 35 68  1  0  0  0  0
 35 73  1  0  0  0  0
 35 79  2  0  0  0  0
 36 39  1  0  0  0  0
 37 46  1  0  0  0  0
 38 67  1  0  0  0  0
 39 41  1  0  0  0  0
 40 42  1  0  0  0  0
 40 43  1  0  0  0  0
 41 45  1  0  0  0  0
 42 47  1  0  0  0  0
 43 68  1  0  0  0  0
 44 47  1  0  0  0  0
 44 68  1  0  0  0  0
 45 71  1  0  0  0  0
 46 67  1  0  0  0  0
 47 65  1  0  0  0  0
 48 60  1  0  0  0  0
 49 61  1  0  0  0  0
 50 61  1  0  0  0  0
 51 62  1  0  0  0  0
 52 62  1  0  0  0  0
 53 62  1  0  0  0  0
 54 73  1  0  0  0  0
 55 74  1  0  0  0  0
 56 58  1  0  0  0  0
 56 64  1  0  0  0  0
 57 61  1  0  0  0  0
 57 73  1  0  0  0  0
 58 81  1  0  0  0  0
 59 62  1  0  0  0  0
 59 72  1  0  0  0  0
 60 74  1  0  0  0  0
 63 65  1  0  0  0  0
M  CHG  2  66   1  74   1
M  ISO  4  35 100  58 101  73 100  81 101
M  END
> <Batch ID>
0059

> <Smiles>
CNC(C)C(=O)NC(C(=O)N1Cc2cc([101O:1][101CH2:1]Cn3ccnc3C(C)(C)C[100N:0](C)[100C:0](=O)N3CCCC(n4nc(-c5ccc(Oc6ccc(F)cc6F)cc5)c(C(N)=O)c4N)C3)ccc2CC1C(=O)NC1CCCc2ccccc21)C(C)(C)C

> <Shape>
0.260

> <Color>
0.176

> <Negative vol penalty>
0.000

$$$$

  -OEChem-04052317533D

 83 91  0     1  0  0  0  0  0999 V2000
  -18.2834  -11.7855   21.6087 C   0  0  0  0  0  0  0  0  0  0  0  0
  -18.6705  -12.8532   20.8054 C   0  0  0  0  0  0  0  0  0  0  0  0
  -22.7803  -28.1137   22.2803 C   0  0  0  0  0  0  0  0  0  0  0  0
  -23.2020  -29.8857   20.6930 C   0  0  0  0  0  0  0  0  0  0  0  0
  -19.1215  -11.3449   22.6322 C   0  0  0  0  0  0  0  0  0  0  0  0
  -19.8956  -13.4818   21.0257 C   0  0  0  0  0  0  0  0  0  0  0  0
  -25.1796  -16.8016   17.5079 C   0  0  0  0  0  0  0  0  0  0  0  0
  -21.7390  -28.8580   22.8345 C   0  0  0  0  0  0  0  0  0  0  0  0
  -22.1606  -30.6300   21.2473 C   0  0  0  0  0  0  0  0  0  0  0  0
  -25.9077  -17.9903   17.5301 C   0  0  0  0  0  0  0  0  0  0  0  0
  -18.7357  -30.1377   24.4338 C   0  0  0  0  0  0  0  0  0  0  0  0
  -17.5391  -29.4752   24.7072 C   0  0  0  0  0  0  0  0  0  0  0  0
  -27.3088  -17.0924   19.2765 C   0  0  0  0  0  0  0  0  0  0  0  0
  -17.3195  -28.9072   22.3692 C   0  0  0  0  0  0  0  0  0  0  0  0
  -29.1819  -21.7719   16.7554 C   0  0  0  0  0  0  0  0  0  0  0  0
  -23.5119  -28.6276   21.2095 C   0  0  0  0  0  0  0  0  0  0  0  0
  -24.5029  -26.9334   19.5801 C   0  0  0  0  0  0  0  0  0  0  0  0
  -20.3617  -11.9621   22.8590 C   0  0  0  0  0  0  0  0  0  0  0  0
  -25.5043  -15.7516   18.3789 C   0  0  0  0  0  0  0  0  0  0  0  0
  -20.7505  -13.0499   22.0540 C   0  0  0  0  0  0  0  0  0  0  0  0
  -26.5849  -15.8904   19.2616 C   0  0  0  0  0  0  0  0  0  0  0  0
  -28.2028  -21.4984   17.6887 C   0  0  0  0  0  0  0  0  0  0  0  0
  -21.4291  -30.1161   22.3180 C   0  0  0  0  0  0  0  0  0  0  0  0
  -26.9707  -18.1370   18.4165 C   0  0  0  0  0  0  0  0  0  0  0  0
  -19.2242  -30.1851   23.1281 C   0  0  0  0  0  0  0  0  0  0  0  0
  -16.8310  -28.8599   23.6749 C   0  0  0  0  0  0  0  0  0  0  0  0
  -18.5162  -29.5698   22.0958 C   0  0  0  0  0  0  0  0  0  0  0  0
  -24.5881  -27.8595   20.6369 C   0  0  0  0  0  0  0  0  0  0  0  0
  -28.1342  -22.3713   18.7553 C   0  0  0  0  0  0  0  0  0  0  0  0
  -25.7893  -26.4810   19.4155 C   0  0  0  0  0  0  0  0  0  0  0  0
  -29.8656  -23.5927   17.9321 C   0  0  0  0  0  0  0  0  0  0  0  0
  -23.3630  -26.5191   18.8155 C   0  0  0  0  0  0  0  0  0  0  0  0
  -23.9886  -14.2319   20.7234 C   0  0  0  0  0  0  0  0  0  0  0  0
  -26.6179  -12.3331   20.6661 C   0  0  0  0  0  0  0  0  0  0  0  0
  -29.9204  -11.9804   19.8810 C   0  0  0  0  0  0  0  0  0  0  0  0
  -31.2553  -27.9731   18.9534 C   0  0  0  0  0  0  0  0  0  0  0  0
  -21.2127  -11.4811   24.0075 C   0  0  0  0  0  0  0  0  0  0  0  0
  -24.7259  -14.4657   18.3239 C   0  0  0  0  0  0  0  0  0  0  0  0
  -26.9868  -14.7856   20.2031 C   0  0  0  0  0  0  0  0  0  0  0  0
  -22.6604  -11.9600   23.9353 C   0  0  0  0  0  0  0  0  0  0  0  0
  -29.9022  -27.0834   22.2820 C   0  0  0  0  0  0  0  0  0  0  0  0
  -22.7144  -13.4499   23.6125 C   0  0  0  0  0  0  0  0  0  0  0  0
  -28.3938  -27.2027   22.0711 C   0  0  0  0  0  0  0  0  0  0  0  0
  -30.6798  -28.0109   21.3532 C   0  0  0  0  0  0  0  0  0  0  0  0
  -28.8402  -27.9564   19.7019 C   0  0  0  0  0  0  0  0  0  0  0  0
  -22.0827  -13.7416   22.2460 C   0  0  1  0  0  0  0  0  0  0  0  0
  -24.8199  -13.6549   19.6128 C   0  0  1  0  0  0  0  0  0  0  0  0
  -28.0293  -27.0008   20.5899 C   0  0  2  0  0  0  0  0  0  0  0  0
  -27.6098  -22.6412   21.1922 C   0  0  0  0  0  0  0  0  0  0  0  0
  -31.8043  -10.3259   19.9860 C   0  0  0  0  0  0  0  0  0  0  0  0
  -26.9067  -12.8555   23.6583 C   0  0  0  0  0  0  0  0  0  0  0  0
  -29.2551  -12.0004   23.5102 C   0  0  0  0  0  0  0  0  0  0  0  0
  -27.3440  -10.4928   22.9649 C   0  0  0  0  0  0  0  0  0  0  0  0
  -32.0803  -27.3136   16.7254 C   0  0  0  0  0  0  0  0  0  0  0  0
  -30.2340  -11.9753   16.9381 C   0  0  0  0  0  0  0  0  0  0  0  0
  -27.2858  -20.3214   17.5305 C   0  0  0  0  0  0  0  0  0  1  0  0
  -27.1134  -22.1744   19.8270 C   0  0  0  0  0  0  0  0  0  0  0  0
  -30.7885  -24.7563   18.0670 C   0  0  0  0  0  0  0  0  0  0  0  0
  -30.1537  -26.0935   17.6665 C   0  0  0  0  0  0  0  0  0  0  0  0
  -27.9600  -12.3442   21.3572 C   0  0  1  0  0  0  0  0  0  0  0  0
  -30.6689  -10.8852   19.1429 C   0  0  2  0  0  0  0  0  0  0  0  0
  -27.8579  -11.9450   22.8564 C   0  0  0  0  0  0  0  0  0  0  0  0
  -30.0336  -22.8144   16.8460 N   0  0  0  0  0  0  0  0  0  0  0  0
  -25.8303  -27.9887   21.1104 N   0  0  0  0  0  0  0  0  0  0  0  0
  -28.9529  -23.4326   18.9093 N   0  0  0  0  0  0  0  0  0  0  0  0
  -26.5376  -27.1378   20.3477 N   0  0  0  0  0  0  0  0  0  0  0  0
  -26.1911  -13.5500   20.1159 N   0  0  0  0  0  0  0  0  0  0  0  0
  -30.2829  -27.8286   19.9567 N   0  0  0  0  0  0  0  0  0  0  0  0
  -26.3421  -25.5893   18.5659 N   0  0  0  0  0  0  0  0  0  0  0  0
  -22.1160  -27.0839   19.1158 N   0  0  0  0  0  0  0  0  0  0  0  0
  -22.9960  -13.3864   21.1809 N   0  0  0  0  0  0  0  0  0  0  0  0
  -28.8330  -11.4825   20.5674 N   0  0  0  0  0  0  0  0  0  0  0  0
  -31.0920  -27.2071   17.7893 N   0  0  0  0  0  0  0  0  0  0  0  0
  -31.2427  -11.4148   17.8737 N   0  3  0  0  0  0  0  0  0  0  0  0
  -23.4449  -25.6610   17.9041 O   0  0  0  0  0  0  0  0  0  0  0  0
  -24.2308  -15.3602   21.1359 O   0  0  0  0  0  0  0  0  0  0  0  0
  -25.9753  -11.2816   20.6100 O   0  0  0  0  0  0  0  0  0  0  0  0
  -30.2678  -13.1590   19.8546 O   0  0  0  0  0  0  0  0  0  0  0  0
  -32.2199  -28.7358   19.0945 O   0  0  0  0  0  0  0  0  0  0  0  0
  -20.4128  -30.8425   22.8585 O   0  0  0  0  0  0  0  0  0  0  0  0
  -27.6826  -19.2965   18.4407 O   0  0  0  0  0  0  0  0  0  1  0  0
  -15.6826  -28.2225   23.9377 F   0  0  0  0  0  0  0  0  0  0  0  0
  -18.9811  -29.6108   20.8396 F   0  0  0  0  0  0  0  0  0  0  0  0
  1  2  1  0  0  0  0
  1  5  2  0  0  0  0
  2  6  2  0  0  0  0
  3  8  2  0  0  0  0
  3 16  1  0  0  0  0
  4  9  1  0  0  0  0
  4 16  2  0  0  0  0
  5 18  1  0  0  0  0
  6 20  1  0  0  0  0
  7 10  2  0  0  0  0
  7 19  1  0  0  0  0
  8 23  1  0  0  0  0
  9 23  2  0  0  0  0
 10 24  1  0  0  0  0
 11 12  2  0  0  0  0
 11 25  1  0  0  0  0
 12 26  1  0  0  0  0
 13 21  1  0  0  0  0
 13 24  2  0  0  0  0
 14 26  2  0  0  0  0
 14 27  1  0  0  0  0
 15 22  1  0  0  0  0
 15 63  2  0  0  0  0
 16 28  1  0  0  0  0
 17 28  1  0  0  0  0
 17 30  2  0  0  0  0
 17 32  1  0  0  0  0
 18 20  2  0  0  0  0
 18 37  1  0  0  0  0
 19 21  2  0  0  0  0
 19 38  1  0  0  0  0
 20 46  1  0  0  0  0
 21 39  1  0  0  0  0
 22 29  2  0  0  0  0
 22 56  1  0  0  0  0
 23 80  1  0  0  0  0
 24 81  1  0  0  0  0
 25 27  2  0  0  0  0
 25 80  1  0  0  0  0
 26 82  1  0  0  0  0
 27 83  1  0  0  0  0
 28 64  2  0  0  0  0
 29 57  1  0  0  0  0
 29 65  1  0  0  0  0
 30 66  1  0  0  0  0
 30 69  1  0  0  0  0
 31 58  1  0  0  0  0
 31 63  1  0  0  0  0
 31 65  2  0  0  0  0
 32 70  1  0  0  0  0
 32 75  2  0  0  0  0
 33 47  1  0  0  0  0
 33 71  1  0  0  0  0
 33 76  2  0  0  0  0
 34 60  1  0  0  0  0
 34 67  1  0  0  0  0
 34 77  2  0  0  0  0
 35 61  1  0  0  0  0
 35 72  1  0  0  0  0
 35 78  2  0  0  0  0
 36 68  1  0  0  0  0
 36 73  1  0  0  0  0
 36 79  2  0  0  0  0
 37 40  1  0  0  0  0
 38 47  1  0  0  0  0
 39 67  1  0  0  0  0
 40 42  1  0  0  0  0
 41 43  1  0  0  0  0
 41 44  1  0  0  0  0
 42 46  1  0  0  0  0
 43 48  1  0  0  0  0
 44 68  1  0  0  0  0
 45 48  1  0  0  0  0
 45 68  1  0  0  0  0
 46 71  1  0  0  0  0
 47 67  1  0  0  0  0
 48 66  1  0  0  0  0
 49 57  1  0  0  0  0
 50 61  1  0  0  0  0
 51 62  1  0  0  0  0
 52 62  1  0  0  0  0
 53 62  1  0  0  0  0
 54 73  1  0  0  0  0
 55 74  1  0  0  0  0
 56 81  1  0  0  0  0
 58 59  1  0  0  0  0
 59 73  1  0  0  0  0
 60 62  1  0  0  0  0
 60 72  1  0  0  0  0
 61 74  1  0  0  0  0
 64 66  1  0  0  0  0
M  CHG  1  74   1
M  ISO  4  36 100  56 101  73 100  81 101
M  END
> <Batch ID>
0059

> <Smiles>
CCc1nc(CC[100N:0](C)[100C:0](=O)N2CCCC(n3nc(-c4ccc(Oc5ccc(F)cc5F)cc4)c(C(N)=O)c3N)C2)ncc1[101CH2:1][101O:1]c1ccc2c(c1)CN(C(=O)C(NC(=O)C(C)NC)C(C)(C)C)C(C(=O)NC1CCCc3ccccc31)C2

> <Shape>
0.267

> <Color>
0.061

> <Negative vol penalty>
0.000

$$$$

  -OEChem-04052317533D

 84 92  0     1  0  0  0  0  0999 V2000
  -24.5188  -36.0463   22.1971 C   0  0  0  0  0  0  0  0  0  0  0  0
  -25.3763  -35.4360   21.2875 C   0  0  0  0  0  0  0  0  0  0  0  0
  -27.2078  -11.4609   20.6674 C   0  0  0  0  0  0  0  0  0  0  0  0
  -26.4016  -12.7798   18.8106 C   0  0  0  0  0  0  0  0  0  0  0  0
  -24.2628  -35.4406   23.4266 C   0  0  0  0  0  0  0  0  0  0  0  0
  -25.9794  -34.2200   21.6073 C   0  0  0  0  0  0  0  0  0  0  0  0
  -28.2432  -28.1411   18.5678 C   0  0  0  0  0  0  0  0  0  0  0  0
  -26.1937  -10.5292   20.4460 C   0  0  0  0  0  0  0  0  0  0  0  0
  -25.3875  -11.8480   18.5891 C   0  0  0  0  0  0  0  0  0  0  0  0
  -29.3752  -27.3308   18.4932 C   0  0  0  0  0  0  0  0  0  0  0  0
  -23.5978   -7.9870   20.5937 C   0  0  0  0  0  0  0  0  0  0  0  0
  -22.8935   -7.5170   21.7022 C   0  0  0  0  0  0  0  0  0  0  0  0
  -28.7972  -26.3380   20.6144 C   0  0  0  0  0  0  0  0  0  0  0  0
  -22.1831   -9.7705   22.2063 C   0  0  0  0  0  0  0  0  0  0  0  0
  -29.8938  -22.4885   18.0772 C   0  0  0  0  0  0  0  0  0  0  0  0
  -27.3118  -12.5863   19.8498 C   0  0  0  0  0  0  0  0  0  0  0  0
  -29.6502  -13.5502   19.5180 C   0  0  0  0  0  0  0  0  0  0  0  0
  -24.8554  -34.2119   23.7577 C   0  0  0  0  0  0  0  0  0  0  0  0
  -27.3840  -28.0635   19.6734 C   0  0  0  0  0  0  0  0  0  0  0  0
  -25.7321  -33.5980   22.8429 C   0  0  0  0  0  0  0  0  0  0  0  0
  -27.6535  -27.1466   20.6994 C   0  0  0  0  0  0  0  0  0  0  0  0
  -31.0698  -22.8165   18.7204 C   0  0  0  0  0  0  0  0  0  0  0  0
  -25.2835  -10.7228   19.4069 C   0  0  0  0  0  0  0  0  0  0  0  0
  -29.6540  -26.4311   19.5179 C   0  0  0  0  0  0  0  0  0  0  0  0
  -23.5949   -9.3487   20.2916 C   0  0  0  0  0  0  0  0  0  0  0  0
  -22.1861   -8.4087   22.5084 C   0  0  0  0  0  0  0  0  0  0  0  0
  -22.8875  -10.2405   21.0979 C   0  0  0  0  0  0  0  0  0  0  0  0
  -28.3588  -13.5494   20.0784 C   0  0  0  0  0  0  0  0  0  0  0  0
  -31.3726  -22.0594   19.8336 C   0  0  0  0  0  0  0  0  0  0  0  0
  -30.2533  -14.6651   20.0470 C   0  0  0  0  0  0  0  0  0  0  0  0
  -29.4750  -20.8342   19.5788 C   0  0  0  0  0  0  0  0  0  0  0  0
  -30.2510  -12.6259   18.6013 C   0  0  0  0  0  0  0  0  0  0  0  0
  -26.4588  -30.0890   21.9417 C   0  0  0  0  0  0  0  0  0  0  0  0
  -24.4696  -27.6595   22.7557 C   0  0  0  0  0  0  0  0  0  0  0  0
  -23.8078  -24.3122   22.6931 C   0  0  0  0  0  0  0  0  0  0  0  0
  -27.6124  -19.6732   22.3885 C   0  0  0  0  0  0  0  0  0  0  0  0
  -24.5855  -33.6189   25.1179 C   0  0  0  0  0  0  0  0  0  0  0  0
  -26.1525  -28.9255   19.7262 C   0  0  0  0  0  0  0  0  0  0  0  0
  -26.7518  -27.0103   21.8982 C   0  0  0  0  0  0  0  0  0  0  0  0
  -24.9710  -32.1459   25.2276 C   0  0  0  0  0  0  0  0  0  0  0  0
  -30.1985  -17.4960   23.8964 C   0  0  0  0  0  0  0  0  0  0  0  0
  -26.3566  -31.9111   24.6346 C   0  0  0  0  0  0  0  0  0  0  0  0
  -30.0715  -16.2121   23.0781 C   0  0  0  0  0  0  0  0  0  0  0  0
  -28.8784  -18.2577   23.9650 C   0  0  0  0  0  0  0  0  0  0  0  0
  -28.1579  -17.2719   21.8149 C   0  0  0  0  0  0  0  0  0  0  0  0
  -26.3859  -32.2666   23.1432 C   0  0  1  0  0  0  0  0  0  0  0  0
  -25.6248  -29.1275   21.1433 C   0  0  1  0  0  0  0  0  0  0  0  0
  -29.4822  -16.5042   21.6871 C   0  0  2  0  0  0  0  0  0  0  0  0
  -32.9387  -21.2029   21.5944 C   0  0  0  0  0  0  0  0  0  0  0  0
  -27.8197  -19.0506   18.9150 C   0  0  0  0  0  0  0  0  0  0  0  0
  -22.1259  -22.6217   23.4747 C   0  0  0  0  0  0  0  0  0  0  0  0
  -25.5906  -27.8567   25.5867 C   0  0  0  0  0  0  0  0  0  0  0  0
  -24.6151  -25.5991   26.0555 C   0  0  0  0  0  0  0  0  0  0  0  0
  -23.1175  -27.5050   25.4661 C   0  0  0  0  0  0  0  0  0  0  0  0
  -26.9500  -21.4252   20.7850 C   0  0  0  0  0  0  0  0  0  0  0  0
  -23.1746  -23.4892   19.9217 C   0  0  0  0  0  0  0  0  0  0  0  0
  -31.9493  -23.9358   18.2183 C   0  0  0  0  0  0  0  0  0  0  0  0
  -32.6206  -22.3241   20.6095 C   0  0  0  0  0  0  0  0  0  0  0  0
  -31.2092  -25.2669   18.1461 C   0  0  0  0  0  0  0  0  0  1  0  0
  -28.5897  -19.7327   20.0553 C   0  0  2  0  0  0  0  0  0  0  0  0
  -24.5623  -26.4632   23.6719 C   0  0  1  0  0  0  0  0  0  0  0  0
  -22.5492  -23.5407   22.3393 C   0  0  2  0  0  0  0  0  0  0  0  0
  -24.4896  -26.8597   25.1735 C   0  0  0  0  0  0  0  0  0  0  0  0
  -29.0694  -21.4996   18.4805 N   0  0  0  0  0  0  0  0  0  0  0  0
  -28.1528  -14.5817   20.9004 N   0  0  0  0  0  0  0  0  0  0  0  0
  -30.5949  -21.0570   20.2927 N   0  0  0  0  0  0  0  0  0  0  0  0
  -29.3228  -15.2416   20.8606 N   0  0  0  0  0  0  0  0  0  0  0  0
  -25.5635  -27.8795   21.9068 N   0  0  0  0  0  0  0  0  0  0  0  0
  -28.3190  -18.4839   22.6319 N   0  0  0  0  0  0  0  0  0  0  0  0
  -31.4835  -15.1986   19.8909 N   0  0  0  0  0  0  0  0  0  0  0  0
  -29.4906  -11.5352   18.1577 N   0  0  0  0  0  0  0  0  0  0  0  0
  -25.7744  -31.2140   22.3606 N   0  0  0  0  0  0  0  0  0  0  0  0
  -23.5152  -25.5409   23.2460 N   0  0  0  0  0  0  0  0  0  0  0  0
  -27.6573  -20.1882   21.0841 N   0  0  0  0  0  0  0  0  0  0  0  0
  -22.7752  -22.7107   21.1223 N   0  3  0  0  0  0  0  0  0  0  0  0
  -31.4327  -12.7539   18.2004 O   0  0  0  0  0  0  0  0  0  0  0  0
  -27.6358  -29.8289   22.1626 O   0  0  0  0  0  0  0  0  0  0  0  0
  -23.4606  -28.3685   22.7870 O   0  0  0  0  0  0  0  0  0  0  0  0
  -24.9375  -23.8676   22.5017 O   0  0  0  0  0  0  0  0  0  0  0  0
  -26.9856  -20.2473   23.2882 O   0  0  0  0  0  0  0  0  0  0  0  0
  -24.2940   -9.8137   19.1903 O   0  0  0  0  0  0  0  0  0  0  0  0
  -30.7586  -25.6395   19.4478 O   0  0  0  0  0  0  0  0  0  1  0  0
  -21.5085   -7.9571   23.5719 F   0  0  0  0  0  0  0  0  0  0  0  0
  -22.8800  -11.5497   20.8119 F   0  0  0  0  0  0  0  0  0  0  0  0
  1  2  1  0  0  0  0
  1  5  2  0  0  0  0
  2  6  2  0  0  0  0
  3  8  2  0  0  0  0
  3 16  1  0  0  0  0
  4  9  1  0  0  0  0
  4 16  2  0  0  0  0
  5 18  1  0  0  0  0
  6 20  1  0  0  0  0
  7 10  2  0  0  0  0
  7 19  1  0  0  0  0
  8 23  1  0  0  0  0
  9 23  2  0  0  0  0
 10 24  1  0  0  0  0
 11 12  2  0  0  0  0
 11 25  1  0  0  0  0
 12 26  1  0  0  0  0
 13 21  1  0  0  0  0
 13 24  2  0  0  0  0
 14 26  2  0  0  0  0
 14 27  1  0  0  0  0
 15 22  1  0  0  0  0
 15 64  2  0  0  0  0
 16 28  1  0  0  0  0
 17 28  1  0  0  0  0
 17 30  2  0  0  0  0
 17 32  1  0  0  0  0
 18 20  2  0  0  0  0
 18 37  1  0  0  0  0
 19 21  2  0  0  0  0
 19 38  1  0  0  0  0
 20 46  1  0  0  0  0
 21 39  1  0  0  0  0
 22 29  2  0  0  0  0
 22 57  1  0  0  0  0
 23 81  1  0  0  0  0
 24 82  1  0  0  0  0
 25 27  2  0  0  0  0
 25 81  1  0  0  0  0
 26 83  1  0  0  0  0
 27 84  1  0  0  0  0
 28 65  2  0  0  0  0
 29 58  1  0  0  0  0
 29 66  1  0  0  0  0
 30 67  1  0  0  0  0
 30 70  1  0  0  0  0
 31 60  1  0  0  0  0
 31 64  1  0  0  0  0
 31 66  2  0  0  0  0
 32 71  1  0  0  0  0
 32 76  2  0  0  0  0
 33 47  1  0  0  0  0
 33 72  1  0  0  0  0
 33 77  2  0  0  0  0
 34 61  1  0  0  0  0
 34 68  1  0  0  0  0
 34 78  2  0  0  0  0
 35 62  1  0  0  0  0
 35 73  1  0  0  0  0
 35 79  2  0  0  0  0
 36 69  1  0  0  0  0
 36 74  1  0  0  0  0
 36 80  2  0  0  0  0
 37 40  1  0  0  0  0
 38 47  1  0  0  0  0
 39 68  1  0  0  0  0
 40 42  1  0  0  0  0
 41 43  1  0  0  0  0
 41 44  1  0  0  0  0
 42 46  1  0  0  0  0
 43 48  1  0  0  0  0
 44 69  1  0  0  0  0
 45 48  1  0  0  0  0
 45 69  1  0  0  0  0
 46 72  1  0  0  0  0
 47 68  1  0  0  0  0
 48 67  1  0  0  0  0
 49 58  1  0  0  0  0
 50 60  1  0  0  0  0
 51 62  1  0  0  0  0
 52 63  1  0  0  0  0
 53 63  1  0  0  0  0
 54 63  1  0  0  0  0
 55 74  1  0  0  0  0
 56 75  1  0  0  0  0
 57 59  1  0  0  0  0
 59 82  1  0  0  0  0
 60 74  1  0  0  0  0
 61 63  1  0  0  0  0
 61 73  1  0  0  0  0
 62 75  1  0  0  0  0
 65 67  1  0  0  0  0
M  CHG  1  75   1
M  ISO  4  36 100  59 101  74 100  82 101
M  END
> <Batch ID>
0059

> <Smiles>
CCc1nc(C(C)[100N:0](C)[100C:0](=O)N2CCCC(n3nc(-c4ccc(Oc5ccc(F)cc5F)cc4)c(C(N)=O)c3N)C2)ncc1C[101CH2:1][101O:1]c1ccc2c(c1)CN(C(=O)C(NC(=O)C(C)NC)C(C)(C)C)C(C(=O)NC1CCCc3ccccc31)C2

> <Shape>
0.289

> <Color>
0.073

> <Negative vol penalty>
0.000

$$$$

  -OEChem-04052317533D

 78 86  0     1  0  0  0  0  0999 V2000
  -18.4501  -27.3646   19.1100 C   0  0  0  0  0  0  0  0  0  0  0  0
  -19.6655  -26.7774   19.4466 C   0  0  0  0  0  0  0  0  0  0  0  0
  -23.0701   -9.8730   19.9496 C   0  0  0  0  0  0  0  0  0  0  0  0
  -23.8411   -9.8813   22.2392 C   0  0  0  0  0  0  0  0  0  0  0  0
  -17.2982  -26.5832   19.0296 C   0  0  0  0  0  0  0  0  0  0  0  0
  -19.7295  -25.4084   19.7041 C   0  0  0  0  0  0  0  0  0  0  0  0
  -24.3691  -21.6300   18.3989 C   0  0  0  0  0  0  0  0  0  0  0  0
  -22.3242   -8.7223   20.2049 C   0  0  0  0  0  0  0  0  0  0  0  0
  -23.0952   -8.7306   22.4946 C   0  0  0  0  0  0  0  0  0  0  0  0
  -25.4132  -21.1246   19.1723 C   0  0  0  0  0  0  0  0  0  0  0  0
  -21.1092   -6.0011   23.8450 C   0  0  0  0  0  0  0  0  0  0  0  0
  -20.3585   -5.9614   25.0199 C   0  0  0  0  0  0  0  0  0  0  0  0
  -29.6976  -18.7745   23.2023 C   0  0  0  0  0  0  0  0  0  0  0  0
  -24.1340  -19.1200   19.5782 C   0  0  0  0  0  0  0  0  0  0  0  0
  -19.1158   -7.9011   24.2915 C   0  0  0  0  0  0  0  0  0  0  0  0
  -28.7491  -19.6990   22.8388 C   0  0  0  0  0  0  0  0  0  0  0  0
  -23.8286  -10.4525   20.9667 C   0  0  0  0  0  0  0  0  0  0  0  0
  -24.1768  -12.9765   20.8412 C   0  0  0  0  0  0  0  0  0  0  0  0
  -17.3500  -25.2023   19.2768 C   0  0  0  0  0  0  0  0  0  0  0  0
  -23.1933  -20.8877   18.2180 C   0  0  0  0  0  0  0  0  0  0  0  0
  -18.5770  -24.6080   19.6282 C   0  0  0  0  0  0  0  0  0  0  0  0
  -23.0775  -19.6172   18.7999 C   0  0  0  0  0  0  0  0  0  0  0  0
  -22.3368   -8.1511   21.4774 C   0  0  0  0  0  0  0  0  0  0  0  0
  -25.2946  -19.8706   19.7645 C   0  0  0  0  0  0  0  0  0  0  0  0
  -20.8632   -6.9908   22.8933 C   0  0  0  0  0  0  0  0  0  0  0  0
  -19.3618   -6.9114   25.2432 C   0  0  0  0  0  0  0  0  0  0  0  0
  -19.8665   -7.9408   23.1165 C   0  0  0  0  0  0  0  0  0  0  0  0
  -24.5997  -11.6408   20.7035 C   0  0  0  0  0  0  0  0  0  0  0  0
  -29.9114  -18.0131   22.0377 C   0  0  0  0  0  0  0  0  0  0  0  0
  -25.2693  -13.7224   20.4715 C   0  0  0  0  0  0  0  0  0  0  0  0
  -22.9098  -13.4965   21.2655 C   0  0  0  0  0  0  0  0  0  0  0  0
  -20.1299  -21.3257   18.9443 C   0  0  0  0  0  0  0  0  0  0  0  0
  -19.7383  -18.5925   17.2417 C   0  0  0  0  0  0  0  0  0  0  0  0
  -21.1027  -15.6989   16.0533 C   0  0  0  0  0  0  0  0  0  0  0  0
  -30.7567  -14.7264   20.6317 C   0  0  0  0  0  0  0  0  0  0  0  0
  -16.0696  -24.4069   19.2239 C   0  0  0  0  0  0  0  0  0  0  0  0
  -22.0870  -21.4356   17.3588 C   0  0  0  0  0  0  0  0  0  0  0  0
  -21.8442  -18.7718   18.6197 C   0  0  0  0  0  0  0  0  0  0  0  0
  -16.2923  -22.8987   19.1452 C   0  0  0  0  0  0  0  0  0  0  0  0
  -29.6009  -12.3415   18.2541 C   0  0  0  0  0  0  0  0  0  0  0  0
  -17.3366  -22.4593   20.1667 C   0  0  0  0  0  0  0  0  0  0  0  0
  -28.1648  -12.0524   18.6945 C   0  0  0  0  0  0  0  0  0  0  0  0
  -30.5245  -12.5615   19.4502 C   0  0  0  0  0  0  0  0  0  0  0  0
  -28.6315  -13.3000   20.8449 C   0  0  0  0  0  0  0  0  0  0  0  0
  -18.6916  -23.1220   19.8904 C   0  0  1  0  0  0  0  0  0  0  0  0
  -20.7284  -20.8129   17.6650 C   0  0  1  0  0  0  0  0  0  0  0  0
  -27.6512  -13.1264   19.6723 C   0  0  2  0  0  0  0  0  0  0  0  0
  -20.5259  -13.6488   14.7258 C   0  0  0  0  0  0  0  0  0  0  0  0
  -18.2587  -17.4502   19.6534 C   0  0  0  0  0  0  0  0  0  0  0  0
  -18.5489  -15.1691   18.6631 C   0  0  0  0  0  0  0  0  0  0  0  0
  -17.2304  -16.8987   17.4414 C   0  0  0  0  0  0  0  0  0  0  0  0
  -23.1061  -16.3415   13.9718 C   0  0  0  0  0  0  0  0  0  0  0  0
  -30.8345  -16.8786   21.8650 C   0  0  0  0  0  0  0  0  0  0  0  0
  -27.4778  -20.1904   20.6696 C   0  0  0  0  0  0  0  0  0  1  0  0
  -19.7458  -17.1188   17.5690 C   0  0  1  0  0  0  0  0  0  0  0  0
  -21.0770  -15.0653   14.6740 C   0  0  2  0  0  0  0  0  0  0  0  0
  -18.4686  -16.6757   18.3369 C   0  0  0  0  0  0  0  0  0  0  0  0
  -25.8622  -11.5408   20.2792 N   0  0  0  0  0  0  0  0  0  0  0  0
  -29.1591  -18.4185   21.0112 N   0  0  0  0  0  0  0  0  0  0  0  0
  -28.4633  -19.4448   21.5297 N   0  0  0  0  0  0  0  0  0  0  0  0
  -26.2421  -12.8232   20.1471 N   0  0  0  0  0  0  0  0  0  0  0  0
  -20.7874  -19.3540   17.7759 N   0  0  0  0  0  0  0  0  0  0  0  0
  -29.9811  -13.5929   20.3373 N   0  0  0  0  0  0  0  0  0  0  0  0
  -25.4830  -15.0531   20.3954 N   0  0  0  0  0  0  0  0  0  0  0  0
  -21.8970  -12.5907   21.6091 N   0  0  0  0  0  0  0  0  0  0  0  0
  -19.3612  -22.4634   18.7894 N   0  0  0  0  0  0  0  0  0  0  0  0
  -19.9553  -16.4210   16.3050 N   0  0  0  0  0  0  0  0  0  0  0  0
  -30.1642  -15.6582   21.4752 N   0  0  0  0  0  0  0  0  0  0  0  0
  -22.4522  -15.0139   14.1019 N   0  3  0  0  0  0  0  0  0  0  0  0
  -22.6773  -14.7278   21.3221 O   0  0  0  0  0  0  0  0  0  0  0  0
  -20.3482  -20.7322   19.9939 O   0  0  0  0  0  0  0  0  0  0  0  0
  -18.8389  -19.0498   16.5322 O   0  0  0  0  0  0  0  0  0  0  0  0
  -22.0445  -15.5634   16.8311 O   0  0  0  0  0  0  0  0  0  0  0  0
  -31.8909  -14.8980   20.1723 O   0  0  0  0  0  0  0  0  0  0  0  0
  -21.6089   -7.0284   21.7270 O   0  0  0  0  0  0  0  0  0  0  0  0
  -26.3119  -19.3752   20.5205 O   0  0  0  0  0  0  0  0  0  1  0  0
  -18.6399   -6.8722   26.3708 F   0  0  0  0  0  0  0  0  0  0  0  0
  -19.6249   -8.8932   22.2054 F   0  0  0  0  0  0  0  0  0  0  0  0
  1  2  1  0  0  0  0
  1  5  2  0  0  0  0
  2  6  2  0  0  0  0
  3  8  2  0  0  0  0
  3 17  1  0  0  0  0
  4  9  1  0  0  0  0
  4 17  2  0  0  0  0
  5 19  1  0  0  0  0
  6 21  1  0  0  0  0
  7 10  2  0  0  0  0
  7 20  1  0  0  0  0
  8 23  1  0  0  0  0
  9 23  2  0  0  0  0
 10 24  1  0  0  0  0
 11 12  2  0  0  0  0
 11 25  1  0  0  0  0
 12 26  1  0  0  0  0
 13 16  2  0  0  0  0
 13 29  1  0  0  0  0
 14 22  1  0  0  0  0
 14 24  2  0  0  0  0
 15 26  2  0  0  0  0
 15 27  1  0  0  0  0
 16 60  1  0  0  0  0
 17 28  1  0  0  0  0
 18 28  1  0  0  0  0
 18 30  2  0  0  0  0
 18 31  1  0  0  0  0
 19 21  2  0  0  0  0
 19 36  1  0  0  0  0
 20 22  2  0  0  0  0
 20 37  1  0  0  0  0
 21 45  1  0  0  0  0
 22 38  1  0  0  0  0
 23 75  1  0  0  0  0
 24 76  1  0  0  0  0
 25 27  2  0  0  0  0
 25 75  1  0  0  0  0
 26 77  1  0  0  0  0
 27 78  1  0  0  0  0
 28 58  2  0  0  0  0
 29 53  1  0  0  0  0
 29 59  2  0  0  0  0
 30 61  1  0  0  0  0
 30 64  1  0  0  0  0
 31 65  1  0  0  0  0
 31 70  2  0  0  0  0
 32 46  1  0  0  0  0
 32 66  1  0  0  0  0
 32 71  2  0  0  0  0
 33 55  1  0  0  0  0
 33 62  1  0  0  0  0
 33 72  2  0  0  0  0
 34 56  1  0  0  0  0
 34 67  1  0  0  0  0
 34 73  2  0  0  0  0
 35 63  1  0  0  0  0
 35 68  1  0  0  0  0
 35 74  2  0  0  0  0
 36 39  1  0  0  0  0
 37 46  1  0  0  0  0
 38 62  1  0  0  0  0
 39 41  1  0  0  0  0
 40 42  1  0  0  0  0
 40 43  1  0  0  0  0
 41 45  1  0  0  0  0
 42 47  1  0  0  0  0
 43 63  1  0  0  0  0
 44 47  1  0  0  0  0
 44 63  1  0  0  0  0
 45 66  1  0  0  0  0
 46 62  1  0  0  0  0
 47 61  1  0  0  0  0
 48 56  1  0  0  0  0
 49 57  1  0  0  0  0
 50 57  1  0  0  0  0
 51 57  1  0  0  0  0
 52 69  1  0  0  0  0
 53 68  1  0  0  0  0
 54 60  1  0  0  0  0
 54 76  1  0  0  0  0
 55 57  1  0  0  0  0
 55 67  1  0  0  0  0
 56 69  1  0  0  0  0
 58 61  1  0  0  0  0
 59 60  1  0  0  0  0
M  CHG  1  69   1
M  ISO  4  35 100  54 101  68 100  76 101
M  END
> <Batch ID>
0059

> <Smiles>
CNC(C)C(=O)NC(C(=O)N1Cc2cc([101O:1][101CH2:1]n3ccc(C[100NH:0][100C:0](=O)N4CCCC(n5nc(-c6ccc(Oc7ccc(F)cc7F)cc6)c(C(N)=O)c5N)C4)n3)ccc2CC1C(=O)NC1CCCc2ccccc21)C(C)(C)C

> <Shape>
0.187

> <Color>
0.197

> <Negative vol penalty>
0.000

$$$$

  -OEChem-04052317533D

 82 90  0     1  0  0  0  0  0999 V2000
  -19.2767   -9.1766   28.8592 C   0  0  0  0  0  0  0  0  0  0  0  0
  -19.6603  -10.2270   28.0316 C   0  0  0  0  0  0  0  0  0  0  0  0
  -23.2045   -9.8495   19.9739 C   0  0  0  0  0  0  0  0  0  0  0  0
  -23.9387   -9.9476   22.2736 C   0  0  0  0  0  0  0  0  0  0  0  0
  -19.9161   -8.9860   30.0834 C   0  0  0  0  0  0  0  0  0  0  0  0
  -20.6827  -11.0882   28.4283 C   0  0  0  0  0  0  0  0  0  0  0  0
  -24.8244  -13.7948   24.8191 C   0  0  0  0  0  0  0  0  0  0  0  0
  -22.5192   -8.6648   20.2432 C   0  0  0  0  0  0  0  0  0  0  0  0
  -23.2533   -8.7629   22.5429 C   0  0  0  0  0  0  0  0  0  0  0  0
  -24.8967  -15.0743   24.2700 C   0  0  0  0  0  0  0  0  0  0  0  0
  -20.0650   -7.8107   23.1331 C   0  0  0  0  0  0  0  0  0  0  0  0
  -19.2988   -7.7573   24.2974 C   0  0  0  0  0  0  0  0  0  0  0  0
  -26.3029  -15.7739   26.1010 C   0  0  0  0  0  0  0  0  0  0  0  0
  -20.6318   -5.9045   25.0897 C   0  0  0  0  0  0  0  0  0  0  0  0
  -28.5818  -16.0581   22.3736 C   0  0  0  0  0  0  0  0  0  0  0  0
  -23.9143  -10.4909   20.9891 C   0  0  0  0  0  0  0  0  0  0  0  0
  -24.1251  -13.0271   20.8145 C   0  0  0  0  0  0  0  0  0  0  0  0
  -20.9534   -9.8394   30.4911 C   0  0  0  0  0  0  0  0  0  0  0  0
  -25.4829  -13.4978   26.0210 C   0  0  0  0  0  0  0  0  0  0  0  0
  -21.3356  -10.9096   29.6598 C   0  0  0  0  0  0  0  0  0  0  0  0
  -26.2394  -14.4892   26.6619 C   0  0  0  0  0  0  0  0  0  0  0  0
  -22.5436   -8.1215   21.5277 C   0  0  0  0  0  0  0  0  0  0  0  0
  -25.6337  -16.0649   24.9125 C   0  0  0  0  0  0  0  0  0  0  0  0
  -21.1146   -6.9109   22.9470 C   0  0  0  0  0  0  0  0  0  0  0  0
  -19.5822   -6.8043   25.2757 C   0  0  0  0  0  0  0  0  0  0  0  0
  -21.3979   -5.9579   23.9253 C   0  0  0  0  0  0  0  0  0  0  0  0
  -24.6229  -11.7143   20.7114 C   0  0  0  0  0  0  0  0  0  0  0  0
  -28.4835  -17.3873   22.0471 C   0  0  0  0  0  0  0  0  0  0  0  0
  -25.1805  -13.8245   20.4445 C   0  0  0  0  0  0  0  0  0  0  0  0
  -22.8251  -13.4849   21.2096 C   0  0  0  0  0  0  0  0  0  0  0  0
  -24.5574  -12.5573   28.9128 C   0  0  0  0  0  0  0  0  0  0  0  0
  -30.9676  -13.9830   20.9249 C   0  0  0  0  0  0  0  0  0  0  0  0
  -27.7510  -12.3318   29.4348 C   0  0  0  0  0  0  0  0  0  0  0  0
  -30.9029  -13.3270   28.5851 C   0  0  0  0  0  0  0  0  0  0  0  0
  -21.5828   -9.6221   31.8443 C   0  0  0  0  0  0  0  0  0  0  0  0
  -25.4170  -12.1054   26.5862 C   0  0  0  0  0  0  0  0  0  0  0  0
  -26.9815  -14.2159   27.9437 C   0  0  0  0  0  0  0  0  0  0  0  0
  -22.9106  -10.3537   32.0231 C   0  0  0  0  0  0  0  0  0  0  0  0
  -29.3252  -13.1528   17.8503 C   0  0  0  0  0  0  0  0  0  0  0  0
  -22.7951  -11.7956   31.5389 C   0  0  0  0  0  0  0  0  0  0  0  0
  -27.9055  -12.7939   18.2872 C   0  0  0  0  0  0  0  0  0  0  0  0
  -30.3553  -12.7203   18.8890 C   0  0  0  0  0  0  0  0  0  0  0  0
  -28.6780  -12.8977   20.6992 C   0  0  0  0  0  0  0  0  0  0  0  0
  -22.4572  -11.8501   30.0441 C   0  0  1  0  0  0  0  0  0  0  0  0
  -25.7049  -12.0542   28.0835 C   0  0  1  0  0  0  0  0  0  0  0  0
  -27.6036  -13.3448   19.6921 C   0  0  2  0  0  0  0  0  0  0  0  0
  -33.4120  -13.3723   28.5932 C   0  0  0  0  0  0  0  0  0  0  0  0
  -31.3576  -15.0556   24.6394 C   0  0  0  0  0  0  0  0  0  0  0  0
  -32.3879  -13.1443   23.4161 C   0  0  0  0  0  0  0  0  0  0  0  0
  -27.3495  -14.1071   31.8837 C   0  0  0  0  0  0  0  0  0  0  0  0
  -29.8194  -14.5162   31.9056 C   0  0  0  0  0  0  0  0  0  0  0  0
  -28.9370  -12.2047   32.2233 C   0  0  0  0  0  0  0  0  0  0  0  0
  -31.0630  -11.2351   26.4978 C   0  0  0  0  0  0  0  0  0  0  0  0
  -27.2828  -18.2965   22.1199 C   0  0  0  0  0  0  0  0  0  0  0  0
  -27.1328  -19.0123   23.4640 C   0  0  0  0  0  0  0  0  0  0  0  0
  -26.8951  -18.0613   24.6313 C   0  0  0  0  0  0  0  0  0  1  0  0
  -30.5487  -14.4935   22.2806 C   0  0  1  0  0  0  0  0  0  0  0  0
  -28.8217  -13.2717   29.9341 C   0  0  1  0  0  0  0  0  0  0  0  0
  -32.1713  -12.5366   28.3189 C   0  0  2  0  0  0  0  0  0  0  0  0
  -31.7580  -14.5353   23.2522 C   0  0  0  0  0  0  0  0  0  0  0  0
  -28.7164  -13.5309   31.4635 C   0  0  0  0  0  0  0  0  0  0  0  0
  -25.8954  -11.6756   20.3074 N   0  0  0  0  0  0  0  0  0  0  0  0
  -29.6967  -17.8447   21.6130 N   0  0  0  0  0  0  0  0  0  0  0  0
  -30.5550  -16.8317   21.6587 N   0  0  0  0  0  0  0  0  0  0  0  0
  -29.8845  -15.7614   22.1148 N   0  0  0  0  0  0  0  0  0  0  0  0
  -26.2061  -12.9740   20.1533 N   0  0  0  0  0  0  0  0  0  0  0  0
  -26.8811  -12.8409   28.4601 N   0  0  0  0  0  0  0  0  0  0  0  0
  -30.0208  -13.2452   20.2141 N   0  0  0  0  0  0  0  0  0  0  0  0
  -25.3219  -15.1632   20.3430 N   0  0  0  0  0  0  0  0  0  0  0  0
  -21.8585  -12.5317   21.5580 N   0  0  0  0  0  0  0  0  0  0  0  0
  -23.6368  -11.5833   29.2492 N   0  0  0  0  0  0  0  0  0  0  0  0
  -30.0958  -12.7006   29.5111 N   0  0  0  0  0  0  0  0  0  0  0  0
  -32.2126  -12.0864   26.8988 N   0  3  0  0  0  0  0  0  0  0  0  0
  -22.5243  -14.7024   21.2365 O   0  0  0  0  0  0  0  0  0  0  0  0
  -24.5115  -13.7413   29.2257 O   0  0  0  0  0  0  0  0  0  0  0  0
  -32.1019  -14.2359   20.5105 O   0  0  0  0  0  0  0  0  0  0  0  0
  -27.6932  -11.1858   29.8875 O   0  0  0  0  0  0  0  0  0  0  0  0
  -30.6548  -14.3952   28.0302 O   0  0  0  0  0  0  0  0  0  0  0  0
  -21.8748   -6.9657   21.7908 O   0  0  0  0  0  0  0  0  0  0  0  0
  -25.7054  -17.3147   24.3790 O   0  0  0  0  0  0  0  0  0  1  0  0
  -18.8473   -6.7542   26.3945 F   0  0  0  0  0  0  0  0  0  0  0  0
  -22.4057   -5.0916   23.7527 F   0  0  0  0  0  0  0  0  0  0  0  0
  1  2  1  0  0  0  0
  1  5  2  0  0  0  0
  2  6  2  0  0  0  0
  3  8  2  0  0  0  0
  3 16  1  0  0  0  0
  4  9  1  0  0  0  0
  4 16  2  0  0  0  0
  5 18  1  0  0  0  0
  6 20  1  0  0  0  0
  7 10  2  0  0  0  0
  7 19  1  0  0  0  0
  8 22  1  0  0  0  0
  9 22  2  0  0  0  0
 10 23  1  0  0  0  0
 11 12  2  0  0  0  0
 11 24  1  0  0  0  0
 12 25  1  0  0  0  0
 13 21  1  0  0  0  0
 13 23  2  0  0  0  0
 14 25  2  0  0  0  0
 14 26  1  0  0  0  0
 15 28  2  0  0  0  0
 15 65  1  0  0  0  0
 16 27  1  0  0  0  0
 17 27  1  0  0  0  0
 17 29  2  0  0  0  0
 17 30  1  0  0  0  0
 18 20  2  0  0  0  0
 18 35  1  0  0  0  0
 19 21  2  0  0  0  0
 19 36  1  0  0  0  0
 20 44  1  0  0  0  0
 21 37  1  0  0  0  0
 22 79  1  0  0  0  0
 23 80  1  0  0  0  0
 24 26  2  0  0  0  0
 24 79  1  0  0  0  0
 25 81  1  0  0  0  0
 26 82  1  0  0  0  0
 27 62  2  0  0  0  0
 28 54  1  0  0  0  0
 28 63  1  0  0  0  0
 29 66  1  0  0  0  0
 29 69  1  0  0  0  0
 30 70  1  0  0  0  0
 30 74  2  0  0  0  0
 31 45  1  0  0  0  0
 31 71  1  0  0  0  0
 31 75  2  0  0  0  0
 32 57  1  0  0  0  0
 32 68  1  0  0  0  0
 32 76  2  0  0  0  0
 33 58  1  0  0  0  0
 33 67  1  0  0  0  0
 33 77  2  0  0  0  0
 34 59  1  0  0  0  0
 34 72  1  0  0  0  0
 34 78  2  0  0  0  0
 35 38  1  0  0  0  0
 36 45  1  0  0  0  0
 37 67  1  0  0  0  0
 38 40  1  0  0  0  0
 39 41  1  0  0  0  0
 39 42  1  0  0  0  0
 40 44  1  0  0  0  0
 41 46  1  0  0  0  0
 42 68  1  0  0  0  0
 43 46  1  0  0  0  0
 43 68  1  0  0  0  0
 44 71  1  0  0  0  0
 45 67  1  0  0  0  0
 46 66  1  0  0  0  0
 47 59  1  0  0  0  0
 48 60  1  0  0  0  0
 49 60  1  0  0  0  0
 50 61  1  0  0  0  0
 51 61  1  0  0  0  0
 52 61  1  0  0  0  0
 53 73  1  0  0  0  0
 54 55  1  0  0  0  0
 55 56  1  0  0  0  0
 56 80  1  0  0  0  0
 57 60  1  0  0  0  0
 57 65  1  0  0  0  0
 58 61  1  0  0  0  0
 58 72  1  0  0  0  0
 59 73  1  0  0  0  0
 62 66  1  0  0  0  0
 63 64  2  0  0  0  0
 64 65  1  0  0  0  0
M  CHG  1  73   1
M  ISO  4  32 100  56 101  57 100  80 101
M  END
> <Batch ID>
0059

> <Smiles>
CNC(C)C(=O)NC(C(=O)N1Cc2cc([101O:1][101CH2:1]CCc3cn([100CH:0](C(C)C)[100C:0](=O)N4CCCC(n5nc(-c6ccc(Oc7ccc(F)cc7F)cc6)c(C(N)=O)c5N)C4)nn3)ccc2CC1C(=O)NC1CCCc2ccccc21)C(C)(C)C

> <Shape>
0.177

> <Color>
0.181

> <Negative vol penalty>
0.000

$$$$

  -OEChem-04052317533D

 82 90  0     1  0  0  0  0  0999 V2000
  -16.6168  -28.7790   23.9547 C   0  0  0  0  0  0  0  0  0  0  0  0
  -17.0940  -28.4192   22.6984 C   0  0  0  0  0  0  0  0  0  0  0  0
  -25.4735  -16.4821   21.0754 C   0  0  0  0  0  0  0  0  0  0  0  0
  -25.6493  -16.2342   18.6786 C   0  0  0  0  0  0  0  0  0  0  0  0
  -17.3106  -29.7146   24.7210 C   0  0  0  0  0  0  0  0  0  0  0  0
  -18.2648  -28.9957   22.2072 C   0  0  0  0  0  0  0  0  0  0  0  0
  -22.4876  -26.3141   18.6741 C   0  0  0  0  0  0  0  0  0  0  0  0
  -24.7276  -15.3054   21.1425 C   0  0  0  0  0  0  0  0  0  0  0  0
  -24.9033  -15.0574   18.7457 C   0  0  0  0  0  0  0  0  0  0  0  0
  -22.7151  -26.3421   17.2988 C   0  0  0  0  0  0  0  0  0  0  0  0
  -23.3520  -11.7960   18.3276 C   0  0  0  0  0  0  0  0  0  0  0  0
  -23.8026  -10.6990   17.5934 C   0  0  0  0  0  0  0  0  0  0  0  0
  -24.3484  -28.0897   17.6106 C   0  0  0  0  0  0  0  0  0  0  0  0
  -25.8768  -10.7218   18.8320 C   0  0  0  0  0  0  0  0  0  0  0  0
  -26.9293  -25.1234   14.0391 C   0  0  0  0  0  0  0  0  0  0  0  0
  -27.8957  -27.0973   14.2013 C   0  0  0  0  0  0  0  0  0  0  0  0
  -25.9343  -16.9466   19.8435 C   0  0  0  0  0  0  0  0  0  0  0  0
  -28.1037  -18.2887   19.8628 C   0  0  0  0  0  0  0  0  0  0  0  0
  -18.4957  -30.2957   24.2430 C   0  0  0  0  0  0  0  0  0  0  0  0
  -23.1821  -27.1828   19.5282 C   0  0  0  0  0  0  0  0  0  0  0  0
  -18.9744  -29.9410   22.9672 C   0  0  0  0  0  0  0  0  0  0  0  0
  -24.1298  -28.0690   18.9966 C   0  0  0  0  0  0  0  0  0  0  0  0
  -24.4425  -14.5931   19.9776 C   0  0  0  0  0  0  0  0  0  0  0  0
  -23.6435  -27.2319   16.7666 C   0  0  0  0  0  0  0  0  0  0  0  0
  -24.1639  -12.3560   19.3140 C   0  0  0  0  0  0  0  0  0  0  0  0
  -25.0649  -10.1619   17.8456 C   0  0  0  0  0  0  0  0  0  0  0  0
  -25.4262  -11.8189   19.5662 C   0  0  0  0  0  0  0  0  0  0  0  0
  -26.7045  -18.1624   19.7735 C   0  0  0  0  0  0  0  0  0  0  0  0
  -26.0363  -26.1416   13.8016 C   0  0  0  0  0  0  0  0  0  0  0  0
  -28.3353  -19.6368   19.7395 C   0  0  0  0  0  0  0  0  0  0  0  0
  -29.1046  -17.2777   20.0412 C   0  0  0  0  0  0  0  0  0  0  0  0
  -22.3459  -29.5183   21.5156 C   0  0  0  0  0  0  0  0  0  0  0  0
  -25.4964  -29.4625   22.2858 C   0  0  0  0  0  0  0  0  0  0  0  0
  -28.6902  -28.6857   21.3673 C   0  0  0  0  0  0  0  0  0  0  0  0
  -27.3688  -24.5324   17.2405 C   0  0  0  0  0  0  0  0  0  0  0  0
  -19.1854  -31.3376   25.0876 C   0  0  0  0  0  0  0  0  0  0  0  0
  -22.9447  -27.1216   21.0122 C   0  0  0  0  0  0  0  0  0  0  0  0
  -24.9164  -29.0081   19.8728 C   0  0  0  0  0  0  0  0  0  0  0  0
  -20.6202  -31.6229   24.6516 C   0  0  0  0  0  0  0  0  0  0  0  0
  -25.1309  -23.5497   19.8294 C   0  0  0  0  0  0  0  0  0  0  0  0
  -20.6928  -31.8020   23.1385 C   0  0  0  0  0  0  0  0  0  0  0  0
  -25.4519  -22.0701   20.0483 C   0  0  0  0  0  0  0  0  0  0  0  0
  -25.2385  -23.9386   18.3566 C   0  0  0  0  0  0  0  0  0  0  0  0
  -26.8441  -22.1165   17.9368 C   0  0  0  0  0  0  0  0  0  0  0  0
  -20.2542  -30.5258   22.4102 C   0  0  1  0  0  0  0  0  0  0  0  0
  -23.3348  -28.4082   21.7332 C   0  0  1  0  0  0  0  0  0  0  0  0
  -26.8034  -21.6898   19.4142 C   0  0  2  0  0  0  0  0  0  0  0  0
  -31.0579  -28.7909   22.1920 C   0  0  0  0  0  0  0  0  0  0  0  0
  -25.5631  -32.4571   21.7049 C   0  0  0  0  0  0  0  0  0  0  0  0
  -28.0610  -32.3130   21.6133 C   0  0  0  0  0  0  0  0  0  0  0  0
  -26.8580  -31.7576   23.7269 C   0  0  0  0  0  0  0  0  0  0  0  0
  -29.5371  -23.7115   13.9692 C   0  0  0  0  0  0  0  0  0  0  0  0
  -30.5250  -25.9856   14.0610 C   0  0  0  0  0  0  0  0  0  0  0  0
  -28.9869  -25.7438   21.2424 C   0  0  0  0  0  0  0  0  0  0  0  0
  -24.5687  -26.0372   13.4649 C   0  0  0  0  0  0  0  0  0  0  0  0
  -29.5514  -24.9727   16.1443 C   0  0  0  0  0  0  0  0  0  0  0  0
  -23.6868  -26.0405   14.7088 C   0  0  0  0  0  0  0  0  0  1  0  0
  -26.7348  -30.1574   21.7733 C   0  0  1  0  0  0  0  0  0  0  0  0
  -29.7967  -27.9464   22.0976 C   0  0  2  0  0  0  0  0  0  0  0  0
  -26.7882  -31.6551   22.1876 C   0  0  0  0  0  0  0  0  0  0  0  0
  -29.3705  -25.1121   14.6081 C   0  0  0  0  0  0  0  0  0  0  0  0
  -26.6442  -27.3678   13.9038 N   0  0  0  0  0  0  0  0  0  0  0  0
  -26.0903  -19.3367   19.6065 N   0  0  0  0  0  0  0  0  0  0  0  0
  -28.1162  -25.7511   14.2932 N   0  0  0  0  0  0  0  0  0  0  0  0
  -27.1085  -20.2137   19.5900 N   0  0  0  0  0  0  0  0  0  0  0  0
  -24.6440  -28.9149   21.3166 N   0  0  0  0  0  0  0  0  0  0  0  0
  -26.5440  -23.5519   17.8161 N   0  0  0  0  0  0  0  0  0  0  0  0
  -29.4667  -20.3733   19.7455 N   0  0  0  0  0  0  0  0  0  0  0  0
  -28.6934  -15.9422   20.1500 N   0  0  0  0  0  0  0  0  0  0  0  0
  -21.3139  -29.5406   22.4343 N   0  0  0  0  0  0  0  0  0  0  0  0
  -27.8689  -29.3675   22.2403 N   0  0  0  0  0  0  0  0  0  0  0  0
  -28.5918  -24.0822   16.7582 N   0  0  0  0  0  0  0  0  0  0  0  0
  -30.1311  -26.6804   21.3860 N   0  3  0  0  0  0  0  0  0  0  0  0
  -30.3261  -17.5522   20.1188 O   0  0  0  0  0  0  0  0  0  0  0  0
  -22.5079  -30.2978   20.5841 O   0  0  0  0  0  0  0  0  0  0  0  0
  -25.2966  -29.4013   23.5015 O   0  0  0  0  0  0  0  0  0  0  0  0
  -28.5688  -28.6639   20.1445 O   0  0  0  0  0  0  0  0  0  0  0  0
  -27.0420  -25.7218   17.1669 O   0  0  0  0  0  0  0  0  0  0  0  0
  -23.7149  -13.4447   20.0427 O   0  0  0  0  0  0  0  0  0  0  0  0
  -23.8670  -27.2618   15.4246 O   0  0  0  0  0  0  0  0  0  1  0  0
  -25.4968   -9.1074   17.1414 F   0  0  0  0  0  0  0  0  0  0  0  0
  -26.2102  -12.3518   20.5134 F   0  0  0  0  0  0  0  0  0  0  0  0
  1  2  1  0  0  0  0
  1  5  2  0  0  0  0
  2  6  2  0  0  0  0
  3  8  2  0  0  0  0
  3 17  1  0  0  0  0
  4  9  1  0  0  0  0
  4 17  2  0  0  0  0
  5 19  1  0  0  0  0
  6 21  1  0  0  0  0
  7 10  2  0  0  0  0
  7 20  1  0  0  0  0
  8 23  1  0  0  0  0
  9 23  2  0  0  0  0
 10 24  1  0  0  0  0
 11 12  2  0  0  0  0
 11 25  1  0  0  0  0
 12 26  1  0  0  0  0
 13 22  1  0  0  0  0
 13 24  2  0  0  0  0
 14 26  2  0  0  0  0
 14 27  1  0  0  0  0
 15 29  2  0  0  0  0
 15 64  1  0  0  0  0
 16 62  2  0  0  0  0
 16 64  1  0  0  0  0
 17 28  1  0  0  0  0
 18 28  1  0  0  0  0
 18 30  2  0  0  0  0
 18 31  1  0  0  0  0
 19 21  2  0  0  0  0
 19 36  1  0  0  0  0
 20 22  2  0  0  0  0
 20 37  1  0  0  0  0
 21 45  1  0  0  0  0
 22 38  1  0  0  0  0
 23 79  1  0  0  0  0
 24 80  1  0  0  0  0
 25 27  2  0  0  0  0
 25 79  1  0  0  0  0
 26 81  1  0  0  0  0
 27 82  1  0  0  0  0
 28 63  2  0  0  0  0
 29 55  1  0  0  0  0
 29 62  1  0  0  0  0
 30 65  1  0  0  0  0
 30 68  1  0  0  0  0
 31 69  1  0  0  0  0
 31 74  2  0  0  0  0
 32 46  1  0  0  0  0
 32 70  1  0  0  0  0
 32 75  2  0  0  0  0
 33 58  1  0  0  0  0
 33 66  1  0  0  0  0
 33 76  2  0  0  0  0
 34 59  1  0  0  0  0
 34 71  1  0  0  0  0
 34 77  2  0  0  0  0
 35 67  1  0  0  0  0
 35 72  1  0  0  0  0
 35 78  2  0  0  0  0
 36 39  1  0  0  0  0
 37 46  1  0  0  0  0
 38 66  1  0  0  0  0
 39 41  1  0  0  0  0
 40 42  1  0  0  0  0
 40 43  1  0  0  0  0
 41 45  1  0  0  0  0
 42 47  1  0  0  0  0
 43 67  1  0  0  0  0
 44 47  1  0  0  0  0
 44 67  1  0  0  0  0
 45 70  1  0  0  0  0
 46 66  1  0  0  0  0
 47 65  1  0  0  0  0
 48 59  1  0  0  0  0
 49 60  1  0  0  0  0
 50 60  1  0  0  0  0
 51 60  1  0  0  0  0
 52 61  1  0  0  0  0
 53 61  1  0  0  0  0
 54 73  1  0  0  0  0
 55 57  1  0  0  0  0
 56 61  1  0  0  0  0
 56 72  1  0  0  0  0
 57 80  1  0  0  0  0
 58 60  1  0  0  0  0
 58 71  1  0  0  0  0
 59 73  1  0  0  0  0
 61 64  1  0  0  0  0
 63 65  1  0  0  0  0
M  CHG  1  73   1
M  ISO  4  35 100  57 101  72 100  80 101
M  END
> <Batch ID>
0059

> <Smiles>
CNC(C)C(=O)NC(C(=O)N1Cc2cc([101O:1][101CH2:1]Cc3cn(C(C)(C)C[100NH:0][100C:0](=O)N4CCCC(n5nc(-c6ccc(Oc7ccc(F)cc7F)cc6)c(C(N)=O)c5N)C4)cn3)ccc2CC1C(=O)NC1CCCc2ccccc21)C(C)(C)C

> <Shape>
0.209

> <Color>
0.074

> <Negative vol penalty>
0.000

$$$$

  -OEChem-04052317533D

 82 90  0     1  0  0  0  0  0999 V2000
  -18.1851  -30.6565   23.8197 C   0  0  0  0  0  0  0  0  0  0  0  0
  -19.5744  -30.6698   23.7488 C   0  0  0  0  0  0  0  0  0  0  0  0
  -25.0897  -15.1310   20.8655 C   0  0  0  0  0  0  0  0  0  0  0  0
  -25.3537  -14.9855   18.4684 C   0  0  0  0  0  0  0  0  0  0  0  0
  -17.4817  -29.5030   23.4756 C   0  0  0  0  0  0  0  0  0  0  0  0
  -20.2612  -29.5291   23.3348 C   0  0  0  0  0  0  0  0  0  0  0  0
  -25.4360  -29.3312   20.0654 C   0  0  0  0  0  0  0  0  0  0  0  0
  -23.9904  -14.2753   20.7964 C   0  0  0  0  0  0  0  0  0  0  0  0
  -24.2543  -14.1298   18.3993 C   0  0  0  0  0  0  0  0  0  0  0  0
  -26.7707  -29.1623   20.4312 C   0  0  0  0  0  0  0  0  0  0  0  0
  -21.3353  -11.8424   21.2931 C   0  0  0  0  0  0  0  0  0  0  0  0
  -21.2569  -10.8105   22.2283 C   0  0  0  0  0  0  0  0  0  0  0  0
  -26.5956  -26.8034   19.9576 C   0  0  0  0  0  0  0  0  0  0  0  0
  -23.3545   -9.9218   21.4236 C   0  0  0  0  0  0  0  0  0  0  0  0
  -31.1185  -27.6205   17.7982 C   0  0  0  0  0  0  0  0  0  0  0  0
  -25.7714  -15.4861   19.7015 C   0  0  0  0  0  0  0  0  0  0  0  0
  -28.2566  -16.0089   19.9425 C   0  0  0  0  0  0  0  0  0  0  0  0
  -18.1597  -28.3506   23.0478 C   0  0  0  0  0  0  0  0  0  0  0  0
  -24.6667  -28.2338   19.6527 C   0  0  0  0  0  0  0  0  0  0  0  0
  -19.5663  -28.3586   22.9858 C   0  0  0  0  0  0  0  0  0  0  0  0
  -25.2521  -26.9615   19.5846 C   0  0  0  0  0  0  0  0  0  0  0  0
  -23.5726  -13.7747   19.5634 C   0  0  0  0  0  0  0  0  0  0  0  0
  -27.3499  -27.8977   20.3801 C   0  0  0  0  0  0  0  0  0  0  0  0
  -22.4233  -11.9140   20.4230 C   0  0  0  0  0  0  0  0  0  0  0  0
  -22.2665   -9.8502   22.2936 C   0  0  0  0  0  0  0  0  0  0  0  0
  -23.4329  -10.9537   20.4883 C   0  0  0  0  0  0  0  0  0  0  0  0
  -26.9067  -16.3705   19.7721 C   0  0  0  0  0  0  0  0  0  0  0  0
  -28.9345  -17.2034   19.9437 C   0  0  0  0  0  0  0  0  0  0  0  0
  -31.2604  -25.5419   17.9257 C   0  0  0  0  0  0  0  0  0  0  0  0
  -28.8451  -14.7094   20.0866 C   0  0  0  0  0  0  0  0  0  0  0  0
  -22.0466  -26.7968   20.7360 C   0  0  0  0  0  0  0  0  0  0  0  0
  -22.3233  -25.0846   17.9948 C   0  0  0  0  0  0  0  0  0  0  0  0
  -24.3355  -23.9225   15.4954 C   0  0  0  0  0  0  0  0  0  0  0  0
  -29.9828  -22.0995   17.9714 C   0  0  0  0  0  0  0  0  0  0  0  0
  -17.3587  -27.1124   22.7315 C   0  0  0  0  0  0  0  0  0  0  0  0
  -23.2359  -28.4372   19.2359 C   0  0  0  0  0  0  0  0  0  0  0  0
  -24.4751  -25.7544   19.1291 C   0  0  0  0  0  0  0  0  0  0  0  0
  -18.1418  -26.0652   21.9439 C   0  0  0  0  0  0  0  0  0  0  0  0
  -27.2529  -21.9568   20.2072 C   0  0  0  0  0  0  0  0  0  0  0  0
  -19.5219  -25.8563   22.5591 C   0  0  0  0  0  0  0  0  0  0  0  0
  -27.0191  -20.4498   20.3035 C   0  0  0  0  0  0  0  0  0  0  0  0
  -27.5961  -22.3951   18.7823 C   0  0  0  0  0  0  0  0  0  0  0  0
  -28.4943  -20.1448   18.2806 C   0  0  0  0  0  0  0  0  0  0  0  0
  -20.3458  -27.1490   22.5176 C   0  0  1  0  0  0  0  0  0  0  0  0
  -22.4013  -27.1631   19.3227 C   0  0  1  0  0  0  0  0  0  0  0  0
  -28.2068  -19.6700   19.7132 C   0  0  2  0  0  0  0  0  0  0  0  0
  -33.6301  -24.2269   16.3872 C   0  0  0  0  0  0  0  0  0  0  0  0
  -24.2832  -22.5173   13.4169 C   0  0  0  0  0  0  0  0  0  0  0  0
  -22.2075  -22.5614   19.7066 C   0  0  0  0  0  0  0  0  0  0  0  0
  -23.0980  -21.2774   17.7505 C   0  0  0  0  0  0  0  0  0  0  0  0
  -20.8976  -22.4401   17.5796 C   0  0  0  0  0  0  0  0  0  0  0  0
  -29.0257  -24.1802   16.8945 C   0  0  0  0  0  0  0  0  0  0  0  0
  -25.2041  -26.1888   13.8017 C   0  0  0  0  0  0  0  0  0  0  0  0
  -32.1721  -23.7851   16.3558 C   0  0  0  0  0  0  0  0  0  0  0  0
  -30.9553  -28.3234   20.3181 C   0  0  0  0  0  0  0  0  0  0  0  0
  -29.5323  -28.8323   20.5208 C   0  0  0  0  0  0  0  0  0  1  0  0
  -31.3719  -24.1115   17.6538 C   0  0  2  0  0  0  0  0  0  0  0  0
  -23.0240  -23.8077   17.5980 C   0  0  1  0  0  0  0  0  0  0  0  0
  -24.1697  -23.9228   13.9864 C   0  0  2  0  0  0  0  0  0  0  0  0
  -22.3211  -22.5439   18.1692 C   0  0  0  0  0  0  0  0  0  0  0  0
  -31.2317  -26.4990   17.0276 N   0  0  0  0  0  0  0  0  0  0  0  0
  -26.7354  -17.6913   19.6726 N   0  0  0  0  0  0  0  0  0  0  0  0
  -31.1679  -26.0802   19.1713 N   0  0  0  0  0  0  0  0  0  0  0  0
  -31.0754  -27.4176   19.1167 N   0  0  0  0  0  0  0  0  0  0  0  0
  -27.9864  -18.1703   19.7808 N   0  0  0  0  0  0  0  0  0  0  0  0
  -23.0778  -26.0035   18.7379 N   0  0  0  0  0  0  0  0  0  0  0  0
  -28.7022  -21.5943   18.2401 N   0  0  0  0  0  0  0  0  0  0  0  0
  -30.2431  -17.5107   20.0684 N   0  0  0  0  0  0  0  0  0  0  0  0
  -28.0039  -13.5887   20.0628 N   0  0  0  0  0  0  0  0  0  0  0  0
  -20.8732  -27.3697   21.1881 N   0  0  0  0  0  0  0  0  0  0  0  0
  -23.1214  -23.8308   16.1425 N   0  0  0  0  0  0  0  0  0  0  0  0
  -30.0760  -23.4496   17.6012 N   0  0  0  0  0  0  0  0  0  0  0  0
  -25.2153  -24.7734   13.3506 N   0  3  0  0  0  0  0  0  0  0  0  0
  -30.0784  -14.5480   20.2486 O   0  0  0  0  0  0  0  0  0  0  0  0
  -22.7822  -26.0485   21.3690 O   0  0  0  0  0  0  0  0  0  0  0  0
  -21.1520  -25.2634   17.6518 O   0  0  0  0  0  0  0  0  0  0  0  0
  -25.4326  -23.9926   16.0449 O   0  0  0  0  0  0  0  0  0  0  0  0
  -30.9886  -21.3824   18.0496 O   0  0  0  0  0  0  0  0  0  0  0  0
  -22.5001  -12.9395   19.4956 O   0  0  0  0  0  0  0  0  0  0  0  0
  -28.6523  -27.7299   20.7372 O   0  0  0  0  0  0  0  0  0  1  0  0
  -22.1918   -8.8603   23.1927 F   0  0  0  0  0  0  0  0  0  0  0  0
  -24.4811  -11.0179   19.6559 F   0  0  0  0  0  0  0  0  0  0  0  0
  1  2  1  0  0  0  0
  1  5  2  0  0  0  0
  2  6  2  0  0  0  0
  3  8  2  0  0  0  0
  3 16  1  0  0  0  0
  4  9  1  0  0  0  0
  4 16  2  0  0  0  0
  5 18  1  0  0  0  0
  6 20  1  0  0  0  0
  7 10  2  0  0  0  0
  7 19  1  0  0  0  0
  8 22  1  0  0  0  0
  9 22  2  0  0  0  0
 10 23  1  0  0  0  0
 11 12  2  0  0  0  0
 11 24  1  0  0  0  0
 12 25  1  0  0  0  0
 13 21  1  0  0  0  0
 13 23  2  0  0  0  0
 14 25  2  0  0  0  0
 14 26  1  0  0  0  0
 15 61  2  0  0  0  0
 15 64  1  0  0  0  0
 16 27  1  0  0  0  0
 17 27  1  0  0  0  0
 17 28  2  0  0  0  0
 17 30  1  0  0  0  0
 18 20  2  0  0  0  0
 18 35  1  0  0  0  0
 19 21  2  0  0  0  0
 19 36  1  0  0  0  0
 20 44  1  0  0  0  0
 21 37  1  0  0  0  0
 22 79  1  0  0  0  0
 23 80  1  0  0  0  0
 24 26  2  0  0  0  0
 24 79  1  0  0  0  0
 25 81  1  0  0  0  0
 26 82  1  0  0  0  0
 27 62  2  0  0  0  0
 28 65  1  0  0  0  0
 28 68  1  0  0  0  0
 29 57  1  0  0  0  0
 29 61  1  0  0  0  0
 29 63  2  0  0  0  0
 30 69  1  0  0  0  0
 30 74  2  0  0  0  0
 31 45  1  0  0  0  0
 31 70  1  0  0  0  0
 31 75  2  0  0  0  0
 32 58  1  0  0  0  0
 32 66  1  0  0  0  0
 32 76  2  0  0  0  0
 33 59  1  0  0  0  0
 33 71  1  0  0  0  0
 33 77  2  0  0  0  0
 34 67  1  0  0  0  0
 34 72  1  0  0  0  0
 34 78  2  0  0  0  0
 35 38  1  0  0  0  0
 36 45  1  0  0  0  0
 37 66  1  0  0  0  0
 38 40  1  0  0  0  0
 39 41  1  0  0  0  0
 39 42  1  0  0  0  0
 40 44  1  0  0  0  0
 41 46  1  0  0  0  0
 42 67  1  0  0  0  0
 43 46  1  0  0  0  0
 43 67  1  0  0  0  0
 44 70  1  0  0  0  0
 45 66  1  0  0  0  0
 46 65  1  0  0  0  0
 47 54  1  0  0  0  0
 48 59  1  0  0  0  0
 49 60  1  0  0  0  0
 50 60  1  0  0  0  0
 51 60  1  0  0  0  0
 52 72  1  0  0  0  0
 53 73  1  0  0  0  0
 54 57  1  0  0  0  0
 55 56  1  0  0  0  0
 55 64  1  0  0  0  0
 56 80  1  0  0  0  0
 57 72  1  0  0  0  0
 58 60  1  0  0  0  0
 58 71  1  0  0  0  0
 59 73  1  0  0  0  0
 62 65  1  0  0  0  0
 63 64  1  0  0  0  0
M  CHG  1  73   1
M  ISO  4  34 100  56 101  72 100  80 101
M  END
> <Batch ID>
0059

> <Smiles>
CCC(c1ncn(C[101CH2:1][101O:1]c2ccc3c(c2)CN(C(=O)C(NC(=O)C(C)NC)C(C)(C)C)C(C(=O)NC2CCCc4ccccc42)C3)n1)[100N:0](C)[100C:0](=O)N1CCCC(n2nc(-c3ccc(Oc4ccc(F)cc4F)cc3)c(C(N)=O)c2N)C1

> <Shape>
0.274

> <Color>
0.069

> <Negative vol penalty>
0.000

$$$$

  -OEChem-04052317533D

 82 90  0     1  0  0  0  0  0999 V2000
  -21.4509  -12.1837   21.0071 C   0  0  0  0  0  0  0  0  0  0  0  0
  -21.5669  -13.4037   21.6656 C   0  0  0  0  0  0  0  0  0  0  0  0
  -25.1045  -26.8860   19.2589 C   0  0  0  0  0  0  0  0  0  0  0  0
  -25.6973  -25.1966   20.8811 C   0  0  0  0  0  0  0  0  0  0  0  0
  -22.5800  -11.5816   20.4534 C   0  0  0  0  0  0  0  0  0  0  0  0
  -22.8123  -14.0218   21.7716 C   0  0  0  0  0  0  0  0  0  0  0  0
  -22.6136  -18.9790   20.7555 C   0  0  0  0  0  0  0  0  0  0  0  0
  -26.4430  -27.2670   19.1665 C   0  0  0  0  0  0  0  0  0  0  0  0
  -27.0360  -25.5776   20.7887 C   0  0  0  0  0  0  0  0  0  0  0  0
  -22.1215  -19.8149   21.7568 C   0  0  0  0  0  0  0  0  0  0  0  0
  -29.6559  -28.9241   18.7721 C   0  0  0  0  0  0  0  0  0  0  0  0
  -29.9458  -30.2884   18.7861 C   0  0  0  0  0  0  0  0  0  0  0  0
  -24.3799  -20.4064   22.3645 C   0  0  0  0  0  0  0  0  0  0  0  0
  -28.9275  -30.4825   20.9684 C   0  0  0  0  0  0  0  0  0  0  0  0
  -24.7316  -25.8508   20.1163 C   0  0  0  0  0  0  0  0  0  0  0  0
  -22.6864  -24.4836   19.4412 C   0  0  0  0  0  0  0  0  0  0  0  0
  -23.8382  -12.1974   20.5443 C   0  0  0  0  0  0  0  0  0  0  0  0
  -23.9952  -18.8418   20.5579 C   0  0  0  0  0  0  0  0  0  0  0  0
  -23.9595  -13.4268   21.2197 C   0  0  0  0  0  0  0  0  0  0  0  0
  -24.8869  -19.5700   21.3583 C   0  0  0  0  0  0  0  0  0  0  0  0
  -27.4088  -26.6128   19.9313 C   0  0  0  0  0  0  0  0  0  0  0  0
  -23.0047  -20.5266   22.5634 C   0  0  0  0  0  0  0  0  0  0  0  0
  -29.0016  -28.3390   19.8562 C   0  0  0  0  0  0  0  0  0  0  0  0
  -29.5817  -31.0676   19.8842 C   0  0  0  0  0  0  0  0  0  0  0  0
  -28.6375  -29.1181   20.9544 C   0  0  0  0  0  0  0  0  0  0  0  0
  -23.3489  -25.4571   20.2126 C   0  0  0  0  0  0  0  0  0  0  0  0
  -21.3979  -24.4869   19.9168 C   0  0  0  0  0  0  0  0  0  0  0  0
  -16.9532  -22.2138   24.7707 C   0  0  0  0  0  0  0  0  0  0  0  0
  -18.7443  -21.7716   25.7471 C   0  0  0  0  0  0  0  0  0  0  0  0
  -23.1908  -23.6506   18.3888 C   0  0  0  0  0  0  0  0  0  0  0  0
  -26.0573  -16.4291   20.7314 C   0  0  0  0  0  0  0  0  0  0  0  0
  -19.0806  -26.1227   25.2145 C   0  0  0  0  0  0  0  0  0  0  0  0
  -28.1348  -18.6326   19.5691 C   0  0  0  0  0  0  0  0  0  0  0  0
  -28.9567  -21.9232   19.1910 C   0  0  0  0  0  0  0  0  0  0  0  0
  -25.0379  -11.4853   19.9712 C   0  0  0  0  0  0  0  0  0  0  0  0
  -24.5094  -17.9565   19.4560 C   0  0  0  0  0  0  0  0  0  0  0  0
  -26.3785  -19.4734   21.1736 C   0  0  0  0  0  0  0  0  0  0  0  0
  -26.2577  -12.3873   19.8010 C   0  0  0  0  0  0  0  0  0  0  0  0
  -18.1640  -27.3398   21.9713 C   0  0  0  0  0  0  0  0  0  0  0  0
  -26.4848  -13.2209   21.0581 C   0  0  0  0  0  0  0  0  0  0  0  0
  -19.3425  -26.9315   21.0884 C   0  0  0  0  0  0  0  0  0  0  0  0
  -18.6227  -27.7132   23.3774 C   0  0  0  0  0  0  0  0  0  0  0  0
  -20.6000  -26.2393   23.1776 C   0  0  0  0  0  0  0  0  0  0  0  0
  -25.2891  -14.1405   21.3339 C   0  0  1  0  0  0  0  0  0  0  0  0
  -25.9467  -17.4970   19.6803 C   0  0  1  0  0  0  0  0  0  0  0  0
  -20.1769  -25.8247   21.7572 C   0  0  2  0  0  0  0  0  0  0  0  0
  -15.7363  -22.0324   23.9705 C   0  0  0  0  0  0  0  0  0  0  0  0
  -21.1070  -25.6699   26.5250 C   0  0  0  0  0  0  0  0  0  0  0  0
  -30.2330  -23.9262   18.3807 C   0  0  0  0  0  0  0  0  0  0  0  0
  -29.9621  -17.9663   21.9201 C   0  0  0  0  0  0  0  0  0  0  0  0
  -31.2146  -20.0841   21.4567 C   0  0  0  0  0  0  0  0  0  0  0  0
  -31.1422  -18.2782   19.7373 C   0  0  0  0  0  0  0  0  0  0  0  0
  -27.3321  -22.1052   16.7239 C   0  0  0  0  0  0  0  0  0  0  0  0
  -19.9809  -21.1354   26.3299 C   0  0  0  0  0  0  0  0  0  0  0  0
  -21.2668  -21.4866   25.5785 C   0  0  0  0  0  0  0  0  0  0  0  0
  -19.1514  -24.0856   26.6655 C   0  0  0  0  0  0  0  0  0  0  0  0
  -21.2838  -20.9799   24.1410 C   0  0  0  0  0  0  0  0  0  1  0  0
  -19.9583  -25.0233   25.7576 C   0  0  1  0  0  0  0  0  0  0  0  0
  -29.0660  -19.6511   20.1810 C   0  0  1  0  0  0  0  0  0  0  0  0
  -29.4047  -22.7164   17.9767 C   0  0  2  0  0  0  0  0  0  0  0  0
  -30.3182  -18.9955   20.8287 C   0  0  0  0  0  0  0  0  0  0  0  0
  -22.5474  -26.0369   21.1101 N   0  0  0  0  0  0  0  0  0  0  0  0
  -17.8248  -21.1907   25.0119 N   0  0  0  0  0  0  0  0  0  0  0  0
  -17.2755  -23.3912   25.3104 N   0  0  0  0  0  0  0  0  0  0  0  0
  -21.3680  -25.4259   20.9055 N   0  0  0  0  0  0  0  0  0  0  0  0
  -18.4249  -23.0810   25.9293 N   0  0  0  0  0  0  0  0  0  0  0  0
  -26.8325  -18.5898   20.0870 N   0  0  0  0  0  0  0  0  0  0  0  0
  -19.4308  -26.6457   23.9696 N   0  0  0  0  0  0  0  0  0  0  0  0
  -20.2989  -23.7782   19.5815 N   0  0  0  0  0  0  0  0  0  0  0  0
  -24.5386  -23.7758   18.0254 N   0  0  0  0  0  0  0  0  0  0  0  0
  -25.3234  -15.2910   20.4566 N   0  0  0  0  0  0  0  0  0  0  0  0
  -29.3724  -20.6102   19.1252 N   0  0  0  0  0  0  0  0  0  0  0  0
  -28.2226  -23.1929   17.2043 N   0  3  0  0  0  0  0  0  0  0  0  0
  -22.4635  -22.8316   17.7773 O   0  0  0  0  0  0  0  0  0  0  0  0
  -26.7578  -16.6227   21.7181 O   0  0  0  0  0  0  0  0  0  0  0  0
  -18.1113  -26.5019   25.8771 O   0  0  0  0  0  0  0  0  0  0  0  0
  -28.5455  -17.9067   18.6602 O   0  0  0  0  0  0  0  0  0  0  0  0
  -28.3064  -22.4197   20.1081 O   0  0  0  0  0  0  0  0  0  0  0  0
  -28.7151  -26.9842   19.8412 O   0  0  0  0  0  0  0  0  0  0  0  0
  -22.5271  -21.3428   23.5419 O   0  0  0  0  0  0  0  0  0  1  0  0
  -29.8616  -32.3774   19.8982 F   0  0  0  0  0  0  0  0  0  0  0  0
  -28.0099  -28.5614   21.9993 F   0  0  0  0  0  0  0  0  0  0  0  0
  1  2  1  0  0  0  0
  1  5  2  0  0  0  0
  2  6  2  0  0  0  0
  3  8  2  0  0  0  0
  3 15  1  0  0  0  0
  4  9  1  0  0  0  0
  4 15  2  0  0  0  0
  5 17  1  0  0  0  0
  6 19  1  0  0  0  0
  7 10  2  0  0  0  0
  7 18  1  0  0  0  0
  8 21  1  0  0  0  0
  9 21  2  0  0  0  0
 10 22  1  0  0  0  0
 11 12  2  0  0  0  0
 11 23  1  0  0  0  0
 12 24  1  0  0  0  0
 13 20  1  0  0  0  0
 13 22  2  0  0  0  0
 14 24  2  0  0  0  0
 14 25  1  0  0  0  0
 15 26  1  0  0  0  0
 16 26  1  0  0  0  0
 16 27  2  0  0  0  0
 16 30  1  0  0  0  0
 17 19  2  0  0  0  0
 17 35  1  0  0  0  0
 18 20  2  0  0  0  0
 18 36  1  0  0  0  0
 19 44  1  0  0  0  0
 20 37  1  0  0  0  0
 21 79  1  0  0  0  0
 22 80  1  0  0  0  0
 23 25  2  0  0  0  0
 23 79  1  0  0  0  0
 24 81  1  0  0  0  0
 25 82  1  0  0  0  0
 26 62  2  0  0  0  0
 27 65  1  0  0  0  0
 27 69  1  0  0  0  0
 28 47  1  0  0  0  0
 28 63  1  0  0  0  0
 28 64  2  0  0  0  0
 29 54  1  0  0  0  0
 29 63  2  0  0  0  0
 29 66  1  0  0  0  0
 30 70  1  0  0  0  0
 30 74  2  0  0  0  0
 31 45  1  0  0  0  0
 31 71  1  0  0  0  0
 31 75  2  0  0  0  0
 32 58  1  0  0  0  0
 32 68  1  0  0  0  0
 32 76  2  0  0  0  0
 33 59  1  0  0  0  0
 33 67  1  0  0  0  0
 33 77  2  0  0  0  0
 34 60  1  0  0  0  0
 34 72  1  0  0  0  0
 34 78  2  0  0  0  0
 35 38  1  0  0  0  0
 36 45  1  0  0  0  0
 37 67  1  0  0  0  0
 38 40  1  0  0  0  0
 39 41  1  0  0  0  0
 39 42  1  0  0  0  0
 40 44  1  0  0  0  0
 41 46  1  0  0  0  0
 42 68  1  0  0  0  0
 43 46  1  0  0  0  0
 43 68  1  0  0  0  0
 44 71  1  0  0  0  0
 45 67  1  0  0  0  0
 46 65  1  0  0  0  0
 48 58  1  0  0  0  0
 49 60  1  0  0  0  0
 50 61  1  0  0  0  0
 51 61  1  0  0  0  0
 52 61  1  0  0  0  0
 53 73  1  0  0  0  0
 54 55  1  0  0  0  0
 55 57  1  0  0  0  0
 56 58  1  0  0  0  0
 56 66  1  0  0  0  0
 57 80  1  0  0  0  0
 59 61  1  0  0  0  0
 59 72  1  0  0  0  0
 60 73  1  0  0  0  0
 62 65  1  0  0  0  0
 64 66  1  0  0  0  0
M  CHG  1  73   1
M  ISO  4  32 100  57 101  58 100  80 101
M  END
> <Batch ID>
0059

> <Smiles>
CNC(C)C(=O)NC(C(=O)N1Cc2cc([101O:1][101CH2:1]CCc3nc(C)nn3C[100CH:0](C)[100C:0](=O)N3CCCC(n4nc(-c5ccc(Oc6ccc(F)cc6F)cc5)c(C(N)=O)c4N)C3)ccc2CC1C(=O)NC1CCCc2ccccc21)C(C)(C)C

> <Shape>
0.192

> <Color>
0.064

> <Negative vol penalty>
0.000

$$$$

  -OEChem-04052317533D

 83 91  0     1  0  0  0  0  0999 V2000
  -20.7496  -19.6802   12.3657 C   0  0  0  0  0  0  0  0  0  0  0  0
  -21.8298  -19.9299   13.2061 C   0  0  0  0  0  0  0  0  0  0  0  0
  -24.9717  -30.9134   21.0228 C   0  0  0  0  0  0  0  0  0  0  0  0
  -24.7232  -29.2802   22.7858 C   0  0  0  0  0  0  0  0  0  0  0  0
  -19.7749  -18.7565   12.7407 C   0  0  0  0  0  0  0  0  0  0  0  0
  -21.9353  -19.2567   14.4227 C   0  0  0  0  0  0  0  0  0  0  0  0
  -27.0861  -17.4155   17.1767 C   0  0  0  0  0  0  0  0  0  0  0  0
  -24.4231  -31.8918   21.8518 C   0  0  0  0  0  0  0  0  0  0  0  0
  -24.1746  -30.2587   23.6148 C   0  0  0  0  0  0  0  0  0  0  0  0
  -27.8499  -17.9684   18.2037 C   0  0  0  0  0  0  0  0  0  0  0  0
  -23.4209  -34.9017   23.6269 C   0  0  0  0  0  0  0  0  0  0  0  0
  -24.0525  -36.1447   23.6691 C   0  0  0  0  0  0  0  0  0  0  0  0
  -26.7099  -16.5636   19.7995 C   0  0  0  0  0  0  0  0  0  0  0  0
  -26.0774  -35.0889   24.4580 C   0  0  0  0  0  0  0  0  0  0  0  0
  -30.5975  -20.4157   18.7989 C   0  0  0  0  0  0  0  0  0  0  0  0
  -25.1218  -29.6076   21.4898 C   0  0  0  0  0  0  0  0  0  0  0  0
  -27.0474  -28.2530   20.5075 C   0  0  0  0  0  0  0  0  0  0  0  0
  -19.8736  -18.0646   13.9582 C   0  0  0  0  0  0  0  0  0  0  0  0
  -26.1193  -16.4387   17.4552 C   0  0  0  0  0  0  0  0  0  0  0  0
  -20.9603  -18.3239   14.8150 C   0  0  0  0  0  0  0  0  0  0  0  0
  -25.9370  -15.9981   18.7738 C   0  0  0  0  0  0  0  0  0  0  0  0
  -24.0245  -31.5645   23.1478 C   0  0  0  0  0  0  0  0  0  0  0  0
  -27.6598  -17.5445   19.5157 C   0  0  0  0  0  0  0  0  0  0  0  0
  -24.1175  -33.7524   24.0003 C   0  0  0  0  0  0  0  0  0  0  0  0
  -25.3808  -36.2383   24.0847 C   0  0  0  0  0  0  0  0  0  0  0  0
  -25.4458  -33.8459   24.4158 C   0  0  0  0  0  0  0  0  0  0  0  0
  -25.6880  -28.5963   20.6337 C   0  0  0  0  0  0  0  0  0  0  0  0
  -29.7064  -19.9707   19.7414 C   0  0  0  0  0  0  0  0  0  0  0  0
  -27.0616  -27.2438   19.5759 C   0  0  0  0  0  0  0  0  0  0  0  0
  -28.8440  -22.0542   19.8635 C   0  0  0  0  0  0  0  0  0  0  0  0
  -28.1947  -28.7975   21.1730 C   0  0  0  0  0  0  0  0  0  0  0  0
  -22.9640  -16.2466   17.1222 C   0  0  0  0  0  0  0  0  0  0  0  0
  -23.4404  -13.1846   18.0812 C   0  0  0  0  0  0  0  0  0  0  0  0
  -25.4010  -10.9419   19.7465 C   0  0  0  0  0  0  0  0  0  0  0  0
  -23.4841  -22.7316   18.1885 C   0  0  0  0  0  0  0  0  0  0  0  0
  -18.7708  -17.1102   14.3422 C   0  0  0  0  0  0  0  0  0  0  0  0
  -25.3223  -15.8330   16.3326 C   0  0  0  0  0  0  0  0  0  0  0  0
  -24.9261  -14.9376   19.1229 C   0  0  0  0  0  0  0  0  0  0  0  0
  -19.1523  -16.1636   15.4774 C   0  0  0  0  0  0  0  0  0  0  0  0
  -23.9847  -25.7025   16.0379 C   0  0  0  0  0  0  0  0  0  0  0  0
  -19.8256  -16.9322   16.6099 C   0  0  0  0  0  0  0  0  0  0  0  0
  -24.5344  -26.7357   17.0199 C   0  0  0  0  0  0  0  0  0  0  0  0
  -23.0857  -24.6833   16.7311 C   0  0  0  0  0  0  0  0  0  0  0  0
  -24.2782  -25.0337   18.8687 C   0  0  0  0  0  0  0  0  0  0  0  0
  -21.1228  -17.5955   16.1315 C   0  0  1  0  0  0  0  0  0  0  0  0
  -24.0076  -15.2151   16.7988 C   0  0  1  0  0  0  0  0  0  0  0  0
  -25.2254  -26.0480   18.2102 C   0  0  2  0  0  0  0  0  0  0  0  0
  -30.6223  -18.3063   21.3950 C   0  0  0  0  0  0  0  0  0  0  0  0
  -25.5105   -8.5194   20.3921 C   0  0  0  0  0  0  0  0  0  0  0  0
  -21.3489  -13.6703   20.2492 C   0  0  0  0  0  0  0  0  0  0  0  0
  -22.1778  -11.6137   21.4118 C   0  0  0  0  0  0  0  0  0  0  0  0
  -21.1904  -11.4407   19.1275 C   0  0  0  0  0  0  0  0  0  0  0  0
  -24.2890  -20.5944   19.1180 C   0  0  0  0  0  0  0  0  0  0  0  0
  -27.9191  -10.5360   18.2454 C   0  0  0  0  0  0  0  0  0  0  0  0
  -27.8630  -23.0080   20.4531 C   0  0  0  0  0  0  0  0  0  0  0  0
  -26.3892  -22.5747   20.3183 C   0  0  0  0  0  0  0  0  0  0  0  0
  -25.9021  -22.4451   18.8766 C   0  0  0  0  0  0  0  0  0  0  0  0
  -29.7185  -18.5269   20.1886 C   0  0  1  0  0  0  0  0  0  1  0  0
  -23.4795  -12.4753   19.4133 C   0  0  1  0  0  0  0  0  0  0  0  0
  -25.9062   -9.5637   19.3598 C   0  0  2  0  0  0  0  0  0  0  0  0
  -22.0669  -12.3214   20.0445 C   0  0  0  0  0  0  0  0  0  0  0  0
  -30.5938  -21.7002   18.3988 N   0  0  0  0  0  0  0  0  0  0  0  0
  -24.8961  -27.8648   19.8451 N   0  0  0  0  0  0  0  0  0  0  0  0
  -28.8004  -20.7870   20.3009 N   0  0  0  0  0  0  0  0  0  0  0  0
  -29.6951  -22.5472   18.9423 N   0  0  0  0  0  0  0  0  0  0  0  0
  -25.7606  -27.0518   19.2145 N   0  0  0  0  0  0  0  0  0  0  0  0
  -24.1669  -14.3804   17.9913 N   0  0  0  0  0  0  0  0  0  0  0  0
  -23.7514  -24.0766   17.8843 N   0  0  0  0  0  0  0  0  0  0  0  0
  -28.0600  -26.5110   19.0387 N   0  0  0  0  0  0  0  0  0  0  0  0
  -28.0014  -29.8298   22.1011 N   0  0  0  0  0  0  0  0  0  0  0  0
  -22.1867  -16.6185   16.0419 N   0  0  0  0  0  0  0  0  0  0  0  0
  -24.1719  -11.2121   19.1829 N   0  0  0  0  0  0  0  0  0  0  0  0
  -24.5141  -21.9959   18.7940 N   0  0  0  0  0  0  0  0  0  0  0  0
  -27.3920   -9.5704   19.2438 N   0  3  0  0  0  0  0  0  0  0  0  0
  -29.3585  -28.3921   20.9392 O   0  0  0  0  0  0  0  0  0  0  0  0
  -22.8699  -16.6724   18.2674 O   0  0  0  0  0  0  0  0  0  0  0  0
  -22.7949  -12.6921   17.1526 O   0  0  0  0  0  0  0  0  0  0  0  0
  -26.0317  -11.7014   20.4786 O   0  0  0  0  0  0  0  0  0  0  0  0
  -22.3907  -22.2152   17.9247 O   0  0  0  0  0  0  0  0  0  0  0  0
  -23.4893  -32.5190   23.9571 O   0  0  0  0  0  0  0  0  0  0  0  0
  -28.4035  -18.0830   20.5202 O   0  0  0  0  0  0  0  0  0  1  0  0
  -25.9877  -37.4317   24.1237 F   0  0  0  0  0  0  0  0  0  0  0  0
  -26.1205  -32.7451   24.7746 F   0  0  0  0  0  0  0  0  0  0  0  0
  1  2  1  0  0  0  0
  1  5  2  0  0  0  0
  2  6  2  0  0  0  0
  3  8  2  0  0  0  0
  3 16  1  0  0  0  0
  4  9  1  0  0  0  0
  4 16  2  0  0  0  0
  5 18  1  0  0  0  0
  6 20  1  0  0  0  0
  7 10  2  0  0  0  0
  7 19  1  0  0  0  0
  8 22  1  0  0  0  0
  9 22  2  0  0  0  0
 10 23  1  0  0  0  0
 11 12  2  0  0  0  0
 11 24  1  0  0  0  0
 12 25  1  0  0  0  0
 13 21  1  0  0  0  0
 13 23  2  0  0  0  0
 14 25  2  0  0  0  0
 14 26  1  0  0  0  0
 15 28  1  0  0  0  0
 15 62  2  0  0  0  0
 16 27  1  0  0  0  0
 17 27  1  0  0  0  0
 17 29  2  0  0  0  0
 17 31  1  0  0  0  0
 18 20  2  0  0  0  0
 18 36  1  0  0  0  0
 19 21  2  0  0  0  0
 19 37  1  0  0  0  0
 20 45  1  0  0  0  0
 21 38  1  0  0  0  0
 22 80  1  0  0  0  0
 23 81  1  0  0  0  0
 24 26  2  0  0  0  0
 24 80  1  0  0  0  0
 25 82  1  0  0  0  0
 26 83  1  0  0  0  0
 27 63  2  0  0  0  0
 28 58  1  0  0  0  0
 28 64  2  0  0  0  0
 29 66  1  0  0  0  0
 29 69  1  0  0  0  0
 30 55  1  0  0  0  0
 30 64  1  0  0  0  0
 30 65  2  0  0  0  0
 31 70  1  0  0  0  0
 31 75  2  0  0  0  0
 32 46  1  0  0  0  0
 32 71  1  0  0  0  0
 32 76  2  0  0  0  0
 33 59  1  0  0  0  0
 33 67  1  0  0  0  0
 33 77  2  0  0  0  0
 34 60  1  0  0  0  0
 34 72  1  0  0  0  0
 34 78  2  0  0  0  0
 35 68  1  0  0  0  0
 35 73  1  0  0  0  0
 35 79  2  0  0  0  0
 36 39  1  0  0  0  0
 37 46  1  0  0  0  0
 38 67  1  0  0  0  0
 39 41  1  0  0  0  0
 40 42  1  0  0  0  0
 40 43  1  0  0  0  0
 41 45  1  0  0  0  0
 42 47  1  0  0  0  0
 43 68  1  0  0  0  0
 44 47  1  0  0  0  0
 44 68  1  0  0  0  0
 45 71  1  0  0  0  0
 46 67  1  0  0  0  0
 47 66  1  0  0  0  0
 48 58  1  0  0  0  0
 49 60  1  0  0  0  0
 50 61  1  0  0  0  0
 51 61  1  0  0  0  0
 52 61  1  0  0  0  0
 53 73  1  0  0  0  0
 54 74  1  0  0  0  0
 55 56  1  0  0  0  0
 56 57  1  0  0  0  0
 57 73  1  0  0  0  0
 58 81  1  0  0  0  0
 59 61  1  0  0  0  0
 59 72  1  0  0  0  0
 60 74  1  0  0  0  0
 62 65  1  0  0  0  0
 63 66  1  0  0  0  0
M  CHG  1  74   1
M  ISO  4  35 100  58 101  73 100  81 101
M  END
> <Batch ID>
0059

> <Smiles>
CNC(C)C(=O)NC(C(=O)N1Cc2cc([101O:1][101CH:1](C)c3cnnc(CCC[100N:0](C)[100C:0](=O)N4CCCC(n5nc(-c6ccc(Oc7ccc(F)cc7F)cc6)c(C(N)=O)c5N)C4)n3)ccc2CC1C(=O)NC1CCCc2ccccc21)C(C)(C)C

> <Shape>
0.210

> <Color>
0.080

> <Negative vol penalty>
0.000

$$$$

  -OEChem-04052317533D

 78 86  0     1  0  0  0  0  0999 V2000
  -21.7624  -11.9975   20.8616 C   0  0  0  0  0  0  0  0  0  0  0  0
  -21.6757  -13.3186   21.2887 C   0  0  0  0  0  0  0  0  0  0  0  0
  -25.0541  -27.1946   19.2709 C   0  0  0  0  0  0  0  0  0  0  0  0
  -25.2559  -25.0837   20.4288 C   0  0  0  0  0  0  0  0  0  0  0  0
  -23.0051  -11.4461   20.5525 C   0  0  0  0  0  0  0  0  0  0  0  0
  -22.8319  -14.0889   21.4080 C   0  0  0  0  0  0  0  0  0  0  0  0
  -22.2804  -18.7338   19.4674 C   0  0  0  0  0  0  0  0  0  0  0  0
  -26.4439  -27.3083   19.2359 C   0  0  0  0  0  0  0  0  0  0  0  0
  -26.6456  -25.1974   20.3938 C   0  0  0  0  0  0  0  0  0  0  0  0
  -21.5878  -19.6674   20.2371 C   0  0  0  0  0  0  0  0  0  0  0  0
  -28.9240  -28.1959   21.3538 C   0  0  0  0  0  0  0  0  0  0  0  0
  -29.4811  -29.4307   21.6863 C   0  0  0  0  0  0  0  0  0  0  0  0
  -23.6838  -20.6191   20.9581 C   0  0  0  0  0  0  0  0  0  0  0  0
  -30.4904  -29.5653   19.4954 C   0  0  0  0  0  0  0  0  0  0  0  0
  -18.4161  -23.2366   22.4251 C   0  0  0  0  0  0  0  0  0  0  0  0
  -20.2079  -23.1111   23.6934 C   0  0  0  0  0  0  0  0  0  0  0  0
  -24.4601  -26.0823   19.8674 C   0  0  0  0  0  0  0  0  0  0  0  0
  -22.1963  -25.3571   18.9415 C   0  0  0  0  0  0  0  0  0  0  0  0
  -24.1761  -12.2130   20.6587 C   0  0  0  0  0  0  0  0  0  0  0  0
  -23.6826  -18.7290   19.4458 C   0  0  0  0  0  0  0  0  0  0  0  0
  -24.0916  -13.5469   21.1012 C   0  0  0  0  0  0  0  0  0  0  0  0
  -24.3919  -19.6861   20.1853 C   0  0  0  0  0  0  0  0  0  0  0  0
  -19.6368  -22.5519   22.5765 C   0  0  0  0  0  0  0  0  0  0  0  0
  -27.2396  -26.3097   19.7973 C   0  0  0  0  0  0  0  0  0  0  0  0
  -22.2895  -20.6084   20.9849 C   0  0  0  0  0  0  0  0  0  0  0  0
  -29.1502  -27.6458   20.0921 C   0  0  0  0  0  0  0  0  0  0  0  0
  -30.2643  -30.1154   20.7572 C   0  0  0  0  0  0  0  0  0  0  0  0
  -29.9334  -28.3305   19.1629 C   0  0  0  0  0  0  0  0  0  0  0  0
  -23.0245  -25.9646   19.9043 C   0  0  0  0  0  0  0  0  0  0  0  0
  -20.9248  -25.5073   19.4386 C   0  0  0  0  0  0  0  0  0  0  0  0
  -22.5453  -24.7145   17.7083 C   0  0  0  0  0  0  0  0  0  0  0  0
  -25.9317  -16.6452   20.2840 C   0  0  0  0  0  0  0  0  0  0  0  0
  -18.8673  -26.2682   25.0332 C   0  0  0  0  0  0  0  0  0  0  0  0
  -27.9139  -18.8426   18.9557 C   0  0  0  0  0  0  0  0  0  0  0  0
  -28.9907  -22.2237   18.3026 C   0  0  0  0  0  0  0  0  0  0  0  0
  -25.5017  -11.5592   20.3587 C   0  0  0  0  0  0  0  0  0  0  0  0
  -24.4145  -17.7324   18.5893 C   0  0  0  0  0  0  0  0  0  0  0  0
  -25.8972  -19.7362   20.1803 C   0  0  0  0  0  0  0  0  0  0  0  0
  -26.6395  -12.5557   20.1524 C   0  0  0  0  0  0  0  0  0  0  0  0
  -18.2897  -28.3816   22.1977 C   0  0  0  0  0  0  0  0  0  0  0  0
  -26.6252  -13.6167   21.2482 C   0  0  0  0  0  0  0  0  0  0  0  0
  -19.3808  -27.9659   21.2119 C   0  0  0  0  0  0  0  0  0  0  0  0
  -18.7826  -28.3090   23.6395 C   0  0  0  0  0  0  0  0  0  0  0  0
  -20.4245  -26.5570   23.0425 C   0  0  0  0  0  0  0  0  0  0  0  0
  -25.3206  -14.4221   21.2194 C   0  0  1  0  0  0  0  0  0  0  0  0
  -25.8502  -17.4927   19.0459 C   0  0  1  0  0  0  0  0  0  0  0  0
  -19.9585  -26.5867   21.5761 C   0  0  2  0  0  0  0  0  0  0  0  0
  -18.9213  -24.3012   26.5509 C   0  0  0  0  0  0  0  0  0  0  0  0
  -30.8789  -23.0916   16.8960 C   0  0  0  0  0  0  0  0  0  0  0  0
  -29.4886  -18.8179   21.5691 C   0  0  0  0  0  0  0  0  0  0  0  0
  -30.5771  -20.9556   20.8525 C   0  0  0  0  0  0  0  0  0  0  0  0
  -30.8967  -18.8819   19.5033 C   0  0  0  0  0  0  0  0  0  0  0  0
  -27.1754  -23.9461   16.7225 C   0  0  0  0  0  0  0  0  0  0  0  0
  -20.1905  -21.4555   21.7147 C   0  0  0  0  0  0  0  0  0  1  0  0
  -19.4917  -24.9172   25.2758 C   0  0  1  0  0  0  0  0  0  0  0  0
  -28.6577  -20.0553   19.4610 C   0  0  1  0  0  0  0  0  0  0  0  0
  -29.3861  -22.8078   16.9584 C   0  0  2  0  0  0  0  0  0  0  0  0
  -29.8767  -19.6758   20.3483 C   0  0  0  0  0  0  0  0  0  0  0  0
  -18.2222  -24.1601   23.3704 N   0  0  0  0  0  0  0  0  0  0  0  0
  -22.3369  -26.4636   20.9349 N   0  0  0  0  0  0  0  0  0  0  0  0
  -19.3287  -24.0596   24.1265 N   0  0  0  0  0  0  0  0  0  0  0  0
  -21.0632  -26.1701   20.6225 N   0  0  0  0  0  0  0  0  0  0  0  0
  -26.5675  -18.7368   19.3321 N   0  0  0  0  0  0  0  0  0  0  0  0
  -19.3442  -26.9907   23.9393 N   0  0  0  0  0  0  0  0  0  0  0  0
  -19.7129  -25.1358   18.9740 N   0  0  0  0  0  0  0  0  0  0  0  0
  -23.8984  -24.6477   17.3492 N   0  0  0  0  0  0  0  0  0  0  0  0
  -25.3524  -15.3977   20.1510 N   0  0  0  0  0  0  0  0  0  0  0  0
  -28.9990  -20.8450   18.2827 N   0  0  0  0  0  0  0  0  0  0  0  0
  -28.6546  -24.0827   16.7123 N   0  3  0  0  0  0  0  0  0  0  0  0
  -21.6813  -24.2288   16.9393 O   0  0  0  0  0  0  0  0  0  0  0  0
  -26.4809  -17.0895   21.2853 O   0  0  0  0  0  0  0  0  0  0  0  0
  -17.9801  -26.6665   25.7925 O   0  0  0  0  0  0  0  0  0  0  0  0
  -28.5039  -18.0232   18.2471 O   0  0  0  0  0  0  0  0  0  0  0  0
  -28.7066  -22.9207   19.2742 O   0  0  0  0  0  0  0  0  0  0  0  0
  -28.5958  -26.4201   19.7632 O   0  0  0  0  0  0  0  0  0  0  0  0
  -21.6159  -21.5203   21.7376 O   0  0  0  0  0  0  0  0  0  1  0  0
  -30.7979  -31.3019   21.0761 F   0  0  0  0  0  0  0  0  0  0  0  0
  -30.1532  -27.8076   17.9488 F   0  0  0  0  0  0  0  0  0  0  0  0
  1  2  1  0  0  0  0
  1  5  2  0  0  0  0
  2  6  2  0  0  0  0
  3  8  2  0  0  0  0
  3 17  1  0  0  0  0
  4  9  1  0  0  0  0
  4 17  2  0  0  0  0
  5 19  1  0  0  0  0
  6 21  1  0  0  0  0
  7 10  2  0  0  0  0
  7 20  1  0  0  0  0
  8 24  1  0  0  0  0
  9 24  2  0  0  0  0
 10 25  1  0  0  0  0
 11 12  2  0  0  0  0
 11 26  1  0  0  0  0
 12 27  1  0  0  0  0
 13 22  1  0  0  0  0
 13 25  2  0  0  0  0
 14 27  2  0  0  0  0
 14 28  1  0  0  0  0
 15 23  1  0  0  0  0
 15 59  2  0  0  0  0
 16 23  2  0  0  0  0
 16 61  1  0  0  0  0
 17 29  1  0  0  0  0
 18 29  1  0  0  0  0
 18 30  2  0  0  0  0
 18 31  1  0  0  0  0
 19 21  2  0  0  0  0
 19 36  1  0  0  0  0
 20 22  2  0  0  0  0
 20 37  1  0  0  0  0
 21 45  1  0  0  0  0
 22 38  1  0  0  0  0
 23 54  1  0  0  0  0
 24 75  1  0  0  0  0
 25 76  1  0  0  0  0
 26 28  2  0  0  0  0
 26 75  1  0  0  0  0
 27 77  1  0  0  0  0
 28 78  1  0  0  0  0
 29 60  2  0  0  0  0
 30 62  1  0  0  0  0
 30 65  1  0  0  0  0
 31 66  1  0  0  0  0
 31 70  2  0  0  0  0
 32 46  1  0  0  0  0
 32 67  1  0  0  0  0
 32 71  2  0  0  0  0
 33 55  1  0  0  0  0
 33 64  1  0  0  0  0
 33 72  2  0  0  0  0
 34 56  1  0  0  0  0
 34 63  1  0  0  0  0
 34 73  2  0  0  0  0
 35 57  1  0  0  0  0
 35 68  1  0  0  0  0
 35 74  2  0  0  0  0
 36 39  1  0  0  0  0
 37 46  1  0  0  0  0
 38 63  1  0  0  0  0
 39 41  1  0  0  0  0
 40 42  1  0  0  0  0
 40 43  1  0  0  0  0
 41 45  1  0  0  0  0
 42 47  1  0  0  0  0
 43 64  1  0  0  0  0
 44 47  1  0  0  0  0
 44 64  1  0  0  0  0
 45 67  1  0  0  0  0
 46 63  1  0  0  0  0
 47 62  1  0  0  0  0
 48 55  1  0  0  0  0
 49 57  1  0  0  0  0
 50 58  1  0  0  0  0
 51 58  1  0  0  0  0
 52 58  1  0  0  0  0
 53 69  1  0  0  0  0
 54 76  1  0  0  0  0
 55 61  1  0  0  0  0
 56 58  1  0  0  0  0
 56 68  1  0  0  0  0
 57 69  1  0  0  0  0
 59 61  1  0  0  0  0
 60 62  1  0  0  0  0
M  CHG  1  69   1
M  ISO  4  33 100  54 101  55 100  76 101
M  END
> <Batch ID>
0059

> <Smiles>
CNC(C)C(=O)NC(C(=O)N1Cc2cc([101O:1][101CH2:1]c3cnn([100CH:0](C)[100C:0](=O)N4CCCC(n5nc(-c6ccc(Oc7ccc(F)cc7F)cc6)c(C(N)=O)c5N)C4)c3)ccc2CC1C(=O)NC1CCCc2ccccc21)C(C)(C)C

> <Shape>
0.193

> <Color>
0.087

> <Negative vol penalty>
0.000

$$$$

  -OEChem-04052317533D

 83 91  0     1  0  0  0  0  0999 V2000
  -16.7292  -24.7453   23.5735 C   0  0  0  0  0  0  0  0  0  0  0  0
  -17.3925  -24.1231   22.5207 C   0  0  0  0  0  0  0  0  0  0  0  0
  -25.7368  -13.5325   21.6999 C   0  0  0  0  0  0  0  0  0  0  0  0
  -26.3383  -13.6392   19.3624 C   0  0  0  0  0  0  0  0  0  0  0  0
  -17.0903  -26.0359   23.9579 C   0  0  0  0  0  0  0  0  0  0  0  0
  -18.4167  -24.7916   21.8511 C   0  0  0  0  0  0  0  0  0  0  0  0
  -23.4814  -22.3151   19.4591 C   0  0  0  0  0  0  0  0  0  0  0  0
  -24.6719  -12.6875   21.3873 C   0  0  0  0  0  0  0  0  0  0  0  0
  -25.2734  -12.7942   19.0498 C   0  0  0  0  0  0  0  0  0  0  0  0
  -23.8161  -21.9344   18.1604 C   0  0  0  0  0  0  0  0  0  0  0  0
  -22.0125  -10.2130   21.2476 C   0  0  0  0  0  0  0  0  0  0  0  0
  -21.8196   -9.0887   22.0503 C   0  0  0  0  0  0  0  0  0  0  0  0
  -24.9155  -24.0558   17.8282 C   0  0  0  0  0  0  0  0  0  0  0  0
  -24.0235   -8.2916   21.4637 C   0  0  0  0  0  0  0  0  0  0  0  0
  -26.8166  -18.6099   15.7284 C   0  0  0  0  0  0  0  0  0  0  0  0
  -26.5699  -14.0084   20.6874 C   0  0  0  0  0  0  0  0  0  0  0  0
  -28.9877  -14.5058   21.3314 C   0  0  0  0  0  0  0  0  0  0  0  0
  -18.1260  -26.7169   23.2989 C   0  0  0  0  0  0  0  0  0  0  0  0
  -23.8525  -23.5755   19.9494 C   0  0  0  0  0  0  0  0  0  0  0  0
  -18.7912  -26.0931   22.2262 C   0  0  0  0  0  0  0  0  0  0  0  0
  -24.5866  -24.4491   19.1345 C   0  0  0  0  0  0  0  0  0  0  0  0
  -24.4402  -12.3184   20.0623 C   0  0  0  0  0  0  0  0  0  0  0  0
  -24.5307  -22.8059   17.3437 C   0  0  0  0  0  0  0  0  0  0  0  0
  -23.2110  -10.3766   20.5529 C   0  0  0  0  0  0  0  0  0  0  0  0
  -22.8251   -8.1280   22.1584 C   0  0  0  0  0  0  0  0  0  0  0  0
  -24.2165   -9.4159   20.6609 C   0  0  0  0  0  0  0  0  0  0  0  0
  -27.6697  -14.8817   21.0096 C   0  0  0  0  0  0  0  0  0  0  0  0
  -29.6395  -15.6944   21.5525 C   0  0  0  0  0  0  0  0  0  0  0  0
  -27.7156  -20.3707   16.3982 C   0  0  0  0  0  0  0  0  0  0  0  0
  -29.5707  -13.1990   21.4222 C   0  0  0  0  0  0  0  0  0  0  0  0
  -22.2747  -26.1292   20.9948 C   0  0  0  0  0  0  0  0  0  0  0  0
  -25.2537  -27.1912   21.7159 C   0  0  0  0  0  0  0  0  0  0  0  0
  -28.6087  -27.0415   21.1092 C   0  0  0  0  0  0  0  0  0  0  0  0
  -28.1441  -21.2872   19.5468 C   0  0  0  0  0  0  0  0  0  0  0  0
  -18.4491  -28.1288   23.7194 C   0  0  0  0  0  0  0  0  0  0  0  0
  -23.5070  -23.9606   21.3617 C   0  0  0  0  0  0  0  0  0  0  0  0
  -25.0264  -25.8053   19.6200 C   0  0  0  0  0  0  0  0  0  0  0  0
  -19.7968  -28.6251   23.2021 C   0  0  0  0  0  0  0  0  0  0  0  0
  -28.8770  -20.1832   23.0030 C   0  0  0  0  0  0  0  0  0  0  0  0
  -19.9561  -28.2918   21.7221 C   0  0  0  0  0  0  0  0  0  0  0  0
  -28.6892  -18.6696   22.9161 C   0  0  0  0  0  0  0  0  0  0  0  0
  -28.0140  -20.9213   21.9841 C   0  0  0  0  0  0  0  0  0  0  0  0
  -28.0218  -18.9468   20.4957 C   0  0  0  0  0  0  0  0  0  0  0  0
  -19.9240  -26.7762   21.4913 C   0  0  1  0  0  0  0  0  0  0  0  0
  -23.4904  -25.4700   21.5824 C   0  0  1  0  0  0  0  0  0  0  0  0
  -28.9123  -18.1708   21.4778 C   0  0  2  0  0  0  0  0  0  0  0  0
  -31.2944  -21.6855   18.4815 C   0  0  0  0  0  0  0  0  0  0  0  0
  -30.7881  -28.0558   21.8297 C   0  0  0  0  0  0  0  0  0  0  0  0
  -24.6066  -29.7097   20.1196 C   0  0  0  0  0  0  0  0  0  0  0  0
  -27.0565  -30.2231   20.0691 C   0  0  0  0  0  0  0  0  0  0  0  0
  -25.8511  -30.1162   22.2504 C   0  0  0  0  0  0  0  0  0  0  0  0
  -28.0408  -22.6055   14.0385 C   0  0  0  0  0  0  0  0  0  0  0  0
  -25.8132  -21.7390   13.3570 C   0  0  0  0  0  0  0  0  0  0  0  0
  -29.6554  -24.4287   22.0239 C   0  0  0  0  0  0  0  0  0  0  0  0
  -28.4794  -21.4130   17.1072 C   0  0  0  0  0  0  0  0  0  0  0  0
  -30.3167  -20.5279   18.4951 C   0  0  0  0  0  0  0  0  0  0  0  0
  -26.0590  -22.9818   15.5301 C   0  0  0  0  0  0  0  0  0  1  0  0
  -26.3146  -27.9775   20.9844 C   0  0  1  0  0  0  0  0  0  0  0  0
  -29.7974  -26.9223   22.0458 C   0  0  2  0  0  0  0  0  0  0  0  0
  -25.9474  -29.4819   20.8458 C   0  0  0  0  0  0  0  0  0  0  0  0
  -26.7377  -21.9660   14.5753 C   0  0  0  0  0  0  0  0  0  0  0  0
  -27.6449  -19.0949   16.6997 N   0  0  0  0  0  0  0  0  0  0  0  0
  -26.3705  -19.5053   14.8449 N   0  0  0  0  0  0  0  0  0  0  0  0
  -27.4930  -16.2056   21.0241 N   0  0  0  0  0  0  0  0  0  0  0  0
  -28.7085  -16.6719   21.3577 N   0  0  0  0  0  0  0  0  0  0  0  0
  -26.9601  -20.6230   15.2957 N   0  0  0  0  0  0  0  0  0  0  0  0
  -24.6590  -26.1384   21.0062 N   0  0  0  0  0  0  0  0  0  0  0  0
  -28.2137  -20.3984   20.6321 N   0  0  0  0  0  0  0  0  0  0  0  0
  -30.9124  -15.9883   21.8927 N   0  0  0  0  0  0  0  0  0  0  0  0
  -28.7592  -12.0860   21.1633 N   0  0  0  0  0  0  0  0  0  0  0  0
  -21.1934  -26.1828   21.8535 N   0  0  0  0  0  0  0  0  0  0  0  0
  -27.5663  -27.7307   21.6920 N   0  0  0  0  0  0  0  0  0  0  0  0
  -28.9320  -20.9893   18.4246 N   0  0  0  0  0  0  0  0  0  0  0  0
  -30.5055  -25.6302   21.8222 N   0  3  0  0  0  0  0  0  0  0  0  0
  -30.7713  -13.0229   21.7400 O   0  0  0  0  0  0  0  0  0  0  0  0
  -22.3152  -26.5587   19.8478 O   0  0  0  0  0  0  0  0  0  0  0  0
  -24.9684  -27.4953   22.8769 O   0  0  0  0  0  0  0  0  0  0  0  0
  -28.6066  -26.5736   19.9727 O   0  0  0  0  0  0  0  0  0  0  0  0
  -27.4264  -22.2949   19.5827 O   0  0  0  0  0  0  0  0  0  0  0  0
  -23.4014  -11.4937   19.7570 O   0  0  0  0  0  0  0  0  0  0  0  0
  -24.8581  -22.4370   16.0754 O   0  0  0  0  0  0  0  0  0  1  0  0
  -22.6402   -7.0492   22.9305 F   0  0  0  0  0  0  0  0  0  0  0  0
  -25.3704   -9.5681   19.9968 F   0  0  0  0  0  0  0  0  0  0  0  0
  1  2  1  0  0  0  0
  1  5  2  0  0  0  0
  2  6  2  0  0  0  0
  3  8  2  0  0  0  0
  3 16  1  0  0  0  0
  4  9  1  0  0  0  0
  4 16  2  0  0  0  0
  5 18  1  0  0  0  0
  6 20  1  0  0  0  0
  7 10  2  0  0  0  0
  7 19  1  0  0  0  0
  8 22  1  0  0  0  0
  9 22  2  0  0  0  0
 10 23  1  0  0  0  0
 11 12  2  0  0  0  0
 11 24  1  0  0  0  0
 12 25  1  0  0  0  0
 13 21  1  0  0  0  0
 13 23  2  0  0  0  0
 14 25  2  0  0  0  0
 14 26  1  0  0  0  0
 15 62  1  0  0  0  0
 15 63  2  0  0  0  0
 16 27  1  0  0  0  0
 17 27  1  0  0  0  0
 17 28  2  0  0  0  0
 17 30  1  0  0  0  0
 18 20  2  0  0  0  0
 18 35  1  0  0  0  0
 19 21  2  0  0  0  0
 19 36  1  0  0  0  0
 20 44  1  0  0  0  0
 21 37  1  0  0  0  0
 22 80  1  0  0  0  0
 23 81  1  0  0  0  0
 24 26  2  0  0  0  0
 24 80  1  0  0  0  0
 25 82  1  0  0  0  0
 26 83  1  0  0  0  0
 27 64  2  0  0  0  0
 28 65  1  0  0  0  0
 28 69  1  0  0  0  0
 29 55  1  0  0  0  0
 29 62  2  0  0  0  0
 29 66  1  0  0  0  0
 30 70  1  0  0  0  0
 30 75  2  0  0  0  0
 31 45  1  0  0  0  0
 31 71  1  0  0  0  0
 31 76  2  0  0  0  0
 32 58  1  0  0  0  0
 32 67  1  0  0  0  0
 32 77  2  0  0  0  0
 33 59  1  0  0  0  0
 33 72  1  0  0  0  0
 33 78  2  0  0  0  0
 34 68  1  0  0  0  0
 34 73  1  0  0  0  0
 34 79  2  0  0  0  0
 35 38  1  0  0  0  0
 36 45  1  0  0  0  0
 37 67  1  0  0  0  0
 38 40  1  0  0  0  0
 39 41  1  0  0  0  0
 39 42  1  0  0  0  0
 40 44  1  0  0  0  0
 41 46  1  0  0  0  0
 42 68  1  0  0  0  0
 43 46  1  0  0  0  0
 43 68  1  0  0  0  0
 44 71  1  0  0  0  0
 45 67  1  0  0  0  0
 46 65  1  0  0  0  0
 47 56  1  0  0  0  0
 48 59  1  0  0  0  0
 49 60  1  0  0  0  0
 50 60  1  0  0  0  0
 51 60  1  0  0  0  0
 52 61  1  0  0  0  0
 53 61  1  0  0  0  0
 54 74  1  0  0  0  0
 55 73  1  0  0  0  0
 56 73  1  0  0  0  0
 57 61  1  0  0  0  0
 57 81  1  0  0  0  0
 58 60  1  0  0  0  0
 58 72  1  0  0  0  0
 59 74  1  0  0  0  0
 61 66  1  0  0  0  0
 63 66  1  0  0  0  0
 64 65  1  0  0  0  0
M  CHG  1  74   1
M  ISO  4  34 100  57 101  73 100  81 101
M  END
> <Batch ID>
0059

> <Smiles>
CC[100N:0](Cc1ncnn1C(C)(C)[101CH2:1][101O:1]c1ccc2c(c1)CN(C(=O)C(NC(=O)C(C)NC)C(C)(C)C)C(C(=O)NC1CCCc3ccccc31)C2)[100C:0](=O)N1CCCC(n2nc(-c3ccc(Oc4ccc(F)cc4F)cc3)c(C(N)=O)c2N)C1

> <Shape>
0.242

> <Color>
0.067

> <Negative vol penalty>
0.000

$$$$

  -OEChem-04052317533D

 84 92  0     1  0  0  0  0  0999 V2000
  -29.6594  -12.0190   19.9388 C   0  0  0  0  0  0  0  0  0  0  0  0
  -29.7186  -13.2387   20.6053 C   0  0  0  0  0  0  0  0  0  0  0  0
  -31.2499  -22.1813   20.6169 C   0  0  0  0  0  0  0  0  0  0  0  0
  -28.9733  -22.2526   19.8114 C   0  0  0  0  0  0  0  0  0  0  0  0
  -28.6912  -11.8082   18.9579 C   0  0  0  0  0  0  0  0  0  0  0  0
  -28.8102  -14.2487   20.2905 C   0  0  0  0  0  0  0  0  0  0  0  0
  -25.2351  -19.6785   23.2994 C   0  0  0  0  0  0  0  0  0  0  0  0
  -30.9662  -21.0075   21.3150 C   0  0  0  0  0  0  0  0  0  0  0  0
  -28.6895  -21.0788   20.5094 C   0  0  0  0  0  0  0  0  0  0  0  0
  -25.0015  -21.0419   23.1256 C   0  0  0  0  0  0  0  0  0  0  0  0
  -30.9382  -17.7959   23.0178 C   0  0  0  0  0  0  0  0  0  0  0  0
  -31.8619  -16.7539   22.9371 C   0  0  0  0  0  0  0  0  0  0  0  0
  -21.9422  -29.2015   23.1627 C   0  0  0  0  0  0  0  0  0  0  0  0
  -23.3219  -20.5369   21.4694 C   0  0  0  0  0  0  0  0  0  0  0  0
  -31.5597  -16.6716   20.5415 C   0  0  0  0  0  0  0  0  0  0  0  0
  -22.6919  -30.0948   22.4371 C   0  0  0  0  0  0  0  0  0  0  0  0
  -30.2535  -22.8039   19.8651 C   0  0  0  0  0  0  0  0  0  0  0  0
  -31.0168  -24.1273   17.8223 C   0  0  0  0  0  0  0  0  0  0  0  0
  -27.7643  -12.8127   18.6378 C   0  0  0  0  0  0  0  0  0  0  0  0
  -24.5204  -18.7327   22.5503 C   0  0  0  0  0  0  0  0  0  0  0  0
  -27.8295  -14.0516   19.3036 C   0  0  0  0  0  0  0  0  0  0  0  0
  -23.5465  -19.1619   21.6374 C   0  0  0  0  0  0  0  0  0  0  0  0
  -29.6860  -20.4563   21.2612 C   0  0  0  0  0  0  0  0  0  0  0  0
  -24.0468  -21.4714   22.2084 C   0  0  0  0  0  0  0  0  0  0  0  0
  -30.3251  -18.2757   21.8604 C   0  0  0  0  0  0  0  0  0  0  0  0
  -32.1727  -16.1918   21.6989 C   0  0  0  0  0  0  0  0  0  0  0  0
  -30.6359  -17.7136   20.6222 C   0  0  0  0  0  0  0  0  0  0  0  0
  -30.5458  -24.0167   19.1443 C   0  0  0  0  0  0  0  0  0  0  0  0
  -22.7924  -28.0941   23.3440 C   0  0  0  0  0  0  0  0  0  0  0  0
  -31.1330  -25.4795   17.6112 C   0  0  0  0  0  0  0  0  0  0  0  0
  -31.3220  -23.0997   16.8701 C   0  0  0  0  0  0  0  0  0  0  0  0
  -25.2999  -16.4995   20.4270 C   0  0  0  0  0  0  0  0  0  0  0  0
  -22.1552  -15.7373   20.6552 C   0  0  0  0  0  0  0  0  0  0  0  0
  -18.9804  -16.7333   21.4139 C   0  0  0  0  0  0  0  0  0  0  0  0
  -28.4495  -30.2352   20.0676 C   0  0  0  0  0  0  0  0  0  0  0  0
  -26.7659  -12.5552   17.5371 C   0  0  0  0  0  0  0  0  0  0  0  0
  -24.7653  -17.2648   22.7688 C   0  0  0  0  0  0  0  0  0  0  0  0
  -22.7379  -18.1863   20.8233 C   0  0  0  0  0  0  0  0  0  0  0  0
  -25.6029  -13.5439   17.5261 C   0  0  0  0  0  0  0  0  0  0  0  0
  -31.9464  -29.5771   19.9433 C   0  0  0  0  0  0  0  0  0  0  0  0
  -26.1158  -14.9730   17.6726 C   0  0  0  0  0  0  0  0  0  0  0  0
  -32.0265  -28.0874   19.6052 C   0  0  0  0  0  0  0  0  0  0  0  0
  -30.7683  -29.8840   20.8653 C   0  0  0  0  0  0  0  0  0  0  0  0
  -29.5416  -27.9107   20.0440 C   0  0  0  0  0  0  0  0  0  0  0  0
  -26.8459  -15.1630   19.0076 C   0  0  1  0  0  0  0  0  0  0  0  0
  -24.3428  -16.4053   21.5814 C   0  0  1  0  0  0  0  0  0  0  0  0
  -30.6809  -27.5605   19.0715 C   0  0  2  0  0  0  0  0  0  0  0  0
  -16.6140  -15.8998   21.4666 C   0  0  0  0  0  0  0  0  0  0  0  0
  -22.0037  -15.9828   17.6177 C   0  0  0  0  0  0  0  0  0  0  0  0
  -19.5105  -16.0874   17.8201 C   0  0  0  0  0  0  0  0  0  0  0  0
  -20.7367  -14.0496   18.5725 C   0  0  0  0  0  0  0  0  0  0  0  0
  -21.0225  -26.9105   24.6193 C   0  0  0  0  0  0  0  0  0  0  0  0
  -18.7642  -17.1832   24.3311 C   0  0  0  0  0  0  0  0  0  0  0  0
  -24.8979  -29.9447   19.9931 C   0  0  0  0  0  0  0  0  0  0  0  0
  -23.1017  -24.8537   23.0544 C   0  0  0  0  0  0  0  0  0  0  0  0
  -25.0232  -30.0442   21.5194 C   0  0  0  0  0  0  0  0  0  0  0  0
  -26.1241  -30.4300   19.2229 C   0  0  0  0  0  0  0  0  0  0  0  0
  -23.2361  -25.8174   24.2272 C   0  0  0  0  0  0  0  0  0  0  0  0
  -24.0281  -23.6485   23.1655 C   0  0  0  0  0  0  0  0  0  1  0  0
  -20.8962  -16.1685   19.9425 C   0  0  1  0  0  0  0  0  0  0  0  0
  -17.8975  -16.0884   22.2601 C   0  0  2  0  0  0  0  0  0  0  0  0
  -20.8032  -15.5908   18.5020 C   0  0  0  0  0  0  0  0  0  0  0  0
  -30.3747  -25.2040   19.7317 N   0  0  0  0  0  0  0  0  0  0  0  0
  -23.9904  -28.2659   22.7789 N   0  0  0  0  0  0  0  0  0  0  0  0
  -23.8984  -29.4916   22.2354 N   0  0  0  0  0  0  0  0  0  0  0  0
  -30.7402  -26.0735   18.7744 N   0  0  0  0  0  0  0  0  0  0  0  0
  -23.0185  -16.7620   21.0683 N   0  0  0  0  0  0  0  0  0  0  0  0
  -29.5226  -29.3593   20.3008 N   0  0  0  0  0  0  0  0  0  0  0  0
  -31.5319  -26.2065   16.5459 N   0  0  0  0  0  0  0  0  0  0  0  0
  -31.1461  -21.7624   17.2510 N   0  0  0  0  0  0  0  0  0  0  0  0
  -25.8942  -15.2985   20.0894 N   0  0  0  0  0  0  0  0  0  0  0  0
  -19.7860  -15.7909   20.8105 N   0  0  0  0  0  0  0  0  0  0  0  0
  -27.3083  -29.6573   19.5249 N   0  0  0  0  0  0  0  0  0  0  0  0
  -22.3713  -26.9591   24.0516 N   0  0  3  0  0  0  0  0  0  0  0  0
  -17.5953  -16.9356   23.4483 N   0  3  0  0  0  0  0  0  0  0  0  0
  -31.7539  -23.3591   15.7214 O   0  0  0  0  0  0  0  0  0  0  0  0
  -25.4844  -17.5814   19.8818 O   0  0  0  0  0  0  0  0  0  0  0  0
  -22.3614  -14.5361   20.8451 O   0  0  0  0  0  0  0  0  0  0  0  0
  -19.0974  -17.9511   21.2968 O   0  0  0  0  0  0  0  0  0  0  0  0
  -28.5063  -31.4437   20.3190 O   0  0  0  0  0  0  0  0  0  0  0  0
  -29.4088  -19.3108   21.9421 O   0  0  0  0  0  0  0  0  0  0  0  0
  -23.8172  -22.8017   22.0364 O   0  0  0  0  0  0  0  0  0  1  0  0
  -33.0610  -15.1922   21.6214 F   0  0  0  0  0  0  0  0  0  0  0  0
  -30.0511  -18.1711   19.5067 F   0  0  0  0  0  0  0  0  0  0  0  0
  1  2  1  0  0  0  0
  1  5  2  0  0  0  0
  2  6  2  0  0  0  0
  3  8  2  0  0  0  0
  3 17  1  0  0  0  0
  4  9  1  0  0  0  0
  4 17  2  0  0  0  0
  5 19  1  0  0  0  0
  6 21  1  0  0  0  0
  7 10  2  0  0  0  0
  7 20  1  0  0  0  0
  8 23  1  0  0  0  0
  9 23  2  0  0  0  0
 10 24  1  0  0  0  0
 11 12  2  0  0  0  0
 11 25  1  0  0  0  0
 12 26  1  0  0  0  0
 13 16  2  0  0  0  0
 13 29  1  0  0  0  0
 14 22  1  0  0  0  0
 14 24  2  0  0  0  0
 15 26  2  0  0  0  0
 15 27  1  0  0  0  0
 16 65  1  0  0  0  0
 17 28  1  0  0  0  0
 18 28  1  0  0  0  0
 18 30  2  0  0  0  0
 18 31  1  0  0  0  0
 19 21  2  0  0  0  0
 19 36  1  0  0  0  0
 20 22  2  0  0  0  0
 20 37  1  0  0  0  0
 21 45  1  0  0  0  0
 22 38  1  0  0  0  0
 23 81  1  0  0  0  0
 24 82  1  0  0  0  0
 25 27  2  0  0  0  0
 25 81  1  0  0  0  0
 26 83  1  0  0  0  0
 27 84  1  0  0  0  0
 28 63  2  0  0  0  0
 29 64  2  0  0  0  0
 29 74  1  0  0  0  0
 30 66  1  0  0  0  0
 30 69  1  0  0  0  0
 31 70  1  0  0  0  0
 31 76  2  0  0  0  0
 32 46  1  0  0  0  0
 32 71  1  0  0  0  0
 32 77  2  0  0  0  0
 33 60  1  0  0  0  0
 33 67  1  0  0  0  0
 33 78  2  0  0  0  0
 34 61  1  0  0  0  0
 34 72  1  0  0  0  0
 34 79  2  0  0  0  0
 35 68  1  0  0  0  0
 35 73  1  0  0  0  0
 35 80  2  0  0  0  0
 36 39  1  0  0  0  0
 37 46  1  0  0  0  0
 38 67  1  0  0  0  0
 39 41  1  0  0  0  0
 40 42  1  0  0  0  0
 40 43  1  0  0  0  0
 41 45  1  0  0  0  0
 42 47  1  0  0  0  0
 43 68  1  0  0  0  0
 44 47  1  0  0  0  0
 44 68  1  0  0  0  0
 45 71  1  0  0  0  0
 46 67  1  0  0  0  0
 47 66  1  0  0  0  0
 48 61  1  0  0  0  0
 49 62  1  0  0  0  0
 50 62  1  0  0  0  0
 51 62  1  0  0  0  0
 52 74  1  0  0  0  0
 53 75  1  0  0  0  0
 54 56  1  0  0  0  0
 54 57  1  0  0  0  0
 55 58  1  0  0  0  0
 55 59  1  0  0  0  0
 56 65  1  0  0  0  0
 57 73  1  0  0  0  0
 58 74  1  0  0  0  0
 59 82  1  0  0  0  0
 60 62  1  0  0  0  0
 60 72  1  0  0  0  0
 61 75  1  0  0  0  0
 63 66  1  0  0  0  0
 64 65  1  0  0  0  0
M  CHG  1  75   1
M  ISO  4  35 100  59 101  73 100  82 101
M  END
> <Batch ID>
0059

> <Smiles>
CNC(C)C(=O)NC(C(=O)N1Cc2cc([101O:1][101CH2:1]CCN(C)c3ccn(CCC[100NH:0][100C:0](=O)N4CCCC(n5nc(-c6ccc(Oc7ccc(F)cc7F)cc6)c(C(N)=O)c5N)C4)n3)ccc2CC1C(=O)NC1CCCc2ccccc21)C(C)(C)C

> <Shape>
0.209

> <Color>
0.072

> <Negative vol penalty>
0.000

$$$$

  -OEChem-04052317533D

 82 90  0     1  0  0  0  0  0999 V2000
  -27.2814  -29.3173   26.8880 C   0  0  0  0  0  0  0  0  0  0  0  0
  -26.6876  -28.2845   26.1695 C   0  0  0  0  0  0  0  0  0  0  0  0
  -23.0321   -9.9166   19.9478 C   0  0  0  0  0  0  0  0  0  0  0  0
  -23.8043   -9.8924   22.2369 C   0  0  0  0  0  0  0  0  0  0  0  0
  -27.9558  -30.3352   26.2149 C   0  0  0  0  0  0  0  0  0  0  0  0
  -26.7669  -28.2696   24.7775 C   0  0  0  0  0  0  0  0  0  0  0  0
  -27.9244  -23.6923   22.9463 C   0  0  0  0  0  0  0  0  0  0  0  0
  -22.2606   -8.7814   20.1960 C   0  0  0  0  0  0  0  0  0  0  0  0
  -23.0327   -8.7572   22.4852 C   0  0  0  0  0  0  0  0  0  0  0  0
  -26.8979  -22.7505   22.8907 C   0  0  0  0  0  0  0  0  0  0  0  0
  -22.7500   -5.4480   20.4671 C   0  0  0  0  0  0  0  0  0  0  0  0
  -22.7857   -4.4219   19.5229 C   0  0  0  0  0  0  0  0  0  0  0  0
  -26.6112  -23.2107   20.5402 C   0  0  0  0  0  0  0  0  0  0  0  0
  -20.4042   -4.6500   19.1852 C   0  0  0  0  0  0  0  0  0  0  0  0
  -27.3581  -18.9829   21.9018 C   0  0  0  0  0  0  0  0  0  0  0  0
  -27.3989  -18.6349   19.5923 C   0  0  0  0  0  0  0  0  0  0  0  0
  -23.8040  -10.4721   20.9682 C   0  0  0  0  0  0  0  0  0  0  0  0
  -24.2092  -12.9884   20.8590 C   0  0  0  0  0  0  0  0  0  0  0  0
  -28.0517  -30.3277   24.8144 C   0  0  0  0  0  0  0  0  0  0  0  0
  -28.2953  -24.4094   21.7998 C   0  0  0  0  0  0  0  0  0  0  0  0
  -27.4420  -29.2891   24.0849 C   0  0  0  0  0  0  0  0  0  0  0  0
  -27.6444  -24.1592   20.5833 C   0  0  0  0  0  0  0  0  0  0  0  0
  -26.6712  -19.0042   20.7051 C   0  0  0  0  0  0  0  0  0  0  0  0
  -22.2608   -8.2017   21.4647 C   0  0  0  0  0  0  0  0  0  0  0  0
  -26.2391  -22.5117   21.6882 C   0  0  0  0  0  0  0  0  0  0  0  0
  -21.5415   -6.0751   20.7704 C   0  0  0  0  0  0  0  0  0  0  0  0
  -21.6128   -4.0229   18.8820 C   0  0  0  0  0  0  0  0  0  0  0  0
  -20.3686   -5.6761   20.1295 C   0  0  0  0  0  0  0  0  0  0  0  0
  -24.6017  -11.6444   20.7122 C   0  0  0  0  0  0  0  0  0  0  0  0
  -25.3181  -13.7118   20.4935 C   0  0  0  0  0  0  0  0  0  0  0  0
  -29.2552  -18.2906   20.8583 C   0  0  0  0  0  0  0  0  0  0  0  0
  -22.9545  -13.5341   21.2875 C   0  0  0  0  0  0  0  0  0  0  0  0
  -28.3061  -27.4807   20.9808 C   0  0  0  0  0  0  0  0  0  0  0  0
  -29.8070  -26.3666   18.3296 C   0  0  0  0  0  0  0  0  0  0  0  0
  -30.4060  -23.7485   16.2241 C   0  0  0  0  0  0  0  0  0  0  0  0
  -30.8269  -14.5904   20.6566 C   0  0  0  0  0  0  0  0  0  0  0  0
  -28.7504  -31.4748   24.1284 C   0  0  0  0  0  0  0  0  0  0  0  0
  -29.4226  -25.4027   21.8703 C   0  0  0  0  0  0  0  0  0  0  0  0
  -28.0184  -24.8878   19.3193 C   0  0  0  0  0  0  0  0  0  0  0  0
  -29.1102  -31.1862   22.6732 C   0  0  0  0  0  0  0  0  0  0  0  0
  -29.6162  -12.2479   18.2642 C   0  0  0  0  0  0  0  0  0  0  0  0
  -27.9239  -30.5645   21.9432 C   0  0  0  0  0  0  0  0  0  0  0  0
  -28.1741  -11.9885   18.7036 C   0  0  0  0  0  0  0  0  0  0  0  0
  -30.5451  -12.4392   19.4611 C   0  0  0  0  0  0  0  0  0  0  0  0
  -28.6701  -13.2111   20.8619 C   0  0  0  0  0  0  0  0  0  0  0  0
  -27.5276  -29.2248   22.5754 C   0  0  1  0  0  0  0  0  0  0  0  0
  -29.3713  -26.4448   20.7573 C   0  0  1  0  0  0  0  0  0  0  0  0
  -27.6854  -13.0673   19.6888 C   0  0  2  0  0  0  0  0  0  0  0  0
  -31.6434  -23.1530   14.1236 C   0  0  0  0  0  0  0  0  0  0  0  0
  -23.6510  -21.2329   19.8730 C   0  0  0  0  0  0  0  0  0  0  0  0
  -27.6920  -27.8162   16.6757 C   0  0  0  0  0  0  0  0  0  0  0  0
  -28.3898  -26.4392   14.7046 C   0  0  0  0  0  0  0  0  0  0  0  0
  -30.0197  -27.9926   15.7784 C   0  0  0  0  0  0  0  0  0  0  0  0
  -32.0406  -21.7174   17.6247 C   0  0  0  0  0  0  0  0  0  0  0  0
  -25.2182  -19.4080   20.6190 C   0  0  0  0  0  0  0  0  0  0  0  0
  -30.6910  -17.8973   20.9422 C   0  0  0  0  0  0  0  0  0  0  0  0
  -30.9540  -16.7322   21.9040 C   0  0  0  0  0  0  0  0  0  0  0  0
  -29.3584  -25.8673   16.9774 C   0  0  1  0  0  0  0  0  0  0  0  0
  -31.6958  -23.1980   15.6428 C   0  0  2  0  0  0  0  0  0  0  0  0
  -25.0477  -20.9138   20.3909 C   0  0  2  0  0  0  0  0  0  1  0  0
  -28.8564  -27.0163   16.0581 C   0  0  0  0  0  0  0  0  0  0  0  0
  -28.6553  -18.6300   22.0153 N   0  0  0  0  0  0  0  0  0  0  0  0
  -28.6975  -18.2711   19.6327 N   0  0  0  0  0  0  0  0  0  0  0  0
  -25.8615  -11.5187   20.2865 N   0  0  0  0  0  0  0  0  0  0  0  0
  -26.2701  -12.7929   20.1625 N   0  0  0  0  0  0  0  0  0  0  0  0
  -29.1227  -25.8538   19.4408 N   0  0  0  0  0  0  0  0  0  0  0  0
  -30.0256  -13.4767   20.3553 N   0  0  0  0  0  0  0  0  0  0  0  0
  -25.5618  -15.0378   20.4260 N   0  0  0  0  0  0  0  0  0  0  0  0
  -21.9217  -12.6491   21.6258 N   0  0  0  0  0  0  0  0  0  0  0  0
  -28.4423  -28.1815   22.1639 N   0  0  0  0  0  0  0  0  0  0  0  0
  -30.4787  -25.1100   16.4297 N   0  0  0  0  0  0  0  0  0  0  0  0
  -30.2560  -15.5298   21.5066 N   0  0  0  0  0  0  0  0  0  0  0  0
  -31.9426  -21.8170   16.1457 N   0  3  0  0  0  0  0  0  0  0  0  0
  -22.7499  -14.7700   21.3524 O   0  0  0  0  0  0  0  0  0  0  0  0
  -27.4267  -27.6339   20.1412 O   0  0  0  0  0  0  0  0  0  0  0  0
  -30.7352  -27.1761   18.3979 O   0  0  0  0  0  0  0  0  0  0  0  0
  -29.4302  -23.0420   16.4675 O   0  0  0  0  0  0  0  0  0  0  0  0
  -31.9644  -14.7394   20.1976 O   0  0  0  0  0  0  0  0  0  0  0  0
  -21.5079   -7.0942   21.7074 O   0  0  0  0  0  0  0  0  0  0  0  0
  -25.2364  -21.5934   21.6313 O   0  0  0  0  0  0  0  0  0  1  0  0
  -21.6474   -3.0386   17.9742 F   0  0  0  0  0  0  0  0  0  0  0  0
  -19.2048   -6.2755   20.4158 F   0  0  0  0  0  0  0  0  0  0  0  0
  1  2  1  0  0  0  0
  1  5  2  0  0  0  0
  2  6  2  0  0  0  0
  3  8  2  0  0  0  0
  3 17  1  0  0  0  0
  4  9  1  0  0  0  0
  4 17  2  0  0  0  0
  5 19  1  0  0  0  0
  6 21  1  0  0  0  0
  7 10  2  0  0  0  0
  7 20  1  0  0  0  0
  8 24  1  0  0  0  0
  9 24  2  0  0  0  0
 10 25  1  0  0  0  0
 11 12  2  0  0  0  0
 11 26  1  0  0  0  0
 12 27  1  0  0  0  0
 13 22  1  0  0  0  0
 13 25  2  0  0  0  0
 14 27  2  0  0  0  0
 14 28  1  0  0  0  0
 15 23  1  0  0  0  0
 15 62  2  0  0  0  0
 16 23  2  0  0  0  0
 16 63  1  0  0  0  0
 17 29  1  0  0  0  0
 18 29  1  0  0  0  0
 18 30  2  0  0  0  0
 18 32  1  0  0  0  0
 19 21  2  0  0  0  0
 19 37  1  0  0  0  0
 20 22  2  0  0  0  0
 20 38  1  0  0  0  0
 21 46  1  0  0  0  0
 22 39  1  0  0  0  0
 23 55  1  0  0  0  0
 24 79  1  0  0  0  0
 25 80  1  0  0  0  0
 26 28  2  0  0  0  0
 26 79  1  0  0  0  0
 27 81  1  0  0  0  0
 28 82  1  0  0  0  0
 29 64  2  0  0  0  0
 30 65  1  0  0  0  0
 30 68  1  0  0  0  0
 31 56  1  0  0  0  0
 31 62  1  0  0  0  0
 31 63  2  0  0  0  0
 32 69  1  0  0  0  0
 32 74  2  0  0  0  0
 33 47  1  0  0  0  0
 33 70  1  0  0  0  0
 33 75  2  0  0  0  0
 34 58  1  0  0  0  0
 34 66  1  0  0  0  0
 34 76  2  0  0  0  0
 35 59  1  0  0  0  0
 35 71  1  0  0  0  0
 35 77  2  0  0  0  0
 36 67  1  0  0  0  0
 36 72  1  0  0  0  0
 36 78  2  0  0  0  0
 37 40  1  0  0  0  0
 38 47  1  0  0  0  0
 39 66  1  0  0  0  0
 40 42  1  0  0  0  0
 41 43  1  0  0  0  0
 41 44  1  0  0  0  0
 42 46  1  0  0  0  0
 43 48  1  0  0  0  0
 44 67  1  0  0  0  0
 45 48  1  0  0  0  0
 45 67  1  0  0  0  0
 46 70  1  0  0  0  0
 47 66  1  0  0  0  0
 48 65  1  0  0  0  0
 49 59  1  0  0  0  0
 50 60  1  0  0  0  0
 51 61  1  0  0  0  0
 52 61  1  0  0  0  0
 53 61  1  0  0  0  0
 54 73  1  0  0  0  0
 55 60  1  0  0  0  0
 56 57  1  0  0  0  0
 57 72  1  0  0  0  0
 58 61  1  0  0  0  0
 58 71  1  0  0  0  0
 59 73  1  0  0  0  0
 60 80  1  0  0  0  0
 64 65  1  0  0  0  0
M  CHG  1  73   1
M  ISO  4  36 100  60 101  72 100  80 101
M  END
> <Batch ID>
0059

> <Smiles>
CNC(C)C(=O)NC(C(=O)N1Cc2cc([101O:1][101CH:1](C)Cc3cnc(CC[100NH:0][100C:0](=O)N4CCCC(n5nc(-c6ccc(Oc7ccc(F)cc7F)cc6)c(C(N)=O)c5N)C4)nc3)ccc2CC1C(=O)NC1CCCc2ccccc21)C(C)(C)C

> <Shape>
0.274

> <Color>
0.195

> <Negative vol penalty>
0.000

$$$$

  -OEChem-04052317533D

 81 89  0     1  0  0  0  0  0999 V2000
  -25.0879  -28.5771   20.5939 C   0  0  0  0  0  0  0  0  0  0  0  0
  -24.8881  -27.4259   19.8386 C   0  0  0  0  0  0  0  0  0  0  0  0
  -20.7579  -23.3939   23.0763 C   0  0  0  0  0  0  0  0  0  0  0  0
  -19.5616  -22.2905   21.2907 C   0  0  0  0  0  0  0  0  0  0  0  0
  -26.3719  -28.9170   21.0180 C   0  0  0  0  0  0  0  0  0  0  0  0
  -25.9724  -26.6146   19.5061 C   0  0  0  0  0  0  0  0  0  0  0  0
  -24.9931  -21.6917   20.1775 C   0  0  0  0  0  0  0  0  0  0  0  0
  -20.4366  -24.6343   22.5251 C   0  0  0  0  0  0  0  0  0  0  0  0
  -19.2402  -23.5309   20.7395 C   0  0  0  0  0  0  0  0  0  0  0  0
  -24.2273  -21.0559   19.2012 C   0  0  0  0  0  0  0  0  0  0  0  0
  -19.6262  -28.1004   21.7871 C   0  0  0  0  0  0  0  0  0  0  0  0
  -19.1792  -29.0985   22.6528 C   0  0  0  0  0  0  0  0  0  0  0  0
  -26.2370  -20.1443   18.2270 C   0  0  0  0  0  0  0  0  0  0  0  0
  -17.3166  -27.7026   23.3006 C   0  0  0  0  0  0  0  0  0  0  0  0
  -25.8249  -14.7418   16.6803 C   0  0  0  0  0  0  0  0  0  0  0  0
  -20.3204  -22.2220   22.4590 C   0  0  0  0  0  0  0  0  0  0  0  0
  -19.9086  -20.2125   23.9756 C   0  0  0  0  0  0  0  0  0  0  0  0
  -27.4711  -28.1044   20.6987 C   0  0  0  0  0  0  0  0  0  0  0  0
  -26.3899  -21.5672   20.1794 C   0  0  0  0  0  0  0  0  0  0  0  0
  -27.2724  -26.9448   19.9253 C   0  0  0  0  0  0  0  0  0  0  0  0
  -27.0181  -20.7774   19.2059 C   0  0  0  0  0  0  0  0  0  0  0  0
  -19.6778  -24.7028   21.3567 C   0  0  0  0  0  0  0  0  0  0  0  0
  -24.8494  -20.2845   18.2241 C   0  0  0  0  0  0  0  0  0  0  0  0
  -18.9183  -26.9033   21.6781 C   0  0  0  0  0  0  0  0  0  0  0  0
  -18.0244  -28.8997   23.4096 C   0  0  0  0  0  0  0  0  0  0  0  0
  -17.7636  -26.7045   22.4348 C   0  0  0  0  0  0  0  0  0  0  0  0
  -20.6525  -20.9404   23.0276 C   0  0  0  0  0  0  0  0  0  0  0  0
  -20.6440  -19.0718   24.1866 C   0  0  0  0  0  0  0  0  0  0  0  0
  -25.0686  -14.1352   18.5289 C   0  0  0  0  0  0  0  0  0  0  0  0
  -18.6642  -20.5382   24.6087 C   0  0  0  0  0  0  0  0  0  0  0  0
  -28.8227  -23.5910   19.8806 C   0  0  0  0  0  0  0  0  0  0  0  0
  -23.8601  -15.4052   21.1818 C   0  0  0  0  0  0  0  0  0  0  0  0
  -30.5898  -20.9575   20.5618 C   0  0  0  0  0  0  0  0  0  0  0  0
  -30.8297  -17.5532   20.5749 C   0  0  0  0  0  0  0  0  0  0  0  0
  -28.8467  -28.5379   21.1395 C   0  0  0  0  0  0  0  0  0  0  0  0
  -27.1996  -22.2376   21.2552 C   0  0  0  0  0  0  0  0  0  0  0  0
  -28.5129  -20.5953   19.1760 C   0  0  0  0  0  0  0  0  0  0  0  0
  -29.8896  -27.4258   21.0627 C   0  0  0  0  0  0  0  0  0  0  0  0
  -25.3566  -17.7751   23.4993 C   0  0  0  0  0  0  0  0  0  0  0  0
  -29.7911  -26.6928   19.7286 C   0  0  0  0  0  0  0  0  0  0  0  0
  -24.2229  -18.7838   23.6795 C   0  0  0  0  0  0  0  0  0  0  0  0
  -25.3955  -17.2226   22.0769 C   0  0  0  0  0  0  0  0  0  0  0  0
  -22.9687  -17.6264   21.8086 C   0  0  0  0  0  0  0  0  0  0  0  0
  -28.4199  -26.0260   19.5655 C   0  0  1  0  0  0  0  0  0  0  0  0
  -28.6550  -22.4606   20.8562 C   0  0  1  0  0  0  0  0  0  0  0  0
  -22.8759  -18.1847   23.2385 C   0  0  2  0  0  0  0  0  0  0  0  0
  -25.2861  -13.7819   22.3594 C   0  0  0  0  0  0  0  0  0  0  0  0
  -32.4100  -15.6920   21.1544 C   0  0  0  0  0  0  0  0  0  0  0  0
  -32.1841  -21.5240   18.0226 C   0  0  0  0  0  0  0  0  0  0  0  0
  -33.0719  -19.1861   18.1419 C   0  0  0  0  0  0  0  0  0  0  0  0
  -33.5622  -20.7998   19.9799 C   0  0  0  0  0  0  0  0  0  0  0  0
  -28.9698  -16.4466   22.5937 C   0  0  0  0  0  0  0  0  0  0  0  0
  -24.8570  -13.5381   19.8446 C   0  0  0  0  0  0  0  0  0  0  0  0
  -23.4428  -17.5529   16.3397 C   0  0  0  0  0  0  0  0  0  0  0  0
  -23.8739  -16.2140   15.7371 C   0  0  0  0  0  0  0  0  0  0  0  0
  -24.6153  -18.4405   16.7405 C   0  0  0  0  0  0  0  0  0  1  0  0
  -25.0666  -14.5120   21.0385 C   0  0  1  0  0  0  0  0  0  0  0  0
  -31.2275  -19.8579   19.7474 C   0  0  1  0  0  0  0  0  0  0  0  0
  -31.2784  -16.5792   21.6494 C   0  0  2  0  0  0  0  0  0  0  0  0
  -32.4834  -20.3467   18.9721 C   0  0  0  0  0  0  0  0  0  0  0  0
  -26.1393  -13.9984   17.7817 N   0  0  0  0  0  0  0  0  0  0  0  0
  -21.7745  -20.3147   22.6618 N   0  0  0  0  0  0  0  0  0  0  0  0
  -24.1640  -14.9262   17.8918 N   0  0  0  0  0  0  0  0  0  0  0  0
  -24.6269  -15.3300   16.6990 N   0  0  0  0  0  0  0  0  0  0  0  0
  -21.7411  -19.1817   23.3838 N   0  0  0  0  0  0  0  0  0  0  0  0
  -29.2616  -21.2760   20.2454 N   0  0  0  0  0  0  0  0  0  0  0  0
  -24.0866  -16.6865   21.6850 N   0  0  0  0  0  0  0  0  0  0  0  0
  -20.4528  -17.9956   24.9788 N   0  0  0  0  0  0  0  0  0  0  0  0
  -18.0429  -21.7500   24.2771 N   0  0  0  0  0  0  0  0  0  0  0  0
  -28.3552  -24.8066   20.3422 N   0  0  0  0  0  0  0  0  0  0  0  0
  -31.4867  -18.7614   20.6742 N   0  0  0  0  0  0  0  0  0  0  0  0
  -30.1438  -15.7063   22.0638 N   0  3  0  0  0  0  0  0  0  0  0  0
  -18.1274  -19.7849   25.4559 O   0  0  0  0  0  0  0  0  0  0  0  0
  -29.3394  -23.3765   18.7903 O   0  0  0  0  0  0  0  0  0  0  0  0
  -22.7503  -14.9743   20.8581 O   0  0  0  0  0  0  0  0  0  0  0  0
  -31.2438  -21.5085   21.4508 O   0  0  0  0  0  0  0  0  0  0  0  0
  -29.9838  -17.2693   19.7297 O   0  0  0  0  0  0  0  0  0  0  0  0
  -19.3638  -25.9130   20.8187 O   0  0  0  0  0  0  0  0  0  0  0  0
  -24.1044  -19.6634   17.2696 O   0  0  0  0  0  0  0  0  0  1  0  0
  -17.5962  -29.8577   24.2420 F   0  0  0  0  0  0  0  0  0  0  0  0
  -17.0801  -25.5561   22.3352 F   0  0  0  0  0  0  0  0  0  0  0  0
  1  2  1  0  0  0  0
  1  5  2  0  0  0  0
  2  6  2  0  0  0  0
  3  8  2  0  0  0  0
  3 16  1  0  0  0  0
  4  9  1  0  0  0  0
  4 16  2  0  0  0  0
  5 18  1  0  0  0  0
  6 20  1  0  0  0  0
  7 10  2  0  0  0  0
  7 19  1  0  0  0  0
  8 22  1  0  0  0  0
  9 22  2  0  0  0  0
 10 23  1  0  0  0  0
 11 12  2  0  0  0  0
 11 24  1  0  0  0  0
 12 25  1  0  0  0  0
 13 21  1  0  0  0  0
 13 23  2  0  0  0  0
 14 25  2  0  0  0  0
 14 26  1  0  0  0  0
 15 61  2  0  0  0  0
 15 64  1  0  0  0  0
 16 27  1  0  0  0  0
 17 27  1  0  0  0  0
 17 28  2  0  0  0  0
 17 30  1  0  0  0  0
 18 20  2  0  0  0  0
 18 35  1  0  0  0  0
 19 21  2  0  0  0  0
 19 36  1  0  0  0  0
 20 44  1  0  0  0  0
 21 37  1  0  0  0  0
 22 78  1  0  0  0  0
 23 79  1  0  0  0  0
 24 26  2  0  0  0  0
 24 78  1  0  0  0  0
 25 80  1  0  0  0  0
 26 81  1  0  0  0  0
 27 62  2  0  0  0  0
 28 65  1  0  0  0  0
 28 68  1  0  0  0  0
 29 53  1  0  0  0  0
 29 61  1  0  0  0  0
 29 63  2  0  0  0  0
 30 69  1  0  0  0  0
 30 73  2  0  0  0  0
 31 45  1  0  0  0  0
 31 70  1  0  0  0  0
 31 74  2  0  0  0  0
 32 57  1  0  0  0  0
 32 67  1  0  0  0  0
 32 75  2  0  0  0  0
 33 58  1  0  0  0  0
 33 66  1  0  0  0  0
 33 76  2  0  0  0  0
 34 59  1  0  0  0  0
 34 71  1  0  0  0  0
 34 77  2  0  0  0  0
 35 38  1  0  0  0  0
 36 45  1  0  0  0  0
 37 66  1  0  0  0  0
 38 40  1  0  0  0  0
 39 41  1  0  0  0  0
 39 42  1  0  0  0  0
 40 44  1  0  0  0  0
 41 46  1  0  0  0  0
 42 67  1  0  0  0  0
 43 46  1  0  0  0  0
 43 67  1  0  0  0  0
 44 70  1  0  0  0  0
 45 66  1  0  0  0  0
 46 65  1  0  0  0  0
 47 57  1  0  0  0  0
 48 59  1  0  0  0  0
 49 60  1  0  0  0  0
 50 60  1  0  0  0  0
 51 60  1  0  0  0  0
 52 72  1  0  0  0  0
 53 57  1  0  0  0  0
 54 55  1  0  0  0  0
 54 56  1  0  0  0  0
 55 64  1  0  0  0  0
 56 79  1  0  0  0  0
 58 60  1  0  0  0  0
 58 71  1  0  0  0  0
 59 72  1  0  0  0  0
 62 65  1  0  0  0  0
 63 64  1  0  0  0  0
M  CHG  1  72   1
M  ISO  4  32 100  56 101  57 100  79 101
M  END
> <Batch ID>
0059

> <Smiles>
CNC(C)C(=O)NC(C(=O)N1Cc2cc([101O:1][101CH2:1]CCn3cnc(C[100CH:0](C)[100C:0](=O)N4CCCC(n5nc(-c6ccc(Oc7ccc(F)cc7F)cc6)c(C(N)=O)c5N)C4)n3)ccc2CC1C(=O)NC1CCCc2ccccc21)C(C)(C)C

> <Shape>
0.197

> <Color>
0.065

> <Negative vol penalty>
0.000

$$$$

  -OEChem-04052317533D

 84 92  0     1  0  0  0  0  0999 V2000
  -17.6283  -25.2243   21.1478 C   0  0  0  0  0  0  0  0  0  0  0  0
  -18.8173  -25.4349   20.4569 C   0  0  0  0  0  0  0  0  0  0  0  0
  -24.6886  -14.2524   18.4792 C   0  0  0  0  0  0  0  0  0  0  0  0
  -25.2301  -13.9644   20.8160 C   0  0  0  0  0  0  0  0  0  0  0  0
  -17.3780  -25.9194   22.3302 C   0  0  0  0  0  0  0  0  0  0  0  0
  -19.7562  -26.3416   20.9475 C   0  0  0  0  0  0  0  0  0  0  0  0
  -24.4816  -24.5289   20.7755 C   0  0  0  0  0  0  0  0  0  0  0  0
  -24.5593  -12.8707   18.3388 C   0  0  0  0  0  0  0  0  0  0  0  0
  -25.1008  -12.5827   20.6757 C   0  0  0  0  0  0  0  0  0  0  0  0
  -25.1245  -24.5435   19.5385 C   0  0  0  0  0  0  0  0  0  0  0  0
  -22.5951  -10.3206   20.5167 C   0  0  0  0  0  0  0  0  0  0  0  0
  -21.8824   -9.6347   21.5002 C   0  0  0  0  0  0  0  0  0  0  0  0
  -26.3098  -26.5426   20.1848 C   0  0  0  0  0  0  0  0  0  0  0  0
  -23.8445   -8.3181   22.0039 C   0  0  0  0  0  0  0  0  0  0  0  0
  -25.0241  -14.7993   19.7178 C   0  0  0  0  0  0  0  0  0  0  0  0
  -24.1490  -17.1443   20.2105 C   0  0  0  0  0  0  0  0  0  0  0  0
  -18.3186  -26.8279   22.8406 C   0  0  0  0  0  0  0  0  0  0  0  0
  -24.7403  -25.5289   21.7239 C   0  0  0  0  0  0  0  0  0  0  0  0
  -19.5177  -27.0505   22.1371 C   0  0  0  0  0  0  0  0  0  0  0  0
  -25.6708  -26.5370   21.4341 C   0  0  0  0  0  0  0  0  0  0  0  0
  -24.7653  -12.0358   19.4370 C   0  0  0  0  0  0  0  0  0  0  0  0
  -26.0366  -25.5520   19.2418 C   0  0  0  0  0  0  0  0  0  0  0  0
  -23.9325  -10.0051   20.2767 C   0  0  0  0  0  0  0  0  0  0  0  0
  -22.5071   -8.6335   22.2438 C   0  0  0  0  0  0  0  0  0  0  0  0
  -24.5572   -9.0039   21.0203 C   0  0  0  0  0  0  0  0  0  0  0  0
  -25.1584  -16.2265   19.8632 C   0  0  0  0  0  0  0  0  0  0  0  0
  -24.7808  -18.3639   20.2153 C   0  0  0  0  0  0  0  0  0  0  0  0
  -30.3001  -22.8981   20.1780 C   0  0  0  0  0  0  0  0  0  0  0  0
  -29.6663  -23.5481   18.2983 C   0  0  0  0  0  0  0  0  0  0  0  0
  -22.7642  -16.9150   20.5027 C   0  0  0  0  0  0  0  0  0  0  0  0
  -22.9965  -27.7687   23.1544 C   0  0  0  0  0  0  0  0  0  0  0  0
  -25.7178  -28.2517   24.8526 C   0  0  0  0  0  0  0  0  0  0  0  0
  -29.0592  -21.4699   21.7401 C   0  0  0  0  0  0  0  0  0  0  0  0
  -29.1145  -27.9696   25.0239 C   0  0  0  0  0  0  0  0  0  0  0  0
  -17.9829  -27.5910   24.0975 C   0  0  0  0  0  0  0  0  0  0  0  0
  -24.0585  -25.4839   23.0639 C   0  0  0  0  0  0  0  0  0  0  0  0
  -25.9988  -27.6223   22.4256 C   0  0  0  0  0  0  0  0  0  0  0  0
  -19.1932  -28.2561   24.7479 C   0  0  0  0  0  0  0  0  0  0  0  0
  -29.3583  -19.7185   18.5668 C   0  0  0  0  0  0  0  0  0  0  0  0
  -20.0291  -28.9846   23.7003 C   0  0  0  0  0  0  0  0  0  0  0  0
  -28.2192  -18.7049   18.6686 C   0  0  0  0  0  0  0  0  0  0  0  0
  -30.0110  -19.9674   19.9240 C   0  0  0  0  0  0  0  0  0  0  0  0
  -27.9094  -19.3778   21.0902 C   0  0  0  0  0  0  0  0  0  0  0  0
  -20.5717  -28.0075   22.6504 C   0  0  1  0  0  0  0  0  0  0  0  0
  -24.0140  -26.8420   23.7575 C   0  0  1  0  0  0  0  0  0  0  0  0
  -27.2045  -19.1216   19.7476 C   0  0  2  0  0  0  0  0  0  0  0  0
  -32.4741  -25.4637   17.6568 C   0  0  0  0  0  0  0  0  0  0  0  0
  -31.4117  -28.0707   26.0290 C   0  0  0  0  0  0  0  0  0  0  0  0
  -31.4348  -21.4659   22.0133 C   0  0  0  0  0  0  0  0  0  0  0  0
  -25.5368  -31.1946   24.0674 C   0  0  0  0  0  0  0  0  0  0  0  0
  -27.9298  -31.4536   24.7563 C   0  0  0  0  0  0  0  0  0  0  0  0
  -26.2141  -30.7877   26.4402 C   0  0  0  0  0  0  0  0  0  0  0  0
  -28.8898  -25.2228   26.1025 C   0  0  0  0  0  0  0  0  0  0  0  0
  -28.8955  -23.9444   17.0645 C   0  0  0  0  0  0  0  0  0  0  0  0
  -28.7648  -25.4578   16.8795 C   0  0  0  0  0  0  0  0  0  0  0  0
  -31.9599  -24.0611   17.3818 C   0  0  0  0  0  0  0  0  0  0  0  0
  -30.0693  -23.5052   22.6371 C   0  0  0  0  0  0  0  0  0  0  0  0
  -27.9739  -26.1360   17.9921 C   0  0  0  0  0  0  0  0  0  1  0  0
  -26.9421  -29.1190   24.6860 C   0  0  1  0  0  0  0  0  0  0  0  0
  -30.0279  -27.4461   26.1175 C   0  0  2  0  0  0  0  0  0  0  0  0
  -30.2447  -22.3825   21.5509 C   0  0  1  0  0  0  0  0  0  0  0  0
  -26.6483  -30.6195   24.9678 C   0  0  0  0  0  0  0  0  0  0  0  0
  -26.3414  -16.8129   19.6619 N   0  0  0  0  0  0  0  0  0  0  0  0
  -29.1759  -23.0928   19.4277 N   0  0  0  0  0  0  0  0  0  0  0  0
  -31.4553  -23.2045   19.5838 N   0  0  0  0  0  0  0  0  0  0  0  0
  -26.0794  -18.1123   19.8832 N   0  0  0  0  0  0  0  0  0  0  0  0
  -31.0220  -23.6176   18.3831 N   0  0  0  0  0  0  0  0  0  0  0  0
  -25.3014  -27.5385   23.7195 N   0  0  0  0  0  0  0  0  0  0  0  0
  -29.0079  -20.3350   20.9305 N   0  0  0  0  0  0  0  0  0  0  0  0
  -24.3465  -19.6163   20.4710 N   0  0  0  0  0  0  0  0  0  0  0  0
  -22.2794  -15.6009   20.4523 N   0  0  0  0  0  0  0  0  0  0  0  0
  -21.7050  -27.2777   23.1771 N   0  0  0  0  0  0  0  0  0  0  0  0
  -27.9717  -28.5406   25.5427 N   0  0  0  0  0  0  0  0  0  0  0  0
  -31.2037  -24.4630   22.5947 N   0  3  0  0  0  0  0  0  0  0  0  0
  -30.1721  -25.9669   26.0080 N   0  3  0  0  0  0  0  0  0  0  0  0
  -21.9762  -17.8497   20.7836 O   0  0  0  0  0  0  0  0  0  0  0  0
  -23.3563  -28.8498   22.7033 O   0  0  0  0  0  0  0  0  0  0  0  0
  -25.1558  -28.2031   25.9496 O   0  0  0  0  0  0  0  0  0  0  0  0
  -28.2042  -21.7602   22.5808 O   0  0  0  0  0  0  0  0  0  0  0  0
  -29.3892  -27.8841   23.8290 O   0  0  0  0  0  0  0  0  0  0  0  0
  -24.6390  -10.6875   19.3005 O   0  0  0  0  0  0  0  0  0  0  0  0
  -26.6651  -25.5690   18.0349 O   0  0  0  0  0  0  0  0  0  1  0  0
  -21.8230   -7.9760   23.1893 F   0  0  0  0  0  0  0  0  0  0  0  0
  -25.8422   -8.6973   20.7951 F   0  0  0  0  0  0  0  0  0  0  0  0
  1  2  1  0  0  0  0
  1  5  2  0  0  0  0
  2  6  2  0  0  0  0
  3  8  2  0  0  0  0
  3 15  1  0  0  0  0
  4  9  1  0  0  0  0
  4 15  2  0  0  0  0
  5 17  1  0  0  0  0
  6 19  1  0  0  0  0
  7 10  2  0  0  0  0
  7 18  1  0  0  0  0
  8 21  1  0  0  0  0
  9 21  2  0  0  0  0
 10 22  1  0  0  0  0
 11 12  2  0  0  0  0
 11 23  1  0  0  0  0
 12 24  1  0  0  0  0
 13 20  1  0  0  0  0
 13 22  2  0  0  0  0
 14 24  2  0  0  0  0
 14 25  1  0  0  0  0
 15 26  1  0  0  0  0
 16 26  1  0  0  0  0
 16 27  2  0  0  0  0
 16 30  1  0  0  0  0
 17 19  2  0  0  0  0
 17 35  1  0  0  0  0
 18 20  2  0  0  0  0
 18 36  1  0  0  0  0
 19 44  1  0  0  0  0
 20 37  1  0  0  0  0
 21 81  1  0  0  0  0
 22 82  1  0  0  0  0
 23 25  2  0  0  0  0
 23 81  1  0  0  0  0
 24 83  1  0  0  0  0
 25 84  1  0  0  0  0
 26 63  2  0  0  0  0
 27 66  1  0  0  0  0
 27 70  1  0  0  0  0
 28 61  1  0  0  0  0
 28 64  1  0  0  0  0
 28 65  2  0  0  0  0
 29 54  1  0  0  0  0
 29 64  2  0  0  0  0
 29 67  1  0  0  0  0
 30 71  1  0  0  0  0
 30 76  2  0  0  0  0
 31 45  1  0  0  0  0
 31 72  1  0  0  0  0
 31 77  2  0  0  0  0
 32 59  1  0  0  0  0
 32 68  1  0  0  0  0
 32 78  2  0  0  0  0
 33 61  1  0  0  0  0
 33 69  1  0  0  0  0
 33 79  2  0  0  0  0
 34 60  1  0  0  0  0
 34 73  1  0  0  0  0
 34 80  2  0  0  0  0
 35 38  1  0  0  0  0
 36 45  1  0  0  0  0
 37 68  1  0  0  0  0
 38 40  1  0  0  0  0
 39 41  1  0  0  0  0
 39 42  1  0  0  0  0
 40 44  1  0  0  0  0
 41 46  1  0  0  0  0
 42 69  1  0  0  0  0
 43 46  1  0  0  0  0
 43 69  1  0  0  0  0
 44 72  1  0  0  0  0
 45 68  1  0  0  0  0
 46 66  1  0  0  0  0
 47 56  1  0  0  0  0
 48 60  1  0  0  0  0
 49 61  1  0  0  0  0
 50 62  1  0  0  0  0
 51 62  1  0  0  0  0
 52 62  1  0  0  0  0
 53 75  1  0  0  0  0
 54 55  1  0  0  0  0
 55 58  1  0  0  0  0
 56 67  1  0  0  0  0
 57 61  1  0  0  0  0
 57 74  1  0  0  0  0
 58 82  1  0  0  0  0
 59 62  1  0  0  0  0
 59 73  1  0  0  0  0
 60 75  1  0  0  0  0
 63 66  1  0  0  0  0
 65 67  1  0  0  0  0
M  CHG  2  74   1  75   1
M  ISO  4  33 100  58 101  61 100  82 101
M  END
> <Batch ID>
0059

> <Smiles>
CCn1nc([100C:0](C)(CN)[100C:0](=O)N2CCCC(n3nc(-c4ccc(Oc5ccc(F)cc5F)cc4)c(C(N)=O)c3N)C2)nc1CC[101CH2:1][101O:1]c1ccc2c(c1)CN(C(=O)C(NC(=O)C(C)NC)C(C)(C)C)C(C(=O)NC1CCCc3ccccc31)C2

> <Shape>
0.247

> <Color>
0.072

> <Negative vol penalty>
0.000

$$$$

  -OEChem-04052317533D

 78 86  0     1  0  0  0  0  0999 V2000
  -28.4017  -15.0712   37.1180 C   0  0  0  0  0  0  0  0  0  0  0  0
  -28.8281  -15.5528   35.8844 C   0  0  0  0  0  0  0  0  0  0  0  0
  -23.0639   -9.8751   19.9515 C   0  0  0  0  0  0  0  0  0  0  0  0
  -23.8555   -9.8777   22.2341 C   0  0  0  0  0  0  0  0  0  0  0  0
  -27.3145  -14.2011   37.1874 C   0  0  0  0  0  0  0  0  0  0  0  0
  -28.1683  -15.1635   34.7193 C   0  0  0  0  0  0  0  0  0  0  0  0
  -27.2353  -18.5574   29.7077 C   0  0  0  0  0  0  0  0  0  0  0  0
  -22.3254   -8.7202   20.2089 C   0  0  0  0  0  0  0  0  0  0  0  0
  -23.1169   -8.7228   22.4916 C   0  0  0  0  0  0  0  0  0  0  0  0
  -27.9013  -18.6274   28.4849 C   0  0  0  0  0  0  0  0  0  0  0  0
  -19.3988   -7.9153   21.6989 C   0  0  0  0  0  0  0  0  0  0  0  0
  -18.0854   -7.8682   21.2317 C   0  0  0  0  0  0  0  0  0  0  0  0
  -26.2951  -17.1020   27.5296 C   0  0  0  0  0  0  0  0  0  0  0  0
  -18.6297   -5.9293   19.8971 C   0  0  0  0  0  0  0  0  0  0  0  0
  -29.9969  -19.6225   23.7605 C   0  0  0  0  0  0  0  0  0  0  0  0
  -23.8290  -10.4539   20.9641 C   0  0  0  0  0  0  0  0  0  0  0  0
  -24.1652  -12.9798   20.8455 C   0  0  0  0  0  0  0  0  0  0  0  0
  -26.6350  -13.8085   36.0234 C   0  0  0  0  0  0  0  0  0  0  0  0
  -26.0986  -17.7493   29.8538 C   0  0  0  0  0  0  0  0  0  0  0  0
  -27.0719  -14.2862   34.7730 C   0  0  0  0  0  0  0  0  0  0  0  0
  -25.6150  -17.0255   28.7546 C   0  0  0  0  0  0  0  0  0  0  0  0
  -22.3518   -8.1440   21.4789 C   0  0  0  0  0  0  0  0  0  0  0  0
  -27.4330  -17.8974   27.3964 C   0  0  0  0  0  0  0  0  0  0  0  0
  -20.3277   -6.9695   21.2652 C   0  0  0  0  0  0  0  0  0  0  0  0
  -17.7008   -6.8752   20.3308 C   0  0  0  0  0  0  0  0  0  0  0  0
  -19.9432   -5.9764   20.3643 C   0  0  0  0  0  0  0  0  0  0  0  0
  -24.5926  -11.6466   20.6986 C   0  0  0  0  0  0  0  0  0  0  0  0
  -25.2511  -13.7319   20.4690 C   0  0  0  0  0  0  0  0  0  0  0  0
  -30.6265  -17.8493   22.8569 C   0  0  0  0  0  0  0  0  0  0  0  0
  -22.8999  -13.4926   21.2833 C   0  0  0  0  0  0  0  0  0  0  0  0
  -25.3532  -15.2284   31.6408 C   0  0  0  0  0  0  0  0  0  0  0  0
  -30.7576  -14.6926   20.6803 C   0  0  0  0  0  0  0  0  0  0  0  0
  -22.4121  -15.6694   30.3454 C   0  0  0  0  0  0  0  0  0  0  0  0
  -20.5316  -16.9122   27.7830 C   0  0  0  0  0  0  0  0  0  0  0  0
  -25.4947  -12.8288   36.1440 C   0  0  0  0  0  0  0  0  0  0  0  0
  -25.3759  -17.7055   31.1722 C   0  0  0  0  0  0  0  0  0  0  0  0
  -24.3871  -16.1589   28.8538 C   0  0  0  0  0  0  0  0  0  0  0  0
  -24.6160  -12.7605   34.8977 C   0  0  0  0  0  0  0  0  0  0  0  0
  -29.5619  -12.4003   18.1994 C   0  0  0  0  0  0  0  0  0  0  0  0
  -25.4769  -12.6668   33.6419 C   0  0  0  0  0  0  0  0  0  0  0  0
  -28.1382  -12.0861   18.6572 C   0  0  0  0  0  0  0  0  0  0  0  0
  -30.4986  -12.6015   19.3864 C   0  0  0  0  0  0  0  0  0  0  0  0
  -28.6138  -13.3298   20.8142 C   0  0  0  0  0  0  0  0  0  0  0  0
  -26.3664  -13.9065   33.4892 C   0  0  1  0  0  0  0  0  0  0  0  0
  -24.5280  -16.4494   31.3474 C   0  0  1  0  0  0  0  0  0  0  0  0
  -27.6283  -13.1495   19.6460 C   0  0  2  0  0  0  0  0  0  0  0  0
  -18.1587  -17.0860   26.9851 C   0  0  0  0  0  0  0  0  0  0  0  0
  -22.4894  -12.7428   29.4858 C   0  0  0  0  0  0  0  0  0  0  0  0
  -20.5975  -13.2256   27.9186 C   0  0  0  0  0  0  0  0  0  0  0  0
  -20.2822  -13.5105   30.3767 C   0  0  0  0  0  0  0  0  0  0  0  0
  -20.5997  -19.8699   27.8611 C   0  0  0  0  0  0  0  0  0  0  0  0
  -31.1341  -16.8283   21.9447 C   0  0  0  0  0  0  0  0  0  0  0  0
  -30.1411  -15.6834   21.6355 C   0  0  0  0  0  0  0  0  0  0  0  0
  -29.2390  -18.8007   26.1274 C   0  0  0  0  0  0  0  0  0  1  0  0
  -21.7034  -15.1730   29.1084 C   0  0  1  0  0  0  0  0  0  0  0  0
  -19.2703  -17.7570   27.7768 C   0  0  2  0  0  0  0  0  0  0  0  0
  -21.2924  -13.6777   29.2207 C   0  0  0  0  0  0  0  0  0  0  0  0
  -30.5146  -19.1311   22.5964 N   0  0  0  0  0  0  0  0  0  0  0  0
  -25.8517  -11.5538   20.2626 N   0  0  0  0  0  0  0  0  0  0  0  0
  -30.1924  -17.5997   24.1215 N   0  0  0  0  0  0  0  0  0  0  0  0
  -29.7816  -18.7254   24.7250 N   0  0  0  0  0  0  0  0  0  0  0  0
  -26.2248  -12.8383   20.1322 N   0  0  0  0  0  0  0  0  0  0  0  0
  -23.7190  -16.1442   30.1656 N   0  0  0  0  0  0  0  0  0  0  0  0
  -29.9681  -13.6027   20.3134 N   0  0  0  0  0  0  0  0  0  0  0  0
  -25.4584  -15.0639   20.3963 N   0  0  0  0  0  0  0  0  0  0  0  0
  -21.8941  -12.5810   21.6323 N   0  0  0  0  0  0  0  0  0  0  0  0
  -25.5954  -15.0229   32.9856 N   0  0  0  0  0  0  0  0  0  0  0  0
  -20.5864  -16.0845   28.8844 N   0  0  0  0  0  0  0  0  0  0  0  0
  -19.5426  -19.0897   27.1678 N   0  3  0  0  0  0  0  0  0  0  0  0
  -22.6625  -14.7227   21.3469 O   0  0  0  0  0  0  0  0  0  0  0  0
  -25.7402  -14.5242   30.7156 O   0  0  0  0  0  0  0  0  0  0  0  0
  -31.9056  -14.8850   20.2713 O   0  0  0  0  0  0  0  0  0  0  0  0
  -21.8251  -15.6438   31.4301 O   0  0  0  0  0  0  0  0  0  0  0  0
  -21.3812  -16.9772   26.8973 O   0  0  0  0  0  0  0  0  0  0  0  0
  -21.6311   -7.0172   21.7305 O   0  0  0  0  0  0  0  0  0  0  0  0
  -28.0816  -17.9635   26.2019 O   0  0  0  0  0  0  0  0  0  1  0  0
  -16.4391   -6.8291   19.8834 F   0  0  0  0  0  0  0  0  0  0  0  0
  -20.8308   -5.0643   19.9449 F   0  0  0  0  0  0  0  0  0  0  0  0
  1  2  1  0  0  0  0
  1  5  2  0  0  0  0
  2  6  2  0  0  0  0
  3  8  2  0  0  0  0
  3 16  1  0  0  0  0
  4  9  1  0  0  0  0
  4 16  2  0  0  0  0
  5 18  1  0  0  0  0
  6 20  1  0  0  0  0
  7 10  2  0  0  0  0
  7 19  1  0  0  0  0
  8 22  1  0  0  0  0
  9 22  2  0  0  0  0
 10 23  1  0  0  0  0
 11 12  2  0  0  0  0
 11 24  1  0  0  0  0
 12 25  1  0  0  0  0
 13 21  1  0  0  0  0
 13 23  2  0  0  0  0
 14 25  2  0  0  0  0
 14 26  1  0  0  0  0
 15 58  2  0  0  0  0
 15 61  1  0  0  0  0
 16 27  1  0  0  0  0
 17 27  1  0  0  0  0
 17 28  2  0  0  0  0
 17 30  1  0  0  0  0
 18 20  2  0  0  0  0
 18 35  1  0  0  0  0
 19 21  2  0  0  0  0
 19 36  1  0  0  0  0
 20 44  1  0  0  0  0
 21 37  1  0  0  0  0
 22 75  1  0  0  0  0
 23 76  1  0  0  0  0
 24 26  2  0  0  0  0
 24 75  1  0  0  0  0
 25 77  1  0  0  0  0
 26 78  1  0  0  0  0
 27 59  2  0  0  0  0
 28 62  1  0  0  0  0
 28 65  1  0  0  0  0
 29 52  1  0  0  0  0
 29 58  1  0  0  0  0
 29 60  2  0  0  0  0
 30 66  1  0  0  0  0
 30 70  2  0  0  0  0
 31 45  1  0  0  0  0
 31 67  1  0  0  0  0
 31 71  2  0  0  0  0
 32 53  1  0  0  0  0
 32 64  1  0  0  0  0
 32 72  2  0  0  0  0
 33 55  1  0  0  0  0
 33 63  1  0  0  0  0
 33 73  2  0  0  0  0
 34 56  1  0  0  0  0
 34 68  1  0  0  0  0
 34 74  2  0  0  0  0
 35 38  1  0  0  0  0
 36 45  1  0  0  0  0
 37 63  1  0  0  0  0
 38 40  1  0  0  0  0
 39 41  1  0  0  0  0
 39 42  1  0  0  0  0
 40 44  1  0  0  0  0
 41 46  1  0  0  0  0
 42 64  1  0  0  0  0
 43 46  1  0  0  0  0
 43 64  1  0  0  0  0
 44 67  1  0  0  0  0
 45 63  1  0  0  0  0
 46 62  1  0  0  0  0
 47 56  1  0  0  0  0
 48 57  1  0  0  0  0
 49 57  1  0  0  0  0
 50 57  1  0  0  0  0
 51 69  1  0  0  0  0
 52 53  1  0  0  0  0
 54 61  1  0  0  0  0
 54 76  1  0  0  0  0
 55 57  1  0  0  0  0
 55 68  1  0  0  0  0
 56 69  1  0  0  0  0
 59 62  1  0  0  0  0
 60 61  1  0  0  0  0
M  CHG  1  69   1
M  ISO  4  32 100  53 100  54 101  76 101
M  END
> <Batch ID>
0059

> <Smiles>
CNC(C)C(=O)NC(C(=O)N1Cc2cc([101O:1][101CH2:1]n3cnc(C[100CH2:0][100C:0](=O)N4CCCC(n5nc(-c6ccc(Oc7ccc(F)cc7F)cc6)c(C(N)=O)c5N)C4)n3)ccc2CC1C(=O)NC1CCCc2ccccc21)C(C)(C)C

> <Shape>
0.149

> <Color>
0.194

> <Negative vol penalty>
0.000

$$$$

  -OEChem-04052317533D

 80 88  0     1  0  0  0  0  0999 V2000
  -17.7572  -30.1001   24.8305 C   0  0  0  0  0  0  0  0  0  0  0  0
  -18.6904  -29.1057   25.1060 C   0  0  0  0  0  0  0  0  0  0  0  0
  -23.8319   -9.8949   22.4104 C   0  0  0  0  0  0  0  0  0  0  0  0
  -24.4647  -11.6016   23.9990 C   0  0  0  0  0  0  0  0  0  0  0  0
  -17.5243  -30.4899   23.5123 C   0  0  0  0  0  0  0  0  0  0  0  0
  -19.3904  -28.4998   24.0632 C   0  0  0  0  0  0  0  0  0  0  0  0
  -25.7685  -25.6049   22.5613 C   0  0  0  0  0  0  0  0  0  0  0  0
  -23.3720   -9.0931   23.4550 C   0  0  0  0  0  0  0  0  0  0  0  0
  -24.0048  -10.7998   25.0437 C   0  0  0  0  0  0  0  0  0  0  0  0
  -26.3257  -24.4401   22.0355 C   0  0  0  0  0  0  0  0  0  0  0  0
  -20.6344   -8.9037   25.4305 C   0  0  0  0  0  0  0  0  0  0  0  0
  -19.3989   -8.2765   25.2707 C   0  0  0  0  0  0  0  0  0  0  0  0
  -25.8979  -25.2500   19.8039 C   0  0  0  0  0  0  0  0  0  0  0  0
  -20.4618   -6.1205   25.5138 C   0  0  0  0  0  0  0  0  0  0  0  0
  -27.1756  -20.0829   19.6972 C   0  0  0  0  0  0  0  0  0  0  0  0
  -29.8324  -19.8508   19.5741 C   0  0  0  0  0  0  0  0  0  0  0  0
  -24.3783  -11.1492   22.6824 C   0  0  0  0  0  0  0  0  0  0  0  0
  -24.1170  -12.9300   20.8746 C   0  0  0  0  0  0  0  0  0  0  0  0
  -18.2287  -29.8952   22.4536 C   0  0  0  0  0  0  0  0  0  0  0  0
  -25.2611  -26.5979   21.7111 C   0  0  0  0  0  0  0  0  0  0  0  0
  -19.1657  -28.8811   22.7295 C   0  0  0  0  0  0  0  0  0  0  0  0
  -25.3371  -26.4276   20.3213 C   0  0  0  0  0  0  0  0  0  0  0  0
  -23.4584   -9.5456   24.7716 C   0  0  0  0  0  0  0  0  0  0  0  0
  -26.3878  -24.2612   20.6567 C   0  0  0  0  0  0  0  0  0  0  0  0
  -21.7837   -8.1393   25.6319 C   0  0  0  0  0  0  0  0  0  0  0  0
  -19.3125   -6.8849   25.3124 C   0  0  0  0  0  0  0  0  0  0  0  0
  -21.6974   -6.7477   25.6736 C   0  0  0  0  0  0  0  0  0  0  0  0
  -24.8540  -11.9777   21.6038 C   0  0  0  0  0  0  0  0  0  0  0  0
  -27.9986  -21.0001   20.3128 C   0  0  0  0  0  0  0  0  0  0  0  0
  -29.0095  -18.9331   18.9591 C   0  0  0  0  0  0  0  0  0  0  0  0
  -25.0157  -13.4402   19.9698 C   0  0  0  0  0  0  0  0  0  0  0  0
  -22.7430  -13.3188   21.0037 C   0  0  0  0  0  0  0  0  0  0  0  0
  -22.3990  -27.8967   21.2364 C   0  0  0  0  0  0  0  0  0  0  0  0
  -24.0536  -29.8727   19.2666 C   0  0  0  0  0  0  0  0  0  0  0  0
  -26.8113  -30.3805   17.3214 C   0  0  0  0  0  0  0  0  0  0  0  0
  -30.0876  -15.4115   18.7309 C   0  0  0  0  0  0  0  0  0  0  0  0
  -17.9086  -30.3166   21.0413 C   0  0  0  0  0  0  0  0  0  0  0  0
  -24.6875  -27.8605   22.2935 C   0  0  0  0  0  0  0  0  0  0  0  0
  -24.8249  -27.4725   19.3652 C   0  0  0  0  0  0  0  0  0  0  0  0
  -18.9629  -29.8879   20.0239 C   0  0  0  0  0  0  0  0  0  0  0  0
  -29.6557  -11.8775   18.6994 C   0  0  0  0  0  0  0  0  0  0  0  0
  -19.3488  -28.4277   20.2382 C   0  0  0  0  0  0  0  0  0  0  0  0
  -28.3109  -11.6671   19.3973 C   0  0  0  0  0  0  0  0  0  0  0  0
  -30.4396  -13.0314   19.3207 C   0  0  0  0  0  0  0  0  0  0  0  0
  -28.3585  -14.0963   20.1010 C   0  0  0  0  0  0  0  0  0  0  0  0
  -19.9628  -28.2176   21.6275 C   0  0  1  0  0  0  0  0  0  0  0  0
  -23.7341  -28.5778   21.3428 C   0  0  1  0  0  0  0  0  0  0  0  0
  -27.5073  -12.9792   19.4734 C   0  0  2  0  0  0  0  0  0  0  0  0
  -29.1866  -17.7789   16.7234 C   0  0  0  0  0  0  0  0  0  0  0  0
  -27.8667  -32.0786   15.8048 C   0  0  0  0  0  0  0  0  0  0  0  0
  -22.0658  -29.1426   17.0698 C   0  0  0  0  0  0  0  0  0  0  0  0
  -23.6778  -30.0763   15.3972 C   0  0  0  0  0  0  0  0  0  0  0  0
  -22.6962  -31.5616   17.1445 C   0  0  0  0  0  0  0  0  0  0  0  0
  -29.2025  -30.6092   19.0502 C   0  0  0  0  0  0  0  0  0  0  0  0
  -27.4172  -22.1575   21.0703 C   0  0  0  0  0  0  0  0  0  1  0  0
  -29.5864  -17.7850   18.2072 C   0  0  2  0  0  0  0  0  0  0  0  0
  -24.4366  -29.8514   17.8065 C   0  0  1  0  0  0  0  0  0  0  0  0
  -27.7764  -31.5484   17.2273 C   0  0  2  0  0  0  0  0  0  0  0  0
  -23.2271  -30.1373   16.8723 C   0  0  0  0  0  0  0  0  0  0  0  0
  -29.3417  -20.9007   20.2621 N   0  0  0  0  0  0  0  0  0  0  0  0
  -27.6663  -19.0327   19.0095 N   0  0  0  0  0  0  0  0  0  0  0  0
  -26.1230  -11.8863   21.1973 N   0  0  0  0  0  0  0  0  0  0  0  0
  -26.1904  -12.7876   20.2028 N   0  0  0  0  0  0  0  0  0  0  0  0
  -24.2673  -28.6868   19.9834 N   0  0  0  0  0  0  0  0  0  0  0  0
  -29.6218  -14.2461   19.3617 N   0  0  0  0  0  0  0  0  0  0  0  0
  -24.9076  -14.3788   19.0056 N   0  0  0  0  0  0  0  0  0  0  0  0
  -21.9613  -12.6941   21.9851 N   0  0  0  0  0  0  0  0  0  0  0  0
  -21.3352  -28.6765   21.6483 N   0  0  0  0  0  0  0  0  0  0  0  0
  -25.5404  -30.7942   17.6603 N   0  0  0  0  0  0  0  0  0  0  0  0
  -29.2482  -16.5159   18.8119 N   0  0  0  0  0  0  0  0  0  0  0  0
  -29.1397  -31.1301   17.6603 N   0  3  0  0  0  0  0  0  0  0  0  0
  -22.2196  -14.1824   20.2596 O   0  0  0  0  0  0  0  0  0  0  0  0
  -22.3383  -26.7492   20.8107 O   0  0  0  0  0  0  0  0  0  0  0  0
  -23.5887  -30.9057   19.7549 O   0  0  0  0  0  0  0  0  0  0  0  0
  -27.1501  -29.2179   17.1113 O   0  0  0  0  0  0  0  0  0  0  0  0
  -31.1688  -15.4624   18.1348 O   0  0  0  0  0  0  0  0  0  0  0  0
  -23.0096   -8.7635   25.7912 O   0  0  0  0  0  0  0  0  0  0  0  0
  -26.9306  -23.1249   20.1408 O   0  0  0  0  0  0  0  0  0  1  0  0
  -18.1257   -6.2828   25.1605 F   0  0  0  0  0  0  0  0  0  0  0  0
  -22.7979   -6.0082   25.8679 F   0  0  0  0  0  0  0  0  0  0  0  0
  1  2  1  0  0  0  0
  1  5  2  0  0  0  0
  2  6  2  0  0  0  0
  3  8  2  0  0  0  0
  3 17  1  0  0  0  0
  4  9  1  0  0  0  0
  4 17  2  0  0  0  0
  5 19  1  0  0  0  0
  6 21  1  0  0  0  0
  7 10  2  0  0  0  0
  7 20  1  0  0  0  0
  8 23  1  0  0  0  0
  9 23  2  0  0  0  0
 10 24  1  0  0  0  0
 11 12  2  0  0  0  0
 11 25  1  0  0  0  0
 12 26  1  0  0  0  0
 13 22  1  0  0  0  0
 13 24  2  0  0  0  0
 14 26  2  0  0  0  0
 14 27  1  0  0  0  0
 15 29  1  0  0  0  0
 15 61  2  0  0  0  0
 16 30  2  0  0  0  0
 16 60  1  0  0  0  0
 17 28  1  0  0  0  0
 18 28  1  0  0  0  0
 18 31  2  0  0  0  0
 18 32  1  0  0  0  0
 19 21  2  0  0  0  0
 19 37  1  0  0  0  0
 20 22  2  0  0  0  0
 20 38  1  0  0  0  0
 21 46  1  0  0  0  0
 22 39  1  0  0  0  0
 23 77  1  0  0  0  0
 24 78  1  0  0  0  0
 25 27  2  0  0  0  0
 25 77  1  0  0  0  0
 26 79  1  0  0  0  0
 27 80  1  0  0  0  0
 28 62  2  0  0  0  0
 29 55  1  0  0  0  0
 29 60  2  0  0  0  0
 30 56  1  0  0  0  0
 30 61  1  0  0  0  0
 31 63  1  0  0  0  0
 31 66  1  0  0  0  0
 32 67  1  0  0  0  0
 32 72  2  0  0  0  0
 33 47  1  0  0  0  0
 33 68  1  0  0  0  0
 33 73  2  0  0  0  0
 34 57  1  0  0  0  0
 34 64  1  0  0  0  0
 34 74  2  0  0  0  0
 35 58  1  0  0  0  0
 35 69  1  0  0  0  0
 35 75  2  0  0  0  0
 36 65  1  0  0  0  0
 36 70  1  0  0  0  0
 36 76  2  0  0  0  0
 37 40  1  0  0  0  0
 38 47  1  0  0  0  0
 39 64  1  0  0  0  0
 40 42  1  0  0  0  0
 41 43  1  0  0  0  0
 41 44  1  0  0  0  0
 42 46  1  0  0  0  0
 43 48  1  0  0  0  0
 44 65  1  0  0  0  0
 45 48  1  0  0  0  0
 45 65  1  0  0  0  0
 46 68  1  0  0  0  0
 47 64  1  0  0  0  0
 48 63  1  0  0  0  0
 49 56  1  0  0  0  0
 50 58  1  0  0  0  0
 51 59  1  0  0  0  0
 52 59  1  0  0  0  0
 53 59  1  0  0  0  0
 54 71  1  0  0  0  0
 55 78  1  0  0  0  0
 56 70  1  0  0  0  0
 57 59  1  0  0  0  0
 57 69  1  0  0  0  0
 58 71  1  0  0  0  0
 62 63  1  0  0  0  0
M  CHG  1  71   1
M  ISO  4  36 100  55 101  70 100  78 101
M  END
> <Batch ID>
0059

> <Smiles>
CNC(C)C(=O)NC(C(=O)N1Cc2cc([101O:1][101CH2:1]c3cnc(C(C)[100NH:0][100C:0](=O)N4CCCC(n5nc(-c6ccc(Oc7ccc(F)cc7F)cc6)c(C(N)=O)c5N)C4)cn3)ccc2CC1C(=O)NC1CCCc2ccccc21)C(C)(C)C

> <Shape>
0.225

> <Color>
0.123

> <Negative vol penalty>
0.000

$$$$

  -OEChem-04052317533D

 80 88  0     1  0  0  0  0  0999 V2000
  -20.3917  -25.2582   25.1236 C   0  0  0  0  0  0  0  0  0  0  0  0
  -21.4659  -25.2100   24.2408 C   0  0  0  0  0  0  0  0  0  0  0  0
  -28.5991  -13.6657   18.7100 C   0  0  0  0  0  0  0  0  0  0  0  0
  -28.4583  -12.3166   20.7093 C   0  0  0  0  0  0  0  0  0  0  0  0
  -19.3551  -26.1656   24.9093 C   0  0  0  0  0  0  0  0  0  0  0  0
  -21.5035  -26.0684   23.1426 C   0  0  0  0  0  0  0  0  0  0  0  0
  -26.0527  -28.1967   22.4951 C   0  0  0  0  0  0  0  0  0  0  0  0
  -29.6584  -12.8807   18.2548 C   0  0  0  0  0  0  0  0  0  0  0  0
  -29.5176  -11.5315   20.2541 C   0  0  0  0  0  0  0  0  0  0  0  0
  -27.0445  -27.4129   21.9072 C   0  0  0  0  0  0  0  0  0  0  0  0
  -32.4193   -9.3935   19.7862 C   0  0  0  0  0  0  0  0  0  0  0  0
  -33.4257   -9.0715   20.6968 C   0  0  0  0  0  0  0  0  0  0  0  0
  -26.6439  -28.5026   19.7927 C   0  0  0  0  0  0  0  0  0  0  0  0
  -33.8956  -11.4209   21.0082 C   0  0  0  0  0  0  0  0  0  0  0  0
  -28.7883  -23.6846   20.2972 C   0  0  0  0  0  0  0  0  0  0  0  0
  -26.7686  -22.3044   19.2279 C   0  0  0  0  0  0  0  0  0  0  0  0
  -27.9991  -13.3837   19.9373 C   0  0  0  0  0  0  0  0  0  0  0  0
  -25.5324  -13.9896   20.1735 C   0  0  0  0  0  0  0  0  0  0  0  0
  -19.3846  -27.0422   23.8133 C   0  0  0  0  0  0  0  0  0  0  0  0
  -25.3403  -29.1334   21.7325 C   0  0  0  0  0  0  0  0  0  0  0  0
  -20.4655  -26.9874   22.9127 C   0  0  0  0  0  0  0  0  0  0  0  0
  -25.6453  -29.2989   20.3739 C   0  0  0  0  0  0  0  0  0  0  0  0
  -30.1177  -11.8136   19.0269 C   0  0  0  0  0  0  0  0  0  0  0  0
  -27.3383  -27.5637   20.5552 C   0  0  0  0  0  0  0  0  0  0  0  0
  -32.1511  -10.7292   19.4865 C   0  0  0  0  0  0  0  0  0  0  0  0
  -34.1638  -10.0852   21.3078 C   0  0  0  0  0  0  0  0  0  0  0  0
  -32.8893  -11.7428   20.0975 C   0  0  0  0  0  0  0  0  0  0  0  0
  -26.9052  -14.1946   20.4083 C   0  0  0  0  0  0  0  0  0  0  0  0
  -28.2771  -24.0150   19.0615 C   0  0  0  0  0  0  0  0  0  0  0  0
  -27.2801  -21.9735   20.4634 C   0  0  0  0  0  0  0  0  0  0  0  0
  -24.9133  -15.0252   20.8298 C   0  0  0  0  0  0  0  0  0  0  0  0
  -24.8755  -12.9554   19.4288 C   0  0  0  0  0  0  0  0  0  0  0  0
  -22.2884  -29.5184   20.9318 C   0  0  0  0  0  0  0  0  0  0  0  0
  -23.3780  -32.2940   19.6546 C   0  0  0  0  0  0  0  0  0  0  0  0
  -26.0034  -34.0623   18.3789 C   0  0  0  0  0  0  0  0  0  0  0  0
  -27.1780  -20.4692   22.4437 C   0  0  0  0  0  0  0  0  0  0  0  0
  -18.2180  -27.9732   23.5966 C   0  0  0  0  0  0  0  0  0  0  0  0
  -24.2919  -29.9900   22.3877 C   0  0  0  0  0  0  0  0  0  0  0  0
  -24.9235  -30.3046   19.5160 C   0  0  0  0  0  0  0  0  0  0  0  0
  -18.5163  -29.1060   22.6179 C   0  0  0  0  0  0  0  0  0  0  0  0
  -25.4582  -17.9752   24.5491 C   0  0  0  0  0  0  0  0  0  0  0  0
  -19.2092  -28.5656   21.3710 C   0  0  0  0  0  0  0  0  0  0  0  0
  -25.5790  -16.6937   23.7263 C   0  0  0  0  0  0  0  0  0  0  0  0
  -26.6282  -18.9220   24.2986 C   0  0  0  0  0  0  0  0  0  0  0  0
  -26.9557  -17.9715   22.0360 C   0  0  0  0  0  0  0  0  0  0  0  0
  -20.5544  -27.9194   21.7237 C   0  0  1  0  0  0  0  0  0  0  0  0
  -23.2750  -30.5511   21.3985 C   0  0  1  0  0  0  0  0  0  0  0  0
  -25.7695  -17.0156   22.2340 C   0  0  1  0  0  0  0  0  0  0  0  0
  -26.5775  -36.2925   17.3819 C   0  0  0  0  0  0  0  0  0  0  0  0
  -22.0656  -31.4561   17.0306 C   0  0  0  0  0  0  0  0  0  0  0  0
  -23.4442  -33.1925   15.8674 C   0  0  0  0  0  0  0  0  0  0  0  0
  -21.7926  -33.8740   17.6081 C   0  0  0  0  0  0  0  0  0  0  0  0
  -25.4455  -20.2863   20.6732 C   0  0  0  0  0  0  0  0  0  0  0  0
  -27.9249  -34.6670   20.5471 C   0  0  0  0  0  0  0  0  0  0  0  0
  -28.8502  -25.1720   18.2796 C   0  0  0  0  0  0  0  0  0  0  0  0
  -28.1489  -26.4888   18.5947 C   0  0  0  0  0  0  0  0  0  1  0  0
  -23.9244  -32.7104   18.3103 C   0  0  1  0  0  0  0  0  0  0  0  0
  -26.5010  -35.4690   18.6581 C   0  0  2  0  0  0  0  0  0  0  0  0
  -22.8192  -32.7879   17.2196 C   0  0  0  0  0  0  0  0  0  0  0  0
  -27.2579  -23.3311   18.5048 N   0  0  0  0  0  0  0  0  0  0  0  0
  -28.2992  -22.6577   21.0202 N   0  0  0  0  0  0  0  0  0  0  0  0
  -27.1447  -15.2757   21.1553 N   0  0  0  0  0  0  0  0  0  0  0  0
  -25.9140  -15.7592   21.3954 N   0  0  0  0  0  0  0  0  0  0  0  0
  -23.9024  -31.1141   20.2012 N   0  0  0  0  0  0  0  0  0  0  0  0
  -26.8158  -19.1754   22.8696 N   0  0  0  0  0  0  0  0  0  0  0  0
  -23.6161  -15.3705   20.9723 N   0  0  0  0  0  0  0  0  0  0  0  0
  -25.6621  -11.9693   18.8179 N   0  0  0  0  0  0  0  0  0  0  0  0
  -21.5593  -28.9358   21.9508 N   0  0  0  0  0  0  0  0  0  0  0  0
  -24.6363  -33.9648   18.5298 N   0  0  0  0  0  0  0  0  0  0  0  0
  -26.6993  -20.8589   21.1741 N   0  0  0  0  0  0  0  0  0  0  0  0
  -27.8585  -35.4259   19.2717 N   0  3  0  0  0  0  0  0  0  0  0  0
  -23.6288  -12.9163   19.2949 O   0  0  0  0  0  0  0  0  0  0  0  0
  -22.1945  -29.2697   19.7355 O   0  0  0  0  0  0  0  0  0  0  0  0
  -22.5229  -32.9938   20.2029 O   0  0  0  0  0  0  0  0  0  0  0  0
  -26.7521  -33.1428   18.0553 O   0  0  0  0  0  0  0  0  0  0  0  0
  -27.8502  -21.2257   23.1546 O   0  0  0  0  0  0  0  0  0  0  0  0
  -31.1512  -11.0472   18.5829 O   0  0  0  0  0  0  0  0  0  0  0  0
  -28.3054  -26.7994   19.9787 O   0  0  0  0  0  0  0  0  0  1  0  0
  -35.1292   -9.7759   22.1834 F   0  0  0  0  0  0  0  0  0  0  0  0
  -32.6354  -13.0278   19.8145 F   0  0  0  0  0  0  0  0  0  0  0  0
  1  2  1  0  0  0  0
  1  5  2  0  0  0  0
  2  6  2  0  0  0  0
  3  8  2  0  0  0  0
  3 17  1  0  0  0  0
  4  9  1  0  0  0  0
  4 17  2  0  0  0  0
  5 19  1  0  0  0  0
  6 21  1  0  0  0  0
  7 10  2  0  0  0  0
  7 20  1  0  0  0  0
  8 23  1  0  0  0  0
  9 23  2  0  0  0  0
 10 24  1  0  0  0  0
 11 12  2  0  0  0  0
 11 25  1  0  0  0  0
 12 26  1  0  0  0  0
 13 22  1  0  0  0  0
 13 24  2  0  0  0  0
 14 26  2  0  0  0  0
 14 27  1  0  0  0  0
 15 29  1  0  0  0  0
 15 61  2  0  0  0  0
 16 30  2  0  0  0  0
 16 60  1  0  0  0  0
 17 28  1  0  0  0  0
 18 28  1  0  0  0  0
 18 31  2  0  0  0  0
 18 32  1  0  0  0  0
 19 21  2  0  0  0  0
 19 37  1  0  0  0  0
 20 22  2  0  0  0  0
 20 38  1  0  0  0  0
 21 46  1  0  0  0  0
 22 39  1  0  0  0  0
 23 77  1  0  0  0  0
 24 78  1  0  0  0  0
 25 27  2  0  0  0  0
 25 77  1  0  0  0  0
 26 79  1  0  0  0  0
 27 80  1  0  0  0  0
 28 62  2  0  0  0  0
 29 55  1  0  0  0  0
 29 60  2  0  0  0  0
 30 61  1  0  0  0  0
 30 70  1  0  0  0  0
 31 63  1  0  0  0  0
 31 66  1  0  0  0  0
 32 67  1  0  0  0  0
 32 72  2  0  0  0  0
 33 47  1  0  0  0  0
 33 68  1  0  0  0  0
 33 73  2  0  0  0  0
 34 57  1  0  0  0  0
 34 64  1  0  0  0  0
 34 74  2  0  0  0  0
 35 58  1  0  0  0  0
 35 69  1  0  0  0  0
 35 75  2  0  0  0  0
 36 65  1  0  0  0  0
 36 70  1  0  0  0  0
 36 76  2  0  0  0  0
 37 40  1  0  0  0  0
 38 47  1  0  0  0  0
 39 64  1  0  0  0  0
 40 42  1  0  0  0  0
 41 43  1  0  0  0  0
 41 44  1  0  0  0  0
 42 46  1  0  0  0  0
 43 48  1  0  0  0  0
 44 65  1  0  0  0  0
 45 48  1  0  0  0  0
 45 65  1  0  0  0  0
 46 68  1  0  0  0  0
 47 64  1  0  0  0  0
 48 63  1  0  0  0  0
 49 58  1  0  0  0  0
 50 59  1  0  0  0  0
 51 59  1  0  0  0  0
 52 59  1  0  0  0  0
 53 70  1  0  0  0  0
 54 71  1  0  0  0  0
 55 56  1  0  0  0  0
 56 78  1  0  0  0  0
 57 59  1  0  0  0  0
 57 69  1  0  0  0  0
 58 71  1  0  0  0  0
 62 63  1  0  0  0  0
M  CHG  1  71   1
M  ISO  4  36 100  56 101  70 100  78 101
M  END
> <Batch ID>
0059

> <Smiles>
CNC(C)C(=O)NC(C(=O)N1Cc2cc([101O:1][101CH2:1]Cc3cnc([100N:0](C)[100C:0](=O)N4CCCC(n5nc(-c6ccc(Oc7ccc(F)cc7F)cc6)c(C(N)=O)c5N)C4)cn3)ccc2CC1C(=O)NC1CCCc2ccccc21)C(C)(C)C

> <Shape>
0.210

> <Color>
0.102

> <Negative vol penalty>
0.000

$$$$

  -OEChem-04052317533D

 82 90  0     1  0  0  0  0  0999 V2000
  -33.4699  -19.4788   27.1703 C   0  0  0  0  0  0  0  0  0  0  0  0
  -32.6720  -19.6863   26.0497 C   0  0  0  0  0  0  0  0  0  0  0  0
  -23.0967   -9.8267   20.0453 C   0  0  0  0  0  0  0  0  0  0  0  0
  -23.8758   -9.9540   22.3287 C   0  0  0  0  0  0  0  0  0  0  0  0
  -33.4032  -20.3638   28.2456 C   0  0  0  0  0  0  0  0  0  0  0  0
  -31.8061  -20.7784   26.0042 C   0  0  0  0  0  0  0  0  0  0  0  0
  -31.9656  -23.2007   21.5599 C   0  0  0  0  0  0  0  0  0  0  0  0
  -22.3828   -8.6687   20.3535 C   0  0  0  0  0  0  0  0  0  0  0  0
  -23.1619   -8.7960   22.6369 C   0  0  0  0  0  0  0  0  0  0  0  0
  -31.2790  -22.6211   20.4939 C   0  0  0  0  0  0  0  0  0  0  0  0
  -19.9591   -7.9501   23.3053 C   0  0  0  0  0  0  0  0  0  0  0  0
  -19.2133   -7.9447   24.4841 C   0  0  0  0  0  0  0  0  0  0  0  0
  -29.4510  -24.1556   20.8448 C   0  0  0  0  0  0  0  0  0  0  0  0
  -20.5071   -6.0719   25.2939 C   0  0  0  0  0  0  0  0  0  0  0  0
  -29.5981  -17.2978   19.4746 C   0  0  0  0  0  0  0  0  0  0  0  0
  -28.1282  -17.4507   21.1094 C   0  0  0  0  0  0  0  0  0  0  0  0
  -23.8432  -10.4694   21.0329 C   0  0  0  0  0  0  0  0  0  0  0  0
  -24.1235  -12.9940   20.7975 C   0  0  0  0  0  0  0  0  0  0  0  0
  -32.5430  -21.4726   28.2093 C   0  0  0  0  0  0  0  0  0  0  0  0
  -31.3944  -24.2567   22.2846 C   0  0  0  0  0  0  0  0  0  0  0  0
  -31.7268  -21.6782   27.0807 C   0  0  0  0  0  0  0  0  0  0  0  0
  -30.1335  -24.7485   21.9180 C   0  0  0  0  0  0  0  0  0  0  0  0
  -22.4154   -8.1533   21.6492 C   0  0  0  0  0  0  0  0  0  0  0  0
  -30.0203  -23.0966   20.1380 C   0  0  0  0  0  0  0  0  0  0  0  0
  -20.9787   -7.0163   23.1208 C   0  0  0  0  0  0  0  0  0  0  0  0
  -19.4873   -7.0057   25.4784 C   0  0  0  0  0  0  0  0  0  0  0  0
  -21.2528   -6.0773   24.1151 C   0  0  0  0  0  0  0  0  0  0  0  0
  -24.5813  -11.6653   20.7151 C   0  0  0  0  0  0  0  0  0  0  0  0
  -28.5959  -18.1879   19.1682 C   0  0  0  0  0  0  0  0  0  0  0  0
  -25.1942  -13.7520   20.3907 C   0  0  0  0  0  0  0  0  0  0  0  0
  -22.8446  -13.4979   21.2053 C   0  0  0  0  0  0  0  0  0  0  0  0
  -30.5061  -24.6810   25.3069 C   0  0  0  0  0  0  0  0  0  0  0  0
  -30.6766  -14.8457   20.5804 C   0  0  0  0  0  0  0  0  0  0  0  0
  -29.9772  -27.7241   24.3159 C   0  0  0  0  0  0  0  0  0  0  0  0
  -29.3179  -29.8572   21.7349 C   0  0  0  0  0  0  0  0  0  0  0  0
  -32.4710  -22.3752   29.4155 C   0  0  0  0  0  0  0  0  0  0  0  0
  -32.1594  -24.8887   23.4150 C   0  0  0  0  0  0  0  0  0  0  0  0
  -29.4851  -25.8934   22.6510 C   0  0  0  0  0  0  0  0  0  0  0  0
  -31.8013  -23.7175   29.1326 C   0  0  0  0  0  0  0  0  0  0  0  0
  -29.5458  -12.4133   18.2046 C   0  0  0  0  0  0  0  0  0  0  0  0
  -30.5115  -23.5149   28.3438 C   0  0  0  0  0  0  0  0  0  0  0  0
  -28.1271  -12.0889   18.6706 C   0  0  0  0  0  0  0  0  0  0  0  0
  -30.4715  -12.6910   19.3849 C   0  0  0  0  0  0  0  0  0  0  0  0
  -28.5632  -13.4425   20.7688 C   0  0  0  0  0  0  0  0  0  0  0  0
  -30.7931  -22.8651   26.9836 C   0  0  1  0  0  0  0  0  0  0  0  0
  -31.2618  -25.6192   24.4090 C   0  0  1  0  0  0  0  0  0  0  0  0
  -27.5882  -13.1856   19.6061 C   0  0  2  0  0  0  0  0  0  0  0  0
  -31.0911  -16.5140   22.3750 C   0  0  0  0  0  0  0  0  0  0  0  0
  -28.9016  -32.2821   21.2406 C   0  0  0  0  0  0  0  0  0  0  0  0
  -29.5397  -18.8007   16.8392 C   0  0  0  0  0  0  0  0  0  0  0  0
  -27.0962  -18.6020   17.2058 C   0  0  0  0  0  0  0  0  0  0  0  0
  -27.1506  -27.4644   25.4353 C   0  0  0  0  0  0  0  0  0  0  0  0
  -26.5117  -29.4844   24.1013 C   0  0  0  0  0  0  0  0  0  0  0  0
  -28.2508  -29.6658   25.8804 C   0  0  0  0  0  0  0  0  0  0  0  0
  -31.6881  -30.0242   19.9704 C   0  0  0  0  0  0  0  0  0  0  0  0
  -28.3378  -20.5449   18.2121 C   0  0  0  0  0  0  0  0  0  0  0  0
  -29.5924  -21.1503   18.8400 C   0  0  0  0  0  0  0  0  0  1  0  0
  -30.0331  -15.8659   21.4854 C   0  0  1  0  0  0  0  0  0  0  0  0
  -28.8038  -28.4670   23.7242 C   0  0  1  0  0  0  0  0  0  0  0  0
  -29.9458  -31.1806   21.3364 C   0  0  2  0  0  0  0  0  0  0  0  0
  -28.4224  -19.0231   17.8867 C   0  0  0  0  0  0  0  0  0  0  0  0
  -27.6903  -28.7475   24.7725 C   0  0  0  0  0  0  0  0  0  0  0  0
  -27.6843  -18.2789   20.1901 N   0  0  0  0  0  0  0  0  0  0  0  0
  -25.8445  -11.5807   20.2894 N   0  0  0  0  0  0  0  0  0  0  0  0
  -29.2850  -16.8340   20.7212 N   0  0  0  0  0  0  0  0  0  0  0  0
  -26.1894  -12.8658   20.1005 N   0  0  0  0  0  0  0  0  0  0  0  0
  -30.2702  -26.4739   23.7529 N   0  0  0  0  0  0  0  0  0  0  0  0
  -29.9137  -13.7222   20.2616 N   0  0  0  0  0  0  0  0  0  0  0  0
  -25.3720  -15.0834   20.2566 N   0  0  0  0  0  0  0  0  0  0  0  0
  -21.8577  -12.5812   21.5923 N   0  0  0  0  0  0  0  0  0  0  0  0
  -31.3135  -23.8444   26.0537 N   0  0  0  0  0  0  0  0  0  0  0  0
  -29.3526  -29.6660   23.1000 N   0  0  0  0  0  0  0  0  0  0  0  0
  -30.6204  -31.0563   20.0133 N   0  3  0  0  0  0  0  0  0  0  0  0
  -22.5795  -14.7240   21.2101 O   0  0  0  0  0  0  0  0  0  0  0  0
  -29.2812  -24.7147   25.3222 O   0  0  0  0  0  0  0  0  0  0  0  0
  -31.8222  -15.0446   20.1678 O   0  0  0  0  0  0  0  0  0  0  0  0
  -30.6148  -28.2374   25.2387 O   0  0  0  0  0  0  0  0  0  0  0  0
  -28.8408  -29.0733   20.9173 O   0  0  0  0  0  0  0  0  0  0  0  0
  -21.7187   -7.0235   21.9503 O   0  0  0  0  0  0  0  0  0  0  0  0
  -29.3477  -22.5323   19.0983 O   0  0  0  0  0  0  0  0  0  1  0  0
  -18.7722   -7.0016   26.6109 F   0  0  0  0  0  0  0  0  0  0  0  0
  -22.2319   -5.1785   23.9441 F   0  0  0  0  0  0  0  0  0  0  0  0
  1  2  1  0  0  0  0
  1  5  2  0  0  0  0
  2  6  2  0  0  0  0
  3  8  2  0  0  0  0
  3 17  1  0  0  0  0
  4  9  1  0  0  0  0
  4 17  2  0  0  0  0
  5 19  1  0  0  0  0
  6 21  1  0  0  0  0
  7 10  2  0  0  0  0
  7 20  1  0  0  0  0
  8 23  1  0  0  0  0
  9 23  2  0  0  0  0
 10 24  1  0  0  0  0
 11 12  2  0  0  0  0
 11 25  1  0  0  0  0
 12 26  1  0  0  0  0
 13 22  1  0  0  0  0
 13 24  2  0  0  0  0
 14 26  2  0  0  0  0
 14 27  1  0  0  0  0
 15 29  2  0  0  0  0
 15 65  1  0  0  0  0
 16 63  2  0  0  0  0
 16 65  1  0  0  0  0
 17 28  1  0  0  0  0
 18 28  1  0  0  0  0
 18 30  2  0  0  0  0
 18 31  1  0  0  0  0
 19 21  2  0  0  0  0
 19 36  1  0  0  0  0
 20 22  2  0  0  0  0
 20 37  1  0  0  0  0
 21 45  1  0  0  0  0
 22 38  1  0  0  0  0
 23 79  1  0  0  0  0
 24 80  1  0  0  0  0
 25 27  2  0  0  0  0
 25 79  1  0  0  0  0
 26 81  1  0  0  0  0
 27 82  1  0  0  0  0
 28 64  2  0  0  0  0
 29 61  1  0  0  0  0
 29 63  1  0  0  0  0
 30 66  1  0  0  0  0
 30 69  1  0  0  0  0
 31 70  1  0  0  0  0
 31 74  2  0  0  0  0
 32 46  1  0  0  0  0
 32 71  1  0  0  0  0
 32 75  2  0  0  0  0
 33 58  1  0  0  0  0
 33 68  1  0  0  0  0
 33 76  2  0  0  0  0
 34 59  1  0  0  0  0
 34 67  1  0  0  0  0
 34 77  2  0  0  0  0
 35 60  1  0  0  0  0
 35 72  1  0  0  0  0
 35 78  2  0  0  0  0
 36 39  1  0  0  0  0
 37 46  1  0  0  0  0
 38 67  1  0  0  0  0
 39 41  1  0  0  0  0
 40 42  1  0  0  0  0
 40 43  1  0  0  0  0
 41 45  1  0  0  0  0
 42 47  1  0  0  0  0
 43 68  1  0  0  0  0
 44 47  1  0  0  0  0
 44 68  1  0  0  0  0
 45 71  1  0  0  0  0
 46 67  1  0  0  0  0
 47 66  1  0  0  0  0
 48 58  1  0  0  0  0
 49 60  1  0  0  0  0
 50 61  1  0  0  0  0
 51 61  1  0  0  0  0
 52 62  1  0  0  0  0
 53 62  1  0  0  0  0
 54 62  1  0  0  0  0
 55 73  1  0  0  0  0
 56 57  1  0  0  0  0
 56 61  1  0  0  0  0
 57 80  1  0  0  0  0
 58 65  1  0  0  0  0
 59 62  1  0  0  0  0
 59 72  1  0  0  0  0
 60 73  1  0  0  0  0
 64 66  1  0  0  0  0
M  CHG  1  73   1
M  ISO  4  33 100  57 101  58 100  80 101
M  END
> <Batch ID>
0059

> <Smiles>
CNC(C)C(=O)NC(C(=O)N1Cc2cc([101O:1][101CH2:1]CC(C)(C)c3cn([100CH:0](C)[100C:0](=O)N4CCCC(n5nc(-c6ccc(Oc7ccc(F)cc7F)cc6)c(C(N)=O)c5N)C4)cn3)ccc2CC1C(=O)NC1CCCc2ccccc21)C(C)(C)C

> <Shape>
0.248

> <Color>
0.204

> <Negative vol penalty>
0.000

$$$$

  -OEChem-04052317533D

 81 89  0     1  0  0  0  0  0999 V2000
  -16.1645  -27.7151   25.1558 C   0  0  0  0  0  0  0  0  0  0  0  0
  -16.8611  -26.5310   25.3749 C   0  0  0  0  0  0  0  0  0  0  0  0
  -22.9787  -10.1317   20.4821 C   0  0  0  0  0  0  0  0  0  0  0  0
  -24.4886   -9.1170   22.0720 C   0  0  0  0  0  0  0  0  0  0  0  0
  -16.5324  -28.5548   24.1053 C   0  0  0  0  0  0  0  0  0  0  0  0
  -17.9255  -26.1854   24.5429 C   0  0  0  0  0  0  0  0  0  0  0  0
  -24.2488  -22.8217   24.6728 C   0  0  0  0  0  0  0  0  0  0  0  0
  -22.2008   -8.9740   20.4819 C   0  0  0  0  0  0  0  0  0  0  0  0
  -23.7105   -7.9592   22.0719 C   0  0  0  0  0  0  0  0  0  0  0  0
  -24.9468  -21.8144   24.0080 C   0  0  0  0  0  0  0  0  0  0  0  0
  -20.8191   -6.9032   23.4664 C   0  0  0  0  0  0  0  0  0  0  0  0
  -20.5265   -6.3208   24.6996 C   0  0  0  0  0  0  0  0  0  0  0  0
  -25.5436  -23.3810   22.2734 C   0  0  0  0  0  0  0  0  0  0  0  0
  -21.6301   -4.2881   24.0014 C   0  0  0  0  0  0  0  0  0  0  0  0
  -27.5583  -17.6369   20.2534 C   0  0  0  0  0  0  0  0  0  0  0  0
  -24.1227  -10.2032   21.2771 C   0  0  0  0  0  0  0  0  0  0  0  0
  -24.7888  -12.5162   22.1220 C   0  0  0  0  0  0  0  0  0  0  0  0
  -17.6079  -28.2241   23.2660 C   0  0  0  0  0  0  0  0  0  0  0  0
  -24.1838  -24.1157   24.1364 C   0  0  0  0  0  0  0  0  0  0  0  0
  -18.3073  -27.0208   23.4795 C   0  0  0  0  0  0  0  0  0  0  0  0
  -24.8463  -24.4035   22.9346 C   0  0  0  0  0  0  0  0  0  0  0  0
  -22.5666   -7.8877   21.2769 C   0  0  0  0  0  0  0  0  0  0  0  0
  -25.5919  -22.0932   22.8067 C   0  0  0  0  0  0  0  0  0  0  0  0
  -21.5171   -6.1780   22.5007 C   0  0  0  0  0  0  0  0  0  0  0  0
  -20.9319   -5.0132   24.9671 C   0  0  0  0  0  0  0  0  0  0  0  0
  -21.9226   -4.8705   22.7682 C   0  0  0  0  0  0  0  0  0  0  0  0
  -24.9271  -11.3986   21.2772 C   0  0  0  0  0  0  0  0  0  0  0  0
  -27.1060  -18.8908   21.9128 C   0  0  0  0  0  0  0  0  0  0  0  0
  -28.3752  -18.4160   22.1461 C   0  0  0  0  0  0  0  0  0  0  0  0
  -25.7855  -13.3731   21.7237 C   0  0  0  0  0  0  0  0  0  0  0  0
  -23.8439  -12.7580   23.1729 C   0  0  0  0  0  0  0  0  0  0  0  0
  -21.8409  -26.0047   23.1134 C   0  0  0  0  0  0  0  0  0  0  0  0
  -24.2345  -28.1781   22.8510 C   0  0  0  0  0  0  0  0  0  0  0  0
  -27.5736  -28.7804   22.4840 C   0  0  0  0  0  0  0  0  0  0  0  0
  -31.2881  -13.8542   20.3793 C   0  0  0  0  0  0  0  0  0  0  0  0
  -17.9386  -29.1402   22.1145 C   0  0  0  0  0  0  0  0  0  0  0  0
  -23.4492  -25.1978   24.8793 C   0  0  0  0  0  0  0  0  0  0  0  0
  -24.8238  -25.7815   22.3270 C   0  0  0  0  0  0  0  0  0  0  0  0
  -19.3163  -28.8846   21.5089 C   0  0  0  0  0  0  0  0  0  0  0  0
  -28.8155  -13.2773   17.6857 C   0  0  0  0  0  0  0  0  0  0  0  0
  -19.5332  -27.3910   21.2873 C   0  0  0  0  0  0  0  0  0  0  0  0
  -27.6000  -12.7615   18.4542 C   0  0  0  0  0  0  0  0  0  0  0  0
  -30.1214  -12.9475   18.4023 C   0  0  0  0  0  0  0  0  0  0  0  0
  -28.9544  -12.9025   20.5818 C   0  0  0  0  0  0  0  0  0  0  0  0
  -19.4833  -26.6235   22.6139 C   0  0  1  0  0  0  0  0  0  0  0  0
  -23.0177  -26.3525   23.9805 C   0  0  1  0  0  0  0  0  0  0  0  0
  -27.6198  -13.2590   19.9100 C   0  0  2  0  0  0  0  0  0  0  0  0
  -29.3222  -18.6437   23.2520 C   0  0  0  0  0  0  0  0  0  0  0  0
  -29.2241  -30.6578   22.2637 C   0  0  0  0  0  0  0  0  0  0  0  0
  -23.3678  -28.5970   19.9556 C   0  0  0  0  0  0  0  0  0  0  0  0
  -25.5673  -29.7154   19.5321 C   0  0  0  0  0  0  0  0  0  0  0  0
  -23.9689  -30.6941   21.1784 C   0  0  0  0  0  0  0  0  0  0  0  0
  -32.3819  -15.3517   22.0043 C   0  0  0  0  0  0  0  0  0  0  0  0
  -28.9924  -27.9775   24.9541 C   0  0  0  0  0  0  0  0  0  0  0  0
  -26.2863  -19.8191   22.7599 C   0  0  0  0  0  0  0  0  0  1  0  0
  -29.8673  -16.8734   20.8360 C   0  0  0  0  0  0  0  0  0  0  0  0
  -29.9516  -15.5858   21.6513 C   0  0  0  0  0  0  0  0  0  0  0  0
  -25.2083  -28.5702   21.7661 C   0  0  1  0  0  0  0  0  0  0  0  0
  -28.5160  -29.7136   23.2227 C   0  0  2  0  0  0  0  0  0  0  0  0
  -24.5271  -29.3676   20.6182 C   0  0  0  0  0  0  0  0  0  0  0  0
  -26.6030  -18.4018   20.7332 N   0  0  0  0  0  0  0  0  0  0  0  0
  -25.9323  -11.5308   20.4077 N   0  0  0  0  0  0  0  0  0  0  0  0
  -28.6511  -17.6139   21.0748 N   0  0  0  0  0  0  0  0  0  0  0  0
  -26.4347  -12.7415   20.7040 N   0  0  0  0  0  0  0  0  0  0  0  0
  -24.0870  -26.8041   23.0879 N   0  0  0  0  0  0  0  0  0  0  0  0
  -30.0966  -13.3929   19.7959 N   0  0  0  0  0  0  0  0  0  0  0  0
  -26.1612  -14.5978   22.1497 N   0  0  0  0  0  0  0  0  0  0  0  0
  -22.8873  -11.7723   23.4512 N   0  0  0  0  0  0  0  0  0  0  0  0
  -20.7246  -26.7872   23.3396 N   0  0  0  0  0  0  0  0  0  0  0  0
  -26.2922  -29.2865   22.4298 N   0  0  0  0  0  0  0  0  0  0  0  0
  -31.1741  -14.8335   21.3776 N   0  0  0  0  0  0  0  0  0  0  0  0
  -29.5482  -28.9307   23.9594 N   0  3  0  0  0  0  0  0  0  0  0  0
  -23.8375  -13.8238   23.8344 O   0  0  0  0  0  0  0  0  0  0  0  0
  -21.9388  -25.0947   22.2985 O   0  0  0  0  0  0  0  0  0  0  0  0
  -23.6325  -29.0587   23.4703 O   0  0  0  0  0  0  0  0  0  0  0  0
  -27.9386  -27.7112   22.0001 O   0  0  0  0  0  0  0  0  0  0  0  0
  -32.3914  -13.4226   20.0211 O   0  0  0  0  0  0  0  0  0  0  0  0
  -21.8076   -6.7580   21.2772 O   0  0  0  0  0  0  0  0  0  0  0  0
  -26.2734  -21.1117   22.1554 O   0  0  0  0  0  0  0  0  0  1  0  0
  -20.6522   -4.4546   26.1520 F   0  0  0  0  0  0  0  0  0  0  0  0
  -22.5946   -4.1693   21.8448 F   0  0  0  0  0  0  0  0  0  0  0  0
  1  2  1  0  0  0  0
  1  5  2  0  0  0  0
  2  6  2  0  0  0  0
  3  8  2  0  0  0  0
  3 16  1  0  0  0  0
  4  9  1  0  0  0  0
  4 16  2  0  0  0  0
  5 18  1  0  0  0  0
  6 20  1  0  0  0  0
  7 10  2  0  0  0  0
  7 19  1  0  0  0  0
  8 22  1  0  0  0  0
  9 22  2  0  0  0  0
 10 23  1  0  0  0  0
 11 12  2  0  0  0  0
 11 24  1  0  0  0  0
 12 25  1  0  0  0  0
 13 21  1  0  0  0  0
 13 23  2  0  0  0  0
 14 25  2  0  0  0  0
 14 26  1  0  0  0  0
 15 61  2  0  0  0  0
 15 63  1  0  0  0  0
 16 27  1  0  0  0  0
 17 27  1  0  0  0  0
 17 30  2  0  0  0  0
 17 31  1  0  0  0  0
 18 20  2  0  0  0  0
 18 36  1  0  0  0  0
 19 21  2  0  0  0  0
 19 37  1  0  0  0  0
 20 45  1  0  0  0  0
 21 38  1  0  0  0  0
 22 78  1  0  0  0  0
 23 79  1  0  0  0  0
 24 26  2  0  0  0  0
 24 78  1  0  0  0  0
 25 80  1  0  0  0  0
 26 81  1  0  0  0  0
 27 62  2  0  0  0  0
 28 29  2  0  0  0  0
 28 55  1  0  0  0  0
 28 61  1  0  0  0  0
 29 48  1  0  0  0  0
 29 63  1  0  0  0  0
 30 64  1  0  0  0  0
 30 67  1  0  0  0  0
 31 68  1  0  0  0  0
 31 73  2  0  0  0  0
 32 46  1  0  0  0  0
 32 69  1  0  0  0  0
 32 74  2  0  0  0  0
 33 58  1  0  0  0  0
 33 65  1  0  0  0  0
 33 75  2  0  0  0  0
 34 59  1  0  0  0  0
 34 70  1  0  0  0  0
 34 76  2  0  0  0  0
 35 66  1  0  0  0  0
 35 71  1  0  0  0  0
 35 77  2  0  0  0  0
 36 39  1  0  0  0  0
 37 46  1  0  0  0  0
 38 65  1  0  0  0  0
 39 41  1  0  0  0  0
 40 42  1  0  0  0  0
 40 43  1  0  0  0  0
 41 45  1  0  0  0  0
 42 47  1  0  0  0  0
 43 66  1  0  0  0  0
 44 47  1  0  0  0  0
 44 66  1  0  0  0  0
 45 69  1  0  0  0  0
 46 65  1  0  0  0  0
 47 64  1  0  0  0  0
 49 59  1  0  0  0  0
 50 60  1  0  0  0  0
 51 60  1  0  0  0  0
 52 60  1  0  0  0  0
 53 71  1  0  0  0  0
 54 72  1  0  0  0  0
 55 79  1  0  0  0  0
 56 57  1  0  0  0  0
 56 63  1  0  0  0  0
 57 71  1  0  0  0  0
 58 60  1  0  0  0  0
 58 70  1  0  0  0  0
 59 72  1  0  0  0  0
 62 64  1  0  0  0  0
M  CHG  1  72   1
M  ISO  4  35 100  55 101  71 100  79 101
M  END
> <Batch ID>
0059

> <Smiles>
CNC(C)C(=O)NC(C(=O)N1Cc2cc([101O:1][101CH2:1]c3ncn(CC[100N:0](C)[100C:0](=O)N4CCCC(n5nc(-c6ccc(Oc7ccc(F)cc7F)cc6)c(C(N)=O)c5N)C4)c3C)ccc2CC1C(=O)NC1CCCc2ccccc21)C(C)(C)C

> <Shape>
0.285

> <Color>
0.134

> <Negative vol penalty>
0.000

$$$$

  -OEChem-04052317533D

 86 94  0     1  0  0  0  0  0999 V2000
  -28.8971  -22.6047   27.7246 C   0  0  0  0  0  0  0  0  0  0  0  0
  -28.0479  -22.6516   26.6237 C   0  0  0  0  0  0  0  0  0  0  0  0
  -29.9255  -21.0855   21.4260 C   0  0  0  0  0  0  0  0  0  0  0  0
  -28.6633  -20.8503   19.3794 C   0  0  0  0  0  0  0  0  0  0  0  0
  -29.7644  -21.5255   27.8891 C   0  0  0  0  0  0  0  0  0  0  0  0
  -28.0662  -21.6197   25.6860 C   0  0  0  0  0  0  0  0  0  0  0  0
  -23.4156  -20.1302   24.3452 C   0  0  0  0  0  0  0  0  0  0  0  0
  -30.3997  -19.7815   21.2834 C   0  0  0  0  0  0  0  0  0  0  0  0
  -29.1375  -19.5463   19.2368 C   0  0  0  0  0  0  0  0  0  0  0  0
  -22.7268  -20.9333   23.4373 C   0  0  0  0  0  0  0  0  0  0  0  0
  -32.7658  -18.1747   19.4799 C   0  0  0  0  0  0  0  0  0  0  0  0
  -34.1257  -17.9522   19.6959 C   0  0  0  0  0  0  0  0  0  0  0  0
  -23.3237  -19.4206   21.6556 C   0  0  0  0  0  0  0  0  0  0  0  0
  -33.5907  -16.4166   21.4828 C   0  0  0  0  0  0  0  0  0  0  0  0
  -24.5085  -26.8941   17.6374 C   0  0  0  0  0  0  0  0  0  0  0  0
  -29.0572  -21.6199   20.4740 C   0  0  0  0  0  0  0  0  0  0  0  0
  -29.1546  -24.1448   20.1229 C   0  0  0  0  0  0  0  0  0  0  0  0
  -29.7865  -20.4751   26.9580 C   0  0  0  0  0  0  0  0  0  0  0  0
  -24.0739  -18.9701   23.9126 C   0  0  0  0  0  0  0  0  0  0  0  0
  -28.9355  -20.5261   25.8375 C   0  0  0  0  0  0  0  0  0  0  0  0
  -24.0180  -18.6031   22.5604 C   0  0  0  0  0  0  0  0  0  0  0  0
  -30.0057  -19.0119   20.1888 C   0  0  0  0  0  0  0  0  0  0  0  0
  -22.6832  -20.5801   22.0918 C   0  0  0  0  0  0  0  0  0  0  0  0
  -31.8182  -17.5182   20.2654 C   0  0  0  0  0  0  0  0  0  0  0  0
  -34.5382  -17.0732   20.6973 C   0  0  0  0  0  0  0  0  0  0  0  0
  -32.2307  -16.6392   21.2668 C   0  0  0  0  0  0  0  0  0  0  0  0
  -28.5666  -22.9667   20.6211 C   0  0  0  0  0  0  0  0  0  0  0  0
  -23.6286  -26.8924   18.7362 C   0  0  0  0  0  0  0  0  0  0  0  0
  -24.0628  -25.8693   16.8389 C   0  0  0  0  0  0  0  0  0  0  0  0
  -28.3090  -25.1484   20.5281 C   0  0  0  0  0  0  0  0  0  0  0  0
  -30.3575  -24.3165   19.3618 C   0  0  0  0  0  0  0  0  0  0  0  0
  -27.0943  -17.9799   23.8932 C   0  0  0  0  0  0  0  0  0  0  0  0
  -25.7726  -15.2152   22.8294 C   0  0  0  0  0  0  0  0  0  0  0  0
  -23.1097  -27.1185   21.1415 C   0  0  0  0  0  0  0  0  0  0  0  0
  -23.1648  -13.6635   21.2679 C   0  0  0  0  0  0  0  0  0  0  0  0
  -30.7747  -19.3526   27.1533 C   0  0  0  0  0  0  0  0  0  0  0  0
  -24.7901  -18.1002   24.9090 C   0  0  0  0  0  0  0  0  0  0  0  0
  -24.6912  -17.3568   22.0485 C   0  0  0  0  0  0  0  0  0  0  0  0
  -30.4666  -18.1166   26.3121 C   0  0  0  0  0  0  0  0  0  0  0  0
  -24.4464  -25.0980   23.7818 C   0  0  0  0  0  0  0  0  0  0  0  0
  -30.1494  -18.5150   24.8742 C   0  0  0  0  0  0  0  0  0  0  0  0
  -25.6681  -24.4370   23.1447 C   0  0  0  0  0  0  0  0  0  0  0  0
  -23.3156  -25.2716   22.7727 C   0  0  0  0  0  0  0  0  0  0  0  0
  -24.9319  -25.3596   20.9015 C   0  0  0  0  0  0  0  0  0  0  0  0
  -28.9085  -19.4138   24.8117 C   0  0  1  0  0  0  0  0  0  0  0  0
  -25.8573  -17.2157   24.2718 C   0  0  1  0  0  0  0  0  0  0  0  0
  -26.1088  -25.1936   21.8791 C   0  0  2  0  0  0  0  0  0  0  0  0
  -24.5595  -25.3621   15.5467 C   0  0  0  0  0  0  0  0  0  0  0  0
  -22.3868  -11.4014   20.5098 C   0  0  0  0  0  0  0  0  0  0  0  0
  -20.7406  -23.1550   19.5998 C   0  0  0  0  0  0  0  0  0  0  0  0
  -22.7751  -29.0595   19.6676 C   0  0  0  0  0  0  0  0  0  0  0  0
  -25.0512  -28.3083   20.3666 C   0  0  0  0  0  0  0  0  0  0  0  0
  -27.7129  -15.3387   20.4778 C   0  0  0  0  0  0  0  0  0  0  0  0
  -26.2879  -13.6481   19.3033 C   0  0  0  0  0  0  0  0  0  0  0  0
  -27.4026  -13.0579   21.4555 C   0  0  0  0  0  0  0  0  0  0  0  0
  -21.5021  -21.7599   16.9168 C   0  0  0  0  0  0  0  0  0  0  0  0
  -23.8789  -22.3656   17.3219 C   0  0  0  0  0  0  0  0  0  0  0  0
  -20.7732  -13.7747   23.0076 C   0  0  0  0  0  0  0  0  0  0  0  0
  -22.1295  -24.1785   17.0188 C   0  0  0  0  0  0  0  0  0  0  0  0
  -22.4955  -21.3824   19.8608 C   0  0  0  0  0  0  0  0  0  1  0  0
  -25.4341  -14.6444   21.4734 C   0  0  1  0  0  0  0  0  0  0  0  0
  -22.3641  -12.4265   21.6328 C   0  0  2  0  0  0  0  0  0  0  0  0
  -22.1702  -22.7405   19.2022 C   0  0  1  0  0  0  0  0  0  0  0  0
  -23.6491  -27.7898   19.9036 C   0  0  0  0  0  0  0  0  0  0  0  0
  -26.6982  -14.1969   20.6865 C   0  0  0  0  0  0  0  0  0  0  0  0
  -22.4213  -22.7706   17.6452 C   0  0  0  0  0  0  0  0  0  0  0  0
  -27.4351  -23.1988   21.2917 N   0  0  0  0  0  0  0  0  0  0  0  0
  -22.6944  -25.9419   18.6472 N   0  0  0  0  0  0  0  0  0  0  0  0
  -22.9848  -25.3369   17.4829 N   0  0  0  0  0  0  0  0  0  0  0  0
  -27.3052  -24.5344   21.2178 N   0  0  0  0  0  0  0  0  0  0  0  0
  -25.3840  -16.5424   23.0606 N   0  0  0  0  0  0  0  0  0  0  0  0
  -23.7801  -25.9747   21.5756 N   0  0  0  0  0  0  0  0  0  0  0  0
  -28.3336  -26.4874   20.3582 N   0  0  0  0  0  0  0  0  0  0  0  0
  -31.1070  -23.1793   19.0311 N   0  0  0  0  0  0  0  0  0  0  0  0
  -27.7044  -18.6235   24.9530 N   0  0  0  0  0  0  0  0  0  0  0  0
  -24.4682  -13.5770   21.7094 N   0  0  0  0  0  0  0  0  0  0  0  0
  -20.9454  -12.7904   21.9083 N   0  3  0  0  0  0  0  0  0  0  0  0
  -30.7645  -25.4466   19.0002 O   0  0  0  0  0  0  0  0  0  0  0  0
  -27.4685  -17.9842   22.7263 O   0  0  0  0  0  0  0  0  0  0  0  0
  -26.3538  -14.5073   23.6556 O   0  0  0  0  0  0  0  0  0  0  0  0
  -22.1238  -27.5995   21.7062 O   0  0  0  0  0  0  0  0  0  0  0  0
  -22.6833  -14.6102   20.6494 O   0  0  0  0  0  0  0  0  0  0  0  0
  -30.4685  -17.7395   20.0492 O   0  0  0  0  0  0  0  0  0  0  0  0
  -22.0121  -21.3626   21.2034 O   0  0  0  0  0  0  0  0  0  1  0  0
  -35.8441  -16.8584   20.9036 F   0  0  0  0  0  0  0  0  0  0  0  0
  -31.3251  -16.0047   22.0238 F   0  0  0  0  0  0  0  0  0  0  0  0
  1  2  1  0  0  0  0
  1  5  2  0  0  0  0
  2  6  2  0  0  0  0
  3  8  2  0  0  0  0
  3 16  1  0  0  0  0
  4  9  1  0  0  0  0
  4 16  2  0  0  0  0
  5 18  1  0  0  0  0
  6 20  1  0  0  0  0
  7 10  2  0  0  0  0
  7 19  1  0  0  0  0
  8 22  1  0  0  0  0
  9 22  2  0  0  0  0
 10 23  1  0  0  0  0
 11 12  2  0  0  0  0
 11 24  1  0  0  0  0
 12 25  1  0  0  0  0
 13 21  1  0  0  0  0
 13 23  2  0  0  0  0
 14 25  2  0  0  0  0
 14 26  1  0  0  0  0
 15 28  1  0  0  0  0
 15 29  2  0  0  0  0
 16 27  1  0  0  0  0
 17 27  1  0  0  0  0
 17 30  2  0  0  0  0
 17 31  1  0  0  0  0
 18 20  2  0  0  0  0
 18 36  1  0  0  0  0
 19 21  2  0  0  0  0
 19 37  1  0  0  0  0
 20 45  1  0  0  0  0
 21 38  1  0  0  0  0
 22 83  1  0  0  0  0
 23 84  1  0  0  0  0
 24 26  2  0  0  0  0
 24 83  1  0  0  0  0
 25 85  1  0  0  0  0
 26 86  1  0  0  0  0
 27 67  2  0  0  0  0
 28 64  1  0  0  0  0
 28 68  2  0  0  0  0
 29 48  1  0  0  0  0
 29 69  1  0  0  0  0
 30 70  1  0  0  0  0
 30 73  1  0  0  0  0
 31 74  1  0  0  0  0
 31 78  2  0  0  0  0
 32 46  1  0  0  0  0
 32 75  1  0  0  0  0
 32 79  2  0  0  0  0
 33 61  1  0  0  0  0
 33 71  1  0  0  0  0
 33 80  2  0  0  0  0
 34 64  1  0  0  0  0
 34 72  1  0  0  0  0
 34 81  2  0  0  0  0
 35 62  1  0  0  0  0
 35 76  1  0  0  0  0
 35 82  2  0  0  0  0
 36 39  1  0  0  0  0
 37 46  1  0  0  0  0
 38 71  1  0  0  0  0
 39 41  1  0  0  0  0
 40 42  1  0  0  0  0
 40 43  1  0  0  0  0
 41 45  1  0  0  0  0
 42 47  1  0  0  0  0
 43 72  1  0  0  0  0
 44 47  1  0  0  0  0
 44 72  1  0  0  0  0
 45 75  1  0  0  0  0
 46 71  1  0  0  0  0
 47 70  1  0  0  0  0
 49 62  1  0  0  0  0
 50 63  1  0  0  0  0
 51 64  1  0  0  0  0
 52 64  1  0  0  0  0
 53 65  1  0  0  0  0
 54 65  1  0  0  0  0
 55 65  1  0  0  0  0
 56 66  1  0  0  0  0
 57 66  1  0  0  0  0
 58 77  1  0  0  0  0
 59 66  1  0  0  0  0
 59 69  1  0  0  0  0
 60 63  1  0  0  0  0
 60 84  1  0  0  0  0
 61 65  1  0  0  0  0
 61 76  1  0  0  0  0
 62 77  1  0  0  0  0
 63 66  1  0  0  0  0
 67 70  1  0  0  0  0
 68 69  1  0  0  0  0
M  CHG  1  77   1
M  ISO  4  34 100  60 101  64 100  84 101
M  END
> <Batch ID>
0059

> <Smiles>
CNC(C)C(=O)NC(C(=O)N1Cc2cc([101O:1][101CH2:1]C(C)C(C)(C)Cn3nc([100C:0](C)(C)[100C:0](=O)N4CCCC(n5nc(-c6ccc(Oc7ccc(F)cc7F)cc6)c(C(N)=O)c5N)C4)cc3C)ccc2CC1C(=O)NC1CCCc2ccccc21)C(C)(C)C

> <Shape>
0.149

> <Color>
0.072

> <Negative vol penalty>
0.000

$$$$

  -OEChem-04052317533D

 84 92  0     1  0  0  0  0  0999 V2000
  -25.1702  -35.4879   23.4705 C   0  0  0  0  0  0  0  0  0  0  0  0
  -25.8559  -34.3947   22.9508 C   0  0  0  0  0  0  0  0  0  0  0  0
  -27.2723  -12.5515   20.5582 C   0  0  0  0  0  0  0  0  0  0  0  0
  -26.1448  -14.3379   19.3858 C   0  0  0  0  0  0  0  0  0  0  0  0
  -24.0014  -35.2913   24.2048 C   0  0  0  0  0  0  0  0  0  0  0  0
  -25.3738  -33.1041   23.1659 C   0  0  0  0  0  0  0  0  0  0  0  0
  -25.7042  -28.3597   19.3075 C   0  0  0  0  0  0  0  0  0  0  0  0
  -26.2193  -11.6883   20.2557 C   0  0  0  0  0  0  0  0  0  0  0  0
  -25.0918  -13.4746   19.0832 C   0  0  0  0  0  0  0  0  0  0  0  0
  -26.5786  -27.2770   19.2250 C   0  0  0  0  0  0  0  0  0  0  0  0
  -23.0983  -11.0714   21.3972 C   0  0  0  0  0  0  0  0  0  0  0  0
  -22.6142  -10.2572   22.4210 C   0  0  0  0  0  0  0  0  0  0  0  0
  -25.0124  -25.9252   20.4655 C   0  0  0  0  0  0  0  0  0  0  0  0
  -23.1746   -8.2959   21.1262 C   0  0  0  0  0  0  0  0  0  0  0  0
  -31.0607  -22.6981   18.7314 C   0  0  0  0  0  0  0  0  0  0  0  0
  -27.2351  -13.8764   20.1233 C   0  0  0  0  0  0  0  0  0  0  0  0
  -29.4811  -14.9979   19.6702 C   0  0  0  0  0  0  0  0  0  0  0  0
  -23.4994  -33.9983   24.4209 C   0  0  0  0  0  0  0  0  0  0  0  0
  -24.4800  -28.2362   19.9803 C   0  0  0  0  0  0  0  0  0  0  0  0
  -24.1979  -32.8899   23.9050 C   0  0  0  0  0  0  0  0  0  0  0  0
  -24.1231  -27.0071   20.5530 C   0  0  0  0  0  0  0  0  0  0  0  0
  -30.4375  -23.9290   18.7023 C   0  0  0  0  0  0  0  0  0  0  0  0
  -25.1291  -12.1498   19.5182 C   0  0  0  0  0  0  0  0  0  0  0  0
  -26.2341  -26.0603   19.8065 C   0  0  0  0  0  0  0  0  0  0  0  0
  -23.6205  -10.4979   20.2378 C   0  0  0  0  0  0  0  0  0  0  0  0
  -22.6523   -8.8695   22.2856 C   0  0  0  0  0  0  0  0  0  0  0  0
  -23.6587   -9.1102   20.1024 C   0  0  0  0  0  0  0  0  0  0  0  0
  -28.3223  -14.7688   20.4360 C   0  0  0  0  0  0  0  0  0  0  0  0
  -29.0975  -23.9278   19.0319 C   0  0  0  0  0  0  0  0  0  0  0  0
  -30.1932  -15.9232   20.3935 C   0  0  0  0  0  0  0  0  0  0  0  0
  -29.1281  -21.6783   19.3579 C   0  0  0  0  0  0  0  0  0  0  0  0
  -29.8783  -14.4255   18.4171 C   0  0  0  0  0  0  0  0  0  0  0  0
  -23.1676  -29.6221   22.5221 C   0  0  0  0  0  0  0  0  0  0  0  0
  -20.5643  -27.9056   21.6282 C   0  0  0  0  0  0  0  0  0  0  0  0
  -19.3073  -25.1992   19.9722 C   0  0  0  0  0  0  0  0  0  0  0  0
  -28.1368  -19.8541   24.6193 C   0  0  0  0  0  0  0  0  0  0  0  0
  -22.2580  -33.8325   25.2611 C   0  0  0  0  0  0  0  0  0  0  0  0
  -23.5361  -29.4059   20.0374 C   0  0  0  0  0  0  0  0  0  0  0  0
  -22.8117  -26.8168   21.2689 C   0  0  0  0  0  0  0  0  0  0  0  0
  -21.6101  -32.4570   25.1258 C   0  0  0  0  0  0  0  0  0  0  0  0
  -30.9290  -17.4366   24.8660 C   0  0  0  0  0  0  0  0  0  0  0  0
  -22.6636  -31.3584   25.2264 C   0  0  0  0  0  0  0  0  0  0  0  0
  -30.6254  -16.4600   23.7310 C   0  0  0  0  0  0  0  0  0  0  0  0
  -29.6597  -18.0818   25.4139 C   0  0  0  0  0  0  0  0  0  0  0  0
  -28.5217  -17.7696   23.2410 C   0  0  0  0  0  0  0  0  0  0  0  0
  -23.6930  -31.4762   24.0959 C   0  0  1  0  0  0  0  0  0  0  0  0
  -22.5417  -29.3155   21.1909 C   0  0  1  0  0  0  0  0  0  0  0  0
  -29.7836  -17.1370   22.6353 C   0  0  2  0  0  0  0  0  0  0  0  0
  -32.0681  -25.6705   19.4737 C   0  0  0  0  0  0  0  0  0  0  0  0
  -17.1441  -24.0392   19.4503 C   0  0  0  0  0  0  0  0  0  0  0  0
  -20.4795  -26.7913   24.4675 C   0  0  0  0  0  0  0  0  0  0  0  0
  -18.9553  -24.9861   23.6389 C   0  0  0  0  0  0  0  0  0  0  0  0
  -18.2445  -27.3737   23.5082 C   0  0  0  0  0  0  0  0  0  0  0  0
  -27.2063  -21.9814   23.7896 C   0  0  0  0  0  0  0  0  0  0  0  0
  -19.6753  -25.5735   17.0596 C   0  0  0  0  0  0  0  0  0  0  0  0
  -31.1833  -25.1599   18.3361 C   0  0  0  0  0  0  0  0  0  0  0  0
  -28.3162  -25.2087   19.0347 C   0  0  0  0  0  0  0  0  0  1  0  0
  -28.4009  -20.4285   19.7227 C   0  0  0  0  0  0  0  0  0  0  0  0
  -27.6997  -20.4756   21.0947 C   0  0  0  0  0  0  0  0  0  0  0  0
  -28.6462  -20.6671   22.2779 C   0  0  0  0  0  0  0  0  0  0  0  0
  -20.0355  -26.5259   21.9379 C   0  0  1  0  0  0  0  0  0  0  0  0
  -18.1641  -25.0656   18.9824 C   0  0  2  0  0  0  0  0  0  0  0  0
  -19.4543  -26.4231   23.3764 C   0  0  0  0  0  0  0  0  0  0  0  0
  -30.4340  -21.5482   19.0559 N   0  0  0  0  0  0  0  0  0  0  0  0
  -28.2958  -15.4903   21.5597 N   0  0  0  0  0  0  0  0  0  0  0  0
  -28.4087  -22.8167   19.3658 N   0  0  0  0  0  0  0  0  0  0  0  0
  -29.4469  -16.1818   21.5054 N   0  0  0  0  0  0  0  0  0  0  0  0
  -21.9255  -27.9920   21.3035 N   0  0  0  0  0  0  0  0  0  0  0  0
  -28.8573  -18.6797   24.3462 N   0  0  0  0  0  0  0  0  0  0  0  0
  -31.3788  -16.5327   20.1805 N   0  0  0  0  0  0  0  0  0  0  0  0
  -29.0287  -13.4902   17.8106 N   0  0  0  0  0  0  0  0  0  0  0  0
  -23.1460  -30.9621   22.8586 N   0  0  0  0  0  0  0  0  0  0  0  0
  -19.0790  -26.2090   20.8829 N   0  0  0  0  0  0  0  0  0  0  0  0
  -27.9375  -20.7446   23.5535 N   0  0  0  0  0  0  0  0  0  0  0  0
  -18.6797  -24.6422   17.6498 N   0  3  0  0  0  0  0  0  0  0  0  0
  -30.9623  -14.7220   17.8600 O   0  0  0  0  0  0  0  0  0  0  0  0
  -23.6340  -28.7102   23.1947 O   0  0  0  0  0  0  0  0  0  0  0  0
  -19.7962  -28.8701   21.6659 O   0  0  0  0  0  0  0  0  0  0  0  0
  -20.3016  -24.4773   19.9430 O   0  0  0  0  0  0  0  0  0  0  0  0
  -27.7050  -20.0974   25.7534 O   0  0  0  0  0  0  0  0  0  0  0  0
  -24.1015  -11.3076   19.2225 O   0  0  0  0  0  0  0  0  0  0  0  0
  -27.0861  -25.0021   19.7279 O   0  0  0  0  0  0  0  0  0  1  0  0
  -22.1888   -8.0877   23.2695 F   0  0  0  0  0  0  0  0  0  0  0  0
  -24.1603   -8.5534   18.9914 F   0  0  0  0  0  0  0  0  0  0  0  0
  1  2  1  0  0  0  0
  1  5  2  0  0  0  0
  2  6  2  0  0  0  0
  3  8  2  0  0  0  0
  3 16  1  0  0  0  0
  4  9  1  0  0  0  0
  4 16  2  0  0  0  0
  5 18  1  0  0  0  0
  6 20  1  0  0  0  0
  7 10  2  0  0  0  0
  7 19  1  0  0  0  0
  8 23  1  0  0  0  0
  9 23  2  0  0  0  0
 10 24  1  0  0  0  0
 11 12  2  0  0  0  0
 11 25  1  0  0  0  0
 12 26  1  0  0  0  0
 13 21  1  0  0  0  0
 13 24  2  0  0  0  0
 14 26  2  0  0  0  0
 14 27  1  0  0  0  0
 15 22  1  0  0  0  0
 15 64  2  0  0  0  0
 16 28  1  0  0  0  0
 17 28  1  0  0  0  0
 17 30  2  0  0  0  0
 17 32  1  0  0  0  0
 18 20  2  0  0  0  0
 18 37  1  0  0  0  0
 19 21  2  0  0  0  0
 19 38  1  0  0  0  0
 20 46  1  0  0  0  0
 21 39  1  0  0  0  0
 22 29  2  0  0  0  0
 22 56  1  0  0  0  0
 23 81  1  0  0  0  0
 24 82  1  0  0  0  0
 25 27  2  0  0  0  0
 25 81  1  0  0  0  0
 26 83  1  0  0  0  0
 27 84  1  0  0  0  0
 28 65  2  0  0  0  0
 29 57  1  0  0  0  0
 29 66  1  0  0  0  0
 30 67  1  0  0  0  0
 30 70  1  0  0  0  0
 31 58  1  0  0  0  0
 31 64  1  0  0  0  0
 31 66  2  0  0  0  0
 32 71  1  0  0  0  0
 32 76  2  0  0  0  0
 33 47  1  0  0  0  0
 33 72  1  0  0  0  0
 33 77  2  0  0  0  0
 34 61  1  0  0  0  0
 34 68  1  0  0  0  0
 34 78  2  0  0  0  0
 35 62  1  0  0  0  0
 35 73  1  0  0  0  0
 35 79  2  0  0  0  0
 36 69  1  0  0  0  0
 36 74  1  0  0  0  0
 36 80  2  0  0  0  0
 37 40  1  0  0  0  0
 38 47  1  0  0  0  0
 39 68  1  0  0  0  0
 40 42  1  0  0  0  0
 41 43  1  0  0  0  0
 41 44  1  0  0  0  0
 42 46  1  0  0  0  0
 43 48  1  0  0  0  0
 44 69  1  0  0  0  0
 45 48  1  0  0  0  0
 45 69  1  0  0  0  0
 46 72  1  0  0  0  0
 47 68  1  0  0  0  0
 48 67  1  0  0  0  0
 49 56  1  0  0  0  0
 50 62  1  0  0  0  0
 51 63  1  0  0  0  0
 52 63  1  0  0  0  0
 53 63  1  0  0  0  0
 54 74  1  0  0  0  0
 55 75  1  0  0  0  0
 57 82  1  0  0  0  0
 58 59  1  0  0  0  0
 59 60  1  0  0  0  0
 60 74  1  0  0  0  0
 61 63  1  0  0  0  0
 61 73  1  0  0  0  0
 62 75  1  0  0  0  0
 65 67  1  0  0  0  0
M  CHG  1  75   1
M  ISO  4  36 100  57 101  74 100  82 101
M  END
> <Batch ID>
0059

> <Smiles>
CCc1cnc(CCC[100N:0](C)[100C:0](=O)N2CCCC(n3nc(-c4ccc(Oc5ccc(F)cc5F)cc4)c(C(N)=O)c3N)C2)nc1[101CH2:1][101O:1]c1ccc2c(c1)CN(C(=O)C(NC(=O)C(C)NC)C(C)(C)C)C(C(=O)NC1CCCc3ccccc31)C2

> <Shape>
0.293

> <Color>
0.053

> <Negative vol penalty>
0.000

$$$$

  -OEChem-04052317533D

 85 93  0     1  0  0  0  0  0999 V2000
  -14.7068  -18.6599   13.8808 C   0  0  0  0  0  0  0  0  0  0  0  0
  -15.5315  -17.7345   14.5124 C   0  0  0  0  0  0  0  0  0  0  0  0
  -27.0732  -23.5095   20.7902 C   0  0  0  0  0  0  0  0  0  0  0  0
  -28.5821  -23.2605   18.9198 C   0  0  0  0  0  0  0  0  0  0  0  0
  -15.0407  -20.0135   13.8952 C   0  0  0  0  0  0  0  0  0  0  0  0
  -16.6912  -18.1621   15.1579 C   0  0  0  0  0  0  0  0  0  0  0  0
  -19.1490  -15.8122   20.2514 C   0  0  0  0  0  0  0  0  0  0  0  0
  -27.3038  -24.8851   20.7931 C   0  0  0  0  0  0  0  0  0  0  0  0
  -28.8126  -24.6362   18.9227 C   0  0  0  0  0  0  0  0  0  0  0  0
  -20.1915  -14.9103   20.4600 C   0  0  0  0  0  0  0  0  0  0  0  0
  -27.2169  -28.5093   21.0624 C   0  0  0  0  0  0  0  0  0  0  0  0
  -26.1124  -29.3518   21.1887 C   0  0  0  0  0  0  0  0  0  0  0  0
  -21.7111  -16.7535   20.7949 C   0  0  0  0  0  0  0  0  0  0  0  0
  -25.1773  -28.4297   19.1607 C   0  0  0  0  0  0  0  0  0  0  0  0
  -24.6223  -11.7327   20.2487 C   0  0  0  0  0  0  0  0  0  0  0  0
  -27.7124  -22.6972   19.8535 C   0  0  0  0  0  0  0  0  0  0  0  0
  -26.4783  -20.5822   19.1383 C   0  0  0  0  0  0  0  0  0  0  0  0
  -16.2000  -20.4590   14.5496 C   0  0  0  0  0  0  0  0  0  0  0  0
  -19.3824  -17.1940   20.3022 C   0  0  0  0  0  0  0  0  0  0  0  0
  -17.0415  -19.5228   15.1800 C   0  0  0  0  0  0  0  0  0  0  0  0
  -20.6694  -17.6709   20.5891 C   0  0  0  0  0  0  0  0  0  0  0  0
  -28.1735  -25.4485   19.8594 C   0  0  0  0  0  0  0  0  0  0  0  0
  -21.4734  -15.3809   20.7290 C   0  0  0  0  0  0  0  0  0  0  0  0
  -27.3017  -27.6271   19.9853 C   0  0  0  0  0  0  0  0  0  0  0  0
  -25.0926  -29.3119   20.2378 C   0  0  0  0  0  0  0  0  0  0  0  0
  -26.2819  -27.5873   19.0344 C   0  0  0  0  0  0  0  0  0  0  0  0
  -27.4750  -21.2760   19.8503 C   0  0  0  0  0  0  0  0  0  0  0  0
  -26.5465  -12.6098   20.4909 C   0  0  0  0  0  0  0  0  0  0  0  0
  -25.7955  -13.0746   21.5447 C   0  0  0  0  0  0  0  0  0  0  0  0
  -26.6738  -19.2638   19.4704 C   0  0  0  0  0  0  0  0  0  0  0  0
  -25.4663  -21.0844   18.2556 C   0  0  0  0  0  0  0  0  0  0  0  0
  -19.1285  -19.5896   18.2285 C   0  0  0  0  0  0  0  0  0  0  0  0
  -19.8431  -21.3978   20.8250 C   0  0  0  0  0  0  0  0  0  0  0  0
  -21.2792  -21.5907   23.9149 C   0  0  0  0  0  0  0  0  0  0  0  0
  -30.5015  -15.1043   20.0740 C   0  0  0  0  0  0  0  0  0  0  0  0
  -16.5441  -21.9265   14.4979 C   0  0  0  0  0  0  0  0  0  0  0  0
  -18.2417  -18.1536   20.1013 C   0  0  0  0  0  0  0  0  0  0  0  0
  -20.9682  -19.1446   20.6747 C   0  0  0  0  0  0  0  0  0  0  0  0
  -17.5943  -22.3424   15.5248 C   0  0  0  0  0  0  0  0  0  0  0  0
  -29.5666  -17.1388   23.0216 C   0  0  0  0  0  0  0  0  0  0  0  0
  -18.7605  -21.3592   15.5239 C   0  0  0  0  0  0  0  0  0  0  0  0
  -28.9223  -18.3696   22.3860 C   0  0  0  0  0  0  0  0  0  0  0  0
  -30.6072  -16.5053   22.1032 C   0  0  0  0  0  0  0  0  0  0  0  0
  -29.4465  -17.4018   20.1124 C   0  0  0  0  0  0  0  0  0  0  0  0
  -18.2950  -19.9507   15.9121 C   0  0  1  0  0  0  0  0  0  0  0  0
  -18.6990  -19.5429   19.6676 C   0  0  1  0  0  0  0  0  0  0  0  0
  -28.3599  -18.0368   20.9931 C   0  0  2  0  0  0  0  0  0  0  0  0
  -21.7397  -23.2104   25.7755 C   0  0  0  0  0  0  0  0  0  0  0  0
  -22.1014  -22.6336   19.1871 C   0  0  0  0  0  0  0  0  0  0  0  0
  -23.0834  -23.4974   21.3220 C   0  0  0  0  0  0  0  0  0  0  0  0
  -20.8224  -24.2588   20.5933 C   0  0  0  0  0  0  0  0  0  0  0  0
  -30.0956  -13.7986   18.0221 C   0  0  0  0  0  0  0  0  0  0  0  0
  -19.6791  -20.0126   25.8405 C   0  0  0  0  0  0  0  0  0  0  0  0
  -27.9529  -12.9006   20.1704 C   0  0  0  0  0  0  0  0  0  0  0  0
  -23.3552  -12.6798   22.2610 C   0  0  0  0  0  0  0  0  0  0  0  0
  -28.1810  -14.2718   19.5041 C   0  0  0  0  0  0  0  0  0  0  0  0
  -22.1568  -13.2378   21.5011 C   0  0  0  0  0  0  0  0  0  1  0  0
  -21.1171  -21.9018   21.4590 C   0  0  1  0  0  0  0  0  0  0  0  0
  -20.7766  -22.1702   25.2249 C   0  0  2  0  0  0  0  0  0  0  0  0
  -26.1225  -13.9782   22.6620 C   0  0  0  0  0  0  0  0  0  0  0  0
  -21.7762  -23.0451   20.6369 C   0  0  0  0  0  0  0  0  0  0  0  0
  -25.8103  -11.7752   19.6877 N   0  0  0  0  0  0  0  0  0  0  0  0
  -28.2464  -20.4655   20.5798 N   0  0  0  0  0  0  0  0  0  0  0  0
  -24.5651  -12.5045   21.3758 N   0  0  0  0  0  0  0  0  0  0  0  0
  -27.7342  -19.2488   20.3280 N   0  0  0  0  0  0  0  0  0  0  0  0
  -19.8210  -20.0430   20.4645 N   0  0  0  0  0  0  0  0  0  0  0  0
  -30.0585  -16.2392   20.7730 N   0  0  0  0  0  0  0  0  0  0  0  0
  -26.0403  -18.1276   19.1097 N   0  0  0  0  0  0  0  0  0  0  0  0
  -25.4066  -22.4655   18.0247 N   0  0  0  0  0  0  0  0  0  0  0  0
  -18.1020  -19.8587   17.3434 N   0  0  0  0  0  0  0  0  0  0  0  0
  -20.7734  -22.2716   22.8278 N   0  0  0  0  0  0  0  0  0  0  0  0
  -29.5910  -14.4990   19.1946 N   0  0  0  0  0  0  0  0  0  0  0  0
  -20.6180  -21.0919   26.2413 N   0  3  0  0  0  0  0  0  0  0  0  0
  -24.6290  -20.3326   17.7014 O   0  0  0  0  0  0  0  0  0  0  0  0
  -20.3044  -19.3972   17.9424 O   0  0  0  0  0  0  0  0  0  0  0  0
  -18.8997  -22.1757   20.6624 O   0  0  0  0  0  0  0  0  0  0  0  0
  -22.0469  -20.6324   23.8614 O   0  0  0  0  0  0  0  0  0  0  0  0
  -31.6424  -14.6520   20.2342 O   0  0  0  0  0  0  0  0  0  0  0  0
  -28.3985  -26.7909   19.8618 O   0  0  0  0  0  0  0  0  0  0  0  0
  -22.4928  -14.5027   20.9324 O   0  0  0  0  0  0  0  0  0  1  0  0
  -24.0312  -30.1199   20.3600 F   0  0  0  0  0  0  0  0  0  0  0  0
  -26.3572  -26.7410   17.9981 F   0  0  0  0  0  0  0  0  0  0  0  0
  -27.4142  -14.4441   22.6526 F   0  0  0  0  0  0  0  0  0  0  0  0
  -25.3522  -15.1137   22.7135 F   0  0  0  0  0  0  0  0  0  0  0  0
  -25.9696  -13.3951   23.8942 F   0  0  0  0  0  0  0  0  0  0  0  0
  1  2  1  0  0  0  0
  1  5  2  0  0  0  0
  2  6  2  0  0  0  0
  3  8  2  0  0  0  0
  3 16  1  0  0  0  0
  4  9  1  0  0  0  0
  4 16  2  0  0  0  0
  5 18  1  0  0  0  0
  6 20  1  0  0  0  0
  7 10  2  0  0  0  0
  7 19  1  0  0  0  0
  8 22  1  0  0  0  0
  9 22  2  0  0  0  0
 10 23  1  0  0  0  0
 11 12  2  0  0  0  0
 11 24  1  0  0  0  0
 12 25  1  0  0  0  0
 13 21  1  0  0  0  0
 13 23  2  0  0  0  0
 14 25  2  0  0  0  0
 14 26  1  0  0  0  0
 15 62  2  0  0  0  0
 15 64  1  0  0  0  0
 16 27  1  0  0  0  0
 17 27  1  0  0  0  0
 17 30  2  0  0  0  0
 17 31  1  0  0  0  0
 18 20  2  0  0  0  0
 18 36  1  0  0  0  0
 19 21  2  0  0  0  0
 19 37  1  0  0  0  0
 20 45  1  0  0  0  0
 21 38  1  0  0  0  0
 22 79  1  0  0  0  0
 23 80  1  0  0  0  0
 24 26  2  0  0  0  0
 24 79  1  0  0  0  0
 25 81  1  0  0  0  0
 26 82  1  0  0  0  0
 27 63  2  0  0  0  0
 28 29  2  0  0  0  0
 28 54  1  0  0  0  0
 28 62  1  0  0  0  0
 29 60  1  0  0  0  0
 29 64  1  0  0  0  0
 30 65  1  0  0  0  0
 30 68  1  0  0  0  0
 31 69  1  0  0  0  0
 31 74  2  0  0  0  0
 32 46  1  0  0  0  0
 32 70  1  0  0  0  0
 32 75  2  0  0  0  0
 33 58  1  0  0  0  0
 33 66  1  0  0  0  0
 33 76  2  0  0  0  0
 34 59  1  0  0  0  0
 34 71  1  0  0  0  0
 34 77  2  0  0  0  0
 35 67  1  0  0  0  0
 35 72  1  0  0  0  0
 35 78  2  0  0  0  0
 36 39  1  0  0  0  0
 37 46  1  0  0  0  0
 38 66  1  0  0  0  0
 39 41  1  0  0  0  0
 40 42  1  0  0  0  0
 40 43  1  0  0  0  0
 41 45  1  0  0  0  0
 42 47  1  0  0  0  0
 43 67  1  0  0  0  0
 44 47  1  0  0  0  0
 44 67  1  0  0  0  0
 45 70  1  0  0  0  0
 46 66  1  0  0  0  0
 47 65  1  0  0  0  0
 48 59  1  0  0  0  0
 49 61  1  0  0  0  0
 50 61  1  0  0  0  0
 51 61  1  0  0  0  0
 52 72  1  0  0  0  0
 53 73  1  0  0  0  0
 54 56  1  0  0  0  0
 55 57  1  0  0  0  0
 55 64  1  0  0  0  0
 56 72  1  0  0  0  0
 57 80  1  0  0  0  0
 58 61  1  0  0  0  0
 58 71  1  0  0  0  0
 59 73  1  0  0  0  0
 60 83  1  0  0  0  0
 60 84  1  0  0  0  0
 60 85  1  0  0  0  0
 63 65  1  0  0  0  0
M  CHG  1  73   1
M  ISO  4  35 100  57 101  72 100  80 101
M  END
> <Batch ID>
0059

> <Smiles>
CNC(C)C(=O)NC(C(=O)N1Cc2cc([101O:1][101CH2:1]Cn3cnc(CC[100N:0](C)[100C:0](=O)N4CCCC(n5nc(-c6ccc(Oc7ccc(F)cc7F)cc6)c(C(N)=O)c5N)C4)c3C(F)(F)F)ccc2CC1C(=O)NC1CCCc2ccccc21)C(C)(C)C

> <Shape>
0.174

> <Color>
0.106

> <Negative vol penalty>
0.000

$$$$

  -OEChem-04052317533D

 84 92  0     1  0  0  0  0  0999 V2000
  -28.1300  -34.6454   25.1752 C   0  0  0  0  0  0  0  0  0  0  0  0
  -28.2799  -33.3568   24.6727 C   0  0  0  0  0  0  0  0  0  0  0  0
  -25.1832  -13.0551   21.4911 C   0  0  0  0  0  0  0  0  0  0  0  0
  -25.7009  -12.7227   19.1548 C   0  0  0  0  0  0  0  0  0  0  0  0
  -26.8737  -35.0916   25.5832 C   0  0  0  0  0  0  0  0  0  0  0  0
  -27.1736  -32.5132   24.5791 C   0  0  0  0  0  0  0  0  0  0  0  0
  -26.9711  -30.0589   20.1541 C   0  0  0  0  0  0  0  0  0  0  0  0
  -24.2272  -12.0416   21.4235 C   0  0  0  0  0  0  0  0  0  0  0  0
  -24.7450  -11.7092   19.0871 C   0  0  0  0  0  0  0  0  0  0  0  0
  -27.8138  -28.9594   19.9966 C   0  0  0  0  0  0  0  0  0  0  0  0
  -24.1766   -8.6607   21.4300 C   0  0  0  0  0  0  0  0  0  0  0  0
  -24.1544   -7.7208   22.4603 C   0  0  0  0  0  0  0  0  0  0  0  0
  -25.9677  -27.4832   20.4782 C   0  0  0  0  0  0  0  0  0  0  0  0
  -21.8834   -8.3537   22.9887 C   0  0  0  0  0  0  0  0  0  0  0  0
  -25.9200  -13.3957   20.3567 C   0  0  0  0  0  0  0  0  0  0  0  0
  -28.2709  -14.3058   20.7474 C   0  0  0  0  0  0  0  0  0  0  0  0
  -25.7497  -34.2563   25.4855 C   0  0  0  0  0  0  0  0  0  0  0  0
  -25.6206  -29.8789   20.4860 C   0  0  0  0  0  0  0  0  0  0  0  0
  -25.9012  -32.9481   24.9874 C   0  0  0  0  0  0  0  0  0  0  0  0
  -25.1094  -28.5819   20.6368 C   0  0  0  0  0  0  0  0  0  0  0  0
  -24.0082  -11.3686   20.2215 C   0  0  0  0  0  0  0  0  0  0  0  0
  -27.3129  -27.6714   20.1616 C   0  0  0  0  0  0  0  0  0  0  0  0
  -23.0522   -9.4472   21.1790 C   0  0  0  0  0  0  0  0  0  0  0  0
  -23.0078   -7.5672   23.2396 C   0  0  0  0  0  0  0  0  0  0  0  0
  -21.9056   -9.2937   21.9583 C   0  0  0  0  0  0  0  0  0  0  0  0
  -26.9072  -14.4430   20.4258 C   0  0  0  0  0  0  0  0  0  0  0  0
  -29.0902  -23.9275   18.7632 C   0  0  0  0  0  0  0  0  0  0  0  0
  -30.0322  -22.7351   20.9583 C   0  0  0  0  0  0  0  0  0  0  0  0
  -30.5057  -22.4005   19.7087 C   0  0  0  0  0  0  0  0  0  0  0  0
  -28.6161  -24.2617   20.0126 C   0  0  0  0  0  0  0  0  0  0  0  0
  -28.7707  -15.5831   20.6755 C   0  0  0  0  0  0  0  0  0  0  0  0
  -29.0189  -13.1291   21.0810 C   0  0  0  0  0  0  0  0  0  0  0  0
  -23.7827  -30.7183   22.9398 C   0  0  0  0  0  0  0  0  0  0  0  0
  -21.4207  -29.4859   21.0893 C   0  0  0  0  0  0  0  0  0  0  0  0
  -20.5216  -27.3678   18.5689 C   0  0  0  0  0  0  0  0  0  0  0  0
  -28.9780  -20.3654   17.6089 C   0  0  0  0  0  0  0  0  0  0  0  0
  -24.4205  -34.7666   25.9832 C   0  0  0  0  0  0  0  0  0  0  0  0
  -24.7185  -31.0743   20.6260 C   0  0  0  0  0  0  0  0  0  0  0  0
  -23.6624  -28.3340   20.9733 C   0  0  0  0  0  0  0  0  0  0  0  0
  -23.2314  -33.9393   25.5017 C   0  0  0  0  0  0  0  0  0  0  0  0
  -26.4267  -20.0370   20.2706 C   0  0  0  0  0  0  0  0  0  0  0  0
  -23.5100  -32.4502   25.6799 C   0  0  0  0  0  0  0  0  0  0  0  0
  -26.3938  -18.5295   20.5162 C   0  0  0  0  0  0  0  0  0  0  0  0
  -26.8387  -20.3696   18.8398 C   0  0  0  0  0  0  0  0  0  0  0  0
  -28.0966  -18.2474   18.6719 C   0  0  0  0  0  0  0  0  0  0  0  0
  -24.7207  -32.0118   24.8471 C   0  0  1  0  0  0  0  0  0  0  0  0
  -23.4794  -30.7921   21.4700 C   0  0  1  0  0  0  0  0  0  0  0  0
  -27.7301  -17.8794   20.1175 C   0  0  2  0  0  0  0  0  0  0  0  0
  -28.5703  -24.5873   17.5321 C   0  0  0  0  0  0  0  0  0  0  0  0
  -29.6835  -22.3579   23.4124 C   0  0  0  0  0  0  0  0  0  0  0  0
  -18.5136  -26.5485   17.3064 C   0  0  0  0  0  0  0  0  0  0  0  0
  -20.6449  -27.7346   23.4644 C   0  0  0  0  0  0  0  0  0  0  0  0
  -19.3140  -26.3121   21.8917 C   0  0  0  0  0  0  0  0  0  0  0  0
  -18.7123  -28.7115   22.2133 C   0  0  0  0  0  0  0  0  0  0  0  0
  -31.2265  -20.1817   16.6138 C   0  0  0  0  0  0  0  0  0  0  0  0
  -21.5718  -28.3976   16.0007 C   0  0  0  0  0  0  0  0  0  0  0  0
  -30.5526  -22.0753   22.1892 C   0  0  0  0  0  0  0  0  0  0  0  0
  -31.5604  -21.3625   19.5296 C   0  0  0  0  0  0  0  0  0  0  0  0
  -27.5535  -25.3056   20.1926 C   0  0  0  0  0  0  0  0  0  1  0  0
  -31.0157  -20.0059   19.0654 C   0  0  0  0  0  0  0  0  0  0  0  0
  -20.8005  -28.1204   20.9163 C   0  0  1  0  0  0  0  0  0  0  0  0
  -19.6397  -27.5697   17.3499 C   0  0  2  0  0  0  0  0  0  0  0  0
  -19.8957  -27.7241   22.1170 C   0  0  0  0  0  0  0  0  0  0  0  0
  -26.5626  -15.7076   20.1690 N   0  0  0  0  0  0  0  0  0  0  0  0
  -30.0435  -22.9908   18.5888 N   0  0  0  0  0  0  0  0  0  0  0  0
  -29.0787  -23.6715   21.1326 N   0  0  0  0  0  0  0  0  0  0  0  0
  -27.7170  -16.3768   20.3292 N   0  0  0  0  0  0  0  0  0  0  0  0
  -22.8218  -29.5354   21.1061 N   0  0  0  0  0  0  0  0  0  0  0  0
  -28.0893  -19.7044   18.4727 N   0  0  0  0  0  0  0  0  0  0  0  0
  -30.0043  -16.0936   20.8756 N   0  0  0  0  0  0  0  0  0  0  0  0
  -28.3501  -11.8977   21.1088 N   0  0  0  0  0  0  0  0  0  0  0  0
  -24.3512  -31.8675   23.4554 N   0  0  0  0  0  0  0  0  0  0  0  0
  -20.1108  -28.1453   19.6310 N   0  0  0  0  0  0  0  0  0  0  0  0
  -30.3456  -20.0961   17.7699 N   0  0  0  0  0  0  0  0  0  0  0  0
  -20.4430  -27.4371   16.1017 N   0  3  0  0  0  0  0  0  0  0  0  0
  -30.2406  -13.1706   21.3627 O   0  0  0  0  0  0  0  0  0  0  0  0
  -23.5191  -29.6951   23.5605 O   0  0  0  0  0  0  0  0  0  0  0  0
  -20.6891  -30.4730   21.1981 O   0  0  0  0  0  0  0  0  0  0  0  0
  -21.4770  -26.5948   18.5792 O   0  0  0  0  0  0  0  0  0  0  0  0
  -28.5730  -21.1587   16.7496 O   0  0  0  0  0  0  0  0  0  0  0  0
  -23.0756  -10.3794   20.1552 O   0  0  0  0  0  0  0  0  0  0  0  0
  -28.1334  -26.5965   20.0091 O   0  0  0  0  0  0  0  0  0  1  0  0
  -22.9860   -6.6635   24.2280 F   0  0  0  0  0  0  0  0  0  0  0  0
  -20.8220  -10.0455   21.7212 F   0  0  0  0  0  0  0  0  0  0  0  0
  1  2  1  0  0  0  0
  1  5  2  0  0  0  0
  2  6  2  0  0  0  0
  3  8  2  0  0  0  0
  3 15  1  0  0  0  0
  4  9  1  0  0  0  0
  4 15  2  0  0  0  0
  5 17  1  0  0  0  0
  6 19  1  0  0  0  0
  7 10  2  0  0  0  0
  7 18  1  0  0  0  0
  8 21  1  0  0  0  0
  9 21  2  0  0  0  0
 10 22  1  0  0  0  0
 11 12  2  0  0  0  0
 11 23  1  0  0  0  0
 12 24  1  0  0  0  0
 13 20  1  0  0  0  0
 13 22  2  0  0  0  0
 14 24  2  0  0  0  0
 14 25  1  0  0  0  0
 15 26  1  0  0  0  0
 16 26  1  0  0  0  0
 16 31  2  0  0  0  0
 16 32  1  0  0  0  0
 17 19  2  0  0  0  0
 17 37  1  0  0  0  0
 18 20  2  0  0  0  0
 18 38  1  0  0  0  0
 19 46  1  0  0  0  0
 20 39  1  0  0  0  0
 21 81  1  0  0  0  0
 22 82  1  0  0  0  0
 23 25  2  0  0  0  0
 23 81  1  0  0  0  0
 24 83  1  0  0  0  0
 25 84  1  0  0  0  0
 26 64  2  0  0  0  0
 27 30  1  0  0  0  0
 27 49  1  0  0  0  0
 27 65  2  0  0  0  0
 28 29  2  0  0  0  0
 28 57  1  0  0  0  0
 28 66  1  0  0  0  0
 29 58  1  0  0  0  0
 29 65  1  0  0  0  0
 30 59  1  0  0  0  0
 30 66  2  0  0  0  0
 31 67  1  0  0  0  0
 31 70  1  0  0  0  0
 32 71  1  0  0  0  0
 32 76  2  0  0  0  0
 33 47  1  0  0  0  0
 33 72  1  0  0  0  0
 33 77  2  0  0  0  0
 34 61  1  0  0  0  0
 34 68  1  0  0  0  0
 34 78  2  0  0  0  0
 35 62  1  0  0  0  0
 35 73  1  0  0  0  0
 35 79  2  0  0  0  0
 36 69  1  0  0  0  0
 36 74  1  0  0  0  0
 36 80  2  0  0  0  0
 37 40  1  0  0  0  0
 38 47  1  0  0  0  0
 39 68  1  0  0  0  0
 40 42  1  0  0  0  0
 41 43  1  0  0  0  0
 41 44  1  0  0  0  0
 42 46  1  0  0  0  0
 43 48  1  0  0  0  0
 44 69  1  0  0  0  0
 45 48  1  0  0  0  0
 45 69  1  0  0  0  0
 46 72  1  0  0  0  0
 47 68  1  0  0  0  0
 48 67  1  0  0  0  0
 50 57  1  0  0  0  0
 51 62  1  0  0  0  0
 52 63  1  0  0  0  0
 53 63  1  0  0  0  0
 54 63  1  0  0  0  0
 55 74  1  0  0  0  0
 56 75  1  0  0  0  0
 58 60  1  0  0  0  0
 59 82  1  0  0  0  0
 60 74  1  0  0  0  0
 61 63  1  0  0  0  0
 61 73  1  0  0  0  0
 62 75  1  0  0  0  0
 64 67  1  0  0  0  0
M  CHG  1  75   1
M  ISO  4  36 100  59 101  74 100  82 101
M  END
> <Batch ID>
0059

> <Smiles>
CCc1nc([101CH2:1][101O:1]c2ccc3c(c2)CN(C(=O)C(NC(=O)C(C)NC)C(C)(C)C)C(C(=O)NC2CCCc4ccccc42)C3)c(C)nc1CC[100N:0](C)[100C:0](=O)N1CCCC(n2nc(-c3ccc(Oc4ccc(F)cc4F)cc3)c(C(N)=O)c2N)C1

> <Shape>
0.327

> <Color>
0.079

> <Negative vol penalty>
0.000

$$$$

  -OEChem-04052317533D

 82 90  0     1  0  0  0  0  0999 V2000
  -19.4330  -22.0205   23.7126 C   0  0  0  0  0  0  0  0  0  0  0  0
  -20.7691  -21.6561   23.5799 C   0  0  0  0  0  0  0  0  0  0  0  0
  -26.9567  -13.1690   20.9921 C   0  0  0  0  0  0  0  0  0  0  0  0
  -25.0310  -13.3064   19.5395 C   0  0  0  0  0  0  0  0  0  0  0  0
  -18.9463  -23.1387   23.0368 C   0  0  0  0  0  0  0  0  0  0  0  0
  -21.6189  -22.4090   22.7704 C   0  0  0  0  0  0  0  0  0  0  0  0
  -28.4468  -24.5215   22.2868 C   0  0  0  0  0  0  0  0  0  0  0  0
  -26.2518  -12.3210   21.8464 C   0  0  0  0  0  0  0  0  0  0  0  0
  -24.3262  -12.4584   20.3937 C   0  0  0  0  0  0  0  0  0  0  0  0
  -29.5085  -24.5353   21.3833 C   0  0  0  0  0  0  0  0  0  0  0  0
  -24.1649   -9.1443   21.0353 C   0  0  0  0  0  0  0  0  0  0  0  0
  -23.4314   -8.1083   20.4573 C   0  0  0  0  0  0  0  0  0  0  0  0
  -28.5759  -26.4931   20.3266 C   0  0  0  0  0  0  0  0  0  0  0  0
  -21.4060   -9.0029   21.4240 C   0  0  0  0  0  0  0  0  0  0  0  0
  -29.5294  -22.5310   15.7934 C   0  0  0  0  0  0  0  0  0  0  0  0
  -26.3463  -13.6618   19.8387 C   0  0  0  0  0  0  0  0  0  0  0  0
  -27.8743  -14.1670   17.8595 C   0  0  0  0  0  0  0  0  0  0  0  0
  -19.7929  -23.9114   22.2263 C   0  0  0  0  0  0  0  0  0  0  0  0
  -27.4342  -25.4885   22.2100 C   0  0  0  0  0  0  0  0  0  0  0  0
  -21.1427  -23.5378   22.0821 C   0  0  0  0  0  0  0  0  0  0  0  0
  -27.5038  -26.4909   21.2319 C   0  0  0  0  0  0  0  0  0  0  0  0
  -24.9366  -11.9657   21.5472 C   0  0  0  0  0  0  0  0  0  0  0  0
  -29.5717  -25.5195   20.4012 C   0  0  0  0  0  0  0  0  0  0  0  0
  -23.5191  -10.1096   21.8078 C   0  0  0  0  0  0  0  0  0  0  0  0
  -22.0520   -8.0376   20.6516 C   0  0  0  0  0  0  0  0  0  0  0  0
  -22.1396  -10.0389   22.0021 C   0  0  0  0  0  0  0  0  0  0  0  0
  -27.0737  -14.5382   18.9562 C   0  0  0  0  0  0  0  0  0  0  0  0
  -29.6154  -23.6397   16.5874 C   0  0  0  0  0  0  0  0  0  0  0  0
  -28.3387  -15.3570   17.3549 C   0  0  0  0  0  0  0  0  0  0  0  0
  -27.6920  -22.6343   17.0237 C   0  0  0  0  0  0  0  0  0  0  0  0
  -28.1715  -12.8629   17.3428 C   0  0  0  0  0  0  0  0  0  0  0  0
  -24.2995  -25.4174   21.6885 C   0  0  0  0  0  0  0  0  0  0  0  0
  -24.5090  -28.5832   22.3640 C   0  0  0  0  0  0  0  0  0  0  0  0
  -26.0956  -20.8487   17.6457 C   0  0  0  0  0  0  0  0  0  0  0  0
  -26.4365  -31.3965   22.4941 C   0  0  0  0  0  0  0  0  0  0  0  0
  -19.2100  -25.0841   21.4781 C   0  0  0  0  0  0  0  0  0  0  0  0
  -26.3097  -25.4757   23.2088 C   0  0  0  0  0  0  0  0  0  0  0  0
  -26.4527  -27.5637   21.1198 C   0  0  0  0  0  0  0  0  0  0  0  0
  -20.2644  -26.0462   20.9369 C   0  0  0  0  0  0  0  0  0  0  0  0
  -29.4302  -19.8187   18.6686 C   0  0  0  0  0  0  0  0  0  0  0  0
  -21.3863  -25.2761   20.2477 C   0  0  0  0  0  0  0  0  0  0  0  0
  -29.2603  -18.3045   18.7844 C   0  0  0  0  0  0  0  0  0  0  0  0
  -28.1650  -20.5596   19.0933 C   0  0  0  0  0  0  0  0  0  0  0  0
  -26.7666  -18.6149   18.4711 C   0  0  0  0  0  0  0  0  0  0  0  0
  -22.1016  -24.3437   21.2329 C   0  0  1  0  0  0  0  0  0  0  0  0
  -25.0637  -26.2045   22.7152 C   0  0  1  0  0  0  0  0  0  0  0  0
  -28.0105  -17.8295   18.0228 C   0  0  2  0  0  0  0  0  0  0  0  0
  -26.3190  -33.8409   23.0494 C   0  0  0  0  0  0  0  0  0  0  0  0
  -25.2186  -22.9939   16.8104 C   0  0  0  0  0  0  0  0  0  0  0  0
  -26.1670  -22.7610   19.1083 C   0  0  0  0  0  0  0  0  0  0  0  0
  -23.0927  -29.1147   19.7141 C   0  0  0  0  0  0  0  0  0  0  0  0
  -23.8445  -31.4977   19.8702 C   0  0  0  0  0  0  0  0  0  0  0  0
  -22.3290  -30.5531   21.6120 C   0  0  0  0  0  0  0  0  0  0  0  0
  -27.8358  -20.7131   15.4669 C   0  0  0  0  0  0  0  0  0  0  0  0
  -28.4324  -31.1187   24.6616 C   0  0  0  0  0  0  0  0  0  0  0  0
  -30.6889  -24.6904   16.7184 C   0  0  0  0  0  0  0  0  0  0  0  0
  -31.7513  -24.3579   17.7682 C   0  0  0  0  0  0  0  0  0  0  0  0
  -31.1957  -24.2784   19.1854 C   0  0  0  0  0  0  0  0  0  1  0  0
  -24.7525  -29.8350   21.5560 C   0  0  1  0  0  0  0  0  0  0  0  0
  -26.6156  -32.4456   23.5766 C   0  0  2  0  0  0  0  0  0  0  0  0
  -26.3679  -22.3317   17.6222 C   0  0  0  0  0  0  0  0  0  0  0  0
  -23.5236  -30.2289   20.6887 C   0  0  0  0  0  0  0  0  0  0  0  0
  -27.0299  -15.8607   19.1385 N   0  0  0  0  0  0  0  0  0  0  0  0
  -28.3296  -21.9279   16.0846 N   0  0  0  0  0  0  0  0  0  0  0  0
  -27.8090  -16.3308   18.1495 N   0  0  0  0  0  0  0  0  0  0  0  0
  -28.4650  -23.6789   17.3378 N   0  3  0  0  0  0  0  0  0  0  0  0
  -25.3698  -27.5048   22.1155 N   0  0  0  0  0  0  0  0  0  0  0  0
  -26.9930  -20.0592   18.3651 N   0  0  0  0  0  0  0  0  0  0  0  0
  -29.1446  -15.6550   16.3137 N   0  0  0  0  0  0  0  0  0  0  0  0
  -27.6115  -11.7478   17.9810 N   0  0  0  0  0  0  0  0  0  0  0  0
  -23.0112  -25.0956   22.0707 N   0  0  0  0  0  0  0  0  0  0  0  0
  -25.1660  -30.8609   22.5073 N   0  0  0  0  0  0  0  0  0  0  0  0
  -28.0140  -32.4252   24.0914 N   0  3  0  0  0  0  0  0  0  0  0  0
  -28.9250  -12.6907   16.3548 O   0  0  0  0  0  0  0  0  0  0  0  0
  -24.8382  -25.1252   20.6273 O   0  0  0  0  0  0  0  0  0  0  0  0
  -23.5934  -28.5654   23.1904 O   0  0  0  0  0  0  0  0  0  0  0  0
  -25.1157  -20.4069   17.0401 O   0  0  0  0  0  0  0  0  0  0  0  0
  -27.3327  -31.0861   21.7125 O   0  0  0  0  0  0  0  0  0  0  0  0
  -24.2486  -11.1380   22.3804 O   0  0  0  0  0  0  0  0  0  0  0  0
  -30.6066  -25.5349   19.5176 O   0  0  0  0  0  0  0  0  0  1  0  0
  -21.3475   -7.0435   20.0952 F   0  0  0  0  0  0  0  0  0  0  0  0
  -21.5134  -10.9641   22.7422 F   0  0  0  0  0  0  0  0  0  0  0  0
  1  2  1  0  0  0  0
  1  5  2  0  0  0  0
  2  6  2  0  0  0  0
  3  8  2  0  0  0  0
  3 16  1  0  0  0  0
  4  9  1  0  0  0  0
  4 16  2  0  0  0  0
  5 18  1  0  0  0  0
  6 20  1  0  0  0  0
  7 10  2  0  0  0  0
  7 19  1  0  0  0  0
  8 22  1  0  0  0  0
  9 22  2  0  0  0  0
 10 23  1  0  0  0  0
 11 12  2  0  0  0  0
 11 24  1  0  0  0  0
 12 25  1  0  0  0  0
 13 21  1  0  0  0  0
 13 23  2  0  0  0  0
 14 25  2  0  0  0  0
 14 26  1  0  0  0  0
 15 28  2  0  0  0  0
 15 64  1  0  0  0  0
 16 27  1  0  0  0  0
 17 27  1  0  0  0  0
 17 29  2  0  0  0  0
 17 31  1  0  0  0  0
 18 20  2  0  0  0  0
 18 36  1  0  0  0  0
 19 21  2  0  0  0  0
 19 37  1  0  0  0  0
 20 45  1  0  0  0  0
 21 38  1  0  0  0  0
 22 79  1  0  0  0  0
 23 80  1  0  0  0  0
 24 26  2  0  0  0  0
 24 79  1  0  0  0  0
 25 81  1  0  0  0  0
 26 82  1  0  0  0  0
 27 63  2  0  0  0  0
 28 56  1  0  0  0  0
 28 66  1  0  0  0  0
 29 65  1  0  0  0  0
 29 69  1  0  0  0  0
 30 61  1  0  0  0  0
 30 64  1  0  0  0  0
 30 66  2  0  0  0  0
 31 70  1  0  0  0  0
 31 74  2  0  0  0  0
 32 46  1  0  0  0  0
 32 71  1  0  0  0  0
 32 75  2  0  0  0  0
 33 59  1  0  0  0  0
 33 67  1  0  0  0  0
 33 76  2  0  0  0  0
 34 61  1  0  0  0  0
 34 68  1  0  0  0  0
 34 77  2  0  0  0  0
 35 60  1  0  0  0  0
 35 72  1  0  0  0  0
 35 78  2  0  0  0  0
 36 39  1  0  0  0  0
 37 46  1  0  0  0  0
 38 67  1  0  0  0  0
 39 41  1  0  0  0  0
 40 42  1  0  0  0  0
 40 43  1  0  0  0  0
 41 45  1  0  0  0  0
 42 47  1  0  0  0  0
 43 68  1  0  0  0  0
 44 47  1  0  0  0  0
 44 68  1  0  0  0  0
 45 71  1  0  0  0  0
 46 67  1  0  0  0  0
 47 65  1  0  0  0  0
 48 60  1  0  0  0  0
 49 61  1  0  0  0  0
 50 61  1  0  0  0  0
 51 62  1  0  0  0  0
 52 62  1  0  0  0  0
 53 62  1  0  0  0  0
 54 64  1  0  0  0  0
 55 73  1  0  0  0  0
 56 57  1  0  0  0  0
 57 58  1  0  0  0  0
 58 80  1  0  0  0  0
 59 62  1  0  0  0  0
 59 72  1  0  0  0  0
 60 73  1  0  0  0  0
 63 65  1  0  0  0  0
M  CHG  2  66   1  73   1
M  ISO  4  34 100  58 101  61 100  80 101
M  END
> <Batch ID>
0059

> <Smiles>
CNC(C)C(=O)NC(C(=O)N1Cc2cc([101O:1][101CH2:1]CCc3cn(C)c([100C:0](C)(C)[100C:0](=O)N4CCCC(n5nc(-c6ccc(Oc7ccc(F)cc7F)cc6)c(C(N)=O)c5N)C4)n3)ccc2CC1C(=O)NC1CCCc2ccccc21)C(C)(C)C

> <Shape>
0.231

> <Color>
0.067

> <Negative vol penalty>
0.000

$$$$

  -OEChem-04052317533D

 83 91  0     1  0  0  0  0  0999 V2000
  -16.6857  -25.8839   21.9714 C   0  0  0  0  0  0  0  0  0  0  0  0
  -17.8622  -25.8515   21.2297 C   0  0  0  0  0  0  0  0  0  0  0  0
  -24.1080  -13.8613   21.1116 C   0  0  0  0  0  0  0  0  0  0  0  0
  -26.4589  -13.3048   21.1373 C   0  0  0  0  0  0  0  0  0  0  0  0
  -16.4653  -26.9164   22.8821 C   0  0  0  0  0  0  0  0  0  0  0  0
  -18.8187  -26.8522   21.3975 C   0  0  0  0  0  0  0  0  0  0  0  0
  -23.5239  -25.0079   21.7212 C   0  0  0  0  0  0  0  0  0  0  0  0
  -23.8747  -12.8334   20.1979 C   0  0  0  0  0  0  0  0  0  0  0  0
  -26.2256  -12.2769   20.2237 C   0  0  0  0  0  0  0  0  0  0  0  0
  -24.1417  -24.6270   20.5309 C   0  0  0  0  0  0  0  0  0  0  0  0
  -25.0198   -9.1205   20.2824 C   0  0  0  0  0  0  0  0  0  0  0  0
  -25.6225   -7.8870   20.5290 C   0  0  0  0  0  0  0  0  0  0  0  0
  -25.3570  -26.7106   20.5019 C   0  0  0  0  0  0  0  0  0  0  0  0
  -26.7956   -8.0391   18.4223 C   0  0  0  0  0  0  0  0  0  0  0  0
  -28.7015  -25.3633   17.9639 C   0  0  0  0  0  0  0  0  0  0  0  0
  -25.4001  -14.0970   21.5812 C   0  0  0  0  0  0  0  0  0  0  0  0
  -25.6063  -15.0727   23.9293 C   0  0  0  0  0  0  0  0  0  0  0  0
  -17.4238  -27.9251   23.0681 C   0  0  0  0  0  0  0  0  0  0  0  0
  -23.8102  -26.2499   22.3061 C   0  0  0  0  0  0  0  0  0  0  0  0
  -18.6103  -27.8999   22.3105 C   0  0  0  0  0  0  0  0  0  0  0  0
  -24.7433  -27.1039   21.7010 C   0  0  0  0  0  0  0  0  0  0  0  0
  -24.9335  -12.0413   19.7540 C   0  0  0  0  0  0  0  0  0  0  0  0
  -25.0563  -25.4796   19.9195 C   0  0  0  0  0  0  0  0  0  0  0  0
  -25.3048   -9.8132   19.1057 C   0  0  0  0  0  0  0  0  0  0  0  0
  -26.5105   -7.3463   19.5990 C   0  0  0  0  0  0  0  0  0  0  0  0
  -26.1927   -9.2725   18.1757 C   0  0  0  0  0  0  0  0  0  0  0  0
  -25.6419  -15.1589   22.5246 C   0  0  0  0  0  0  0  0  0  0  0  0
  -29.8796  -25.7866   18.5447 C   0  0  0  0  0  0  0  0  0  0  0  0
  -28.3435  -24.0563   18.2242 C   0  0  0  0  0  0  0  0  0  0  0  0
  -25.9031  -16.3430   24.3589 C   0  0  0  0  0  0  0  0  0  0  0  0
  -30.1993  -23.7490   19.5003 C   0  0  0  0  0  0  0  0  0  0  0  0
  -25.3297  -13.9450   24.7705 C   0  0  0  0  0  0  0  0  0  0  0  0
  -22.1151  -28.8489   22.9954 C   0  0  0  0  0  0  0  0  0  0  0  0
  -24.8742  -29.7976   24.4130 C   0  0  0  0  0  0  0  0  0  0  0  0
  -28.2711  -29.5338   24.6075 C   0  0  0  0  0  0  0  0  0  0  0  0
  -28.9621  -20.7279   21.8547 C   0  0  0  0  0  0  0  0  0  0  0  0
  -17.1202  -29.0466   24.0297 C   0  0  0  0  0  0  0  0  0  0  0  0
  -23.1553  -26.6346   23.6043 C   0  0  0  0  0  0  0  0  0  0  0  0
  -25.1006  -28.4392   22.2991 C   0  0  0  0  0  0  0  0  0  0  0  0
  -18.3491  -29.8637   24.4200 C   0  0  0  0  0  0  0  0  0  0  0  0
  -25.5440  -20.9262   23.0273 C   0  0  0  0  0  0  0  0  0  0  0  0
  -19.1699  -30.2172   23.1838 C   0  0  0  0  0  0  0  0  0  0  0  0
  -25.1829  -19.4459   23.1637 C   0  0  0  0  0  0  0  0  0  0  0  0
  -26.4329  -21.1686   21.8111 C   0  0  0  0  0  0  0  0  0  0  0  0
  -27.3206  -18.8722   21.9224 C   0  0  0  0  0  0  0  0  0  0  0  0
  -19.6827  -28.9538   22.4822 C   0  0  1  0  0  0  0  0  0  0  0  0
  -23.1365  -28.1417   23.8405 C   0  0  1  0  0  0  0  0  0  0  0  0
  -26.4414  -18.5582   23.1465 C   0  0  2  0  0  0  0  0  0  0  0  0
  -29.8157  -28.1514   19.3753 C   0  0  0  0  0  0  0  0  0  0  0  0
  -30.2520  -30.4633   25.8361 C   0  0  0  0  0  0  0  0  0  0  0  0
  -24.7027  -32.3516   22.7523 C   0  0  0  0  0  0  0  0  0  0  0  0
  -27.1113  -32.7777   23.2864 C   0  0  0  0  0  0  0  0  0  0  0  0
  -25.4243  -32.6947   25.1221 C   0  0  0  0  0  0  0  0  0  0  0  0
  -28.9878  -26.8774   25.6978 C   0  0  0  0  0  0  0  0  0  0  0  0
  -30.3487  -27.1851   18.3209 C   0  0  0  0  0  0  0  0  0  0  0  0
  -27.0693  -23.5028   17.6338 C   0  0  0  0  0  0  0  0  0  0  0  0
  -31.0288  -22.8530   20.3564 C   0  0  0  0  0  0  0  0  0  0  0  0
  -30.4839  -22.6863   21.7801 C   0  0  0  0  0  0  0  0  0  0  0  0
  -25.8672  -23.7142   18.5478 C   0  0  0  0  0  0  0  0  0  1  0  0
  -26.1024  -30.5520   23.9641 C   0  0  1  0  0  0  0  0  0  0  0  0
  -29.2019  -29.3640   25.7946 C   0  0  2  0  0  0  0  0  0  0  0  0
  -25.8272  -32.0697   23.7687 C   0  0  0  0  0  0  0  0  0  0  0  0
  -25.9378  -16.3870   22.0908 N   0  0  0  0  0  0  0  0  0  0  0  0
  -30.6562  -25.0031   19.3215 N   0  0  0  0  0  0  0  0  0  0  0  0
  -29.0715  -23.2180   18.9906 N   0  0  0  0  0  0  0  0  0  0  0  0
  -26.0908  -17.0842   23.2295 N   0  0  0  0  0  0  0  0  0  0  0  0
  -24.4289  -28.7730   23.5659 N   0  0  0  0  0  0  0  0  0  0  0  0
  -27.6220  -20.3065   21.8652 N   0  0  0  0  0  0  0  0  0  0  0  0
  -26.0192  -16.8872   25.5889 N   0  0  0  0  0  0  0  0  0  0  0  0
  -25.0441  -12.7138   24.1648 N   0  0  0  0  0  0  0  0  0  0  0  0
  -20.8201  -28.4082   23.1915 N   0  0  0  0  0  0  0  0  0  0  0  0
  -27.1440  -30.2545   24.9412 N   0  0  0  0  0  0  0  0  0  0  0  0
  -29.1614  -22.1016   21.7923 N   0  0  0  0  0  0  0  0  0  0  0  0
  -29.9003  -28.0495   25.7215 N   0  3  0  0  0  0  0  0  0  0  0  0
  -25.3195  -14.0307   26.0219 O   0  0  0  0  0  0  0  0  0  0  0  0
  -22.4749  -29.7302   22.2238 O   0  0  0  0  0  0  0  0  0  0  0  0
  -24.3341  -30.1015   25.4796 O   0  0  0  0  0  0  0  0  0  0  0  0
  -28.5209  -29.0762   23.4945 O   0  0  0  0  0  0  0  0  0  0  0  0
  -29.9114  -19.9382   21.9031 O   0  0  0  0  0  0  0  0  0  0  0  0
  -24.7061  -11.0381   18.8627 O   0  0  0  0  0  0  0  0  0  0  0  0
  -25.6603  -25.1105   18.7573 O   0  0  0  0  0  0  0  0  0  1  0  0
  -27.0904   -6.1626   19.8367 F   0  0  0  0  0  0  0  0  0  0  0  0
  -26.4714   -9.9339   17.0440 F   0  0  0  0  0  0  0  0  0  0  0  0
  1  2  1  0  0  0  0
  1  5  2  0  0  0  0
  2  6  2  0  0  0  0
  3  8  2  0  0  0  0
  3 16  1  0  0  0  0
  4  9  1  0  0  0  0
  4 16  2  0  0  0  0
  5 18  1  0  0  0  0
  6 20  1  0  0  0  0
  7 10  2  0  0  0  0
  7 19  1  0  0  0  0
  8 22  1  0  0  0  0
  9 22  2  0  0  0  0
 10 23  1  0  0  0  0
 11 12  2  0  0  0  0
 11 24  1  0  0  0  0
 12 25  1  0  0  0  0
 13 21  1  0  0  0  0
 13 23  2  0  0  0  0
 14 25  2  0  0  0  0
 14 26  1  0  0  0  0
 15 28  1  0  0  0  0
 15 29  2  0  0  0  0
 16 27  1  0  0  0  0
 17 27  1  0  0  0  0
 17 30  2  0  0  0  0
 17 32  1  0  0  0  0
 18 20  2  0  0  0  0
 18 37  1  0  0  0  0
 19 21  2  0  0  0  0
 19 38  1  0  0  0  0
 20 46  1  0  0  0  0
 21 39  1  0  0  0  0
 22 80  1  0  0  0  0
 23 81  1  0  0  0  0
 24 26  2  0  0  0  0
 24 80  1  0  0  0  0
 25 82  1  0  0  0  0
 26 83  1  0  0  0  0
 27 63  2  0  0  0  0
 28 55  1  0  0  0  0
 28 64  2  0  0  0  0
 29 56  1  0  0  0  0
 29 65  1  0  0  0  0
 30 66  1  0  0  0  0
 30 69  1  0  0  0  0
 31 57  1  0  0  0  0
 31 64  1  0  0  0  0
 31 65  2  0  0  0  0
 32 70  1  0  0  0  0
 32 75  2  0  0  0  0
 33 47  1  0  0  0  0
 33 71  1  0  0  0  0
 33 76  2  0  0  0  0
 34 60  1  0  0  0  0
 34 67  1  0  0  0  0
 34 77  2  0  0  0  0
 35 61  1  0  0  0  0
 35 72  1  0  0  0  0
 35 78  2  0  0  0  0
 36 68  1  0  0  0  0
 36 73  1  0  0  0  0
 36 79  2  0  0  0  0
 37 40  1  0  0  0  0
 38 47  1  0  0  0  0
 39 67  1  0  0  0  0
 40 42  1  0  0  0  0
 41 43  1  0  0  0  0
 41 44  1  0  0  0  0
 42 46  1  0  0  0  0
 43 48  1  0  0  0  0
 44 68  1  0  0  0  0
 45 48  1  0  0  0  0
 45 68  1  0  0  0  0
 46 71  1  0  0  0  0
 47 67  1  0  0  0  0
 48 66  1  0  0  0  0
 49 55  1  0  0  0  0
 50 61  1  0  0  0  0
 51 62  1  0  0  0  0
 52 62  1  0  0  0  0
 53 62  1  0  0  0  0
 54 74  1  0  0  0  0
 56 59  1  0  0  0  0
 57 58  1  0  0  0  0
 58 73  1  0  0  0  0
 59 81  1  0  0  0  0
 60 62  1  0  0  0  0
 60 72  1  0  0  0  0
 61 74  1  0  0  0  0
 63 66  1  0  0  0  0
M  CHG  1  74   1
M  ISO  4  36 100  59 101  73 100  81 101
M  END
> <Batch ID>
0059

> <Smiles>
CCc1cc(C[101CH2:1][101O:1]c2ccc3c(c2)CN(C(=O)C(NC(=O)C(C)NC)C(C)(C)C)C(C(=O)NC2CCCc4ccccc42)C3)nc(CC[100NH:0][100C:0](=O)N2CCCC(n3nc(-c4ccc(Oc5ccc(F)cc5F)cc4)c(C(N)=O)c3N)C2)n1

> <Shape>
0.225

> <Color>
0.066

> <Negative vol penalty>
0.000

$$$$

  -OEChem-04052317533D

 82 90  0     1  0  0  0  0  0999 V2000
  -23.8099  -31.4594   21.6426 C   0  0  0  0  0  0  0  0  0  0  0  0
  -23.3046  -30.3574   20.9603 C   0  0  0  0  0  0  0  0  0  0  0  0
  -23.8816  -15.6602   23.5768 C   0  0  0  0  0  0  0  0  0  0  0  0
  -25.0483  -13.8704   24.7049 C   0  0  0  0  0  0  0  0  0  0  0  0
  -25.1868  -31.6711   21.7001 C   0  0  0  0  0  0  0  0  0  0  0  0
  -24.1760  -29.4669   20.3340 C   0  0  0  0  0  0  0  0  0  0  0  0
  -23.4700  -23.4100   19.7671 C   0  0  0  0  0  0  0  0  0  0  0  0
  -23.5083  -16.1942   24.8101 C   0  0  0  0  0  0  0  0  0  0  0  0
  -24.6750  -14.4044   25.9382 C   0  0  0  0  0  0  0  0  0  0  0  0
  -23.0043  -22.6137   18.7217 C   0  0  0  0  0  0  0  0  0  0  0  0
  -23.7274  -15.0943   29.3786 C   0  0  0  0  0  0  0  0  0  0  0  0
  -23.2493  -14.2134   30.3486 C   0  0  0  0  0  0  0  0  0  0  0  0
  -25.2768  -22.2325   18.0078 C   0  0  0  0  0  0  0  0  0  0  0  0
  -21.4462  -13.5694   28.8750 C   0  0  0  0  0  0  0  0  0  0  0  0
  -24.8778  -16.2604   17.3228 C   0  0  0  0  0  0  0  0  0  0  0  0
  -26.4729  -17.6228   16.6637 C   0  0  0  0  0  0  0  0  0  0  0  0
  -24.6515  -14.4982   23.5242 C   0  0  0  0  0  0  0  0  0  0  0  0
  -24.1831  -13.4989   21.2242 C   0  0  0  0  0  0  0  0  0  0  0  0
  -26.0760  -30.7774   21.0825 C   0  0  0  0  0  0  0  0  0  0  0  0
  -24.8443  -23.6328   19.9345 C   0  0  0  0  0  0  0  0  0  0  0  0
  -25.5660  -29.6675   20.3822 C   0  0  0  0  0  0  0  0  0  0  0  0
  -25.7575  -23.0299   19.0577 C   0  0  0  0  0  0  0  0  0  0  0  0
  -25.1702  -17.2793   16.3964 C   0  0  0  0  0  0  0  0  0  0  0  0
  -23.9050  -15.5664   25.9908 C   0  0  0  0  0  0  0  0  0  0  0  0
  -23.9076  -22.0272   17.8401 C   0  0  0  0  0  0  0  0  0  0  0  0
  -23.0649  -15.2129   28.1568 C   0  0  0  0  0  0  0  0  0  0  0  0
  -22.1087  -13.4509   30.0968 C   0  0  0  0  0  0  0  0  0  0  0  0
  -21.9243  -14.4504   27.9050 C   0  0  0  0  0  0  0  0  0  0  0  0
  -25.0369  -13.9457   22.2505 C   0  0  0  0  0  0  0  0  0  0  0  0
  -25.0322  -13.0701   20.2335 C   0  0  0  0  0  0  0  0  0  0  0  0
  -22.7505  -13.4739   21.1713 C   0  0  0  0  0  0  0  0  0  0  0  0
  -26.7245  -26.1951   19.8792 C   0  0  0  0  0  0  0  0  0  0  0  0
  -28.9900  -24.0713   20.8168 C   0  0  0  0  0  0  0  0  0  0  0  0
  -30.0538  -20.8305   20.9291 C   0  0  0  0  0  0  0  0  0  0  0  0
  -30.8770  -14.6432   19.2836 C   0  0  0  0  0  0  0  0  0  0  0  0
  -27.5540  -31.0737   21.1317 C   0  0  0  0  0  0  0  0  0  0  0  0
  -25.3320  -24.4725   21.0831 C   0  0  0  0  0  0  0  0  0  0  0  0
  -27.2440  -23.2213   19.2061 C   0  0  0  0  0  0  0  0  0  0  0  0
  -28.4275  -29.8783   20.7597 C   0  0  0  0  0  0  0  0  0  0  0  0
  -29.4019  -11.2591   19.5549 C   0  0  0  0  0  0  0  0  0  0  0  0
  -27.9000  -29.2041   19.4971 C   0  0  0  0  0  0  0  0  0  0  0  0
  -28.0725  -11.5305   20.2569 C   0  0  0  0  0  0  0  0  0  0  0  0
  -30.4592  -12.2959   19.9220 C   0  0  0  0  0  0  0  0  0  0  0  0
  -28.7027  -13.9732   20.3866 C   0  0  0  0  0  0  0  0  0  0  0  0
  -26.4803  -28.6655   19.7113 C   0  0  1  0  0  0  0  0  0  0  0  0
  -26.7250  -25.0500   20.8520 C   0  0  1  0  0  0  0  0  0  0  0  0
  -27.6020  -12.9731   20.0021 C   0  0  2  0  0  0  0  0  0  0  0  0
  -31.4946  -18.8730   21.5535 C   0  0  0  0  0  0  0  0  0  0  0  0
  -30.6854  -25.0338   18.4697 C   0  0  0  0  0  0  0  0  0  0  0  0
  -32.0987  -22.9851   18.7405 C   0  0  0  0  0  0  0  0  0  0  0  0
  -31.9576  -24.6542   20.5890 C   0  0  0  0  0  0  0  0  0  0  0  0
  -31.2699  -16.7177   18.0102 C   0  0  0  0  0  0  0  0  0  0  0  0
  -28.5305  -20.3562   23.4218 C   0  0  0  0  0  0  0  0  0  0  0  0
  -24.2608  -17.8622   15.3444 C   0  0  0  0  0  0  0  0  0  0  0  0
  -23.4473  -19.0637   15.8306 C   0  0  0  0  0  0  0  0  0  0  0  0
  -28.1638  -16.8122   18.3258 C   0  0  0  0  0  0  0  0  0  0  0  0
  -29.0473  -15.6577   17.8603 C   0  0  0  0  0  0  0  0  0  0  0  0
  -24.3097  -20.1949   16.3782 C   0  0  0  0  0  0  0  0  0  1  0  0
  -29.9694  -23.1691   20.1056 C   0  0  1  0  0  0  0  0  0  0  0  0
  -30.5973  -19.9876   22.0687 C   0  0  2  0  0  0  0  0  0  0  0  0
  -31.1497  -23.9583   19.4720 C   0  0  0  0  0  0  0  0  0  0  0  0
  -25.9116  -15.9752   18.1190 N   0  0  0  0  0  0  0  0  0  0  0  0
  -26.3293  -13.8129   21.9404 N   0  0  0  0  0  0  0  0  0  0  0  0
  -26.8664  -16.8199   17.6936 N   0  0  0  0  0  0  0  0  0  0  0  0
  -26.2939  -13.2777   20.7081 N   0  0  0  0  0  0  0  0  0  0  0  0
  -27.6712  -24.0561   20.3411 N   0  0  0  0  0  0  0  0  0  0  0  0
  -29.9706  -13.6590   19.7110 N   0  0  0  0  0  0  0  0  0  0  0  0
  -24.8152  -12.5395   19.0113 N   0  0  0  0  0  0  0  0  0  0  0  0
  -22.0846  -12.3320   21.6372 N   0  0  0  0  0  0  0  0  0  0  0  0
  -26.5167  -27.4298   20.4638 N   0  0  0  0  0  0  0  0  0  0  0  0
  -30.3781  -22.1623   21.0790 N   0  0  0  0  0  0  0  0  0  0  0  0
  -30.3670  -15.6799   18.4875 N   0  0  0  0  0  0  0  0  0  0  0  0
  -29.4785  -19.3729   22.8376 N   0  3  0  0  0  0  0  0  0  0  0  0
  -22.0815  -14.4289   20.7088 O   0  0  0  0  0  0  0  0  0  0  0  0
  -26.9011  -25.9749   18.6867 O   0  0  0  0  0  0  0  0  0  0  0  0
  -29.3791  -24.7586   21.7644 O   0  0  0  0  0  0  0  0  0  0  0  0
  -29.4094  -20.3545   19.9971 O   0  0  0  0  0  0  0  0  0  0  0  0
  -32.0757  -14.5926   19.5879 O   0  0  0  0  0  0  0  0  0  0  0  0
  -23.5412  -16.0873   27.1945 O   0  0  0  0  0  0  0  0  0  0  0  0
  -23.4557  -21.2501   16.8185 O   0  0  0  0  0  0  0  0  0  1  0  0
  -21.6506  -12.6038   31.0278 F   0  0  0  0  0  0  0  0  0  0  0  0
  -21.2843  -14.5591   26.7327 F   0  0  0  0  0  0  0  0  0  0  0  0
  1  2  1  0  0  0  0
  1  5  2  0  0  0  0
  2  6  2  0  0  0  0
  3  8  2  0  0  0  0
  3 17  1  0  0  0  0
  4  9  1  0  0  0  0
  4 17  2  0  0  0  0
  5 19  1  0  0  0  0
  6 21  1  0  0  0  0
  7 10  2  0  0  0  0
  7 20  1  0  0  0  0
  8 24  1  0  0  0  0
  9 24  2  0  0  0  0
 10 25  1  0  0  0  0
 11 12  2  0  0  0  0
 11 26  1  0  0  0  0
 12 27  1  0  0  0  0
 13 22  1  0  0  0  0
 13 25  2  0  0  0  0
 14 27  2  0  0  0  0
 14 28  1  0  0  0  0
 15 23  1  0  0  0  0
 15 62  2  0  0  0  0
 16 23  2  0  0  0  0
 16 64  1  0  0  0  0
 17 29  1  0  0  0  0
 18 29  1  0  0  0  0
 18 30  2  0  0  0  0
 18 31  1  0  0  0  0
 19 21  2  0  0  0  0
 19 36  1  0  0  0  0
 20 22  2  0  0  0  0
 20 37  1  0  0  0  0
 21 45  1  0  0  0  0
 22 38  1  0  0  0  0
 23 54  1  0  0  0  0
 24 79  1  0  0  0  0
 25 80  1  0  0  0  0
 26 28  2  0  0  0  0
 26 79  1  0  0  0  0
 27 81  1  0  0  0  0
 28 82  1  0  0  0  0
 29 63  2  0  0  0  0
 30 65  1  0  0  0  0
 30 68  1  0  0  0  0
 31 69  1  0  0  0  0
 31 74  2  0  0  0  0
 32 46  1  0  0  0  0
 32 70  1  0  0  0  0
 32 75  2  0  0  0  0
 33 59  1  0  0  0  0
 33 66  1  0  0  0  0
 33 76  2  0  0  0  0
 34 60  1  0  0  0  0
 34 71  1  0  0  0  0
 34 77  2  0  0  0  0
 35 67  1  0  0  0  0
 35 72  1  0  0  0  0
 35 78  2  0  0  0  0
 36 39  1  0  0  0  0
 37 46  1  0  0  0  0
 38 66  1  0  0  0  0
 39 41  1  0  0  0  0
 40 42  1  0  0  0  0
 40 43  1  0  0  0  0
 41 45  1  0  0  0  0
 42 47  1  0  0  0  0
 43 67  1  0  0  0  0
 44 47  1  0  0  0  0
 44 67  1  0  0  0  0
 45 70  1  0  0  0  0
 46 66  1  0  0  0  0
 47 65  1  0  0  0  0
 48 60  1  0  0  0  0
 49 61  1  0  0  0  0
 50 61  1  0  0  0  0
 51 61  1  0  0  0  0
 52 72  1  0  0  0  0
 53 73  1  0  0  0  0
 54 55  1  0  0  0  0
 55 58  1  0  0  0  0
 56 57  1  0  0  0  0
 56 64  1  0  0  0  0
 57 72  1  0  0  0  0
 58 80  1  0  0  0  0
 59 61  1  0  0  0  0
 59 71  1  0  0  0  0
 60 73  1  0  0  0  0
 62 64  1  0  0  0  0
 63 65  1  0  0  0  0
M  CHG  1  73   1
M  ISO  4  35 100  58 101  72 100  80 101
M  END
> <Batch ID>
0059

> <Smiles>
CNC(C)C(=O)NC(C(=O)N1Cc2cc([101O:1][101CH2:1]CCc3cnn(CC[100N:0](C)[100C:0](=O)N4CCCC(n5nc(-c6ccc(Oc7ccc(F)cc7F)cc6)c(C(N)=O)c5N)C4)c3)ccc2CC1C(=O)NC1CCCc2ccccc21)C(C)(C)C

> <Shape>
0.191

> <Color>
0.110

> <Negative vol penalty>
0.000

$$$$

  -OEChem-04052317533D

 81 89  0     1  0  0  0  0  0999 V2000
  -30.3948  -13.2176   20.8920 C   0  0  0  0  0  0  0  0  0  0  0  0
  -29.9997  -14.5284   21.1390 C   0  0  0  0  0  0  0  0  0  0  0  0
  -28.4764  -26.4581   19.0507 C   0  0  0  0  0  0  0  0  0  0  0  0
  -26.5510  -25.2910   19.9268 C   0  0  0  0  0  0  0  0  0  0  0  0
  -29.6075  -12.3928   20.0896 C   0  0  0  0  0  0  0  0  0  0  0  0
  -28.8174  -15.0156   20.5828 C   0  0  0  0  0  0  0  0  0  0  0  0
  -24.9433  -19.0318   23.1062 C   0  0  0  0  0  0  0  0  0  0  0  0
  -29.0652  -25.2379   18.7191 C   0  0  0  0  0  0  0  0  0  0  0  0
  -27.1397  -24.0708   19.5952 C   0  0  0  0  0  0  0  0  0  0  0  0
  -24.7773  -20.4061   22.9405 C   0  0  0  0  0  0  0  0  0  0  0  0
  -29.5162  -22.0257   20.8606 C   0  0  0  0  0  0  0  0  0  0  0  0
  -29.4726  -21.0056   21.8108 C   0  0  0  0  0  0  0  0  0  0  0  0
  -23.0212  -19.9947   21.3386 C   0  0  0  0  0  0  0  0  0  0  0  0
  -28.2491  -19.6138   20.2606 C   0  0  0  0  0  0  0  0  0  0  0  0
  -22.7589  -25.3308   25.3306 C   0  0  0  0  0  0  0  0  0  0  0  0
  -24.3532  -26.2706   24.1432 C   0  0  0  0  0  0  0  0  0  0  0  0
  -27.2193  -26.4847   19.6547 C   0  0  0  0  0  0  0  0  0  0  0  0
  -25.7670  -28.5297   19.1894 C   0  0  0  0  0  0  0  0  0  0  0  0
  -28.4100  -12.8672   19.5312 C   0  0  0  0  0  0  0  0  0  0  0  0
  -24.1556  -18.1270   22.3800 C   0  0  0  0  0  0  0  0  0  0  0  0
  -28.0140  -14.1968   19.7711 C   0  0  0  0  0  0  0  0  0  0  0  0
  -23.1774  -18.6094   21.4988 C   0  0  0  0  0  0  0  0  0  0  0  0
  -23.4053  -25.2786   24.0811 C   0  0  0  0  0  0  0  0  0  0  0  0
  -28.3969  -24.0442   18.9913 C   0  0  0  0  0  0  0  0  0  0  0  0
  -23.8181  -20.8878   22.0544 C   0  0  0  0  0  0  0  0  0  0  0  0
  -28.9262  -21.8399   19.6103 C   0  0  0  0  0  0  0  0  0  0  0  0
  -28.8391  -19.7996   21.5109 C   0  0  0  0  0  0  0  0  0  0  0  0
  -28.2927  -20.6340   19.3103 C   0  0  0  0  0  0  0  0  0  0  0  0
  -26.6108  -27.7448   19.9980 C   0  0  0  0  0  0  0  0  0  0  0  0
  -25.4604  -29.6185   19.9685 C   0  0  0  0  0  0  0  0  0  0  0  0
  -25.3018  -28.2953   17.8536 C   0  0  0  0  0  0  0  0  0  0  0  0
  -24.7467  -15.8598   20.2320 C   0  0  0  0  0  0  0  0  0  0  0  0
  -21.5747  -15.2659   20.5604 C   0  0  0  0  0  0  0  0  0  0  0  0
  -25.3856  -30.3959   25.9268 C   0  0  0  0  0  0  0  0  0  0  0  0
  -18.4834  -16.4281   21.4206 C   0  0  0  0  0  0  0  0  0  0  0  0
  -27.6163  -11.9530   18.6319 C   0  0  0  0  0  0  0  0  0  0  0  0
  -24.3287  -16.6477   22.5900 C   0  0  0  0  0  0  0  0  0  0  0  0
  -22.2923  -17.6800   20.7106 C   0  0  0  0  0  0  0  0  0  0  0  0
  -26.1872  -12.4304   18.3864 C   0  0  0  0  0  0  0  0  0  0  0  0
  -27.2057  -32.3116   23.5067 C   0  0  0  0  0  0  0  0  0  0  0  0
  -26.1721  -13.9173   18.0463 C   0  0  0  0  0  0  0  0  0  0  0  0
  -27.2073  -31.4167   22.2680 C   0  0  0  0  0  0  0  0  0  0  0  0
  -27.2891  -31.4899   24.7892 C   0  0  0  0  0  0  0  0  0  0  0  0
  -26.2231  -29.5538   23.6772 C   0  0  0  0  0  0  0  0  0  0  0  0
  -26.7255  -14.7542   19.2060 C   0  0  1  0  0  0  0  0  0  0  0  0
  -23.8232  -15.8144   21.4164 C   0  0  1  0  0  0  0  0  0  0  0  0
  -26.1091  -30.3426   22.3606 C   0  0  2  0  0  0  0  0  0  0  0  0
  -16.0788  -15.7219   21.5486 C   0  0  0  0  0  0  0  0  0  0  0  0
  -23.4370  -29.5304   24.6669 C   0  0  0  0  0  0  0  0  0  0  0  0
  -23.4817  -29.4735   27.1655 C   0  0  0  0  0  0  0  0  0  0  0  0
  -21.3397  -15.5253   17.5293 C   0  0  0  0  0  0  0  0  0  0  0  0
  -18.8633  -15.7624   17.8115 C   0  0  0  0  0  0  0  0  0  0  0  0
  -20.0025  -13.6605   18.5235 C   0  0  0  0  0  0  0  0  0  0  0  0
  -18.3847  -16.8829   24.3434 C   0  0  0  0  0  0  0  0  0  0  0  0
  -23.1239  -24.3423   22.9311 C   0  0  0  0  0  0  0  0  0  0  0  0
  -25.0055  -27.9242   25.9092 C   0  0  0  0  0  0  0  0  0  0  0  0
  -23.9462  -23.0608   23.0123 C   0  0  0  0  0  0  0  0  0  1  0  0
  -20.3184  -15.7650   19.8885 C   0  0  1  0  0  0  0  0  0  0  0  0
  -17.3952  -15.8402   22.3007 C   0  0  2  0  0  0  0  0  0  0  0  0
  -24.3317  -29.3179   25.8939 C   0  0  0  0  0  0  0  0  0  0  0  0
  -20.1488  -15.1961   18.4515 C   0  0  0  0  0  0  0  0  0  0  0  0
  -23.2544  -26.2807   26.1282 N   0  0  0  0  0  0  0  0  0  0  0  0
  -26.8267  -28.2889   21.1986 N   0  0  0  0  0  0  0  0  0  0  0  0
  -24.2223  -26.8344   25.3782 N   0  0  0  0  0  0  0  0  0  0  0  0
  -26.1140  -29.4273   21.1501 N   0  0  0  0  0  0  0  0  0  0  0  0
  -22.5042  -16.2422   20.9460 N   0  0  0  0  0  0  0  0  0  0  0  0
  -26.2433  -30.4663   24.8289 N   0  0  0  0  0  0  0  0  0  0  0  0
  -24.6982  -30.7113   19.7511 N   0  0  0  0  0  0  0  0  0  0  0  0
  -25.7129  -27.1266   17.1983 N   0  0  0  0  0  0  0  0  0  0  0  0
  -25.7322  -14.8913   20.2495 N   0  0  0  0  0  0  0  0  0  0  0  0
  -19.2179  -15.4454   20.7914 N   0  0  0  0  0  0  0  0  0  0  0  0
  -17.1767  -16.6998   23.4983 N   0  3  0  0  0  0  0  0  0  0  0  0
  -24.5571  -29.1065   17.2528 O   0  0  0  0  0  0  0  0  0  0  0  0
  -24.5768  -16.7096   19.3656 O   0  0  0  0  0  0  0  0  0  0  0  0
  -21.7225  -14.0550   20.7431 O   0  0  0  0  0  0  0  0  0  0  0  0
  -25.4415  -31.1538   26.8988 O   0  0  0  0  0  0  0  0  0  0  0  0
  -18.6614  -17.6383   21.3002 O   0  0  0  0  0  0  0  0  0  0  0  0
  -28.9710  -22.8534   18.6677 O   0  0  0  0  0  0  0  0  0  0  0  0
  -23.6545  -22.2287   21.8903 O   0  0  0  0  0  0  0  0  0  1  0  0
  -28.7986  -18.8195   22.4230 F   0  0  0  0  0  0  0  0  0  0  0  0
  -27.7251  -20.4492   18.1105 F   0  0  0  0  0  0  0  0  0  0  0  0
  1  2  1  0  0  0  0
  1  5  2  0  0  0  0
  2  6  2  0  0  0  0
  3  8  2  0  0  0  0
  3 17  1  0  0  0  0
  4  9  1  0  0  0  0
  4 17  2  0  0  0  0
  5 19  1  0  0  0  0
  6 21  1  0  0  0  0
  7 10  2  0  0  0  0
  7 20  1  0  0  0  0
  8 24  1  0  0  0  0
  9 24  2  0  0  0  0
 10 25  1  0  0  0  0
 11 12  2  0  0  0  0
 11 26  1  0  0  0  0
 12 27  1  0  0  0  0
 13 22  1  0  0  0  0
 13 25  2  0  0  0  0
 14 27  2  0  0  0  0
 14 28  1  0  0  0  0
 15 23  1  0  0  0  0
 15 62  2  0  0  0  0
 16 23  2  0  0  0  0
 16 64  1  0  0  0  0
 17 29  1  0  0  0  0
 18 29  1  0  0  0  0
 18 30  2  0  0  0  0
 18 31  1  0  0  0  0
 19 21  2  0  0  0  0
 19 36  1  0  0  0  0
 20 22  2  0  0  0  0
 20 37  1  0  0  0  0
 21 45  1  0  0  0  0
 22 38  1  0  0  0  0
 23 55  1  0  0  0  0
 24 78  1  0  0  0  0
 25 79  1  0  0  0  0
 26 28  2  0  0  0  0
 26 78  1  0  0  0  0
 27 80  1  0  0  0  0
 28 81  1  0  0  0  0
 29 63  2  0  0  0  0
 30 65  1  0  0  0  0
 30 68  1  0  0  0  0
 31 69  1  0  0  0  0
 31 73  2  0  0  0  0
 32 46  1  0  0  0  0
 32 70  1  0  0  0  0
 32 74  2  0  0  0  0
 33 58  1  0  0  0  0
 33 66  1  0  0  0  0
 33 75  2  0  0  0  0
 34 60  1  0  0  0  0
 34 67  1  0  0  0  0
 34 76  2  0  0  0  0
 35 59  1  0  0  0  0
 35 71  1  0  0  0  0
 35 77  2  0  0  0  0
 36 39  1  0  0  0  0
 37 46  1  0  0  0  0
 38 66  1  0  0  0  0
 39 41  1  0  0  0  0
 40 42  1  0  0  0  0
 40 43  1  0  0  0  0
 41 45  1  0  0  0  0
 42 47  1  0  0  0  0
 43 67  1  0  0  0  0
 44 47  1  0  0  0  0
 44 67  1  0  0  0  0
 45 70  1  0  0  0  0
 46 66  1  0  0  0  0
 47 65  1  0  0  0  0
 48 59  1  0  0  0  0
 49 60  1  0  0  0  0
 50 60  1  0  0  0  0
 51 61  1  0  0  0  0
 52 61  1  0  0  0  0
 53 61  1  0  0  0  0
 54 72  1  0  0  0  0
 55 57  1  0  0  0  0
 56 60  1  0  0  0  0
 56 64  1  0  0  0  0
 57 79  1  0  0  0  0
 58 61  1  0  0  0  0
 58 71  1  0  0  0  0
 59 72  1  0  0  0  0
 62 64  1  0  0  0  0
 63 65  1  0  0  0  0
M  CHG  1  72   1
M  ISO  4  34 100  57 101  60 100  79 101
M  END
> <Batch ID>
0059

> <Smiles>
CNC(C)C(=O)NC(C(=O)N1Cc2cc([101O:1][101CH2:1]Cc3cnn(C[100C:0](C)(C)[100C:0](=O)N4CCCC(n5nc(-c6ccc(Oc7ccc(F)cc7F)cc6)c(C(N)=O)c5N)C4)c3)ccc2CC1C(=O)NC1CCCc2ccccc21)C(C)(C)C

> <Shape>
0.207

> <Color>
0.063

> <Negative vol penalty>
0.000

$$$$

  -OEChem-04052317533D

 90 98  0     1  0  0  0  0  0999 V2000
  -32.5653  -30.3112   16.9756 C   0  0  0  0  0  0  0  0  0  0  0  0
  -32.1790  -29.2716   17.8154 C   0  0  0  0  0  0  0  0  0  0  0  0
  -22.9003  -10.1264   20.3632 C   0  0  0  0  0  0  0  0  0  0  0  0
  -24.3953   -9.2860   22.0649 C   0  0  0  0  0  0  0  0  0  0  0  0
  -31.9403  -31.5537   17.0734 C   0  0  0  0  0  0  0  0  0  0  0  0
  -31.1682  -29.4742   18.7544 C   0  0  0  0  0  0  0  0  0  0  0  0
  -27.8391  -25.6602   18.8785 C   0  0  0  0  0  0  0  0  0  0  0  0
  -22.2345   -8.9009   20.3428 C   0  0  0  0  0  0  0  0  0  0  0  0
  -23.7294   -8.0605   22.0446 C   0  0  0  0  0  0  0  0  0  0  0  0
  -28.2230  -24.5016   19.5525 C   0  0  0  0  0  0  0  0  0  0  0  0
  -20.8667   -6.7621   23.2855 C   0  0  0  0  0  0  0  0  0  0  0  0
  -20.5528   -6.1765   24.5118 C   0  0  0  0  0  0  0  0  0  0  0  0
  -26.9361  -25.1981   21.4703 C   0  0  0  0  0  0  0  0  0  0  0  0
  -21.8815   -4.2445   23.9294 C   0  0  0  0  0  0  0  0  0  0  0  0
  -28.6745  -19.8243   21.4776 C   0  0  0  0  0  0  0  0  0  0  0  0
  -30.1394  -21.1111   22.7640 C   0  0  0  0  0  0  0  0  0  0  0  0
  -23.9808  -10.3189   21.2241 C   0  0  0  0  0  0  0  0  0  0  0  0
  -24.3756  -12.6987   22.0539 C   0  0  0  0  0  0  0  0  0  0  0  0
  -30.9147  -31.7688   18.0075 C   0  0  0  0  0  0  0  0  0  0  0  0
  -27.0083  -26.6032   19.5005 C   0  0  0  0  0  0  0  0  0  0  0  0
  -30.5298  -30.7211   18.8657 C   0  0  0  0  0  0  0  0  0  0  0  0
  -26.5411  -26.3665   20.8012 C   0  0  0  0  0  0  0  0  0  0  0  0
  -29.2743  -21.0487   21.6906 C   0  0  0  0  0  0  0  0  0  0  0  0
  -22.6490   -7.8680   21.1835 C   0  0  0  0  0  0  0  0  0  0  0  0
  -27.7738  -24.2718   20.8496 C   0  0  0  0  0  0  0  0  0  0  0  0
  -21.6880   -6.0890   22.3809 C   0  0  0  0  0  0  0  0  0  0  0  0
  -21.0602   -4.9177   24.8338 C   0  0  0  0  0  0  0  0  0  0  0  0
  -22.1954   -4.8302   22.7029 C   0  0  0  0  0  0  0  0  0  0  0  0
  -24.6693  -11.5845   21.2452 C   0  0  0  0  0  0  0  0  0  0  0  0
  -25.3116  -13.6384   21.6968 C   0  0  0  0  0  0  0  0  0  0  0  0
  -29.7589  -18.9261   23.2620 C   0  0  0  0  0  0  0  0  0  0  0  0
  -23.3485  -12.8691   23.0397 C   0  0  0  0  0  0  0  0  0  0  0  0
  -27.3111  -29.6555   20.3344 C   0  0  0  0  0  0  0  0  0  0  0  0
  -24.1720  -29.3548   21.0949 C   0  0  0  0  0  0  0  0  0  0  0  0
  -30.6215  -14.9523   20.5274 C   0  0  0  0  0  0  0  0  0  0  0  0
  -21.5855  -27.3061   21.9663 C   0  0  0  0  0  0  0  0  0  0  0  0
  -30.3012  -33.1429   18.1084 C   0  0  0  0  0  0  0  0  0  0  0  0
  -26.5816  -27.8350   18.7502 C   0  0  0  0  0  0  0  0  0  0  0  0
  -25.6310  -27.3379   21.5060 C   0  0  0  0  0  0  0  0  0  0  0  0
  -28.9813  -33.1658   18.8749 C   0  0  0  0  0  0  0  0  0  0  0  0
  -28.5747  -13.7490   17.8436 C   0  0  0  0  0  0  0  0  0  0  0  0
  -29.1013  -32.3666   20.1686 C   0  0  0  0  0  0  0  0  0  0  0  0
  -27.3668  -13.1433   18.5571 C   0  0  0  0  0  0  0  0  0  0  0  0
  -29.8569  -13.5439   18.6443 C   0  0  0  0  0  0  0  0  0  0  0  0
  -28.5795  -13.4534   20.7613 C   0  0  0  0  0  0  0  0  0  0  0  0
  -29.4203  -30.8947   19.8801 C   0  0  1  0  0  0  0  0  0  0  0  0
  -26.1493  -28.9741   19.6684 C   0  0  1  0  0  0  0  0  0  0  0  0
  -27.2584  -13.6654   20.0008 C   0  0  2  0  0  0  0  0  0  0  0  0
  -19.1476  -27.3548   22.5593 C   0  0  0  0  0  0  0  0  0  0  0  0
  -24.8700  -30.4233   23.8664 C   0  0  0  0  0  0  0  0  0  0  0  0
  -22.6612  -29.5670   24.6764 C   0  0  0  0  0  0  0  0  0  0  0  0
  -22.7431  -31.3231   22.9067 C   0  0  0  0  0  0  0  0  0  0  0  0
  -20.8715  -25.5930   19.6610 C   0  0  0  0  0  0  0  0  0  0  0  0
  -29.0014  -22.2352   20.8136 C   0  0  0  0  0  0  0  0  0  1  0  0
  -30.0260  -17.7487   24.1371 C   0  0  0  0  0  0  0  0  0  0  0  0
  -23.4055  -28.9519   22.3315 C   0  0  1  0  0  0  0  0  0  0  0  0
  -20.1656  -27.1972   21.4405 C   0  0  2  0  0  0  0  0  0  0  0  0
  -30.3984  -15.4116   21.9463 C   0  0  0  0  0  0  0  0  0  0  0  0
  -23.4387  -30.0488   23.4329 C   0  0  0  0  0  0  0  0  0  0  0  0
  -31.3514  -16.9839   23.8663 C   0  0  2  0  0  0  0  0  0  0  0  0
  -31.4347  -16.4131   22.4349 C   0  0  0  0  0  0  0  0  0  0  0  0
  -31.6476  -15.9407   24.9388 C   0  0  0  0  0  0  0  0  0  0  0  0
  -28.8947  -18.7378   22.2466 N   0  0  0  0  0  0  0  0  0  0  0  0
  -30.4058  -20.0653   23.5737 N   0  0  0  0  0  0  0  0  0  0  0  0
  -25.7104  -11.7952   20.4354 N   0  0  0  0  0  0  0  0  0  0  0  0
  -26.0789  -13.0528   20.7333 N   0  0  0  0  0  0  0  0  0  0  0  0
  -25.2469  -28.5306   20.7329 N   0  0  0  0  0  0  0  0  0  0  0  0
  -29.7060  -14.0323   20.0161 N   0  0  0  0  0  0  0  0  0  0  0  0
  -25.5447  -14.9002   22.1162 N   0  0  0  0  0  0  0  0  0  0  0  0
  -22.4718  -11.8029   23.2822 N   0  0  0  0  0  0  0  0  0  0  0  0
  -28.2287  -30.1936   19.4524 N   0  0  0  0  0  0  0  0  0  0  0  0
  -22.0637  -28.5966   21.8822 N   0  0  0  0  0  0  0  0  0  0  0  0
  -19.9526  -25.8712   20.7946 N   0  3  0  0  0  0  0  0  0  0  0  0
  -23.2020  -13.9410   23.6745 O   0  0  0  0  0  0  0  0  0  0  0  0
  -27.3698  -29.6918   21.5578 O   0  0  0  0  0  0  0  0  0  0  0  0
  -23.8253  -30.3597   20.4691 O   0  0  0  0  0  0  0  0  0  0  0  0
  -31.5798  -15.4012   19.8930 O   0  0  0  0  0  0  0  0  0  0  0  0
  -22.2069  -26.3434   22.4108 O   0  0  0  0  0  0  0  0  0  0  0  0
  -21.9994   -6.6721   21.1641 O   0  0  0  0  0  0  0  0  0  0  0  0
  -28.1476  -23.1421   21.5099 O   0  0  0  0  0  0  0  0  0  1  0  0
  -20.7599   -4.3561   26.0122 F   0  0  0  0  0  0  0  0  0  0  0  0
  -22.9858   -4.1791   21.8386 F   0  0  0  0  0  0  0  0  0  0  0  0
  -30.4556  -14.3284   22.7746 F   0  0  0  0  0  0  0  0  0  0  0  0
  -29.1503  -15.9223   22.1024 F   0  0  0  0  0  0  0  0  0  0  0  0
  -32.3674  -17.9085   23.9335 F   0  0  0  0  0  0  0  0  0  0  0  0
  -32.6548  -15.8046   22.3102 F   0  0  0  0  0  0  0  0  0  0  0  0
  -31.4647  -17.4580   21.5577 F   0  0  0  0  0  0  0  0  0  0  0  0
  -30.6722  -15.0110   25.0193 F   0  0  0  0  0  0  0  0  0  0  0  0
  -32.8107  -15.2986   24.6910 F   0  0  0  0  0  0  0  0  0  0  0  0
  -31.7628  -16.5067   26.1608 F   0  0  0  0  0  0  0  0  0  0  0  0
  1  2  1  0  0  0  0
  1  5  2  0  0  0  0
  2  6  2  0  0  0  0
  3  8  2  0  0  0  0
  3 17  1  0  0  0  0
  4  9  1  0  0  0  0
  4 17  2  0  0  0  0
  5 19  1  0  0  0  0
  6 21  1  0  0  0  0
  7 10  2  0  0  0  0
  7 20  1  0  0  0  0
  8 24  1  0  0  0  0
  9 24  2  0  0  0  0
 10 25  1  0  0  0  0
 11 12  2  0  0  0  0
 11 26  1  0  0  0  0
 12 27  1  0  0  0  0
 13 22  1  0  0  0  0
 13 25  2  0  0  0  0
 14 27  2  0  0  0  0
 14 28  1  0  0  0  0
 15 23  1  0  0  0  0
 15 63  2  0  0  0  0
 16 23  2  0  0  0  0
 16 64  1  0  0  0  0
 17 29  1  0  0  0  0
 18 29  1  0  0  0  0
 18 30  2  0  0  0  0
 18 32  1  0  0  0  0
 19 21  2  0  0  0  0
 19 37  1  0  0  0  0
 20 22  2  0  0  0  0
 20 38  1  0  0  0  0
 21 46  1  0  0  0  0
 22 39  1  0  0  0  0
 23 54  1  0  0  0  0
 24 79  1  0  0  0  0
 25 80  1  0  0  0  0
 26 28  2  0  0  0  0
 26 79  1  0  0  0  0
 27 81  1  0  0  0  0
 28 82  1  0  0  0  0
 29 65  2  0  0  0  0
 30 66  1  0  0  0  0
 30 69  1  0  0  0  0
 31 55  1  0  0  0  0
 31 63  1  0  0  0  0
 31 64  2  0  0  0  0
 32 70  1  0  0  0  0
 32 74  2  0  0  0  0
 33 47  1  0  0  0  0
 33 71  1  0  0  0  0
 33 75  2  0  0  0  0
 34 56  1  0  0  0  0
 34 67  1  0  0  0  0
 34 76  2  0  0  0  0
 35 58  1  0  0  0  0
 35 68  1  0  0  0  0
 35 77  2  0  0  0  0
 36 57  1  0  0  0  0
 36 72  1  0  0  0  0
 36 78  2  0  0  0  0
 37 40  1  0  0  0  0
 38 47  1  0  0  0  0
 39 67  1  0  0  0  0
 40 42  1  0  0  0  0
 41 43  1  0  0  0  0
 41 44  1  0  0  0  0
 42 46  1  0  0  0  0
 43 48  1  0  0  0  0
 44 68  1  0  0  0  0
 45 48  1  0  0  0  0
 45 68  1  0  0  0  0
 46 71  1  0  0  0  0
 47 67  1  0  0  0  0
 48 66  1  0  0  0  0
 49 57  1  0  0  0  0
 50 59  1  0  0  0  0
 51 59  1  0  0  0  0
 52 59  1  0  0  0  0
 53 73  1  0  0  0  0
 54 80  1  0  0  0  0
 55 60  1  0  0  0  0
 56 59  1  0  0  0  0
 56 72  1  0  0  0  0
 57 73  1  0  0  0  0
 58 61  1  0  0  0  0
 58 83  1  0  0  0  0
 58 84  1  0  0  0  0
 60 61  1  0  0  0  0
 60 62  1  0  0  0  0
 60 85  1  0  0  0  0
 61 86  1  0  0  0  0
 61 87  1  0  0  0  0
 62 88  1  0  0  0  0
 62 89  1  0  0  0  0
 62 90  1  0  0  0  0
 65 66  1  0  0  0  0
M  CHG  1  73   1
M  ISO  4  35 100  54 101  58 100  80 101
M  END
> <Batch ID>
0059

> <Smiles>
CNC(C)C(=O)NC(C(=O)N1Cc2cc([101O:1][101CH2:1]c3cnc(CC(F)(C(F)(F)F)C(F)(F)[100C:0](F)(F)[100C:0](=O)N4CCCC(n5nc(-c6ccc(Oc7ccc(F)cc7F)cc6)c(C(N)=O)c5N)C4)nc3)ccc2CC1C(=O)NC1CCCc2ccccc21)C(C)(C)C

> <Shape>
0.311

> <Color>
0.128

> <Negative vol penalty>
0.000

$$$$

  -OEChem-04052317533D

 83 91  0     1  0  0  0  0  0999 V2000
  -17.3948  -29.9939   24.6057 C   0  0  0  0  0  0  0  0  0  0  0  0
  -18.1097  -28.8432   24.9221 C   0  0  0  0  0  0  0  0  0  0  0  0
  -23.3256   -9.8015   19.8686 C   0  0  0  0  0  0  0  0  0  0  0  0
  -23.8455   -9.9457   22.2235 C   0  0  0  0  0  0  0  0  0  0  0  0
  -17.5113  -30.5586   23.3363 C   0  0  0  0  0  0  0  0  0  0  0  0
  -18.9407  -28.2558   23.9688 C   0  0  0  0  0  0  0  0  0  0  0  0
  -24.2576  -25.3912   24.9839 C   0  0  0  0  0  0  0  0  0  0  0  0
  -22.6600   -8.5958   20.0893 C   0  0  0  0  0  0  0  0  0  0  0  0
  -23.1798   -8.7400   22.4443 C   0  0  0  0  0  0  0  0  0  0  0  0
  -24.5890  -24.0419   25.0994 C   0  0  0  0  0  0  0  0  0  0  0  0
  -19.9859   -7.6809   22.7570 C   0  0  0  0  0  0  0  0  0  0  0  0
  -19.1200   -7.6108   23.8483 C   0  0  0  0  0  0  0  0  0  0  0  0
  -25.2219  -24.0044   22.7718 C   0  0  0  0  0  0  0  0  0  0  0  0
  -20.4390   -5.8133   24.7792 C   0  0  0  0  0  0  0  0  0  0  0  0
  -23.9184  -10.4765   20.9357 C   0  0  0  0  0  0  0  0  0  0  0  0
  -24.0568  -13.0170   20.7505 C   0  0  0  0  0  0  0  0  0  0  0  0
  -18.3517  -29.9833   22.3701 C   0  0  0  0  0  0  0  0  0  0  0  0
  -24.3958  -26.0556   23.7568 C   0  0  0  0  0  0  0  0  0  0  0  0
  -19.0676  -28.8125   22.6848 C   0  0  0  0  0  0  0  0  0  0  0  0
  -24.8939  -25.3628   22.6441 C   0  0  0  0  0  0  0  0  0  0  0  0
  -22.5870   -8.0650   21.3772 C   0  0  0  0  0  0  0  0  0  0  0  0
  -25.0685  -23.3475   23.9925 C   0  0  0  0  0  0  0  0  0  0  0  0
  -21.0783   -6.8172   22.6767 C   0  0  0  0  0  0  0  0  0  0  0  0
  -19.3466   -6.6770   24.8594 C   0  0  0  0  0  0  0  0  0  0  0  0
  -21.3048   -5.8835   23.6878 C   0  0  0  0  0  0  0  0  0  0  0  0
  -24.6066  -11.7217   20.7082 C   0  0  0  0  0  0  0  0  0  0  0  0
  -25.1131  -13.8479   20.4672 C   0  0  0  0  0  0  0  0  0  0  0  0
  -26.4099  -18.1122   24.8786 C   0  0  0  0  0  0  0  0  0  0  0  0
  -25.6510  -19.9886   25.3060 C   0  0  0  0  0  0  0  0  0  0  0  0
  -22.7114  -13.4320   21.0216 C   0  0  0  0  0  0  0  0  0  0  0  0
  -22.3997  -27.5125   21.7576 C   0  0  0  0  0  0  0  0  0  0  0  0
  -30.4605  -15.2881   21.2555 C   0  0  0  0  0  0  0  0  0  0  0  0
  -25.1414  -28.3092   20.2180 C   0  0  0  0  0  0  0  0  0  0  0  0
  -28.4196  -27.6019   19.5857 C   0  0  0  0  0  0  0  0  0  0  0  0
  -18.4087  -30.6028   20.9962 C   0  0  0  0  0  0  0  0  0  0  0  0
  -24.0592  -27.5181   23.6555 C   0  0  0  0  0  0  0  0  0  0  0  0
  -25.0799  -26.0353   21.3093 C   0  0  0  0  0  0  0  0  0  0  0  0
  -19.5992  -30.1319   20.1646 C   0  0  0  0  0  0  0  0  0  0  0  0
  -29.7521  -12.8226   18.7536 C   0  0  0  0  0  0  0  0  0  0  0  0
  -19.7394  -28.6151   20.2445 C   0  0  0  0  0  0  0  0  0  0  0  0
  -28.3159  -12.4012   19.0614 C   0  0  0  0  0  0  0  0  0  0  0  0
  -30.5258  -13.1420   20.0289 C   0  0  0  0  0  0  0  0  0  0  0  0
  -28.4351  -13.7497   21.2044 C   0  0  0  0  0  0  0  0  0  0  0  0
  -19.9984  -28.1601   21.6858 C   0  0  1  0  0  0  0  0  0  0  0  0
  -23.7533  -27.9634   22.2287 C   0  0  1  0  0  0  0  0  0  0  0  0
  -27.6093  -13.4475   19.9414 C   0  0  2  0  0  0  0  0  0  0  0  0
  -30.3887  -28.4110   18.2570 C   0  0  0  0  0  0  0  0  0  0  0  0
  -23.9161  -27.1263   17.6864 C   0  0  0  0  0  0  0  0  0  0  0  0
  -26.2072  -27.0913   16.6774 C   0  0  0  0  0  0  0  0  0  0  0  0
  -25.1705  -29.2617   17.3387 C   0  0  0  0  0  0  0  0  0  0  0  0
  -30.0168  -28.0869   22.0296 C   0  0  0  0  0  0  0  0  0  0  0  0
  -30.2381  -19.7914   23.3311 C   0  0  0  0  0  0  0  0  0  0  0  0
  -27.1143  -17.0306   24.1813 C   0  0  0  0  0  0  0  0  0  0  0  0
  -25.2157  -21.4225   25.3813 C   0  0  0  0  0  0  0  0  0  1  0  0
  -29.6583  -16.2518   22.0933 C   0  0  0  0  0  0  0  0  0  0  0  0
  -28.5242  -16.6944   24.7344 C   0  0  0  0  0  0  0  0  0  0  0  0
  -30.4845  -17.4701   22.4643 C   0  0  0  0  0  0  0  0  0  0  0  0
  -29.5101  -17.8586   24.7226 C   0  0  0  0  0  0  0  0  0  0  0  0
  -25.9814  -27.6774   19.1344 C   0  0  1  0  0  0  0  0  0  0  0  0
  -29.6583  -28.4795   19.5891 C   0  0  2  0  0  0  0  0  0  0  0  0
  -25.3136  -27.7757   17.7337 C   0  0  0  0  0  0  0  0  0  0  0  0
  -25.9110  -11.7244   20.4206 N   0  0  0  0  0  0  0  0  0  0  0  0
  -26.3592  -19.3837   24.3861 N   0  0  0  0  0  0  0  0  0  0  0  0
  -25.7760  -17.9125   26.0380 N   0  0  0  0  0  0  0  0  0  0  0  0
  -26.1895  -13.0316   20.2795 N   0  0  0  0  0  0  0  0  0  0  0  0
  -24.7308  -27.4647   21.2592 N   0  0  0  0  0  0  0  0  0  0  0  0
  -29.8111  -14.1227   20.8479 N   0  0  0  0  0  0  0  0  0  0  0  0
  -25.2170  -15.1898   20.3629 N   0  0  0  0  0  0  0  0  0  0  0  0
  -21.7507  -12.4483   21.2931 N   0  0  0  0  0  0  0  0  0  0  0  0
  -21.3788  -28.3966   22.0502 N   0  0  0  0  0  0  0  0  0  0  0  0
  -27.2945  -28.3079   19.2159 N   0  0  0  0  0  0  0  0  0  0  0  0
  -30.5970  -28.0465   20.6625 N   0  3  0  0  0  0  0  0  0  0  0  0
  -29.6778  -18.3894   23.3497 N   0  3  1  0  0  0  0  0  0  0  0  0
  -22.3678  -14.6383   21.0068 O   0  0  0  0  0  0  0  0  0  0  0  0
  -22.2898  -26.4424   21.1707 O   0  0  0  0  0  0  0  0  0  0  0  0
  -31.6282  -15.5660   20.9703 O   0  0  0  0  0  0  0  0  0  0  0  0
  -24.8659  -29.5095   20.1470 O   0  0  0  0  0  0  0  0  0  0  0  0
  -28.4481  -26.4084   19.8780 O   0  0  0  0  0  0  0  0  0  0  0  0
  -25.2619  -19.1826   26.3284 O   0  0  0  0  0  0  0  0  0  0  0  0
  -21.9374   -6.8886   21.5930 O   0  0  0  0  0  0  0  0  0  0  0  0
  -25.3921  -22.0303   24.1023 O   0  0  0  0  0  0  0  0  0  1  0  0
  -18.5160   -6.6108   25.9082 F   0  0  0  0  0  0  0  0  0  0  0  0
  -22.3533   -5.0519   23.6168 F   0  0  0  0  0  0  0  0  0  0  0  0
  1  2  1  0  0  0  0
  1  5  2  0  0  0  0
  2  6  2  0  0  0  0
  3  8  2  0  0  0  0
  3 15  1  0  0  0  0
  4  9  1  0  0  0  0
  4 15  2  0  0  0  0
  5 17  1  0  0  0  0
  6 19  1  0  0  0  0
  7 10  2  0  0  0  0
  7 18  1  0  0  0  0
  8 21  1  0  0  0  0
  9 21  2  0  0  0  0
 10 22  1  0  0  0  0
 11 12  2  0  0  0  0
 11 23  1  0  0  0  0
 12 24  1  0  0  0  0
 13 20  1  0  0  0  0
 13 22  2  0  0  0  0
 14 24  2  0  0  0  0
 14 25  1  0  0  0  0
 15 26  1  0  0  0  0
 16 26  1  0  0  0  0
 16 27  2  0  0  0  0
 16 30  1  0  0  0  0
 17 19  2  0  0  0  0
 17 35  1  0  0  0  0
 18 20  2  0  0  0  0
 18 36  1  0  0  0  0
 19 44  1  0  0  0  0
 20 37  1  0  0  0  0
 21 80  1  0  0  0  0
 22 81  1  0  0  0  0
 23 25  2  0  0  0  0
 23 80  1  0  0  0  0
 24 82  1  0  0  0  0
 25 83  1  0  0  0  0
 26 62  2  0  0  0  0
 27 65  1  0  0  0  0
 27 68  1  0  0  0  0
 28 53  1  0  0  0  0
 28 63  1  0  0  0  0
 28 64  2  0  0  0  0
 29 54  1  0  0  0  0
 29 63  2  0  0  0  0
 29 79  1  0  0  0  0
 30 69  1  0  0  0  0
 30 74  2  0  0  0  0
 31 45  1  0  0  0  0
 31 70  1  0  0  0  0
 31 75  2  0  0  0  0
 32 55  1  0  0  0  0
 32 67  1  0  0  0  0
 32 76  2  0  0  0  0
 33 59  1  0  0  0  0
 33 66  1  0  0  0  0
 33 77  2  0  0  0  0
 34 60  1  0  0  0  0
 34 71  1  0  0  0  0
 34 78  2  0  0  0  0
 35 38  1  0  0  0  0
 36 45  1  0  0  0  0
 37 66  1  0  0  0  0
 38 40  1  0  0  0  0
 39 41  1  0  0  0  0
 39 42  1  0  0  0  0
 40 44  1  0  0  0  0
 41 46  1  0  0  0  0
 42 67  1  0  0  0  0
 43 46  1  0  0  0  0
 43 67  1  0  0  0  0
 44 70  1  0  0  0  0
 45 66  1  0  0  0  0
 46 65  1  0  0  0  0
 47 60  1  0  0  0  0
 48 61  1  0  0  0  0
 49 61  1  0  0  0  0
 50 61  1  0  0  0  0
 51 72  1  0  0  0  0
 52 73  1  0  0  0  0
 53 56  1  0  0  0  0
 54 81  1  0  0  0  0
 55 57  1  0  0  0  0
 56 58  1  0  0  0  0
 57 73  1  0  0  0  0
 58 73  1  0  0  0  0
 59 61  1  0  0  0  0
 59 71  1  0  0  0  0
 60 72  1  0  0  0  0
 62 65  1  0  0  0  0
 64 79  1  0  0  0  0
M  CHG  2  72   1  73   1
M  ISO  4  32 100  54 101  55 100  81 101
M  END
> <Batch ID>
0059

> <Smiles>
CNC(C)C(=O)NC(C(=O)N1Cc2cc([101O:1][101CH2:1]c3nc(CCCN(C)C[100CH2:0][100C:0](=O)N4CCCC(n5nc(-c6ccc(Oc7ccc(F)cc7F)cc6)c(C(N)=O)c5N)C4)no3)ccc2CC1C(=O)NC1CCCc2ccccc21)C(C)(C)C

> <Shape>
0.270

> <Color>
0.215

> <Negative vol penalty>
0.000

$$$$

  -OEChem-04052317533D

 81 89  0     1  0  0  0  0  0999 V2000
  -21.9451  -33.8757   20.7311 C   0  0  0  0  0  0  0  0  0  0  0  0
  -23.0500  -33.0472   20.8988 C   0  0  0  0  0  0  0  0  0  0  0  0
  -27.1865  -14.7643   22.1931 C   0  0  0  0  0  0  0  0  0  0  0  0
  -27.9495  -14.5700   19.9090 C   0  0  0  0  0  0  0  0  0  0  0  0
  -20.7251  -33.5352   21.3138 C   0  0  0  0  0  0  0  0  0  0  0  0
  -22.9357  -31.8780   21.6501 C   0  0  0  0  0  0  0  0  0  0  0  0
  -25.1449  -27.9078   19.4135 C   0  0  0  0  0  0  0  0  0  0  0  0
  -26.4546  -13.5857   22.0488 C   0  0  0  0  0  0  0  0  0  0  0  0
  -27.2176  -13.3914   19.7647 C   0  0  0  0  0  0  0  0  0  0  0  0
  -26.5335  -27.8194   19.5005 C   0  0  0  0  0  0  0  0  0  0  0  0
  -23.5171  -12.6306   20.6764 C   0  0  0  0  0  0  0  0  0  0  0  0
  -22.2106  -12.6161   21.1644 C   0  0  0  0  0  0  0  0  0  0  0  0
  -26.3134  -26.2182   21.2912 C   0  0  0  0  0  0  0  0  0  0  0  0
  -22.7883  -10.8064   22.6573 C   0  0  0  0  0  0  0  0  0  0  0  0
  -31.4414  -25.1938   20.7323 C   0  0  0  0  0  0  0  0  0  0  0  0
  -27.9340  -15.2565   21.1231 C   0  0  0  0  0  0  0  0  0  0  0  0
  -30.0229  -16.5997   21.7058 C   0  0  0  0  0  0  0  0  0  0  0  0
  -20.5933  -32.3564   22.0645 C   0  0  0  0  0  0  0  0  0  0  0  0
  -24.3288  -27.1591   20.2736 C   0  0  0  0  0  0  0  0  0  0  0  0
  -21.7131  -31.5221   22.2444 C   0  0  0  0  0  0  0  0  0  0  0  0
  -24.9147  -26.2970   21.2115 C   0  0  0  0  0  0  0  0  0  0  0  0
  -26.4702  -12.8992   20.8346 C   0  0  0  0  0  0  0  0  0  0  0  0
  -27.1181  -26.9767   20.4413 C   0  0  0  0  0  0  0  0  0  0  0  0
  -24.4593  -11.7329   21.1786 C   0  0  0  0  0  0  0  0  0  0  0  0
  -21.8461  -11.7041   22.1549 C   0  0  0  0  0  0  0  0  0  0  0  0
  -24.0949  -10.8209   22.1691 C   0  0  0  0  0  0  0  0  0  0  0  0
  -31.8222  -24.0334   20.1038 C   0  0  0  0  0  0  0  0  0  0  0  0
  -28.6898  -16.4742   21.2713 C   0  0  0  0  0  0  0  0  0  0  0  0
  -31.7559  -24.3387   18.7311 C   0  0  0  0  0  0  0  0  0  0  0  0
  -30.2692  -17.9506   21.6723 C   0  0  0  0  0  0  0  0  0  0  0  0
  -30.9553  -15.5859   22.1040 C   0  0  0  0  0  0  0  0  0  0  0  0
  -22.1760  -27.8653   22.5031 C   0  0  0  0  0  0  0  0  0  0  0  0
  -21.7221  -24.6535   22.5287 C   0  0  0  0  0  0  0  0  0  0  0  0
  -22.9807  -21.5446   21.8986 C   0  0  0  0  0  0  0  0  0  0  0  0
  -28.9829  -22.6521   18.5489 C   0  0  0  0  0  0  0  0  0  0  0  0
  -19.2664  -32.0542   22.7146 C   0  0  0  0  0  0  0  0  0  0  0  0
  -22.8323  -27.2455   20.1491 C   0  0  0  0  0  0  0  0  0  0  0  0
  -24.0828  -25.4566   22.1443 C   0  0  0  0  0  0  0  0  0  0  0  0
  -19.1329  -30.6074   23.1829 C   0  0  0  0  0  0  0  0  0  0  0  0
  -27.4455  -22.0087   21.6952 C   0  0  0  0  0  0  0  0  0  0  0  0
  -20.3859  -30.1725   23.9364 C   0  0  0  0  0  0  0  0  0  0  0  0
  -27.7335  -20.5276   21.9470 C   0  0  0  0  0  0  0  0  0  0  0  0
  -27.1873  -22.2899   20.2166 C   0  0  0  0  0  0  0  0  0  0  0  0
  -28.5299  -20.3323   19.5540 C   0  0  0  0  0  0  0  0  0  0  0  0
  -21.6225  -30.2328   23.0317 C   0  0  1  0  0  0  0  0  0  0  0  0
  -22.1017  -26.8256   21.4209 C   0  0  1  0  0  0  0  0  0  0  0  0
  -28.8518  -20.0089   21.0231 C   0  0  2  0  0  0  0  0  0  0  0  0
  -22.3891  -19.1109   22.0557 C   0  0  0  0  0  0  0  0  0  0  0  0
  -22.1853  -24.7380   25.5434 C   0  0  0  0  0  0  0  0  0  0  0  0
  -22.5277  -22.2585   25.4901 C   0  0  0  0  0  0  0  0  0  0  0  0
  -20.3303  -23.2272   24.8149 C   0  0  0  0  0  0  0  0  0  0  0  0
  -23.2529  -21.1705   18.9754 C   0  0  0  0  0  0  0  0  0  0  0  0
  -32.0659  -23.4502   17.5985 C   0  0  0  0  0  0  0  0  0  0  0  0
  -30.7228  -27.5161   19.9138 C   0  0  0  0  0  0  0  0  0  0  0  0
  -30.8260  -22.8590   16.8999 C   0  0  0  0  0  0  0  0  0  0  0  0
  -29.2355  -27.6886   19.6254 C   0  0  0  0  0  0  0  0  0  1  0  0
  -22.3253  -23.4946   23.2850 C   0  0  1  0  0  0  0  0  0  0  0  0
  -22.3932  -20.3483   21.1717 C   0  0  2  0  0  0  0  0  0  0  0  0
  -21.8581  -23.4467   24.7672 C   0  0  0  0  0  0  0  0  0  0  0  0
  -28.1284  -17.6514   20.9831 N   0  0  0  0  0  0  0  0  0  0  0  0
  -31.3637  -25.5945   18.5005 N   0  0  0  0  0  0  0  0  0  0  0  0
  -31.1800  -26.0886   19.7367 N   0  0  0  0  0  0  0  0  0  0  0  0
  -29.1135  -18.5295   21.2371 N   0  0  0  0  0  0  0  0  0  0  0  0
  -22.6241  -25.5808   21.9880 N   0  0  0  0  0  0  0  0  0  0  0  0
  -28.2852  -21.7745   19.3952 N   0  0  0  0  0  0  0  0  0  0  0  0
  -31.3594  -18.6877   21.9731 N   0  0  0  0  0  0  0  0  0  0  0  0
  -30.5385  -14.2480   22.0793 N   0  0  0  0  0  0  0  0  0  0  0  0
  -21.6535  -29.0923   22.1413 N   0  0  0  0  0  0  0  0  0  0  0  0
  -22.0044  -22.2956   22.5184 N   0  0  0  0  0  0  0  0  0  0  0  0
  -30.0130  -22.0833   17.8099 N   0  0  0  0  0  0  0  0  0  0  0  0
  -23.1848  -20.0474   19.9454 N   0  3  0  0  0  0  0  0  0  0  0  0
  -32.1182  -15.8597   22.4865 O   0  0  0  0  0  0  0  0  0  0  0  0
  -22.6695  -27.5754   23.5866 O   0  0  0  0  0  0  0  0  0  0  0  0
  -20.4961  -24.7293   22.4156 O   0  0  0  0  0  0  0  0  0  0  0  0
  -24.1856  -21.7863   21.9180 O   0  0  0  0  0  0  0  0  0  0  0  0
  -28.7116  -23.8545   18.4627 O   0  0  0  0  0  0  0  0  0  0  0  0
  -25.7563  -11.7490   20.6936 O   0  0  0  0  0  0  0  0  0  0  0  0
  -28.4733  -26.8890   20.5287 O   0  0  0  0  0  0  0  0  0  1  0  0
  -20.5918  -11.6914   22.6246 F   0  0  0  0  0  0  0  0  0  0  0  0
  -24.9959   -9.9568   22.6564 F   0  0  0  0  0  0  0  0  0  0  0  0
  -32.1723  -22.8841   20.6707 F   0  0  0  0  0  0  0  0  0  0  0  0
  1  2  1  0  0  0  0
  1  5  2  0  0  0  0
  2  6  2  0  0  0  0
  3  8  2  0  0  0  0
  3 16  1  0  0  0  0
  4  9  1  0  0  0  0
  4 16  2  0  0  0  0
  5 18  1  0  0  0  0
  6 20  1  0  0  0  0
  7 10  2  0  0  0  0
  7 19  1  0  0  0  0
  8 22  1  0  0  0  0
  9 22  2  0  0  0  0
 10 23  1  0  0  0  0
 11 12  2  0  0  0  0
 11 24  1  0  0  0  0
 12 25  1  0  0  0  0
 13 21  1  0  0  0  0
 13 23  2  0  0  0  0
 14 25  2  0  0  0  0
 14 26  1  0  0  0  0
 15 27  2  0  0  0  0
 15 62  1  0  0  0  0
 16 28  1  0  0  0  0
 17 28  1  0  0  0  0
 17 30  2  0  0  0  0
 17 31  1  0  0  0  0
 18 20  2  0  0  0  0
 18 36  1  0  0  0  0
 19 21  2  0  0  0  0
 19 37  1  0  0  0  0
 20 45  1  0  0  0  0
 21 38  1  0  0  0  0
 22 77  1  0  0  0  0
 23 78  1  0  0  0  0
 24 26  2  0  0  0  0
 24 77  1  0  0  0  0
 25 79  1  0  0  0  0
 26 80  1  0  0  0  0
 27 29  1  0  0  0  0
 27 81  1  0  0  0  0
 28 60  2  0  0  0  0
 29 53  1  0  0  0  0
 29 61  2  0  0  0  0
 30 63  1  0  0  0  0
 30 66  1  0  0  0  0
 31 67  1  0  0  0  0
 31 72  2  0  0  0  0
 32 46  1  0  0  0  0
 32 68  1  0  0  0  0
 32 73  2  0  0  0  0
 33 57  1  0  0  0  0
 33 64  1  0  0  0  0
 33 74  2  0  0  0  0
 34 58  1  0  0  0  0
 34 69  1  0  0  0  0
 34 75  2  0  0  0  0
 35 65  1  0  0  0  0
 35 70  1  0  0  0  0
 35 76  2  0  0  0  0
 36 39  1  0  0  0  0
 37 46  1  0  0  0  0
 38 64  1  0  0  0  0
 39 41  1  0  0  0  0
 40 42  1  0  0  0  0
 40 43  1  0  0  0  0
 41 45  1  0  0  0  0
 42 47  1  0  0  0  0
 43 65  1  0  0  0  0
 44 47  1  0  0  0  0
 44 65  1  0  0  0  0
 45 68  1  0  0  0  0
 46 64  1  0  0  0  0
 47 63  1  0  0  0  0
 48 58  1  0  0  0  0
 49 59  1  0  0  0  0
 50 59  1  0  0  0  0
 51 59  1  0  0  0  0
 52 71  1  0  0  0  0
 53 55  1  0  0  0  0
 54 56  1  0  0  0  0
 54 62  1  0  0  0  0
 55 70  1  0  0  0  0
 56 78  1  0  0  0  0
 57 59  1  0  0  0  0
 57 69  1  0  0  0  0
 58 71  1  0  0  0  0
 60 63  1  0  0  0  0
 61 62  1  0  0  0  0
M  CHG  1  71   1
M  ISO  4  35 100  56 101  70 100  78 101
M  END
> <Batch ID>
0059

> <Smiles>
CNC(C)C(=O)NC(C(=O)N1Cc2cc([101O:1][101CH2:1]Cn3cc(F)c(CC[100NH:0][100C:0](=O)N4CCCC(n5nc(-c6ccc(Oc7ccc(F)cc7F)cc6)c(C(N)=O)c5N)C4)n3)ccc2CC1C(=O)NC1CCCc2ccccc21)C(C)(C)C

> <Shape>
0.246

> <Color>
0.068

> <Negative vol penalty>
0.000

$$$$

  -OEChem-04052317533D

 83 91  0     1  0  0  0  0  0999 V2000
  -28.3820  -24.7365   16.2670 C   0  0  0  0  0  0  0  0  0  0  0  0
  -27.2153  -25.3702   16.6793 C   0  0  0  0  0  0  0  0  0  0  0  0
  -24.3022  -15.0933   21.1422 C   0  0  0  0  0  0  0  0  0  0  0  0
  -26.3131  -14.9653   22.4753 C   0  0  0  0  0  0  0  0  0  0  0  0
  -29.5232  -24.7983   17.0640 C   0  0  0  0  0  0  0  0  0  0  0  0
  -27.1926  -26.0759   17.8827 C   0  0  0  0  0  0  0  0  0  0  0  0
  -23.1303  -28.6662   18.8785 C   0  0  0  0  0  0  0  0  0  0  0  0
  -24.4976  -13.7780   20.7212 C   0  0  0  0  0  0  0  0  0  0  0  0
  -26.5085  -13.6499   22.0542 C   0  0  0  0  0  0  0  0  0  0  0  0
  -21.9218  -28.0669   19.2308 C   0  0  0  0  0  0  0  0  0  0  0  0
  -24.2714  -10.3343   19.5787 C   0  0  0  0  0  0  0  0  0  0  0  0
  -23.1668   -9.4826   19.5785 C   0  0  0  0  0  0  0  0  0  0  0  0
  -22.3041  -28.6651   21.5363 C   0  0  0  0  0  0  0  0  0  0  0  0
  -22.9097   -9.8156   21.9576 C   0  0  0  0  0  0  0  0  0  0  0  0
  -22.6172  -24.2733   22.6149 C   0  0  0  0  0  0  0  0  0  0  0  0
  -25.2100  -15.6870   22.0193 C   0  0  0  0  0  0  0  0  0  0  0  0
  -24.2885  -17.4794   23.5832 C   0  0  0  0  0  0  0  0  0  0  0  0
  -29.5100  -25.4948   18.2837 C   0  0  0  0  0  0  0  0  0  0  0  0
  -23.9414  -29.2608   19.8558 C   0  0  0  0  0  0  0  0  0  0  0  0
  -28.3410  -26.1700   18.6896 C   0  0  0  0  0  0  0  0  0  0  0  0
  -23.5212  -29.2734   21.1935 C   0  0  0  0  0  0  0  0  0  0  0  0
  -25.6007  -13.0562   21.1772 C   0  0  0  0  0  0  0  0  0  0  0  0
  -21.5098  -28.0637   20.5602 C   0  0  0  0  0  0  0  0  0  0  0  0
  -24.6952  -10.9267   20.7683 C   0  0  0  0  0  0  0  0  0  0  0  0
  -22.4860   -9.2232   20.7680 C   0  0  0  0  0  0  0  0  0  0  0  0
  -24.0144  -10.6673   21.9578 C   0  0  0  0  0  0  0  0  0  0  0  0
  -25.0091  -17.0459   22.4542 C   0  0  0  0  0  0  0  0  0  0  0  0
  -22.9423  -23.5990   21.4648 C   0  0  0  0  0  0  0  0  0  0  0  0
  -24.3959  -18.8483   23.5542 C   0  0  0  0  0  0  0  0  0  0  0  0
  -23.5851  -16.7131   24.5699 C   0  0  0  0  0  0  0  0  0  0  0  0
  -24.2188  -23.6505   20.7404 C   0  0  0  0  0  0  0  0  0  0  0  0
  -26.8810  -28.7442   20.9490 C   0  0  0  0  0  0  0  0  0  0  0  0
  -26.3115  -31.4572   22.6335 C   0  0  0  0  0  0  0  0  0  0  0  0
  -24.0278  -33.5877   24.0092 C   0  0  0  0  0  0  0  0  0  0  0  0
  -30.7757  -25.5362   19.1033 C   0  0  0  0  0  0  0  0  0  0  0  0
  -25.2294  -29.9265   19.4556 C   0  0  0  0  0  0  0  0  0  0  0  0
  -24.3458  -29.9163   22.2776 C   0  0  0  0  0  0  0  0  0  0  0  0
  -30.5299  -25.9254   20.5573 C   0  0  0  0  0  0  0  0  0  0  0  0
  -27.3166  -21.8771   20.7482 C   0  0  0  0  0  0  0  0  0  0  0  0
  -29.6664  -27.1764   20.6217 C   0  0  0  0  0  0  0  0  0  0  0  0
  -26.9329  -20.4900   21.2668 C   0  0  0  0  0  0  0  0  0  0  0  0
  -26.2160  -22.4774   19.8772 C   0  0  0  0  0  0  0  0  0  0  0  0
  -24.4971  -21.1343   21.0375 C   0  0  0  0  0  0  0  0  0  0  0  0
  -28.2840  -26.9178   20.0094 C   0  0  1  0  0  0  0  0  0  0  0  0
  -26.2212  -30.0504   20.6082 C   0  0  1  0  0  0  0  0  0  0  0  0
  -25.5584  -20.5149   21.9616 C   0  0  1  0  0  0  0  0  0  0  0  0
  -23.8648  -35.6979   25.3575 C   0  0  0  0  0  0  0  0  0  0  0  0
  -27.0710  -29.9059   25.1488 C   0  0  0  0  0  0  0  0  0  0  0  0
  -25.9977  -31.7161   26.5051 C   0  0  0  0  0  0  0  0  0  0  0  0
  -27.9589  -32.2420   25.0560 C   0  0  0  0  0  0  0  0  0  0  0  0
  -17.9547  -23.8780   23.2613 C   0  0  0  0  0  0  0  0  0  0  0  0
  -18.4416  -25.9319   24.5711 C   0  0  0  0  0  0  0  0  0  0  0  0
  -21.1846  -25.3147   24.9717 C   0  0  0  0  0  0  0  0  0  0  0  0
  -20.1784  -23.0863   24.9747 C   0  0  0  0  0  0  0  0  0  0  0  0
  -22.5717  -34.9927   21.8494 C   0  0  0  0  0  0  0  0  0  0  0  0
  -19.2533  -25.7533   22.1776 C   0  0  0  0  0  0  0  0  0  0  0  0
  -20.2443  -26.9185   22.2164 C   0  0  0  0  0  0  0  0  0  1  0  0
  -25.7174  -31.7715   23.9853 C   0  0  1  0  0  0  0  0  0  0  0  0
  -23.9034  -35.0999   23.9597 C   0  0  2  0  0  0  0  0  0  0  0  0
  -26.6714  -31.3950   25.1539 C   0  0  0  0  0  0  0  0  0  0  0  0
  -19.0335  -24.9628   23.5146 C   0  0  0  0  0  0  0  0  0  0  0  0
  -20.4238  -24.3155   24.0437 C   0  0  0  0  0  0  0  0  0  0  0  0
  -25.5352  -18.0575   21.7586 N   0  0  0  0  0  0  0  0  0  0  0  0
  -21.8793  -22.8394   21.0615 N   0  0  0  0  0  0  0  0  0  0  0  0
  -20.8933  -23.0216   21.9330 N   0  0  0  0  0  0  0  0  0  0  0  0
  -21.3379  -23.8817   22.8638 N   0  0  0  0  0  0  0  0  0  0  0  0
  -25.1447  -19.1403   22.4523 N   0  0  0  0  0  0  0  0  0  0  0  0
  -24.9334  -22.4610   20.5797 N   0  0  0  0  0  0  0  0  0  0  0  0
  -25.6002  -30.5486   21.8371 N   0  0  0  0  0  0  0  0  0  0  0  0
  -23.9217  -19.8188   24.3639 N   0  0  0  0  0  0  0  0  0  0  0  0
  -23.5752  -15.3168   24.4494 N   0  0  0  0  0  0  0  0  0  0  0  0
  -27.5743  -28.1732   19.8989 N   0  0  0  0  0  0  0  0  0  0  0  0
  -25.3440  -33.1813   23.9494 N   0  0  0  0  0  0  0  0  0  0  0  0
  -22.6563  -35.4940   23.2453 N   0  3  0  0  0  0  0  0  0  0  0  0
  -22.9693  -17.2515   25.5209 O   0  0  0  0  0  0  0  0  0  0  0  0
  -24.5698  -24.7579   20.3358 O   0  0  0  0  0  0  0  0  0  0  0  0
  -26.7707  -28.2890   22.0814 O   0  0  0  0  0  0  0  0  0  0  0  0
  -27.3640  -32.0035   22.2938 O   0  0  0  0  0  0  0  0  0  0  0  0
  -23.0548  -32.8419   24.0961 O   0  0  0  0  0  0  0  0  0  0  0  0
  -25.7916  -11.7726   20.7667 O   0  0  0  0  0  0  0  0  0  0  0  0
  -20.3310  -27.4789   20.9069 O   0  0  0  0  0  0  0  0  0  1  0  0
  -21.4243   -8.4065   20.7674 F   0  0  0  0  0  0  0  0  0  0  0  0
  -24.4161  -11.2344   23.1036 F   0  0  0  0  0  0  0  0  0  0  0  0
  1  2  1  0  0  0  0
  1  5  2  0  0  0  0
  2  6  2  0  0  0  0
  3  8  2  0  0  0  0
  3 16  1  0  0  0  0
  4  9  1  0  0  0  0
  4 16  2  0  0  0  0
  5 18  1  0  0  0  0
  6 20  1  0  0  0  0
  7 10  2  0  0  0  0
  7 19  1  0  0  0  0
  8 22  1  0  0  0  0
  9 22  2  0  0  0  0
 10 23  1  0  0  0  0
 11 12  2  0  0  0  0
 11 24  1  0  0  0  0
 12 25  1  0  0  0  0
 13 21  1  0  0  0  0
 13 23  2  0  0  0  0
 14 25  2  0  0  0  0
 14 26  1  0  0  0  0
 15 28  2  0  0  0  0
 15 66  1  0  0  0  0
 16 27  1  0  0  0  0
 17 27  1  0  0  0  0
 17 29  2  0  0  0  0
 17 30  1  0  0  0  0
 18 20  2  0  0  0  0
 18 35  1  0  0  0  0
 19 21  2  0  0  0  0
 19 36  1  0  0  0  0
 20 44  1  0  0  0  0
 21 37  1  0  0  0  0
 22 80  1  0  0  0  0
 23 81  1  0  0  0  0
 24 26  2  0  0  0  0
 24 80  1  0  0  0  0
 25 82  1  0  0  0  0
 26 83  1  0  0  0  0
 27 63  2  0  0  0  0
 28 31  1  0  0  0  0
 28 64  1  0  0  0  0
 29 67  1  0  0  0  0
 29 70  1  0  0  0  0
 30 71  1  0  0  0  0
 30 75  2  0  0  0  0
 31 68  1  0  0  0  0
 31 76  2  0  0  0  0
 32 45  1  0  0  0  0
 32 72  1  0  0  0  0
 32 77  2  0  0  0  0
 33 58  1  0  0  0  0
 33 69  1  0  0  0  0
 33 78  2  0  0  0  0
 34 59  1  0  0  0  0
 34 73  1  0  0  0  0
 34 79  2  0  0  0  0
 35 38  1  0  0  0  0
 36 45  1  0  0  0  0
 37 69  1  0  0  0  0
 38 40  1  0  0  0  0
 39 41  1  0  0  0  0
 39 42  1  0  0  0  0
 40 44  1  0  0  0  0
 41 46  1  0  0  0  0
 42 68  1  0  0  0  0
 43 46  1  0  0  0  0
 43 68  1  0  0  0  0
 44 72  1  0  0  0  0
 45 69  1  0  0  0  0
 46 67  1  0  0  0  0
 47 59  1  0  0  0  0
 48 60  1  0  0  0  0
 49 60  1  0  0  0  0
 50 60  1  0  0  0  0
 51 61  1  0  0  0  0
 52 61  1  0  0  0  0
 53 62  1  0  0  0  0
 54 62  1  0  0  0  0
 55 74  1  0  0  0  0
 56 57  1  0  0  0  0
 56 61  1  0  0  0  0
 57 81  1  0  0  0  0
 58 60  1  0  0  0  0
 58 73  1  0  0  0  0
 59 74  1  0  0  0  0
 61 62  1  0  0  0  0
 62 66  1  0  0  0  0
 63 67  1  0  0  0  0
 64 65  2  0  0  0  0
 65 66  1  0  0  0  0
M  CHG  1  74   1
M  ISO  4  28 100  31 100  57 101  81 101
M  END
> <Batch ID>
0059

> <Smiles>
CNC(C)C(=O)NC(C(=O)N1Cc2cc([101O:1][101CH2:1]CC(C)(C)C(C)(C)n3c[100c:0]([100C:0](=O)N4CCCC(n5nc(-c6ccc(Oc7ccc(F)cc7F)cc6)c(C(N)=O)c5N)C4)nn3)ccc2CC1C(=O)NC1CCCc2ccccc21)C(C)(C)C

> <Shape>
0.254

> <Color>
0.077

> <Negative vol penalty>
0.000

$$$$

  -OEChem-04052317533D

 85 93  0     1  0  0  0  0  0999 V2000
  -22.7624  -30.2481   24.2578 C   0  0  0  0  0  0  0  0  0  0  0  0
  -22.5930  -28.8902   24.0071 C   0  0  0  0  0  0  0  0  0  0  0  0
  -26.7888  -19.5347   24.1420 C   0  0  0  0  0  0  0  0  0  0  0  0
  -28.9865  -20.1734   24.9161 C   0  0  0  0  0  0  0  0  0  0  0  0
  -23.4615  -31.0416   23.3492 C   0  0  0  0  0  0  0  0  0  0  0  0
  -23.1217  -28.3252   22.8471 C   0  0  0  0  0  0  0  0  0  0  0  0
  -25.4340  -22.6890   22.2208 C   0  0  0  0  0  0  0  0  0  0  0  0
  -26.2094  -20.3397   25.1228 C   0  0  0  0  0  0  0  0  0  0  0  0
  -28.4071  -20.9784   25.8968 C   0  0  0  0  0  0  0  0  0  0  0  0
  -24.8932  -21.5029   21.7263 C   0  0  0  0  0  0  0  0  0  0  0  0
  -26.9656  -24.0294   26.0812 C   0  0  0  0  0  0  0  0  0  0  0  0
  -27.4906  -25.3092   26.2604 C   0  0  0  0  0  0  0  0  0  0  0  0
  -25.8881  -21.9533   19.5753 C   0  0  0  0  0  0  0  0  0  0  0  0
  -28.0333  -24.7657   28.5511 C   0  0  0  0  0  0  0  0  0  0  0  0
  -28.1774  -19.4515   24.0387 C   0  0  0  0  0  0  0  0  0  0  0  0
  -29.1288  -18.9957   21.7160 C   0  0  0  0  0  0  0  0  0  0  0  0
  -24.0074  -30.4841   22.1822 C   0  0  0  0  0  0  0  0  0  0  0  0
  -26.1980  -23.5230   21.3919 C   0  0  0  0  0  0  0  0  0  0  0  0
  -23.8276  -29.1122   21.9214 C   0  0  0  0  0  0  0  0  0  0  0  0
  -26.4396  -23.1481   20.0625 C   0  0  0  0  0  0  0  0  0  0  0  0
  -27.0186  -21.0615   26.0002 C   0  0  0  0  0  0  0  0  0  0  0  0
  -25.1179  -21.1363   20.4025 C   0  0  0  0  0  0  0  0  0  0  0  0
  -26.9744  -23.1178   27.1370 C   0  0  0  0  0  0  0  0  0  0  0  0
  -28.0244  -25.6774   27.4954 C   0  0  0  0  0  0  0  0  0  0  0  0
  -27.5083  -23.4859   28.3719 C   0  0  0  0  0  0  0  0  0  0  0  0
  -28.7765  -18.6197   23.0261 C   0  0  0  0  0  0  0  0  0  0  0  0
  -29.6565  -17.8552   21.1617 C   0  0  0  0  0  0  0  0  0  0  0  0
  -27.7970  -12.2854   21.3989 C   0  0  0  0  0  0  0  0  0  0  0  0
  -28.9916  -20.2627   21.0590 C   0  0  0  0  0  0  0  0  0  0  0  0
  -28.8682  -12.0495   22.3755 C   0  0  0  0  0  0  0  0  0  0  0  0
  -25.9096  -26.5059   20.3324 C   0  0  0  0  0  0  0  0  0  0  0  0
  -28.8690  -25.9498   19.1260 C   0  0  0  0  0  0  0  0  0  0  0  0
  -31.1837  -23.6798   18.0603 C   0  0  0  0  0  0  0  0  0  0  0  0
  -24.7145  -31.3911   21.2064 C   0  0  0  0  0  0  0  0  0  0  0  0
  -26.7967  -24.7858   21.9480 C   0  0  0  0  0  0  0  0  0  0  0  0
  -27.2699  -23.9984   19.1372 C   0  0  0  0  0  0  0  0  0  0  0  0
  -25.5659  -30.6413   20.1851 C   0  0  0  0  0  0  0  0  0  0  0  0
  -31.9622  -13.8293   22.3374 C   0  0  0  0  0  0  0  0  0  0  0  0
  -24.7863  -29.4691   19.5978 C   0  0  0  0  0  0  0  0  0  0  0  0
  -31.5317  -15.2955   22.4066 C   0  0  0  0  0  0  0  0  0  0  0  0
  -31.0401  -12.9319   23.1591 C   0  0  0  0  0  0  0  0  0  0  0  0
  -29.1714  -14.5265   22.8947 C   0  0  0  0  0  0  0  0  0  0  0  0
  -24.4076  -28.4577   20.6864 C   0  0  1  0  0  0  0  0  0  0  0  0
  -27.1296  -25.8139   20.8712 C   0  0  1  0  0  0  0  0  0  0  0  0
  -30.0449  -15.4583   22.0386 C   0  0  1  0  0  0  0  0  0  0  0  0
  -33.3925  -22.8169   17.2395 C   0  0  0  0  0  0  0  0  0  0  0  0
  -25.3326  -16.0745   17.9299 C   0  0  0  0  0  0  0  0  0  0  0  0
  -27.7878  -26.8189   16.4083 C   0  0  0  0  0  0  0  0  0  0  0  0
  -29.7959  -25.7630   15.3497 C   0  0  0  0  0  0  0  0  0  0  0  0
  -30.0807  -27.6653   16.9380 C   0  0  0  0  0  0  0  0  0  0  0  0
  -22.9503  -16.2495   21.4776 C   0  0  0  0  0  0  0  0  0  0  0  0
  -25.3897  -16.1886   22.0769 C   0  0  0  0  0  0  0  0  0  0  0  0
  -32.2082  -23.3441   20.8166 C   0  0  0  0  0  0  0  0  0  0  0  0
  -23.3144  -14.7903   19.2721 C   0  0  0  0  0  0  0  0  0  0  0  0
  -24.5737  -17.5883   20.0939 C   0  0  0  0  0  0  0  0  0  0  0  0
  -26.2578  -13.8680   18.7362 C   0  0  0  0  0  0  0  0  0  0  0  0
  -24.4118  -18.9084   20.8430 C   0  0  0  0  0  0  0  0  0  1  0  0
  -29.4081  -25.3968   17.8289 C   0  0  1  0  0  0  0  0  0  0  0  0
  -32.6627  -23.5294   18.3675 C   0  0  2  0  0  0  0  0  0  0  0  0
  -25.7569  -15.2572   19.1424 C   0  0  2  0  0  0  0  0  0  0  0  0
  -29.2508  -26.3957   16.6479 C   0  0  0  0  0  0  0  0  0  0  0  0
  -24.3817  -16.3093   20.9320 C   0  0  0  0  0  0  0  0  0  0  0  0
  -29.0565  -17.3403   23.2883 N   0  0  0  0  0  0  0  0  0  0  0  0
  -26.6488  -11.5521   21.3508 N   0  0  0  0  0  0  0  0  0  0  0  0
  -27.8687  -13.2467   20.4746 N   0  0  0  0  0  0  0  0  0  0  0  0
  -25.9355  -12.0546   20.3506 N   0  0  0  0  0  0  0  0  0  0  0  0
  -29.5903  -16.9024   22.1353 N   0  0  0  0  0  0  0  0  0  0  0  0
  -26.6916  -13.0488   19.8646 N   0  0  0  0  0  0  0  0  0  0  0  0
  -29.6432  -13.1393   22.7793 N   0  0  0  0  0  0  0  0  0  0  0  0
  -27.8283  -25.2268   19.7260 N   0  0  0  0  0  0  0  0  0  0  0  0
  -30.1658  -17.5844   19.9412 N   0  0  0  0  0  0  0  0  0  0  0  0
  -28.4291  -21.3287   21.7742 N   0  0  0  0  0  0  0  0  0  0  0  0
  -25.5493  -27.6396   21.0354 N   0  0  0  0  0  0  0  0  0  0  0  0
  -30.7863  -24.9996   18.0960 N   0  0  0  0  0  0  0  0  0  0  0  0
  -32.8545  -22.7454   19.6203 N   0  3  0  0  0  0  0  0  0  0  0  0
  -24.5625  -15.1156   20.0446 N   0  3  1  0  0  0  0  0  0  0  0  0
  -29.3418  -20.4396   19.8676 O   0  0  0  0  0  0  0  0  0  0  0  0
  -29.0087  -10.8889   22.7583 O   0  0  0  0  0  0  0  0  0  0  0  0
  -25.3384  -26.0462   19.3505 O   0  0  0  0  0  0  0  0  0  0  0  0
  -29.3581  -26.9813   19.5934 O   0  0  0  0  0  0  0  0  0  0  0  0
  -30.4547  -22.7225   17.8099 O   0  0  0  0  0  0  0  0  0  0  0  0
  -26.4535  -21.8473   26.9572 O   0  0  0  0  0  0  0  0  0  0  0  0
  -24.5907  -19.9795   19.9171 O   0  0  0  0  0  0  0  0  0  1  0  0
  -28.5299  -26.9059   27.6669 F   0  0  0  0  0  0  0  0  0  0  0  0
  -27.5206  -22.6141   29.3895 F   0  0  0  0  0  0  0  0  0  0  0  0
  1  2  1  0  0  0  0
  1  5  2  0  0  0  0
  2  6  2  0  0  0  0
  3  8  2  0  0  0  0
  3 15  1  0  0  0  0
  4  9  1  0  0  0  0
  4 15  2  0  0  0  0
  5 17  1  0  0  0  0
  6 19  1  0  0  0  0
  7 10  2  0  0  0  0
  7 18  1  0  0  0  0
  8 21  1  0  0  0  0
  9 21  2  0  0  0  0
 10 22  1  0  0  0  0
 11 12  2  0  0  0  0
 11 23  1  0  0  0  0
 12 24  1  0  0  0  0
 13 20  1  0  0  0  0
 13 22  2  0  0  0  0
 14 24  2  0  0  0  0
 14 25  1  0  0  0  0
 15 26  1  0  0  0  0
 16 26  1  0  0  0  0
 16 27  2  0  0  0  0
 16 29  1  0  0  0  0
 17 19  2  0  0  0  0
 17 34  1  0  0  0  0
 18 20  2  0  0  0  0
 18 35  1  0  0  0  0
 19 43  1  0  0  0  0
 20 36  1  0  0  0  0
 21 82  1  0  0  0  0
 22 83  1  0  0  0  0
 23 25  2  0  0  0  0
 23 82  1  0  0  0  0
 24 84  1  0  0  0  0
 25 85  1  0  0  0  0
 26 63  2  0  0  0  0
 27 67  1  0  0  0  0
 27 71  1  0  0  0  0
 28 30  1  0  0  0  0
 28 64  1  0  0  0  0
 28 65  2  0  0  0  0
 29 72  1  0  0  0  0
 29 77  2  0  0  0  0
 30 69  1  0  0  0  0
 30 78  2  0  0  0  0
 31 44  1  0  0  0  0
 31 73  1  0  0  0  0
 31 79  2  0  0  0  0
 32 58  1  0  0  0  0
 32 70  1  0  0  0  0
 32 80  2  0  0  0  0
 33 59  1  0  0  0  0
 33 74  1  0  0  0  0
 33 81  2  0  0  0  0
 34 37  1  0  0  0  0
 35 44  1  0  0  0  0
 36 70  1  0  0  0  0
 37 39  1  0  0  0  0
 38 40  1  0  0  0  0
 38 41  1  0  0  0  0
 39 43  1  0  0  0  0
 40 45  1  0  0  0  0
 41 69  1  0  0  0  0
 42 45  1  0  0  0  0
 42 69  1  0  0  0  0
 43 73  1  0  0  0  0
 44 70  1  0  0  0  0
 45 67  1  0  0  0  0
 46 59  1  0  0  0  0
 47 60  1  0  0  0  0
 48 61  1  0  0  0  0
 49 61  1  0  0  0  0
 50 61  1  0  0  0  0
 51 62  1  0  0  0  0
 52 62  1  0  0  0  0
 53 75  1  0  0  0  0
 54 76  1  0  0  0  0
 55 57  1  0  0  0  0
 55 62  1  0  0  0  0
 56 60  1  0  0  0  0
 56 68  1  0  0  0  0
 57 83  1  0  0  0  0
 58 61  1  0  0  0  0
 58 74  1  0  0  0  0
 59 75  1  0  0  0  0
 60 76  1  0  0  0  0
 62 76  1  0  0  0  0
 63 67  1  0  0  0  0
 64 66  2  0  0  0  0
 65 68  1  0  0  0  0
 66 68  1  0  0  0  0
M  CHG  2  75   1  76   1
M  ISO  4  28 100  30 100  57 101  83 101
M  END
> <Batch ID>
0059

> <Smiles>
CNC(C)C(=O)NC(C(=O)N1Cc2cc([101O:1][101CH2:1]CC(C)(C)N(C)C(C)Cn3nn[100c:0]([100C:0](=O)N4CCCC(n5nc(-c6ccc(Oc7ccc(F)cc7F)cc6)c(C(N)=O)c5N)C4)n3)ccc2CC1C(=O)NC1CCCc2ccccc21)C(C)(C)C

> <Shape>
0.194

> <Color>
0.089

> <Negative vol penalty>
0.000

$$$$

  -OEChem-04052317532D

  0  0  0     0  0  0  0  0  0999 V2000
M  END
$$$$

  -OEChem-04052317533D

 81 89  0     1  0  0  0  0  0999 V2000
  -32.0718  -32.3901   18.7340 C   0  0  0  0  0  0  0  0  0  0  0  0
  -31.4213  -31.2608   19.2207 C   0  0  0  0  0  0  0  0  0  0  0  0
  -26.0909  -14.7086   20.9101 C   0  0  0  0  0  0  0  0  0  0  0  0
  -26.6793  -14.2299   18.6163 C   0  0  0  0  0  0  0  0  0  0  0  0
  -31.7018  -33.6558   19.1869 C   0  0  0  0  0  0  0  0  0  0  0  0
  -30.4011  -31.3964   20.1615 C   0  0  0  0  0  0  0  0  0  0  0  0
  -26.3783  -28.5115   19.0942 C   0  0  0  0  0  0  0  0  0  0  0  0
  -25.9500  -13.3434   21.1589 C   0  0  0  0  0  0  0  0  0  0  0  0
  -26.5384  -12.8646   18.8651 C   0  0  0  0  0  0  0  0  0  0  0  0
  -26.4692  -27.1541   19.3992 C   0  0  0  0  0  0  0  0  0  0  0  0
  -25.0849  -10.0019   22.3033 C   0  0  0  0  0  0  0  0  0  0  0  0
  -23.9655   -9.5845   23.0232 C   0  0  0  0  0  0  0  0  0  0  0  0
  -25.2015  -27.5287   21.4170 C   0  0  0  0  0  0  0  0  0  0  0  0
  -22.5244  -10.5154   21.3221 C   0  0  0  0  0  0  0  0  0  0  0  0
  -28.6497  -24.1619   20.0943 C   0  0  0  0  0  0  0  0  0  0  0  0
  -29.2341  -23.7791   18.0837 C   0  0  0  0  0  0  0  0  0  0  0  0
  -26.4555  -15.1519   19.6388 C   0  0  0  0  0  0  0  0  0  0  0  0
  -27.7688  -17.3356   19.5190 C   0  0  0  0  0  0  0  0  0  0  0  0
  -30.6700  -33.8076   20.1265 C   0  0  0  0  0  0  0  0  0  0  0  0
  -25.7064  -29.3910   19.9553 C   0  0  0  0  0  0  0  0  0  0  0  0
  -30.0178  -32.6652   20.6284 C   0  0  0  0  0  0  0  0  0  0  0  0
  -25.1012  -28.8963   21.1194 C   0  0  0  0  0  0  0  0  0  0  0  0
  -26.1737  -12.4214   20.1364 C   0  0  0  0  0  0  0  0  0  0  0  0
  -25.8833  -26.6630   20.5622 C   0  0  0  0  0  0  0  0  0  0  0  0
  -24.9241  -10.6761   21.0928 C   0  0  0  0  0  0  0  0  0  0  0  0
  -22.6853   -9.8412   22.5326 C   0  0  0  0  0  0  0  0  0  0  0  0
  -23.6439  -10.9328   20.6022 C   0  0  0  0  0  0  0  0  0  0  0  0
  -26.6008  -16.5620   19.3810 C   0  0  0  0  0  0  0  0  0  0  0  0
  -27.4865  -24.1902   19.3617 C   0  0  0  0  0  0  0  0  0  0  0  0
  -27.3860  -18.6035   19.1553 C   0  0  0  0  0  0  0  0  0  0  0  0
  -29.0825  -16.9431   19.9384 C   0  0  0  0  0  0  0  0  0  0  0  0
  -26.5463  -31.9367   21.6634 C   0  0  0  0  0  0  0  0  0  0  0  0
  -23.3608  -32.1087   22.2510 C   0  0  0  0  0  0  0  0  0  0  0  0
  -20.3573  -30.4986   22.4334 C   0  0  0  0  0  0  0  0  0  0  0  0
  -24.6037  -21.7337   15.3112 C   0  0  0  0  0  0  0  0  0  0  0  0
  -30.3371  -35.1928   20.6217 C   0  0  0  0  0  0  0  0  0  0  0  0
  -25.5942  -30.8479   19.5985 C   0  0  0  0  0  0  0  0  0  0  0  0
  -24.3511  -29.7955   22.0667 C   0  0  0  0  0  0  0  0  0  0  0  0
  -28.9926  -35.2763   21.3397 C   0  0  0  0  0  0  0  0  0  0  0  0
  -22.8092  -20.5712   18.3328 C   0  0  0  0  0  0  0  0  0  0  0  0
  -28.8491  -34.1328   22.3390 C   0  0  0  0  0  0  0  0  0  0  0  0
  -23.7044  -19.4407   18.8375 C   0  0  0  0  0  0  0  0  0  0  0  0
  -22.9181  -20.7491   16.8214 C   0  0  0  0  0  0  0  0  0  0  0  0
  -25.2068  -19.8134   16.8414 C   0  0  0  0  0  0  0  0  0  0  0  0
  -28.8894  -32.7731   21.6310 C   0  0  1  0  0  0  0  0  0  0  0  0
  -25.3276  -31.7402   20.8068 C   0  0  1  0  0  0  0  0  0  0  0  0
  -25.1558  -19.6384   18.3666 C   0  0  2  0  0  0  0  0  0  0  0  0
  -25.3420  -23.1371   20.1588 C   0  0  0  0  0  0  0  0  0  0  0  0
  -17.9395  -30.8950   22.9758 C   0  0  0  0  0  0  0  0  0  0  0  0
  -24.0392  -32.1611   25.2254 C   0  0  0  0  0  0  0  0  0  0  0  0
  -21.6475  -31.6011   25.7095 C   0  0  0  0  0  0  0  0  0  0  0  0
  -22.2164  -33.7316   24.5433 C   0  0  0  0  0  0  0  0  0  0  0  0
  -26.1987  -23.2631   14.2173 C   0  0  0  0  0  0  0  0  0  0  0  0
  -19.4981  -29.7139   19.7122 C   0  0  0  0  0  0  0  0  0  0  0  0
  -27.0268  -23.8672   16.9112 C   0  0  0  0  0  0  0  0  0  0  0  0
  -26.7380  -22.4327   16.4767 C   0  0  0  0  0  0  0  0  0  0  0  0
  -26.0497  -24.4279   19.7668 C   0  0  1  0  0  0  0  0  0  1  0  0
  -22.4350  -31.5412   23.2997 C   0  0  1  0  0  0  0  0  0  0  0  0
  -18.9898  -30.8515   21.8769 C   0  0  2  0  0  0  0  0  0  0  0  0
  -22.6003  -32.2419   24.6778 C   0  0  0  0  0  0  0  0  0  0  0  0
  -29.7340  -23.9058   19.2929 N   0  0  0  0  0  0  0  0  0  0  0  0
  -25.5542  -17.2787   18.9625 N   0  0  0  0  0  0  0  0  0  0  0  0
  -27.8769  -23.9438   18.0756 N   0  0  0  0  0  0  0  0  0  0  0  0
  -26.0633  -18.5158   18.8344 N   0  0  0  0  0  0  0  0  0  0  0  0
  -24.2745  -31.2132   21.6772 N   0  0  0  0  0  0  0  0  0  0  0  0
  -24.3110  -20.8915   16.3964 N   0  0  0  0  0  0  0  0  0  0  0  0
  -28.0550  -19.7737   19.0820 N   0  0  0  0  0  0  0  0  0  0  0  0
  -29.3030  -15.6008   20.2758 N   0  0  0  0  0  0  0  0  0  0  0  0
  -27.6190  -32.4962   20.9957 N   0  0  0  0  0  0  0  0  0  0  0  0
  -21.0886  -31.6254   22.7442 N   0  0  0  0  0  0  0  0  0  0  0  0
  -25.8537  -22.3710   15.3151 N   0  0  0  0  0  0  0  0  0  0  0  0
  -18.5675  -29.8445   20.8627 N   0  3  0  0  0  0  0  0  0  0  0  0
  -30.0287  -17.7618   20.0274 O   0  0  0  0  0  0  0  0  0  0  0  0
  -26.5153  -31.6066   22.8431 O   0  0  0  0  0  0  0  0  0  0  0  0
  -23.2717  -33.3008   21.9468 O   0  0  0  0  0  0  0  0  0  0  0  0
  -20.7373  -29.3391   22.5813 O   0  0  0  0  0  0  0  0  0  0  0  0
  -23.7900  -21.9137   14.3960 O   0  0  0  0  0  0  0  0  0  0  0  0
  -26.0365  -11.0891   20.3789 O   0  0  0  0  0  0  0  0  0  0  0  0
  -25.9712  -25.3387   20.8626 O   0  0  0  0  0  0  0  0  0  1  0  0
  -21.6104   -9.4390   23.2233 F   0  0  0  0  0  0  0  0  0  0  0  0
  -23.4831  -11.5790   19.4393 F   0  0  0  0  0  0  0  0  0  0  0  0
  1  2  1  0  0  0  0
  1  5  2  0  0  0  0
  2  6  2  0  0  0  0
  3  8  2  0  0  0  0
  3 17  1  0  0  0  0
  4  9  1  0  0  0  0
  4 17  2  0  0  0  0
  5 19  1  0  0  0  0
  6 21  1  0  0  0  0
  7 10  2  0  0  0  0
  7 20  1  0  0  0  0
  8 23  1  0  0  0  0
  9 23  2  0  0  0  0
 10 24  1  0  0  0  0
 11 12  2  0  0  0  0
 11 25  1  0  0  0  0
 12 26  1  0  0  0  0
 13 22  1  0  0  0  0
 13 24  2  0  0  0  0
 14 26  2  0  0  0  0
 14 27  1  0  0  0  0
 15 29  2  0  0  0  0
 15 61  1  0  0  0  0
 16 61  2  0  0  0  0
 16 63  1  0  0  0  0
 17 28  1  0  0  0  0
 18 28  1  0  0  0  0
 18 30  2  0  0  0  0
 18 31  1  0  0  0  0
 19 21  2  0  0  0  0
 19 36  1  0  0  0  0
 20 22  2  0  0  0  0
 20 37  1  0  0  0  0
 21 45  1  0  0  0  0
 22 38  1  0  0  0  0
 23 78  1  0  0  0  0
 24 79  1  0  0  0  0
 25 27  2  0  0  0  0
 25 78  1  0  0  0  0
 26 80  1  0  0  0  0
 27 81  1  0  0  0  0
 28 62  2  0  0  0  0
 29 57  1  0  0  0  0
 29 63  1  0  0  0  0
 30 64  1  0  0  0  0
 30 67  1  0  0  0  0
 31 68  1  0  0  0  0
 31 73  2  0  0  0  0
 32 46  1  0  0  0  0
 32 69  1  0  0  0  0
 32 74  2  0  0  0  0
 33 58  1  0  0  0  0
 33 65  1  0  0  0  0
 33 75  2  0  0  0  0
 34 59  1  0  0  0  0
 34 70  1  0  0  0  0
 34 76  2  0  0  0  0
 35 66  1  0  0  0  0
 35 71  1  0  0  0  0
 35 77  2  0  0  0  0
 36 39  1  0  0  0  0
 37 46  1  0  0  0  0
 38 65  1  0  0  0  0
 39 41  1  0  0  0  0
 40 42  1  0  0  0  0
 40 43  1  0  0  0  0
 41 45  1  0  0  0  0
 42 47  1  0  0  0  0
 43 66  1  0  0  0  0
 44 47  1  0  0  0  0
 44 66  1  0  0  0  0
 45 69  1  0  0  0  0
 46 65  1  0  0  0  0
 47 64  1  0  0  0  0
 48 57  1  0  0  0  0
 49 59  1  0  0  0  0
 50 60  1  0  0  0  0
 51 60  1  0  0  0  0
 52 60  1  0  0  0  0
 53 71  1  0  0  0  0
 54 72  1  0  0  0  0
 55 56  1  0  0  0  0
 55 63  1  0  0  0  0
 56 71  1  0  0  0  0
 57 79  1  0  0  0  0
 58 60  1  0  0  0  0
 58 70  1  0  0  0  0
 59 72  1  0  0  0  0
 62 64  1  0  0  0  0
M  CHG  1  72   1
M  ISO  4  35 100  57 101  71 100  79 101
M  END
> <Batch ID>
0059

> <Smiles>
CNC(C)C(=O)NC(C(=O)N1Cc2cc([101O:1][101CH:1](C)c3cncn3CC[100N:0](C)[100C:0](=O)N3CCCC(n4nc(-c5ccc(Oc6ccc(F)cc6F)cc5)c(C(N)=O)c4N)C3)ccc2CC1C(=O)NC1CCCc2ccccc21)C(C)(C)C

> <Shape>
0.193

> <Color>
0.075

> <Negative vol penalty>
0.000

$$$$

  -OEChem-04052317533D

 82 90  0     1  0  0  0  0  0999 V2000
  -17.8547  -31.5866   20.1607 C   0  0  0  0  0  0  0  0  0  0  0  0
  -19.1165  -31.2780   19.6626 C   0  0  0  0  0  0  0  0  0  0  0  0
  -26.4297  -15.4974   21.3068 C   0  0  0  0  0  0  0  0  0  0  0  0
  -26.8839  -15.1918   18.9536 C   0  0  0  0  0  0  0  0  0  0  0  0
  -17.6088  -31.5073   21.5308 C   0  0  0  0  0  0  0  0  0  0  0  0
  -20.1335  -30.8910   20.5346 C   0  0  0  0  0  0  0  0  0  0  0  0
  -24.5839  -26.8317   19.4292 C   0  0  0  0  0  0  0  0  0  0  0  0
  -25.9653  -14.1846   21.3877 C   0  0  0  0  0  0  0  0  0  0  0  0
  -26.4196  -13.8789   19.0345 C   0  0  0  0  0  0  0  0  0  0  0  0
  -25.9148  -26.9812   19.0418 C   0  0  0  0  0  0  0  0  0  0  0  0
  -23.1493  -12.4865   20.6062 C   0  0  0  0  0  0  0  0  0  0  0  0
  -21.9617  -12.2617   21.3024 C   0  0  0  0  0  0  0  0  0  0  0  0
  -26.5977  -26.8280   21.3504 C   0  0  0  0  0  0  0  0  0  0  0  0
  -23.1338  -10.8027   22.8304 C   0  0  0  0  0  0  0  0  0  0  0  0
  -30.0585  -23.7542   18.3497 C   0  0  0  0  0  0  0  0  0  0  0  0
  -26.8889  -16.0010   20.0897 C   0  0  0  0  0  0  0  0  0  0  0  0
  -28.6879  -17.8062   20.2016 C   0  0  0  0  0  0  0  0  0  0  0  0
  -18.6207  -31.1098   22.4190 C   0  0  0  0  0  0  0  0  0  0  0  0
  -24.2484  -26.6899   20.7834 C   0  0  0  0  0  0  0  0  0  0  0  0
  -19.9013  -30.8076   21.9180 C   0  0  0  0  0  0  0  0  0  0  0  0
  -25.2620  -26.6743   21.7521 C   0  0  0  0  0  0  0  0  0  0  0  0
  -25.9603  -13.3754   20.2516 C   0  0  0  0  0  0  0  0  0  0  0  0
  -26.9217  -26.9823   20.0027 C   0  0  0  0  0  0  0  0  0  0  0  0
  -24.3291  -11.8694   21.0220 C   0  0  0  0  0  0  0  0  0  0  0  0
  -21.9540  -11.4198   22.4145 C   0  0  0  0  0  0  0  0  0  0  0  0
  -24.3214  -11.0275   22.1342 C   0  0  0  0  0  0  0  0  0  0  0  0
  -27.3682  -17.3572   20.0054 C   0  0  0  0  0  0  0  0  0  0  0  0
  -28.6203  -19.1648   20.0112 C   0  0  0  0  0  0  0  0  0  0  0  0
  -29.0798  -24.3257   16.5968 C   0  0  0  0  0  0  0  0  0  0  0  0
  -29.8693  -17.0618   20.5268 C   0  0  0  0  0  0  0  0  0  0  0  0
  -22.5146  -28.3683   22.8524 C   0  0  0  0  0  0  0  0  0  0  0  0
  -23.1068  -25.8431   24.8005 C   0  0  0  0  0  0  0  0  0  0  0  0
  -25.1099  -23.1922   25.5797 C   0  0  0  0  0  0  0  0  0  0  0  0
  -24.4138  -22.3713   16.9190 C   0  0  0  0  0  0  0  0  0  0  0  0
  -18.3207  -31.0844   23.8968 C   0  0  0  0  0  0  0  0  0  0  0  0
  -22.8103  -26.5028   21.1825 C   0  0  0  0  0  0  0  0  0  0  0  0
  -24.9562  -26.5049   23.2172 C   0  0  0  0  0  0  0  0  0  0  0  0
  -19.3478  -30.3045   24.7135 C   0  0  0  0  0  0  0  0  0  0  0  0
  -25.6197  -22.8652   20.3836 C   0  0  0  0  0  0  0  0  0  0  0  0
  -20.7641  -30.6949   24.3031 C   0  0  0  0  0  0  0  0  0  0  0  0
  -26.2529  -21.5141   20.7116 C   0  0  0  0  0  0  0  0  0  0  0  0
  -24.4970  -22.7316   19.3592 C   0  0  0  0  0  0  0  0  0  0  0  0
  -25.5371  -20.6877   18.4345 C   0  0  0  0  0  0  0  0  0  0  0  0
  -21.0235  -30.3599   22.8293 C   0  0  1  0  0  0  0  0  0  0  0  0
  -22.5392  -26.8817   22.6352 C   0  0  1  0  0  0  0  0  0  0  0  0
  -26.7030  -20.7933   19.4290 C   0  0  2  0  0  0  0  0  0  0  0  0
  -25.8654  -21.1143   26.7667 C   0  0  0  0  0  0  0  0  0  0  0  0
  -24.1563  -27.8367   26.8582 C   0  0  0  0  0  0  0  0  0  0  0  0
  -25.2386  -25.9236   28.0568 C   0  0  0  0  0  0  0  0  0  0  0  0
  -22.7574  -25.9948   27.8094 C   0  0  0  0  0  0  0  0  0  0  0  0
  -24.6312  -21.9177   14.5051 C   0  0  0  0  0  0  0  0  0  0  0  0
  -23.6214  -21.4444   23.7119 C   0  0  0  0  0  0  0  0  0  0  0  0
  -28.4098  -24.3706   15.3000 C   0  0  0  0  0  0  0  0  0  0  0  0
  -26.9094  -23.9638   15.3076 C   0  0  0  0  0  0  0  0  0  0  0  0
  -30.3796  -26.0459   19.5809 C   0  0  0  0  0  0  0  0  0  0  0  0
  -26.6611  -22.5286   15.7668 C   0  0  0  0  0  0  0  0  0  0  0  0
  -29.2083  -26.5006   20.4448 C   0  0  0  0  0  0  0  0  0  1  0  0
  -24.1904  -25.4867   25.7894 C   0  0  1  0  0  0  0  0  0  0  0  0
  -24.7852  -21.7446   25.9015 C   0  0  2  0  0  0  0  0  0  0  0  0
  -24.0916  -26.3156   27.1011 C   0  0  0  0  0  0  0  0  0  0  0  0
  -29.5346  -23.2489   17.1943 N   0  0  0  0  0  0  0  0  0  0  0  0
  -26.5239  -18.3500   19.7130 N   0  0  0  0  0  0  0  0  0  0  0  0
  -29.3268  -25.4171   17.3699 N   0  0  0  0  0  0  0  0  0  0  0  0
  -29.9564  -25.0760   18.5046 N   0  0  0  0  0  0  0  0  0  0  0  0
  -27.3149  -19.4364   19.7241 N   0  0  0  0  0  0  0  0  0  0  0  0
  -23.5344  -26.3318   23.5579 N   0  0  0  0  0  0  0  0  0  0  0  0
  -24.9399  -22.0051   18.1687 N   0  0  0  0  0  0  0  0  0  0  0  0
  -29.5506  -20.1416   20.0632 N   0  0  0  0  0  0  0  0  0  0  0  0
  -29.7614  -15.6736   20.6870 N   0  0  0  0  0  0  0  0  0  0  0  0
  -21.2715  -28.9431   22.6691 N   0  0  0  0  0  0  0  0  0  0  0  0
  -24.1047  -24.0438   25.9865 N   0  0  0  0  0  0  0  0  0  0  0  0
  -25.2399  -22.1902   15.7994 N   0  0  0  0  0  0  0  0  0  0  0  0
  -24.6646  -20.9495   24.6468 N   0  3  0  0  0  0  0  0  0  0  0  0
  -30.9845  -17.6134   20.6872 O   0  0  0  0  0  0  0  0  0  0  0  0
  -23.5468  -28.9504   23.1647 O   0  0  0  0  0  0  0  0  0  0  0  0
  -21.9247  -25.6867   25.1163 O   0  0  0  0  0  0  0  0  0  0  0  0
  -26.1529  -23.5338   25.0263 O   0  0  0  0  0  0  0  0  0  0  0  0
  -23.2745  -22.8427   16.8112 O   0  0  0  0  0  0  0  0  0  0  0  0
  -25.5075  -12.0942   20.3302 O   0  0  0  0  0  0  0  0  0  0  0  0
  -28.2216  -27.1287   19.6274 O   0  0  0  0  0  0  0  0  0  1  0  0
  -20.8138  -11.2052   23.0840 F   0  0  0  0  0  0  0  0  0  0  0  0
  -25.4519  -10.4328   22.5391 F   0  0  0  0  0  0  0  0  0  0  0  0
  1  2  1  0  0  0  0
  1  5  2  0  0  0  0
  2  6  2  0  0  0  0
  3  8  2  0  0  0  0
  3 16  1  0  0  0  0
  4  9  1  0  0  0  0
  4 16  2  0  0  0  0
  5 18  1  0  0  0  0
  6 20  1  0  0  0  0
  7 10  2  0  0  0  0
  7 19  1  0  0  0  0
  8 22  1  0  0  0  0
  9 22  2  0  0  0  0
 10 23  1  0  0  0  0
 11 12  2  0  0  0  0
 11 24  1  0  0  0  0
 12 25  1  0  0  0  0
 13 21  1  0  0  0  0
 13 23  2  0  0  0  0
 14 25  2  0  0  0  0
 14 26  1  0  0  0  0
 15 61  2  0  0  0  0
 15 64  1  0  0  0  0
 16 27  1  0  0  0  0
 17 27  1  0  0  0  0
 17 28  2  0  0  0  0
 17 30  1  0  0  0  0
 18 20  2  0  0  0  0
 18 35  1  0  0  0  0
 19 21  2  0  0  0  0
 19 36  1  0  0  0  0
 20 44  1  0  0  0  0
 21 37  1  0  0  0  0
 22 79  1  0  0  0  0
 23 80  1  0  0  0  0
 24 26  2  0  0  0  0
 24 79  1  0  0  0  0
 25 81  1  0  0  0  0
 26 82  1  0  0  0  0
 27 62  2  0  0  0  0
 28 65  1  0  0  0  0
 28 68  1  0  0  0  0
 29 53  1  0  0  0  0
 29 61  1  0  0  0  0
 29 63  2  0  0  0  0
 30 69  1  0  0  0  0
 30 74  2  0  0  0  0
 31 45  1  0  0  0  0
 31 70  1  0  0  0  0
 31 75  2  0  0  0  0
 32 58  1  0  0  0  0
 32 66  1  0  0  0  0
 32 76  2  0  0  0  0
 33 59  1  0  0  0  0
 33 71  1  0  0  0  0
 33 77  2  0  0  0  0
 34 67  1  0  0  0  0
 34 72  1  0  0  0  0
 34 78  2  0  0  0  0
 35 38  1  0  0  0  0
 36 45  1  0  0  0  0
 37 66  1  0  0  0  0
 38 40  1  0  0  0  0
 39 41  1  0  0  0  0
 39 42  1  0  0  0  0
 40 44  1  0  0  0  0
 41 46  1  0  0  0  0
 42 67  1  0  0  0  0
 43 46  1  0  0  0  0
 43 67  1  0  0  0  0
 44 70  1  0  0  0  0
 45 66  1  0  0  0  0
 46 65  1  0  0  0  0
 47 59  1  0  0  0  0
 48 60  1  0  0  0  0
 49 60  1  0  0  0  0
 50 60  1  0  0  0  0
 51 72  1  0  0  0  0
 52 73  1  0  0  0  0
 53 54  1  0  0  0  0
 54 56  1  0  0  0  0
 55 57  1  0  0  0  0
 55 64  1  0  0  0  0
 56 72  1  0  0  0  0
 57 80  1  0  0  0  0
 58 60  1  0  0  0  0
 58 71  1  0  0  0  0
 59 73  1  0  0  0  0
 62 65  1  0  0  0  0
 63 64  1  0  0  0  0
M  CHG  1  73   1
M  ISO  4  34 100  57 101  72 100  80 101
M  END
> <Batch ID>
0059

> <Smiles>
CNC(C)C(=O)NC(C(=O)N1Cc2cc([101O:1][101CH2:1]Cn3cnc(CCC[100N:0](C)[100C:0](=O)N4CCCC(n5nc(-c6ccc(Oc7ccc(F)cc7F)cc6)c(C(N)=O)c5N)C4)n3)ccc2CC1C(=O)NC1CCCc2ccccc21)C(C)(C)C

> <Shape>
0.201

> <Color>
0.090

> <Negative vol penalty>
0.000

$$$$

  -OEChem-04052317533D

 79 87  0     1  0  0  0  0  0999 V2000
  -30.5259   -9.1790   34.9773 C   0  0  0  0  0  0  0  0  0  0  0  0
  -30.8251   -9.7912   33.7644 C   0  0  0  0  0  0  0  0  0  0  0  0
  -23.2827   -9.7979   19.9102 C   0  0  0  0  0  0  0  0  0  0  0  0
  -23.7252   -9.9371   22.2812 C   0  0  0  0  0  0  0  0  0  0  0  0
  -29.2059   -9.1255   35.4230 C   0  0  0  0  0  0  0  0  0  0  0  0
  -29.8042  -10.3494   32.9960 C   0  0  0  0  0  0  0  0  0  0  0  0
  -30.1518  -15.3629   29.4959 C   0  0  0  0  0  0  0  0  0  0  0  0
  -22.5506   -8.6285   20.1154 C   0  0  0  0  0  0  0  0  0  0  0  0
  -22.9930   -8.7677   22.4865 C   0  0  0  0  0  0  0  0  0  0  0  0
  -30.3410  -15.5391   28.1259 C   0  0  0  0  0  0  0  0  0  0  0  0
  -20.9377   -6.0165   23.6802 C   0  0  0  0  0  0  0  0  0  0  0  0
  -20.0321   -5.9953   24.7408 C   0  0  0  0  0  0  0  0  0  0  0  0
  -27.9541  -15.7158   27.8250 C   0  0  0  0  0  0  0  0  0  0  0  0
  -18.8341   -7.8473   23.7549 C   0  0  0  0  0  0  0  0  0  0  0  0
  -23.8701  -10.4522   20.9930 C   0  0  0  0  0  0  0  0  0  0  0  0
  -24.1410  -12.9810   20.7949 C   0  0  0  0  0  0  0  0  0  0  0  0
  -28.1695   -9.6919   34.6642 C   0  0  0  0  0  0  0  0  0  0  0  0
  -28.8594  -15.3509   30.0402 C   0  0  0  0  0  0  0  0  0  0  0  0
  -28.4689  -10.3024   33.4313 C   0  0  0  0  0  0  0  0  0  0  0  0
  -27.7513  -15.5418   29.2026 C   0  0  0  0  0  0  0  0  0  0  0  0
  -22.4057   -8.1134   21.4036 C   0  0  0  0  0  0  0  0  0  0  0  0
  -29.2420  -15.7127   27.2898 C   0  0  0  0  0  0  0  0  0  0  0  0
  -20.7917   -6.9532   22.6570 C   0  0  0  0  0  0  0  0  0  0  0  0
  -18.9803   -6.9107   24.7782 C   0  0  0  0  0  0  0  0  0  0  0  0
  -19.7398   -7.8686   22.6943 C   0  0  0  0  0  0  0  0  0  0  0  0
  -24.6269  -11.6599   20.7816 C   0  0  0  0  0  0  0  0  0  0  0  0
  -30.4169  -15.2332   22.9615 C   0  0  0  0  0  0  0  0  0  0  0  0
  -30.7607  -16.1071   23.9906 C   0  0  0  0  0  0  0  0  0  0  0  0
  -25.2467  -13.7561   20.5439 C   0  0  0  0  0  0  0  0  0  0  0  0
  -22.8091  -13.4643   21.0147 C   0  0  0  0  0  0  0  0  0  0  0  0
  -27.1061  -13.2137   31.6092 C   0  0  0  0  0  0  0  0  0  0  0  0
  -25.0383  -15.6967   31.8941 C   0  0  0  0  0  0  0  0  0  0  0  0
  -23.9149  -18.6846   30.6869 C   0  0  0  0  0  0  0  0  0  0  0  0
  -31.1515  -12.3484   21.3742 C   0  0  0  0  0  0  0  0  0  0  0  0
  -26.7521   -9.5679   35.1645 C   0  0  0  0  0  0  0  0  0  0  0  0
  -28.6736  -15.1863   31.5237 C   0  0  0  0  0  0  0  0  0  0  0  0
  -26.3443  -15.5572   29.7400 C   0  0  0  0  0  0  0  0  0  0  0  0
  -25.7759  -10.5136   34.4696 C   0  0  0  0  0  0  0  0  0  0  0  0
  -29.4843  -13.6527   18.3377 C   0  0  0  0  0  0  0  0  0  0  0  0
  -25.9805  -10.4760   32.9585 C   0  0  0  0  0  0  0  0  0  0  0  0
  -28.0141  -13.3314   18.6009 C   0  0  0  0  0  0  0  0  0  0  0  0
  -30.4145  -12.6688   19.0406 C   0  0  0  0  0  0  0  0  0  0  0  0
  -28.7000  -12.2277   20.7670 C   0  0  0  0  0  0  0  0  0  0  0  0
  -27.3922  -10.9412   32.5811 C   0  0  1  0  0  0  0  0  0  0  0  0
  -27.2855  -14.6770   31.8992 C   0  0  1  0  0  0  0  0  0  0  0  0
  -27.7368  -13.2283   20.1108 C   0  0  2  0  0  0  0  0  0  0  0  0
  -22.1878  -20.4556   31.1087 C   0  0  0  0  0  0  0  0  0  0  0  0
  -22.8911  -13.8817   30.7087 C   0  0  0  0  0  0  0  0  0  0  0  0
  -21.5049  -15.9212   30.2758 C   0  0  0  0  0  0  0  0  0  0  0  0
  -22.1182  -15.3054   32.6140 C   0  0  0  0  0  0  0  0  0  0  0  0
  -32.0617  -12.6940   23.6395 C   0  0  0  0  0  0  0  0  0  0  0  0
  -25.9805  -20.7584   31.1244 C   0  0  0  0  0  0  0  0  0  0  0  0
  -29.9611  -13.8386   23.0370 C   0  0  0  0  0  0  0  0  0  0  0  0
  -30.7680  -15.8757   25.4731 C   0  0  0  0  0  0  0  0  0  1  0  0
  -23.8926  -16.2337   31.0707 C   0  0  1  0  0  0  0  0  0  0  0  0
  -23.6138  -20.0016   31.3792 C   0  0  2  0  0  0  0  0  0  0  0  0
  -22.6280  -15.3333   31.1566 C   0  0  0  0  0  0  0  0  0  0  0  0
  -25.9392  -11.5956   20.5409 N   0  0  0  0  0  0  0  0  0  0  0  0
  -30.5524  -15.8404   21.7839 N   0  0  0  0  0  0  0  0  0  0  0  0
  -31.1212  -17.2857   23.4861 N   0  0  0  0  0  0  0  0  0  0  0  0
  -26.2872  -12.8860   20.4007 N   0  0  0  0  0  0  0  0  0  0  0  0
  -26.2141  -15.3860   31.1964 N   0  0  0  0  0  0  0  0  0  0  0  0
  -30.1011  -12.5578   20.4656 N   0  0  0  0  0  0  0  0  0  0  0  0
  -25.4207  -15.0903   20.4338 N   0  0  0  0  0  0  0  0  0  0  0  0
  -21.7917  -12.5318   21.2586 N   0  0  0  0  0  0  0  0  0  0  0  0
  -27.4836  -12.3839   32.6477 N   0  0  0  0  0  0  0  0  0  0  0  0
  -23.6796  -17.6071   31.5145 N   0  0  0  0  0  0  0  0  0  0  0  0
  -30.9950  -12.8751   22.6653 N   0  0  0  0  0  0  0  0  0  0  0  0
  -24.5438  -21.0630   30.9002 N   0  3  0  0  0  0  0  0  0  0  0  0
  -22.5266  -14.6860   20.9791 O   0  0  0  0  0  0  0  0  0  0  0  0
  -26.6570  -12.8633   30.5242 O   0  0  0  0  0  0  0  0  0  0  0  0
  -24.8977  -15.5647   33.1125 O   0  0  0  0  0  0  0  0  0  0  0  0
  -24.3150  -18.6181   29.5267 O   0  0  0  0  0  0  0  0  0  0  0  0
  -32.1751  -11.7343   21.0471 O   0  0  0  0  0  0  0  0  0  0  0  0
  -30.9931  -17.1258   22.1050 O   0  0  0  0  0  0  0  0  0  0  0  0
  -21.6912   -6.9725   21.6043 O   0  0  0  0  0  0  0  0  0  0  0  0
  -29.4238  -15.8843   25.9522 O   0  0  0  0  0  0  0  0  0  1  0  0
  -18.1097   -6.8892   25.7960 F   0  0  0  0  0  0  0  0  0  0  0  0
  -19.5936   -8.7700   21.7136 F   0  0  0  0  0  0  0  0  0  0  0  0
  1  2  1  0  0  0  0
  1  5  2  0  0  0  0
  2  6  2  0  0  0  0
  3  8  2  0  0  0  0
  3 15  1  0  0  0  0
  4  9  1  0  0  0  0
  4 15  2  0  0  0  0
  5 17  1  0  0  0  0
  6 19  1  0  0  0  0
  7 10  2  0  0  0  0
  7 18  1  0  0  0  0
  8 21  1  0  0  0  0
  9 21  2  0  0  0  0
 10 22  1  0  0  0  0
 11 12  2  0  0  0  0
 11 23  1  0  0  0  0
 12 24  1  0  0  0  0
 13 20  1  0  0  0  0
 13 22  2  0  0  0  0
 14 24  2  0  0  0  0
 14 25  1  0  0  0  0
 15 26  1  0  0  0  0
 16 26  1  0  0  0  0
 16 29  2  0  0  0  0
 16 30  1  0  0  0  0
 17 19  2  0  0  0  0
 17 35  1  0  0  0  0
 18 20  2  0  0  0  0
 18 36  1  0  0  0  0
 19 44  1  0  0  0  0
 20 37  1  0  0  0  0
 21 76  1  0  0  0  0
 22 77  1  0  0  0  0
 23 25  2  0  0  0  0
 23 76  1  0  0  0  0
 24 78  1  0  0  0  0
 25 79  1  0  0  0  0
 26 58  2  0  0  0  0
 27 28  1  0  0  0  0
 27 53  1  0  0  0  0
 27 59  2  0  0  0  0
 28 54  1  0  0  0  0
 28 60  2  0  0  0  0
 29 61  1  0  0  0  0
 29 64  1  0  0  0  0
 30 65  1  0  0  0  0
 30 70  2  0  0  0  0
 31 45  1  0  0  0  0
 31 66  1  0  0  0  0
 31 71  2  0  0  0  0
 32 55  1  0  0  0  0
 32 62  1  0  0  0  0
 32 72  2  0  0  0  0
 33 56  1  0  0  0  0
 33 67  1  0  0  0  0
 33 73  2  0  0  0  0
 34 63  1  0  0  0  0
 34 68  1  0  0  0  0
 34 74  2  0  0  0  0
 35 38  1  0  0  0  0
 36 45  1  0  0  0  0
 37 62  1  0  0  0  0
 38 40  1  0  0  0  0
 39 41  1  0  0  0  0
 39 42  1  0  0  0  0
 40 44  1  0  0  0  0
 41 46  1  0  0  0  0
 42 63  1  0  0  0  0
 43 46  1  0  0  0  0
 43 63  1  0  0  0  0
 44 66  1  0  0  0  0
 45 62  1  0  0  0  0
 46 61  1  0  0  0  0
 47 56  1  0  0  0  0
 48 57  1  0  0  0  0
 49 57  1  0  0  0  0
 50 57  1  0  0  0  0
 51 68  1  0  0  0  0
 52 69  1  0  0  0  0
 53 68  1  0  0  0  0
 54 77  1  0  0  0  0
 55 57  1  0  0  0  0
 55 67  1  0  0  0  0
 56 69  1  0  0  0  0
 58 61  1  0  0  0  0
 59 75  1  0  0  0  0
 60 75  1  0  0  0  0
M  CHG  1  69   1
M  ISO  4  34 100  54 101  68 100  77 101
M  END
> <Batch ID>
0059

> <Smiles>
CNC(C)C(=O)NC(C(=O)N1Cc2cc([101O:1][101CH2:1]c3nonc3C[100N:0](C)[100C:0](=O)N3CCCC(n4nc(-c5ccc(Oc6ccc(F)cc6F)cc5)c(C(N)=O)c4N)C3)ccc2CC1C(=O)NC1CCCc2ccccc21)C(C)(C)C

> <Shape>
0.151

> <Color>
0.177

> <Negative vol penalty>
0.000

$$$$

  -OEChem-04052317533D

 82 90  0     1  0  0  0  0  0999 V2000
  -18.0724  -31.3936   20.4742 C   0  0  0  0  0  0  0  0  0  0  0  0
  -19.3561  -31.1874   19.9792 C   0  0  0  0  0  0  0  0  0  0  0  0
  -26.2827  -13.1172   21.6112 C   0  0  0  0  0  0  0  0  0  0  0  0
  -25.5942  -14.1501   19.5385 C   0  0  0  0  0  0  0  0  0  0  0  0
  -17.7637  -31.0255   21.7830 C   0  0  0  0  0  0  0  0  0  0  0  0
  -20.3322  -30.6138   20.7933 C   0  0  0  0  0  0  0  0  0  0  0  0
  -24.8328  -26.8450   19.0478 C   0  0  0  0  0  0  0  0  0  0  0  0
  -25.0769  -12.4180   21.6633 C   0  0  0  0  0  0  0  0  0  0  0  0
  -24.3884  -13.4509   19.5906 C   0  0  0  0  0  0  0  0  0  0  0  0
  -26.1800  -27.0620   18.7620 C   0  0  0  0  0  0  0  0  0  0  0  0
  -23.7244   -9.6741   20.2229 C   0  0  0  0  0  0  0  0  0  0  0  0
  -23.7747   -8.3183   20.5468 C   0  0  0  0  0  0  0  0  0  0  0  0
  -26.7558  -26.4127   21.0128 C   0  0  0  0  0  0  0  0  0  0  0  0
  -22.3819   -8.7278   22.4779 C   0  0  0  0  0  0  0  0  0  0  0  0
  -30.6207  -23.8996   18.3742 C   0  0  0  0  0  0  0  0  0  0  0  0
  -31.1059  -23.9574   20.5231 C   0  0  0  0  0  0  0  0  0  0  0  0
  -26.5413  -13.9834   20.5488 C   0  0  0  0  0  0  0  0  0  0  0  0
  -28.9862  -14.2890   19.8879 C   0  0  0  0  0  0  0  0  0  0  0  0
  -18.7339  -30.4383   22.6104 C   0  0  0  0  0  0  0  0  0  0  0  0
  -24.4353  -26.4200   20.3236 C   0  0  0  0  0  0  0  0  0  0  0  0
  -20.0366  -30.2387   22.1149 C   0  0  0  0  0  0  0  0  0  0  0  0
  -25.4031  -26.1886   21.3114 C   0  0  0  0  0  0  0  0  0  0  0  0
  -24.1298  -12.5848   20.6530 C   0  0  0  0  0  0  0  0  0  0  0  0
  -27.1415  -26.8486   19.7454 C   0  0  0  0  0  0  0  0  0  0  0  0
  -23.0028  -10.5568   21.0267 C   0  0  0  0  0  0  0  0  0  0  0  0
  -23.1035   -7.8451   21.6742 C   0  0  0  0  0  0  0  0  0  0  0  0
  -22.3316  -10.0836   22.1541 C   0  0  0  0  0  0  0  0  0  0  0  0
  -27.7865  -14.7064   20.4947 C   0  0  0  0  0  0  0  0  0  0  0  0
  -30.6277  -25.1882   18.8537 C   0  0  0  0  0  0  0  0  0  0  0  0
  -29.8619  -15.3232   20.1114 C   0  0  0  0  0  0  0  0  0  0  0  0
  -29.2825  -13.0750   19.1850 C   0  0  0  0  0  0  0  0  0  0  0  0
  -22.6063  -27.6328   22.6232 C   0  0  0  0  0  0  0  0  0  0  0  0
  -23.1104  -24.7444   24.0107 C   0  0  0  0  0  0  0  0  0  0  0  0
  -25.0780  -21.9704   24.2945 C   0  0  0  0  0  0  0  0  0  0  0  0
  -28.5918  -21.1895   21.3407 C   0  0  0  0  0  0  0  0  0  0  0  0
  -18.3661  -30.1003   24.0335 C   0  0  0  0  0  0  0  0  0  0  0  0
  -22.9805  -26.1648   20.6079 C   0  0  0  0  0  0  0  0  0  0  0  0
  -25.0303  -25.7128   22.6909 C   0  0  0  0  0  0  0  0  0  0  0  0
  -19.3551  -29.1546   24.7101 C   0  0  0  0  0  0  0  0  0  0  0  0
  -30.7935  -18.8578   23.1893 C   0  0  0  0  0  0  0  0  0  0  0  0
  -20.7885  -29.6111   24.4572 C   0  0  0  0  0  0  0  0  0  0  0  0
  -30.3158  -17.4912   22.7014 C   0  0  0  0  0  0  0  0  0  0  0  0
  -29.6788  -19.8985   23.1415 C   0  0  0  0  0  0  0  0  0  0  0  0
  -28.5549  -18.6614   21.3193 C   0  0  0  0  0  0  0  0  0  0  0  0
  -21.1159  -29.5966   22.9592 C   0  0  1  0  0  0  0  0  0  0  0  0
  -22.6423  -26.2269   22.0943 C   0  0  1  0  0  0  0  0  0  0  0  0
  -29.6664  -17.6013   21.3109 C   0  0  2  0  0  0  0  0  0  0  0  0
  -25.2517  -19.7973   25.5374 C   0  0  0  0  0  0  0  0  0  0  0  0
  -32.1787  -21.2146   18.5565 C   0  0  0  0  0  0  0  0  0  0  0  0
  -24.0620  -26.2427   26.4925 C   0  0  0  0  0  0  0  0  0  0  0  0
  -25.0897  -24.1080   27.3019 C   0  0  0  0  0  0  0  0  0  0  0  0
  -22.6225  -24.2526   26.9634 C   0  0  0  0  0  0  0  0  0  0  0  0
  -27.6313  -22.2689   19.3427 C   0  0  0  0  0  0  0  0  0  0  0  0
  -24.9181  -20.3944   21.7946 C   0  0  0  0  0  0  0  0  0  0  0  0
  -30.3555  -26.4670   18.0995 C   0  0  0  0  0  0  0  0  0  0  0  0
  -29.7246  -20.9889   19.0870 C   0  0  0  0  0  0  0  0  0  0  0  0
  -28.8800  -26.8509   18.1226 C   0  0  0  0  0  0  0  0  0  1  0  0
  -24.1476  -24.1752   24.9484 C   0  0  1  0  0  0  0  0  0  0  0  0
  -24.7402  -20.4905   24.2842 C   0  0  2  0  0  0  0  0  0  0  0  0
  -31.0409  -21.6843   19.4692 C   0  0  2  0  0  0  0  0  0  0  0  0
  -23.9876  -24.7054   26.4013 C   0  0  0  0  0  0  0  0  0  0  0  0
  -30.9307  -25.2174   20.1920 N   0  0  0  0  0  0  0  0  0  0  0  0
  -27.8873  -15.9117   21.0612 N   0  0  0  0  0  0  0  0  0  0  0  0
  -30.9292  -23.1224   19.4550 N   0  0  0  0  0  0  0  0  0  0  0  0
  -29.1609  -16.2605   20.8115 N   0  0  0  0  0  0  0  0  0  0  0  0
  -23.5944  -25.4835   22.9220 N   0  0  0  0  0  0  0  0  0  0  0  0
  -29.0503  -19.9519   21.8212 N   0  0  0  0  0  0  0  0  0  0  0  0
  -31.1556  -15.5131   19.7754 N   0  0  0  0  0  0  0  0  0  0  0  0
  -28.2675  -12.1184   19.0463 N   0  0  0  0  0  0  0  0  0  0  0  0
  -21.3724  -28.2447   22.5110 N   0  0  0  0  0  0  0  0  0  0  0  0
  -24.0542  -22.7243   24.8282 N   0  0  0  0  0  0  0  0  0  0  0  0
  -28.6148  -21.3844   19.9514 N   0  0  0  0  0  0  0  0  0  0  0  0
  -25.3518  -19.8278   23.0977 N   0  3  0  0  0  0  0  0  0  0  0  0
  -30.4185  -12.8381   18.7086 O   0  0  0  0  0  0  0  0  0  0  0  0
  -23.6224  -28.1255   23.0992 O   0  0  0  0  0  0  0  0  0  0  0  0
  -21.9151  -24.5346   24.2319 O   0  0  0  0  0  0  0  0  0  0  0  0
  -26.1450  -22.4130   23.8749 O   0  0  0  0  0  0  0  0  0  0  0  0
  -28.1940  -22.0735   22.1102 O   0  0  0  0  0  0  0  0  0  0  0  0
  -22.9531  -11.9024   20.7034 O   0  0  0  0  0  0  0  0  0  0  0  0
  -28.4571  -27.0603   19.4693 O   0  0  0  0  0  0  0  0  0  1  0  0
  -23.1507   -6.5429   21.9842 F   0  0  0  0  0  0  0  0  0  0  0  0
  -21.6358  -10.9266   22.9294 F   0  0  0  0  0  0  0  0  0  0  0  0
  1  2  1  0  0  0  0
  1  5  2  0  0  0  0
  2  6  2  0  0  0  0
  3  8  2  0  0  0  0
  3 17  1  0  0  0  0
  4  9  1  0  0  0  0
  4 17  2  0  0  0  0
  5 19  1  0  0  0  0
  6 21  1  0  0  0  0
  7 10  2  0  0  0  0
  7 20  1  0  0  0  0
  8 23  1  0  0  0  0
  9 23  2  0  0  0  0
 10 24  1  0  0  0  0
 11 12  2  0  0  0  0
 11 25  1  0  0  0  0
 12 26  1  0  0  0  0
 13 22  1  0  0  0  0
 13 24  2  0  0  0  0
 14 26  2  0  0  0  0
 14 27  1  0  0  0  0
 15 29  2  0  0  0  0
 15 64  1  0  0  0  0
 16 62  2  0  0  0  0
 16 64  1  0  0  0  0
 17 28  1  0  0  0  0
 18 28  1  0  0  0  0
 18 30  2  0  0  0  0
 18 31  1  0  0  0  0
 19 21  2  0  0  0  0
 19 36  1  0  0  0  0
 20 22  2  0  0  0  0
 20 37  1  0  0  0  0
 21 45  1  0  0  0  0
 22 38  1  0  0  0  0
 23 79  1  0  0  0  0
 24 80  1  0  0  0  0
 25 27  2  0  0  0  0
 25 79  1  0  0  0  0
 26 81  1  0  0  0  0
 27 82  1  0  0  0  0
 28 63  2  0  0  0  0
 29 55  1  0  0  0  0
 29 62  1  0  0  0  0
 30 65  1  0  0  0  0
 30 68  1  0  0  0  0
 31 69  1  0  0  0  0
 31 74  2  0  0  0  0
 32 46  1  0  0  0  0
 32 70  1  0  0  0  0
 32 75  2  0  0  0  0
 33 58  1  0  0  0  0
 33 66  1  0  0  0  0
 33 76  2  0  0  0  0
 34 59  1  0  0  0  0
 34 71  1  0  0  0  0
 34 77  2  0  0  0  0
 35 67  1  0  0  0  0
 35 72  1  0  0  0  0
 35 78  2  0  0  0  0
 36 39  1  0  0  0  0
 37 46  1  0  0  0  0
 38 66  1  0  0  0  0
 39 41  1  0  0  0  0
 40 42  1  0  0  0  0
 40 43  1  0  0  0  0
 41 45  1  0  0  0  0
 42 47  1  0  0  0  0
 43 67  1  0  0  0  0
 44 47  1  0  0  0  0
 44 67  1  0  0  0  0
 45 70  1  0  0  0  0
 46 66  1  0  0  0  0
 47 65  1  0  0  0  0
 48 59  1  0  0  0  0
 49 60  1  0  0  0  0
 50 61  1  0  0  0  0
 51 61  1  0  0  0  0
 52 61  1  0  0  0  0
 53 72  1  0  0  0  0
 54 73  1  0  0  0  0
 55 57  1  0  0  0  0
 56 60  1  0  0  0  0
 56 72  1  0  0  0  0
 57 80  1  0  0  0  0
 58 61  1  0  0  0  0
 58 71  1  0  0  0  0
 59 73  1  0  0  0  0
 60 64  1  0  0  0  0
 63 65  1  0  0  0  0
M  CHG  1  73   1
M  ISO  4  35 100  57 101  72 100  80 101
M  END
> <Batch ID>
0059

> <Smiles>
CNC(C)C(=O)NC(C(=O)N1Cc2cc([101O:1][101CH2:1]Cc3cn(C(C)C[100N:0](C)[100C:0](=O)N4CCCC(n5nc(-c6ccc(Oc7ccc(F)cc7F)cc6)c(C(N)=O)c5N)C4)cn3)ccc2CC1C(=O)NC1CCCc2ccccc21)C(C)(C)C

> <Shape>
0.253

> <Color>
0.081

> <Negative vol penalty>
0.000

$$$$

  -OEChem-04052317533D

 83 91  0     1  0  0  0  0  0999 V2000
  -21.3908  -12.1134   19.8433 C   0  0  0  0  0  0  0  0  0  0  0  0
  -21.3422  -13.3931   20.3870 C   0  0  0  0  0  0  0  0  0  0  0  0
  -32.0579  -26.6431   19.1835 C   0  0  0  0  0  0  0  0  0  0  0  0
  -31.9348  -27.3824   21.4803 C   0  0  0  0  0  0  0  0  0  0  0  0
  -22.6056  -11.4329   19.7728 C   0  0  0  0  0  0  0  0  0  0  0  0
  -22.5084  -13.9925   20.8615 C   0  0  0  0  0  0  0  0  0  0  0  0
  -23.9455  -19.9413   20.6332 C   0  0  0  0  0  0  0  0  0  0  0  0
  -33.3894  -27.0540   19.1225 C   0  0  0  0  0  0  0  0  0  0  0  0
  -33.2663  -27.7933   21.4194 C   0  0  0  0  0  0  0  0  0  0  0  0
  -23.8574  -20.9644   21.5762 C   0  0  0  0  0  0  0  0  0  0  0  0
  -36.7156  -28.2378   18.2517 C   0  0  0  0  0  0  0  0  0  0  0  0
  -37.1249  -28.9513   17.1252 C   0  0  0  0  0  0  0  0  0  0  0  0
  -26.1709  -20.6145   22.1631 C   0  0  0  0  0  0  0  0  0  0  0  0
  -35.4983  -30.6675   17.6213 C   0  0  0  0  0  0  0  0  0  0  0  0
  -31.3305  -26.8074   20.3623 C   0  0  0  0  0  0  0  0  0  0  0  0
  -29.4720  -25.1176   20.8075 C   0  0  0  0  0  0  0  0  0  0  0  0
  -23.7889  -12.0281   20.2378 C   0  0  0  0  0  0  0  0  0  0  0  0
  -25.1459  -19.2387   20.4554 C   0  0  0  0  0  0  0  0  0  0  0  0
  -23.7400  -13.3187   20.7983 C   0  0  0  0  0  0  0  0  0  0  0  0
  -26.2724  -19.5847   21.2154 C   0  0  0  0  0  0  0  0  0  0  0  0
  -33.9937  -27.6291   20.2405 C   0  0  0  0  0  0  0  0  0  0  0  0
  -24.9693  -21.2993   22.3434 C   0  0  0  0  0  0  0  0  0  0  0  0
  -35.6977  -28.7391   19.0630 C   0  0  0  0  0  0  0  0  0  0  0  0
  -36.5162  -30.1662   16.8100 C   0  0  0  0  0  0  0  0  0  0  0  0
  -35.0890  -29.9540   18.7478 C   0  0  0  0  0  0  0  0  0  0  0  0
  -29.9548  -26.3836   20.4257 C   0  0  0  0  0  0  0  0  0  0  0  0
  -28.1068  -25.2242   20.7009 C   0  0  0  0  0  0  0  0  0  0  0  0
  -24.5781  -27.3866   24.3554 C   0  0  0  0  0  0  0  0  0  0  0  0
  -30.1931  -23.9496   21.2217 C   0  0  0  0  0  0  0  0  0  0  0  0
  -26.0429  -16.2083   20.7962 C   0  0  0  0  0  0  0  0  0  0  0  0
  -24.4236  -29.9676   20.9170 C   0  0  0  0  0  0  0  0  0  0  0  0
  -28.8182  -17.2928   19.5140 C   0  0  0  0  0  0  0  0  0  0  0  0
  -30.9076  -19.9286   18.9364 C   0  0  0  0  0  0  0  0  0  0  0  0
  -25.0704  -11.2347   20.1838 C   0  0  0  0  0  0  0  0  0  0  0  0
  -25.2322  -18.1556   19.4153 C   0  0  0  0  0  0  0  0  0  0  0  0
  -27.5901  -18.8745   21.0488 C   0  0  0  0  0  0  0  0  0  0  0  0
  -26.3231  -12.0879   20.3656 C   0  0  0  0  0  0  0  0  0  0  0  0
  -24.7018  -27.5486   18.2881 C   0  0  0  0  0  0  0  0  0  0  0  0
  -26.1518  -13.0438   21.5420 C   0  0  0  0  0  0  0  0  0  0  0  0
  -26.0496  -26.8802   18.5564 C   0  0  0  0  0  0  0  0  0  0  0  0
  -24.7316  -29.0303   18.6496 C   0  0  0  0  0  0  0  0  0  0  0  0
  -26.5094  -28.6370   20.3248 C   0  0  0  0  0  0  0  0  0  0  0  0
  -24.9876  -14.0123   21.3009 C   0  0  1  0  0  0  0  0  0  0  0  0
  -26.3595  -17.1621   19.6792 C   0  0  1  0  0  0  0  0  0  0  0  0
  -26.5135  -27.1323   20.0020 C   0  0  2  0  0  0  0  0  0  0  0  0
  -24.5696  -31.4873   22.8777 C   0  0  0  0  0  0  0  0  0  0  0  0
  -33.1197  -20.4978   17.8970 C   0  0  0  0  0  0  0  0  0  0  0  0
  -30.2563  -16.0800   21.9163 C   0  0  0  0  0  0  0  0  0  0  0  0
  -32.2568  -17.4667   21.3306 C   0  0  0  0  0  0  0  0  0  0  0  0
  -31.4197  -15.7485   19.7275 C   0  0  0  0  0  0  0  0  0  0  0  0
  -24.6943  -23.2641   26.0181 C   0  0  0  0  0  0  0  0  0  0  0  0
  -27.1046  -23.9331   25.8438 C   0  0  0  0  0  0  0  0  0  0  0  0
  -29.6503  -21.7686   16.9890 C   0  0  0  0  0  0  0  0  0  0  0  0
  -25.0310  -26.2076   25.1825 C   0  0  0  0  0  0  0  0  0  0  0  0
  -25.3836  -25.0052   24.2957 C   0  0  0  0  0  0  0  0  0  0  0  0
  -26.0638  -22.5875   24.0162 C   0  0  0  0  0  0  0  0  0  1  0  0
  -24.9687  -30.1259   22.3141 C   0  0  1  0  0  0  0  0  0  0  0  0
  -30.0959  -17.8755   20.0679 C   0  0  1  0  0  0  0  0  0  0  0  0
  -31.6183  -20.3937   17.6782 C   0  0  2  0  0  0  0  0  0  0  0  0
  -30.9820  -16.8049   20.7653 C   0  0  0  0  0  0  0  0  0  0  0  0
  -25.8051  -23.7115   25.0496 C   0  0  0  0  0  0  0  0  0  0  0  0
  -28.9759  -27.2322   20.1006 N   0  0  0  0  0  0  0  0  0  0  0  0
  -23.2689  -27.7432   24.2234 N   0  0  0  0  0  0  0  0  0  0  0  0
  -25.4277  -28.1784   23.6960 N   0  0  0  0  0  0  0  0  0  0  0  0
  -23.2592  -28.8164   23.4426 N   0  0  0  0  0  0  0  0  0  0  0  0
  -27.8644  -26.4980   20.2778 N   0  0  0  0  0  0  0  0  0  0  0  0
  -24.5501  -29.0358   23.1563 N   0  0  0  0  0  0  0  0  0  0  0  0
  -27.6223  -17.8186   20.0234 N   0  0  0  0  0  0  0  0  0  0  0  0
  -25.1988  -29.2291   20.0227 N   0  0  0  0  0  0  0  0  0  0  0  0
  -27.1021  -24.3518   20.9286 N   0  0  0  0  0  0  0  0  0  0  0  0
  -31.5922  -24.0123   21.2757 N   0  0  0  0  0  0  0  0  0  0  0  0
  -25.3851  -15.0633   20.3889 N   0  0  0  0  0  0  0  0  0  0  0  0
  -30.7483  -18.5591   18.9564 N   0  0  0  0  0  0  0  0  0  0  0  0
  -31.1103  -21.7310   17.2606 N   0  3  0  0  0  0  0  0  0  0  0  0
  -29.6147  -22.8769   21.5188 O   0  0  0  0  0  0  0  0  0  0  0  0
  -26.3724  -16.4896   21.9425 O   0  0  0  0  0  0  0  0  0  0  0  0
  -23.3396  -30.4832   20.6317 O   0  0  0  0  0  0  0  0  0  0  0  0
  -28.8788  -16.4089   18.6557 O   0  0  0  0  0  0  0  0  0  0  0  0
  -30.5347  -20.7024   19.8154 O   0  0  0  0  0  0  0  0  0  0  0  0
  -35.2931  -28.0299   20.1815 O   0  0  0  0  0  0  0  0  0  0  0  0
  -24.8859  -22.2970   23.2650 O   0  0  0  0  0  0  0  0  0  1  0  0
  -36.9104  -30.8520   15.7291 F   0  0  0  0  0  0  0  0  0  0  0  0
  -34.1114  -30.4412   19.5241 F   0  0  0  0  0  0  0  0  0  0  0  0
  1  2  1  0  0  0  0
  1  5  2  0  0  0  0
  2  6  2  0  0  0  0
  3  8  2  0  0  0  0
  3 15  1  0  0  0  0
  4  9  1  0  0  0  0
  4 15  2  0  0  0  0
  5 17  1  0  0  0  0
  6 19  1  0  0  0  0
  7 10  2  0  0  0  0
  7 18  1  0  0  0  0
  8 21  1  0  0  0  0
  9 21  2  0  0  0  0
 10 22  1  0  0  0  0
 11 12  2  0  0  0  0
 11 23  1  0  0  0  0
 12 24  1  0  0  0  0
 13 20  1  0  0  0  0
 13 22  2  0  0  0  0
 14 24  2  0  0  0  0
 14 25  1  0  0  0  0
 15 26  1  0  0  0  0
 16 26  1  0  0  0  0
 16 27  2  0  0  0  0
 16 29  1  0  0  0  0
 17 19  2  0  0  0  0
 17 34  1  0  0  0  0
 18 20  2  0  0  0  0
 18 35  1  0  0  0  0
 19 43  1  0  0  0  0
 20 36  1  0  0  0  0
 21 80  1  0  0  0  0
 22 81  1  0  0  0  0
 23 25  2  0  0  0  0
 23 80  1  0  0  0  0
 24 82  1  0  0  0  0
 25 83  1  0  0  0  0
 26 62  2  0  0  0  0
 27 66  1  0  0  0  0
 27 70  1  0  0  0  0
 28 54  1  0  0  0  0
 28 63  1  0  0  0  0
 28 64  2  0  0  0  0
 29 71  1  0  0  0  0
 29 75  2  0  0  0  0
 30 44  1  0  0  0  0
 30 72  1  0  0  0  0
 30 76  2  0  0  0  0
 31 57  1  0  0  0  0
 31 69  1  0  0  0  0
 31 77  2  0  0  0  0
 32 58  1  0  0  0  0
 32 68  1  0  0  0  0
 32 78  2  0  0  0  0
 33 59  1  0  0  0  0
 33 73  1  0  0  0  0
 33 79  2  0  0  0  0
 34 37  1  0  0  0  0
 35 44  1  0  0  0  0
 36 68  1  0  0  0  0
 37 39  1  0  0  0  0
 38 40  1  0  0  0  0
 38 41  1  0  0  0  0
 39 43  1  0  0  0  0
 40 45  1  0  0  0  0
 41 69  1  0  0  0  0
 42 45  1  0  0  0  0
 42 69  1  0  0  0  0
 43 72  1  0  0  0  0
 44 68  1  0  0  0  0
 45 66  1  0  0  0  0
 46 57  1  0  0  0  0
 47 59  1  0  0  0  0
 48 60  1  0  0  0  0
 49 60  1  0  0  0  0
 50 60  1  0  0  0  0
 51 61  1  0  0  0  0
 52 61  1  0  0  0  0
 53 74  1  0  0  0  0
 54 55  1  0  0  0  0
 55 61  1  0  0  0  0
 56 61  1  0  0  0  0
 56 81  1  0  0  0  0
 57 67  1  0  0  0  0
 58 60  1  0  0  0  0
 58 73  1  0  0  0  0
 59 74  1  0  0  0  0
 62 66  1  0  0  0  0
 63 65  2  0  0  0  0
 64 67  1  0  0  0  0
 65 67  1  0  0  0  0
M  CHG  1  74   1
M  ISO  4  31 100  56 101  57 100  81 101
M  END
> <Batch ID>
0059

> <Smiles>
CNC(C)C(=O)NC(C(=O)N1Cc2cc([101O:1][101CH2:1]C(C)(C)CCc3nnn([100CH:0](C)[100C:0](=O)N4CCCC(n5nc(-c6ccc(Oc7ccc(F)cc7F)cc6)c(C(N)=O)c5N)C4)n3)ccc2CC1C(=O)NC1CCCc2ccccc21)C(C)(C)C

> <Shape>
0.201

> <Color>
0.079

> <Negative vol penalty>
0.000

$$$$

  -OEChem-04052317533D

 83 91  0     1  0  0  0  0  0999 V2000
  -23.4120  -10.1687   18.8545 C   0  0  0  0  0  0  0  0  0  0  0  0
  -22.7382  -11.3318   18.4959 C   0  0  0  0  0  0  0  0  0  0  0  0
  -23.8717  -31.1152   22.7736 C   0  0  0  0  0  0  0  0  0  0  0  0
  -23.9631  -28.9717   23.8846 C   0  0  0  0  0  0  0  0  0  0  0  0
  -24.4053  -10.2130   19.8319 C   0  0  0  0  0  0  0  0  0  0  0  0
  -23.0567  -12.5399   19.1153 C   0  0  0  0  0  0  0  0  0  0  0  0
  -23.4085  -19.5709   17.7900 C   0  0  0  0  0  0  0  0  0  0  0  0
  -22.4780  -31.0599   22.7816 C   0  0  0  0  0  0  0  0  0  0  0  0
  -22.5693  -28.9164   23.8926 C   0  0  0  0  0  0  0  0  0  0  0  0
  -22.9598  -20.7874   18.3026 C   0  0  0  0  0  0  0  0  0  0  0  0
  -20.0925  -28.1841   21.7109 C   0  0  0  0  0  0  0  0  0  0  0  0
  -19.4894  -26.9826   21.3391 C   0  0  0  0  0  0  0  0  0  0  0  0
  -24.7484  -20.7582   19.9210 C   0  0  0  0  0  0  0  0  0  0  0  0
  -18.4370  -26.8392   23.5091 C   0  0  0  0  0  0  0  0  0  0  0  0
  -24.6143  -30.0710   23.3250 C   0  0  0  0  0  0  0  0  0  0  0  0
  -26.8892  -30.6764   24.3079 C   0  0  0  0  0  0  0  0  0  0  0  0
  -24.7428  -11.4239   20.4567 C   0  0  0  0  0  0  0  0  0  0  0  0
  -24.5258  -18.9326   18.3470 C   0  0  0  0  0  0  0  0  0  0  0  0
  -24.0546  -12.6002   20.1029 C   0  0  0  0  0  0  0  0  0  0  0  0
  -25.2107  -19.5350   19.4120 C   0  0  0  0  0  0  0  0  0  0  0  0
  -21.8268  -29.9606   23.3411 C   0  0  0  0  0  0  0  0  0  0  0  0
  -23.6280  -21.3798   19.3701 C   0  0  0  0  0  0  0  0  0  0  0  0
  -19.8679  -28.7131   22.9819 C   0  0  0  0  0  0  0  0  0  0  0  0
  -18.6616  -26.3102   22.2381 C   0  0  0  0  0  0  0  0  0  0  0  0
  -19.0402  -28.0407   23.8810 C   0  0  0  0  0  0  0  0  0  0  0  0
  -26.0540  -30.1272   23.3165 C   0  0  0  0  0  0  0  0  0  0  0  0
  -28.1623  -30.4823   23.8304 C   0  0  0  0  0  0  0  0  0  0  0  0
  -26.0914  -25.7808   20.2550 C   0  0  0  0  0  0  0  0  0  0  0  0
  -28.1604  -25.5267   20.1462 C   0  0  0  0  0  0  0  0  0  0  0  0
  -26.5449  -31.3057   25.5493 C   0  0  0  0  0  0  0  0  0  0  0  0
  -25.0257  -16.1528   19.8054 C   0  0  0  0  0  0  0  0  0  0  0  0
  -28.1313  -17.0778   19.6577 C   0  0  0  0  0  0  0  0  0  0  0  0
  -30.4282  -26.4898   19.9525 C   0  0  0  0  0  0  0  0  0  0  0  0
  -30.3866  -19.6280   19.4189 C   0  0  0  0  0  0  0  0  0  0  0  0
  -25.7908  -11.4137   21.5413 C   0  0  0  0  0  0  0  0  0  0  0  0
  -25.0132  -17.6339   17.7653 C   0  0  0  0  0  0  0  0  0  0  0  0
  -26.4276  -18.9005   20.0325 C   0  0  0  0  0  0  0  0  0  0  0  0
  -26.3279  -12.8013   21.8824 C   0  0  0  0  0  0  0  0  0  0  0  0
  -30.6179  -30.0626   19.7546 C   0  0  0  0  0  0  0  0  0  0  0  0
  -25.1805  -13.7940   22.0402 C   0  0  0  0  0  0  0  0  0  0  0  0
  -29.5259  -30.5338   20.7141 C   0  0  0  0  0  0  0  0  0  0  0  0
  -30.2153  -28.7774   19.0382 C   0  0  0  0  0  0  0  0  0  0  0  0
  -28.7423  -28.1318   20.9185 C   0  0  0  0  0  0  0  0  0  0  0  0
  -24.3888  -13.9342   20.7344 C   0  0  1  0  0  0  0  0  0  0  0  0
  -25.8539  -16.8192   18.7435 C   0  0  1  0  0  0  0  0  0  0  0  0
  -29.1215  -29.4109   21.6857 C   0  0  2  0  0  0  0  0  0  0  0  0
  -28.1861  -24.5095   16.8403 C   0  0  0  0  0  0  0  0  0  0  0  0
  -32.8551  -20.0757   19.3610 C   0  0  0  0  0  0  0  0  0  0  0  0
  -30.1372  -24.0660   19.6450 C   0  0  0  0  0  0  0  0  0  0  0  0
  -30.0213  -25.1350   21.8984 C   0  0  0  0  0  0  0  0  0  0  0  0
  -28.2854  -16.6041   22.6680 C   0  0  0  0  0  0  0  0  0  0  0  0
  -30.4030  -17.9393   22.6994 C   0  0  0  0  0  0  0  0  0  0  0  0
  -30.2848  -15.8223   21.3853 C   0  0  0  0  0  0  0  0  0  0  0  0
  -30.2222  -20.8333   16.7209 C   0  0  0  0  0  0  0  0  0  0  0  0
  -24.7056  -25.8946   20.8383 C   0  0  0  0  0  0  0  0  0  0  0  0
  -23.7147  -24.8734   20.2753 C   0  0  0  0  0  0  0  0  0  0  0  0
  -28.3521  -25.7875   17.6445 C   0  0  0  0  0  0  0  0  0  0  0  0
  -24.1735  -23.4298   20.4451 C   0  0  0  0  0  0  0  0  0  1  0  0
  -29.0551  -17.8683   20.5525 C   0  0  1  0  0  0  0  0  0  0  0  0
  -31.6058  -19.8149   18.5339 C   0  0  2  0  0  0  0  0  0  0  0  0
  -29.5962  -25.3158   20.4037 C   0  0  0  0  0  0  0  0  0  0  0  0
  -29.4830  -17.0698   21.8161 C   0  0  0  0  0  0  0  0  0  0  0  0
  -26.7389  -29.6223   22.2870 N   0  0  0  0  0  0  0  0  0  0  0  0
  -27.1909  -25.5499   21.0311 N   0  0  0  0  0  0  0  0  0  0  0  0
  -26.3195  -25.9020   18.9456 N   0  0  0  0  0  0  0  0  0  0  0  0
  -28.0179  -29.8534   22.6288 N   0  0  0  0  0  0  0  0  0  0  0  0
  -27.6502  -25.7354   18.9029 N   0  0  0  0  0  0  0  0  0  0  0  0
  -26.8615  -17.6279   19.4326 N   0  0  0  0  0  0  0  0  0  0  0  0
  -29.8168  -27.7430   19.9945 N   0  0  0  0  0  0  0  0  0  0  0  0
  -29.3800  -30.7899   24.3254 N   0  0  0  0  0  0  0  0  0  0  0  0
  -25.1894  -31.4230   25.8856 N   0  0  0  0  0  0  0  0  0  0  0  0
  -25.1043  -14.7732   19.7971 N   0  0  0  0  0  0  0  0  0  0  0  0
  -30.1676  -18.2987   19.7125 N   0  0  0  0  0  0  0  0  0  0  0  0
  -31.4041  -20.9674   17.6109 N   0  3  0  0  0  0  0  0  0  0  0  0
  -27.4130  -31.7654   26.3294 O   0  0  0  0  0  0  0  0  0  0  0  0
  -24.3654  -16.8395   20.5763 O   0  0  0  0  0  0  0  0  0  0  0  0
  -28.5246  -16.0149   19.1705 O   0  0  0  0  0  0  0  0  0  0  0  0
  -31.5876  -26.2972   19.5772 O   0  0  0  0  0  0  0  0  0  0  0  0
  -29.6995  -20.5676   19.8134 O   0  0  0  0  0  0  0  0  0  0  0  0
  -20.4668  -29.9065   23.3493 O   0  0  0  0  0  0  0  0  0  0  0  0
  -23.1917  -22.5667   19.8728 O   0  0  0  0  0  0  0  0  0  1  0  0
  -18.0813  -25.1572   21.8804 F   0  0  0  0  0  0  0  0  0  0  0  0
  -18.8197  -28.5446   25.1030 F   0  0  0  0  0  0  0  0  0  0  0  0
  1  2  1  0  0  0  0
  1  5  2  0  0  0  0
  2  6  2  0  0  0  0
  3  8  2  0  0  0  0
  3 15  1  0  0  0  0
  4  9  1  0  0  0  0
  4 15  2  0  0  0  0
  5 17  1  0  0  0  0
  6 19  1  0  0  0  0
  7 10  2  0  0  0  0
  7 18  1  0  0  0  0
  8 21  1  0  0  0  0
  9 21  2  0  0  0  0
 10 22  1  0  0  0  0
 11 12  2  0  0  0  0
 11 23  1  0  0  0  0
 12 24  1  0  0  0  0
 13 20  1  0  0  0  0
 13 22  2  0  0  0  0
 14 24  2  0  0  0  0
 14 25  1  0  0  0  0
 15 26  1  0  0  0  0
 16 26  1  0  0  0  0
 16 27  2  0  0  0  0
 16 30  1  0  0  0  0
 17 19  2  0  0  0  0
 17 35  1  0  0  0  0
 18 20  2  0  0  0  0
 18 36  1  0  0  0  0
 19 44  1  0  0  0  0
 20 37  1  0  0  0  0
 21 80  1  0  0  0  0
 22 81  1  0  0  0  0
 23 25  2  0  0  0  0
 23 80  1  0  0  0  0
 24 82  1  0  0  0  0
 25 83  1  0  0  0  0
 26 63  2  0  0  0  0
 27 66  1  0  0  0  0
 27 70  1  0  0  0  0
 28 55  1  0  0  0  0
 28 64  1  0  0  0  0
 28 65  2  0  0  0  0
 29 61  1  0  0  0  0
 29 64  2  0  0  0  0
 29 67  1  0  0  0  0
 30 71  1  0  0  0  0
 30 75  2  0  0  0  0
 31 45  1  0  0  0  0
 31 72  1  0  0  0  0
 31 76  2  0  0  0  0
 32 59  1  0  0  0  0
 32 68  1  0  0  0  0
 32 77  2  0  0  0  0
 33 61  1  0  0  0  0
 33 69  1  0  0  0  0
 33 78  2  0  0  0  0
 34 60  1  0  0  0  0
 34 73  1  0  0  0  0
 34 79  2  0  0  0  0
 35 38  1  0  0  0  0
 36 45  1  0  0  0  0
 37 68  1  0  0  0  0
 38 40  1  0  0  0  0
 39 41  1  0  0  0  0
 39 42  1  0  0  0  0
 40 44  1  0  0  0  0
 41 46  1  0  0  0  0
 42 69  1  0  0  0  0
 43 46  1  0  0  0  0
 43 69  1  0  0  0  0
 44 72  1  0  0  0  0
 45 68  1  0  0  0  0
 46 66  1  0  0  0  0
 47 57  1  0  0  0  0
 48 60  1  0  0  0  0
 49 61  1  0  0  0  0
 50 61  1  0  0  0  0
 51 62  1  0  0  0  0
 52 62  1  0  0  0  0
 53 62  1  0  0  0  0
 54 74  1  0  0  0  0
 55 56  1  0  0  0  0
 56 58  1  0  0  0  0
 57 67  1  0  0  0  0
 58 81  1  0  0  0  0
 59 62  1  0  0  0  0
 59 73  1  0  0  0  0
 60 74  1  0  0  0  0
 63 66  1  0  0  0  0
 65 67  1  0  0  0  0
M  CHG  1  74   1
M  ISO  4  33 100  58 101  61 100  81 101
M  END
> <Batch ID>
0059

> <Smiles>
CCn1nc(CC[101CH2:1][101O:1]c2ccc3c(c2)CN(C(=O)C(NC(=O)C(C)NC)C(C)(C)C)C(C(=O)NC2CCCc4ccccc42)C3)nc1[100C:0](C)(C)[100C:0](=O)N1CCCC(n2nc(-c3ccc(Oc4ccc(F)cc4F)cc3)c(C(N)=O)c2N)C1

> <Shape>
0.268

> <Color>
0.064

> <Negative vol penalty>
0.000

$$$$

  -OEChem-04052317533D

 81 89  0     1  0  0  0  0  0999 V2000
  -27.6205  -25.2499   25.1588 C   0  0  0  0  0  0  0  0  0  0  0  0
  -26.5161  -24.9102   24.3841 C   0  0  0  0  0  0  0  0  0  0  0  0
  -29.0827  -26.6194   19.4488 C   0  0  0  0  0  0  0  0  0  0  0  0
  -27.2018  -25.2406   18.8179 C   0  0  0  0  0  0  0  0  0  0  0  0
  -28.8084  -24.5314   25.0301 C   0  0  0  0  0  0  0  0  0  0  0  0
  -26.5992  -23.8524   23.4794 C   0  0  0  0  0  0  0  0  0  0  0  0
  -22.5533  -20.8126   23.6674 C   0  0  0  0  0  0  0  0  0  0  0  0
  -29.9561  -25.5943   19.0853 C   0  0  0  0  0  0  0  0  0  0  0  0
  -28.0751  -24.2155   18.4543 C   0  0  0  0  0  0  0  0  0  0  0  0
  -21.3941  -21.2555   23.0319 C   0  0  0  0  0  0  0  0  0  0  0  0
  -30.0774  -23.4621   15.8383 C   0  0  0  0  0  0  0  0  0  0  0  0
  -29.8401  -22.8090   14.6288 C   0  0  0  0  0  0  0  0  0  0  0  0
  -21.9017  -19.8490   21.1389 C   0  0  0  0  0  0  0  0  0  0  0  0
  -29.5863  -20.7161   15.8088 C   0  0  0  0  0  0  0  0  0  0  0  0
  -17.7147  -25.8479   21.0945 C   0  0  0  0  0  0  0  0  0  0  0  0
  -18.8083  -26.0746   23.5193 C   0  0  0  0  0  0  0  0  0  0  0  0
  -27.7055  -26.4425   19.3151 C   0  0  0  0  0  0  0  0  0  0  0  0
  -26.3186  -28.5367   18.8700 C   0  0  0  0  0  0  0  0  0  0  0  0
  -28.9032  -23.4581   24.1303 C   0  0  0  0  0  0  0  0  0  0  0  0
  -23.4026  -19.8913   23.0377 C   0  0  0  0  0  0  0  0  0  0  0  0
  -27.7899  -23.1197   23.3375 C   0  0  0  0  0  0  0  0  0  0  0  0
  -23.0698  -19.3941   21.7696 C   0  0  0  0  0  0  0  0  0  0  0  0
  -29.4523  -24.3924   18.5881 C   0  0  0  0  0  0  0  0  0  0  0  0
  -21.0696  -20.7759   21.7663 C   0  0  0  0  0  0  0  0  0  0  0  0
  -30.0692  -22.7421   17.0330 C   0  0  0  0  0  0  0  0  0  0  0  0
  -29.5945  -21.4360   14.6141 C   0  0  0  0  0  0  0  0  0  0  0  0
  -29.8236  -21.3691   17.0182 C   0  0  0  0  0  0  0  0  0  0  0  0
  -26.8028  -27.5008   19.6910 C   0  0  0  0  0  0  0  0  0  0  0  0
  -17.6629  -24.8090   21.9976 C   0  0  0  0  0  0  0  0  0  0  0  0
  -18.8609  -27.1132   22.6160 C   0  0  0  0  0  0  0  0  0  0  0  0
  -25.5017  -29.2733   19.6925 C   0  0  0  0  0  0  0  0  0  0  0  0
  -26.5835  -28.8088   17.4874 C   0  0  0  0  0  0  0  0  0  0  0  0
  -26.4246  -19.9355   22.0533 C   0  0  0  0  0  0  0  0  0  0  0  0
  -25.8614  -16.8008   21.4375 C   0  0  0  0  0  0  0  0  0  0  0  0
  -23.5913  -14.3420   20.7683 C   0  0  0  0  0  0  0  0  0  0  0  0
  -21.7580  -28.5846   24.0542 C   0  0  0  0  0  0  0  0  0  0  0  0
  -30.2229  -22.7411   23.9920 C   0  0  0  0  0  0  0  0  0  0  0  0
  -24.6354  -19.4032   23.7479 C   0  0  0  0  0  0  0  0  0  0  0  0
  -23.9375  -18.3886   21.0593 C   0  0  0  0  0  0  0  0  0  0  0  0
  -30.1131  -21.3951   23.2804 C   0  0  0  0  0  0  0  0  0  0  0  0
  -25.0574  -29.8121   24.5869 C   0  0  0  0  0  0  0  0  0  0  0  0
  -29.2626  -21.5250   22.0208 C   0  0  0  0  0  0  0  0  0  0  0  0
  -25.7988  -29.4375   23.3024 C   0  0  0  0  0  0  0  0  0  0  0  0
  -24.0470  -28.7398   24.9884 C   0  0  0  0  0  0  0  0  0  0  0  0
  -23.8258  -27.9954   22.6495 C   0  0  0  0  0  0  0  0  0  0  0  0
  -27.8334  -21.9628   22.3629 C   0  0  1  0  0  0  0  0  0  0  0  0
  -25.6943  -18.8533   22.7972 C   0  0  1  0  0  0  0  0  0  0  0  0
  -24.8159  -29.0723   22.1738 C   0  0  2  0  0  0  0  0  0  0  0  0
  -23.4350  -11.8866   20.2748 C   0  0  0  0  0  0  0  0  0  0  0  0
  -26.8414  -17.3125   18.5936 C   0  0  0  0  0  0  0  0  0  0  0  0
  -25.7894  -15.1441   17.9154 C   0  0  0  0  0  0  0  0  0  0  0  0
  -27.6309  -15.1626   19.5981 C   0  0  0  0  0  0  0  0  0  0  0  0
  -21.9454  -13.8446   23.1771 C   0  0  0  0  0  0  0  0  0  0  0  0
  -16.9828  -23.5129   21.6354 C   0  0  0  0  0  0  0  0  0  0  0  0
  -19.5320  -28.3930   22.9738 C   0  0  0  0  0  0  0  0  0  0  0  0
  -17.9161  -22.4876   20.9879 C   0  0  0  0  0  0  0  0  0  0  0  0
  -19.1312  -22.1514   21.8447 C   0  0  0  0  0  0  0  0  0  1  0  0
  -25.3445  -16.0200   20.2534 C   0  0  1  0  0  0  0  0  0  0  0  0
  -23.4060  -12.9550   21.3566 C   0  0  2  0  0  0  0  0  0  0  0  0
  -26.3860  -15.9302   19.1024 C   0  0  0  0  0  0  0  0  0  0  0  0
  -18.2085  -24.9038   23.2263 N   0  0  0  0  0  0  0  0  0  0  0  0
  -18.3150  -27.0185   21.3874 N   0  0  0  0  0  0  0  0  0  0  0  0
  -26.3329  -27.5697   20.9394 N   0  0  0  0  0  0  0  0  0  0  0  0
  -25.5448  -28.6579   20.9089 N   0  0  0  0  0  0  0  0  0  0  0  0
  -25.1355  -17.9467   21.7922 N   0  0  0  0  0  0  0  0  0  0  0  0
  -23.1437  -28.4407   23.8747 N   0  0  0  0  0  0  0  0  0  0  0  0
  -24.7579  -30.3809   19.4867 N   0  0  0  0  0  0  0  0  0  0  0  0
  -27.4464  -27.9515   16.7911 N   0  0  0  0  0  0  0  0  0  0  0  0
  -27.0698  -20.8434   22.8711 N   0  0  0  0  0  0  0  0  0  0  0  0
  -24.9156  -14.7262   20.7734 N   0  0  0  0  0  0  0  0  0  0  0  0
  -20.9738  -28.2868   22.9465 N   0  0  0  0  0  0  0  0  0  0  0  0
  -22.1010  -12.8654   22.0708 N   0  3  0  0  0  0  0  0  0  0  0  0
  -26.0830  -29.7927   16.8916 O   0  0  0  0  0  0  0  0  0  0  0  0
  -26.4054  -19.9451   20.8280 O   0  0  0  0  0  0  0  0  0  0  0  0
  -26.8679  -16.4046   22.0304 O   0  0  0  0  0  0  0  0  0  0  0  0
  -22.6555  -15.0157   20.3430 O   0  0  0  0  0  0  0  0  0  0  0  0
  -21.2572  -28.9563   25.1210 O   0  0  0  0  0  0  0  0  0  0  0  0
  -30.3042  -23.3921   18.2330 O   0  0  0  0  0  0  0  0  0  0  0  0
  -19.9391  -21.2070   21.1435 O   0  0  0  0  0  0  0  0  0  1  0  0
  -29.3651  -20.8093   13.4527 F   0  0  0  0  0  0  0  0  0  0  0  0
  -29.8133  -20.6724   18.1629 F   0  0  0  0  0  0  0  0  0  0  0  0
  1  2  1  0  0  0  0
  1  5  2  0  0  0  0
  2  6  2  0  0  0  0
  3  8  2  0  0  0  0
  3 17  1  0  0  0  0
  4  9  1  0  0  0  0
  4 17  2  0  0  0  0
  5 19  1  0  0  0  0
  6 21  1  0  0  0  0
  7 10  2  0  0  0  0
  7 20  1  0  0  0  0
  8 23  1  0  0  0  0
  9 23  2  0  0  0  0
 10 24  1  0  0  0  0
 11 12  2  0  0  0  0
 11 25  1  0  0  0  0
 12 26  1  0  0  0  0
 13 22  1  0  0  0  0
 13 24  2  0  0  0  0
 14 26  2  0  0  0  0
 14 27  1  0  0  0  0
 15 29  1  0  0  0  0
 15 62  2  0  0  0  0
 16 30  2  0  0  0  0
 16 61  1  0  0  0  0
 17 28  1  0  0  0  0
 18 28  1  0  0  0  0
 18 31  2  0  0  0  0
 18 32  1  0  0  0  0
 19 21  2  0  0  0  0
 19 37  1  0  0  0  0
 20 22  2  0  0  0  0
 20 38  1  0  0  0  0
 21 46  1  0  0  0  0
 22 39  1  0  0  0  0
 23 78  1  0  0  0  0
 24 79  1  0  0  0  0
 25 27  2  0  0  0  0
 25 78  1  0  0  0  0
 26 80  1  0  0  0  0
 27 81  1  0  0  0  0
 28 63  2  0  0  0  0
 29 54  1  0  0  0  0
 29 61  2  0  0  0  0
 30 55  1  0  0  0  0
 30 62  1  0  0  0  0
 31 64  1  0  0  0  0
 31 67  1  0  0  0  0
 32 68  1  0  0  0  0
 32 73  2  0  0  0  0
 33 47  1  0  0  0  0
 33 69  1  0  0  0  0
 33 74  2  0  0  0  0
 34 58  1  0  0  0  0
 34 65  1  0  0  0  0
 34 75  2  0  0  0  0
 35 59  1  0  0  0  0
 35 70  1  0  0  0  0
 35 76  2  0  0  0  0
 36 66  1  0  0  0  0
 36 71  1  0  0  0  0
 36 77  2  0  0  0  0
 37 40  1  0  0  0  0
 38 47  1  0  0  0  0
 39 65  1  0  0  0  0
 40 42  1  0  0  0  0
 41 43  1  0  0  0  0
 41 44  1  0  0  0  0
 42 46  1  0  0  0  0
 43 48  1  0  0  0  0
 44 66  1  0  0  0  0
 45 48  1  0  0  0  0
 45 66  1  0  0  0  0
 46 69  1  0  0  0  0
 47 65  1  0  0  0  0
 48 64  1  0  0  0  0
 49 59  1  0  0  0  0
 50 60  1  0  0  0  0
 51 60  1  0  0  0  0
 52 60  1  0  0  0  0
 53 72  1  0  0  0  0
 54 56  1  0  0  0  0
 55 71  1  0  0  0  0
 56 57  1  0  0  0  0
 57 79  1  0  0  0  0
 58 60  1  0  0  0  0
 58 70  1  0  0  0  0
 59 72  1  0  0  0  0
 63 64  1  0  0  0  0
M  CHG  1  72   1
M  ISO  4  36 100  57 101  71 100  79 101
M  END
> <Batch ID>
0059

> <Smiles>
CNC(C)C(=O)NC(C(=O)N1Cc2cc([101O:1][101CH2:1]CCc3cnc(C[100NH:0][100C:0](=O)N4CCCC(n5nc(-c6ccc(Oc7ccc(F)cc7F)cc6)c(C(N)=O)c5N)C4)cn3)ccc2CC1C(=O)NC1CCCc2ccccc21)C(C)(C)C

> <Shape>
0.174

> <Color>
0.068

> <Negative vol penalty>
0.000

$$$$

  -OEChem-04052317533D

 80 88  0     1  0  0  0  0  0999 V2000
  -31.2156  -29.1896   21.2301 C   0  0  0  0  0  0  0  0  0  0  0  0
  -30.6298  -28.1205   21.9005 C   0  0  0  0  0  0  0  0  0  0  0  0
  -23.2794   -9.7782   19.9751 C   0  0  0  0  0  0  0  0  0  0  0  0
  -23.7204   -9.9987   22.3403 C   0  0  0  0  0  0  0  0  0  0  0  0
  -31.2910  -29.1809   19.8379 C   0  0  0  0  0  0  0  0  0  0  0  0
  -30.1180  -27.0427   21.1790 C   0  0  0  0  0  0  0  0  0  0  0  0
  -30.1234  -21.1532   22.8584 C   0  0  0  0  0  0  0  0  0  0  0  0
  -22.5424   -8.6197   20.2205 C   0  0  0  0  0  0  0  0  0  0  0  0
  -22.9832   -8.8401   22.5857 C   0  0  0  0  0  0  0  0  0  0  0  0
  -29.1478  -20.3415   23.4355 C   0  0  0  0  0  0  0  0  0  0  0  0
  -23.1662   -5.3607   20.8641 C   0  0  0  0  0  0  0  0  0  0  0  0
  -23.3898   -4.2631   20.0330 C   0  0  0  0  0  0  0  0  0  0  0  0
  -28.5386  -19.5286   21.2475 C   0  0  0  0  0  0  0  0  0  0  0  0
  -21.0713   -4.3043   19.3547 C   0  0  0  0  0  0  0  0  0  0  0  0
  -30.8778  -15.1903   23.4007 C   0  0  0  0  0  0  0  0  0  0  0  0
  -23.8685  -10.4677   21.0350 C   0  0  0  0  0  0  0  0  0  0  0  0
  -24.1498  -12.9869   20.7487 C   0  0  0  0  0  0  0  0  0  0  0  0
  -30.7885  -28.0979   19.0995 C   0  0  0  0  0  0  0  0  0  0  0  0
  -30.3069  -21.1669   21.4683 C   0  0  0  0  0  0  0  0  0  0  0  0
  -30.1855  -27.0201   19.7756 C   0  0  0  0  0  0  0  0  0  0  0  0
  -29.5190  -20.3395   20.6555 C   0  0  0  0  0  0  0  0  0  0  0  0
  -22.3943   -8.1507   21.5257 C   0  0  0  0  0  0  0  0  0  0  0  0
  -28.3532  -19.5312   22.6298 C   0  0  0  0  0  0  0  0  0  0  0  0
  -21.8951   -5.9302   20.9406 C   0  0  0  0  0  0  0  0  0  0  0  0
  -22.3424   -3.7348   19.2783 C   0  0  0  0  0  0  0  0  0  0  0  0
  -20.8477   -5.4020   20.1859 C   0  0  0  0  0  0  0  0  0  0  0  0
  -24.6305  -11.6641   20.7822 C   0  0  0  0  0  0  0  0  0  0  0  0
  -25.2589  -13.7483   20.4718 C   0  0  0  0  0  0  0  0  0  0  0  0
  -28.9417  -15.5770   24.0784 C   0  0  0  0  0  0  0  0  0  0  0  0
  -22.8198  -13.4830   20.9499 C   0  0  0  0  0  0  0  0  0  0  0  0
  -30.0555  -23.3735   19.1941 C   0  0  0  0  0  0  0  0  0  0  0  0
  -31.1216  -12.7677   21.3546 C   0  0  0  0  0  0  0  0  0  0  0  0
  -31.2587  -21.0171   17.3174 C   0  0  0  0  0  0  0  0  0  0  0  0
  -31.7156  -17.6750   16.7989 C   0  0  0  0  0  0  0  0  0  0  0  0
  -30.8501  -28.1551   17.5936 C   0  0  0  0  0  0  0  0  0  0  0  0
  -31.3817  -22.0282   20.8637 C   0  0  0  0  0  0  0  0  0  0  0  0
  -29.6898  -20.3024   19.1596 C   0  0  0  0  0  0  0  0  0  0  0  0
  -30.6209  -26.8032   16.9228 C   0  0  0  0  0  0  0  0  0  0  0  0
  -29.4895  -13.5511   18.2623 C   0  0  0  0  0  0  0  0  0  0  0  0
  -29.4156  -26.0994   17.5383 C   0  0  0  0  0  0  0  0  0  0  0  0
  -28.0186  -13.2491   18.5462 C   0  0  0  0  0  0  0  0  0  0  0  0
  -30.4103  -12.5796   18.9939 C   0  0  0  0  0  0  0  0  0  0  0  0
  -28.7111  -12.2179   20.7557 C   0  0  0  0  0  0  0  0  0  0  0  0
  -29.6412  -25.8213   19.0293 C   0  0  1  0  0  0  0  0  0  0  0  0
  -31.1347  -22.3470   19.3924 C   0  0  1  0  0  0  0  0  0  0  0  0
  -27.7475  -13.1956   20.0601 C   0  0  2  0  0  0  0  0  0  0  0  0
  -31.8862  -12.1615   23.6401 C   0  0  0  0  0  0  0  0  0  0  0  0
  -32.7020  -16.0529   15.1578 C   0  0  0  0  0  0  0  0  0  0  0  0
  -28.8776  -21.4523   15.4598 C   0  0  0  0  0  0  0  0  0  0  0  0
  -29.3862  -19.2401   14.4036 C   0  0  0  0  0  0  0  0  0  0  0  0
  -31.0588  -21.0874   14.2920 C   0  0  0  0  0  0  0  0  0  0  0  0
  -33.6182  -16.6220   18.8065 C   0  0  0  0  0  0  0  0  0  0  0  0
  -27.6795  -16.2008   24.6180 C   0  0  0  0  0  0  0  0  0  0  0  0
  -26.6295  -16.4939   23.5442 C   0  0  0  0  0  0  0  0  0  0  0  0
  -27.0885  -17.5205   22.5151 C   0  0  0  0  0  0  0  0  0  1  0  0
  -30.7308  -12.7154   22.8101 C   0  0  1  0  0  0  0  0  0  0  0  0
  -30.6664  -19.9018   16.4902 C   0  0  1  0  0  0  0  0  0  0  0  0
  -32.9466  -16.8745   16.4140 C   0  0  2  0  0  0  0  0  0  0  0  0
  -29.9925  -20.4223   15.1894 C   0  0  0  0  0  0  0  0  0  0  0  0
  -30.0882  -16.1893   23.8939 N   0  0  0  0  0  0  0  0  0  0  0  0
  -25.9427  -11.5862   20.5453 N   0  0  0  0  0  0  0  0  0  0  0  0
  -29.0546  -14.2730   23.7086 N   0  0  0  0  0  0  0  0  0  0  0  0
  -30.2919  -13.9984   23.2684 N   0  0  0  0  0  0  0  0  0  0  0  0
  -26.2960  -12.8695   20.3603 N   0  0  0  0  0  0  0  0  0  0  0  0
  -30.7498  -21.1671   18.6153 N   0  0  0  0  0  0  0  0  0  0  0  0
  -30.1061  -12.5409   20.4254 N   0  0  0  0  0  0  0  0  0  0  0  0
  -25.4385  -15.0771   20.3152 N   0  0  0  0  0  0  0  0  0  0  0  0
  -21.7983  -12.5637   21.2253 N   0  0  0  0  0  0  0  0  0  0  0  0
  -30.5110  -24.6780   19.2043 N   0  0  0  0  0  0  0  0  0  0  0  0
  -31.7443  -18.9452   16.2632 N   0  0  0  0  0  0  0  0  0  0  0  0
  -33.3262  -15.9460   17.5162 N   0  3  0  0  0  0  0  0  0  0  0  0
  -22.5422  -14.7038   20.8712 O   0  0  0  0  0  0  0  0  0  0  0  0
  -28.8955  -23.0088   19.0417 O   0  0  0  0  0  0  0  0  0  0  0  0
  -32.2943  -13.0060   21.0544 O   0  0  0  0  0  0  0  0  0  0  0  0
  -32.1454  -21.7244   16.8325 O   0  0  0  0  0  0  0  0  0  0  0  0
  -30.8166  -17.2180   17.5013 O   0  0  0  0  0  0  0  0  0  0  0  0
  -21.6749   -7.0204   21.7655 O   0  0  0  0  0  0  0  0  0  0  0  0
  -27.3998  -18.7384   23.1904 O   0  0  0  0  0  0  0  0  0  1  0  0
  -22.5577   -2.6817   18.4791 F   0  0  0  0  0  0  0  0  0  0  0  0
  -19.6247   -5.9455   20.2543 F   0  0  0  0  0  0  0  0  0  0  0  0
  1  2  1  0  0  0  0
  1  5  2  0  0  0  0
  2  6  2  0  0  0  0
  3  8  2  0  0  0  0
  3 16  1  0  0  0  0
  4  9  1  0  0  0  0
  4 16  2  0  0  0  0
  5 18  1  0  0  0  0
  6 20  1  0  0  0  0
  7 10  2  0  0  0  0
  7 19  1  0  0  0  0
  8 22  1  0  0  0  0
  9 22  2  0  0  0  0
 10 23  1  0  0  0  0
 11 12  2  0  0  0  0
 11 24  1  0  0  0  0
 12 25  1  0  0  0  0
 13 21  1  0  0  0  0
 13 23  2  0  0  0  0
 14 25  2  0  0  0  0
 14 26  1  0  0  0  0
 15 60  2  0  0  0  0
 15 63  1  0  0  0  0
 16 27  1  0  0  0  0
 17 27  1  0  0  0  0
 17 28  2  0  0  0  0
 17 30  1  0  0  0  0
 18 20  2  0  0  0  0
 18 35  1  0  0  0  0
 19 21  2  0  0  0  0
 19 36  1  0  0  0  0
 20 44  1  0  0  0  0
 21 37  1  0  0  0  0
 22 77  1  0  0  0  0
 23 78  1  0  0  0  0
 24 26  2  0  0  0  0
 24 77  1  0  0  0  0
 25 79  1  0  0  0  0
 26 80  1  0  0  0  0
 27 61  2  0  0  0  0
 28 64  1  0  0  0  0
 28 67  1  0  0  0  0
 29 53  1  0  0  0  0
 29 60  1  0  0  0  0
 29 62  2  0  0  0  0
 30 68  1  0  0  0  0
 30 72  2  0  0  0  0
 31 45  1  0  0  0  0
 31 69  1  0  0  0  0
 31 73  2  0  0  0  0
 32 56  1  0  0  0  0
 32 66  1  0  0  0  0
 32 74  2  0  0  0  0
 33 57  1  0  0  0  0
 33 65  1  0  0  0  0
 33 75  2  0  0  0  0
 34 58  1  0  0  0  0
 34 70  1  0  0  0  0
 34 76  2  0  0  0  0
 35 38  1  0  0  0  0
 36 45  1  0  0  0  0
 37 65  1  0  0  0  0
 38 40  1  0  0  0  0
 39 41  1  0  0  0  0
 39 42  1  0  0  0  0
 40 44  1  0  0  0  0
 41 46  1  0  0  0  0
 42 66  1  0  0  0  0
 43 46  1  0  0  0  0
 43 66  1  0  0  0  0
 44 69  1  0  0  0  0
 45 65  1  0  0  0  0
 46 64  1  0  0  0  0
 47 56  1  0  0  0  0
 48 58  1  0  0  0  0
 49 59  1  0  0  0  0
 50 59  1  0  0  0  0
 51 59  1  0  0  0  0
 52 71  1  0  0  0  0
 53 54  1  0  0  0  0
 54 55  1  0  0  0  0
 55 78  1  0  0  0  0
 56 63  1  0  0  0  0
 57 59  1  0  0  0  0
 57 70  1  0  0  0  0
 58 71  1  0  0  0  0
 61 64  1  0  0  0  0
 62 63  1  0  0  0  0
M  CHG  1  71   1
M  ISO  4  32 100  55 101  56 100  78 101
M  END
> <Batch ID>
0059

> <Smiles>
CNC(C)C(=O)NC(C(=O)N1Cc2cc([101O:1][101CH2:1]CCc3ncn([100CH:0](C)[100C:0](=O)N4CCCC(n5nc(-c6ccc(Oc7ccc(F)cc7F)cc6)c(C(N)=O)c5N)C4)n3)ccc2CC1C(=O)NC1CCCc2ccccc21)C(C)(C)C

> <Shape>
0.217

> <Color>
0.200

> <Negative vol penalty>
0.000

$$$$

  -OEChem-04052317533D

 84 92  0     1  0  0  0  0  0999 V2000
  -31.4891  -16.6198   27.4913 C   0  0  0  0  0  0  0  0  0  0  0  0
  -31.3496  -17.3294   26.3029 C   0  0  0  0  0  0  0  0  0  0  0  0
  -23.2062   -9.8697   19.9190 C   0  0  0  0  0  0  0  0  0  0  0  0
  -23.8308   -9.9527   22.2514 C   0  0  0  0  0  0  0  0  0  0  0  0
  -30.5558  -16.7845   28.5139 C   0  0  0  0  0  0  0  0  0  0  0  0
  -30.2760  -18.2034   26.1359 C   0  0  0  0  0  0  0  0  0  0  0  0
  -31.6712  -22.6292   24.1084 C   0  0  0  0  0  0  0  0  0  0  0  0
  -22.4730   -8.7072   20.1567 C   0  0  0  0  0  0  0  0  0  0  0  0
  -23.0976   -8.7901   22.4891 C   0  0  0  0  0  0  0  0  0  0  0  0
  -31.8978  -22.6562   22.7330 C   0  0  0  0  0  0  0  0  0  0  0  0
  -19.8570   -7.9366   22.9256 C   0  0  0  0  0  0  0  0  0  0  0  0
  -19.0341   -7.9100   24.0515 C   0  0  0  0  0  0  0  0  0  0  0  0
  -29.7094  -23.6139   22.3974 C   0  0  0  0  0  0  0  0  0  0  0  0
  -20.2702   -6.0203   24.9105 C   0  0  0  0  0  0  0  0  0  0  0  0
  -28.9823  -18.9521   20.9061 C   0  0  0  0  0  0  0  0  0  0  0  0
  -23.8851  -10.4925   20.9664 C   0  0  0  0  0  0  0  0  0  0  0  0
  -24.1811  -13.0206   20.7981 C   0  0  0  0  0  0  0  0  0  0  0  0
  -29.4756  -17.6683   28.3631 C   0  0  0  0  0  0  0  0  0  0  0  0
  -30.4557  -23.0850   24.6386 C   0  0  0  0  0  0  0  0  0  0  0  0
  -29.3266  -18.3791   27.1569 C   0  0  0  0  0  0  0  0  0  0  0  0
  -29.4708  -23.5940   23.7801 C   0  0  0  0  0  0  0  0  0  0  0  0
  -22.4187   -8.1674   21.4417 C   0  0  0  0  0  0  0  0  0  0  0  0
  -30.9157  -23.1460   21.8770 C   0  0  0  0  0  0  0  0  0  0  0  0
  -20.8865   -7.0049   22.7921 C   0  0  0  0  0  0  0  0  0  0  0  0
  -19.2407   -6.9519   25.0440 C   0  0  0  0  0  0  0  0  0  0  0  0
  -21.0931   -6.0468   23.7845 C   0  0  0  0  0  0  0  0  0  0  0  0
  -24.6431  -11.6931   20.7214 C   0  0  0  0  0  0  0  0  0  0  0  0
  -29.3852  -17.7596   20.3467 C   0  0  0  0  0  0  0  0  0  0  0  0
  -29.8572  -20.0845   19.1224 C   0  0  0  0  0  0  0  0  0  0  0  0
  -30.2609  -18.8921   18.5633 C   0  0  0  0  0  0  0  0  0  0  0  0
  -25.2768  -13.7846   20.4784 C   0  0  0  0  0  0  0  0  0  0  0  0
  -22.8780  -13.5187   21.1290 C   0  0  0  0  0  0  0  0  0  0  0  0
  -28.0951  -21.7562   26.3016 C   0  0  0  0  0  0  0  0  0  0  0  0
  -26.9926  -24.8042   26.4300 C   0  0  0  0  0  0  0  0  0  0  0  0
  -26.9375  -27.9257   25.0515 C   0  0  0  0  0  0  0  0  0  0  0  0
  -30.8214  -14.6373   21.3995 C   0  0  0  0  0  0  0  0  0  0  0  0
  -28.4659  -17.7776   29.4781 C   0  0  0  0  0  0  0  0  0  0  0  0
  -30.2372  -23.0740   26.1267 C   0  0  0  0  0  0  0  0  0  0  0  0
  -28.1567  -24.1140   24.3007 C   0  0  0  0  0  0  0  0  0  0  0  0
  -27.5650  -19.0048   29.3660 C   0  0  0  0  0  0  0  0  0  0  0  0
  -29.7702  -12.4928   18.5715 C   0  0  0  0  0  0  0  0  0  0  0  0
  -27.0394  -19.1528   27.9416 C   0  0  0  0  0  0  0  0  0  0  0  0
  -28.3255  -12.1506   18.9320 C   0  0  0  0  0  0  0  0  0  0  0  0
  -30.6169  -12.7581   19.8126 C   0  0  0  0  0  0  0  0  0  0  0  0
  -28.6090  -13.4569   21.0753 C   0  0  0  0  0  0  0  0  0  0  0  0
  -28.1893  -19.3552   26.9475 C   0  0  1  0  0  0  0  0  0  0  0  0
  -28.7617  -23.0859   26.5142 C   0  0  1  0  0  0  0  0  0  0  0  0
  -27.7177  -13.2294   19.8451 C   0  0  2  0  0  0  0  0  0  0  0  0
  -31.0454  -17.4382   16.6772 C   0  0  0  0  0  0  0  0  0  0  0  0
  -25.9157  -30.1970   25.3587 C   0  0  0  0  0  0  0  0  0  0  0  0
  -24.3481  -23.7618   25.3211 C   0  0  0  0  0  0  0  0  0  0  0  0
  -23.7308  -26.1234   24.7641 C   0  0  0  0  0  0  0  0  0  0  0  0
  -24.1185  -25.4643   27.1385 C   0  0  0  0  0  0  0  0  0  0  0  0
  -31.1332  -16.8688   22.4009 C   0  0  0  0  0  0  0  0  0  0  0  0
  -29.5868  -29.1983   25.3989 C   0  0  0  0  0  0  0  0  0  0  0  0
  -30.1196  -21.4024   18.4383 C   0  0  0  0  0  0  0  0  0  0  0  0
  -30.9758  -18.8493   17.2560 C   0  0  0  0  0  0  0  0  0  0  0  0
  -29.1146  -16.4704   21.0400 C   0  0  0  0  0  0  0  0  0  0  0  0
  -31.5679  -21.8815   18.5591 C   0  0  0  0  0  0  0  0  0  0  0  0
  -31.9914  -22.1675   19.9952 C   0  0  0  0  0  0  0  0  0  1  0  0
  -26.0898  -25.6518   25.5666 C   0  0  1  0  0  0  0  0  0  0  0  0
  -27.1058  -29.3024   25.6686 C   0  0  2  0  0  0  0  0  0  0  0  0
  -24.5957  -25.2388   25.6873 C   0  0  0  0  0  0  0  0  0  0  0  0
  -29.2110  -20.1360   20.3040 N   0  0  0  0  0  0  0  0  0  0  0  0
  -25.9319  -11.6146   20.3796 N   0  0  0  0  0  0  0  0  0  0  0  0
  -30.0318  -17.7082   19.1652 N   0  0  0  0  0  0  0  0  0  0  0  0
  -26.2891  -12.9025   20.2386 N   0  0  0  0  0  0  0  0  0  0  0  0
  -27.9880  -24.0764   25.7628 N   0  0  0  0  0  0  0  0  0  0  0  0
  -29.9947  -13.7556   20.6839 N   0  0  0  0  0  0  0  0  0  0  0  0
  -25.4636  -15.1181   20.3817 N   0  0  0  0  0  0  0  0  0  0  0  0
  -21.8671  -12.5963   21.4317 N   0  0  0  0  0  0  0  0  0  0  0  0
  -28.6738  -20.7177   27.0058 N   0  0  0  0  0  0  0  0  0  0  0  0
  -26.3580  -27.0382   25.9334 N   0  0  0  0  0  0  0  0  0  0  0  0
  -30.3094  -15.9150   21.6718 N   0  0  0  0  0  0  0  0  0  0  0  0
  -28.3364  -29.9586   25.1431 N   0  3  0  0  0  0  0  0  0  0  0  0
  -22.6134  -14.7449   21.1393 O   0  0  0  0  0  0  0  0  0  0  0  0
  -27.1263  -21.6785   25.5551 O   0  0  0  0  0  0  0  0  0  0  0  0
  -26.8255  -24.7940   27.6522 O   0  0  0  0  0  0  0  0  0  0  0  0
  -27.2820  -27.6648   23.9010 O   0  0  0  0  0  0  0  0  0  0  0  0
  -31.9561  -14.3050   21.7652 O   0  0  0  0  0  0  0  0  0  0  0  0
  -21.7031   -7.0331   21.6740 O   0  0  0  0  0  0  0  0  0  0  0  0
  -31.1340  -23.1729   20.5341 O   0  0  0  0  0  0  0  0  0  1  0  0
  -18.4513   -6.9275   26.1259 F   0  0  0  0  0  0  0  0  0  0  0  0
  -22.0813   -5.1499   23.6623 F   0  0  0  0  0  0  0  0  0  0  0  0
  1  2  1  0  0  0  0
  1  5  2  0  0  0  0
  2  6  2  0  0  0  0
  3  8  2  0  0  0  0
  3 16  1  0  0  0  0
  4  9  1  0  0  0  0
  4 16  2  0  0  0  0
  5 18  1  0  0  0  0
  6 20  1  0  0  0  0
  7 10  2  0  0  0  0
  7 19  1  0  0  0  0
  8 22  1  0  0  0  0
  9 22  2  0  0  0  0
 10 23  1  0  0  0  0
 11 12  2  0  0  0  0
 11 24  1  0  0  0  0
 12 25  1  0  0  0  0
 13 21  1  0  0  0  0
 13 23  2  0  0  0  0
 14 25  2  0  0  0  0
 14 26  1  0  0  0  0
 15 28  1  0  0  0  0
 15 64  2  0  0  0  0
 16 27  1  0  0  0  0
 17 27  1  0  0  0  0
 17 31  2  0  0  0  0
 17 32  1  0  0  0  0
 18 20  2  0  0  0  0
 18 37  1  0  0  0  0
 19 21  2  0  0  0  0
 19 38  1  0  0  0  0
 20 46  1  0  0  0  0
 21 39  1  0  0  0  0
 22 81  1  0  0  0  0
 23 82  1  0  0  0  0
 24 26  2  0  0  0  0
 24 81  1  0  0  0  0
 25 83  1  0  0  0  0
 26 84  1  0  0  0  0
 27 65  2  0  0  0  0
 28 58  1  0  0  0  0
 28 66  2  0  0  0  0
 29 30  2  0  0  0  0
 29 56  1  0  0  0  0
 29 64  1  0  0  0  0
 30 57  1  0  0  0  0
 30 66  1  0  0  0  0
 31 67  1  0  0  0  0
 31 70  1  0  0  0  0
 32 71  1  0  0  0  0
 32 76  2  0  0  0  0
 33 47  1  0  0  0  0
 33 72  1  0  0  0  0
 33 77  2  0  0  0  0
 34 61  1  0  0  0  0
 34 68  1  0  0  0  0
 34 78  2  0  0  0  0
 35 62  1  0  0  0  0
 35 73  1  0  0  0  0
 35 79  2  0  0  0  0
 36 69  1  0  0  0  0
 36 74  1  0  0  0  0
 36 80  2  0  0  0  0
 37 40  1  0  0  0  0
 38 47  1  0  0  0  0
 39 68  1  0  0  0  0
 40 42  1  0  0  0  0
 41 43  1  0  0  0  0
 41 44  1  0  0  0  0
 42 46  1  0  0  0  0
 43 48  1  0  0  0  0
 44 69  1  0  0  0  0
 45 48  1  0  0  0  0
 45 69  1  0  0  0  0
 46 72  1  0  0  0  0
 47 68  1  0  0  0  0
 48 67  1  0  0  0  0
 49 57  1  0  0  0  0
 50 62  1  0  0  0  0
 51 63  1  0  0  0  0
 52 63  1  0  0  0  0
 53 63  1  0  0  0  0
 54 74  1  0  0  0  0
 55 75  1  0  0  0  0
 56 59  1  0  0  0  0
 58 74  1  0  0  0  0
 59 60  1  0  0  0  0
 60 82  1  0  0  0  0
 61 63  1  0  0  0  0
 61 73  1  0  0  0  0
 62 75  1  0  0  0  0
 65 67  1  0  0  0  0
M  CHG  1  75   1
M  ISO  4  36 100  60 101  74 100  82 101
M  END
> <Batch ID>
0059

> <Smiles>
CCc1nc(C[100N:0](C)[100C:0](=O)N2CCCC(n3nc(-c4ccc(Oc5ccc(F)cc5F)cc4)c(C(N)=O)c3N)C2)cnc1CC[101CH2:1][101O:1]c1ccc2c(c1)CN(C(=O)C(NC(=O)C(C)NC)C(C)(C)C)C(C(=O)NC1CCCc3ccccc31)C2

> <Shape>
0.224

> <Color>
0.203

> <Negative vol penalty>
0.000

$$$$

  -OEChem-04052317533D

 82 90  0     1  0  0  0  0  0999 V2000
  -31.5328  -12.8031   22.4350 C   0  0  0  0  0  0  0  0  0  0  0  0
  -30.9300  -13.9999   22.8086 C   0  0  0  0  0  0  0  0  0  0  0  0
  -24.9057  -30.7038   21.0644 C   0  0  0  0  0  0  0  0  0  0  0  0
  -24.9500  -29.2368   22.9835 C   0  0  0  0  0  0  0  0  0  0  0  0
  -31.0288  -12.0767   21.3569 C   0  0  0  0  0  0  0  0  0  0  0  0
  -29.8233  -14.4717   22.1035 C   0  0  0  0  0  0  0  0  0  0  0  0
  -26.1424  -16.1398   25.1553 C   0  0  0  0  0  0  0  0  0  0  0  0
  -24.3290  -31.7064   21.8441 C   0  0  0  0  0  0  0  0  0  0  0  0
  -24.3733  -30.2393   23.7632 C   0  0  0  0  0  0  0  0  0  0  0  0
  -26.3095  -17.4020   25.7235 C   0  0  0  0  0  0  0  0  0  0  0  0
  -25.3485  -33.9840   24.1258 C   0  0  0  0  0  0  0  0  0  0  0  0
  -25.8609  -35.2755   24.0038 C   0  0  0  0  0  0  0  0  0  0  0  0
  -24.8437  -18.3410   24.0536 C   0  0  0  0  0  0  0  0  0  0  0  0
  -23.6918  -36.0691   23.2949 C   0  0  0  0  0  0  0  0  0  0  0  0
  -28.3838  -23.1549   22.6000 C   0  0  0  0  0  0  0  0  0  0  0  0
  -25.2162  -29.4690   21.6341 C   0  0  0  0  0  0  0  0  0  0  0  0
  -27.1843  -28.2012   20.6207 C   0  0  0  0  0  0  0  0  0  0  0  0
  -29.9094  -12.5350   20.6443 C   0  0  0  0  0  0  0  0  0  0  0  0
  -25.3320  -15.9703   24.0236 C   0  0  0  0  0  0  0  0  0  0  0  0
  -29.3046  -13.7515   21.0141 C   0  0  0  0  0  0  0  0  0  0  0  0
  -24.6659  -17.0753   23.4745 C   0  0  0  0  0  0  0  0  0  0  0  0
  -24.0628  -31.4742   23.1935 C   0  0  0  0  0  0  0  0  0  0  0  0
  -25.6624  -18.5033   25.1709 C   0  0  0  0  0  0  0  0  0  0  0  0
  -24.0077  -33.7349   23.8323 C   0  0  0  0  0  0  0  0  0  0  0  0
  -25.0326  -36.3181   23.5883 C   0  0  0  0  0  0  0  0  0  0  0  0
  -23.1794  -34.7775   23.4168 C   0  0  0  0  0  0  0  0  0  0  0  0
  -25.8114  -28.4328   20.8291 C   0  0  0  0  0  0  0  0  0  0  0  0
  -27.1256  -23.0354   23.1194 C   0  0  0  0  0  0  0  0  0  0  0  0
  -27.2258  -27.1105   19.7869 C   0  0  0  0  0  0  0  0  0  0  0  0
  -27.0211  -22.5606   20.9598 C   0  0  0  0  0  0  0  0  0  0  0  0
  -28.3204  -28.9088   21.1348 C   0  0  0  0  0  0  0  0  0  0  0  0
  -25.8211  -14.9834   21.0419 C   0  0  0  0  0  0  0  0  0  0  0  0
  -22.5924  -15.2264   20.8457 C   0  0  0  0  0  0  0  0  0  0  0  0
  -19.7162  -16.6360   22.0236 C   0  0  0  0  0  0  0  0  0  0  0  0
  -24.0073  -22.1827   19.1226 C   0  0  0  0  0  0  0  0  0  0  0  0
  -29.4294  -11.7393   19.4564 C   0  0  0  0  0  0  0  0  0  0  0  0
  -25.1409  -14.5978   23.4387 C   0  0  0  0  0  0  0  0  0  0  0  0
  -23.7687  -16.9432   22.2720 C   0  0  0  0  0  0  0  0  0  0  0  0
  -28.0243  -12.1191   18.9964 C   0  0  0  0  0  0  0  0  0  0  0  0
  -24.0546  -24.9599   16.6758 C   0  0  0  0  0  0  0  0  0  0  0  0
  -27.8809  -13.6356   18.9152 C   0  0  0  0  0  0  0  0  0  0  0  0
  -24.5742  -26.1297   17.5098 C   0  0  0  0  0  0  0  0  0  0  0  0
  -23.3132  -23.9379   17.5323 C   0  0  0  0  0  0  0  0  0  0  0  0
  -24.6239  -24.6022   19.5210 C   0  0  0  0  0  0  0  0  0  0  0  0
  -28.0872  -14.2837   20.2895 C   0  0  1  0  0  0  0  0  0  0  0  0
  -24.7013  -14.6267   21.9781 C   0  0  1  0  0  0  0  0  0  0  0  0
  -25.4162  -25.6270   18.6954 C   0  0  2  0  0  0  0  0  0  0  0  0
  -17.2367  -16.6681   21.6382 C   0  0  0  0  0  0  0  0  0  0  0  0
  -22.9996  -16.9897   18.3891 C   0  0  0  0  0  0  0  0  0  0  0  0
  -20.6242  -17.7452   18.6238 C   0  0  0  0  0  0  0  0  0  0  0  0
  -21.1296  -15.3410   18.1914 C   0  0  0  0  0  0  0  0  0  0  0  0
  -29.3976  -22.8580   20.3277 C   0  0  0  0  0  0  0  0  0  0  0  0
  -25.0829  -20.2278   20.1718 C   0  0  0  0  0  0  0  0  0  0  0  0
  -19.1630  -15.6092   24.7437 C   0  0  0  0  0  0  0  0  0  0  0  0
  -26.6027  -23.2356   24.5195 C   0  0  0  0  0  0  0  0  0  0  0  0
  -26.4867  -22.1821   19.6279 C   0  0  0  0  0  0  0  0  0  0  0  0
  -26.6345  -21.9679   25.3759 C   0  0  0  0  0  0  0  0  0  0  0  0
  -25.7345  -20.8580   24.8454 C   0  0  0  0  0  0  0  0  0  1  0  0
  -21.6236  -16.3212   20.4689 C   0  0  1  0  0  0  0  0  0  0  0  0
  -18.3802  -16.0268   22.4088 C   0  0  2  0  0  0  0  0  0  0  0  0
  -21.6126  -16.6024   18.9398 C   0  0  0  0  0  0  0  0  0  0  0  0
  -25.0368  -27.5595   20.1799 N   0  0  0  0  0  0  0  0  0  0  0  0
  -28.2897  -22.8549   21.2624 N   0  0  0  0  0  0  0  0  0  0  0  0
  -25.9259  -26.7686   19.5554 N   0  0  0  0  0  0  0  0  0  0  0  0
  -26.3029  -22.6671   22.0824 N   0  3  0  0  0  0  0  0  0  0  0  0
  -23.6188  -15.5816   21.7324 N   0  0  0  0  0  0  0  0  0  0  0  0
  -24.1195  -23.5096   18.6758 N   0  0  0  0  0  0  0  0  0  0  0  0
  -28.2471  -26.4202   19.2366 N   0  0  0  0  0  0  0  0  0  0  0  0
  -28.0986  -30.0062   21.9779 N   0  0  0  0  0  0  0  0  0  0  0  0
  -26.9027  -14.1257   21.1058 N   0  0  0  0  0  0  0  0  0  0  0  0
  -20.3290  -15.9257   21.0131 N   0  0  0  0  0  0  0  0  0  0  0  0
  -25.1463  -21.6050   19.7037 N   0  0  0  0  0  0  0  0  0  0  0  0
  -18.1272  -16.2120   23.8657 N   0  3  0  0  0  0  0  0  0  0  0  0
  -29.4970  -28.5877   20.8417 O   0  0  0  0  0  0  0  0  0  0  0  0
  -25.7114  -15.9633   20.3143 O   0  0  0  0  0  0  0  0  0  0  0  0
  -22.4397  -14.0959   20.3764 O   0  0  0  0  0  0  0  0  0  0  0  0
  -20.1690  -17.6435   22.5626 O   0  0  0  0  0  0  0  0  0  0  0  0
  -22.9522  -21.5474   19.0000 O   0  0  0  0  0  0  0  0  0  0  0  0
  -23.5003  -32.4523   23.9547 O   0  0  0  0  0  0  0  0  0  0  0  0
  -25.8242  -19.7365   25.7231 O   0  0  0  0  0  0  0  0  0  1  0  0
  -25.5244  -37.5586   23.4727 F   0  0  0  0  0  0  0  0  0  0  0  0
  -21.8902  -34.5446   23.1346 F   0  0  0  0  0  0  0  0  0  0  0  0
  1  2  1  0  0  0  0
  1  5  2  0  0  0  0
  2  6  2  0  0  0  0
  3  8  2  0  0  0  0
  3 16  1  0  0  0  0
  4  9  1  0  0  0  0
  4 16  2  0  0  0  0
  5 18  1  0  0  0  0
  6 20  1  0  0  0  0
  7 10  2  0  0  0  0
  7 19  1  0  0  0  0
  8 22  1  0  0  0  0
  9 22  2  0  0  0  0
 10 23  1  0  0  0  0
 11 12  2  0  0  0  0
 11 24  1  0  0  0  0
 12 25  1  0  0  0  0
 13 21  1  0  0  0  0
 13 23  2  0  0  0  0
 14 25  2  0  0  0  0
 14 26  1  0  0  0  0
 15 28  2  0  0  0  0
 15 63  1  0  0  0  0
 16 27  1  0  0  0  0
 17 27  1  0  0  0  0
 17 29  2  0  0  0  0
 17 31  1  0  0  0  0
 18 20  2  0  0  0  0
 18 36  1  0  0  0  0
 19 21  2  0  0  0  0
 19 37  1  0  0  0  0
 20 45  1  0  0  0  0
 21 38  1  0  0  0  0
 22 79  1  0  0  0  0
 23 80  1  0  0  0  0
 24 26  2  0  0  0  0
 24 79  1  0  0  0  0
 25 81  1  0  0  0  0
 26 82  1  0  0  0  0
 27 62  2  0  0  0  0
 28 55  1  0  0  0  0
 28 65  1  0  0  0  0
 29 64  1  0  0  0  0
 29 68  1  0  0  0  0
 30 56  1  0  0  0  0
 30 63  1  0  0  0  0
 30 65  2  0  0  0  0
 31 69  1  0  0  0  0
 31 74  2  0  0  0  0
 32 46  1  0  0  0  0
 32 70  1  0  0  0  0
 32 75  2  0  0  0  0
 33 59  1  0  0  0  0
 33 66  1  0  0  0  0
 33 76  2  0  0  0  0
 34 60  1  0  0  0  0
 34 71  1  0  0  0  0
 34 77  2  0  0  0  0
 35 67  1  0  0  0  0
 35 72  1  0  0  0  0
 35 78  2  0  0  0  0
 36 39  1  0  0  0  0
 37 46  1  0  0  0  0
 38 66  1  0  0  0  0
 39 41  1  0  0  0  0
 40 42  1  0  0  0  0
 40 43  1  0  0  0  0
 41 45  1  0  0  0  0
 42 47  1  0  0  0  0
 43 67  1  0  0  0  0
 44 47  1  0  0  0  0
 44 67  1  0  0  0  0
 45 70  1  0  0  0  0
 46 66  1  0  0  0  0
 47 64  1  0  0  0  0
 48 60  1  0  0  0  0
 49 61  1  0  0  0  0
 50 61  1  0  0  0  0
 51 61  1  0  0  0  0
 52 63  1  0  0  0  0
 53 72  1  0  0  0  0
 54 73  1  0  0  0  0
 55 57  1  0  0  0  0
 56 72  1  0  0  0  0
 57 58  1  0  0  0  0
 58 80  1  0  0  0  0
 59 61  1  0  0  0  0
 59 71  1  0  0  0  0
 60 73  1  0  0  0  0
 62 64  1  0  0  0  0
M  CHG  2  65   1  73   1
M  ISO  4  35 100  58 101  72 100  80 101
M  END
> <Batch ID>
0059

> <Smiles>
CNC(C)C(=O)NC(C(=O)N1Cc2cc([101O:1][101CH2:1]CCc3cn(C)c(C[100N:0](C)[100C:0](=O)N4CCCC(n5nc(-c6ccc(Oc7ccc(F)cc7F)cc6)c(C(N)=O)c5N)C4)n3)ccc2CC1C(=O)NC1CCCc2ccccc21)C(C)(C)C

> <Shape>
0.195

> <Color>
0.082

> <Negative vol penalty>
0.000

$$$$

  -OEChem-04052317533D

 86 94  0     1  0  0  0  0  0999 V2000
  -23.5970   -7.7083   21.3202 C   0  0  0  0  0  0  0  0  0  0  0  0
  -24.2622   -8.7034   20.6114 C   0  0  0  0  0  0  0  0  0  0  0  0
  -27.0210  -26.1948   21.4481 C   0  0  0  0  0  0  0  0  0  0  0  0
  -27.2916  -25.7879   19.0821 C   0  0  0  0  0  0  0  0  0  0  0  0
  -22.3832   -7.9918   21.9450 C   0  0  0  0  0  0  0  0  0  0  0  0
  -23.7135   -9.9825   20.5260 C   0  0  0  0  0  0  0  0  0  0  0  0
  -26.7603  -15.2929   20.3752 C   0  0  0  0  0  0  0  0  0  0  0  0
  -26.9192  -27.5638   21.2011 C   0  0  0  0  0  0  0  0  0  0  0  0
  -27.1897  -27.1569   18.8350 C   0  0  0  0  0  0  0  0  0  0  0  0
  -27.1323  -16.1314   19.3253 C   0  0  0  0  0  0  0  0  0  0  0  0
  -26.2268  -31.1323   21.1579 C   0  0  0  0  0  0  0  0  0  0  0  0
  -25.2173  -31.8363   21.8141 C   0  0  0  0  0  0  0  0  0  0  0  0
  -25.1687  -17.4779   19.7129 C   0  0  0  0  0  0  0  0  0  0  0  0
  -23.5550  -30.4343   20.7613 C   0  0  0  0  0  0  0  0  0  0  0  0
  -31.4674  -19.7357   16.4007 C   0  0  0  0  0  0  0  0  0  0  0  0
  -31.3112  -17.5852   16.8315 C   0  0  0  0  0  0  0  0  0  0  0  0
  -27.2073  -25.3068   20.3886 C   0  0  0  0  0  0  0  0  0  0  0  0
  -26.2636  -22.9553   20.6842 C   0  0  0  0  0  0  0  0  0  0  0  0
  -21.8242   -9.2775   21.8754 C   0  0  0  0  0  0  0  0  0  0  0  0
  -25.5820  -15.5348   21.0960 C   0  0  0  0  0  0  0  0  0  0  0  0
  -22.4905  -10.2831   21.1494 C   0  0  0  0  0  0  0  0  0  0  0  0
  -24.7853  -16.6425   20.7731 C   0  0  0  0  0  0  0  0  0  0  0  0
  -30.6697  -18.6001   16.1645 C   0  0  0  0  0  0  0  0  0  0  0  0
  -27.0035  -28.0449   19.8945 C   0  0  0  0  0  0  0  0  0  0  0  0
  -26.3350  -17.2224   18.9921 C   0  0  0  0  0  0  0  0  0  0  0  0
  -25.9005  -30.0792   20.3032 C   0  0  0  0  0  0  0  0  0  0  0  0
  -23.8814  -31.4874   21.6159 C   0  0  0  0  0  0  0  0  0  0  0  0
  -24.5646  -29.7302   20.1050 C   0  0  0  0  0  0  0  0  0  0  0  0
  -27.3131  -23.8926   20.6433 C   0  0  0  0  0  0  0  0  0  0  0  0
  -26.8813  -21.7599   20.9596 C   0  0  0  0  0  0  0  0  0  0  0  0
  -24.8561  -23.1480   20.4906 C   0  0  0  0  0  0  0  0  0  0  0  0
  -22.8801  -13.9321   21.5809 C   0  0  0  0  0  0  0  0  0  0  0  0
  -22.2613  -16.3665   23.6335 C   0  0  0  0  0  0  0  0  0  0  0  0
  -22.8416  -19.6025   24.5491 C   0  0  0  0  0  0  0  0  0  0  0  0
  -30.7680  -18.1125   20.2172 C   0  0  0  0  0  0  0  0  0  0  0  0
  -20.4866   -9.5238   22.5273 C   0  0  0  0  0  0  0  0  0  0  0  0
  -25.2086  -14.6363   22.2431 C   0  0  0  0  0  0  0  0  0  0  0  0
  -23.5212  -16.9574   21.5290 C   0  0  0  0  0  0  0  0  0  0  0  0
  -20.1583  -11.0042   22.7037 C   0  0  0  0  0  0  0  0  0  0  0  0
  -31.6053  -20.7413   22.4218 C   0  0  0  0  0  0  0  0  0  0  0  0
  -20.4525  -11.7729   21.4194 C   0  0  0  0  0  0  0  0  0  0  0  0
  -30.4747  -21.7334   22.1529 C   0  0  0  0  0  0  0  0  0  0  0  0
  -32.0968  -20.0686   21.1387 C   0  0  0  0  0  0  0  0  0  0  0  0
  -29.8895  -20.4236   20.0784 C   0  0  0  0  0  0  0  0  0  0  0  0
  -21.9396  -11.6895   21.0548 C   0  0  1  0  0  0  0  0  0  0  0  0
  -23.7206  -14.6804   22.5767 C   0  0  1  0  0  0  0  0  0  0  0  0
  -29.3369  -21.0689   21.3586 C   0  0  2  0  0  0  0  0  0  0  0  0
  -22.1614  -21.3219   26.2457 C   0  0  0  0  0  0  0  0  0  0  0  0
  -33.1999  -15.7325   22.4415 C   0  0  0  0  0  0  0  0  0  0  0  0
  -30.7351  -16.1117   22.6362 C   0  0  0  0  0  0  0  0  0  0  0  0
  -31.5928  -13.8693   21.9429 C   0  0  0  0  0  0  0  0  0  0  0  0
  -19.6182  -16.7685   22.1629 C   0  0  0  0  0  0  0  0  0  0  0  0
  -19.4408  -19.0209   23.2415 C   0  0  0  0  0  0  0  0  0  0  0  0
  -19.4674  -16.9633   24.6516 C   0  0  0  0  0  0  0  0  0  0  0  0
  -25.6058  -19.8505   25.5771 C   0  0  0  0  0  0  0  0  0  0  0  0
  -29.3956  -18.5149   15.3627 C   0  0  0  0  0  0  0  0  0  0  0  0
  -28.1311  -18.7667   16.1868 C   0  0  0  0  0  0  0  0  0  0  0  0
  -33.3995  -17.4789   18.2123 C   0  0  0  0  0  0  0  0  0  0  0  0
  -33.2164  -17.7251   19.7076 C   0  0  0  0  0  0  0  0  0  0  0  0
  -31.7479  -15.8550   20.3646 C   0  0  0  0  0  0  0  0  0  0  0  0
  -27.9031  -17.7252   17.2762 C   0  0  0  0  0  0  0  0  0  1  0  0
  -21.5986  -17.7182   23.5201 C   0  0  1  0  0  0  0  0  0  0  0  0
  -23.1573  -20.2270   25.8963 C   0  0  2  0  0  0  0  0  0  0  0  0
  -31.8304  -15.3850   21.8340 C   0  0  0  0  0  0  0  0  0  0  0  0
  -20.0540  -17.6109   23.3783 C   0  0  0  0  0  0  0  0  0  0  0  0
  -32.5341  -19.4680   17.1586 N   0  0  0  0  0  0  0  0  0  0  0  0
  -28.5071  -23.3402   20.8743 N   0  0  0  0  0  0  0  0  0  0  0  0
  -32.4111  -18.1526   17.4046 N   0  0  0  0  0  0  0  0  0  0  0  0
  -28.2115  -22.0429   21.0632 N   0  0  0  0  0  0  0  0  0  0  0  0
  -23.1953  -16.0458   22.6382 N   0  0  0  0  0  0  0  0  0  0  0  0
  -30.9744  -19.4893   20.3881 N   0  0  0  0  0  0  0  0  0  0  0  0
  -26.4110  -20.5048   21.1209 N   0  0  0  0  0  0  0  0  0  0  0  0
  -24.3903  -24.4410   20.2157 N   0  0  0  0  0  0  0  0  0  0  0  0
  -22.7134  -12.5931   21.8789 N   0  0  0  0  0  0  0  0  0  0  0  0
  -22.0404  -18.4877   24.6782 N   0  0  0  0  0  0  0  0  0  0  0  0
  -31.9052  -17.2915   20.1861 N   0  0  0  0  0  0  0  0  0  0  0  0
  -24.5240  -20.8212   25.8842 N   0  3  0  0  0  0  0  0  0  0  0  0
  -24.0339  -22.2045   20.5755 O   0  0  0  0  0  0  0  0  0  0  0  0
  -22.4160  -14.5259   20.6147 O   0  0  0  0  0  0  0  0  0  0  0  0
  -21.9665  -15.6255   24.5746 O   0  0  0  0  0  0  0  0  0  0  0  0
  -23.2605  -20.0601   23.4882 O   0  0  0  0  0  0  0  0  0  0  0  0
  -29.6302  -17.6417   20.0911 O   0  0  0  0  0  0  0  0  0  0  0  0
  -26.9039  -29.3807   19.6530 O   0  0  0  0  0  0  0  0  0  0  0  0
  -26.6954  -18.0420   17.9673 O   0  0  0  0  0  0  0  0  0  1  0  0
  -22.9121  -32.1626   22.2473 F   0  0  0  0  0  0  0  0  0  0  0  0
  -24.2450  -28.7188   19.2861 F   0  0  0  0  0  0  0  0  0  0  0  0
  1  2  1  0  0  0  0
  1  5  2  0  0  0  0
  2  6  2  0  0  0  0
  3  8  2  0  0  0  0
  3 17  1  0  0  0  0
  4  9  1  0  0  0  0
  4 17  2  0  0  0  0
  5 19  1  0  0  0  0
  6 21  1  0  0  0  0
  7 10  2  0  0  0  0
  7 20  1  0  0  0  0
  8 24  1  0  0  0  0
  9 24  2  0  0  0  0
 10 25  1  0  0  0  0
 11 12  2  0  0  0  0
 11 26  1  0  0  0  0
 12 27  1  0  0  0  0
 13 22  1  0  0  0  0
 13 25  2  0  0  0  0
 14 27  2  0  0  0  0
 14 28  1  0  0  0  0
 15 23  1  0  0  0  0
 15 66  2  0  0  0  0
 16 23  2  0  0  0  0
 16 68  1  0  0  0  0
 17 29  1  0  0  0  0
 18 29  1  0  0  0  0
 18 30  2  0  0  0  0
 18 31  1  0  0  0  0
 19 21  2  0  0  0  0
 19 36  1  0  0  0  0
 20 22  2  0  0  0  0
 20 37  1  0  0  0  0
 21 45  1  0  0  0  0
 22 38  1  0  0  0  0
 23 56  1  0  0  0  0
 24 83  1  0  0  0  0
 25 84  1  0  0  0  0
 26 28  2  0  0  0  0
 26 83  1  0  0  0  0
 27 85  1  0  0  0  0
 28 86  1  0  0  0  0
 29 67  2  0  0  0  0
 30 69  1  0  0  0  0
 30 72  1  0  0  0  0
 31 73  1  0  0  0  0
 31 78  2  0  0  0  0
 32 46  1  0  0  0  0
 32 74  1  0  0  0  0
 32 79  2  0  0  0  0
 33 62  1  0  0  0  0
 33 70  1  0  0  0  0
 33 80  2  0  0  0  0
 34 63  1  0  0  0  0
 34 75  1  0  0  0  0
 34 81  2  0  0  0  0
 35 71  1  0  0  0  0
 35 76  1  0  0  0  0
 35 82  2  0  0  0  0
 36 39  1  0  0  0  0
 37 46  1  0  0  0  0
 38 70  1  0  0  0  0
 39 41  1  0  0  0  0
 40 42  1  0  0  0  0
 40 43  1  0  0  0  0
 41 45  1  0  0  0  0
 42 47  1  0  0  0  0
 43 71  1  0  0  0  0
 44 47  1  0  0  0  0
 44 71  1  0  0  0  0
 45 74  1  0  0  0  0
 46 70  1  0  0  0  0
 47 69  1  0  0  0  0
 48 63  1  0  0  0  0
 49 64  1  0  0  0  0
 50 64  1  0  0  0  0
 51 64  1  0  0  0  0
 52 65  1  0  0  0  0
 53 65  1  0  0  0  0
 54 65  1  0  0  0  0
 55 77  1  0  0  0  0
 56 57  1  0  0  0  0
 57 61  1  0  0  0  0
 58 59  1  0  0  0  0
 58 68  1  0  0  0  0
 59 76  1  0  0  0  0
 60 64  1  0  0  0  0
 60 76  1  0  0  0  0
 61 84  1  0  0  0  0
 62 65  1  0  0  0  0
 62 75  1  0  0  0  0
 63 77  1  0  0  0  0
 66 68  1  0  0  0  0
 67 69  1  0  0  0  0
M  CHG  1  77   1
M  ISO  4  35 100  61 101  76 100  84 101
M  END
> <Batch ID>
0059

> <Smiles>
CNC(C)C(=O)NC(C(=O)N1Cc2cc([101O:1][101CH2:1]CCc3cnn(CC[100N:0](CC(C)(C)C)[100C:0](=O)N4CCCC(n5nc(-c6ccc(Oc7ccc(F)cc7F)cc6)c(C(N)=O)c5N)C4)c3)ccc2CC1C(=O)NC1CCCc2ccccc21)C(C)(C)C

> <Shape>
0.185

> <Color>
0.074

> <Negative vol penalty>
0.000

$$$$

  -OEChem-04052317533D

 82 90  0     1  0  0  0  0  0999 V2000
  -20.3791  -30.8733   23.2902 C   0  0  0  0  0  0  0  0  0  0  0  0
  -21.6196  -30.2740   23.0968 C   0  0  0  0  0  0  0  0  0  0  0  0
  -26.5856  -18.1495   20.0793 C   0  0  0  0  0  0  0  0  0  0  0  0
  -28.7018  -17.7882   21.1874 C   0  0  0  0  0  0  0  0  0  0  0  0
  -19.2159  -30.1097   23.2019 C   0  0  0  0  0  0  0  0  0  0  0  0
  -21.6976  -28.9103   22.8161 C   0  0  0  0  0  0  0  0  0  0  0  0
  -24.9325  -27.8825   19.0579 C   0  0  0  0  0  0  0  0  0  0  0  0
  -26.0586  -17.0281   20.7198 C   0  0  0  0  0  0  0  0  0  0  0  0
  -28.1748  -16.6668   21.8281 C   0  0  0  0  0  0  0  0  0  0  0  0
  -26.2917  -27.8891   19.3681 C   0  0  0  0  0  0  0  0  0  0  0  0
  -24.2657  -14.0502   21.7881 C   0  0  0  0  0  0  0  0  0  0  0  0
  -23.5167  -13.1564   21.0227 C   0  0  0  0  0  0  0  0  0  0  0  0
  -26.2654  -25.4810   19.5075 C   0  0  0  0  0  0  0  0  0  0  0  0
  -25.4300  -12.7731   19.5980 C   0  0  0  0  0  0  0  0  0  0  0  0
  -31.1502  -28.1855   21.3293 C   0  0  0  0  0  0  0  0  0  0  0  0
  -27.9072  -18.5295   20.3130 C   0  0  0  0  0  0  0  0  0  0  0  0
  -28.4371  -21.0170   20.1140 C   0  0  0  0  0  0  0  0  0  0  0  0
  -19.2792  -28.7380   22.9104 C   0  0  0  0  0  0  0  0  0  0  0  0
  -24.2259  -26.6737   18.9808 C   0  0  0  0  0  0  0  0  0  0  0  0
  -20.5342  -28.1274   22.7252 C   0  0  0  0  0  0  0  0  0  0  0  0
  -24.8978  -25.4616   19.1937 C   0  0  0  0  0  0  0  0  0  0  0  0
  -26.8532  -16.2867   21.5942 C   0  0  0  0  0  0  0  0  0  0  0  0
  -26.9577  -26.6884   19.5958 C   0  0  0  0  0  0  0  0  0  0  0  0
  -25.5968  -14.3055   21.4584 C   0  0  0  0  0  0  0  0  0  0  0  0
  -24.0988  -12.5179   19.9277 C   0  0  0  0  0  0  0  0  0  0  0  0
  -26.1789  -13.6669   20.3634 C   0  0  0  0  0  0  0  0  0  0  0  0
  -28.4523  -19.6875   19.6512 C   0  0  0  0  0  0  0  0  0  0  0  0
  -30.3836  -27.7550   20.2834 C   0  0  0  0  0  0  0  0  0  0  0  0
  -29.0756  -21.7306   19.1294 C   0  0  0  0  0  0  0  0  0  0  0  0
  -32.4419  -26.9994   19.9783 C   0  0  0  0  0  0  0  0  0  0  0  0
  -27.8945  -21.5583   21.3257 C   0  0  0  0  0  0  0  0  0  0  0  0
  -21.7706  -25.4065   20.5524 C   0  0  0  0  0  0  0  0  0  0  0  0
  -22.0404  -23.0776   18.3106 C   0  0  0  0  0  0  0  0  0  0  0  0
  -24.0108  -21.4418   16.0549 C   0  0  0  0  0  0  0  0  0  0  0  0
  -33.2614  -22.3264   15.4867 C   0  0  0  0  0  0  0  0  0  0  0  0
  -17.9974  -27.9442   22.8719 C   0  0  0  0  0  0  0  0  0  0  0  0
  -22.7659  -26.6820   18.6188 C   0  0  0  0  0  0  0  0  0  0  0  0
  -24.1894  -24.1356   19.1030 C   0  0  0  0  0  0  0  0  0  0  0  0
  -18.1449  -26.5812   22.2004 C   0  0  0  0  0  0  0  0  0  0  0  0
  -30.4648  -20.3780   14.4574 C   0  0  0  0  0  0  0  0  0  0  0  0
  -19.3868  -25.8626   22.7183 C   0  0  0  0  0  0  0  0  0  0  0  0
  -29.6946  -20.1294   15.7555 C   0  0  0  0  0  0  0  0  0  0  0  0
  -31.9746  -20.3669   14.6860 C   0  0  0  0  0  0  0  0  0  0  0  0
  -31.6776  -21.0325   17.0403 C   0  0  0  0  0  0  0  0  0  0  0  0
  -20.6585  -26.6559   22.3944 C   0  0  1  0  0  0  0  0  0  0  0  0
  -22.0307  -25.4246   19.0726 C   0  0  1  0  0  0  0  0  0  0  0  0
  -30.1498  -21.0901   16.8704 C   0  0  2  0  0  0  0  0  0  0  0  0
  -23.9620  -19.5573   14.3985 C   0  0  0  0  0  0  0  0  0  0  0  0
  -22.1883  -21.0652   20.5994 C   0  0  0  0  0  0  0  0  0  0  0  0
  -23.0758  -19.3834   18.9708 C   0  0  0  0  0  0  0  0  0  0  0  0
  -20.7916  -20.3356   18.6574 C   0  0  0  0  0  0  0  0  0  0  0  0
  -33.5562  -27.9226   21.9854 C   0  0  0  0  0  0  0  0  0  0  0  0
  -24.6323  -23.2543   13.7993 C   0  0  0  0  0  0  0  0  0  0  0  0
  -28.9314  -27.9620   19.9681 C   0  0  0  0  0  0  0  0  0  1  0  0
  -34.6190  -25.0537   17.7323 C   0  0  0  0  0  0  0  0  0  0  0  0
  -34.4711  -24.2768   16.4310 C   0  0  0  0  0  0  0  0  0  0  0  0
  -33.3093  -25.6725   18.2056 C   0  0  0  0  0  0  0  0  0  0  0  0
  -22.8120  -21.7848   18.1995 C   0  0  1  0  0  0  0  0  0  0  0  0
  -23.7742  -21.0520   14.6069 C   0  0  2  0  0  0  0  0  0  0  0  0
  -22.2301  -20.6672   19.1105 C   0  0  0  0  0  0  0  0  0  0  0  0
  -29.0526  -19.5614   18.4647 N   0  0  0  0  0  0  0  0  0  0  0  0
  -32.4188  -27.7031   21.1149 N   0  0  0  0  0  0  0  0  0  0  0  0
  -29.4205  -20.8208   18.1737 N   0  0  0  0  0  0  0  0  0  0  0  0
  -31.2085  -27.0238   19.4630 N   0  3  0  0  0  0  0  0  0  0  0  0
  -22.7608  -24.1964   18.7523 N   0  0  0  0  0  0  0  0  0  0  0  0
  -32.3404  -21.3002   15.7543 N   0  0  0  0  0  0  0  0  0  0  0  0
  -29.3698  -23.0414   18.9964 N   0  0  0  0  0  0  0  0  0  0  0  0
  -27.2721  -20.6848   22.2279 N   0  0  0  0  0  0  0  0  0  0  0  0
  -21.0252  -26.4781   21.0057 N   0  0  0  0  0  0  0  0  0  0  0  0
  -22.8385  -21.4459   16.7808 N   0  0  0  0  0  0  0  0  0  0  0  0
  -33.5478  -23.1706   16.5525 N   0  0  0  0  0  0  0  0  0  0  0  0
  -24.7244  -21.7740   13.7142 N   0  3  0  0  0  0  0  0  0  0  0  0
  -27.9452  -22.7829   21.5927 O   0  0  0  0  0  0  0  0  0  0  0  0
  -22.2123  -24.4876   21.2322 O   0  0  0  0  0  0  0  0  0  0  0  0
  -20.8443  -23.0957   18.0095 O   0  0  0  0  0  0  0  0  0  0  0  0
  -25.1247  -21.7118   16.4985 O   0  0  0  0  0  0  0  0  0  0  0  0
  -33.7852  -22.4823   14.3784 O   0  0  0  0  0  0  0  0  0  0  0  0
  -26.3393  -15.1925   22.2197 O   0  0  0  0  0  0  0  0  0  0  0  0
  -28.2843  -26.6920   19.8994 O   0  0  0  0  0  0  0  0  0  1  0  0
  -33.5416  -26.3543   19.4216 O   0  0  0  0  0  0  0  0  0  0  0  0
  -23.3799  -11.6584   19.1938 F   0  0  0  0  0  0  0  0  0  0  0  0
  -27.4576  -13.9073   20.0425 F   0  0  0  0  0  0  0  0  0  0  0  0
  1  2  1  0  0  0  0
  1  5  2  0  0  0  0
  2  6  2  0  0  0  0
  3  8  2  0  0  0  0
  3 16  1  0  0  0  0
  4  9  1  0  0  0  0
  4 16  2  0  0  0  0
  5 18  1  0  0  0  0
  6 20  1  0  0  0  0
  7 10  2  0  0  0  0
  7 19  1  0  0  0  0
  8 22  1  0  0  0  0
  9 22  2  0  0  0  0
 10 23  1  0  0  0  0
 11 12  2  0  0  0  0
 11 24  1  0  0  0  0
 12 25  1  0  0  0  0
 13 21  1  0  0  0  0
 13 23  2  0  0  0  0
 14 25  2  0  0  0  0
 14 26  1  0  0  0  0
 15 28  2  0  0  0  0
 15 62  1  0  0  0  0
 16 27  1  0  0  0  0
 17 27  1  0  0  0  0
 17 29  2  0  0  0  0
 17 31  1  0  0  0  0
 18 20  2  0  0  0  0
 18 36  1  0  0  0  0
 19 21  2  0  0  0  0
 19 37  1  0  0  0  0
 20 45  1  0  0  0  0
 21 38  1  0  0  0  0
 22 78  1  0  0  0  0
 23 79  1  0  0  0  0
 24 26  2  0  0  0  0
 24 78  1  0  0  0  0
 25 81  1  0  0  0  0
 26 82  1  0  0  0  0
 27 61  2  0  0  0  0
 28 54  1  0  0  0  0
 28 64  1  0  0  0  0
 29 63  1  0  0  0  0
 29 67  1  0  0  0  0
 30 62  1  0  0  0  0
 30 64  2  0  0  0  0
 30 80  1  0  0  0  0
 31 68  1  0  0  0  0
 31 73  2  0  0  0  0
 32 46  1  0  0  0  0
 32 69  1  0  0  0  0
 32 74  2  0  0  0  0
 33 58  1  0  0  0  0
 33 65  1  0  0  0  0
 33 75  2  0  0  0  0
 34 59  1  0  0  0  0
 34 70  1  0  0  0  0
 34 76  2  0  0  0  0
 35 66  1  0  0  0  0
 35 71  1  0  0  0  0
 35 77  2  0  0  0  0
 36 39  1  0  0  0  0
 37 46  1  0  0  0  0
 38 65  1  0  0  0  0
 39 41  1  0  0  0  0
 40 42  1  0  0  0  0
 40 43  1  0  0  0  0
 41 45  1  0  0  0  0
 42 47  1  0  0  0  0
 43 66  1  0  0  0  0
 44 47  1  0  0  0  0
 44 66  1  0  0  0  0
 45 69  1  0  0  0  0
 46 65  1  0  0  0  0
 47 63  1  0  0  0  0
 48 59  1  0  0  0  0
 49 60  1  0  0  0  0
 50 60  1  0  0  0  0
 51 60  1  0  0  0  0
 52 62  1  0  0  0  0
 53 72  1  0  0  0  0
 54 79  1  0  0  0  0
 55 56  1  0  0  0  0
 55 57  1  0  0  0  0
 56 71  1  0  0  0  0
 57 80  1  0  0  0  0
 58 60  1  0  0  0  0
 58 70  1  0  0  0  0
 59 72  1  0  0  0  0
 61 63  1  0  0  0  0
M  CHG  2  64   1  72   1
M  ISO  4  35 100  54 101  71 100  79 101
M  END
> <Batch ID>
0059

> <Smiles>
CNC(C)C(=O)NC(C(=O)N1Cc2cc([101O:1][101CH2:1]c3cn(C)c(OCCC[100NH:0][100C:0](=O)N4CCCC(n5nc(-c6ccc(Oc7ccc(F)cc7F)cc6)c(C(N)=O)c5N)C4)n3)ccc2CC1C(=O)NC1CCCc2ccccc21)C(C)(C)C

> <Shape>
0.207

> <Color>
0.061

> <Negative vol penalty>
0.000

$$$$

  -OEChem-04052317532D

  0  0  0     0  0  0  0  0  0999 V2000
M  END
$$$$

  -OEChem-04052317533D

 83 91  0     1  0  0  0  0  0999 V2000
  -26.9540  -37.8205   20.3945 C   0  0  0  0  0  0  0  0  0  0  0  0
  -27.4829  -36.5849   20.0354 C   0  0  0  0  0  0  0  0  0  0  0  0
  -26.5237  -13.6444   21.3770 C   0  0  0  0  0  0  0  0  0  0  0  0
  -26.7367  -13.2795   18.9983 C   0  0  0  0  0  0  0  0  0  0  0  0
  -26.1681  -37.9346   21.5404 C   0  0  0  0  0  0  0  0  0  0  0  0
  -27.2270  -35.4628   20.8227 C   0  0  0  0  0  0  0  0  0  0  0  0
  -26.4782  -29.7008   18.8876 C   0  0  0  0  0  0  0  0  0  0  0  0
  -25.8121  -12.4507   21.4964 C   0  0  0  0  0  0  0  0  0  0  0  0
  -26.0251  -12.0858   19.1177 C   0  0  0  0  0  0  0  0  0  0  0  0
  -27.3448  -28.6101   18.8315 C   0  0  0  0  0  0  0  0  0  0  0  0
  -26.4989   -9.1419   21.6104 C   0  0  0  0  0  0  0  0  0  0  0  0
  -26.8397   -8.2860   22.6577 C   0  0  0  0  0  0  0  0  0  0  0  0
  -26.4792  -27.8217   20.9407 C   0  0  0  0  0  0  0  0  0  0  0  0
  -24.5940   -8.4608   23.5315 C   0  0  0  0  0  0  0  0  0  0  0  0
  -31.2299  -25.0819   18.8380 C   0  0  0  0  0  0  0  0  0  0  0  0
  -26.9860  -14.0588   20.1279 C   0  0  0  0  0  0  0  0  0  0  0  0
  -29.1144  -15.4648   20.1019 C   0  0  0  0  0  0  0  0  0  0  0  0
  -25.8944  -36.8115   22.3369 C   0  0  0  0  0  0  0  0  0  0  0  0
  -25.6118  -29.8663   19.9778 C   0  0  0  0  0  0  0  0  0  0  0  0
  -26.4377  -35.5623   21.9811 C   0  0  0  0  0  0  0  0  0  0  0  0
  -25.6008  -28.9140   21.0069 C   0  0  0  0  0  0  0  0  0  0  0  0
  -25.5628  -11.6714   20.3668 C   0  0  0  0  0  0  0  0  0  0  0  0
  -27.3474  -27.6719   19.8596 C   0  0  0  0  0  0  0  0  0  0  0  0
  -25.2056   -9.6574   21.5237 C   0  0  0  0  0  0  0  0  0  0  0  0
  -25.8873   -7.9454   23.6182 C   0  0  0  0  0  0  0  0  0  0  0  0
  -24.2532   -9.3168   22.4842 C   0  0  0  0  0  0  0  0  0  0  0  0
  -27.7208  -15.2921   20.0039 C   0  0  0  0  0  0  0  0  0  0  0  0
  -29.8771  -25.2658   18.7833 C   0  0  0  0  0  0  0  0  0  0  0  0
  -29.3077  -16.8113   19.9119 C   0  0  0  0  0  0  0  0  0  0  0  0
  -30.2652  -23.0925   18.9471 C   0  0  0  0  0  0  0  0  0  0  0  0
  -30.1424  -14.4949   20.3432 C   0  0  0  0  0  0  0  0  0  0  0  0
  -25.2405  -32.0757   22.2326 C   0  0  0  0  0  0  0  0  0  0  0  0
  -22.6458  -30.2899   23.0078 C   0  0  0  0  0  0  0  0  0  0  0  0
  -21.0897  -27.2536   22.9282 C   0  0  0  0  0  0  0  0  0  0  0  0
  -27.9981  -21.3249   16.7135 C   0  0  0  0  0  0  0  0  0  0  0  0
  -25.0785  -36.9933   23.5923 C   0  0  0  0  0  0  0  0  0  0  0  0
  -24.6643  -31.0340   20.0103 C   0  0  0  0  0  0  0  0  0  0  0  0
  -24.6758  -29.0350   22.1894 C   0  0  0  0  0  0  0  0  0  0  0  0
  -24.5450  -35.6835   24.1669 C   0  0  0  0  0  0  0  0  0  0  0  0
  -26.0183  -20.6393   19.7651 C   0  0  0  0  0  0  0  0  0  0  0  0
  -25.6470  -34.6296   24.2061 C   0  0  0  0  0  0  0  0  0  0  0  0
  -26.3518  -19.1772   20.0570 C   0  0  0  0  0  0  0  0  0  0  0  0
  -26.1237  -20.9589   18.2770 C   0  0  0  0  0  0  0  0  0  0  0  0
  -27.7716  -19.1414   17.9681 C   0  0  0  0  0  0  0  0  0  0  0  0
  -26.1620  -34.3172   22.7959 C   0  0  1  0  0  0  0  0  0  0  0  0
  -24.1881  -31.3780   21.4182 C   0  0  1  0  0  0  0  0  0  0  0  0
  -27.7201  -18.7978   19.4644 C   0  0  2  0  0  0  0  0  0  0  0  0
  -18.9943  -26.0937   23.6774 C   0  0  0  0  0  0  0  0  0  0  0  0
  -33.4973  -23.5034   20.2903 C   0  0  0  0  0  0  0  0  0  0  0  0
  -33.5778  -23.3266   17.7667 C   0  0  0  0  0  0  0  0  0  0  0  0
  -23.7285  -30.1805   25.8583 C   0  0  0  0  0  0  0  0  0  0  0  0
  -22.1616  -28.2799   26.3062 C   0  0  0  0  0  0  0  0  0  0  0  0
  -21.2566  -30.5223   25.6937 C   0  0  0  0  0  0  0  0  0  0  0  0
  -30.0484  -22.1593   15.6275 C   0  0  0  0  0  0  0  0  0  0  0  0
  -20.3027  -26.6274   20.1447 C   0  0  0  0  0  0  0  0  0  0  0  0
  -29.0498  -26.5125   18.6707 C   0  0  0  0  0  0  0  0  0  1  0  0
  -30.0433  -21.6281   19.0428 C   0  0  0  0  0  0  0  0  0  0  0  0
  -30.2748  -20.8770   17.7228 C   0  0  0  0  0  0  0  0  0  0  0  0
  -22.3898  -29.1173   23.9235 C   0  0  1  0  0  0  0  0  0  0  0  0
  -19.6738  -26.8570   22.5511 C   0  0  2  0  0  0  0  0  0  0  0  0
  -32.7410  -23.0917   19.0257 C   0  0  0  0  0  0  0  0  0  0  0  0
  -22.4030  -29.5234   25.4242 C   0  0  0  0  0  0  0  0  0  0  0  0
  -27.0744  -16.4373   19.7698 N   0  0  0  0  0  0  0  0  0  0  0  0
  -31.4415  -23.7281   18.9397 N   0  0  0  0  0  0  0  0  0  0  0  0
  -28.0664  -17.3425   19.7193 N   0  0  0  0  0  0  0  0  0  0  0  0
  -29.3053  -24.0183   18.8525 N   0  3  0  0  0  0  0  0  0  0  0  0
  -23.7726  -30.1976   22.1785 N   0  0  0  0  0  0  0  0  0  0  0  0
  -27.4175  -20.5487   17.7300 N   0  0  0  0  0  0  0  0  0  0  0  0
  -30.4167  -17.5809   19.8924 N   0  0  0  0  0  0  0  0  0  0  0  0
  -29.7695  -13.1550   20.5161 N   0  0  0  0  0  0  0  0  0  0  0  0
  -25.2349  -33.4511   22.0996 N   0  0  0  0  0  0  0  0  0  0  0  0
  -21.1369  -28.5172   23.4778 N   0  0  0  0  0  0  0  0  0  0  0  0
  -29.3996  -21.3593   16.6566 N   0  0  0  0  0  0  0  0  0  0  0  0
  -19.6838  -25.9928   21.3370 N   0  3  0  0  0  0  0  0  0  0  0  0
  -31.3542  -14.8097   20.4200 O   0  0  0  0  0  0  0  0  0  0  0  0
  -26.0003  -31.4151   22.9313 O   0  0  0  0  0  0  0  0  0  0  0  0
  -21.8704  -31.2491   23.0224 O   0  0  0  0  0  0  0  0  0  0  0  0
  -22.0567  -26.5147   22.7560 O   0  0  0  0  0  0  0  0  0  0  0  0
  -27.3034  -21.9591   15.9091 O   0  0  0  0  0  0  0  0  0  0  0  0
  -24.8685  -10.5064   20.4829 O   0  0  0  0  0  0  0  0  0  0  0  0
  -28.1927  -26.6066   19.8077 O   0  0  0  0  0  0  0  0  0  1  0  0
  -26.2143   -7.1222   24.6230 F   0  0  0  0  0  0  0  0  0  0  0  0
  -23.0088   -9.8079   22.4055 F   0  0  0  0  0  0  0  0  0  0  0  0
  1  2  1  0  0  0  0
  1  5  2  0  0  0  0
  2  6  2  0  0  0  0
  3  8  2  0  0  0  0
  3 16  1  0  0  0  0
  4  9  1  0  0  0  0
  4 16  2  0  0  0  0
  5 18  1  0  0  0  0
  6 20  1  0  0  0  0
  7 10  2  0  0  0  0
  7 19  1  0  0  0  0
  8 22  1  0  0  0  0
  9 22  2  0  0  0  0
 10 23  1  0  0  0  0
 11 12  2  0  0  0  0
 11 24  1  0  0  0  0
 12 25  1  0  0  0  0
 13 21  1  0  0  0  0
 13 23  2  0  0  0  0
 14 25  2  0  0  0  0
 14 26  1  0  0  0  0
 15 28  2  0  0  0  0
 15 64  1  0  0  0  0
 16 27  1  0  0  0  0
 17 27  1  0  0  0  0
 17 29  2  0  0  0  0
 17 31  1  0  0  0  0
 18 20  2  0  0  0  0
 18 36  1  0  0  0  0
 19 21  2  0  0  0  0
 19 37  1  0  0  0  0
 20 45  1  0  0  0  0
 21 38  1  0  0  0  0
 22 80  1  0  0  0  0
 23 81  1  0  0  0  0
 24 26  2  0  0  0  0
 24 80  1  0  0  0  0
 25 82  1  0  0  0  0
 26 83  1  0  0  0  0
 27 63  2  0  0  0  0
 28 56  1  0  0  0  0
 28 66  1  0  0  0  0
 29 65  1  0  0  0  0
 29 69  1  0  0  0  0
 30 57  1  0  0  0  0
 30 64  1  0  0  0  0
 30 66  2  0  0  0  0
 31 70  1  0  0  0  0
 31 75  2  0  0  0  0
 32 46  1  0  0  0  0
 32 71  1  0  0  0  0
 32 76  2  0  0  0  0
 33 59  1  0  0  0  0
 33 67  1  0  0  0  0
 33 77  2  0  0  0  0
 34 60  1  0  0  0  0
 34 72  1  0  0  0  0
 34 78  2  0  0  0  0
 35 68  1  0  0  0  0
 35 73  1  0  0  0  0
 35 79  2  0  0  0  0
 36 39  1  0  0  0  0
 37 46  1  0  0  0  0
 38 67  1  0  0  0  0
 39 41  1  0  0  0  0
 40 42  1  0  0  0  0
 40 43  1  0  0  0  0
 41 45  1  0  0  0  0
 42 47  1  0  0  0  0
 43 68  1  0  0  0  0
 44 47  1  0  0  0  0
 44 68  1  0  0  0  0
 45 71  1  0  0  0  0
 46 67  1  0  0  0  0
 47 65  1  0  0  0  0
 48 60  1  0  0  0  0
 49 61  1  0  0  0  0
 50 61  1  0  0  0  0
 51 62  1  0  0  0  0
 52 62  1  0  0  0  0
 53 62  1  0  0  0  0
 54 73  1  0  0  0  0
 55 74  1  0  0  0  0
 56 81  1  0  0  0  0
 57 58  1  0  0  0  0
 58 73  1  0  0  0  0
 59 62  1  0  0  0  0
 59 72  1  0  0  0  0
 60 74  1  0  0  0  0
 61 64  1  0  0  0  0
 63 65  1  0  0  0  0
M  CHG  2  66   1  74   1
M  ISO  4  35 100  56 101  73 100  81 101
M  END
> <Batch ID>
0059

> <Smiles>
CNC(C)C(=O)NC(C(=O)N1Cc2cc([101O:1][101CH2:1]c3cn(C(C)C)c(CC[100N:0](C)[100C:0](=O)N4CCCC(n5nc(-c6ccc(Oc7ccc(F)cc7F)cc6)c(C(N)=O)c5N)C4)n3)ccc2CC1C(=O)NC1CCCc2ccccc21)C(C)(C)C

> <Shape>
0.297

> <Color>
0.092

> <Negative vol penalty>
0.000

$$$$

  -OEChem-04052317533D

 84 92  0     1  0  0  0  0  0999 V2000
  -23.2325   -7.3190   25.2172 C   0  0  0  0  0  0  0  0  0  0  0  0
  -24.3807   -8.1044   25.2015 C   0  0  0  0  0  0  0  0  0  0  0  0
  -23.7647  -29.9654   20.5347 C   0  0  0  0  0  0  0  0  0  0  0  0
  -25.8862  -29.7598   21.6723 C   0  0  0  0  0  0  0  0  0  0  0  0
  -22.4137   -7.2608   24.0902 C   0  0  0  0  0  0  0  0  0  0  0  0
  -24.7114   -8.8311   24.0583 C   0  0  0  0  0  0  0  0  0  0  0  0
  -27.4132  -14.3228   23.8405 C   0  0  0  0  0  0  0  0  0  0  0  0
  -23.3040  -30.8083   21.5461 C   0  0  0  0  0  0  0  0  0  0  0  0
  -25.4255  -30.6027   22.6837 C   0  0  0  0  0  0  0  0  0  0  0  0
  -28.7362  -14.7096   23.6311 C   0  0  0  0  0  0  0  0  0  0  0  0
  -24.9883  -33.9208   23.1521 C   0  0  0  0  0  0  0  0  0  0  0  0
  -25.8444  -34.9301   23.5926 C   0  0  0  0  0  0  0  0  0  0  0  0
  -28.2590  -15.0536   21.2916 C   0  0  0  0  0  0  0  0  0  0  0  0
  -25.7932  -34.0004   25.8220 C   0  0  0  0  0  0  0  0  0  0  0  0
  -25.0558  -29.4411   20.5978 C   0  0  0  0  0  0  0  0  0  0  0  0
  -26.2015  -28.9447   18.3733 C   0  0  0  0  0  0  0  0  0  0  0  0
  -22.7293   -7.9948   22.9360 C   0  0  0  0  0  0  0  0  0  0  0  0
  -26.5044  -14.2879   22.7731 C   0  0  0  0  0  0  0  0  0  0  0  0
  -23.8967   -8.7816   22.9143 C   0  0  0  0  0  0  0  0  0  0  0  0
  -26.9244  -14.6684   21.4906 C   0  0  0  0  0  0  0  0  0  0  0  0
  -24.1344  -31.1269   22.6206 C   0  0  0  0  0  0  0  0  0  0  0  0
  -29.1600  -15.0723   22.3560 C   0  0  0  0  0  0  0  0  0  0  0  0
  -24.5346  -32.9514   24.0466 C   0  0  0  0  0  0  0  0  0  0  0  0
  -26.2469  -34.9699   24.9276 C   0  0  0  0  0  0  0  0  0  0  0  0
  -24.9371  -32.9912   25.3815 C   0  0  0  0  0  0  0  0  0  0  0  0
  -25.5320  -28.5699   19.5536 C   0  0  0  0  0  0  0  0  0  0  0  0
  -26.4373  -27.7591   17.7211 C   0  0  0  0  0  0  0  0  0  0  0  0
  -29.4059  -20.1915   19.4811 C   0  0  0  0  0  0  0  0  0  0  0  0
  -31.1446  -19.2306   20.1220 C   0  0  0  0  0  0  0  0  0  0  0  0
  -26.5768  -30.2479   17.9080 C   0  0  0  0  0  0  0  0  0  0  0  0
  -24.7854  -12.0157   21.3640 C   0  0  0  0  0  0  0  0  0  0  0  0
  -23.5338  -14.5209   19.7270 C   0  0  0  0  0  0  0  0  0  0  0  0
  -23.9070  -17.7183   18.5939 C   0  0  0  0  0  0  0  0  0  0  0  0
  -28.0367  -22.6226   17.5831 C   0  0  0  0  0  0  0  0  0  0  0  0
  -21.8389   -7.8630   21.7258 C   0  0  0  0  0  0  0  0  0  0  0  0
  -25.0740  -13.8940   23.0206 C   0  0  0  0  0  0  0  0  0  0  0  0
  -25.9829  -14.6675   20.3150 C   0  0  0  0  0  0  0  0  0  0  0  0
  -22.0601   -8.9574   20.6848 C   0  0  0  0  0  0  0  0  0  0  0  0
  -24.6866  -23.1041   18.5914 C   0  0  0  0  0  0  0  0  0  0  0  0
  -23.5505   -9.1557   20.4272 C   0  0  0  0  0  0  0  0  0  0  0  0
  -24.6610  -24.6104   18.8469 C   0  0  0  0  0  0  0  0  0  0  0  0
  -25.9886  -22.4616   19.0733 C   0  0  0  0  0  0  0  0  0  0  0  0
  -27.1826  -24.6100   18.7884 C   0  0  0  0  0  0  0  0  0  0  0  0
  -24.2758   -9.6038   21.7018 C   0  0  1  0  0  0  0  0  0  0  0  0
  -24.3638  -13.4014   21.7635 C   0  0  1  0  0  0  0  0  0  0  0  0
  -25.9102  -25.2894   18.2591 C   0  0  2  0  0  0  0  0  0  0  0  0
  -26.6154  -20.1320   15.3151 C   0  0  0  0  0  0  0  0  0  0  0  0
  -23.2775  -19.8945   17.5143 C   0  0  0  0  0  0  0  0  0  0  0  0
  -24.2406  -13.0340   17.1580 C   0  0  0  0  0  0  0  0  0  0  0  0
  -23.9363  -15.1843   15.9122 C   0  0  0  0  0  0  0  0  0  0  0  0
  -22.0108  -14.1662   17.1283 C   0  0  0  0  0  0  0  0  0  0  0  0
  -32.0795  -21.1709   21.4352 C   0  0  0  0  0  0  0  0  0  0  0  0
  -22.8434  -18.8039   21.1334 C   0  0  0  0  0  0  0  0  0  0  0  0
  -28.1172  -20.4132   18.8147 C   0  0  0  0  0  0  0  0  0  0  0  0
  -32.2712  -18.2703   20.4084 C   0  0  0  0  0  0  0  0  0  0  0  0
  -27.9167  -19.5353   15.8327 C   0  0  0  0  0  0  0  0  0  0  0  0
  -31.9260  -17.2110   21.4573 C   0  0  0  0  0  0  0  0  0  0  0  0
  -28.8344  -20.5779   16.4600 C   0  0  0  0  0  0  0  0  0  0  0  0
  -30.6931  -16.3884   21.1016 C   0  0  0  0  0  0  0  0  0  1  0  0
  -23.8806  -15.2420   18.4469 C   0  0  1  0  0  0  0  0  0  0  0  0
  -22.9791  -18.9188   18.6420 C   0  0  2  0  0  0  0  0  0  0  0  0
  -23.5356  -14.4049   17.1829 C   0  0  0  0  0  0  0  0  0  0  0  0
  -25.3539  -27.2496   19.6484 N   0  0  0  0  0  0  0  0  0  0  0  0
  -30.0713  -19.0018   19.4014 N   0  0  0  0  0  0  0  0  0  0  0  0
  -29.9999  -21.1421   20.2056 N   0  0  0  0  0  0  0  0  0  0  0  0
  -25.9147  -26.7843   18.5192 N   0  0  0  0  0  0  0  0  0  0  0  0
  -31.1097  -20.5019   20.6040 N   0  0  0  0  0  0  0  0  0  0  0  0
  -24.5960  -14.2686   20.6066 N   0  0  0  0  0  0  0  0  0  0  0  0
  -27.1550  -23.1688   18.5274 N   0  0  0  0  0  0  0  0  0  0  0  0
  -27.0384  -27.4658   16.5485 N   0  0  0  0  0  0  0  0  0  0  0  0
  -26.2579  -31.3581   18.7017 N   0  0  0  0  0  0  0  0  0  0  0  0
  -24.0402  -11.0101   21.9495 N   0  0  0  0  0  0  0  0  0  0  0  0
  -23.2059  -16.5340   18.5105 N   0  0  0  0  0  0  0  0  0  0  0  0
  -28.2253  -21.2326   17.6092 N   0  0  0  0  0  0  0  0  0  0  0  0
  -23.1300  -19.6385   19.9383 N   0  3  0  0  0  0  0  0  0  0  0  0
  -27.1625  -30.4241   16.8128 O   0  0  0  0  0  0  0  0  0  0  0  0
  -25.7169  -11.8697   20.5812 O   0  0  0  0  0  0  0  0  0  0  0  0
  -22.3623  -14.1998   19.9419 O   0  0  0  0  0  0  0  0  0  0  0  0
  -25.1313  -17.8212   18.6233 O   0  0  0  0  0  0  0  0  0  0  0  0
  -28.6303  -23.3378   16.7656 O   0  0  0  0  0  0  0  0  0  0  0  0
  -23.6853  -31.9496   23.6075 O   0  0  0  0  0  0  0  0  0  0  0  0
  -30.4509  -15.4497   22.1487 O   0  0  0  0  0  0  0  0  0  1  0  0
  -27.0703  -35.9382   25.3501 F   0  0  0  0  0  0  0  0  0  0  0  0
  -24.5055  -32.0619   26.2452 F   0  0  0  0  0  0  0  0  0  0  0  0
  1  2  1  0  0  0  0
  1  5  2  0  0  0  0
  2  6  2  0  0  0  0
  3  8  2  0  0  0  0
  3 15  1  0  0  0  0
  4  9  1  0  0  0  0
  4 15  2  0  0  0  0
  5 17  1  0  0  0  0
  6 19  1  0  0  0  0
  7 10  2  0  0  0  0
  7 18  1  0  0  0  0
  8 21  1  0  0  0  0
  9 21  2  0  0  0  0
 10 22  1  0  0  0  0
 11 12  2  0  0  0  0
 11 23  1  0  0  0  0
 12 24  1  0  0  0  0
 13 20  1  0  0  0  0
 13 22  2  0  0  0  0
 14 24  2  0  0  0  0
 14 25  1  0  0  0  0
 15 26  1  0  0  0  0
 16 26  1  0  0  0  0
 16 27  2  0  0  0  0
 16 30  1  0  0  0  0
 17 19  2  0  0  0  0
 17 35  1  0  0  0  0
 18 20  2  0  0  0  0
 18 36  1  0  0  0  0
 19 44  1  0  0  0  0
 20 37  1  0  0  0  0
 21 81  1  0  0  0  0
 22 82  1  0  0  0  0
 23 25  2  0  0  0  0
 23 81  1  0  0  0  0
 24 83  1  0  0  0  0
 25 84  1  0  0  0  0
 26 63  2  0  0  0  0
 27 66  1  0  0  0  0
 27 70  1  0  0  0  0
 28 54  1  0  0  0  0
 28 64  1  0  0  0  0
 28 65  2  0  0  0  0
 29 55  1  0  0  0  0
 29 64  2  0  0  0  0
 29 67  1  0  0  0  0
 30 71  1  0  0  0  0
 30 76  2  0  0  0  0
 31 45  1  0  0  0  0
 31 72  1  0  0  0  0
 31 77  2  0  0  0  0
 32 60  1  0  0  0  0
 32 68  1  0  0  0  0
 32 78  2  0  0  0  0
 33 61  1  0  0  0  0
 33 73  1  0  0  0  0
 33 79  2  0  0  0  0
 34 69  1  0  0  0  0
 34 74  1  0  0  0  0
 34 80  2  0  0  0  0
 35 38  1  0  0  0  0
 36 45  1  0  0  0  0
 37 68  1  0  0  0  0
 38 40  1  0  0  0  0
 39 41  1  0  0  0  0
 39 42  1  0  0  0  0
 40 44  1  0  0  0  0
 41 46  1  0  0  0  0
 42 69  1  0  0  0  0
 43 46  1  0  0  0  0
 43 69  1  0  0  0  0
 44 72  1  0  0  0  0
 45 68  1  0  0  0  0
 46 66  1  0  0  0  0
 47 56  1  0  0  0  0
 48 61  1  0  0  0  0
 49 62  1  0  0  0  0
 50 62  1  0  0  0  0
 51 62  1  0  0  0  0
 52 67  1  0  0  0  0
 53 75  1  0  0  0  0
 54 74  1  0  0  0  0
 55 57  1  0  0  0  0
 56 58  1  0  0  0  0
 57 59  1  0  0  0  0
 58 74  1  0  0  0  0
 59 82  1  0  0  0  0
 60 62  1  0  0  0  0
 60 73  1  0  0  0  0
 61 75  1  0  0  0  0
 63 66  1  0  0  0  0
 65 67  1  0  0  0  0
M  CHG  1  75   1
M  ISO  4  34 100  59 101  74 100  82 101
M  END
> <Batch ID>
0059

> <Smiles>
CCC[100N:0](Cc1nc(CC[101CH2:1][101O:1]c2ccc3c(c2)CN(C(=O)C(NC(=O)C(C)NC)C(C)(C)C)C(C(=O)NC2CCCc4ccccc42)C3)n(C)n1)[100C:0](=O)N1CCCC(n2nc(-c3ccc(Oc4ccc(F)cc4F)cc3)c(C(N)=O)c2N)C1

> <Shape>
0.228

> <Color>
0.084

> <Negative vol penalty>
0.000

$$$$

  -OEChem-04052317533D

 81 89  0     1  0  0  0  0  0999 V2000
  -18.7717  -32.8741   20.0182 C   0  0  0  0  0  0  0  0  0  0  0  0
  -20.0531  -32.4814   19.6453 C   0  0  0  0  0  0  0  0  0  0  0  0
  -25.3356  -15.6567   21.6545 C   0  0  0  0  0  0  0  0  0  0  0  0
  -24.9577  -16.0761   19.3053 C   0  0  0  0  0  0  0  0  0  0  0  0
  -18.3017  -32.5894   21.2996 C   0  0  0  0  0  0  0  0  0  0  0  0
  -20.8658  -31.8045   20.5540 C   0  0  0  0  0  0  0  0  0  0  0  0
  -24.9396  -27.4107   19.2871 C   0  0  0  0  0  0  0  0  0  0  0  0
  -24.1504  -14.9236   21.7142 C   0  0  0  0  0  0  0  0  0  0  0  0
  -23.7726  -15.3430   19.3651 C   0  0  0  0  0  0  0  0  0  0  0  0
  -26.3237  -27.4345   19.1212 C   0  0  0  0  0  0  0  0  0  0  0  0
  -20.8309  -13.2785   18.8150 C   0  0  0  0  0  0  0  0  0  0  0  0
  -20.5818  -12.3626   17.7929 C   0  0  0  0  0  0  0  0  0  0  0  0
  -26.6051  -26.7785   21.4254 C   0  0  0  0  0  0  0  0  0  0  0  0
  -22.6049  -11.1727   18.3660 C   0  0  0  0  0  0  0  0  0  0  0  0
  -31.6167  -24.9148   21.1286 C   0  0  0  0  0  0  0  0  0  0  0  0
  -31.1668  -25.5296   19.0660 C   0  0  0  0  0  0  0  0  0  0  0  0
  -25.7392  -16.2330   20.4500 C   0  0  0  0  0  0  0  0  0  0  0  0
  -28.2506  -16.5038   20.0935 C   0  0  0  0  0  0  0  0  0  0  0  0
  -19.1055  -31.9001   22.2213 C   0  0  0  0  0  0  0  0  0  0  0  0
  -24.3771  -27.0807   20.5285 C   0  0  0  0  0  0  0  0  0  0  0  0
  -20.4066  -31.5114   21.8494 C   0  0  0  0  0  0  0  0  0  0  0  0
  -25.2136  -26.7488   21.6038 C   0  0  0  0  0  0  0  0  0  0  0  0
  -31.1681  -26.0024   20.3555 C   0  0  0  0  0  0  0  0  0  0  0  0
  -23.3689  -14.7667   20.5695 C   0  0  0  0  0  0  0  0  0  0  0  0
  -27.1567  -27.1211   20.1912 C   0  0  0  0  0  0  0  0  0  0  0  0
  -21.9670  -13.1415   19.6126 C   0  0  0  0  0  0  0  0  0  0  0  0
  -21.4687  -11.3097   17.5684 C   0  0  0  0  0  0  0  0  0  0  0  0
  -22.8540  -12.0886   19.3881 C   0  0  0  0  0  0  0  0  0  0  0  0
  -26.9630  -16.9909   20.3878 C   0  0  0  0  0  0  0  0  0  0  0  0
  -29.0603  -17.6112   20.1601 C   0  0  0  0  0  0  0  0  0  0  0  0
  -28.6766  -15.1695   19.7872 C   0  0  0  0  0  0  0  0  0  0  0  0
  -22.5383  -28.5966   22.6321 C   0  0  0  0  0  0  0  0  0  0  0  0
  -22.5162  -25.7078   24.1076 C   0  0  0  0  0  0  0  0  0  0  0  0
  -24.0503  -22.7019   24.6150 C   0  0  0  0  0  0  0  0  0  0  0  0
  -28.4826  -23.3478   18.8031 C   0  0  0  0  0  0  0  0  0  0  0  0
  -18.5714  -31.6565   23.6105 C   0  0  0  0  0  0  0  0  0  0  0  0
  -22.8818  -27.0337   20.6839 C   0  0  0  0  0  0  0  0  0  0  0  0
  -24.6593  -26.3681   22.9515 C   0  0  0  0  0  0  0  0  0  0  0  0
  -19.3576  -30.6054   24.3897 C   0  0  0  0  0  0  0  0  0  0  0  0
  -28.7352  -22.0634   22.2655 C   0  0  0  0  0  0  0  0  0  0  0  0
  -20.8568  -30.8556   24.2604 C   0  0  0  0  0  0  0  0  0  0  0  0
  -28.3508  -20.5936   22.1044 C   0  0  0  0  0  0  0  0  0  0  0  0
  -28.0791  -22.9409   21.2038 C   0  0  0  0  0  0  0  0  0  0  0  0
  -27.9541  -21.0238   19.6472 C   0  0  0  0  0  0  0  0  0  0  0  0
  -21.3090  -30.7534   22.7987 C   0  0  1  0  0  0  0  0  0  0  0  0
  -22.4265  -27.1840   22.1322 C   0  0  1  0  0  0  0  0  0  0  0  0
  -28.6354  -20.1059   20.6732 C   0  0  2  0  0  0  0  0  0  0  0  0
  -23.8134  -20.5622   25.9045 C   0  0  0  0  0  0  0  0  0  0  0  0
  -23.4440  -27.1343   26.6402 C   0  0  0  0  0  0  0  0  0  0  0  0
  -24.0929  -24.9042   27.5750 C   0  0  0  0  0  0  0  0  0  0  0  0
  -21.7084  -25.3725   27.0116 C   0  0  0  0  0  0  0  0  0  0  0  0
  -29.0558  -23.4885   16.4091 C   0  0  0  0  0  0  0  0  0  0  0  0
  -23.8944  -21.0904   22.1375 C   0  0  0  0  0  0  0  0  0  0  0  0
  -30.7739  -27.3786   20.8339 C   0  0  0  0  0  0  0  0  0  0  0  0
  -31.7623  -23.3237   18.0375 C   0  0  0  0  0  0  0  0  0  0  0  0
  -30.6186  -22.3198   17.9182 C   0  0  0  0  0  0  0  0  0  0  0  0
  -29.2916  -27.4699   21.1794 C   0  0  0  0  0  0  0  0  0  1  0  0
  -23.3789  -25.0306   25.1449 C   0  0  1  0  0  0  0  0  0  0  0  0
  -23.5140  -21.2818   24.5987 C   0  0  2  0  0  0  0  0  0  0  0  0
  -23.1668  -25.6194   26.5682 C   0  0  0  0  0  0  0  0  0  0  0  0
  -31.8809  -23.8326   20.3917 N   0  0  0  0  0  0  0  0  0  0  0  0
  -26.9506  -18.3055   20.6240 N   0  0  0  0  0  0  0  0  0  0  0  0
  -31.5974  -24.2378   19.1421 N   0  0  0  0  0  0  0  0  0  0  0  0
  -28.2404  -18.6538   20.4782 N   0  0  0  0  0  0  0  0  0  0  0  0
  -23.1909  -26.3426   23.0552 N   0  0  0  0  0  0  0  0  0  0  0  0
  -28.3294  -22.4303   19.8555 N   0  0  0  0  0  0  0  0  0  0  0  0
  -30.3864  -17.7852   19.9771 N   0  0  0  0  0  0  0  0  0  0  0  0
  -27.7147  -14.1505   19.7607 N   0  0  0  0  0  0  0  0  0  0  0  0
  -21.4151  -29.3667   22.3982 N   0  0  0  0  0  0  0  0  0  0  0  0
  -23.0974  -23.6029   25.0409 N   0  0  0  0  0  0  0  0  0  0  0  0
  -29.3225  -22.9718   17.7440 N   0  0  0  0  0  0  0  0  0  0  0  0
  -24.1300  -20.5082   23.4838 N   0  3  0  0  0  0  0  0  0  0  0  0
  -29.8774  -14.8863   19.5602 O   0  0  0  0  0  0  0  0  0  0  0  0
  -23.5670  -28.9603   23.1901 O   0  0  0  0  0  0  0  0  0  0  0  0
  -21.2886  -25.6688   24.2229 O   0  0  0  0  0  0  0  0  0  0  0  0
  -25.2007  -22.9832   24.2865 O   0  0  0  0  0  0  0  0  0  0  0  0
  -27.9093  -24.4447   18.8145 O   0  0  0  0  0  0  0  0  0  0  0  0
  -22.2126  -14.0512   20.6274 O   0  0  0  0  0  0  0  0  0  0  0  0
  -28.5080  -27.1442   20.0321 O   0  0  0  0  0  0  0  0  0  1  0  0
  -21.2286  -10.4294   16.5878 F   0  0  0  0  0  0  0  0  0  0  0  0
  -23.9465  -11.9512   20.1519 F   0  0  0  0  0  0  0  0  0  0  0  0
  1  2  1  0  0  0  0
  1  5  2  0  0  0  0
  2  6  2  0  0  0  0
  3  8  2  0  0  0  0
  3 17  1  0  0  0  0
  4  9  1  0  0  0  0
  4 17  2  0  0  0  0
  5 19  1  0  0  0  0
  6 21  1  0  0  0  0
  7 10  2  0  0  0  0
  7 20  1  0  0  0  0
  8 24  1  0  0  0  0
  9 24  2  0  0  0  0
 10 25  1  0  0  0  0
 11 12  2  0  0  0  0
 11 26  1  0  0  0  0
 12 27  1  0  0  0  0
 13 22  1  0  0  0  0
 13 25  2  0  0  0  0
 14 27  2  0  0  0  0
 14 28  1  0  0  0  0
 15 23  1  0  0  0  0
 15 61  2  0  0  0  0
 16 23  2  0  0  0  0
 16 63  1  0  0  0  0
 17 29  1  0  0  0  0
 18 29  1  0  0  0  0
 18 30  2  0  0  0  0
 18 31  1  0  0  0  0
 19 21  2  0  0  0  0
 19 36  1  0  0  0  0
 20 22  2  0  0  0  0
 20 37  1  0  0  0  0
 21 45  1  0  0  0  0
 22 38  1  0  0  0  0
 23 54  1  0  0  0  0
 24 78  1  0  0  0  0
 25 79  1  0  0  0  0
 26 28  2  0  0  0  0
 26 78  1  0  0  0  0
 27 80  1  0  0  0  0
 28 81  1  0  0  0  0
 29 62  2  0  0  0  0
 30 64  1  0  0  0  0
 30 67  1  0  0  0  0
 31 68  1  0  0  0  0
 31 73  2  0  0  0  0
 32 46  1  0  0  0  0
 32 69  1  0  0  0  0
 32 74  2  0  0  0  0
 33 58  1  0  0  0  0
 33 65  1  0  0  0  0
 33 75  2  0  0  0  0
 34 59  1  0  0  0  0
 34 70  1  0  0  0  0
 34 76  2  0  0  0  0
 35 66  1  0  0  0  0
 35 71  1  0  0  0  0
 35 77  2  0  0  0  0
 36 39  1  0  0  0  0
 37 46  1  0  0  0  0
 38 65  1  0  0  0  0
 39 41  1  0  0  0  0
 40 42  1  0  0  0  0
 40 43  1  0  0  0  0
 41 45  1  0  0  0  0
 42 47  1  0  0  0  0
 43 66  1  0  0  0  0
 44 47  1  0  0  0  0
 44 66  1  0  0  0  0
 45 69  1  0  0  0  0
 46 65  1  0  0  0  0
 47 64  1  0  0  0  0
 48 59  1  0  0  0  0
 49 60  1  0  0  0  0
 50 60  1  0  0  0  0
 51 60  1  0  0  0  0
 52 71  1  0  0  0  0
 53 72  1  0  0  0  0
 54 57  1  0  0  0  0
 55 56  1  0  0  0  0
 55 63  1  0  0  0  0
 56 71  1  0  0  0  0
 57 79  1  0  0  0  0
 58 60  1  0  0  0  0
 58 70  1  0  0  0  0
 59 72  1  0  0  0  0
 61 63  1  0  0  0  0
 62 64  1  0  0  0  0
M  CHG  1  72   1
M  ISO  4  35 100  57 101  71 100  79 101
M  END
> <Batch ID>
0059

> <Smiles>
CNC(C)C(=O)NC(C(=O)N1Cc2cc([101O:1][101CH2:1]Cc3cnn(CC[100N:0](C)[100C:0](=O)N4CCCC(n5nc(-c6ccc(Oc7ccc(F)cc7F)cc6)c(C(N)=O)c5N)C4)c3)ccc2CC1C(=O)NC1CCCc2ccccc21)C(C)(C)C

> <Shape>
0.205

> <Color>
0.098

> <Negative vol penalty>
0.000

$$$$

  -OEChem-04052317533D

 82 90  0     1  0  0  0  0  0999 V2000
  -16.6391  -26.8634   21.4268 C   0  0  0  0  0  0  0  0  0  0  0  0
  -17.8635  -26.7769   20.7719 C   0  0  0  0  0  0  0  0  0  0  0  0
  -28.3317  -12.5799   21.0684 C   0  0  0  0  0  0  0  0  0  0  0  0
  -26.3922  -13.7807   20.2724 C   0  0  0  0  0  0  0  0  0  0  0  0
  -16.5116  -27.6642   22.5610 C   0  0  0  0  0  0  0  0  0  0  0  0
  -18.9608  -27.4921   21.2503 C   0  0  0  0  0  0  0  0  0  0  0  0
  -23.1943  -24.7151   21.3539 C   0  0  0  0  0  0  0  0  0  0  0  0
  -27.6267  -11.3799   20.9758 C   0  0  0  0  0  0  0  0  0  0  0  0
  -25.6873  -12.5807   20.1796 C   0  0  0  0  0  0  0  0  0  0  0  0
  -23.8579  -24.5205   20.1433 C   0  0  0  0  0  0  0  0  0  0  0  0
  -24.0777  -10.4688   22.2725 C   0  0  0  0  0  0  0  0  0  0  0  0
  -22.7732  -10.4437   22.7658 C   0  0  0  0  0  0  0  0  0  0  0  0
  -29.4196  -22.0194   19.3073 C   0  0  0  0  0  0  0  0  0  0  0  0
  -25.4245  -26.2587   20.7297 C   0  0  0  0  0  0  0  0  0  0  0  0
  -21.9548   -9.8507   20.5713 C   0  0  0  0  0  0  0  0  0  0  0  0
  -29.4983  -21.7280   20.6472 C   0  0  0  0  0  0  0  0  0  0  0  0
  -27.7144  -13.7803   20.7168 C   0  0  0  0  0  0  0  0  0  0  0  0
  -29.2267  -15.6252   19.8128 C   0  0  0  0  0  0  0  0  0  0  0  0
  -17.6104  -28.3820   23.0591 C   0  0  0  0  0  0  0  0  0  0  0  0
  -23.6350  -25.6920   22.2582 C   0  0  0  0  0  0  0  0  0  0  0  0
  -18.8475  -28.3043   22.3914 C   0  0  0  0  0  0  0  0  0  0  0  0
  -24.7662  -26.4619   21.9522 C   0  0  0  0  0  0  0  0  0  0  0  0
  -26.3045  -11.3802   20.5313 C   0  0  0  0  0  0  0  0  0  0  0  0
  -24.9715  -25.2943   19.8298 C   0  0  0  0  0  0  0  0  0  0  0  0
  -24.3207  -10.1849   20.9286 C   0  0  0  0  0  0  0  0  0  0  0  0
  -21.7118  -10.1346   21.9152 C   0  0  0  0  0  0  0  0  0  0  0  0
  -23.2593   -9.8758   20.0780 C   0  0  0  0  0  0  0  0  0  0  0  0
  -28.4419  -15.0203   20.8129 C   0  0  0  0  0  0  0  0  0  0  0  0
  -28.1144  -22.5167   19.1315 C   0  0  0  0  0  0  0  0  0  0  0  0
  -29.6987  -16.7757   20.3958 C   0  0  0  0  0  0  0  0  0  0  0  0
  -29.5040  -15.1863   18.4764 C   0  0  0  0  0  0  0  0  0  0  0  0
  -22.3714  -28.3300   23.5024 C   0  0  0  0  0  0  0  0  0  0  0  0
  -25.0873  -28.3265   25.2761 C   0  0  0  0  0  0  0  0  0  0  0  0
  -28.3402  -27.3437   25.5918 C   0  0  0  0  0  0  0  0  0  0  0  0
  -27.3870  -19.8543   25.1621 C   0  0  0  0  0  0  0  0  0  0  0  0
  -17.4120  -29.2715   24.2608 C   0  0  0  0  0  0  0  0  0  0  0  0
  -22.9241  -25.8712   23.5716 C   0  0  0  0  0  0  0  0  0  0  0  0
  -25.2917  -27.5099   22.8977 C   0  0  0  0  0  0  0  0  0  0  0  0
  -18.7187  -29.7030   24.9216 C   0  0  0  0  0  0  0  0  0  0  0  0
  -30.8442  -18.6365   24.6456 C   0  0  0  0  0  0  0  0  0  0  0  0
  -19.7179  -30.1754   23.8703 C   0  0  0  0  0  0  0  0  0  0  0  0
  -30.6641  -17.5706   23.5660 C   0  0  0  0  0  0  0  0  0  0  0  0
  -29.5906  -18.7954   25.5005 C   0  0  0  0  0  0  0  0  0  0  0  0
  -28.1758  -17.9995   23.6353 C   0  0  0  0  0  0  0  0  0  0  0  0
  -20.0673  -29.0455   22.8942 C   0  0  1  0  0  0  0  0  0  0  0  0
  -23.1518  -27.2465   24.1914 C   0  0  1  0  0  0  0  0  0  0  0  0
  -29.4048  -17.8473   22.7265 C   0  0  2  0  0  0  0  0  0  0  0  0
  -30.3122  -27.5251   27.1332 C   0  0  0  0  0  0  0  0  0  0  0  0
  -25.5584  -31.1896   24.3326 C   0  0  0  0  0  0  0  0  0  0  0  0
  -27.9326  -30.9774   25.0982 C   0  0  0  0  0  0  0  0  0  0  0  0
  -26.0706  -30.7895   26.7475 C   0  0  0  0  0  0  0  0  0  0  0  0
  -25.5802  -21.4583   24.6699 C   0  0  0  0  0  0  0  0  0  0  0  0
  -28.4452  -24.4130   25.9907 C   0  0  0  0  0  0  0  0  0  0  0  0
  -27.4785  -22.9935   17.8501 C   0  0  0  0  0  0  0  0  0  0  0  0
  -27.6782  -24.4867   17.5817 C   0  0  0  0  0  0  0  0  0  0  0  0
  -27.8831  -21.9249   22.5526 C   0  0  0  0  0  0  0  0  0  0  0  0
  -27.0089  -20.6998   22.8073 C   0  0  0  0  0  0  0  0  0  0  0  0
  -27.0209  -25.3811   18.6264 C   0  0  0  0  0  0  0  0  0  1  0  0
  -26.4724  -28.9041   25.1117 C   0  0  1  0  0  0  0  0  0  0  0  0
  -29.0919  -26.7045   26.7454 C   0  0  2  0  0  0  0  0  0  0  0  0
  -26.4977  -30.4468   25.3036 C   0  0  0  0  0  0  0  0  0  0  0  0
  -28.4146  -15.7280   21.9453 N   0  0  0  0  0  0  0  0  0  0  0  0
  -27.4143  -22.5411   20.2687 N   0  0  0  0  0  0  0  0  0  0  0  0
  -28.2828  -22.0553   21.1720 N   0  0  0  0  0  0  0  0  0  0  0  0
  -29.1882  -16.7894   21.6605 N   0  0  0  0  0  0  0  0  0  0  0  0
  -24.5586  -27.6518   24.1666 N   0  0  0  0  0  0  0  0  0  0  0  0
  -28.4021  -19.0142   24.6755 N   0  0  0  0  0  0  0  0  0  0  0  0
  -30.4966  -17.7669   19.9449 N   0  0  0  0  0  0  0  0  0  0  0  0
  -28.9387  -13.9811   18.0380 N   0  0  0  0  0  0  0  0  0  0  0  0
  -21.0048  -28.1252   23.5012 N   0  0  0  0  0  0  0  0  0  0  0  0
  -27.3320  -28.1728   26.0361 N   0  0  0  0  0  0  0  0  0  0  0  0
  -26.6362  -20.5656   24.2139 N   0  0  0  0  0  0  0  0  0  0  0  0
  -29.5459  -25.3349   26.3724 N   0  3  0  0  0  0  0  0  0  0  0  0
  -30.2450  -15.8352   17.6995 O   0  0  0  0  0  0  0  0  0  0  0  0
  -22.9651  -29.2821   23.0098 O   0  0  0  0  0  0  0  0  0  0  0  0
  -24.4992  -28.4625   26.3519 O   0  0  0  0  0  0  0  0  0  0  0  0
  -28.6218  -27.1318   24.4144 O   0  0  0  0  0  0  0  0  0  0  0  0
  -27.1709  -19.9696   26.3753 O   0  0  0  0  0  0  0  0  0  0  0  0
  -25.6164  -10.2094   20.4405 O   0  0  0  0  0  0  0  0  0  0  0  0
  -25.6207  -25.1069   18.6485 O   0  0  0  0  0  0  0  0  0  1  0  0
  -20.4593  -10.1091   22.3894 F   0  0  0  0  0  0  0  0  0  0  0  0
  -23.4867   -9.6010   18.7863 F   0  0  0  0  0  0  0  0  0  0  0  0
  1  2  1  0  0  0  0
  1  5  2  0  0  0  0
  2  6  2  0  0  0  0
  3  8  2  0  0  0  0
  3 17  1  0  0  0  0
  4  9  1  0  0  0  0
  4 17  2  0  0  0  0
  5 19  1  0  0  0  0
  6 21  1  0  0  0  0
  7 10  2  0  0  0  0
  7 20  1  0  0  0  0
  8 23  1  0  0  0  0
  9 23  2  0  0  0  0
 10 24  1  0  0  0  0
 11 12  2  0  0  0  0
 11 25  1  0  0  0  0
 12 26  1  0  0  0  0
 13 16  2  0  0  0  0
 13 29  1  0  0  0  0
 14 22  1  0  0  0  0
 14 24  2  0  0  0  0
 15 26  2  0  0  0  0
 15 27  1  0  0  0  0
 16 64  1  0  0  0  0
 17 28  1  0  0  0  0
 18 28  1  0  0  0  0
 18 30  2  0  0  0  0
 18 31  1  0  0  0  0
 19 21  2  0  0  0  0
 19 36  1  0  0  0  0
 20 22  2  0  0  0  0
 20 37  1  0  0  0  0
 21 45  1  0  0  0  0
 22 38  1  0  0  0  0
 23 79  1  0  0  0  0
 24 80  1  0  0  0  0
 25 27  2  0  0  0  0
 25 79  1  0  0  0  0
 26 81  1  0  0  0  0
 27 82  1  0  0  0  0
 28 62  2  0  0  0  0
 29 54  1  0  0  0  0
 29 63  2  0  0  0  0
 30 65  1  0  0  0  0
 30 68  1  0  0  0  0
 31 69  1  0  0  0  0
 31 74  2  0  0  0  0
 32 46  1  0  0  0  0
 32 70  1  0  0  0  0
 32 75  2  0  0  0  0
 33 59  1  0  0  0  0
 33 66  1  0  0  0  0
 33 76  2  0  0  0  0
 34 60  1  0  0  0  0
 34 71  1  0  0  0  0
 34 77  2  0  0  0  0
 35 67  1  0  0  0  0
 35 72  1  0  0  0  0
 35 78  2  0  0  0  0
 36 39  1  0  0  0  0
 37 46  1  0  0  0  0
 38 66  1  0  0  0  0
 39 41  1  0  0  0  0
 40 42  1  0  0  0  0
 40 43  1  0  0  0  0
 41 45  1  0  0  0  0
 42 47  1  0  0  0  0
 43 67  1  0  0  0  0
 44 47  1  0  0  0  0
 44 67  1  0  0  0  0
 45 70  1  0  0  0  0
 46 66  1  0  0  0  0
 47 65  1  0  0  0  0
 48 60  1  0  0  0  0
 49 61  1  0  0  0  0
 50 61  1  0  0  0  0
 51 61  1  0  0  0  0
 52 72  1  0  0  0  0
 53 73  1  0  0  0  0
 54 55  1  0  0  0  0
 55 58  1  0  0  0  0
 56 57  1  0  0  0  0
 56 64  1  0  0  0  0
 57 72  1  0  0  0  0
 58 80  1  0  0  0  0
 59 61  1  0  0  0  0
 59 71  1  0  0  0  0
 60 73  1  0  0  0  0
 62 65  1  0  0  0  0
 63 64  1  0  0  0  0
M  CHG  1  73   1
M  ISO  4  35 100  58 101  72 100  80 101
M  END
> <Batch ID>
0059

> <Smiles>
CNC(C)C(=O)NC(C(=O)N1Cc2cc([101O:1][101CH2:1]CCc3ccn(CC[100N:0](C)[100C:0](=O)N4CCCC(n5nc(-c6ccc(Oc7ccc(F)cc7F)cc6)c(C(N)=O)c5N)C4)n3)ccc2CC1C(=O)NC1CCCc2ccccc21)C(C)(C)C

> <Shape>
0.229

> <Color>
0.067

> <Negative vol penalty>
0.000

$$$$

  -OEChem-04052317533D

 83 91  0     1  0  0  0  0  0999 V2000
  -29.5184  -17.3853   30.1560 C   0  0  0  0  0  0  0  0  0  0  0  0
  -30.0699  -17.7230   28.9242 C   0  0  0  0  0  0  0  0  0  0  0  0
  -23.2070   -9.8845   19.8656 C   0  0  0  0  0  0  0  0  0  0  0  0
  -23.7947   -9.8999   22.2090 C   0  0  0  0  0  0  0  0  0  0  0  0
  -28.2517  -17.8532   30.5031 C   0  0  0  0  0  0  0  0  0  0  0  0
  -29.3545  -18.5279   28.0384 C   0  0  0  0  0  0  0  0  0  0  0  0
  -31.6450  -22.7007   24.1851 C   0  0  0  0  0  0  0  0  0  0  0  0
  -22.4645   -8.7198   20.0594 C   0  0  0  0  0  0  0  0  0  0  0  0
  -23.0520   -8.7352   22.4028 C   0  0  0  0  0  0  0  0  0  0  0  0
  -31.9424  -22.6569   22.8237 C   0  0  0  0  0  0  0  0  0  0  0  0
  -19.4293   -7.8762   21.2879 C   0  0  0  0  0  0  0  0  0  0  0  0
  -18.1629   -7.8107   20.7071 C   0  0  0  0  0  0  0  0  0  0  0  0
  -29.7974  -23.6438   22.3295 C   0  0  0  0  0  0  0  0  0  0  0  0
  -18.8488   -5.8782   19.4295 C   0  0  0  0  0  0  0  0  0  0  0  0
  -29.5656  -19.9543   20.5352 C   0  0  0  0  0  0  0  0  0  0  0  0
  -30.1750  -18.7186   18.6490 C   0  0  0  0  0  0  0  0  0  0  0  0
  -23.8722  -10.4745   20.9404 C   0  0  0  0  0  0  0  0  0  0  0  0
  -24.1832  -13.0048   20.8467 C   0  0  0  0  0  0  0  0  0  0  0  0
  -27.5245  -18.6722   29.6251 C   0  0  0  0  0  0  0  0  0  0  0  0
  -30.4150  -23.2072   24.6290 C   0  0  0  0  0  0  0  0  0  0  0  0
  -28.0763  -19.0061   28.3736 C   0  0  0  0  0  0  0  0  0  0  0  0
  -29.4878  -23.6953   23.6973 C   0  0  0  0  0  0  0  0  0  0  0  0
  -30.0292  -19.9591   19.2355 C   0  0  0  0  0  0  0  0  0  0  0  0
  -22.3869   -8.1451   21.3280 C   0  0  0  0  0  0  0  0  0  0  0  0
  -31.0174  -23.1259   21.8955 C   0  0  0  0  0  0  0  0  0  0  0  0
  -20.4056   -6.9428   20.9394 C   0  0  0  0  0  0  0  0  0  0  0  0
  -17.8726   -6.8117   19.7779 C   0  0  0  0  0  0  0  0  0  0  0  0
  -20.1153   -5.9438   20.0103 C   0  0  0  0  0  0  0  0  0  0  0  0
  -24.6399  -11.6774   20.7407 C   0  0  0  0  0  0  0  0  0  0  0  0
  -25.2877  -13.7714   20.5656 C   0  0  0  0  0  0  0  0  0  0  0  0
  -29.4483  -17.6842   20.5381 C   0  0  0  0  0  0  0  0  0  0  0  0
  -22.8774  -13.5005   21.1704 C   0  0  0  0  0  0  0  0  0  0  0  0
  -27.9413  -22.0102   26.2264 C   0  0  0  0  0  0  0  0  0  0  0  0
  -26.9064  -25.0837   26.1543 C   0  0  0  0  0  0  0  0  0  0  0  0
  -26.9962  -28.1359   24.6303 C   0  0  0  0  0  0  0  0  0  0  0  0
  -30.8208  -14.5689   21.5977 C   0  0  0  0  0  0  0  0  0  0  0  0
  -26.1392  -19.1149   30.0248 C   0  0  0  0  0  0  0  0  0  0  0  0
  -30.1203  -23.2722   26.1026 C   0  0  0  0  0  0  0  0  0  0  0  0
  -28.1614  -24.2675   24.1235 C   0  0  0  0  0  0  0  0  0  0  0  0
  -25.6031  -20.2710   29.1844 C   0  0  0  0  0  0  0  0  0  0  0  0
  -29.8046  -12.5086   18.6953 C   0  0  0  0  0  0  0  0  0  0  0  0
  -25.8430  -20.0090   27.7010 C   0  0  0  0  0  0  0  0  0  0  0  0
  -28.3527  -12.1643   19.0233 C   0  0  0  0  0  0  0  0  0  0  0  0
  -30.6326  -12.7351   19.9566 C   0  0  0  0  0  0  0  0  0  0  0  0
  -28.6082  -13.4096   21.2060 C   0  0  0  0  0  0  0  0  0  0  0  0
  -27.3417  -19.8974   27.3959 C   0  0  1  0  0  0  0  0  0  0  0  0
  -28.6275  -23.3340   26.4112 C   0  0  1  0  0  0  0  0  0  0  0  0
  -27.7356  -13.2208   19.9560 C   0  0  2  0  0  0  0  0  0  0  0  0
  -28.0088  -16.5926   22.2982 C   0  0  0  0  0  0  0  0  0  0  0  0
  -26.0142  -30.4406   24.7770 C   0  0  0  0  0  0  0  0  0  0  0  0
  -24.2982  -24.0458   24.9583 C   0  0  0  0  0  0  0  0  0  0  0  0
  -23.7666  -26.3906   24.2599 C   0  0  0  0  0  0  0  0  0  0  0  0
  -24.0162  -25.8380   26.6797 C   0  0  0  0  0  0  0  0  0  0  0  0
  -31.1275  -16.7702   22.6652 C   0  0  0  0  0  0  0  0  0  0  0  0
  -29.6537  -29.3670   25.0560 C   0  0  0  0  0  0  0  0  0  0  0  0
  -30.3576  -21.2368   18.5052 C   0  0  0  0  0  0  0  0  0  0  0  0
  -31.8087  -21.6902   18.6792 C   0  0  0  0  0  0  0  0  0  0  0  0
  -32.1647  -22.0356   20.1204 C   0  0  0  0  0  0  0  0  0  1  0  0
  -29.1290  -16.4203   21.2620 C   0  0  2  0  0  0  0  0  0  0  0  0
  -26.0694  -25.9079   25.2061 C   0  0  1  0  0  0  0  0  0  0  0  0
  -27.1653  -29.5367   25.1902 C   0  0  2  0  0  0  0  0  0  0  0  0
  -24.5617  -25.5331   25.2675 C   0  0  0  0  0  0  0  0  0  0  0  0
  -29.2641  -18.8311   21.2193 N   0  0  0  0  0  0  0  0  0  0  0  0
  -29.8930  -17.5563   19.2734 N   0  0  0  0  0  0  0  0  0  0  0  0
  -25.9336  -11.6015   20.4173 N   0  0  0  0  0  0  0  0  0  0  0  0
  -26.2993  -12.8908   20.3176 N   0  0  0  0  0  0  0  0  0  0  0  0
  -27.9172  -24.3036   25.5749 N   0  0  0  0  0  0  0  0  0  0  0  0
  -30.0015  -13.7116   20.8450 N   0  0  0  0  0  0  0  0  0  0  0  0
  -25.4824  -15.1060   20.5087 N   0  0  0  0  0  0  0  0  0  0  0  0
  -21.8573  -12.5755   21.4315 N   0  0  0  0  0  0  0  0  0  0  0  0
  -27.9479  -21.2109   27.3536 N   0  0  0  0  0  0  0  0  0  0  0  0
  -26.3513  -27.3042   25.5212 N   0  0  0  0  0  0  0  0  0  0  0  0
  -30.3108  -15.8413   21.8971 N   0  0  0  0  0  0  0  0  0  0  0  0
  -28.4365  -30.1406   24.6998 N   0  3  0  0  0  0  0  0  0  0  0  0
  -22.6187  -14.7273   21.2104 O   0  0  0  0  0  0  0  0  0  0  0  0
  -27.4414  -21.7350   25.1420 O   0  0  0  0  0  0  0  0  0  0  0  0
  -26.6766  -25.1356   27.3651 O   0  0  0  0  0  0  0  0  0  0  0  0
  -27.3930  -27.8128   23.5128 O   0  0  0  0  0  0  0  0  0  0  0  0
  -31.9479  -14.2205   21.9721 O   0  0  0  0  0  0  0  0  0  0  0  0
  -21.6622   -7.0087   21.5176 O   0  0  0  0  0  0  0  0  0  0  0  0
  -31.3049  -23.0837   20.5661 O   0  0  0  0  0  0  0  0  0  1  0  0
  -16.6559   -6.7480   19.2213 F   0  0  0  0  0  0  0  0  0  0  0  0
  -21.0487   -5.0436   19.6724 F   0  0  0  0  0  0  0  0  0  0  0  0
  1  2  1  0  0  0  0
  1  5  2  0  0  0  0
  2  6  2  0  0  0  0
  3  8  2  0  0  0  0
  3 17  1  0  0  0  0
  4  9  1  0  0  0  0
  4 17  2  0  0  0  0
  5 19  1  0  0  0  0
  6 21  1  0  0  0  0
  7 10  2  0  0  0  0
  7 20  1  0  0  0  0
  8 24  1  0  0  0  0
  9 24  2  0  0  0  0
 10 25  1  0  0  0  0
 11 12  2  0  0  0  0
 11 26  1  0  0  0  0
 12 27  1  0  0  0  0
 13 22  1  0  0  0  0
 13 25  2  0  0  0  0
 14 27  2  0  0  0  0
 14 28  1  0  0  0  0
 15 23  1  0  0  0  0
 15 63  2  0  0  0  0
 16 23  2  0  0  0  0
 16 64  1  0  0  0  0
 17 29  1  0  0  0  0
 18 29  1  0  0  0  0
 18 30  2  0  0  0  0
 18 32  1  0  0  0  0
 19 21  2  0  0  0  0
 19 37  1  0  0  0  0
 20 22  2  0  0  0  0
 20 38  1  0  0  0  0
 21 46  1  0  0  0  0
 22 39  1  0  0  0  0
 23 56  1  0  0  0  0
 24 80  1  0  0  0  0
 25 81  1  0  0  0  0
 26 28  2  0  0  0  0
 26 80  1  0  0  0  0
 27 82  1  0  0  0  0
 28 83  1  0  0  0  0
 29 65  2  0  0  0  0
 30 66  1  0  0  0  0
 30 69  1  0  0  0  0
 31 59  1  0  0  0  0
 31 63  1  0  0  0  0
 31 64  2  0  0  0  0
 32 70  1  0  0  0  0
 32 75  2  0  0  0  0
 33 47  1  0  0  0  0
 33 71  1  0  0  0  0
 33 76  2  0  0  0  0
 34 60  1  0  0  0  0
 34 67  1  0  0  0  0
 34 77  2  0  0  0  0
 35 61  1  0  0  0  0
 35 72  1  0  0  0  0
 35 78  2  0  0  0  0
 36 68  1  0  0  0  0
 36 73  1  0  0  0  0
 36 79  2  0  0  0  0
 37 40  1  0  0  0  0
 38 47  1  0  0  0  0
 39 67  1  0  0  0  0
 40 42  1  0  0  0  0
 41 43  1  0  0  0  0
 41 44  1  0  0  0  0
 42 46  1  0  0  0  0
 43 48  1  0  0  0  0
 44 68  1  0  0  0  0
 45 48  1  0  0  0  0
 45 68  1  0  0  0  0
 46 71  1  0  0  0  0
 47 67  1  0  0  0  0
 48 66  1  0  0  0  0
 49 59  1  0  0  0  0
 50 61  1  0  0  0  0
 51 62  1  0  0  0  0
 52 62  1  0  0  0  0
 53 62  1  0  0  0  0
 54 73  1  0  0  0  0
 55 74  1  0  0  0  0
 56 57  1  0  0  0  0
 57 58  1  0  0  0  0
 58 81  1  0  0  0  0
 59 73  1  0  0  0  0
 60 62  1  0  0  0  0
 60 72  1  0  0  0  0
 61 74  1  0  0  0  0
 65 66  1  0  0  0  0
M  CHG  1  74   1
M  ISO  4  36 100  58 101  73 100  81 101
M  END
> <Batch ID>
0059

> <Smiles>
CNC(C)C(=O)NC(C(=O)N1Cc2cc([101O:1][101CH2:1]CCc3cnc(C(C)[100N:0](C)[100C:0](=O)N4CCCC(n5nc(-c6ccc(Oc7ccc(F)cc7F)cc6)c(C(N)=O)c5N)C4)nc3)ccc2CC1C(=O)NC1CCCc2ccccc21)C(C)(C)C

> <Shape>
0.203

> <Color>
0.186

> <Negative vol penalty>
0.000

$$$$

  -OEChem-04052317533D

 81 89  0     1  0  0  0  0  0999 V2000
  -16.5610  -30.0929   23.0979 C   0  0  0  0  0  0  0  0  0  0  0  0
  -17.6217  -30.2061   22.2049 C   0  0  0  0  0  0  0  0  0  0  0  0
  -26.5320  -14.8305   20.9687 C   0  0  0  0  0  0  0  0  0  0  0  0
  -26.7053  -14.9907   18.5643 C   0  0  0  0  0  0  0  0  0  0  0  0
  -16.7522  -29.4693   24.3302 C   0  0  0  0  0  0  0  0  0  0  0  0
  -18.8746  -29.6967   22.5442 C   0  0  0  0  0  0  0  0  0  0  0  0
  -24.6499  -26.6542   19.5935 C   0  0  0  0  0  0  0  0  0  0  0  0
  -25.4934  -13.9096   20.8325 C   0  0  0  0  0  0  0  0  0  0  0  0
  -25.6666  -14.0697   18.4281 C   0  0  0  0  0  0  0  0  0  0  0  0
  -26.0354  -26.7995   19.5407 C   0  0  0  0  0  0  0  0  0  0  0  0
  -23.0382  -11.2438   21.1173 C   0  0  0  0  0  0  0  0  0  0  0  0
  -23.0713  -10.1052   21.9223 C   0  0  0  0  0  0  0  0  0  0  0  0
  -31.1918  -25.1661   20.8112 C   0  0  0  0  0  0  0  0  0  0  0  0
  -26.2286  -25.6721   21.6646 C   0  0  0  0  0  0  0  0  0  0  0  0
  -25.1906   -9.4772   20.9469 C   0  0  0  0  0  0  0  0  0  0  0  0
  -31.8183  -24.0283   20.3648 C   0  0  0  0  0  0  0  0  0  0  0  0
  -27.1380  -15.3712   19.8346 C   0  0  0  0  0  0  0  0  0  0  0  0
  -29.5884  -16.0454   20.0552 C   0  0  0  0  0  0  0  0  0  0  0  0
  -18.0056  -28.9434   24.6807 C   0  0  0  0  0  0  0  0  0  0  0  0
  -24.0414  -26.0253   20.6893 C   0  0  0  0  0  0  0  0  0  0  0  0
  -19.0831  -29.0667   23.7828 C   0  0  0  0  0  0  0  0  0  0  0  0
  -24.8353  -25.5177   21.7277 C   0  0  0  0  0  0  0  0  0  0  0  0
  -25.0606  -13.5291   19.5622 C   0  0  0  0  0  0  0  0  0  0  0  0
  -26.8248  -26.3111   20.5777 C   0  0  0  0  0  0  0  0  0  0  0  0
  -24.0812  -11.4991   20.2270 C   0  0  0  0  0  0  0  0  0  0  0  0
  -24.1475   -9.2219   21.8372 C   0  0  0  0  0  0  0  0  0  0  0  0
  -25.1574  -10.6158   20.1418 C   0  0  0  0  0  0  0  0  0  0  0  0
  -28.2106  -16.3230   19.9746 C   0  0  0  0  0  0  0  0  0  0  0  0
  -30.9159  -25.8982   19.6408 C   0  0  0  0  0  0  0  0  0  0  0  0
  -30.1804  -17.2785   20.1791 C   0  0  0  0  0  0  0  0  0  0  0  0
  -30.2719  -14.7855   20.0209 C   0  0  0  0  0  0  0  0  0  0  0  0
  -21.9695  -26.9250   22.9258 C   0  0  0  0  0  0  0  0  0  0  0  0
  -22.0815  -23.7870   23.7399 C   0  0  0  0  0  0  0  0  0  0  0  0
  -23.8090  -20.8440   23.7028 C   0  0  0  0  0  0  0  0  0  0  0  0
  -29.1194  -22.7017   18.0468 C   0  0  0  0  0  0  0  0  0  0  0  0
  -18.1759  -28.3200   26.0435 C   0  0  0  0  0  0  0  0  0  0  0  0
  -22.5475  -25.8526   20.7185 C   0  0  0  0  0  0  0  0  0  0  0  0
  -24.2326  -24.8167   22.9167 C   0  0  0  0  0  0  0  0  0  0  0  0
  -19.4400  -27.4740   26.1726 C   0  0  0  0  0  0  0  0  0  0  0  0
  -28.6723  -21.7587   21.5983 C   0  0  0  0  0  0  0  0  0  0  0  0
  -20.6415  -28.2184   25.5988 C   0  0  0  0  0  0  0  0  0  0  0  0
  -28.5647  -20.2364   21.5277 C   0  0  0  0  0  0  0  0  0  0  0  0
  -28.1845  -22.4220   20.3138 C   0  0  0  0  0  0  0  0  0  0  0  0
  -28.7458  -20.3953   19.0132 C   0  0  0  0  0  0  0  0  0  0  0  0
  -20.4509  -28.5046   24.1044 C   0  0  1  0  0  0  0  0  0  0  0  0
  -21.9965  -25.6526   22.1270 C   0  0  1  0  0  0  0  0  0  0  0  0
  -29.2728  -19.6939   20.2741 C   0  0  2  0  0  0  0  0  0  0  0  0
  -23.6608  -18.4628   24.4808 C   0  0  0  0  0  0  0  0  0  0  0  0
  -22.7444  -24.6769   26.5822 C   0  0  0  0  0  0  0  0  0  0  0  0
  -23.5058  -22.3406   27.0616 C   0  0  0  0  0  0  0  0  0  0  0  0
  -21.1302  -22.7724   26.4351 C   0  0  0  0  0  0  0  0  0  0  0  0
  -30.2544  -22.7501   15.8585 C   0  0  0  0  0  0  0  0  0  0  0  0
  -23.9253  -19.8097   20.9323 C   0  0  0  0  0  0  0  0  0  0  0  0
  -30.2329  -27.2401   19.5357 C   0  0  0  0  0  0  0  0  0  0  0  0
  -32.4518  -23.1877   18.0909 C   0  0  0  0  0  0  0  0  0  0  0  0
  -31.5385  -21.9940   17.8244 C   0  0  0  0  0  0  0  0  0  0  0  0
  -28.7210  -27.1110   19.3858 C   0  0  0  0  0  0  0  0  0  1  0  0
  -22.9303  -22.9532   24.6691 C   0  0  1  0  0  0  0  0  0  0  0  0
  -23.3853  -19.4318   23.3415 C   0  0  2  0  0  0  0  0  0  0  0  0
  -22.5892  -23.2007   26.1657 C   0  0  0  0  0  0  0  0  0  0  0  0
  -27.9431  -17.6299   20.0419 N   0  0  0  0  0  0  0  0  0  0  0  0
  -31.3331  -25.2776   18.5341 N   0  0  0  0  0  0  0  0  0  0  0  0
  -31.8776  -24.1436   19.0071 N   0  0  0  0  0  0  0  0  0  0  0  0
  -29.1610  -18.1845   20.1662 N   0  0  0  0  0  0  0  0  0  0  0  0
  -22.7670  -24.6781   22.9021 N   0  0  0  0  0  0  0  0  0  0  0  0
  -28.8422  -21.8577   19.1348 N   0  0  0  0  0  0  0  0  0  0  0  0
  -31.4684  -17.6654   20.2970 N   0  0  0  0  0  0  0  0  0  0  0  0
  -29.5110  -13.6159   19.8889 N   0  0  0  0  0  0  0  0  0  0  0  0
  -20.7045  -27.3119   23.3250 N   0  0  0  0  0  0  0  0  0  0  0  0
  -22.7660  -21.5686   24.2398 N   0  0  0  0  0  0  0  0  0  0  0  0
  -30.2471  -22.3949   17.2704 N   0  0  0  0  0  0  0  0  0  0  0  0
  -24.1243  -18.9618   22.1357 N   0  3  0  0  0  0  0  0  0  0  0  0
  -31.5192  -14.6984   20.1214 O   0  0  0  0  0  0  0  0  0  0  0  0
  -23.0189  -27.5114   23.1636 O   0  0  0  0  0  0  0  0  0  0  0  0
  -20.8559  -23.6475   23.7519 O   0  0  0  0  0  0  0  0  0  0  0  0
  -24.9520  -21.2614   23.5296 O   0  0  0  0  0  0  0  0  0  0  0  0
  -28.4054  -23.6796   17.7902 O   0  0  0  0  0  0  0  0  0  0  0  0
  -24.0473  -12.6303   19.4290 O   0  0  0  0  0  0  0  0  0  0  0  0
  -28.1775  -26.4522   20.5290 O   0  0  0  0  0  0  0  0  0  1  0  0
  -24.1799   -8.1294   22.6114 F   0  0  0  0  0  0  0  0  0  0  0  0
  -26.1630  -10.8563   19.2893 F   0  0  0  0  0  0  0  0  0  0  0  0
  1  2  1  0  0  0  0
  1  5  2  0  0  0  0
  2  6  2  0  0  0  0
  3  8  2  0  0  0  0
  3 17  1  0  0  0  0
  4  9  1  0  0  0  0
  4 17  2  0  0  0  0
  5 19  1  0  0  0  0
  6 21  1  0  0  0  0
  7 10  2  0  0  0  0
  7 20  1  0  0  0  0
  8 23  1  0  0  0  0
  9 23  2  0  0  0  0
 10 24  1  0  0  0  0
 11 12  2  0  0  0  0
 11 25  1  0  0  0  0
 12 26  1  0  0  0  0
 13 16  2  0  0  0  0
 13 29  1  0  0  0  0
 14 22  1  0  0  0  0
 14 24  2  0  0  0  0
 15 26  2  0  0  0  0
 15 27  1  0  0  0  0
 16 63  1  0  0  0  0
 17 28  1  0  0  0  0
 18 28  1  0  0  0  0
 18 30  2  0  0  0  0
 18 31  1  0  0  0  0
 19 21  2  0  0  0  0
 19 36  1  0  0  0  0
 20 22  2  0  0  0  0
 20 37  1  0  0  0  0
 21 45  1  0  0  0  0
 22 38  1  0  0  0  0
 23 78  1  0  0  0  0
 24 79  1  0  0  0  0
 25 27  2  0  0  0  0
 25 78  1  0  0  0  0
 26 80  1  0  0  0  0
 27 81  1  0  0  0  0
 28 61  2  0  0  0  0
 29 54  1  0  0  0  0
 29 62  2  0  0  0  0
 30 64  1  0  0  0  0
 30 67  1  0  0  0  0
 31 68  1  0  0  0  0
 31 73  2  0  0  0  0
 32 46  1  0  0  0  0
 32 69  1  0  0  0  0
 32 74  2  0  0  0  0
 33 58  1  0  0  0  0
 33 65  1  0  0  0  0
 33 75  2  0  0  0  0
 34 59  1  0  0  0  0
 34 70  1  0  0  0  0
 34 76  2  0  0  0  0
 35 66  1  0  0  0  0
 35 71  1  0  0  0  0
 35 77  2  0  0  0  0
 36 39  1  0  0  0  0
 37 46  1  0  0  0  0
 38 65  1  0  0  0  0
 39 41  1  0  0  0  0
 40 42  1  0  0  0  0
 40 43  1  0  0  0  0
 41 45  1  0  0  0  0
 42 47  1  0  0  0  0
 43 66  1  0  0  0  0
 44 47  1  0  0  0  0
 44 66  1  0  0  0  0
 45 69  1  0  0  0  0
 46 65  1  0  0  0  0
 47 64  1  0  0  0  0
 48 59  1  0  0  0  0
 49 60  1  0  0  0  0
 50 60  1  0  0  0  0
 51 60  1  0  0  0  0
 52 71  1  0  0  0  0
 53 72  1  0  0  0  0
 54 57  1  0  0  0  0
 55 56  1  0  0  0  0
 55 63  1  0  0  0  0
 56 71  1  0  0  0  0
 57 79  1  0  0  0  0
 58 60  1  0  0  0  0
 58 70  1  0  0  0  0
 59 72  1  0  0  0  0
 61 64  1  0  0  0  0
 62 63  1  0  0  0  0
M  CHG  1  72   1
M  ISO  4  35 100  57 101  71 100  79 101
M  END
> <Batch ID>
0059

> <Smiles>
CNC(C)C(=O)NC(C(=O)N1Cc2cc([101O:1][101CH2:1]Cc3ccn(CC[100N:0](C)[100C:0](=O)N4CCCC(n5nc(-c6ccc(Oc7ccc(F)cc7F)cc6)c(C(N)=O)c5N)C4)n3)ccc2CC1C(=O)NC1CCCc2ccccc21)C(C)(C)C

> <Shape>
0.240

> <Color>
0.071

> <Negative vol penalty>
0.000

$$$$

  -OEChem-04052317533D

 83 91  0     1  0  0  0  0  0999 V2000
  -28.6631  -24.6923   13.0845 C   0  0  0  0  0  0  0  0  0  0  0  0
  -28.8831  -23.5468   13.8427 C   0  0  0  0  0  0  0  0  0  0  0  0
  -23.2819   -9.8043   19.9164 C   0  0  0  0  0  0  0  0  0  0  0  0
  -23.7316   -9.9477   22.2859 C   0  0  0  0  0  0  0  0  0  0  0  0
  -28.1820  -25.8496   13.6954 C   0  0  0  0  0  0  0  0  0  0  0  0
  -28.6232  -23.5584   15.2127 C   0  0  0  0  0  0  0  0  0  0  0  0
  -26.5037  -18.9151   18.5970 C   0  0  0  0  0  0  0  0  0  0  0  0
  -22.5490   -8.6362   20.1262 C   0  0  0  0  0  0  0  0  0  0  0  0
  -22.9987   -8.7796   22.4957 C   0  0  0  0  0  0  0  0  0  0  0  0
  -27.1397  -17.9909   19.4247 C   0  0  0  0  0  0  0  0  0  0  0  0
  -19.7466   -7.8866   22.7125 C   0  0  0  0  0  0  0  0  0  0  0  0
  -18.8433   -7.8722   23.7752 C   0  0  0  0  0  0  0  0  0  0  0  0
  -26.6442  -19.3731   21.3386 C   0  0  0  0  0  0  0  0  0  0  0  0
  -20.0383   -6.0207   24.7658 C   0  0  0  0  0  0  0  0  0  0  0  0
  -28.2328  -15.6762   24.7078 C   0  0  0  0  0  0  0  0  0  0  0  0
  -23.8732  -10.4600   20.9962 C   0  0  0  0  0  0  0  0  0  0  0  0
  -24.1465  -12.9882   20.7922 C   0  0  0  0  0  0  0  0  0  0  0  0
  -27.9069  -25.8724   15.0718 C   0  0  0  0  0  0  0  0  0  0  0  0
  -25.9417  -20.0825   19.1334 C   0  0  0  0  0  0  0  0  0  0  0  0
  -28.1393  -24.7175   15.8428 C   0  0  0  0  0  0  0  0  0  0  0  0
  -25.9994  -20.3093   20.5159 C   0  0  0  0  0  0  0  0  0  0  0  0
  -22.4074   -8.1238   21.4158 C   0  0  0  0  0  0  0  0  0  0  0  0
  -27.2126  -18.2212   20.7954 C   0  0  0  0  0  0  0  0  0  0  0  0
  -20.7957   -6.9680   22.6763 C   0  0  0  0  0  0  0  0  0  0  0  0
  -18.9891   -6.9393   24.8019 C   0  0  0  0  0  0  0  0  0  0  0  0
  -20.9416   -6.0351   23.7030 C   0  0  0  0  0  0  0  0  0  0  0  0
  -24.6309  -11.6664   20.7801 C   0  0  0  0  0  0  0  0  0  0  0  0
  -28.6171  -16.5320   23.7144 C   0  0  0  0  0  0  0  0  0  0  0  0
  -25.2523  -13.7615   20.5364 C   0  0  0  0  0  0  0  0  0  0  0  0
  -30.3404  -15.2297   24.1989 C   0  0  0  0  0  0  0  0  0  0  0  0
  -22.8158  -13.4735   21.0149 C   0  0  0  0  0  0  0  0  0  0  0  0
  -26.4582  -23.1967   18.7607 C   0  0  0  0  0  0  0  0  0  0  0  0
  -23.8377  -23.4615   20.6542 C   0  0  0  0  0  0  0  0  0  0  0  0
  -21.8142  -22.0532   23.0141 C   0  0  0  0  0  0  0  0  0  0  0  0
  -31.1180  -12.8886   21.3625 C   0  0  0  0  0  0  0  0  0  0  0  0
  -27.4330  -27.1609   15.6960 C   0  0  0  0  0  0  0  0  0  0  0  0
  -25.2357  -21.0565   18.2304 C   0  0  0  0  0  0  0  0  0  0  0  0
  -25.3941  -21.5371   21.1440 C   0  0  0  0  0  0  0  0  0  0  0  0
  -26.8276  -26.9780   17.0854 C   0  0  0  0  0  0  0  0  0  0  0  0
  -29.4755  -13.6301   18.2918 C   0  0  0  0  0  0  0  0  0  0  0  0
  -27.7171  -26.0822   17.9416 C   0  0  0  0  0  0  0  0  0  0  0  0
  -28.0040  -13.3301   18.5824 C   0  0  0  0  0  0  0  0  0  0  0  0
  -30.4030  -12.6472   19.0031 C   0  0  0  0  0  0  0  0  0  0  0  0
  -28.7127  -12.2309   20.7476 C   0  0  0  0  0  0  0  0  0  0  0  0
  -27.8458  -24.6832   17.3270 C   0  0  1  0  0  0  0  0  0  0  0  0
  -25.1490  -22.4615   18.8185 C   0  0  1  0  0  0  0  0  0  0  0  0
  -27.7406  -13.2299   20.0970 C   0  0  2  0  0  0  0  0  0  0  0  0
  -28.2811  -12.7751   25.7372 C   0  0  0  0  0  0  0  0  0  0  0  0
  -19.7730  -22.5264   24.3950 C   0  0  0  0  0  0  0  0  0  0  0  0
  -32.5017  -14.7087   25.5232 C   0  0  0  0  0  0  0  0  0  0  0  0
  -32.6071  -15.3500   23.1288 C   0  0  0  0  0  0  0  0  0  0  0  0
  -25.4923  -25.2627   22.4785 C   0  0  0  0  0  0  0  0  0  0  0  0
  -23.7669  -24.9249   24.2609 C   0  0  0  0  0  0  0  0  0  0  0  0
  -23.1394  -26.0272   22.1129 C   0  0  0  0  0  0  0  0  0  0  0  0
  -20.3346  -19.7891   21.8128 C   0  0  0  0  0  0  0  0  0  0  0  0
  -27.8713  -17.6206   23.0002 C   0  0  0  0  0  0  0  0  0  1  0  0
  -29.3464  -13.8294   25.9841 C   0  0  0  0  0  0  0  0  0  0  0  0
  -31.6792  -13.1047   23.7703 C   0  0  0  0  0  0  0  0  0  0  0  0
  -23.5978  -23.5411   22.1426 C   0  0  1  0  0  0  0  0  0  0  0  0
  -20.3038  -21.9286   23.1013 C   0  0  2  0  0  0  0  0  0  0  0  0
  -31.6957  -14.6252   24.1764 C   0  0  0  0  0  0  0  0  0  0  0  0
  -24.0123  -24.9167   22.7370 C   0  0  0  0  0  0  0  0  0  0  0  0
  -25.9423  -11.6001   20.5357 N   0  0  0  0  0  0  0  0  0  0  0  0
  -29.3184  -14.8816   24.9874 N   0  0  0  0  0  0  0  0  0  0  0  0
  -26.2914  -12.8899   20.3918 N   0  0  0  0  0  0  0  0  0  0  0  0
  -29.9255  -16.2335   23.4194 N   0  3  0  0  0  0  0  0  0  0  0  0
  -24.7201  -22.4628   20.2186 N   0  0  0  0  0  0  0  0  0  0  0  0
  -30.1023  -12.6006   20.4360 N   0  0  0  0  0  0  0  0  0  0  0  0
  -25.4276  -15.0953   20.4231 N   0  0  0  0  0  0  0  0  0  0  0  0
  -21.7980  -12.5426   21.2637 N   0  0  0  0  0  0  0  0  0  0  0  0
  -26.6549  -23.9041   17.5901 N   0  0  0  0  0  0  0  0  0  0  0  0
  -22.1945  -23.1994   22.3487 N   0  0  0  0  0  0  0  0  0  0  0  0
  -30.7470  -12.8280   22.7001 N   0  0  0  0  0  0  0  0  0  0  0  0
  -19.8982  -20.4957   23.0446 N   0  3  0  0  0  0  0  0  0  0  0  0
  -22.5346  -14.6954   20.9776 O   0  0  0  0  0  0  0  0  0  0  0  0
  -27.2318  -23.1285   19.7086 O   0  0  0  0  0  0  0  0  0  0  0  0
  -23.2579  -24.2517   19.9052 O   0  0  0  0  0  0  0  0  0  0  0  0
  -22.5801  -21.2192   23.4920 O   0  0  0  0  0  0  0  0  0  0  0  0
  -32.2689  -13.1834   21.0226 O   0  0  0  0  0  0  0  0  0  0  0  0
  -21.6921   -6.9842   21.6209 O   0  0  0  0  0  0  0  0  0  0  0  0
  -27.8334  -17.3211   21.6055 O   0  0  0  0  0  0  0  0  0  1  0  0
  -18.1225   -6.9265   25.8232 F   0  0  0  0  0  0  0  0  0  0  0  0
  -21.9481   -5.1509   23.6743 F   0  0  0  0  0  0  0  0  0  0  0  0
  1  2  1  0  0  0  0
  1  5  2  0  0  0  0
  2  6  2  0  0  0  0
  3  8  2  0  0  0  0
  3 16  1  0  0  0  0
  4  9  1  0  0  0  0
  4 16  2  0  0  0  0
  5 18  1  0  0  0  0
  6 20  1  0  0  0  0
  7 10  2  0  0  0  0
  7 19  1  0  0  0  0
  8 22  1  0  0  0  0
  9 22  2  0  0  0  0
 10 23  1  0  0  0  0
 11 12  2  0  0  0  0
 11 24  1  0  0  0  0
 12 25  1  0  0  0  0
 13 21  1  0  0  0  0
 13 23  2  0  0  0  0
 14 25  2  0  0  0  0
 14 26  1  0  0  0  0
 15 28  2  0  0  0  0
 15 64  1  0  0  0  0
 16 27  1  0  0  0  0
 17 27  1  0  0  0  0
 17 29  2  0  0  0  0
 17 31  1  0  0  0  0
 18 20  2  0  0  0  0
 18 36  1  0  0  0  0
 19 21  2  0  0  0  0
 19 37  1  0  0  0  0
 20 45  1  0  0  0  0
 21 38  1  0  0  0  0
 22 80  1  0  0  0  0
 23 81  1  0  0  0  0
 24 26  2  0  0  0  0
 24 80  1  0  0  0  0
 25 82  1  0  0  0  0
 26 83  1  0  0  0  0
 27 63  2  0  0  0  0
 28 56  1  0  0  0  0
 28 66  1  0  0  0  0
 29 65  1  0  0  0  0
 29 69  1  0  0  0  0
 30 61  1  0  0  0  0
 30 64  1  0  0  0  0
 30 66  2  0  0  0  0
 31 70  1  0  0  0  0
 31 75  2  0  0  0  0
 32 46  1  0  0  0  0
 32 71  1  0  0  0  0
 32 76  2  0  0  0  0
 33 59  1  0  0  0  0
 33 67  1  0  0  0  0
 33 77  2  0  0  0  0
 34 60  1  0  0  0  0
 34 72  1  0  0  0  0
 34 78  2  0  0  0  0
 35 68  1  0  0  0  0
 35 73  1  0  0  0  0
 35 79  2  0  0  0  0
 36 39  1  0  0  0  0
 37 46  1  0  0  0  0
 38 67  1  0  0  0  0
 39 41  1  0  0  0  0
 40 42  1  0  0  0  0
 40 43  1  0  0  0  0
 41 45  1  0  0  0  0
 42 47  1  0  0  0  0
 43 68  1  0  0  0  0
 44 47  1  0  0  0  0
 44 68  1  0  0  0  0
 45 71  1  0  0  0  0
 46 67  1  0  0  0  0
 47 65  1  0  0  0  0
 48 57  1  0  0  0  0
 49 60  1  0  0  0  0
 50 61  1  0  0  0  0
 51 61  1  0  0  0  0
 52 62  1  0  0  0  0
 53 62  1  0  0  0  0
 54 62  1  0  0  0  0
 55 74  1  0  0  0  0
 56 81  1  0  0  0  0
 57 64  1  0  0  0  0
 58 61  1  0  0  0  0
 58 73  1  0  0  0  0
 59 62  1  0  0  0  0
 59 72  1  0  0  0  0
 60 74  1  0  0  0  0
 63 65  1  0  0  0  0
M  CHG  2  66   1  74   1
M  ISO  4  35 100  56 101  73 100  81 101
M  END
> <Batch ID>
0059

> <Smiles>
CCn1cc([101CH2:1][101O:1]c2ccc3c(c2)CN(C(=O)C(NC(=O)C(C)NC)C(C)(C)C)C(C(=O)NC2CCCc4ccccc42)C3)nc1C(C)(C)C[100NH:0][100C:0](=O)N1CCCC(n2nc(-c3ccc(Oc4ccc(F)cc4F)cc3)c(C(N)=O)c2N)C1

> <Shape>
0.162

> <Color>
0.171

> <Negative vol penalty>
0.000

$$$$

  -OEChem-04052317533D

 81 89  0     1  0  0  0  0  0999 V2000
  -20.3825  -31.3830   22.1656 C   0  0  0  0  0  0  0  0  0  0  0  0
  -21.6375  -30.7837   22.1319 C   0  0  0  0  0  0  0  0  0  0  0  0
  -26.0995  -12.9497   21.6973 C   0  0  0  0  0  0  0  0  0  0  0  0
  -26.1199  -12.6436   19.3009 C   0  0  0  0  0  0  0  0  0  0  0  0
  -19.2416  -30.5997   22.3357 C   0  0  0  0  0  0  0  0  0  0  0  0
  -21.7525  -29.4008   22.2693 C   0  0  0  0  0  0  0  0  0  0  0  0
  -24.9626  -27.3756   18.9169 C   0  0  0  0  0  0  0  0  0  0  0  0
  -24.9848  -12.1168   21.7943 C   0  0  0  0  0  0  0  0  0  0  0  0
  -25.0052  -11.8107   19.3978 C   0  0  0  0  0  0  0  0  0  0  0  0
  -26.3253  -27.5078   19.1801 C   0  0  0  0  0  0  0  0  0  0  0  0
  -21.9474   -9.8922   18.9740 C   0  0  0  0  0  0  0  0  0  0  0  0
  -20.9126  -10.0849   18.0588 C   0  0  0  0  0  0  0  0  0  0  0  0
  -26.3734  -25.2517   20.0325 C   0  0  0  0  0  0  0  0  0  0  0  0
  -20.6270  -12.3470   18.8579 C   0  0  0  0  0  0  0  0  0  0  0  0
  -30.2011  -25.0660   17.3213 C   0  0  0  0  0  0  0  0  0  0  0  0
  -31.1479  -24.4433   19.2114 C   0  0  0  0  0  0  0  0  0  0  0  0
  -26.6670  -13.2131   20.4506 C   0  0  0  0  0  0  0  0  0  0  0  0
  -29.1721  -13.6931   20.4097 C   0  0  0  0  0  0  0  0  0  0  0  0
  -19.3419  -29.2056   22.4656 C   0  0  0  0  0  0  0  0  0  0  0  0
  -24.2916  -26.1822   19.2201 C   0  0  0  0  0  0  0  0  0  0  0  0
  -20.6120  -28.5983   22.4426 C   0  0  0  0  0  0  0  0  0  0  0  0
  -25.0027  -25.1060   19.7698 C   0  0  0  0  0  0  0  0  0  0  0  0
  -24.4377  -11.5473   20.6445 C   0  0  0  0  0  0  0  0  0  0  0  0
  -27.0303  -26.4468   19.7407 C   0  0  0  0  0  0  0  0  0  0  0  0
  -22.3220  -10.9269   19.8313 C   0  0  0  0  0  0  0  0  0  0  0  0
  -20.2524  -11.3122   18.0007 C   0  0  0  0  0  0  0  0  0  0  0  0
  -21.6619  -12.1543   19.7732 C   0  0  0  0  0  0  0  0  0  0  0  0
  -27.8182  -14.0738   20.3498 C   0  0  0  0  0  0  0  0  0  0  0  0
  -30.4854  -23.7208   17.3221 C   0  0  0  0  0  0  0  0  0  0  0  0
  -29.8663  -14.8694   20.2645 C   0  0  0  0  0  0  0  0  0  0  0  0
  -29.7507  -12.3925   20.5812 C   0  0  0  0  0  0  0  0  0  0  0  0
  -21.8984  -25.3833   21.1535 C   0  0  0  0  0  0  0  0  0  0  0  0
  -22.2059  -22.4980   19.7035 C   0  0  0  0  0  0  0  0  0  0  0  0
  -24.1921  -20.3112   17.9948 C   0  0  0  0  0  0  0  0  0  0  0  0
  -28.4586  -19.9697   17.6453 C   0  0  0  0  0  0  0  0  0  0  0  0
  -18.0841  -28.4055   22.6947 C   0  0  0  0  0  0  0  0  0  0  0  0
  -22.8271  -26.0463   18.9054 C   0  0  0  0  0  0  0  0  0  0  0  0
  -24.3332  -23.7966   20.0951 C   0  0  0  0  0  0  0  0  0  0  0  0
  -18.2630  -26.9082   22.4575 C   0  0  0  0  0  0  0  0  0  0  0  0
  -29.4868  -19.5682   21.0919 C   0  0  0  0  0  0  0  0  0  0  0  0
  -19.5332  -26.4078   23.1380 C   0  0  0  0  0  0  0  0  0  0  0  0
  -29.3001  -18.0631   21.2916 C   0  0  0  0  0  0  0  0  0  0  0  0
  -28.3887  -20.1487   20.2057 C   0  0  0  0  0  0  0  0  0  0  0  0
  -28.0682  -17.9828   19.0744 C   0  0  0  0  0  0  0  0  0  0  0  0
  -20.7757  -27.0987   22.5634 C   0  0  1  0  0  0  0  0  0  0  0  0
  -22.1366  -24.9645   19.7303 C   0  0  1  0  0  0  0  0  0  0  0  0
  -29.1598  -17.3320   19.9433 C   0  0  2  0  0  0  0  0  0  0  0  0
  -24.1762  -18.0170   16.9779 C   0  0  0  0  0  0  0  0  0  0  0  0
  -31.3909  -27.8861   18.1755 C   0  0  0  0  0  0  0  0  0  0  0  0
  -22.4470  -21.2662   22.4846 C   0  0  0  0  0  0  0  0  0  0  0  0
  -23.3612  -19.1966   21.4125 C   0  0  0  0  0  0  0  0  0  0  0  0
  -21.0451  -19.9555   20.8811 C   0  0  0  0  0  0  0  0  0  0  0  0
  -24.7264  -21.3810   15.2876 C   0  0  0  0  0  0  0  0  0  0  0  0
  -30.2332  -22.7365   16.2586 C   0  0  0  0  0  0  0  0  0  0  0  0
  -28.8576  -22.0458   16.3462 C   0  0  0  0  0  0  0  0  0  0  0  0
  -29.1071  -27.4438   19.1501 C   0  0  0  0  0  0  0  0  0  1  0  0
  -23.0143  -21.2503   19.9659 C   0  0  1  0  0  0  0  0  0  0  0  0
  -23.9466  -19.5006   16.7349 C   0  0  2  0  0  0  0  0  0  0  0  0
  -30.5552  -26.9456   19.0483 C   0  0  1  0  0  0  0  0  0  0  0  0
  -22.4794  -20.4424   21.1818 C   0  0  0  0  0  0  0  0  0  0  0  0
  -31.0744  -23.3393   18.5016 N   0  0  0  0  0  0  0  0  0  0  0  0
  -27.6594  -15.3891   20.1799 N   0  0  0  0  0  0  0  0  0  0  0  0
  -30.6307  -25.5151   18.5382 N   0  0  0  0  0  0  0  0  0  0  0  0
  -28.9227  -15.8452   20.1319 N   0  0  0  0  0  0  0  0  0  0  0  0
  -22.8986  -23.7149   19.7747 N   0  0  0  0  0  0  0  0  0  0  0  0
  -28.3202  -19.4206   18.9309 N   0  0  0  0  0  0  0  0  0  0  0  0
  -31.1857  -15.1539   20.2387 N   0  0  0  0  0  0  0  0  0  0  0  0
  -28.8930  -11.2922   20.7152 N   0  0  0  0  0  0  0  0  0  0  0  0
  -21.1276  -26.5229   21.2831 N   0  0  0  0  0  0  0  0  0  0  0  0
  -23.0307  -20.5035   18.7127 N   0  0  0  0  0  0  0  0  0  0  0  0
  -28.6882  -21.3393   17.5964 N   0  0  0  0  0  0  0  0  0  0  0  0
  -24.8617  -19.9457   15.6461 N   0  3  0  0  0  0  0  0  0  0  0  0
  -30.9912  -12.2136   20.6311 O   0  0  0  0  0  0  0  0  0  0  0  0
  -22.3771  -24.7207   22.0664 O   0  0  0  0  0  0  0  0  0  0  0  0
  -21.0056  -22.3960   19.4378 O   0  0  0  0  0  0  0  0  0  0  0  0
  -25.3036  -20.7286   18.3123 O   0  0  0  0  0  0  0  0  0  0  0  0
  -28.3881  -19.2887   16.6165 O   0  0  0  0  0  0  0  0  0  0  0  0
  -23.3501  -10.7343   20.7388 O   0  0  0  0  0  0  0  0  0  0  0  0
  -28.3604  -26.5734   19.9992 O   0  0  0  0  0  0  0  0  0  1  0  0
  -19.2598  -11.4976   17.1208 F   0  0  0  0  0  0  0  0  0  0  0  0
  -22.0181  -13.1524   20.5933 F   0  0  0  0  0  0  0  0  0  0  0  0
  1  2  1  0  0  0  0
  1  5  2  0  0  0  0
  2  6  2  0  0  0  0
  3  8  2  0  0  0  0
  3 17  1  0  0  0  0
  4  9  1  0  0  0  0
  4 17  2  0  0  0  0
  5 19  1  0  0  0  0
  6 21  1  0  0  0  0
  7 10  2  0  0  0  0
  7 20  1  0  0  0  0
  8 23  1  0  0  0  0
  9 23  2  0  0  0  0
 10 24  1  0  0  0  0
 11 12  2  0  0  0  0
 11 25  1  0  0  0  0
 12 26  1  0  0  0  0
 13 22  1  0  0  0  0
 13 24  2  0  0  0  0
 14 26  2  0  0  0  0
 14 27  1  0  0  0  0
 15 29  2  0  0  0  0
 15 63  1  0  0  0  0
 16 61  2  0  0  0  0
 16 63  1  0  0  0  0
 17 28  1  0  0  0  0
 18 28  1  0  0  0  0
 18 30  2  0  0  0  0
 18 31  1  0  0  0  0
 19 21  2  0  0  0  0
 19 36  1  0  0  0  0
 20 22  2  0  0  0  0
 20 37  1  0  0  0  0
 21 45  1  0  0  0  0
 22 38  1  0  0  0  0
 23 78  1  0  0  0  0
 24 79  1  0  0  0  0
 25 27  2  0  0  0  0
 25 78  1  0  0  0  0
 26 80  1  0  0  0  0
 27 81  1  0  0  0  0
 28 62  2  0  0  0  0
 29 54  1  0  0  0  0
 29 61  1  0  0  0  0
 30 64  1  0  0  0  0
 30 67  1  0  0  0  0
 31 68  1  0  0  0  0
 31 73  2  0  0  0  0
 32 46  1  0  0  0  0
 32 69  1  0  0  0  0
 32 74  2  0  0  0  0
 33 57  1  0  0  0  0
 33 65  1  0  0  0  0
 33 75  2  0  0  0  0
 34 58  1  0  0  0  0
 34 70  1  0  0  0  0
 34 76  2  0  0  0  0
 35 66  1  0  0  0  0
 35 71  1  0  0  0  0
 35 77  2  0  0  0  0
 36 39  1  0  0  0  0
 37 46  1  0  0  0  0
 38 65  1  0  0  0  0
 39 41  1  0  0  0  0
 40 42  1  0  0  0  0
 40 43  1  0  0  0  0
 41 45  1  0  0  0  0
 42 47  1  0  0  0  0
 43 66  1  0  0  0  0
 44 47  1  0  0  0  0
 44 66  1  0  0  0  0
 45 69  1  0  0  0  0
 46 65  1  0  0  0  0
 47 64  1  0  0  0  0
 48 58  1  0  0  0  0
 49 59  1  0  0  0  0
 50 60  1  0  0  0  0
 51 60  1  0  0  0  0
 52 60  1  0  0  0  0
 53 72  1  0  0  0  0
 54 55  1  0  0  0  0
 55 71  1  0  0  0  0
 56 59  1  0  0  0  0
 56 79  1  0  0  0  0
 57 60  1  0  0  0  0
 57 70  1  0  0  0  0
 58 72  1  0  0  0  0
 59 63  1  0  0  0  0
 62 64  1  0  0  0  0
M  CHG  1  72   1
M  ISO  4  35 100  56 101  71 100  79 101
M  END
> <Batch ID>
0059

> <Smiles>
CNC(C)C(=O)NC(C(=O)N1Cc2cc([101O:1][101CH2:1]C(C)n3cnc(CC[100NH:0][100C:0](=O)N4CCCC(n5nc(-c6ccc(Oc7ccc(F)cc7F)cc6)c(C(N)=O)c5N)C4)c3)ccc2CC1C(=O)NC1CCCc2ccccc21)C(C)(C)C

> <Shape>
0.254

> <Color>
0.064

> <Negative vol penalty>
0.000

$$$$

  -OEChem-04052317533D

 82 90  0     1  0  0  0  0  0999 V2000
  -17.4008  -30.8741   23.9032 C   0  0  0  0  0  0  0  0  0  0  0  0
  -18.7429  -31.2209   23.7858 C   0  0  0  0  0  0  0  0  0  0  0  0
  -24.3862  -13.6870   19.3334 C   0  0  0  0  0  0  0  0  0  0  0  0
  -25.9877  -14.2871   21.0398 C   0  0  0  0  0  0  0  0  0  0  0  0
  -16.9953  -29.5649   23.6470 C   0  0  0  0  0  0  0  0  0  0  0  0
  -19.6806  -30.2584   23.4131 C   0  0  0  0  0  0  0  0  0  0  0  0
  -25.8164  -29.5530   19.7840 C   0  0  0  0  0  0  0  0  0  0  0  0
  -24.5864  -12.3368   19.6203 C   0  0  0  0  0  0  0  0  0  0  0  0
  -26.1879  -12.9368   21.3268 C   0  0  0  0  0  0  0  0  0  0  0  0
  -27.1044  -29.0411   19.9351 C   0  0  0  0  0  0  0  0  0  0  0  0
  -23.5933  -10.1152   21.9680 C   0  0  0  0  0  0  0  0  0  0  0  0
  -22.4656   -9.3018   22.0781 C   0  0  0  0  0  0  0  0  0  0  0  0
  -26.2770  -26.8298   19.4403 C   0  0  0  0  0  0  0  0  0  0  0  0
  -23.2777   -7.9300   20.2626 C   0  0  0  0  0  0  0  0  0  0  0  0
  -28.5040  -23.7450   20.4291 C   0  0  0  0  0  0  0  0  0  0  0  0
  -25.0869  -14.6622   20.0431 C   0  0  0  0  0  0  0  0  0  0  0  0
  -23.9347  -16.9198   20.3318 C   0  0  0  0  0  0  0  0  0  0  0  0
  -17.9270  -28.5882   23.2616 C   0  0  0  0  0  0  0  0  0  0  0  0
  -24.7453  -28.7040   19.4701 C   0  0  0  0  0  0  0  0  0  0  0  0
  -19.2874  -28.9347   23.1528 C   0  0  0  0  0  0  0  0  0  0  0  0
  -24.9768  -27.3338   19.2833 C   0  0  0  0  0  0  0  0  0  0  0  0
  -25.4872  -11.9617   20.6170 C   0  0  0  0  0  0  0  0  0  0  0  0
  -27.3343  -27.6789   19.7661 C   0  0  0  0  0  0  0  0  0  0  0  0
  -24.5632   -9.8361   21.0051 C   0  0  0  0  0  0  0  0  0  0  0  0
  -22.3078   -8.2092   21.2255 C   0  0  0  0  0  0  0  0  0  0  0  0
  -24.4054   -8.7435   20.1524 C   0  0  0  0  0  0  0  0  0  0  0  0
  -24.8810  -16.0572   19.7468 C   0  0  0  0  0  0  0  0  0  0  0  0
  -29.2665  -24.8879   20.3294 C   0  0  0  0  0  0  0  0  0  0  0  0
  -30.8661  -23.7207   19.1853 C   0  0  0  0  0  0  0  0  0  0  0  0
  -30.1039  -22.5777   19.2858 C   0  0  0  0  0  0  0  0  0  0  0  0
  -24.1428  -18.1281   19.7128 C   0  0  0  0  0  0  0  0  0  0  0  0
  -22.9553  -16.6528   21.3443 C   0  0  0  0  0  0  0  0  0  0  0  0
  -22.0328  -27.8879   20.9122 C   0  0  0  0  0  0  0  0  0  0  0  0
  -21.4735  -26.3297   18.1227 C   0  0  0  0  0  0  0  0  0  0  0  0
  -22.7484  -24.8650   15.3163 C   0  0  0  0  0  0  0  0  0  0  0  0
  -28.9010  -20.5597   17.0113 C   0  0  0  0  0  0  0  0  0  0  0  0
  -17.4483  -27.1751   23.0410 C   0  0  0  0  0  0  0  0  0  0  0  0
  -23.3666  -29.2759   19.2843 C   0  0  0  0  0  0  0  0  0  0  0  0
  -23.8647  -26.3831   18.9258 C   0  0  0  0  0  0  0  0  0  0  0  0
  -18.4494  -26.3035   22.2872 C   0  0  0  0  0  0  0  0  0  0  0  0
  -25.6829  -20.0079   15.5914 C   0  0  0  0  0  0  0  0  0  0  0  0
  -19.8497  -26.4755   22.8671 C   0  0  0  0  0  0  0  0  0  0  0  0
  -25.0271  -19.0106   16.5482 C   0  0  0  0  0  0  0  0  0  0  0  0
  -27.1776  -19.7384   15.4328 C   0  0  0  0  0  0  0  0  0  0  0  0
  -27.2772  -18.6766   17.6546 C   0  0  0  0  0  0  0  0  0  0  0  0
  -20.3308  -27.9247   22.7268 C   0  0  1  0  0  0  0  0  0  0  0  0
  -22.2607  -28.2416   19.4698 C   0  0  1  0  0  0  0  0  0  0  0  0
  -25.7805  -18.9425   17.8902 C   0  0  2  0  0  0  0  0  0  0  0  0
  -32.9923  -24.9828   18.7693 C   0  0  0  0  0  0  0  0  0  0  0  0
  -29.7468  -26.7411   21.9658 C   0  0  0  0  0  0  0  0  0  0  0  0
  -22.0466  -23.6439   13.2393 C   0  0  0  0  0  0  0  0  0  0  0  0
  -20.9764  -23.8123   19.7736 C   0  0  0  0  0  0  0  0  0  0  0  0
  -21.2252  -22.4707   17.6744 C   0  0  0  0  0  0  0  0  0  0  0  0
  -19.3858  -24.1440   17.8724 C   0  0  0  0  0  0  0  0  0  0  0  0
  -23.9044  -26.9487   13.5611 C   0  0  0  0  0  0  0  0  0  0  0  0
  -32.1857  -23.7164   18.4922 C   0  0  0  0  0  0  0  0  0  0  0  0
  -30.5633  -21.2836   18.7060 C   0  0  0  0  0  0  0  0  0  0  0  0
  -28.7801  -26.1888   20.9260 C   0  0  1  0  0  0  0  0  0  1  0  0
  -21.7669  -24.9467   17.5932 C   0  0  1  0  0  0  0  0  0  0  0  0
  -22.3725  -24.9973   13.8515 C   0  0  2  0  0  0  0  0  0  0  0  0
  -20.8594  -23.8608   18.2371 C   0  0  0  0  0  0  0  0  0  0  0  0
  -28.9090  -22.5694   19.9092 N   0  0  0  0  0  0  0  0  0  0  0  0
  -25.6340  -16.6657   18.8267 N   0  0  0  0  0  0  0  0  0  0  0  0
  -30.4612  -24.8962   19.7057 N   0  0  0  0  0  0  0  0  0  0  0  0
  -25.1611  -17.9236   18.8288 N   0  0  0  0  0  0  0  0  0  0  0  0
  -22.5332  -26.9895   18.7611 N   0  0  0  0  0  0  0  0  0  0  0  0
  -27.8334  -19.6876   16.7417 N   0  0  0  0  0  0  0  0  0  0  0  0
  -23.5521  -19.3349   19.8437 N   0  0  0  0  0  0  0  0  0  0  0  0
  -22.8767  -15.3571   21.8727 N   0  0  0  0  0  0  0  0  0  0  0  0
  -20.7633  -28.1847   21.3704 N   0  0  0  0  0  0  0  0  0  0  0  0
  -21.6564  -25.0337   16.1411 N   0  0  0  0  0  0  0  0  0  0  0  0
  -29.4619  -20.4504   18.2779 N   0  0  0  0  0  0  0  0  0  0  0  0
  -23.4951  -25.6035   13.0814 N   0  3  0  0  0  0  0  0  0  0  0  0
  -22.1620  -17.5329   21.7561 O   0  0  0  0  0  0  0  0  0  0  0  0
  -22.9409  -27.3819   21.5610 O   0  0  0  0  0  0  0  0  0  0  0  0
  -20.3477  -26.8098   17.9690 O   0  0  0  0  0  0  0  0  0  0  0  0
  -23.8953  -24.6313   15.6911 O   0  0  0  0  0  0  0  0  0  0  0  0
  -29.3196  -21.3790   16.1864 O   0  0  0  0  0  0  0  0  0  0  0  0
  -25.6826  -10.6442   20.8975 O   0  0  0  0  0  0  0  0  0  0  0  0
  -28.5904  -27.1765   19.9136 O   0  0  0  0  0  0  0  0  0  1  0  0
  -21.2255   -7.4272   21.3324 F   0  0  0  0  0  0  0  0  0  0  0  0
  -25.3344   -8.4697   19.2262 F   0  0  0  0  0  0  0  0  0  0  0  0
  1  2  1  0  0  0  0
  1  5  2  0  0  0  0
  2  6  2  0  0  0  0
  3  8  2  0  0  0  0
  3 16  1  0  0  0  0
  4  9  1  0  0  0  0
  4 16  2  0  0  0  0
  5 18  1  0  0  0  0
  6 20  1  0  0  0  0
  7 10  2  0  0  0  0
  7 19  1  0  0  0  0
  8 22  1  0  0  0  0
  9 22  2  0  0  0  0
 10 23  1  0  0  0  0
 11 12  2  0  0  0  0
 11 24  1  0  0  0  0
 12 25  1  0  0  0  0
 13 21  1  0  0  0  0
 13 23  2  0  0  0  0
 14 25  2  0  0  0  0
 14 26  1  0  0  0  0
 15 28  1  0  0  0  0
 15 62  2  0  0  0  0
 16 27  1  0  0  0  0
 17 27  1  0  0  0  0
 17 31  2  0  0  0  0
 17 32  1  0  0  0  0
 18 20  2  0  0  0  0
 18 37  1  0  0  0  0
 19 21  2  0  0  0  0
 19 38  1  0  0  0  0
 20 46  1  0  0  0  0
 21 39  1  0  0  0  0
 22 79  1  0  0  0  0
 23 80  1  0  0  0  0
 24 26  2  0  0  0  0
 24 79  1  0  0  0  0
 25 81  1  0  0  0  0
 26 82  1  0  0  0  0
 27 63  2  0  0  0  0
 28 58  1  0  0  0  0
 28 64  2  0  0  0  0
 29 30  2  0  0  0  0
 29 56  1  0  0  0  0
 29 64  1  0  0  0  0
 30 57  1  0  0  0  0
 30 62  1  0  0  0  0
 31 65  1  0  0  0  0
 31 68  1  0  0  0  0
 32 69  1  0  0  0  0
 32 74  2  0  0  0  0
 33 47  1  0  0  0  0
 33 70  1  0  0  0  0
 33 75  2  0  0  0  0
 34 59  1  0  0  0  0
 34 66  1  0  0  0  0
 34 76  2  0  0  0  0
 35 60  1  0  0  0  0
 35 71  1  0  0  0  0
 35 77  2  0  0  0  0
 36 67  1  0  0  0  0
 36 72  1  0  0  0  0
 36 78  2  0  0  0  0
 37 40  1  0  0  0  0
 38 47  1  0  0  0  0
 39 66  1  0  0  0  0
 40 42  1  0  0  0  0
 41 43  1  0  0  0  0
 41 44  1  0  0  0  0
 42 46  1  0  0  0  0
 43 48  1  0  0  0  0
 44 67  1  0  0  0  0
 45 48  1  0  0  0  0
 45 67  1  0  0  0  0
 46 70  1  0  0  0  0
 47 66  1  0  0  0  0
 48 65  1  0  0  0  0
 49 56  1  0  0  0  0
 50 58  1  0  0  0  0
 51 60  1  0  0  0  0
 52 61  1  0  0  0  0
 53 61  1  0  0  0  0
 54 61  1  0  0  0  0
 55 73  1  0  0  0  0
 57 72  1  0  0  0  0
 58 80  1  0  0  0  0
 59 61  1  0  0  0  0
 59 71  1  0  0  0  0
 60 73  1  0  0  0  0
 63 65  1  0  0  0  0
M  CHG  1  73   1
M  ISO  4  36 100  58 101  72 100  80 101
M  END
> <Batch ID>
0059

> <Smiles>
CCc1nc([101CH:1](C)[101O:1]c2ccc3c(c2)CN(C(=O)C(NC(=O)C(C)NC)C(C)(C)C)C(C(=O)NC2CCCc4ccccc42)C3)cnc1C[100NH:0][100C:0](=O)N1CCCC(n2nc(-c3ccc(Oc4ccc(F)cc4F)cc3)c(C(N)=O)c2N)C1

> <Shape>
0.229

> <Color>
0.111

> <Negative vol penalty>
0.000

$$$$

  -OEChem-04052317533D

 84 92  0     1  0  0  0  0  0999 V2000
  -29.0420  -37.2625   19.5913 C   0  0  0  0  0  0  0  0  0  0  0  0
  -29.3027  -35.9125   19.3788 C   0  0  0  0  0  0  0  0  0  0  0  0
  -26.6637  -12.6618   20.7615 C   0  0  0  0  0  0  0  0  0  0  0  0
  -25.0820  -14.0972   19.6324 C   0  0  0  0  0  0  0  0  0  0  0  0
  -28.2302  -37.6556   20.6545 C   0  0  0  0  0  0  0  0  0  0  0  0
  -28.7526  -34.9549   20.2302 C   0  0  0  0  0  0  0  0  0  0  0  0
  -26.8581  -29.3325   18.7119 C   0  0  0  0  0  0  0  0  0  0  0  0
  -25.8936  -11.5486   20.4252 C   0  0  0  0  0  0  0  0  0  0  0  0
  -24.3119  -12.9839   19.2960 C   0  0  0  0  0  0  0  0  0  0  0  0
  -27.4604  -28.0795   18.8170 C   0  0  0  0  0  0  0  0  0  0  0  0
  -23.0691  -10.0508   21.5222 C   0  0  0  0  0  0  0  0  0  0  0  0
  -22.8318   -9.1031   22.5178 C   0  0  0  0  0  0  0  0  0  0  0  0
  -26.3080  -27.7071   20.9032 C   0  0  0  0  0  0  0  0  0  0  0  0
  -23.9174   -7.4164   21.1711 C   0  0  0  0  0  0  0  0  0  0  0  0
  -26.2579  -13.9362   20.3652 C   0  0  0  0  0  0  0  0  0  0  0  0
  -28.1013  -15.6532   19.9637 C   0  0  0  0  0  0  0  0  0  0  0  0
  -27.6620  -36.7017   21.5135 C   0  0  0  0  0  0  0  0  0  0  0  0
  -25.9832  -29.7875   19.7089 C   0  0  0  0  0  0  0  0  0  0  0  0
  -27.9335  -35.3357   21.3067 C   0  0  0  0  0  0  0  0  0  0  0  0
  -25.6939  -28.9652   20.8072 C   0  0  0  0  0  0  0  0  0  0  0  0
  -24.7177  -11.7095   19.6924 C   0  0  0  0  0  0  0  0  0  0  0  0
  -27.1877  -27.2678   19.9141 C   0  0  0  0  0  0  0  0  0  0  0  0
  -23.7305   -9.6812   20.3510 C   0  0  0  0  0  0  0  0  0  0  0  0
  -23.2560   -7.7859   22.3423 C   0  0  0  0  0  0  0  0  0  0  0  0
  -24.1547   -8.3641   20.1755 C   0  0  0  0  0  0  0  0  0  0  0  0
  -27.0527  -15.0866   20.7128 C   0  0  0  0  0  0  0  0  0  0  0  0
  -28.5268  -16.7182   20.7195 C   0  0  0  0  0  0  0  0  0  0  0  0
  -30.8990  -22.8870   19.6305 C   0  0  0  0  0  0  0  0  0  0  0  0
  -28.8003  -22.0926   19.6025 C   0  0  0  0  0  0  0  0  0  0  0  0
  -29.1780  -24.2768   19.2514 C   0  0  0  0  0  0  0  0  0  0  0  0
  -28.6423  -15.2527   18.6977 C   0  0  0  0  0  0  0  0  0  0  0  0
  -25.9730  -32.2337   21.7386 C   0  0  0  0  0  0  0  0  0  0  0  0
  -23.0006  -31.1380   22.4361 C   0  0  0  0  0  0  0  0  0  0  0  0
  -20.8128  -28.5189   22.4727 C   0  0  0  0  0  0  0  0  0  0  0  0
  -25.9218  -20.6851   24.2637 C   0  0  0  0  0  0  0  0  0  0  0  0
  -26.8294  -37.1776   22.6775 C   0  0  0  0  0  0  0  0  0  0  0  0
  -25.3209  -31.1305   19.5675 C   0  0  0  0  0  0  0  0  0  0  0  0
  -24.7462  -29.3987   21.8945 C   0  0  0  0  0  0  0  0  0  0  0  0
  -25.9808  -36.0773   23.3096 C   0  0  0  0  0  0  0  0  0  0  0  0
  -28.1689  -18.0030   25.4715 C   0  0  0  0  0  0  0  0  0  0  0  0
  -26.8142  -34.8182   23.5260 C   0  0  0  0  0  0  0  0  0  0  0  0
  -28.1421  -17.0015   24.3181 C   0  0  0  0  0  0  0  0  0  0  0  0
  -26.8761  -18.8091   25.5528 C   0  0  0  0  0  0  0  0  0  0  0  0
  -26.4886  -18.4969   23.1307 C   0  0  0  0  0  0  0  0  0  0  0  0
  -27.3349  -34.2656   22.1937 C   0  0  1  0  0  0  0  0  0  0  0  0
  -24.8451  -31.7052   20.8981 C   0  0  1  0  0  0  0  0  0  0  0  0
  -27.7949  -17.7008   22.9923 C   0  0  2  0  0  0  0  0  0  0  0  0
  -32.3639  -22.6587   19.7868 C   0  0  0  0  0  0  0  0  0  0  0  0
  -26.4415  -23.8937   23.8075 C   0  0  0  0  0  0  0  0  0  0  0  0
  -18.4677  -27.9202   23.1355 C   0  0  0  0  0  0  0  0  0  0  0  0
  -23.8477  -31.0743   25.3667 C   0  0  0  0  0  0  0  0  0  0  0  0
  -21.8700  -29.6121   25.8344 C   0  0  0  0  0  0  0  0  0  0  0  0
  -21.5306  -31.9269   24.9689 C   0  0  0  0  0  0  0  0  0  0  0  0
  -20.0844  -27.8105   19.6930 C   0  0  0  0  0  0  0  0  0  0  0  0
  -27.8503  -20.9503   19.7263 C   0  0  0  0  0  0  0  0  0  0  0  0
  -28.6596  -25.6563   18.9694 C   0  0  0  0  0  0  0  0  0  1  0  0
  -26.7470  -21.1490   20.7846 C   0  0  0  0  0  0  0  0  0  0  0  0
  -25.5762  -22.8486   23.1327 C   0  0  0  0  0  0  0  0  0  0  0  0
  -27.2666  -21.3057   22.2121 C   0  0  0  0  0  0  0  0  0  0  0  0
  -22.4310  -30.1438   23.4191 C   0  0  1  0  0  0  0  0  0  0  0  0
  -19.3710  -28.4044   22.0119 C   0  0  2  0  0  0  0  0  0  0  0  0
  -22.4392  -30.6816   24.8779 C   0  0  0  0  0  0  0  0  0  0  0  0
  -26.8260  -15.7376   21.8568 N   0  0  0  0  0  0  0  0  0  0  0  0
  -30.1043  -21.8117   19.7551 N   0  0  0  0  0  0  0  0  0  0  0  0
  -30.5083  -24.1470   19.3796 N   0  0  0  0  0  0  0  0  0  0  0  0
  -28.2645  -23.2976   19.3498 N   0  0  0  0  0  0  0  0  0  0  0  0
  -27.7381  -16.7243   21.8322 N   0  0  0  0  0  0  0  0  0  0  0  0
  -24.1285  -30.7229   21.7141 N   0  0  0  0  0  0  0  0  0  0  0  0
  -26.5472  -19.4274   24.2679 N   0  0  0  0  0  0  0  0  0  0  0  0
  -29.4950  -17.6405   20.5343 N   0  0  0  0  0  0  0  0  0  0  0  0
  -28.0877  -14.1363   18.0572 N   0  0  0  0  0  0  0  0  0  0  0  0
  -26.2838  -33.5578   21.4947 N   0  0  0  0  0  0  0  0  0  0  0  0
  -21.1065  -29.7896   22.9203 N   0  0  0  0  0  0  0  0  0  0  0  0
  -26.1919  -21.5300   23.1765 N   0  0  0  0  0  0  0  0  0  0  0  0
  -19.2646  -27.4446   20.8768 N   0  3  0  0  0  0  0  0  0  0  0  0
  -29.6004  -15.8568   18.1585 O   0  0  0  0  0  0  0  0  0  0  0  0
  -26.5197  -31.4952   22.5495 O   0  0  0  0  0  0  0  0  0  0  0  0
  -22.4602  -32.2395   22.3082 O   0  0  0  0  0  0  0  0  0  0  0  0
  -21.5989  -27.5746   22.4423 O   0  0  0  0  0  0  0  0  0  0  0  0
  -25.1727  -21.0366   25.1841 O   0  0  0  0  0  0  0  0  0  0  0  0
  -23.9661  -10.6234   19.3639 O   0  0  0  0  0  0  0  0  0  0  0  0
  -27.7747  -26.0446   20.0195 O   0  0  0  0  0  0  0  0  0  1  0  0
  -23.0294   -6.8764   23.2991 F   0  0  0  0  0  0  0  0  0  0  0  0
  -24.7916   -8.0034   19.0530 F   0  0  0  0  0  0  0  0  0  0  0  0
  1  2  1  0  0  0  0
  1  5  2  0  0  0  0
  2  6  2  0  0  0  0
  3  8  2  0  0  0  0
  3 15  1  0  0  0  0
  4  9  1  0  0  0  0
  4 15  2  0  0  0  0
  5 17  1  0  0  0  0
  6 19  1  0  0  0  0
  7 10  2  0  0  0  0
  7 18  1  0  0  0  0
  8 21  1  0  0  0  0
  9 21  2  0  0  0  0
 10 22  1  0  0  0  0
 11 12  2  0  0  0  0
 11 23  1  0  0  0  0
 12 24  1  0  0  0  0
 13 20  1  0  0  0  0
 13 22  2  0  0  0  0
 14 24  2  0  0  0  0
 14 25  1  0  0  0  0
 15 26  1  0  0  0  0
 16 26  1  0  0  0  0
 16 27  2  0  0  0  0
 16 31  1  0  0  0  0
 17 19  2  0  0  0  0
 17 36  1  0  0  0  0
 18 20  2  0  0  0  0
 18 37  1  0  0  0  0
 19 45  1  0  0  0  0
 20 38  1  0  0  0  0
 21 81  1  0  0  0  0
 22 82  1  0  0  0  0
 23 25  2  0  0  0  0
 23 81  1  0  0  0  0
 24 83  1  0  0  0  0
 25 84  1  0  0  0  0
 26 63  2  0  0  0  0
 27 67  1  0  0  0  0
 27 70  1  0  0  0  0
 28 48  1  0  0  0  0
 28 64  2  0  0  0  0
 28 65  1  0  0  0  0
 29 55  1  0  0  0  0
 29 64  1  0  0  0  0
 29 66  2  0  0  0  0
 30 56  1  0  0  0  0
 30 65  2  0  0  0  0
 30 66  1  0  0  0  0
 31 71  1  0  0  0  0
 31 76  2  0  0  0  0
 32 46  1  0  0  0  0
 32 72  1  0  0  0  0
 32 77  2  0  0  0  0
 33 60  1  0  0  0  0
 33 68  1  0  0  0  0
 33 78  2  0  0  0  0
 34 61  1  0  0  0  0
 34 73  1  0  0  0  0
 34 79  2  0  0  0  0
 35 69  1  0  0  0  0
 35 74  1  0  0  0  0
 35 80  2  0  0  0  0
 36 39  1  0  0  0  0
 37 46  1  0  0  0  0
 38 68  1  0  0  0  0
 39 41  1  0  0  0  0
 40 42  1  0  0  0  0
 40 43  1  0  0  0  0
 41 45  1  0  0  0  0
 42 47  1  0  0  0  0
 43 69  1  0  0  0  0
 44 47  1  0  0  0  0
 44 69  1  0  0  0  0
 45 72  1  0  0  0  0
 46 68  1  0  0  0  0
 47 67  1  0  0  0  0
 49 58  1  0  0  0  0
 50 61  1  0  0  0  0
 51 62  1  0  0  0  0
 52 62  1  0  0  0  0
 53 62  1  0  0  0  0
 54 75  1  0  0  0  0
 55 57  1  0  0  0  0
 56 82  1  0  0  0  0
 57 59  1  0  0  0  0
 58 74  1  0  0  0  0
 59 74  1  0  0  0  0
 60 62  1  0  0  0  0
 60 73  1  0  0  0  0
 61 75  1  0  0  0  0
 63 67  1  0  0  0  0
M  CHG  1  75   1
M  ISO  4  35 100  56 101  74 100  82 101
M  END
> <Batch ID>
0059

> <Smiles>
CC[100N:0](CCCc1nc(C)nc([101CH2:1][101O:1]c2ccc3c(c2)CN(C(=O)C(NC(=O)C(C)NC)C(C)(C)C)C(C(=O)NC2CCCc4ccccc42)C3)n1)[100C:0](=O)N1CCCC(n2nc(-c3ccc(Oc4ccc(F)cc4F)cc3)c(C(N)=O)c2N)C1

> <Shape>
0.260

> <Color>
0.096

> <Negative vol penalty>
0.000

$$$$

  -OEChem-04052317533D

 82 90  0     1  0  0  0  0  0999 V2000
  -16.6391  -26.8634   21.4268 C   0  0  0  0  0  0  0  0  0  0  0  0
  -17.8635  -26.7769   20.7719 C   0  0  0  0  0  0  0  0  0  0  0  0
  -28.3317  -12.5799   21.0684 C   0  0  0  0  0  0  0  0  0  0  0  0
  -26.3922  -13.7807   20.2724 C   0  0  0  0  0  0  0  0  0  0  0  0
  -16.5116  -27.6642   22.5610 C   0  0  0  0  0  0  0  0  0  0  0  0
  -18.9608  -27.4921   21.2503 C   0  0  0  0  0  0  0  0  0  0  0  0
  -23.1943  -24.7151   21.3539 C   0  0  0  0  0  0  0  0  0  0  0  0
  -27.6267  -11.3799   20.9758 C   0  0  0  0  0  0  0  0  0  0  0  0
  -25.6873  -12.5807   20.1796 C   0  0  0  0  0  0  0  0  0  0  0  0
  -23.8579  -24.5205   20.1433 C   0  0  0  0  0  0  0  0  0  0  0  0
  -24.0777  -10.4688   22.2725 C   0  0  0  0  0  0  0  0  0  0  0  0
  -22.7732  -10.4437   22.7658 C   0  0  0  0  0  0  0  0  0  0  0  0
  -29.4196  -22.0194   19.3073 C   0  0  0  0  0  0  0  0  0  0  0  0
  -25.4245  -26.2587   20.7297 C   0  0  0  0  0  0  0  0  0  0  0  0
  -21.9548   -9.8507   20.5713 C   0  0  0  0  0  0  0  0  0  0  0  0
  -29.4983  -21.7280   20.6472 C   0  0  0  0  0  0  0  0  0  0  0  0
  -27.7144  -13.7803   20.7168 C   0  0  0  0  0  0  0  0  0  0  0  0
  -29.2267  -15.6252   19.8128 C   0  0  0  0  0  0  0  0  0  0  0  0
  -17.6104  -28.3820   23.0591 C   0  0  0  0  0  0  0  0  0  0  0  0
  -23.6350  -25.6920   22.2582 C   0  0  0  0  0  0  0  0  0  0  0  0
  -18.8475  -28.3043   22.3914 C   0  0  0  0  0  0  0  0  0  0  0  0
  -24.7662  -26.4619   21.9522 C   0  0  0  0  0  0  0  0  0  0  0  0
  -26.3045  -11.3802   20.5313 C   0  0  0  0  0  0  0  0  0  0  0  0
  -24.9715  -25.2943   19.8298 C   0  0  0  0  0  0  0  0  0  0  0  0
  -24.3207  -10.1849   20.9286 C   0  0  0  0  0  0  0  0  0  0  0  0
  -21.7118  -10.1346   21.9152 C   0  0  0  0  0  0  0  0  0  0  0  0
  -23.2593   -9.8758   20.0780 C   0  0  0  0  0  0  0  0  0  0  0  0
  -28.4419  -15.0203   20.8129 C   0  0  0  0  0  0  0  0  0  0  0  0
  -28.1144  -22.5167   19.1315 C   0  0  0  0  0  0  0  0  0  0  0  0
  -29.6987  -16.7757   20.3958 C   0  0  0  0  0  0  0  0  0  0  0  0
  -29.5040  -15.1863   18.4764 C   0  0  0  0  0  0  0  0  0  0  0  0
  -22.3714  -28.3300   23.5024 C   0  0  0  0  0  0  0  0  0  0  0  0
  -25.0873  -28.3265   25.2761 C   0  0  0  0  0  0  0  0  0  0  0  0
  -28.3402  -27.3437   25.5918 C   0  0  0  0  0  0  0  0  0  0  0  0
  -27.3870  -19.8543   25.1621 C   0  0  0  0  0  0  0  0  0  0  0  0
  -17.4120  -29.2715   24.2608 C   0  0  0  0  0  0  0  0  0  0  0  0
  -22.9241  -25.8712   23.5716 C   0  0  0  0  0  0  0  0  0  0  0  0
  -25.2917  -27.5099   22.8977 C   0  0  0  0  0  0  0  0  0  0  0  0
  -18.7187  -29.7030   24.9216 C   0  0  0  0  0  0  0  0  0  0  0  0
  -30.8442  -18.6365   24.6456 C   0  0  0  0  0  0  0  0  0  0  0  0
  -19.7179  -30.1754   23.8703 C   0  0  0  0  0  0  0  0  0  0  0  0
  -30.6641  -17.5706   23.5660 C   0  0  0  0  0  0  0  0  0  0  0  0
  -29.5906  -18.7954   25.5005 C   0  0  0  0  0  0  0  0  0  0  0  0
  -28.1758  -17.9995   23.6353 C   0  0  0  0  0  0  0  0  0  0  0  0
  -20.0673  -29.0455   22.8942 C   0  0  1  0  0  0  0  0  0  0  0  0
  -23.1518  -27.2465   24.1914 C   0  0  1  0  0  0  0  0  0  0  0  0
  -29.4048  -17.8473   22.7265 C   0  0  2  0  0  0  0  0  0  0  0  0
  -30.3122  -27.5251   27.1332 C   0  0  0  0  0  0  0  0  0  0  0  0
  -25.5584  -31.1896   24.3326 C   0  0  0  0  0  0  0  0  0  0  0  0
  -27.9326  -30.9774   25.0982 C   0  0  0  0  0  0  0  0  0  0  0  0
  -26.0706  -30.7895   26.7475 C   0  0  0  0  0  0  0  0  0  0  0  0
  -25.5802  -21.4583   24.6699 C   0  0  0  0  0  0  0  0  0  0  0  0
  -28.4452  -24.4130   25.9907 C   0  0  0  0  0  0  0  0  0  0  0  0
  -27.4785  -22.9935   17.8501 C   0  0  0  0  0  0  0  0  0  0  0  0
  -27.6782  -24.4867   17.5817 C   0  0  0  0  0  0  0  0  0  0  0  0
  -27.8831  -21.9249   22.5526 C   0  0  0  0  0  0  0  0  0  0  0  0
  -27.0089  -20.6998   22.8073 C   0  0  0  0  0  0  0  0  0  0  0  0
  -27.0209  -25.3811   18.6264 C   0  0  0  0  0  0  0  0  0  1  0  0
  -26.4724  -28.9041   25.1117 C   0  0  1  0  0  0  0  0  0  0  0  0
  -29.0919  -26.7045   26.7454 C   0  0  2  0  0  0  0  0  0  0  0  0
  -26.4977  -30.4468   25.3036 C   0  0  0  0  0  0  0  0  0  0  0  0
  -28.4146  -15.7280   21.9453 N   0  0  0  0  0  0  0  0  0  0  0  0
  -27.4143  -22.5411   20.2687 N   0  0  0  0  0  0  0  0  0  0  0  0
  -28.2828  -22.0553   21.1720 N   0  0  0  0  0  0  0  0  0  0  0  0
  -29.1882  -16.7894   21.6605 N   0  0  0  0  0  0  0  0  0  0  0  0
  -24.5586  -27.6518   24.1666 N   0  0  0  0  0  0  0  0  0  0  0  0
  -28.4021  -19.0142   24.6755 N   0  0  0  0  0  0  0  0  0  0  0  0
  -30.4966  -17.7669   19.9449 N   0  0  0  0  0  0  0  0  0  0  0  0
  -28.9387  -13.9811   18.0380 N   0  0  0  0  0  0  0  0  0  0  0  0
  -21.0048  -28.1252   23.5012 N   0  0  0  0  0  0  0  0  0  0  0  0
  -27.3320  -28.1728   26.0361 N   0  0  0  0  0  0  0  0  0  0  0  0
  -26.6362  -20.5656   24.2139 N   0  0  0  0  0  0  0  0  0  0  0  0
  -29.5459  -25.3349   26.3724 N   0  3  0  0  0  0  0  0  0  0  0  0
  -30.2450  -15.8352   17.6995 O   0  0  0  0  0  0  0  0  0  0  0  0
  -22.9651  -29.2821   23.0098 O   0  0  0  0  0  0  0  0  0  0  0  0
  -24.4992  -28.4625   26.3519 O   0  0  0  0  0  0  0  0  0  0  0  0
  -28.6218  -27.1318   24.4144 O   0  0  0  0  0  0  0  0  0  0  0  0
  -27.1709  -19.9696   26.3753 O   0  0  0  0  0  0  0  0  0  0  0  0
  -25.6164  -10.2094   20.4405 O   0  0  0  0  0  0  0  0  0  0  0  0
  -25.6207  -25.1069   18.6485 O   0  0  0  0  0  0  0  0  0  1  0  0
  -20.4593  -10.1091   22.3894 F   0  0  0  0  0  0  0  0  0  0  0  0
  -23.4867   -9.6010   18.7863 F   0  0  0  0  0  0  0  0  0  0  0  0
  1  2  1  0  0  0  0
  1  5  2  0  0  0  0
  2  6  2  0  0  0  0
  3  8  2  0  0  0  0
  3 17  1  0  0  0  0
  4  9  1  0  0  0  0
  4 17  2  0  0  0  0
  5 19  1  0  0  0  0
  6 21  1  0  0  0  0
  7 10  2  0  0  0  0
  7 20  1  0  0  0  0
  8 23  1  0  0  0  0
  9 23  2  0  0  0  0
 10 24  1  0  0  0  0
 11 12  2  0  0  0  0
 11 25  1  0  0  0  0
 12 26  1  0  0  0  0
 13 16  2  0  0  0  0
 13 29  1  0  0  0  0
 14 22  1  0  0  0  0
 14 24  2  0  0  0  0
 15 26  2  0  0  0  0
 15 27  1  0  0  0  0
 16 64  1  0  0  0  0
 17 28  1  0  0  0  0
 18 28  1  0  0  0  0
 18 30  2  0  0  0  0
 18 31  1  0  0  0  0
 19 21  2  0  0  0  0
 19 36  1  0  0  0  0
 20 22  2  0  0  0  0
 20 37  1  0  0  0  0
 21 45  1  0  0  0  0
 22 38  1  0  0  0  0
 23 79  1  0  0  0  0
 24 80  1  0  0  0  0
 25 27  2  0  0  0  0
 25 79  1  0  0  0  0
 26 81  1  0  0  0  0
 27 82  1  0  0  0  0
 28 62  2  0  0  0  0
 29 54  1  0  0  0  0
 29 63  2  0  0  0  0
 30 65  1  0  0  0  0
 30 68  1  0  0  0  0
 31 69  1  0  0  0  0
 31 74  2  0  0  0  0
 32 46  1  0  0  0  0
 32 70  1  0  0  0  0
 32 75  2  0  0  0  0
 33 59  1  0  0  0  0
 33 66  1  0  0  0  0
 33 76  2  0  0  0  0
 34 60  1  0  0  0  0
 34 71  1  0  0  0  0
 34 77  2  0  0  0  0
 35 67  1  0  0  0  0
 35 72  1  0  0  0  0
 35 78  2  0  0  0  0
 36 39  1  0  0  0  0
 37 46  1  0  0  0  0
 38 66  1  0  0  0  0
 39 41  1  0  0  0  0
 40 42  1  0  0  0  0
 40 43  1  0  0  0  0
 41 45  1  0  0  0  0
 42 47  1  0  0  0  0
 43 67  1  0  0  0  0
 44 47  1  0  0  0  0
 44 67  1  0  0  0  0
 45 70  1  0  0  0  0
 46 66  1  0  0  0  0
 47 65  1  0  0  0  0
 48 60  1  0  0  0  0
 49 61  1  0  0  0  0
 50 61  1  0  0  0  0
 51 61  1  0  0  0  0
 52 72  1  0  0  0  0
 53 73  1  0  0  0  0
 54 55  1  0  0  0  0
 55 58  1  0  0  0  0
 56 57  1  0  0  0  0
 56 64  1  0  0  0  0
 57 72  1  0  0  0  0
 58 80  1  0  0  0  0
 59 61  1  0  0  0  0
 59 71  1  0  0  0  0
 60 73  1  0  0  0  0
 62 65  1  0  0  0  0
 63 64  1  0  0  0  0
M  CHG  1  73   1
M  ISO  4  35 100  58 101  72 100  80 101
M  END
> <Batch ID>
0059

> <Smiles>
CNC(C)C(=O)NC(C(=O)N1Cc2cc([101O:1][101CH2:1]CCc3ccn(CC[100N:0](C)[100C:0](=O)N4CCCC(n5nc(-c6ccc(Oc7ccc(F)cc7F)cc6)c(C(N)=O)c5N)C4)n3)ccc2CC1C(=O)NC1CCCc2ccccc21)C(C)(C)C

> <Shape>
0.229

> <Color>
0.067

> <Negative vol penalty>
0.000

$$$$

  -OEChem-04052317533D

 87 95  0     1  0  0  0  0  0999 V2000
  -29.6408  -31.1704   21.2989 C   0  0  0  0  0  0  0  0  0  0  0  0
  -28.8736  -30.1689   20.7127 C   0  0  0  0  0  0  0  0  0  0  0  0
  -26.7405  -13.0147   20.6319 C   0  0  0  0  0  0  0  0  0  0  0  0
  -25.3098  -14.4945   19.3669 C   0  0  0  0  0  0  0  0  0  0  0  0
  -29.3098  -31.6491   22.5659 C   0  0  0  0  0  0  0  0  0  0  0  0
  -27.7755  -29.6446   21.3936 C   0  0  0  0  0  0  0  0  0  0  0  0
  -23.7017  -29.1554   18.4254 C   0  0  0  0  0  0  0  0  0  0  0  0
  -25.8879  -11.9478   20.3483 C   0  0  0  0  0  0  0  0  0  0  0  0
  -24.4572  -13.4277   19.0832 C   0  0  0  0  0  0  0  0  0  0  0  0
  -23.6742  -28.0654   17.5565 C   0  0  0  0  0  0  0  0  0  0  0  0
  -23.8958   -8.9070   20.2569 C   0  0  0  0  0  0  0  0  0  0  0  0
  -23.5579   -8.0489   21.3034 C   0  0  0  0  0  0  0  0  0  0  0  0
  -22.2382  -26.8842   19.0934 C   0  0  0  0  0  0  0  0  0  0  0  0
  -22.5856   -9.9028   22.5096 C   0  0  0  0  0  0  0  0  0  0  0  0
  -26.4515  -14.2880   20.1413 C   0  0  0  0  0  0  0  0  0  0  0  0
  -28.4403  -15.8173   19.6792 C   0  0  0  0  0  0  0  0  0  0  0  0
  -28.2013  -31.1372   23.2586 C   0  0  0  0  0  0  0  0  0  0  0  0
  -23.0054  -29.1137   19.6419 C   0  0  0  0  0  0  0  0  0  0  0  0
  -27.4301  -30.1159   22.6716 C   0  0  0  0  0  0  0  0  0  0  0  0
  -22.2564  -27.9760   19.9748 C   0  0  0  0  0  0  0  0  0  0  0  0
  -24.7462  -12.1543   19.5739 C   0  0  0  0  0  0  0  0  0  0  0  0
  -22.9448  -26.9285   17.8918 C   0  0  0  0  0  0  0  0  0  0  0  0
  -23.5787  -10.2630   20.3368 C   0  0  0  0  0  0  0  0  0  0  0  0
  -22.9028   -8.5467   22.4297 C   0  0  0  0  0  0  0  0  0  0  0  0
  -22.9236  -10.7609   21.4631 C   0  0  0  0  0  0  0  0  0  0  0  0
  -27.3316  -15.3906   20.4344 C   0  0  0  0  0  0  0  0  0  0  0  0
  -26.4077  -21.6898   19.5388 C   0  0  0  0  0  0  0  0  0  0  0  0
  -25.7351  -22.8632   19.2913 C   0  0  0  0  0  0  0  0  0  0  0  0
  -28.9362  -16.8927   20.3748 C   0  0  0  0  0  0  0  0  0  0  0  0
  -25.5575  -22.2625   21.4042 C   0  0  0  0  0  0  0  0  0  0  0  0
  -28.9742  -15.2888   18.4580 C   0  0  0  0  0  0  0  0  0  0  0  0
  -23.8330  -29.2717   22.7068 C   0  0  0  0  0  0  0  0  0  0  0  0
  -20.6225  -29.2994   23.1696 C   0  0  0  0  0  0  0  0  0  0  0  0
  -17.5183  -28.5131   21.9896 C   0  0  0  0  0  0  0  0  0  0  0  0
  -26.6039  -20.8076   24.1046 C   0  0  0  0  0  0  0  0  0  0  0  0
  -27.9107  -31.6530   24.6458 C   0  0  0  0  0  0  0  0  0  0  0  0
  -23.0234  -30.3081   20.5559 C   0  0  0  0  0  0  0  0  0  0  0  0
  -21.4751  -27.8889   21.2595 C   0  0  0  0  0  0  0  0  0  0  0  0
  -26.5094  -31.3073   25.1430 C   0  0  0  0  0  0  0  0  0  0  0  0
  -29.2573  -18.6828   24.7908 C   0  0  0  0  0  0  0  0  0  0  0  0
  -26.1936  -29.8398   24.8717 C   0  0  0  0  0  0  0  0  0  0  0  0
  -29.1811  -17.6308   23.6852 C   0  0  0  0  0  0  0  0  0  0  0  0
  -27.8654  -19.0428   25.2965 C   0  0  0  0  0  0  0  0  0  0  0  0
  -26.8547  -18.4861   23.1080 C   0  0  0  0  0  0  0  0  0  0  0  0
  -26.2167  -29.5393   23.3682 C   0  0  1  0  0  0  0  0  0  0  0  0
  -22.6957  -29.9573   22.0040 C   0  0  1  0  0  0  0  0  0  0  0  0
  -28.2382  -18.0843   22.5569 C   0  0  2  0  0  0  0  0  0  0  0  0
  -26.6570  -19.4189   18.5056 C   0  0  0  0  0  0  0  0  0  0  0  0
  -23.3744  -20.9008   24.9889 C   0  0  0  0  0  0  0  0  0  0  0  0
  -15.0890  -28.6245   22.6088 C   0  0  0  0  0  0  0  0  0  0  0  0
  -24.4060  -21.7941   16.8412 C   0  0  0  0  0  0  0  0  0  0  0  0
  -21.0028  -26.9470   25.0753 C   0  0  0  0  0  0  0  0  0  0  0  0
  -18.5437  -26.5067   24.9114 C   0  0  0  0  0  0  0  0  0  0  0  0
  -19.3621  -28.6662   25.8545 C   0  0  0  0  0  0  0  0  0  0  0  0
  -24.3918  -24.3898   20.7593 C   0  0  0  0  0  0  0  0  0  0  0  0
  -16.8861  -30.2359   19.6677 C   0  0  0  0  0  0  0  0  0  0  0  0
  -27.1761  -20.8597   18.5976 C   0  0  0  0  0  0  0  0  0  0  0  0
  -25.5565  -23.6753   18.0312 C   0  0  0  0  0  0  0  0  0  0  0  0
  -25.1483  -22.3291   22.8224 C   0  0  0  0  0  0  0  0  0  0  0  0
  -24.1904  -24.1606   15.9344 C   0  0  0  0  0  0  0  0  0  0  0  0
  -24.1385  -20.3115   23.8206 C   0  0  0  0  0  0  0  0  0  0  0  0
  -24.0676  -25.6516   16.2290 C   0  0  0  0  0  0  0  0  0  1  0  0
  -19.5621  -28.2438   23.3698 C   0  0  1  0  0  0  0  0  0  0  0  0
  -16.2387  -29.3251   21.9015 C   0  0  2  0  0  0  0  0  0  0  0  0
  -24.3163  -23.2829   17.1959 C   0  0  1  0  0  0  0  0  0  0  0  0
  -19.6339  -27.5915   24.7794 C   0  0  0  0  0  0  0  0  0  0  0  0
  -27.1344  -16.1342   21.5263 N   0  0  0  0  0  0  0  0  0  0  0  0
  -26.2931  -21.3211   20.8558 N   0  0  0  0  0  0  0  0  0  0  0  0
  -25.1952  -23.2177   20.4955 N   0  0  0  0  0  0  0  0  0  0  0  0
  -28.1261  -17.0389   21.4623 N   0  0  0  0  0  0  0  0  0  0  0  0
  -21.5292  -29.0801   22.1229 N   0  0  0  0  0  0  0  0  0  0  0  0
  -26.9953  -19.4638   24.1980 N   0  0  0  0  0  0  0  0  0  0  0  0
  -29.9819  -17.7181   20.1564 N   0  0  0  0  0  0  0  0  0  0  0  0
  -28.3428  -14.1805   17.8771 N   0  0  0  0  0  0  0  0  0  0  0  0
  -25.0007  -30.0098   22.7400 N   0  0  0  0  0  0  0  0  0  0  0  0
  -18.2860  -28.8856   23.0727 N   0  0  0  0  0  0  0  0  0  0  0  0
  -25.3520  -21.0726   23.5293 N   0  0  0  0  0  0  0  0  0  0  0  0
  -15.8557  -29.5354   20.4767 N   0  3  0  0  0  0  0  0  0  0  0  0
  -29.9912  -15.7745   17.9072 O   0  0  0  0  0  0  0  0  0  0  0  0
  -23.6633  -28.1562   23.1849 O   0  0  0  0  0  0  0  0  0  0  0  0
  -20.6412  -30.2859   23.9100 O   0  0  0  0  0  0  0  0  0  0  0  0
  -17.8062  -27.6336   21.1808 O   0  0  0  0  0  0  0  0  0  0  0  0
  -27.3290  -21.7212   24.5191 O   0  0  0  0  0  0  0  0  0  0  0  0
  -23.9141  -11.1135   19.2967 O   0  0  0  0  0  0  0  0  0  0  0  0
  -22.9167  -25.8629   17.0458 O   0  0  0  0  0  0  0  0  0  1  0  0
  -22.5770   -7.7223   23.4338 F   0  0  0  0  0  0  0  0  0  0  0  0
  -22.6152  -12.0624   21.5450 F   0  0  0  0  0  0  0  0  0  0  0  0
  1  2  1  0  0  0  0
  1  5  2  0  0  0  0
  2  6  2  0  0  0  0
  3  8  2  0  0  0  0
  3 15  1  0  0  0  0
  4  9  1  0  0  0  0
  4 15  2  0  0  0  0
  5 17  1  0  0  0  0
  6 19  1  0  0  0  0
  7 10  2  0  0  0  0
  7 18  1  0  0  0  0
  8 21  1  0  0  0  0
  9 21  2  0  0  0  0
 10 22  1  0  0  0  0
 11 12  2  0  0  0  0
 11 23  1  0  0  0  0
 12 24  1  0  0  0  0
 13 20  1  0  0  0  0
 13 22  2  0  0  0  0
 14 24  2  0  0  0  0
 14 25  1  0  0  0  0
 15 26  1  0  0  0  0
 16 26  1  0  0  0  0
 16 29  2  0  0  0  0
 16 31  1  0  0  0  0
 17 19  2  0  0  0  0
 17 36  1  0  0  0  0
 18 20  2  0  0  0  0
 18 37  1  0  0  0  0
 19 45  1  0  0  0  0
 20 38  1  0  0  0  0
 21 84  1  0  0  0  0
 22 85  1  0  0  0  0
 23 25  2  0  0  0  0
 23 84  1  0  0  0  0
 24 86  1  0  0  0  0
 25 87  1  0  0  0  0
 26 67  2  0  0  0  0
 27 28  2  0  0  0  0
 27 57  1  0  0  0  0
 27 68  1  0  0  0  0
 28 58  1  0  0  0  0
 28 69  1  0  0  0  0
 29 70  1  0  0  0  0
 29 73  1  0  0  0  0
 30 59  1  0  0  0  0
 30 68  2  0  0  0  0
 30 69  1  0  0  0  0
 31 74  1  0  0  0  0
 31 79  2  0  0  0  0
 32 46  1  0  0  0  0
 32 75  1  0  0  0  0
 32 80  2  0  0  0  0
 33 63  1  0  0  0  0
 33 71  1  0  0  0  0
 33 81  2  0  0  0  0
 34 64  1  0  0  0  0
 34 76  1  0  0  0  0
 34 82  2  0  0  0  0
 35 72  1  0  0  0  0
 35 77  1  0  0  0  0
 35 83  2  0  0  0  0
 36 39  1  0  0  0  0
 37 46  1  0  0  0  0
 38 71  1  0  0  0  0
 39 41  1  0  0  0  0
 40 42  1  0  0  0  0
 40 43  1  0  0  0  0
 41 45  1  0  0  0  0
 42 47  1  0  0  0  0
 43 72  1  0  0  0  0
 44 47  1  0  0  0  0
 44 72  1  0  0  0  0
 45 75  1  0  0  0  0
 46 71  1  0  0  0  0
 47 70  1  0  0  0  0
 48 57  1  0  0  0  0
 49 61  1  0  0  0  0
 50 64  1  0  0  0  0
 51 65  1  0  0  0  0
 52 66  1  0  0  0  0
 53 66  1  0  0  0  0
 54 66  1  0  0  0  0
 55 69  1  0  0  0  0
 56 78  1  0  0  0  0
 58 65  1  0  0  0  0
 59 77  1  0  0  0  0
 60 62  1  0  0  0  0
 60 65  1  0  0  0  0
 61 77  1  0  0  0  0
 62 85  1  0  0  0  0
 63 66  1  0  0  0  0
 63 76  1  0  0  0  0
 64 78  1  0  0  0  0
 67 70  1  0  0  0  0
M  CHG  1  78   1
M  ISO  4  35 100  62 101  77 100  85 101
M  END
> <Batch ID>
0059

> <Smiles>
CCc1nc(C[100N:0](CC)[100C:0](=O)N2CCCC(n3nc(-c4ccc(Oc5ccc(F)cc5F)cc4)c(C(N)=O)c3N)C2)n(C)c1CC(C)C[101CH2:1][101O:1]c1ccc2c(c1)CN(C(=O)C(NC(=O)C(C)NC)C(C)(C)C)C(C(=O)NC1CCCc3ccccc31)C2

> <Shape>
0.218

> <Color>
0.050

> <Negative vol penalty>
0.000

$$$$

  -OEChem-04052317533D

 82 90  0     1  0  0  0  0  0999 V2000
  -16.8004  -29.3994   24.3351 C   0  0  0  0  0  0  0  0  0  0  0  0
  -17.1284  -28.5014   23.3245 C   0  0  0  0  0  0  0  0  0  0  0  0
  -30.3791  -13.7167   20.3370 C   0  0  0  0  0  0  0  0  0  0  0  0
  -28.7365  -14.2831   18.6584 C   0  0  0  0  0  0  0  0  0  0  0  0
  -17.6012  -30.5187   24.5583 C   0  0  0  0  0  0  0  0  0  0  0  0
  -18.2567  -28.7227   22.5357 C   0  0  0  0  0  0  0  0  0  0  0  0
  -21.9900  -24.4794   20.1771 C   0  0  0  0  0  0  0  0  0  0  0  0
  -29.7621  -12.4798   20.5235 C   0  0  0  0  0  0  0  0  0  0  0  0
  -28.1194  -13.0462   18.8448 C   0  0  0  0  0  0  0  0  0  0  0  0
  -22.0689  -23.8981   18.9124 C   0  0  0  0  0  0  0  0  0  0  0  0
  -26.0104  -11.6248   21.0726 C   0  0  0  0  0  0  0  0  0  0  0  0
  -24.6192  -11.6029   21.1713 C   0  0  0  0  0  0  0  0  0  0  0  0
  -23.7795  -25.4837   18.2969 C   0  0  0  0  0  0  0  0  0  0  0  0
  -24.5045  -10.1620   19.2354 C   0  0  0  0  0  0  0  0  0  0  0  0
  -27.5095  -21.4703   15.7804 C   0  0  0  0  0  0  0  0  0  0  0  0
  -28.5656  -23.8317   16.4404 C   0  0  0  0  0  0  0  0  0  0  0  0
  -29.8663  -14.6184   19.4045 C   0  0  0  0  0  0  0  0  0  0  0  0
  -31.5352  -16.2040   18.3052 C   0  0  0  0  0  0  0  0  0  0  0  0
  -18.7454  -30.7488   23.7782 C   0  0  0  0  0  0  0  0  0  0  0  0
  -22.7989  -25.5761   20.5081 C   0  0  0  0  0  0  0  0  0  0  0  0
  -19.0728  -29.8469   22.7478 C   0  0  0  0  0  0  0  0  0  0  0  0
  -23.7108  -26.0756   19.5674 C   0  0  0  0  0  0  0  0  0  0  0  0
  -28.6322  -12.1445   19.7774 C   0  0  0  0  0  0  0  0  0  0  0  0
  -22.9617  -24.4020   17.9711 C   0  0  0  0  0  0  0  0  0  0  0  0
  -26.6487  -10.9154   20.0552 C   0  0  0  0  0  0  0  0  0  0  0  0
  -23.8663  -10.8715   20.2528 C   0  0  0  0  0  0  0  0  0  0  0  0
  -25.8957  -10.1840   19.1366 C   0  0  0  0  0  0  0  0  0  0  0  0
  -30.5030  -15.8965   19.2118 C   0  0  0  0  0  0  0  0  0  0  0  0
  -26.9692  -22.6469   15.3102 C   0  0  0  0  0  0  0  0  0  0  0  0
  -29.1055  -22.6552   16.9113 C   0  0  0  0  0  0  0  0  0  0  0  0
  -31.7853  -17.5390   18.5096 C   0  0  0  0  0  0  0  0  0  0  0  0
  -32.2076  -15.3586   17.3625 C   0  0  0  0  0  0  0  0  0  0  0  0
  -22.2539  -28.5931   21.3471 C   0  0  0  0  0  0  0  0  0  0  0  0
  -25.4658  -28.6387   21.7986 C   0  0  0  0  0  0  0  0  0  0  0  0
  -29.8754  -22.7442   19.2495 C   0  0  0  0  0  0  0  0  0  0  0  0
  -28.5166  -27.3080   21.0447 C   0  0  0  0  0  0  0  0  0  0  0  0
  -19.5538  -31.9977   24.0259 C   0  0  0  0  0  0  0  0  0  0  0  0
  -22.7207  -26.1749   21.8857 C   0  0  0  0  0  0  0  0  0  0  0  0
  -24.6157  -27.2383   19.8799 C   0  0  0  0  0  0  0  0  0  0  0  0
  -20.9415  -31.9609   23.3909 C   0  0  0  0  0  0  0  0  0  0  0  0
  -30.2226  -20.6705   22.1511 C   0  0  0  0  0  0  0  0  0  0  0  0
  -20.8563  -31.4681   21.9499 C   0  0  0  0  0  0  0  0  0  0  0  0
  -30.3809  -19.2655   21.5713 C   0  0  0  0  0  0  0  0  0  0  0  0
  -29.2727  -21.5177   21.3103 C   0  0  0  0  0  0  0  0  0  0  0  0
  -29.8110  -20.2014   19.2856 C   0  0  0  0  0  0  0  0  0  0  0  0
  -20.3026  -30.0395   21.8872 C   0  0  1  0  0  0  0  0  0  0  0  0
  -23.2257  -27.6134   21.9414 C   0  0  1  0  0  0  0  0  0  0  0  0
  -30.7865  -19.3221   20.0878 C   0  0  2  0  0  0  0  0  0  0  0  0
  -30.9954  -26.9416   21.1820 C   0  0  0  0  0  0  0  0  0  0  0  0
  -25.5620  -31.0810   19.9721 C   0  0  0  0  0  0  0  0  0  0  0  0
  -28.0298  -30.7262   19.7436 C   0  0  0  0  0  0  0  0  0  0  0  0
  -27.0447  -31.2218   21.9812 C   0  0  0  0  0  0  0  0  0  0  0  0
  -28.2143  -25.2659   23.1654 C   0  0  0  0  0  0  0  0  0  0  0  0
  -25.7625  -22.6278   14.4063 C   0  0  0  0  0  0  0  0  0  0  0  0
  -24.4300  -22.6830   15.1565 C   0  0  0  0  0  0  0  0  0  0  0  0
  -24.3038  -23.8930   16.0749 C   0  0  0  0  0  0  0  0  0  1  0  0
  -26.6626  -28.9526   20.9337 C   0  0  1  0  0  0  0  0  0  0  0  0
  -29.6720  -26.8731   21.9281 C   0  0  2  0  0  0  0  0  0  0  0  0
  -30.2971  -22.6740   17.8034 C   0  0  0  0  0  0  0  0  0  0  0  0
  -26.8065  -30.4747   20.6508 C   0  0  0  0  0  0  0  0  0  0  0  0
  -27.4877  -23.8487   15.6314 N   0  0  0  0  0  0  0  0  0  0  0  0
  -28.5872  -21.4533   16.5897 N   0  0  0  0  0  0  0  0  0  0  0  0
  -30.1236  -16.9512   19.9382 N   0  0  0  0  0  0  0  0  0  0  0  0
  -30.9217  -17.9344   19.4884 N   0  0  0  0  0  0  0  0  0  0  0  0
  -24.4975  -27.7936   21.2383 N   0  0  0  0  0  0  0  0  0  0  0  0
  -29.6794  -21.5280   19.9040 N   0  0  0  0  0  0  0  0  0  0  0  0
  -32.6577  -18.4014   17.9460 N   0  0  0  0  0  0  0  0  0  0  0  0
  -31.8266  -14.0122   17.2820 N   0  0  0  0  0  0  0  0  0  0  0  0
  -21.3279  -29.0839   22.2478 N   0  0  0  0  0  0  0  0  0  0  0  0
  -27.8155  -28.3572   21.6005 N   0  0  0  0  0  0  0  0  0  0  0  0
  -29.4680  -25.4729   22.3957 N   0  3  0  0  0  0  0  0  0  0  0  0
  -33.1306  -15.7805   16.6252 O   0  0  0  0  0  0  0  0  0  0  0  0
  -22.3387  -28.8836   20.1596 O   0  0  0  0  0  0  0  0  0  0  0  0
  -25.3961  -29.1198   22.9324 O   0  0  0  0  0  0  0  0  0  0  0  0
  -29.7280  -23.8480   19.7807 O   0  0  0  0  0  0  0  0  0  0  0  0
  -28.2638  -26.7732   19.9675 O   0  0  0  0  0  0  0  0  0  0  0  0
  -28.0299  -10.9375   19.9590 O   0  0  0  0  0  0  0  0  0  0  0  0
  -23.0403  -23.8369   16.7356 O   0  0  0  0  0  0  0  0  0  1  0  0
  -22.5304  -10.8493   20.3486 F   0  0  0  0  0  0  0  0  0  0  0  0
  -26.5033   -9.4995   18.1578 F   0  0  0  0  0  0  0  0  0  0  0  0
  -31.0999  -21.5713   17.6394 F   0  0  0  0  0  0  0  0  0  0  0  0
  -31.1362  -23.7308   17.5452 F   0  0  0  0  0  0  0  0  0  0  0  0
  1  2  1  0  0  0  0
  1  5  2  0  0  0  0
  2  6  2  0  0  0  0
  3  8  2  0  0  0  0
  3 17  1  0  0  0  0
  4  9  1  0  0  0  0
  4 17  2  0  0  0  0
  5 19  1  0  0  0  0
  6 21  1  0  0  0  0
  7 10  2  0  0  0  0
  7 20  1  0  0  0  0
  8 23  1  0  0  0  0
  9 23  2  0  0  0  0
 10 24  1  0  0  0  0
 11 12  2  0  0  0  0
 11 25  1  0  0  0  0
 12 26  1  0  0  0  0
 13 22  1  0  0  0  0
 13 24  2  0  0  0  0
 14 26  2  0  0  0  0
 14 27  1  0  0  0  0
 15 29  1  0  0  0  0
 15 62  2  0  0  0  0
 16 30  2  0  0  0  0
 16 61  1  0  0  0  0
 17 28  1  0  0  0  0
 18 28  1  0  0  0  0
 18 31  2  0  0  0  0
 18 32  1  0  0  0  0
 19 21  2  0  0  0  0
 19 37  1  0  0  0  0
 20 22  2  0  0  0  0
 20 38  1  0  0  0  0
 21 46  1  0  0  0  0
 22 39  1  0  0  0  0
 23 77  1  0  0  0  0
 24 78  1  0  0  0  0
 25 27  2  0  0  0  0
 25 77  1  0  0  0  0
 26 79  1  0  0  0  0
 27 80  1  0  0  0  0
 28 63  2  0  0  0  0
 29 54  1  0  0  0  0
 29 61  2  0  0  0  0
 30 59  1  0  0  0  0
 30 62  1  0  0  0  0
 31 64  1  0  0  0  0
 31 67  1  0  0  0  0
 32 68  1  0  0  0  0
 32 72  2  0  0  0  0
 33 47  1  0  0  0  0
 33 69  1  0  0  0  0
 33 73  2  0  0  0  0
 34 57  1  0  0  0  0
 34 65  1  0  0  0  0
 34 74  2  0  0  0  0
 35 59  1  0  0  0  0
 35 66  1  0  0  0  0
 35 75  2  0  0  0  0
 36 58  1  0  0  0  0
 36 70  1  0  0  0  0
 36 76  2  0  0  0  0
 37 40  1  0  0  0  0
 38 47  1  0  0  0  0
 39 65  1  0  0  0  0
 40 42  1  0  0  0  0
 41 43  1  0  0  0  0
 41 44  1  0  0  0  0
 42 46  1  0  0  0  0
 43 48  1  0  0  0  0
 44 66  1  0  0  0  0
 45 48  1  0  0  0  0
 45 66  1  0  0  0  0
 46 69  1  0  0  0  0
 47 65  1  0  0  0  0
 48 64  1  0  0  0  0
 49 58  1  0  0  0  0
 50 60  1  0  0  0  0
 51 60  1  0  0  0  0
 52 60  1  0  0  0  0
 53 71  1  0  0  0  0
 54 55  1  0  0  0  0
 55 56  1  0  0  0  0
 56 78  1  0  0  0  0
 57 60  1  0  0  0  0
 57 70  1  0  0  0  0
 58 71  1  0  0  0  0
 59 81  1  0  0  0  0
 59 82  1  0  0  0  0
 63 64  1  0  0  0  0
M  CHG  1  71   1
M  ISO  4  35 100  56 101  59 100  78 101
M  END
> <Batch ID>
0059

> <Smiles>
CNC(C)C(=O)NC(C(=O)N1Cc2cc([101O:1][101CH2:1]CCc3cnc([100C:0](F)(F)[100C:0](=O)N4CCCC(n5nc(-c6ccc(Oc7ccc(F)cc7F)cc6)c(C(N)=O)c5N)C4)cn3)ccc2CC1C(=O)NC1CCCc2ccccc21)C(C)(C)C

> <Shape>
0.245

> <Color>
0.084

> <Negative vol penalty>
0.000

$$$$

  -OEChem-04052317533D

 82 90  0     1  0  0  0  0  0999 V2000
  -28.0995  -18.1458   25.3795 C   0  0  0  0  0  0  0  0  0  0  0  0
  -28.4362  -19.3153   24.7052 C   0  0  0  0  0  0  0  0  0  0  0  0
  -25.1405  -13.5375   21.1609 C   0  0  0  0  0  0  0  0  0  0  0  0
  -26.2151  -13.1682   19.0287 C   0  0  0  0  0  0  0  0  0  0  0  0
  -26.7640  -17.7569   25.4741 C   0  0  0  0  0  0  0  0  0  0  0  0
  -27.4374  -20.0959   24.1243 C   0  0  0  0  0  0  0  0  0  0  0  0
  -28.0459  -25.0365   25.0542 C   0  0  0  0  0  0  0  0  0  0  0  0
  -24.2947  -12.4543   20.9222 C   0  0  0  0  0  0  0  0  0  0  0  0
  -25.3693  -12.0850   18.7901 C   0  0  0  0  0  0  0  0  0  0  0  0
  -29.0035  -25.7132   24.2999 C   0  0  0  0  0  0  0  0  0  0  0  0
  -24.4616   -9.0809   21.0828 C   0  0  0  0  0  0  0  0  0  0  0  0
  -24.2574   -8.1761   22.1245 C   0  0  0  0  0  0  0  0  0  0  0  0
  -27.2609  -26.5744   22.8713 C   0  0  0  0  0  0  0  0  0  0  0  0
  -21.8900   -8.6559   22.0773 C   0  0  0  0  0  0  0  0  0  0  0  0
  -29.6541  -27.1261   19.3317 C   0  0  0  0  0  0  0  0  0  0  0  0
  -26.1007  -13.8945   20.2141 C   0  0  0  0  0  0  0  0  0  0  0  0
  -28.2295  -14.9885   21.0966 C   0  0  0  0  0  0  0  0  0  0  0  0
  -25.7475  -18.5382   24.9023 C   0  0  0  0  0  0  0  0  0  0  0  0
  -26.6874  -25.1151   24.7156 C   0  0  0  0  0  0  0  0  0  0  0  0
  -26.0871  -19.7164   24.2102 C   0  0  0  0  0  0  0  0  0  0  0  0
  -26.2879  -25.8998   23.6244 C   0  0  0  0  0  0  0  0  0  0  0  0
  -24.4091  -11.7280   19.7368 C   0  0  0  0  0  0  0  0  0  0  0  0
  -28.6114  -26.4799   23.2065 C   0  0  0  0  0  0  0  0  0  0  0  0
  -23.3800   -9.7734   20.5384 C   0  0  0  0  0  0  0  0  0  0  0  0
  -22.9717   -7.9635   22.6217 C   0  0  0  0  0  0  0  0  0  0  0  0
  -22.0942   -9.5609   21.0356 C   0  0  0  0  0  0  0  0  0  0  0  0
  -26.9742  -15.0137   20.4598 C   0  0  0  0  0  0  0  0  0  0  0  0
  -28.9405  -26.5614   18.2944 C   0  0  0  0  0  0  0  0  0  0  0  0
  -30.6291  -26.3256   19.8909 C   0  0  0  0  0  0  0  0  0  0  0  0
  -28.6489  -16.2963   21.0806 C   0  0  0  0  0  0  0  0  0  0  0  0
  -30.1318  -24.6324   18.4582 C   0  0  0  0  0  0  0  0  0  0  0  0
  -28.9518  -13.8819   21.6528 C   0  0  0  0  0  0  0  0  0  0  0  0
  -24.4753  -23.0177   23.8148 C   0  0  0  0  0  0  0  0  0  0  0  0
  -22.5020  -25.5801   24.0645 C   0  0  0  0  0  0  0  0  0  0  0  0
  -22.1442  -28.9740   24.0459 C   0  0  0  0  0  0  0  0  0  0  0  0
  -29.4228  -21.0110   18.4124 C   0  0  0  0  0  0  0  0  0  0  0  0
  -24.3223  -18.0525   24.9899 C   0  0  0  0  0  0  0  0  0  0  0  0
  -25.6642  -24.4008   25.5554 C   0  0  0  0  0  0  0  0  0  0  0  0
  -24.8400  -26.0332   23.2314 C   0  0  0  0  0  0  0  0  0  0  0  0
  -23.2905  -19.1308   24.6694 C   0  0  0  0  0  0  0  0  0  0  0  0
  -26.1596  -20.5404   19.9048 C   0  0  0  0  0  0  0  0  0  0  0  0
  -23.6852  -19.8887   23.4058 C   0  0  0  0  0  0  0  0  0  0  0  0
  -26.1890  -19.0471   20.2356 C   0  0  0  0  0  0  0  0  0  0  0  0
  -26.8675  -20.8280   18.5841 C   0  0  0  0  0  0  0  0  0  0  0  0
  -28.3039  -18.8429   18.8481 C   0  0  0  0  0  0  0  0  0  0  0  0
  -25.0300  -20.6028   23.5882 C   0  0  1  0  0  0  0  0  0  0  0  0
  -24.3591  -24.1367   24.8108 C   0  0  1  0  0  0  0  0  0  0  0  0
  -27.6238  -18.4897   20.1833 C   0  0  2  0  0  0  0  0  0  0  0  0
  -27.8654  -27.3511   17.6260 C   0  0  0  0  0  0  0  0  0  0  0  0
  -30.8260  -23.2075   16.4962 C   0  0  0  0  0  0  0  0  0  0  0  0
  -20.4045  -30.7725   24.2363 C   0  0  0  0  0  0  0  0  0  0  0  0
  -21.5970  -25.0037   21.2081 C   0  0  0  0  0  0  0  0  0  0  0  0
  -20.6237  -27.3089   21.1255 C   0  0  0  0  0  0  0  0  0  0  0  0
  -19.7579  -25.6498   22.7748 C   0  0  0  0  0  0  0  0  0  0  0  0
  -23.4142  -30.1075   26.4669 C   0  0  0  0  0  0  0  0  0  0  0  0
  -31.4638  -26.8569   21.0308 C   0  0  0  0  0  0  0  0  0  0  0  0
  -30.8443  -26.5578   22.3916 C   0  0  0  0  0  0  0  0  0  1  0  0
  -30.4001  -23.2487   17.9711 C   0  0  2  0  0  0  0  0  0  0  0  0
  -22.0434  -26.6716   23.1278 C   0  0  1  0  0  0  0  0  0  0  0  0
  -21.4122  -29.9149   24.9858 C   0  0  2  0  0  0  0  0  0  0  0  0
  -21.0330  -26.1546   22.0650 C   0  0  0  0  0  0  0  0  0  0  0  0
  -26.6193  -16.2403   20.0680 N   0  0  0  0  0  0  0  0  0  0  0  0
  -29.1537  -25.3126   17.8303 N   0  0  0  0  0  0  0  0  0  0  0  0
  -30.8957  -25.0693   19.4776 N   0  0  0  0  0  0  0  0  0  0  0  0
  -27.6578  -16.9980   20.4597 N   0  0  0  0  0  0  0  0  0  0  0  0
  -23.8779  -25.3107   24.0799 N   0  0  0  0  0  0  0  0  0  0  0  0
  -28.2342  -20.2879   18.6067 N   0  0  0  0  0  0  0  0  0  0  0  0
  -29.7651  -16.9030   21.5372 N   0  0  0  0  0  0  0  0  0  0  0  0
  -28.3760  -12.6059   21.5844 N   0  0  0  0  0  0  0  0  0  0  0  0
  -24.8593  -21.8106   24.3670 N   0  0  0  0  0  0  0  0  0  0  0  0
  -21.5266  -27.7434   23.9719 N   0  0  0  0  0  0  0  0  0  0  0  0
  -29.2692  -22.3728   18.1828 N   0  0  0  0  0  0  0  0  0  0  0  0
  -22.3793  -30.8175   25.6720 N   0  3  0  0  0  0  0  0  0  0  0  0
  -30.0673  -14.0230   22.2090 O   0  0  0  0  0  0  0  0  0  0  0  0
  -24.2330  -23.2331   22.6330 O   0  0  0  0  0  0  0  0  0  0  0  0
  -21.6711  -24.9933   24.7622 O   0  0  0  0  0  0  0  0  0  0  0  0
  -23.1600  -29.2995   23.4354 O   0  0  0  0  0  0  0  0  0  0  0  0
  -30.5395  -20.4829   18.4464 O   0  0  0  0  0  0  0  0  0  0  0  0
  -23.5842  -10.6708   19.5037 O   0  0  0  0  0  0  0  0  0  0  0  0
  -29.5441  -27.1409   22.4682 O   0  0  0  0  0  0  0  0  0  1  0  0
  -22.7756   -7.0934   23.6210 F   0  0  0  0  0  0  0  0  0  0  0  0
  -21.0510  -10.2222   20.5159 F   0  0  0  0  0  0  0  0  0  0  0  0
  1  2  1  0  0  0  0
  1  5  2  0  0  0  0
  2  6  2  0  0  0  0
  3  8  2  0  0  0  0
  3 16  1  0  0  0  0
  4  9  1  0  0  0  0
  4 16  2  0  0  0  0
  5 18  1  0  0  0  0
  6 20  1  0  0  0  0
  7 10  2  0  0  0  0
  7 19  1  0  0  0  0
  8 22  1  0  0  0  0
  9 22  2  0  0  0  0
 10 23  1  0  0  0  0
 11 12  2  0  0  0  0
 11 24  1  0  0  0  0
 12 25  1  0  0  0  0
 13 21  1  0  0  0  0
 13 23  2  0  0  0  0
 14 25  2  0  0  0  0
 14 26  1  0  0  0  0
 15 28  2  0  0  0  0
 15 29  1  0  0  0  0
 16 27  1  0  0  0  0
 17 27  1  0  0  0  0
 17 30  2  0  0  0  0
 17 32  1  0  0  0  0
 18 20  2  0  0  0  0
 18 37  1  0  0  0  0
 19 21  2  0  0  0  0
 19 38  1  0  0  0  0
 20 46  1  0  0  0  0
 21 39  1  0  0  0  0
 22 79  1  0  0  0  0
 23 80  1  0  0  0  0
 24 26  2  0  0  0  0
 24 79  1  0  0  0  0
 25 81  1  0  0  0  0
 26 82  1  0  0  0  0
 27 62  2  0  0  0  0
 28 49  1  0  0  0  0
 28 63  1  0  0  0  0
 29 56  1  0  0  0  0
 29 64  2  0  0  0  0
 30 65  1  0  0  0  0
 30 68  1  0  0  0  0
 31 58  1  0  0  0  0
 31 63  2  0  0  0  0
 31 64  1  0  0  0  0
 32 69  1  0  0  0  0
 32 74  2  0  0  0  0
 33 47  1  0  0  0  0
 33 70  1  0  0  0  0
 33 75  2  0  0  0  0
 34 59  1  0  0  0  0
 34 66  1  0  0  0  0
 34 76  2  0  0  0  0
 35 60  1  0  0  0  0
 35 71  1  0  0  0  0
 35 77  2  0  0  0  0
 36 67  1  0  0  0  0
 36 72  1  0  0  0  0
 36 78  2  0  0  0  0
 37 40  1  0  0  0  0
 38 47  1  0  0  0  0
 39 66  1  0  0  0  0
 40 42  1  0  0  0  0
 41 43  1  0  0  0  0
 41 44  1  0  0  0  0
 42 46  1  0  0  0  0
 43 48  1  0  0  0  0
 44 67  1  0  0  0  0
 45 48  1  0  0  0  0
 45 67  1  0  0  0  0
 46 70  1  0  0  0  0
 47 66  1  0  0  0  0
 48 65  1  0  0  0  0
 50 58  1  0  0  0  0
 51 60  1  0  0  0  0
 52 61  1  0  0  0  0
 53 61  1  0  0  0  0
 54 61  1  0  0  0  0
 55 73  1  0  0  0  0
 56 57  1  0  0  0  0
 57 80  1  0  0  0  0
 58 72  1  0  0  0  0
 59 61  1  0  0  0  0
 59 71  1  0  0  0  0
 60 73  1  0  0  0  0
 62 65  1  0  0  0  0
M  CHG  1  73   1
M  ISO  4  36 100  57 101  72 100  80 101
M  END
> <Batch ID>
0059

> <Smiles>
CNC(C)C(=O)NC(C(=O)N1Cc2cc([101O:1][101CH2:1]Cc3cc(C)nc(C(C)[100NH:0][100C:0](=O)N4CCCC(n5nc(-c6ccc(Oc7ccc(F)cc7F)cc6)c(C(N)=O)c5N)C4)n3)ccc2CC1C(=O)NC1CCCc2ccccc21)C(C)(C)C

> <Shape>
0.213

> <Color>
0.060

> <Negative vol penalty>
0.000

$$$$

  -OEChem-04052317533D

 83 91  0     1  0  0  0  0  0999 V2000
  -25.0223  -31.7559   14.0006 C   0  0  0  0  0  0  0  0  0  0  0  0
  -26.0638  -31.1204   14.6690 C   0  0  0  0  0  0  0  0  0  0  0  0
  -25.3005  -13.0702   21.9222 C   0  0  0  0  0  0  0  0  0  0  0  0
  -26.1665  -13.2020   19.6706 C   0  0  0  0  0  0  0  0  0  0  0  0
  -24.0705  -32.4768   14.7205 C   0  0  0  0  0  0  0  0  0  0  0  0
  -26.1548  -31.2065   16.0577 C   0  0  0  0  0  0  0  0  0  0  0  0
  -27.1885  -26.7440   18.2171 C   0  0  0  0  0  0  0  0  0  0  0  0
  -24.3447  -12.1461   21.5005 C   0  0  0  0  0  0  0  0  0  0  0  0
  -25.2107  -12.2778   19.2489 C   0  0  0  0  0  0  0  0  0  0  0  0
  -28.5098  -26.3023   18.1651 C   0  0  0  0  0  0  0  0  0  0  0  0
  -24.2196   -8.8452   20.7786 C   0  0  0  0  0  0  0  0  0  0  0  0
  -24.0175   -7.7147   21.5701 C   0  0  0  0  0  0  0  0  0  0  0  0
  -28.8454  -27.0585   20.4311 C   0  0  0  0  0  0  0  0  0  0  0  0
  -21.7065   -8.3463   21.8821 C   0  0  0  0  0  0  0  0  0  0  0  0
  -30.7913  -22.4808   20.1132 C   0  0  0  0  0  0  0  0  0  0  0  0
  -26.2115  -13.5982   21.0072 C   0  0  0  0  0  0  0  0  0  0  0  0
  -28.4929  -14.2789   21.9235 C   0  0  0  0  0  0  0  0  0  0  0  0
  -24.1444  -32.5637   16.1197 C   0  0  0  0  0  0  0  0  0  0  0  0
  -26.6880  -27.3571   19.3747 C   0  0  0  0  0  0  0  0  0  0  0  0
  -25.2039  -31.9304   16.7970 C   0  0  0  0  0  0  0  0  0  0  0  0
  -27.5166  -27.5047   20.4961 C   0  0  0  0  0  0  0  0  0  0  0  0
  -24.2997  -11.7498   20.1639 C   0  0  0  0  0  0  0  0  0  0  0  0
  -29.3394  -26.4621   19.2712 C   0  0  0  0  0  0  0  0  0  0  0  0
  -23.1652   -9.7263   20.5388 C   0  0  0  0  0  0  0  0  0  0  0  0
  -22.7610   -7.4652   22.1219 C   0  0  0  0  0  0  0  0  0  0  0  0
  -21.9086   -9.4769   21.0906 C   0  0  0  0  0  0  0  0  0  0  0  0
  -27.1988  -14.5533   21.4421 C   0  0  0  0  0  0  0  0  0  0  0  0
  -30.6115  -21.5177   19.1524 C   0  0  0  0  0  0  0  0  0  0  0  0
  -29.0256  -15.5143   22.1998 C   0  0  0  0  0  0  0  0  0  0  0  0
  -29.1543  -13.0198   22.1047 C   0  0  0  0  0  0  0  0  0  0  0  0
  -25.5120  -30.2290   20.0625 C   0  0  0  0  0  0  0  0  0  0  0  0
  -24.9082  -28.8625   22.9418 C   0  0  0  0  0  0  0  0  0  0  0  0
  -25.6756  -26.4352   25.2147 C   0  0  0  0  0  0  0  0  0  0  0  0
  -27.3772  -20.9641   19.9367 C   0  0  0  0  0  0  0  0  0  0  0  0
  -23.1191  -33.3938   16.8507 C   0  0  0  0  0  0  0  0  0  0  0  0
  -25.2526  -27.8039   19.4241 C   0  0  0  0  0  0  0  0  0  0  0  0
  -27.0218  -28.1382   21.7699 C   0  0  0  0  0  0  0  0  0  0  0  0
  -23.0755  -33.1240   18.3525 C   0  0  0  0  0  0  0  0  0  0  0  0
  -27.7719  -19.9461   23.4736 C   0  0  0  0  0  0  0  0  0  0  0  0
  -24.4863  -33.1017   18.9321 C   0  0  0  0  0  0  0  0  0  0  0  0
  -27.7062  -18.4220   23.3909 C   0  0  0  0  0  0  0  0  0  0  0  0
  -26.9849  -20.6097   22.3475 C   0  0  0  0  0  0  0  0  0  0  0  0
  -27.3132  -18.6289   20.9042 C   0  0  0  0  0  0  0  0  0  0  0  0
  -25.3227  -31.9799   18.3048 C   0  0  1  0  0  0  0  0  0  0  0  0
  -24.9973  -28.8792   20.4757 C   0  0  1  0  0  0  0  0  0  0  0  0
  -28.1345  -17.9293   21.9976 C   0  0  2  0  0  0  0  0  0  0  0  0
  -34.2193  -23.3155   21.5229 C   0  0  0  0  0  0  0  0  0  0  0  0
  -25.0359  -25.5949   27.4911 C   0  0  0  0  0  0  0  0  0  0  0  0
  -26.4150  -31.1871   24.2206 C   0  0  0  0  0  0  0  0  0  0  0  0
  -26.5693  -29.8386   26.3244 C   0  0  0  0  0  0  0  0  0  0  0  0
  -24.3366  -30.4999   25.4298 C   0  0  0  0  0  0  0  0  0  0  0  0
  -33.4087  -25.2520   19.2916 C   0  0  0  0  0  0  0  0  0  0  0  0
  -27.9903  -21.0942   17.5520 C   0  0  0  0  0  0  0  0  0  0  0  0
  -24.8704  -23.7970   24.1421 C   0  0  0  0  0  0  0  0  0  0  0  0
  -29.7089  -20.3593   19.1619 C   0  0  0  0  0  0  0  0  0  0  0  0
  -33.0105  -24.2457   21.5745 C   0  0  0  0  0  0  0  0  0  0  0  0
  -31.2186  -25.6058   20.4506 C   0  0  0  0  0  0  0  0  0  1  0  0
  -25.6710  -28.7148   24.2361 C   0  0  1  0  0  0  0  0  0  0  0  0
  -24.7989  -25.4715   25.9940 C   0  0  2  0  0  0  0  0  0  0  0  0
  -25.7582  -30.0499   25.0282 C   0  0  0  0  0  0  0  0  0  0  0  0
  -32.3509  -24.5683   20.1950 C   0  0  1  0  0  0  0  0  0  0  0  0
  -26.9259  -15.8605   21.4130 N   0  0  0  0  0  0  0  0  0  0  0  0
  -31.4306  -21.7723   18.0876 N   0  0  0  0  0  0  0  0  0  0  0  0
  -32.1219  -22.8740   18.3587 N   0  0  0  0  0  0  0  0  0  0  0  0
  -31.7373  -23.2971   19.5737 N   0  0  0  0  0  0  0  0  0  0  0  0
  -28.0559  -16.4185   21.8798 N   0  0  0  0  0  0  0  0  0  0  0  0
  -25.6127  -28.5645   21.7667 N   0  0  0  0  0  0  0  0  0  0  0  0
  -27.3816  -20.0919   21.0376 N   0  0  0  0  0  0  0  0  0  0  0  0
  -30.2242  -15.9046   22.6829 N   0  0  0  0  0  0  0  0  0  0  0  0
  -28.4624  -11.8475   21.7709 N   0  0  0  0  0  0  0  0  0  0  0  0
  -24.9684  -30.7015   18.8832 N   0  0  0  0  0  0  0  0  0  0  0  0
  -25.0289  -27.6274   24.9666 N   0  0  0  0  0  0  0  0  0  0  0  0
  -28.3125  -20.7161   18.9206 N   0  0  0  0  0  0  0  0  0  0  0  0
  -25.0847  -24.0666   25.5872 N   0  3  0  0  0  0  0  0  0  0  0  0
  -30.3181  -12.9358   22.5650 O   0  0  0  0  0  0  0  0  0  0  0  0
  -26.3398  -30.8003   20.7625 O   0  0  0  0  0  0  0  0  0  0  0  0
  -23.7285  -29.2218   22.9727 O   0  0  0  0  0  0  0  0  0  0  0  0
  -26.8210  -26.1594   24.8645 O   0  0  0  0  0  0  0  0  0  0  0  0
  -26.5890  -21.9161   19.8705 O   0  0  0  0  0  0  0  0  0  0  0  0
  -23.3673  -10.8479   19.7521 O   0  0  0  0  0  0  0  0  0  0  0  0
  -30.6297  -26.0325   19.2228 O   0  0  0  0  0  0  0  0  0  1  0  0
  -22.5666   -6.3787   22.8808 F   0  0  0  0  0  0  0  0  0  0  0  0
  -20.8915  -10.3191   20.8628 F   0  0  0  0  0  0  0  0  0  0  0  0
  1  2  1  0  0  0  0
  1  5  2  0  0  0  0
  2  6  2  0  0  0  0
  3  8  2  0  0  0  0
  3 16  1  0  0  0  0
  4  9  1  0  0  0  0
  4 16  2  0  0  0  0
  5 18  1  0  0  0  0
  6 20  1  0  0  0  0
  7 10  2  0  0  0  0
  7 19  1  0  0  0  0
  8 22  1  0  0  0  0
  9 22  2  0  0  0  0
 10 23  1  0  0  0  0
 11 12  2  0  0  0  0
 11 24  1  0  0  0  0
 12 25  1  0  0  0  0
 13 21  1  0  0  0  0
 13 23  2  0  0  0  0
 14 25  2  0  0  0  0
 14 26  1  0  0  0  0
 15 28  2  0  0  0  0
 15 65  1  0  0  0  0
 16 27  1  0  0  0  0
 17 27  1  0  0  0  0
 17 29  2  0  0  0  0
 17 30  1  0  0  0  0
 18 20  2  0  0  0  0
 18 35  1  0  0  0  0
 19 21  2  0  0  0  0
 19 36  1  0  0  0  0
 20 44  1  0  0  0  0
 21 37  1  0  0  0  0
 22 80  1  0  0  0  0
 23 81  1  0  0  0  0
 24 26  2  0  0  0  0
 24 80  1  0  0  0  0
 25 82  1  0  0  0  0
 26 83  1  0  0  0  0
 27 62  2  0  0  0  0
 28 55  1  0  0  0  0
 28 63  1  0  0  0  0
 29 66  1  0  0  0  0
 29 69  1  0  0  0  0
 30 70  1  0  0  0  0
 30 75  2  0  0  0  0
 31 45  1  0  0  0  0
 31 71  1  0  0  0  0
 31 76  2  0  0  0  0
 32 58  1  0  0  0  0
 32 67  1  0  0  0  0
 32 77  2  0  0  0  0
 33 59  1  0  0  0  0
 33 72  1  0  0  0  0
 33 78  2  0  0  0  0
 34 68  1  0  0  0  0
 34 73  1  0  0  0  0
 34 79  2  0  0  0  0
 35 38  1  0  0  0  0
 36 45  1  0  0  0  0
 37 67  1  0  0  0  0
 38 40  1  0  0  0  0
 39 41  1  0  0  0  0
 39 42  1  0  0  0  0
 40 44  1  0  0  0  0
 41 46  1  0  0  0  0
 42 68  1  0  0  0  0
 43 46  1  0  0  0  0
 43 68  1  0  0  0  0
 44 71  1  0  0  0  0
 45 67  1  0  0  0  0
 46 66  1  0  0  0  0
 47 56  1  0  0  0  0
 48 59  1  0  0  0  0
 49 60  1  0  0  0  0
 50 60  1  0  0  0  0
 51 60  1  0  0  0  0
 52 61  1  0  0  0  0
 53 73  1  0  0  0  0
 54 74  1  0  0  0  0
 55 73  1  0  0  0  0
 56 61  1  0  0  0  0
 57 61  1  0  0  0  0
 57 81  1  0  0  0  0
 58 60  1  0  0  0  0
 58 72  1  0  0  0  0
 59 74  1  0  0  0  0
 61 65  1  0  0  0  0
 62 66  1  0  0  0  0
 63 64  2  0  0  0  0
 64 65  1  0  0  0  0
M  CHG  1  74   1
M  ISO  4  34 100  57 101  73 100  81 101
M  END
> <Batch ID>
0059

> <Smiles>
CCC(C)(n1cc(C[100N:0](C)[100C:0](=O)N2CCCC(n3nc(-c4ccc(Oc5ccc(F)cc5F)cc4)c(C(N)=O)c3N)C2)nn1)[101CH2:1][101O:1]c1ccc2c(c1)CN(C(=O)C(NC(=O)C(C)NC)C(C)(C)C)C(C(=O)NC1CCCc3ccccc31)C2

> <Shape>
0.230

> <Color>
0.074

> <Negative vol penalty>
0.000

$$$$

  -OEChem-04052317533D

 84 92  0     1  0  0  0  0  0999 V2000
  -28.1310  -23.6889   18.0108 C   0  0  0  0  0  0  0  0  0  0  0  0
  -26.9029  -24.0691   18.5424 C   0  0  0  0  0  0  0  0  0  0  0  0
  -26.9395  -16.2310   21.1122 C   0  0  0  0  0  0  0  0  0  0  0  0
  -25.5902  -17.0919   19.3024 C   0  0  0  0  0  0  0  0  0  0  0  0
  -29.3125  -24.1565   18.5846 C   0  0  0  0  0  0  0  0  0  0  0  0
  -26.8557  -24.9163   19.6489 C   0  0  0  0  0  0  0  0  0  0  0  0
  -23.4105  -28.5922   19.1354 C   0  0  0  0  0  0  0  0  0  0  0  0
  -26.8613  -14.9517   20.5620 C   0  0  0  0  0  0  0  0  0  0  0  0
  -25.5120  -15.8125   18.7521 C   0  0  0  0  0  0  0  0  0  0  0  0
  -22.0764  -28.2491   19.3502 C   0  0  0  0  0  0  0  0  0  0  0  0
  -27.4767  -13.7704   16.9109 C   0  0  0  0  0  0  0  0  0  0  0  0
  -27.6766  -13.6445   15.5362 C   0  0  0  0  0  0  0  0  0  0  0  0
  -22.2002  -29.1829   21.5710 C   0  0  0  0  0  0  0  0  0  0  0  0
  -25.4597  -12.7136   15.2992 C   0  0  0  0  0  0  0  0  0  0  0  0
  -17.7202  -26.6485   23.5119 C   0  0  0  0  0  0  0  0  0  0  0  0
  -26.3039  -17.3011   20.4824 C   0  0  0  0  0  0  0  0  0  0  0  0
  -27.3599  -19.6030   20.7889 C   0  0  0  0  0  0  0  0  0  0  0  0
  -29.2796  -25.0176   19.6928 C   0  0  0  0  0  0  0  0  0  0  0  0
  -24.1539  -29.2246   20.1423 C   0  0  0  0  0  0  0  0  0  0  0  0
  -28.0379  -25.3948   20.2389 C   0  0  0  0  0  0  0  0  0  0  0  0
  -23.5428  -29.5353   21.3655 C   0  0  0  0  0  0  0  0  0  0  0  0
  -26.1475  -14.7424   19.3820 C   0  0  0  0  0  0  0  0  0  0  0  0
  -21.4719  -28.5418   20.5692 C   0  0  0  0  0  0  0  0  0  0  0  0
  -26.2684  -13.3678   17.4798 C   0  0  0  0  0  0  0  0  0  0  0  0
  -26.6681  -13.1161   14.7304 C   0  0  0  0  0  0  0  0  0  0  0  0
  -25.2599  -12.8395   16.6739 C   0  0  0  0  0  0  0  0  0  0  0  0
  -26.3839  -18.6228   21.0506 C   0  0  0  0  0  0  0  0  0  0  0  0
  -17.8646  -27.1407   22.2455 C   0  0  0  0  0  0  0  0  0  0  0  0
  -26.9920  -20.6711   21.5702 C   0  0  0  0  0  0  0  0  0  0  0  0
  -17.7782  -24.9326   22.1144 C   0  0  0  0  0  0  0  0  0  0  0  0
  -28.4974  -19.5526   19.9175 C   0  0  0  0  0  0  0  0  0  0  0  0
  -26.7556  -28.4831   21.8111 C   0  0  0  0  0  0  0  0  0  0  0  0
  -26.4181  -31.5051   22.9406 C   0  0  0  0  0  0  0  0  0  0  0  0
  -24.3588  -34.1576   23.5487 C   0  0  0  0  0  0  0  0  0  0  0  0
  -21.7459  -22.4382   23.8521 C   0  0  0  0  0  0  0  0  0  0  0  0
  -30.5838  -25.4593   20.3079 C   0  0  0  0  0  0  0  0  0  0  0  0
  -25.5843  -29.6122   19.8853 C   0  0  0  0  0  0  0  0  0  0  0  0
  -24.2913  -30.2315   22.4717 C   0  0  0  0  0  0  0  0  0  0  0  0
  -30.4405  -26.6537   21.2477 C   0  0  0  0  0  0  0  0  0  0  0  0
  -24.7314  -21.7201   25.6543 C   0  0  0  0  0  0  0  0  0  0  0  0
  -29.2641  -26.4481   22.1967 C   0  0  0  0  0  0  0  0  0  0  0  0
  -25.5816  -20.9334   24.6552 C   0  0  0  0  0  0  0  0  0  0  0  0
  -23.2474  -21.3866   25.5183 C   0  0  0  0  0  0  0  0  0  0  0  0
  -23.5516  -20.7490   23.1572 C   0  0  0  0  0  0  0  0  0  0  0  0
  -27.9450  -26.3323   21.4233 C   0  0  1  0  0  0  0  0  0  0  0  0
  -26.3943  -29.7909   21.1656 C   0  0  1  0  0  0  0  0  0  0  0  0
  -25.0496  -21.0931   23.2183 C   0  0  2  0  0  0  0  0  0  0  0  0
  -24.3628  -36.4737   24.5146 C   0  0  0  0  0  0  0  0  0  0  0  0
  -16.4719  -22.7171   21.8375 C   0  0  0  0  0  0  0  0  0  0  0  0
  -17.8735  -23.6025   19.9946 C   0  0  0  0  0  0  0  0  0  0  0  0
  -26.5009  -30.3287   25.7547 C   0  0  0  0  0  0  0  0  0  0  0  0
  -25.5659  -32.4882   26.6097 C   0  0  0  0  0  0  0  0  0  0  0  0
  -27.7871  -32.4552   25.4747 C   0  0  0  0  0  0  0  0  0  0  0  0
  -17.5192  -24.3587   24.5101 C   0  0  0  0  0  0  0  0  0  0  0  0
  -23.5184  -35.3569   20.9769 C   0  0  0  0  0  0  0  0  0  0  0  0
  -17.9776  -28.5558   21.7325 C   0  0  0  0  0  0  0  0  0  0  0  0
  -18.9885  -22.6787   22.0537 C   0  0  0  0  0  0  0  0  0  0  0  0
  -20.3280  -23.4170   22.0659 C   0  0  0  0  0  0  0  0  0  0  0  0
  -19.4233  -29.0366   21.6712 C   0  0  0  0  0  0  0  0  0  1  0  0
  -25.6884  -32.1374   24.1011 C   0  0  1  0  0  0  0  0  0  0  0  0
  -24.5096  -35.6388   23.2521 C   0  0  2  0  0  0  0  0  0  0  0  0
  -17.7701  -23.5566   21.5582 C   0  0  0  0  0  0  0  0  0  0  0  0
  -26.3718  -31.8375   25.4651 C   0  0  0  0  0  0  0  0  0  0  0  0
  -25.4651  -19.0318   21.9295 N   0  0  0  0  0  0  0  0  0  0  0  0
  -17.6690  -25.2798   23.4009 N   0  0  0  0  0  0  0  0  0  0  0  0
  -25.8622  -20.2808   22.2270 N   0  0  0  0  0  0  0  0  0  0  0  0
  -17.8979  -26.0571   21.4013 N   0  3  0  0  0  0  0  0  0  0  0  0
  -25.6893  -30.5845   22.1743 N   0  0  0  0  0  0  0  0  0  0  0  0
  -22.8057  -21.5599   24.1324 N   0  0  0  0  0  0  0  0  0  0  0  0
  -27.5280  -21.8966   21.7526 N   0  0  0  0  0  0  0  0  0  0  0  0
  -28.7284  -18.3785   19.1878 N   0  0  0  0  0  0  0  0  0  0  0  0
  -27.4908  -27.6396   21.0002 N   0  0  0  0  0  0  0  0  0  0  0  0
  -25.5771  -33.5580   23.7880 N   0  0  0  0  0  0  0  0  0  0  0  0
  -21.3946  -22.5487   22.5123 N   0  0  0  0  0  0  0  0  0  0  0  0
  -23.4748  -36.0793   22.2743 N   0  3  0  0  0  0  0  0  0  0  0  0
  -29.2947  -20.5140   19.8022 O   0  0  0  0  0  0  0  0  0  0  0  0
  -26.3955  -28.2566   22.9603 O   0  0  0  0  0  0  0  0  0  0  0  0
  -27.5893  -31.8218   22.7178 O   0  0  0  0  0  0  0  0  0  0  0  0
  -23.2687  -33.5902   23.5700 O   0  0  0  0  0  0  0  0  0  0  0  0
  -21.1600  -23.0806   24.7302 O   0  0  0  0  0  0  0  0  0  0  0  0
  -26.0712  -13.4942   18.8446 O   0  0  0  0  0  0  0  0  0  0  0  0
  -20.1700  -28.2073   20.7818 O   0  0  0  0  0  0  0  0  0  1  0  0
  -26.8596  -12.9967   13.4100 F   0  0  0  0  0  0  0  0  0  0  0  0
  -24.0965  -12.4521   17.2145 F   0  0  0  0  0  0  0  0  0  0  0  0
  1  2  1  0  0  0  0
  1  5  2  0  0  0  0
  2  6  2  0  0  0  0
  3  8  2  0  0  0  0
  3 16  1  0  0  0  0
  4  9  1  0  0  0  0
  4 16  2  0  0  0  0
  5 18  1  0  0  0  0
  6 20  1  0  0  0  0
  7 10  2  0  0  0  0
  7 19  1  0  0  0  0
  8 22  1  0  0  0  0
  9 22  2  0  0  0  0
 10 23  1  0  0  0  0
 11 12  2  0  0  0  0
 11 24  1  0  0  0  0
 12 25  1  0  0  0  0
 13 21  1  0  0  0  0
 13 23  2  0  0  0  0
 14 25  2  0  0  0  0
 14 26  1  0  0  0  0
 15 28  2  0  0  0  0
 15 65  1  0  0  0  0
 16 27  1  0  0  0  0
 17 27  1  0  0  0  0
 17 29  2  0  0  0  0
 17 31  1  0  0  0  0
 18 20  2  0  0  0  0
 18 36  1  0  0  0  0
 19 21  2  0  0  0  0
 19 37  1  0  0  0  0
 20 45  1  0  0  0  0
 21 38  1  0  0  0  0
 22 81  1  0  0  0  0
 23 82  1  0  0  0  0
 24 26  2  0  0  0  0
 24 81  1  0  0  0  0
 25 83  1  0  0  0  0
 26 84  1  0  0  0  0
 27 64  2  0  0  0  0
 28 56  1  0  0  0  0
 28 67  1  0  0  0  0
 29 66  1  0  0  0  0
 29 70  1  0  0  0  0
 30 62  1  0  0  0  0
 30 65  1  0  0  0  0
 30 67  2  0  0  0  0
 31 71  1  0  0  0  0
 31 76  2  0  0  0  0
 32 46  1  0  0  0  0
 32 72  1  0  0  0  0
 32 77  2  0  0  0  0
 33 60  1  0  0  0  0
 33 68  1  0  0  0  0
 33 78  2  0  0  0  0
 34 61  1  0  0  0  0
 34 73  1  0  0  0  0
 34 79  2  0  0  0  0
 35 69  1  0  0  0  0
 35 74  1  0  0  0  0
 35 80  2  0  0  0  0
 36 39  1  0  0  0  0
 37 46  1  0  0  0  0
 38 68  1  0  0  0  0
 39 41  1  0  0  0  0
 40 42  1  0  0  0  0
 40 43  1  0  0  0  0
 41 45  1  0  0  0  0
 42 47  1  0  0  0  0
 43 69  1  0  0  0  0
 44 47  1  0  0  0  0
 44 69  1  0  0  0  0
 45 72  1  0  0  0  0
 46 68  1  0  0  0  0
 47 66  1  0  0  0  0
 48 61  1  0  0  0  0
 49 62  1  0  0  0  0
 50 62  1  0  0  0  0
 51 63  1  0  0  0  0
 52 63  1  0  0  0  0
 53 63  1  0  0  0  0
 54 65  1  0  0  0  0
 55 75  1  0  0  0  0
 56 59  1  0  0  0  0
 57 58  1  0  0  0  0
 57 62  1  0  0  0  0
 58 74  1  0  0  0  0
 59 82  1  0  0  0  0
 60 63  1  0  0  0  0
 60 73  1  0  0  0  0
 61 75  1  0  0  0  0
 64 66  1  0  0  0  0
M  CHG  2  67   1  75   1
M  ISO  4  35 100  59 101  74 100  82 101
M  END
> <Batch ID>
0059

> <Smiles>
CNC(C)C(=O)NC(C(=O)N1Cc2cc([101O:1][101CH2:1]Cc3cn(C)c(C(C)(C)CC[100NH:0][100C:0](=O)N4CCCC(n5nc(-c6ccc(Oc7ccc(F)cc7F)cc6)c(C(N)=O)c5N)C4)n3)ccc2CC1C(=O)NC1CCCc2ccccc21)C(C)(C)C

> <Shape>
0.242

> <Color>
0.064

> <Negative vol penalty>
0.000

$$$$

  -OEChem-04052317533D

 79 87  0     1  0  0  0  0  0999 V2000
  -27.0857  -23.7050   26.4451 C   0  0  0  0  0  0  0  0  0  0  0  0
  -27.5679  -23.8598   25.1493 C   0  0  0  0  0  0  0  0  0  0  0  0
  -26.5685  -12.4677   21.4723 C   0  0  0  0  0  0  0  0  0  0  0  0
  -25.9517  -13.5161   19.3848 C   0  0  0  0  0  0  0  0  0  0  0  0
  -25.7696  -24.0548   26.7443 C   0  0  0  0  0  0  0  0  0  0  0  0
  -26.7339  -24.3635   24.1518 C   0  0  0  0  0  0  0  0  0  0  0  0
  -29.0219  -27.8571   21.2873 C   0  0  0  0  0  0  0  0  0  0  0  0
  -25.3101  -11.8703   21.5442 C   0  0  0  0  0  0  0  0  0  0  0  0
  -24.6933  -12.9187   19.4567 C   0  0  0  0  0  0  0  0  0  0  0  0
  -29.9040  -27.4002   20.3091 C   0  0  0  0  0  0  0  0  0  0  0  0
  -22.3869   -9.7806   22.0947 C   0  0  0  0  0  0  0  0  0  0  0  0
  -22.3283   -8.4322   22.4468 C   0  0  0  0  0  0  0  0  0  0  0  0
  -28.1888  -27.6868   18.6372 C   0  0  0  0  0  0  0  0  0  0  0  0
  -23.6689   -7.8700   20.5171 C   0  0  0  0  0  0  0  0  0  0  0  0
  -30.2079  -21.9612   17.8887 C   0  0  0  0  0  0  0  0  0  0  0  0
  -26.8893  -13.2906   20.3927 C   0  0  0  0  0  0  0  0  0  0  0  0
  -29.3462  -13.3835   19.7124 C   0  0  0  0  0  0  0  0  0  0  0  0
  -24.9220  -24.5721   25.7521 C   0  0  0  0  0  0  0  0  0  0  0  0
  -27.7110  -28.2225   20.9490 C   0  0  0  0  0  0  0  0  0  0  0  0
  -25.4048  -24.7193   24.4377 C   0  0  0  0  0  0  0  0  0  0  0  0
  -27.2928  -28.1504   19.6126 C   0  0  0  0  0  0  0  0  0  0  0  0
  -24.3725  -12.0958   20.5364 C   0  0  0  0  0  0  0  0  0  0  0  0
  -29.4866  -27.3123   18.9843 C   0  0  0  0  0  0  0  0  0  0  0  0
  -23.0865  -10.1737   20.9538 C   0  0  0  0  0  0  0  0  0  0  0  0
  -22.9693   -7.4769   21.6580 C   0  0  0  0  0  0  0  0  0  0  0  0
  -23.7276   -9.2185   20.1650 C   0  0  0  0  0  0  0  0  0  0  0  0
  -28.1889  -13.9084   20.3181 C   0  0  0  0  0  0  0  0  0  0  0  0
  -29.8942  -23.2823   17.6906 C   0  0  0  0  0  0  0  0  0  0  0  0
  -30.3050  -14.3465   19.9117 C   0  0  0  0  0  0  0  0  0  0  0  0
  -29.5374  -12.1369   19.0303 C   0  0  0  0  0  0  0  0  0  0  0  0
  -24.8155  -27.1811   21.7460 C   0  0  0  0  0  0  0  0  0  0  0  0
  -29.9085  -20.2662   20.8670 C   0  0  0  0  0  0  0  0  0  0  0  0
  -23.8428  -29.7502   20.0209 C   0  0  0  0  0  0  0  0  0  0  0  0
  -24.5301  -32.0215   17.5683 C   0  0  0  0  0  0  0  0  0  0  0  0
  -23.4928  -24.8919   26.1127 C   0  0  0  0  0  0  0  0  0  0  0  0
  -26.7800  -28.7386   22.0117 C   0  0  0  0  0  0  0  0  0  0  0  0
  -25.9022  -28.5498   19.1941 C   0  0  0  0  0  0  0  0  0  0  0  0
  -22.7867  -25.7700   25.0829 C   0  0  0  0  0  0  0  0  0  0  0  0
  -31.5480  -17.8361   22.9278 C   0  0  0  0  0  0  0  0  0  0  0  0
  -23.0430  -25.2496   23.6721 C   0  0  0  0  0  0  0  0  0  0  0  0
  -30.9565  -16.5082   22.4566 C   0  0  0  0  0  0  0  0  0  0  0  0
  -30.5150  -18.9573   22.8753 C   0  0  0  0  0  0  0  0  0  0  0  0
  -29.2856  -17.8075   21.0620 C   0  0  0  0  0  0  0  0  0  0  0  0
  -24.5382  -25.2857   23.3339 C   0  0  1  0  0  0  0  0  0  0  0  0
  -25.3080  -28.5964   21.6369 C   0  0  1  0  0  0  0  0  0  0  0  0
  -30.3047  -16.6543   21.0701 C   0  0  2  0  0  0  0  0  0  0  0  0
  -23.5263  -33.9761   16.3561 C   0  0  0  0  0  0  0  0  0  0  0  0
  -22.0867  -27.8456   18.4090 C   0  0  0  0  0  0  0  0  0  0  0  0
  -21.8656  -29.6327   16.6696 C   0  0  0  0  0  0  0  0  0  0  0  0
  -21.0084  -30.0290   18.9785 C   0  0  0  0  0  0  0  0  0  0  0  0
  -26.6733  -33.8424   18.4901 C   0  0  0  0  0  0  0  0  0  0  0  0
  -30.4829  -24.2605   16.7056 C   0  0  0  0  0  0  0  0  0  0  0  0
  -29.2626  -20.2815   19.5044 C   0  0  0  0  0  0  0  0  0  0  0  0
  -31.6856  -25.0343   17.2500 C   0  0  0  0  0  0  0  0  0  0  0  0
  -31.3417  -25.9292   18.4350 C   0  0  0  0  0  0  0  0  0  1  0  0
  -23.5034  -29.9979   18.5709 C   0  0  1  0  0  0  0  0  0  0  0  0
  -24.3898  -33.5325   17.5267 C   0  0  2  0  0  0  0  0  0  0  0  0
  -22.1417  -29.3669   18.1649 C   0  0  0  0  0  0  0  0  0  0  0  0
  -28.3918  -15.1114   20.8618 N   0  0  0  0  0  0  0  0  0  0  0  0
  -28.9008  -23.6531   18.5538 N   0  0  0  0  0  0  0  0  0  0  0  0
  -28.5840  -22.5940   19.2908 N   0  0  0  0  0  0  0  0  0  0  0  0
  -29.3690  -21.5807   18.8905 N   0  0  0  0  0  0  0  0  0  0  0  0
  -29.6878  -15.3504   20.5984 N   0  0  0  0  0  0  0  0  0  0  0  0
  -25.0270  -29.0422   20.2707 N   0  0  0  0  0  0  0  0  0  0  0  0
  -29.9028  -19.0491   21.5486 N   0  0  0  0  0  0  0  0  0  0  0  0
  -31.6073  -14.4241   19.5650 N   0  0  0  0  0  0  0  0  0  0  0  0
  -28.4468  -11.2642   18.9151 N   0  0  0  0  0  0  0  0  0  0  0  0
  -24.9503  -26.6341   23.0078 N   0  0  0  0  0  0  0  0  0  0  0  0
  -23.5746  -31.4420   18.3760 N   0  0  0  0  0  0  0  0  0  0  0  0
  -25.7285  -34.1735   17.3926 N   0  3  0  0  0  0  0  0  0  0  0  0
  -30.6468  -11.7996   18.5519 O   0  0  0  0  0  0  0  0  0  0  0  0
  -24.3464  -26.6268   20.7589 O   0  0  0  0  0  0  0  0  0  0  0  0
  -30.4054  -21.3053   21.3093 O   0  0  0  0  0  0  0  0  0  0  0  0
  -23.0889  -30.1756   20.8997 O   0  0  0  0  0  0  0  0  0  0  0  0
  -25.3979  -31.4157   16.9435 O   0  0  0  0  0  0  0  0  0  0  0  0
  -23.1445  -11.5129   20.6060 O   0  0  0  0  0  0  0  0  0  0  0  0
  -30.3454  -26.8661   18.0276 O   0  0  0  0  0  0  0  0  0  1  0  0
  -22.9142   -6.1822   21.9971 F   0  0  0  0  0  0  0  0  0  0  0  0
  -24.4022   -9.5902   19.0685 F   0  0  0  0  0  0  0  0  0  0  0  0
  1  2  1  0  0  0  0
  1  5  2  0  0  0  0
  2  6  2  0  0  0  0
  3  8  2  0  0  0  0
  3 16  1  0  0  0  0
  4  9  1  0  0  0  0
  4 16  2  0  0  0  0
  5 18  1  0  0  0  0
  6 20  1  0  0  0  0
  7 10  2  0  0  0  0
  7 19  1  0  0  0  0
  8 22  1  0  0  0  0
  9 22  2  0  0  0  0
 10 23  1  0  0  0  0
 11 12  2  0  0  0  0
 11 24  1  0  0  0  0
 12 25  1  0  0  0  0
 13 21  1  0  0  0  0
 13 23  2  0  0  0  0
 14 25  2  0  0  0  0
 14 26  1  0  0  0  0
 15 28  2  0  0  0  0
 15 62  1  0  0  0  0
 16 27  1  0  0  0  0
 17 27  1  0  0  0  0
 17 29  2  0  0  0  0
 17 30  1  0  0  0  0
 18 20  2  0  0  0  0
 18 35  1  0  0  0  0
 19 21  2  0  0  0  0
 19 36  1  0  0  0  0
 20 44  1  0  0  0  0
 21 37  1  0  0  0  0
 22 76  1  0  0  0  0
 23 77  1  0  0  0  0
 24 26  2  0  0  0  0
 24 76  1  0  0  0  0
 25 78  1  0  0  0  0
 26 79  1  0  0  0  0
 27 59  2  0  0  0  0
 28 52  1  0  0  0  0
 28 60  1  0  0  0  0
 29 63  1  0  0  0  0
 29 66  1  0  0  0  0
 30 67  1  0  0  0  0
 30 71  2  0  0  0  0
 31 45  1  0  0  0  0
 31 68  1  0  0  0  0
 31 72  2  0  0  0  0
 32 53  1  0  0  0  0
 32 65  1  0  0  0  0
 32 73  2  0  0  0  0
 33 56  1  0  0  0  0
 33 64  1  0  0  0  0
 33 74  2  0  0  0  0
 34 57  1  0  0  0  0
 34 69  1  0  0  0  0
 34 75  2  0  0  0  0
 35 38  1  0  0  0  0
 36 45  1  0  0  0  0
 37 64  1  0  0  0  0
 38 40  1  0  0  0  0
 39 41  1  0  0  0  0
 39 42  1  0  0  0  0
 40 44  1  0  0  0  0
 41 46  1  0  0  0  0
 42 65  1  0  0  0  0
 43 46  1  0  0  0  0
 43 65  1  0  0  0  0
 44 68  1  0  0  0  0
 45 64  1  0  0  0  0
 46 63  1  0  0  0  0
 47 57  1  0  0  0  0
 48 58  1  0  0  0  0
 49 58  1  0  0  0  0
 50 58  1  0  0  0  0
 51 70  1  0  0  0  0
 52 54  1  0  0  0  0
 53 62  1  0  0  0  0
 54 55  1  0  0  0  0
 55 77  1  0  0  0  0
 56 58  1  0  0  0  0
 56 69  1  0  0  0  0
 57 70  1  0  0  0  0
 59 63  1  0  0  0  0
 60 61  2  0  0  0  0
 61 62  1  0  0  0  0
M  CHG  1  70   1
M  ISO  4  32 100  53 100  55 101  77 101
M  END
> <Batch ID>
0059

> <Smiles>
CNC(C)C(=O)NC(C(=O)N1Cc2cc([101O:1][101CH2:1]CCc3cn([100CH2:0][100C:0](=O)N4CCCC(n5nc(-c6ccc(Oc7ccc(F)cc7F)cc6)c(C(N)=O)c5N)C4)nn3)ccc2CC1C(=O)NC1CCCc2ccccc21)C(C)(C)C

> <Shape>
0.264

> <Color>
0.084

> <Negative vol penalty>
0.000

$$$$

  -OEChem-04052317533D

 82 90  0     1  0  0  0  0  0999 V2000
  -31.0350  -24.0983   17.1286 C   0  0  0  0  0  0  0  0  0  0  0  0
  -29.7504  -24.0133   17.6560 C   0  0  0  0  0  0  0  0  0  0  0  0
  -22.1947  -11.0246   22.7883 C   0  0  0  0  0  0  0  0  0  0  0  0
  -21.3668  -11.1151   20.5204 C   0  0  0  0  0  0  0  0  0  0  0  0
  -31.9839  -24.9193   17.7363 C   0  0  0  0  0  0  0  0  0  0  0  0
  -29.4144  -24.7485   18.7922 C   0  0  0  0  0  0  0  0  0  0  0  0
  -24.9181  -27.0389   18.3647 C   0  0  0  0  0  0  0  0  0  0  0  0
  -21.4839   -9.8433   23.0006 C   0  0  0  0  0  0  0  0  0  0  0  0
  -20.6561   -9.9338   20.7327 C   0  0  0  0  0  0  0  0  0  0  0  0
  -23.7824  -26.2511   18.5474 C   0  0  0  0  0  0  0  0  0  0  0  0
  -20.1753   -6.6108   24.0271 C   0  0  0  0  0  0  0  0  0  0  0  0
  -20.8328   -5.5663   24.6768 C   0  0  0  0  0  0  0  0  0  0  0  0
  -23.5763  -27.0821   20.8027 C   0  0  0  0  0  0  0  0  0  0  0  0
  -22.4890   -5.5151   22.9185 C   0  0  0  0  0  0  0  0  0  0  0  0
  -22.1361  -11.6605   21.5482 C   0  0  0  0  0  0  0  0  0  0  0  0
  -24.1883  -13.0063   20.8519 C   0  0  0  0  0  0  0  0  0  0  0  0
  -31.6566  -25.6724   18.8748 C   0  0  0  0  0  0  0  0  0  0  0  0
  -25.3986  -27.8472   19.4050 C   0  0  0  0  0  0  0  0  0  0  0  0
  -30.3603  -25.5794   19.4165 C   0  0  0  0  0  0  0  0  0  0  0  0
  -24.7168  -27.8810   20.6298 C   0  0  0  0  0  0  0  0  0  0  0  0
  -20.7147   -9.2979   21.9728 C   0  0  0  0  0  0  0  0  0  0  0  0
  -23.1129  -26.2704   19.7674 C   0  0  0  0  0  0  0  0  0  0  0  0
  -20.6746   -7.1075   22.8230 C   0  0  0  0  0  0  0  0  0  0  0  0
  -21.9897   -5.0184   24.1226 C   0  0  0  0  0  0  0  0  0  0  0  0
  -21.8315   -6.5597   22.2688 C   0  0  0  0  0  0  0  0  0  0  0  0
  -22.8696  -12.8811   21.3284 C   0  0  0  0  0  0  0  0  0  0  0  0
  -24.4155  -14.3605   20.8221 C   0  0  0  0  0  0  0  0  0  0  0  0
  -21.7078  -22.6373   20.4966 C   0  0  0  0  0  0  0  0  0  0  0  0
  -23.2227  -21.2810   20.0249 C   0  0  0  0  0  0  0  0  0  0  0  0
  -25.1242  -11.9894   20.4701 C   0  0  0  0  0  0  0  0  0  0  0  0
  -28.0953  -27.9765   21.0827 C   0  0  0  0  0  0  0  0  0  0  0  0
  -26.7408  -30.6527   22.3179 C   0  0  0  0  0  0  0  0  0  0  0  0
  -23.8961  -32.4128   22.9936 C   0  0  0  0  0  0  0  0  0  0  0  0
  -20.3136  -18.9045   20.5668 C   0  0  0  0  0  0  0  0  0  0  0  0
  -32.7297  -26.5095   19.5247 C   0  0  0  0  0  0  0  0  0  0  0  0
  -26.6095  -28.7113   19.1831 C   0  0  0  0  0  0  0  0  0  0  0  0
  -25.1801  -28.7471   21.7716 C   0  0  0  0  0  0  0  0  0  0  0  0
  -32.1845  -27.5442   20.5057 C   0  0  0  0  0  0  0  0  0  0  0  0
  -23.1090  -18.4361   22.9476 C   0  0  0  0  0  0  0  0  0  0  0  0
  -31.1491  -26.9105   21.4294 C   0  0  0  0  0  0  0  0  0  0  0  0
  -23.4216  -16.9474   22.8056 C   0  0  0  0  0  0  0  0  0  0  0  0
  -21.6465  -18.7407   22.6376 C   0  0  0  0  0  0  0  0  0  0  0  0
  -21.5100  -16.7589   21.1651 C   0  0  0  0  0  0  0  0  0  0  0  0
  -29.9504  -26.3806   20.6332 C   0  0  1  0  0  0  0  0  0  0  0  0
  -27.3079  -29.1058   20.4808 C   0  0  1  0  0  0  0  0  0  0  0  0
  -22.9866  -16.4248   21.4254 C   0  0  2  0  0  0  0  0  0  0  0  0
  -23.1046  -34.5499   24.0442 C   0  0  0  0  0  0  0  0  0  0  0  0
  -27.2193  -29.4654   25.0877 C   0  0  0  0  0  0  0  0  0  0  0  0
  -25.5996  -31.1381   26.0080 C   0  0  0  0  0  0  0  0  0  0  0  0
  -27.6984  -31.9131   24.9049 C   0  0  0  0  0  0  0  0  0  0  0  0
  -19.2184  -18.9132   18.3578 C   0  0  0  0  0  0  0  0  0  0  0  0
  -22.6979  -33.3524   20.4558 C   0  0  0  0  0  0  0  0  0  0  0  0
  -20.9572  -23.7323   21.2148 C   0  0  0  0  0  0  0  0  0  0  0  0
  -22.0634  -20.2545   18.0254 C   0  0  0  0  0  0  0  0  0  0  0  0
  -21.6827  -18.8356   18.4400 C   0  0  0  0  0  0  0  0  0  0  0  0
  -21.7471  -25.0353   21.2724 C   0  0  0  0  0  0  0  0  0  1  0  0
  -25.8374  -30.9502   23.4903 C   0  0  1  0  0  0  0  0  0  0  0  0
  -23.5302  -33.8664   22.7540 C   0  0  2  0  0  0  0  0  0  0  0  0
  -26.5808  -30.8488   24.8520 C   0  0  0  0  0  0  0  0  0  0  0  0
  -22.2991  -14.0616   21.5833 N   0  0  0  0  0  0  0  0  0  0  0  0
  -22.9439  -22.2196   20.8994 N   0  0  0  0  0  0  0  0  0  0  0  0
  -21.2042  -22.0162   19.4280 N   0  0  0  0  0  0  0  0  0  0  0  0
  -23.2640  -14.9415   21.2657 N   0  0  0  0  0  0  0  0  0  0  0  0
  -22.1926  -21.1537   19.1460 N   0  0  0  0  0  0  0  0  0  0  0  0
  -26.3726  -29.5692   21.5078 N   0  0  0  0  0  0  0  0  0  0  0  0
  -21.2479  -18.1954   21.3395 N   0  0  0  0  0  0  0  0  0  0  0  0
  -25.4859  -15.0992   20.4601 N   0  0  0  0  0  0  0  0  0  0  0  0
  -24.7279  -10.6482   20.5620 N   0  0  0  0  0  0  0  0  0  0  0  0
  -29.0759  -27.4688   20.2520 N   0  0  0  0  0  0  0  0  0  0  0  0
  -25.2459  -32.2579   23.2283 N   0  0  0  0  0  0  0  0  0  0  0  0
  -20.4190  -18.7907   19.1723 N   0  0  0  0  0  0  0  0  0  0  0  0
  -22.4080  -33.9641   21.7782 N   0  3  0  0  0  0  0  0  0  0  0  0
  -26.2833  -12.2614   20.0753 O   0  0  0  0  0  0  0  0  0  0  0  0
  -27.8335  -27.5950   22.2175 O   0  0  0  0  0  0  0  0  0  0  0  0
  -27.7325  -31.3601   22.1239 O   0  0  0  0  0  0  0  0  0  0  0  0
  -23.0667  -31.5059   22.9781 O   0  0  0  0  0  0  0  0  0  0  0  0
  -19.4413  -19.6073   21.0932 O   0  0  0  0  0  0  0  0  0  0  0  0
  -20.0212   -8.1451   22.1796 O   0  0  0  0  0  0  0  0  0  0  0  0
  -22.0045  -25.5021   19.9486 O   0  0  0  0  0  0  0  0  0  1  0  0
  -22.6218   -4.0163   24.7474 F   0  0  0  0  0  0  0  0  0  0  0  0
  -22.3166   -7.0334   21.1129 F   0  0  0  0  0  0  0  0  0  0  0  0
  -24.6175  -20.3270   19.9281 Cl  0  0  0  0  0  0  0  0  0  0  0  0
  1  2  1  0  0  0  0
  1  5  2  0  0  0  0
  2  6  2  0  0  0  0
  3  8  2  0  0  0  0
  3 15  1  0  0  0  0
  4  9  1  0  0  0  0
  4 15  2  0  0  0  0
  5 17  1  0  0  0  0
  6 19  1  0  0  0  0
  7 10  2  0  0  0  0
  7 18  1  0  0  0  0
  8 21  1  0  0  0  0
  9 21  2  0  0  0  0
 10 22  1  0  0  0  0
 11 12  2  0  0  0  0
 11 23  1  0  0  0  0
 12 24  1  0  0  0  0
 13 20  1  0  0  0  0
 13 22  2  0  0  0  0
 14 24  2  0  0  0  0
 14 25  1  0  0  0  0
 15 26  1  0  0  0  0
 16 26  1  0  0  0  0
 16 27  2  0  0  0  0
 16 30  1  0  0  0  0
 17 19  2  0  0  0  0
 17 35  1  0  0  0  0
 18 20  2  0  0  0  0
 18 36  1  0  0  0  0
 19 44  1  0  0  0  0
 20 37  1  0  0  0  0
 21 78  1  0  0  0  0
 22 79  1  0  0  0  0
 23 25  2  0  0  0  0
 23 78  1  0  0  0  0
 24 80  1  0  0  0  0
 25 81  1  0  0  0  0
 26 60  2  0  0  0  0
 27 63  1  0  0  0  0
 27 67  1  0  0  0  0
 28 53  1  0  0  0  0
 28 61  1  0  0  0  0
 28 62  2  0  0  0  0
 29 61  2  0  0  0  0
 29 64  1  0  0  0  0
 29 82  1  0  0  0  0
 30 68  1  0  0  0  0
 30 73  2  0  0  0  0
 31 45  1  0  0  0  0
 31 69  1  0  0  0  0
 31 74  2  0  0  0  0
 32 57  1  0  0  0  0
 32 65  1  0  0  0  0
 32 75  2  0  0  0  0
 33 58  1  0  0  0  0
 33 70  1  0  0  0  0
 33 76  2  0  0  0  0
 34 66  1  0  0  0  0
 34 71  1  0  0  0  0
 34 77  2  0  0  0  0
 35 38  1  0  0  0  0
 36 45  1  0  0  0  0
 37 65  1  0  0  0  0
 38 40  1  0  0  0  0
 39 41  1  0  0  0  0
 39 42  1  0  0  0  0
 40 44  1  0  0  0  0
 41 46  1  0  0  0  0
 42 66  1  0  0  0  0
 43 46  1  0  0  0  0
 43 66  1  0  0  0  0
 44 69  1  0  0  0  0
 45 65  1  0  0  0  0
 46 63  1  0  0  0  0
 47 58  1  0  0  0  0
 48 59  1  0  0  0  0
 49 59  1  0  0  0  0
 50 59  1  0  0  0  0
 51 71  1  0  0  0  0
 52 72  1  0  0  0  0
 53 56  1  0  0  0  0
 54 55  1  0  0  0  0
 54 64  1  0  0  0  0
 55 71  1  0  0  0  0
 56 79  1  0  0  0  0
 57 59  1  0  0  0  0
 57 70  1  0  0  0  0
 58 72  1  0  0  0  0
 60 63  1  0  0  0  0
 62 64  1  0  0  0  0
M  CHG  1  72   1
M  ISO  4  34 100  56 101  71 100  79 101
M  END
> <Batch ID>
0059

> <Smiles>
CNC(C)C(=O)NC(C(=O)N1Cc2cc([101O:1][101CH2:1]Cc3nc(Cl)n(CC[100N:0](C)[100C:0](=O)N4CCCC(n5nc(-c6ccc(Oc7ccc(F)cc7F)cc6)c(C(N)=O)c5N)C4)n3)ccc2CC1C(=O)NC1CCCc2ccccc21)C(C)(C)C

> <Shape>
0.255

> <Color>
0.099

> <Negative vol penalty>
0.000

$$$$

  -OEChem-04052317533D

 83 91  0     1  0  0  0  0  0999 V2000
  -17.3094  -12.9065   22.0171 C   0  0  0  0  0  0  0  0  0  0  0  0
  -18.0153  -14.0476   21.6495 C   0  0  0  0  0  0  0  0  0  0  0  0
  -24.9128  -29.4093   21.3172 C   0  0  0  0  0  0  0  0  0  0  0  0
  -24.3223  -27.0814   21.0539 C   0  0  0  0  0  0  0  0  0  0  0  0
  -17.9509  -11.8877   22.7203 C   0  0  0  0  0  0  0  0  0  0  0  0
  -19.3628  -14.1711   21.9860 C   0  0  0  0  0  0  0  0  0  0  0  0
  -23.7447  -16.9007   18.6914 C   0  0  0  0  0  0  0  0  0  0  0  0
  -23.5628  -29.7571   21.2699 C   0  0  0  0  0  0  0  0  0  0  0  0
  -22.9723  -27.4292   21.0066 C   0  0  0  0  0  0  0  0  0  0  0  0
  -24.3212  -18.1680   18.7646 C   0  0  0  0  0  0  0  0  0  0  0  0
  -19.3486  -27.6682   21.1785 C   0  0  0  0  0  0  0  0  0  0  0  0
  -18.4545  -26.9034   21.9277 C   0  0  0  0  0  0  0  0  0  0  0  0
  -26.1283  -17.2633   20.0818 C   0  0  0  0  0  0  0  0  0  0  0  0
  -19.6407  -27.4952   23.9475 C   0  0  0  0  0  0  0  0  0  0  0  0
  -26.7659  -22.6980   18.7065 C   0  0  0  0  0  0  0  0  0  0  0  0
  -25.2925  -28.0714   21.2091 C   0  0  0  0  0  0  0  0  0  0  0  0
  -27.4429  -27.3903   22.4005 C   0  0  0  0  0  0  0  0  0  0  0  0
  -19.3095  -11.9945   23.0571 C   0  0  0  0  0  0  0  0  0  0  0  0
  -24.3510  -15.8054   19.3232 C   0  0  0  0  0  0  0  0  0  0  0  0
  -20.0228  -13.1534   22.6955 C   0  0  0  0  0  0  0  0  0  0  0  0
  -25.5588  -15.9827   20.0130 C   0  0  0  0  0  0  0  0  0  0  0  0
  -22.5926  -28.7670   21.1147 C   0  0  0  0  0  0  0  0  0  0  0  0
  -25.5117  -18.3501   19.4623 C   0  0  0  0  0  0  0  0  0  0  0  0
  -20.3888  -28.3465   21.8138 C   0  0  0  0  0  0  0  0  0  0  0  0
  -18.6005  -26.8169   23.3122 C   0  0  0  0  0  0  0  0  0  0  0  0
  -20.5348  -28.2600   23.1983 C   0  0  0  0  0  0  0  0  0  0  0  0
  -26.6869  -27.7116   21.2573 C   0  0  0  0  0  0  0  0  0  0  0  0
  -27.3852  -22.1741   19.8060 C   0  0  0  0  0  0  0  0  0  0  0  0
  -28.7008  -27.1251   21.9169 C   0  0  0  0  0  0  0  0  0  0  0  0
  -28.9196  -23.1937   18.5786 C   0  0  0  0  0  0  0  0  0  0  0  0
  -27.0438  -27.3364   23.7765 C   0  0  0  0  0  0  0  0  0  0  0  0
  -23.5042  -13.8016   21.6408 C   0  0  0  0  0  0  0  0  0  0  0  0
  -26.2737  -12.3167   20.8364 C   0  0  0  0  0  0  0  0  0  0  0  0
  -29.3796  -12.5373   19.4393 C   0  0  0  0  0  0  0  0  0  0  0  0
  -30.3294  -25.4692   16.2473 C   0  0  0  0  0  0  0  0  0  0  0  0
  -19.9478  -10.8881   23.8591 C   0  0  0  0  0  0  0  0  0  0  0  0
  -23.7305  -14.4398   19.2123 C   0  0  0  0  0  0  0  0  0  0  0  0
  -26.2603  -14.8355   20.6915 C   0  0  0  0  0  0  0  0  0  0  0  0
  -21.4736  -10.9315   23.8501 C   0  0  0  0  0  0  0  0  0  0  0  0
  -31.6551  -28.2295   18.3270 C   0  0  0  0  0  0  0  0  0  0  0  0
  -21.9689  -12.3499   24.1142 C   0  0  0  0  0  0  0  0  0  0  0  0
  -30.5526  -28.4222   19.3669 C   0  0  0  0  0  0  0  0  0  0  0  0
  -31.1057  -27.6835   17.0125 C   0  0  0  0  0  0  0  0  0  0  0  0
  -29.2163  -26.6221   18.2030 C   0  0  0  0  0  0  0  0  0  0  0  0
  -21.4921  -13.3133   23.0206 C   0  0  1  0  0  0  0  0  0  0  0  0
  -24.1654  -13.4936   20.3272 C   0  0  1  0  0  0  0  0  0  0  0  0
  -29.7432  -27.1272   19.5546 C   0  0  2  0  0  0  0  0  0  0  0  0
  -31.4262  -11.1663   18.9607 C   0  0  0  0  0  0  0  0  0  0  0  0
  -30.3859  -23.3706   21.2994 C   0  0  0  0  0  0  0  0  0  0  0  0
  -30.8055  -21.2178   20.0362 C   0  0  0  0  0  0  0  0  0  0  0  0
  -27.0748  -12.4911   23.7754 C   0  0  0  0  0  0  0  0  0  0  0  0
  -29.4327  -12.0026   23.0897 C   0  0  0  0  0  0  0  0  0  0  0  0
  -27.6390  -10.3212   22.6674 C   0  0  0  0  0  0  0  0  0  0  0  0
  -30.1779  -23.0673   15.7114 C   0  0  0  0  0  0  0  0  0  0  0  0
  -29.1152  -12.9499   16.5206 C   0  0  0  0  0  0  0  0  0  0  0  0
  -26.8223  -21.3854   20.9633 C   0  0  0  0  0  0  0  0  0  0  0  0
  -30.2107  -23.7349   18.0860 C   0  0  0  0  0  0  0  0  0  0  0  0
  -26.8399  -19.8829   20.7041 C   0  0  0  0  0  0  0  0  0  1  0  0
  -27.7139  -12.4300   21.2747 C   0  0  1  0  0  0  0  0  0  0  0  0
  -30.0921  -11.6616   18.4245 C   0  0  2  0  0  0  0  0  0  0  0  0
  -29.7506  -22.1374   20.6540 C   0  0  0  0  0  0  0  0  0  0  0  0
  -27.9511  -11.8334   22.6907 C   0  0  0  0  0  0  0  0  0  0  0  0
  -27.4046  -27.6563   20.1322 N   0  0  0  0  0  0  0  0  0  0  0  0
  -28.7170  -22.4954   19.7006 N   0  0  0  0  0  0  0  0  0  0  0  0
  -28.6248  -27.2973   20.5661 N   0  0  0  0  0  0  0  0  0  0  0  0
  -27.7390  -23.3234   17.9648 N   0  3  0  0  0  0  0  0  0  0  0  0
  -25.6108  -13.5208   20.5599 N   0  0  0  0  0  0  0  0  0  0  0  0
  -30.3048  -26.4775   17.2249 N   0  0  0  0  0  0  0  0  0  0  0  0
  -29.8535  -26.7638   22.5197 N   0  0  0  0  0  0  0  0  0  0  0  0
  -25.7136  -27.6381   24.0987 N   0  0  0  0  0  0  0  0  0  0  0  0
  -22.2948  -13.1594   21.8263 N   0  0  0  0  0  0  0  0  0  0  0  0
  -28.5108  -11.8076   20.2229 N   0  0  0  0  0  0  0  0  0  0  0  0
  -30.1489  -24.1487   16.6859 N   0  0  0  0  0  0  0  0  0  0  0  0
  -30.3440  -12.4237   17.1689 N   0  3  0  0  0  0  0  0  0  0  0  0
  -27.8472  -27.0456   24.6950 O   0  0  0  0  0  0  0  0  0  0  0  0
  -24.0515  -14.5643   22.4285 O   0  0  0  0  0  0  0  0  0  0  0  0
  -25.7581  -11.2006   20.7361 O   0  0  0  0  0  0  0  0  0  0  0  0
  -29.5770  -13.7469   19.5305 O   0  0  0  0  0  0  0  0  0  0  0  0
  -30.5122  -25.7333   15.0520 O   0  0  0  0  0  0  0  0  0  0  0  0
  -21.2752  -29.1060   21.0687 O   0  0  0  0  0  0  0  0  0  0  0  0
  -26.0762  -19.5861   19.5358 O   0  0  0  0  0  0  0  0  0  1  0  0
  -17.7409  -26.0837   24.0317 F   0  0  0  0  0  0  0  0  0  0  0  0
  -21.5315  -28.9103   23.8144 F   0  0  0  0  0  0  0  0  0  0  0  0
  1  2  1  0  0  0  0
  1  5  2  0  0  0  0
  2  6  2  0  0  0  0
  3  8  2  0  0  0  0
  3 16  1  0  0  0  0
  4  9  1  0  0  0  0
  4 16  2  0  0  0  0
  5 18  1  0  0  0  0
  6 20  1  0  0  0  0
  7 10  2  0  0  0  0
  7 19  1  0  0  0  0
  8 22  1  0  0  0  0
  9 22  2  0  0  0  0
 10 23  1  0  0  0  0
 11 12  2  0  0  0  0
 11 24  1  0  0  0  0
 12 25  1  0  0  0  0
 13 21  1  0  0  0  0
 13 23  2  0  0  0  0
 14 25  2  0  0  0  0
 14 26  1  0  0  0  0
 15 28  2  0  0  0  0
 15 66  1  0  0  0  0
 16 27  1  0  0  0  0
 17 27  1  0  0  0  0
 17 29  2  0  0  0  0
 17 31  1  0  0  0  0
 18 20  2  0  0  0  0
 18 36  1  0  0  0  0
 19 21  2  0  0  0  0
 19 37  1  0  0  0  0
 20 45  1  0  0  0  0
 21 38  1  0  0  0  0
 22 80  1  0  0  0  0
 23 81  1  0  0  0  0
 24 26  2  0  0  0  0
 24 80  1  0  0  0  0
 25 82  1  0  0  0  0
 26 83  1  0  0  0  0
 27 63  2  0  0  0  0
 28 56  1  0  0  0  0
 28 64  1  0  0  0  0
 29 65  1  0  0  0  0
 29 69  1  0  0  0  0
 30 57  1  0  0  0  0
 30 64  1  0  0  0  0
 30 66  2  0  0  0  0
 31 70  1  0  0  0  0
 31 75  2  0  0  0  0
 32 46  1  0  0  0  0
 32 71  1  0  0  0  0
 32 76  2  0  0  0  0
 33 59  1  0  0  0  0
 33 67  1  0  0  0  0
 33 77  2  0  0  0  0
 34 60  1  0  0  0  0
 34 72  1  0  0  0  0
 34 78  2  0  0  0  0
 35 68  1  0  0  0  0
 35 73  1  0  0  0  0
 35 79  2  0  0  0  0
 36 39  1  0  0  0  0
 37 46  1  0  0  0  0
 38 67  1  0  0  0  0
 39 41  1  0  0  0  0
 40 42  1  0  0  0  0
 40 43  1  0  0  0  0
 41 45  1  0  0  0  0
 42 47  1  0  0  0  0
 43 68  1  0  0  0  0
 44 47  1  0  0  0  0
 44 68  1  0  0  0  0
 45 71  1  0  0  0  0
 46 67  1  0  0  0  0
 47 65  1  0  0  0  0
 48 60  1  0  0  0  0
 49 61  1  0  0  0  0
 50 61  1  0  0  0  0
 51 62  1  0  0  0  0
 52 62  1  0  0  0  0
 53 62  1  0  0  0  0
 54 73  1  0  0  0  0
 55 74  1  0  0  0  0
 56 58  1  0  0  0  0
 57 73  1  0  0  0  0
 58 81  1  0  0  0  0
 59 62  1  0  0  0  0
 59 72  1  0  0  0  0
 60 74  1  0  0  0  0
 61 64  1  0  0  0  0
 63 65  1  0  0  0  0
M  CHG  2  66   1  74   1
M  ISO  4  35 100  58 101  73 100  81 101
M  END
> <Batch ID>
0059

> <Smiles>
CNC(C)C(=O)NC(C(=O)N1Cc2cc([101O:1][101CH2:1]Cc3cnc(C[100N:0](C)[100C:0](=O)N4CCCC(n5nc(-c6ccc(Oc7ccc(F)cc7F)cc6)c(C(N)=O)c5N)C4)n3C(C)C)ccc2CC1C(=O)NC1CCCc2ccccc21)C(C)(C)C

> <Shape>
0.259

> <Color>
0.052

> <Negative vol penalty>
0.000

$$$$

  -OEChem-04052317533D

 82 90  0     1  0  0  0  0  0999 V2000
  -26.8491  -19.8241   25.9359 C   0  0  0  0  0  0  0  0  0  0  0  0
  -27.1604  -20.6439   24.8559 C   0  0  0  0  0  0  0  0  0  0  0  0
  -24.1935  -12.9960   21.1283 C   0  0  0  0  0  0  0  0  0  0  0  0
  -26.4746  -12.3998   20.6005 C   0  0  0  0  0  0  0  0  0  0  0  0
  -25.5300  -19.7241   26.3762 C   0  0  0  0  0  0  0  0  0  0  0  0
  -26.1525  -21.3634   24.2149 C   0  0  0  0  0  0  0  0  0  0  0  0
  -27.4828  -26.1594   23.2801 C   0  0  0  0  0  0  0  0  0  0  0  0
  -23.7531  -11.7862   20.5916 C   0  0  0  0  0  0  0  0  0  0  0  0
  -26.0342  -11.1900   20.0638 C   0  0  0  0  0  0  0  0  0  0  0  0
  -28.3260  -26.3859   22.1931 C   0  0  0  0  0  0  0  0  0  0  0  0
  -22.0627   -8.6975   19.6874 C   0  0  0  0  0  0  0  0  0  0  0  0
  -21.1150   -7.9739   20.4109 C   0  0  0  0  0  0  0  0  0  0  0  0
  -26.4241  -27.0432   20.8626 C   0  0  0  0  0  0  0  0  0  0  0  0
  -22.6504   -7.8217   22.2700 C   0  0  0  0  0  0  0  0  0  0  0  0
  -30.9617  -24.9606   18.8159 C   0  0  0  0  0  0  0  0  0  0  0  0
  -25.5543  -13.3028   21.1327 C   0  0  0  0  0  0  0  0  0  0  0  0
  -26.3845  -14.8054   23.0197 C   0  0  0  0  0  0  0  0  0  0  0  0
  -24.5069  -20.4502   25.7464 C   0  0  0  0  0  0  0  0  0  0  0  0
  -26.1003  -26.3629   23.1631 C   0  0  0  0  0  0  0  0  0  0  0  0
  -24.8182  -21.2719   24.6463 C   0  0  0  0  0  0  0  0  0  0  0  0
  -25.5659  -26.8209   21.9504 C   0  0  0  0  0  0  0  0  0  0  0  0
  -24.6734  -10.8832   20.0593 C   0  0  0  0  0  0  0  0  0  0  0  0
  -27.7963  -26.8251   20.9833 C   0  0  0  0  0  0  0  0  0  0  0  0
  -23.3044   -8.9833   20.2551 C   0  0  0  0  0  0  0  0  0  0  0  0
  -21.4088   -7.5360   21.7023 C   0  0  0  0  0  0  0  0  0  0  0  0
  -23.5982   -8.5454   21.5464 C   0  0  0  0  0  0  0  0  0  0  0  0
  -26.0098  -14.5526   21.6865 C   0  0  0  0  0  0  0  0  0  0  0  0
  -29.8698  -25.1912   18.0275 C   0  0  0  0  0  0  0  0  0  0  0  0
  -26.7353  -16.1333   23.0319 C   0  0  0  0  0  0  0  0  0  0  0  0
  -30.2328  -23.0079   18.0703 C   0  0  0  0  0  0  0  0  0  0  0  0
  -26.4131  -13.9190   24.1463 C   0  0  0  0  0  0  0  0  0  0  0  0
  -23.5309  -24.5083   23.4129 C   0  0  0  0  0  0  0  0  0  0  0  0
  -21.9491  -27.3217   23.0888 C   0  0  0  0  0  0  0  0  0  0  0  0
  -21.9697  -30.5445   21.9662 C   0  0  0  0  0  0  0  0  0  0  0  0
  -28.7424  -19.7105   18.7857 C   0  0  0  0  0  0  0  0  0  0  0  0
  -23.0887  -20.2732   26.2281 C   0  0  0  0  0  0  0  0  0  0  0  0
  -25.2076  -26.1396   24.3529 C   0  0  0  0  0  0  0  0  0  0  0  0
  -24.0911  -27.0741   21.7790 C   0  0  0  0  0  0  0  0  0  0  0  0
  -22.1368  -21.3582   25.7312 C   0  0  0  0  0  0  0  0  0  0  0  0
  -25.8022  -20.2735   20.8194 C   0  0  0  0  0  0  0  0  0  0  0  0
  -22.3338  -21.5983   24.2378 C   0  0  0  0  0  0  0  0  0  0  0  0
  -25.5626  -18.8787   21.4002 C   0  0  0  0  0  0  0  0  0  0  0  0
  -26.2910  -20.1948   19.3761 C   0  0  0  0  0  0  0  0  0  0  0  0
  -27.2752  -17.9688   19.7635 C   0  0  0  0  0  0  0  0  0  0  0  0
  -23.7565  -22.0873   23.9406 C   0  0  1  0  0  0  0  0  0  0  0  0
  -23.7529  -25.8863   23.9692 C   0  0  1  0  0  0  0  0  0  0  0  0
  -26.8012  -17.9797   21.2282 C   0  0  2  0  0  0  0  0  0  0  0  0
  -31.7215  -22.2629   20.8180 C   0  0  0  0  0  0  0  0  0  0  0  0
  -30.2063  -21.1905   16.3216 C   0  0  0  0  0  0  0  0  0  0  0  0
  -20.5182  -32.5857   21.8110 C   0  0  0  0  0  0  0  0  0  0  0  0
  -20.3987  -26.0419   20.7935 C   0  0  0  0  0  0  0  0  0  0  0  0
  -19.6887  -28.3362   20.0861 C   0  0  0  0  0  0  0  0  0  0  0  0
  -19.0177  -27.4591   22.3229 C   0  0  0  0  0  0  0  0  0  0  0  0
  -23.8427  -32.1431   23.6078 C   0  0  0  0  0  0  0  0  0  0  0  0
  -29.1713  -26.4723   17.6412 C   0  0  0  0  0  0  0  0  0  0  0  0
  -32.2221  -22.9207   19.5436 C   0  0  0  0  0  0  0  0  0  0  0  0
  -28.0640  -26.8469   18.6203 C   0  0  0  0  0  0  0  0  0  1  0  0
  -30.0886  -21.5535   17.8119 C   0  0  2  0  0  0  0  0  0  0  0  0
  -21.4238  -28.1248   21.9234 C   0  0  1  0  0  0  0  0  0  0  0  0
  -21.5623  -31.8460   22.6329 C   0  0  2  0  0  0  0  0  0  0  0  0
  -20.1598  -27.4840   21.2838 C   0  0  0  0  0  0  0  0  0  0  0  0
  -26.1127  -15.6333   20.9082 N   0  0  0  0  0  0  0  0  0  0  0  0
  -31.1632  -23.6015   18.8250 N   0  0  0  0  0  0  0  0  0  0  0  0
  -26.5560  -16.5779   21.7551 N   0  0  0  0  0  0  0  0  0  0  0  0
  -29.4396  -23.9656   17.5795 N   0  3  0  0  0  0  0  0  0  0  0  0
  -23.2586  -26.8352   22.9695 N   0  0  0  0  0  0  0  0  0  0  0  0
  -27.4826  -19.3394   19.2842 N   0  0  0  0  0  0  0  0  0  0  0  0
  -27.1765  -16.9522   24.0102 N   0  0  0  0  0  0  0  0  0  0  0  0
  -26.0206  -12.5868   23.9584 N   0  0  0  0  0  0  0  0  0  0  0  0
  -23.8891  -23.4892   24.2746 N   0  0  0  0  0  0  0  0  0  0  0  0
  -21.2194  -29.4808   22.4213 N   0  0  0  0  0  0  0  0  0  0  0  0
  -28.8534  -21.0238   18.3455 N   0  0  0  0  0  0  0  0  0  0  0  0
  -22.7464  -32.7356   22.7991 N   0  3  0  0  0  0  0  0  0  0  0  0
  -26.7603  -14.3014   25.2895 O   0  0  0  0  0  0  0  0  0  0  0  0
  -23.0675  -24.3793   22.2858 O   0  0  0  0  0  0  0  0  0  0  0  0
  -21.2267  -27.1390   24.0719 O   0  0  0  0  0  0  0  0  0  0  0  0
  -22.8615  -30.4786   21.1230 O   0  0  0  0  0  0  0  0  0  0  0  0
  -29.6998  -18.9305   18.7412 O   0  0  0  0  0  0  0  0  0  0  0  0
  -24.2440   -9.7025   19.5357 O   0  0  0  0  0  0  0  0  0  0  0  0
  -28.6170  -27.0464   19.9205 O   0  0  0  0  0  0  0  0  0  1  0  0
  -20.4979   -6.8423   22.3976 F   0  0  0  0  0  0  0  0  0  0  0  0
  -24.7889   -8.8179   22.0976 F   0  0  0  0  0  0  0  0  0  0  0  0
  1  2  1  0  0  0  0
  1  5  2  0  0  0  0
  2  6  2  0  0  0  0
  3  8  2  0  0  0  0
  3 16  1  0  0  0  0
  4  9  1  0  0  0  0
  4 16  2  0  0  0  0
  5 18  1  0  0  0  0
  6 20  1  0  0  0  0
  7 10  2  0  0  0  0
  7 19  1  0  0  0  0
  8 22  1  0  0  0  0
  9 22  2  0  0  0  0
 10 23  1  0  0  0  0
 11 12  2  0  0  0  0
 11 24  1  0  0  0  0
 12 25  1  0  0  0  0
 13 21  1  0  0  0  0
 13 23  2  0  0  0  0
 14 25  2  0  0  0  0
 14 26  1  0  0  0  0
 15 28  2  0  0  0  0
 15 63  1  0  0  0  0
 16 27  1  0  0  0  0
 17 27  1  0  0  0  0
 17 29  2  0  0  0  0
 17 31  1  0  0  0  0
 18 20  2  0  0  0  0
 18 36  1  0  0  0  0
 19 21  2  0  0  0  0
 19 37  1  0  0  0  0
 20 45  1  0  0  0  0
 21 38  1  0  0  0  0
 22 79  1  0  0  0  0
 23 80  1  0  0  0  0
 24 26  2  0  0  0  0
 24 79  1  0  0  0  0
 25 81  1  0  0  0  0
 26 82  1  0  0  0  0
 27 62  2  0  0  0  0
 28 55  1  0  0  0  0
 28 65  1  0  0  0  0
 29 64  1  0  0  0  0
 29 68  1  0  0  0  0
 30 58  1  0  0  0  0
 30 63  1  0  0  0  0
 30 65  2  0  0  0  0
 31 69  1  0  0  0  0
 31 74  2  0  0  0  0
 32 46  1  0  0  0  0
 32 70  1  0  0  0  0
 32 75  2  0  0  0  0
 33 59  1  0  0  0  0
 33 66  1  0  0  0  0
 33 76  2  0  0  0  0
 34 60  1  0  0  0  0
 34 71  1  0  0  0  0
 34 77  2  0  0  0  0
 35 67  1  0  0  0  0
 35 72  1  0  0  0  0
 35 78  2  0  0  0  0
 36 39  1  0  0  0  0
 37 46  1  0  0  0  0
 38 66  1  0  0  0  0
 39 41  1  0  0  0  0
 40 42  1  0  0  0  0
 40 43  1  0  0  0  0
 41 45  1  0  0  0  0
 42 47  1  0  0  0  0
 43 67  1  0  0  0  0
 44 47  1  0  0  0  0
 44 67  1  0  0  0  0
 45 70  1  0  0  0  0
 46 66  1  0  0  0  0
 47 64  1  0  0  0  0
 48 56  1  0  0  0  0
 49 58  1  0  0  0  0
 50 60  1  0  0  0  0
 51 61  1  0  0  0  0
 52 61  1  0  0  0  0
 53 61  1  0  0  0  0
 54 73  1  0  0  0  0
 55 57  1  0  0  0  0
 56 63  1  0  0  0  0
 57 80  1  0  0  0  0
 58 72  1  0  0  0  0
 59 61  1  0  0  0  0
 59 71  1  0  0  0  0
 60 73  1  0  0  0  0
 62 64  1  0  0  0  0
M  CHG  2  65   1  73   1
M  ISO  4  35 100  57 101  72 100  80 101
M  END
> <Batch ID>
0059

> <Smiles>
CCn1cc(C[101CH2:1][101O:1]c2ccc3c(c2)CN(C(=O)C(NC(=O)C(C)NC)C(C)(C)C)C(C(=O)NC2CCCc4ccccc42)C3)nc1C(C)[100NH:0][100C:0](=O)N1CCCC(n2nc(-c3ccc(Oc4ccc(F)cc4F)cc3)c(C(N)=O)c2N)C1

> <Shape>
0.214

> <Color>
0.060

> <Negative vol penalty>
0.000

$$$$

  -OEChem-04052317533D

 84 92  0     1  0  0  0  0  0999 V2000
  -36.2703  -29.6946   18.1427 C   0  0  0  0  0  0  0  0  0  0  0  0
  -36.2075  -28.3282   18.3968 C   0  0  0  0  0  0  0  0  0  0  0  0
  -23.0588   -9.8142   20.0071 C   0  0  0  0  0  0  0  0  0  0  0  0
  -23.5418  -10.0535   22.3622 C   0  0  0  0  0  0  0  0  0  0  0  0
  -35.3987  -30.5648   18.7962 C   0  0  0  0  0  0  0  0  0  0  0  0
  -35.2737  -27.8314   19.3054 C   0  0  0  0  0  0  0  0  0  0  0  0
  -32.3148  -22.4788   18.9875 C   0  0  0  0  0  0  0  0  0  0  0  0
  -22.2590   -8.7054   20.2837 C   0  0  0  0  0  0  0  0  0  0  0  0
  -22.7420   -8.9447   22.6389 C   0  0  0  0  0  0  0  0  0  0  0  0
  -32.5389  -21.2455   19.5977 C   0  0  0  0  0  0  0  0  0  0  0  0
  -23.0050   -5.5783   22.4683 C   0  0  0  0  0  0  0  0  0  0  0  0
  -23.5027   -4.6260   23.3577 C   0  0  0  0  0  0  0  0  0  0  0  0
  -30.9484  -21.8152   21.3196 C   0  0  0  0  0  0  0  0  0  0  0  0
  -21.6167   -5.0055   24.8192 C   0  0  0  0  0  0  0  0  0  0  0  0
  -29.9467  -17.4044   19.6857 C   0  0  0  0  0  0  0  0  0  0  0  0
  -23.7002  -10.4882   21.0463 C   0  0  0  0  0  0  0  0  0  0  0  0
  -24.1234  -12.9809   20.7071 C   0  0  0  0  0  0  0  0  0  0  0  0
  -34.4473  -30.0773   19.7060 C   0  0  0  0  0  0  0  0  0  0  0  0
  -31.4123  -23.3956   19.5457 C   0  0  0  0  0  0  0  0  0  0  0  0
  -34.3894  -28.6960   19.9727 C   0  0  0  0  0  0  0  0  0  0  0  0
  -30.7127  -23.0585   20.7131 C   0  0  0  0  0  0  0  0  0  0  0  0
  -22.1006   -8.2707   21.5996 C   0  0  0  0  0  0  0  0  0  0  0  0
  -31.8578  -20.9147   20.7656 C   0  0  0  0  0  0  0  0  0  0  0  0
  -21.8132   -6.2443   22.7544 C   0  0  0  0  0  0  0  0  0  0  0  0
  -22.8085   -4.3396   24.5331 C   0  0  0  0  0  0  0  0  0  0  0  0
  -21.1190   -5.9578   23.9298 C   0  0  0  0  0  0  0  0  0  0  0  0
  -24.5270  -11.6333   20.7611 C   0  0  0  0  0  0  0  0  0  0  0  0
  -30.2656  -16.7897   18.5079 C   0  0  0  0  0  0  0  0  0  0  0  0
  -25.2711  -13.6711   20.4025 C   0  0  0  0  0  0  0  0  0  0  0  0
  -31.8947  -16.3872   19.9517 C   0  0  0  0  0  0  0  0  0  0  0  0
  -22.8270  -13.5573   20.9140 C   0  0  0  0  0  0  0  0  0  0  0  0
  -31.6454  -26.3384   20.7243 C   0  0  0  0  0  0  0  0  0  0  0  0
  -28.4137  -26.1102   20.8861 C   0  0  0  0  0  0  0  0  0  0  0  0
  -25.6566  -24.1080   21.0767 C   0  0  0  0  0  0  0  0  0  0  0  0
  -30.7576  -13.7563   21.4653 C   0  0  0  0  0  0  0  0  0  0  0  0
  -33.5580  -31.0617   20.4235 C   0  0  0  0  0  0  0  0  0  0  0  0
  -31.1619  -24.7110   18.8605 C   0  0  0  0  0  0  0  0  0  0  0  0
  -29.7183  -23.9992   21.3413 C   0  0  0  0  0  0  0  0  0  0  0  0
  -32.3471  -30.4146   21.0909 C   0  0  0  0  0  0  0  0  0  0  0  0
  -29.6128  -12.5100   18.3656 C   0  0  0  0  0  0  0  0  0  0  0  0
  -32.7668  -29.1702   21.8669 C   0  0  0  0  0  0  0  0  0  0  0  0
  -28.1318  -12.2772   18.6614 C   0  0  0  0  0  0  0  0  0  0  0  0
  -30.5033  -12.1158   19.5455 C   0  0  0  0  0  0  0  0  0  0  0  0
  -28.6384  -12.5226   21.1201 C   0  0  0  0  0  0  0  0  0  0  0  0
  -33.3737  -28.1162   20.9330 C   0  0  1  0  0  0  0  0  0  0  0  0
  -30.6036  -25.7766   19.7987 C   0  0  1  0  0  0  0  0  0  0  0  0
  -27.7178  -12.9668   19.9729 C   0  0  2  0  0  0  0  0  0  0  0  0
  -29.5573  -16.7250   17.2269 C   0  0  0  0  0  0  0  0  0  0  0  0
  -23.1541  -24.2112   21.2332 C   0  0  0  0  0  0  0  0  0  0  0  0
  -34.1632  -16.9742   21.0498 C   0  0  0  0  0  0  0  0  0  0  0  0
  -33.9747  -15.0667   19.4745 C   0  0  0  0  0  0  0  0  0  0  0  0
  -28.6319  -26.8789   23.8308 C   0  0  0  0  0  0  0  0  0  0  0  0
  -26.2905  -26.0511   24.1485 C   0  0  0  0  0  0  0  0  0  0  0  0
  -26.7379  -27.9612   22.6077 C   0  0  0  0  0  0  0  0  0  0  0  0
  -32.9374  -12.4992   21.1952 C   0  0  0  0  0  0  0  0  0  0  0  0
  -25.3209  -22.6549   18.5204 C   0  0  0  0  0  0  0  0  0  0  0  0
  -31.0406  -17.6214   21.9895 C   0  0  0  0  0  0  0  0  0  0  0  0
  -32.9216  -14.9029   21.7501 C   0  0  0  0  0  0  0  0  0  0  0  0
  -30.9875  -19.1419   22.0906 C   0  0  0  0  0  0  0  0  0  1  0  0
  -27.4265  -25.6274   21.9212 C   0  0  1  0  0  0  0  0  0  0  0  0
  -24.3517  -24.1140   20.3010 C   0  0  2  0  0  0  0  0  0  0  0  0
  -33.1596  -15.8782   20.5379 C   0  0  0  0  0  0  0  0  0  0  0  0
  -27.2918  -26.6125   23.1166 C   0  0  0  0  0  0  0  0  0  0  0  0
  -25.8293  -11.4747   20.5106 N   0  0  0  0  0  0  0  0  0  0  0  0
  -30.9718  -17.1383   20.5612 N   0  0  0  0  0  0  0  0  0  0  0  0
  -26.2540  -12.7315   20.2963 N   0  0  0  0  0  0  0  0  0  0  0  0
  -31.4758  -16.1684   18.7010 N   0  3  0  0  0  0  0  0  0  0  0  0
  -29.5127  -25.2759   20.6374 N   0  0  0  0  0  0  0  0  0  0  0  0
  -30.0449  -12.7580   20.7849 N   0  0  0  0  0  0  0  0  0  0  0  0
  -25.5254  -14.9840   20.2177 N   0  0  0  0  0  0  0  0  0  0  0  0
  -21.7576  -12.7044   21.2192 N   0  0  0  0  0  0  0  0  0  0  0  0
  -32.3305  -27.4220   20.2087 N   0  0  0  0  0  0  0  0  0  0  0  0
  -26.1779  -25.3776   21.2092 N   0  0  0  0  0  0  0  0  0  0  0  0
  -32.1572  -13.7222   21.3733 N   0  0  0  0  0  0  0  0  0  0  0  0
  -24.2214  -22.8660   19.4969 N   0  3  0  0  0  0  0  0  0  0  0  0
  -22.6197  -14.7904   20.8144 O   0  0  0  0  0  0  0  0  0  0  0  0
  -31.8140  -25.8276   21.8254 O   0  0  0  0  0  0  0  0  0  0  0  0
  -28.2132  -27.1845   20.3140 O   0  0  0  0  0  0  0  0  0  0  0  0
  -26.1609  -23.0803   21.5239 O   0  0  0  0  0  0  0  0  0  0  0  0
  -30.1767  -14.6269   22.1262 O   0  0  0  0  0  0  0  0  0  0  0  0
  -21.3200   -7.1889   21.8700 O   0  0  0  0  0  0  0  0  0  0  0  0
  -32.0752  -19.7118   21.3636 O   0  0  0  0  0  0  0  0  0  1  0  0
  -23.2857   -3.4239   25.3864 F   0  0  0  0  0  0  0  0  0  0  0  0
  -19.9729   -6.5935   24.2095 F   0  0  0  0  0  0  0  0  0  0  0  0
  1  2  1  0  0  0  0
  1  5  2  0  0  0  0
  2  6  2  0  0  0  0
  3  8  2  0  0  0  0
  3 16  1  0  0  0  0
  4  9  1  0  0  0  0
  4 16  2  0  0  0  0
  5 18  1  0  0  0  0
  6 20  1  0  0  0  0
  7 10  2  0  0  0  0
  7 19  1  0  0  0  0
  8 22  1  0  0  0  0
  9 22  2  0  0  0  0
 10 23  1  0  0  0  0
 11 12  2  0  0  0  0
 11 24  1  0  0  0  0
 12 25  1  0  0  0  0
 13 21  1  0  0  0  0
 13 23  2  0  0  0  0
 14 25  2  0  0  0  0
 14 26  1  0  0  0  0
 15 28  2  0  0  0  0
 15 65  1  0  0  0  0
 16 27  1  0  0  0  0
 17 27  1  0  0  0  0
 17 29  2  0  0  0  0
 17 31  1  0  0  0  0
 18 20  2  0  0  0  0
 18 36  1  0  0  0  0
 19 21  2  0  0  0  0
 19 37  1  0  0  0  0
 20 45  1  0  0  0  0
 21 38  1  0  0  0  0
 22 81  1  0  0  0  0
 23 82  1  0  0  0  0
 24 26  2  0  0  0  0
 24 81  1  0  0  0  0
 25 83  1  0  0  0  0
 26 84  1  0  0  0  0
 27 64  2  0  0  0  0
 28 48  1  0  0  0  0
 28 67  1  0  0  0  0
 29 66  1  0  0  0  0
 29 70  1  0  0  0  0
 30 62  1  0  0  0  0
 30 65  1  0  0  0  0
 30 67  2  0  0  0  0
 31 71  1  0  0  0  0
 31 76  2  0  0  0  0
 32 46  1  0  0  0  0
 32 72  1  0  0  0  0
 32 77  2  0  0  0  0
 33 60  1  0  0  0  0
 33 68  1  0  0  0  0
 33 78  2  0  0  0  0
 34 61  1  0  0  0  0
 34 73  1  0  0  0  0
 34 79  2  0  0  0  0
 35 69  1  0  0  0  0
 35 74  1  0  0  0  0
 35 80  2  0  0  0  0
 36 39  1  0  0  0  0
 37 46  1  0  0  0  0
 38 68  1  0  0  0  0
 39 41  1  0  0  0  0
 40 42  1  0  0  0  0
 40 43  1  0  0  0  0
 41 45  1  0  0  0  0
 42 47  1  0  0  0  0
 43 69  1  0  0  0  0
 44 47  1  0  0  0  0
 44 69  1  0  0  0  0
 45 72  1  0  0  0  0
 46 68  1  0  0  0  0
 47 66  1  0  0  0  0
 49 61  1  0  0  0  0
 50 62  1  0  0  0  0
 51 62  1  0  0  0  0
 52 63  1  0  0  0  0
 53 63  1  0  0  0  0
 54 63  1  0  0  0  0
 55 74  1  0  0  0  0
 56 75  1  0  0  0  0
 57 59  1  0  0  0  0
 57 65  1  0  0  0  0
 58 62  1  0  0  0  0
 58 74  1  0  0  0  0
 59 82  1  0  0  0  0
 60 63  1  0  0  0  0
 60 73  1  0  0  0  0
 61 75  1  0  0  0  0
 64 66  1  0  0  0  0
M  CHG  2  67   1  75   1
M  ISO  4  35 100  59 101  74 100  82 101
M  END
> <Batch ID>
0059

> <Smiles>
CNC(C)C(=O)NC(C(=O)N1Cc2cc([101O:1][101CH2:1]Cn3cc(C)nc3C(C)(C)C[100N:0](C)[100C:0](=O)N3CCCC(n4nc(-c5ccc(Oc6ccc(F)cc6F)cc5)c(C(N)=O)c4N)C3)ccc2CC1C(=O)NC1CCCc2ccccc21)C(C)(C)C

> <Shape>
0.237

> <Color>
0.190

> <Negative vol penalty>
0.000

$$$$

  -OEChem-04052317533D

 87 95  0     1  0  0  0  0  0999 V2000
  -20.1804  -30.8470   24.3160 C   0  0  0  0  0  0  0  0  0  0  0  0
  -21.4584  -30.3312   24.1262 C   0  0  0  0  0  0  0  0  0  0  0  0
  -26.5222  -12.6547   20.0708 C   0  0  0  0  0  0  0  0  0  0  0  0
  -24.5850  -14.0129   20.5602 C   0  0  0  0  0  0  0  0  0  0  0  0
  -19.0681  -30.1290   23.8787 C   0  0  0  0  0  0  0  0  0  0  0  0
  -21.6249  -29.0965   23.4999 C   0  0  0  0  0  0  0  0  0  0  0  0
  -25.3255  -29.1545   20.0435 C   0  0  0  0  0  0  0  0  0  0  0  0
  -25.9411  -11.5821   20.7471 C   0  0  0  0  0  0  0  0  0  0  0  0
  -24.0038  -12.9403   21.2365 C   0  0  0  0  0  0  0  0  0  0  0  0
  -26.6364  -29.0850   20.5130 C   0  0  0  0  0  0  0  0  0  0  0  0
  -21.8537  -10.4490   22.7820 C   0  0  0  0  0  0  0  0  0  0  0  0
  -20.5090  -10.1755   22.5318 C   0  0  0  0  0  0  0  0  0  0  0  0
  -26.6914  -26.7301   19.9926 C   0  0  0  0  0  0  0  0  0  0  0  0
  -21.0161   -9.8185   20.1967 C   0  0  0  0  0  0  0  0  0  0  0  0
  -31.1182  -26.3121   19.4515 C   0  0  0  0  0  0  0  0  0  0  0  0
  -25.8442  -13.8702   19.9774 C   0  0  0  0  0  0  0  0  0  0  0  0
  -26.3180  -15.2914   17.9127 C   0  0  0  0  0  0  0  0  0  0  0  0
  -19.2215  -28.8893   23.2381 C   0  0  0  0  0  0  0  0  0  0  0  0
  -24.6829  -28.0082   19.5543 C   0  0  0  0  0  0  0  0  0  0  0  0
  -20.5135  -28.3606   23.0548 C   0  0  0  0  0  0  0  0  0  0  0  0
  -25.3732  -26.7883   19.5151 C   0  0  0  0  0  0  0  0  0  0  0  0
  -24.6819  -11.7249   21.3299 C   0  0  0  0  0  0  0  0  0  0  0  0
  -27.3186  -27.8720   20.4903 C   0  0  0  0  0  0  0  0  0  0  0  0
  -22.7796  -10.4074   21.7396 C   0  0  0  0  0  0  0  0  0  0  0  0
  -20.0902   -9.8603   21.2392 C   0  0  0  0  0  0  0  0  0  0  0  0
  -22.3608  -10.0921   20.4469 C   0  0  0  0  0  0  0  0  0  0  0  0
  -26.4442  -14.9787   19.2794 C   0  0  0  0  0  0  0  0  0  0  0  0
  -31.1589  -27.7174   19.5238 C   0  0  0  0  0  0  0  0  0  0  0  0
  -31.4547  -26.0253   18.1511 C   0  0  0  0  0  0  0  0  0  0  0  0
  -27.0722  -16.4276   17.7493 C   0  0  0  0  0  0  0  0  0  0  0  0
  -25.5844  -14.6154   16.8828 C   0  0  0  0  0  0  0  0  0  0  0  0
  -22.1107  -26.3443   20.4023 C   0  0  0  0  0  0  0  0  0  0  0  0
  -22.7413  -24.7175   17.6676 C   0  0  0  0  0  0  0  0  0  0  0  0
  -25.0325  -23.7723   15.3216 C   0  0  0  0  0  0  0  0  0  0  0  0
  -28.6788  -21.3452   19.2316 C   0  0  0  0  0  0  0  0  0  0  0  0
  -17.9869  -28.1279   22.8251 C   0  0  0  0  0  0  0  0  0  0  0  0
  -23.2777  -28.1055   19.0267 C   0  0  0  0  0  0  0  0  0  0  0  0
  -24.7352  -25.5329   18.9810 C   0  0  0  0  0  0  0  0  0  0  0  0
  -18.2690  -27.0010   21.8348 C   0  0  0  0  0  0  0  0  0  0  0  0
  -30.3534  -18.6897   20.8490 C   0  0  0  0  0  0  0  0  0  0  0  0
  -19.4681  -26.1764   22.2919 C   0  0  0  0  0  0  0  0  0  0  0  0
  -29.4654  -17.5023   20.4796 C   0  0  0  0  0  0  0  0  0  0  0  0
  -29.5349  -19.9427   21.1659 C   0  0  0  0  0  0  0  0  0  0  0  0
  -27.6904  -19.1301   19.7305 C   0  0  0  0  0  0  0  0  0  0  0  0
  -20.7362  -27.0362   22.3575 C   0  0  1  0  0  0  0  0  0  0  0  0
  -22.5451  -26.7673   19.0275 C   0  0  1  0  0  0  0  0  0  0  0  0
  -28.4905  -17.8751   19.3493 C   0  0  2  0  0  0  0  0  0  0  0  0
  -25.2589  -22.4113   13.2255 C   0  0  0  0  0  0  0  0  0  0  0  0
  -33.0560  -24.5244   16.8761 C   0  0  0  0  0  0  0  0  0  0  0  0
  -30.7389  -24.6822   16.1039 C   0  0  0  0  0  0  0  0  0  0  0  0
  -22.6958  -22.1578   19.3277 C   0  0  0  0  0  0  0  0  0  0  0  0
  -23.8395  -20.9902   17.4311 C   0  0  0  0  0  0  0  0  0  0  0  0
  -21.5724  -21.9770   17.1006 C   0  0  0  0  0  0  0  0  0  0  0  0
  -31.3266  -22.0762   17.5985 C   0  0  0  0  0  0  0  0  0  0  0  0
  -32.0859  -23.3236   19.6129 C   0  0  0  0  0  0  0  0  0  0  0  0
  -32.0479  -27.4554   16.1719 C   0  0  0  0  0  0  0  0  0  0  0  0
  -29.2045  -22.8896   21.1663 C   0  0  0  0  0  0  0  0  0  0  0  0
  -25.8454  -26.1357   13.7364 C   0  0  0  0  0  0  0  0  0  0  0  0
  -30.8712  -28.5853   20.7248 C   0  0  0  0  0  0  0  0  0  0  0  0
  -29.6993  -23.5556   18.8430 C   0  0  0  0  0  0  0  0  0  0  0  0
  -29.3999  -28.9745   20.8197 C   0  0  0  0  0  0  0  0  0  1  0  0
  -23.5726  -23.5092   17.3100 C   0  0  1  0  0  0  0  0  0  0  0  0
  -24.9870  -23.7910   13.8043 C   0  0  2  0  0  0  0  0  0  0  0  0
  -31.5882  -24.7369   17.4469 C   0  0  0  0  0  0  0  0  0  0  0  0
  -22.9317  -22.1816   17.8043 C   0  0  0  0  0  0  0  0  0  0  0  0
  -31.1793  -23.4223   18.3578 C   0  0  0  0  0  0  0  0  0  0  0  0
  -27.2180  -15.8461   19.9375 N   0  0  0  0  0  0  0  0  0  0  0  0
  -31.4950  -28.2840   18.3619 N   0  0  0  0  0  0  0  0  0  0  0  0
  -31.6686  -27.2294   17.5472 N   0  0  0  0  0  0  0  0  0  0  0  0
  -27.5848  -16.7150   18.9801 N   0  0  0  0  0  0  0  0  0  0  0  0
  -23.3576  -25.6779   18.4823 N   0  0  0  0  0  0  0  0  0  0  0  0
  -28.5849  -20.2351   20.0839 N   0  0  0  0  0  0  0  0  0  0  0  0
  -27.3405  -17.1988   16.6743 N   0  0  0  0  0  0  0  0  0  0  0  0
  -24.8632  -13.4628   17.2230 N   0  0  0  0  0  0  0  0  0  0  0  0
  -21.2734  -27.2465   21.0302 N   0  0  0  0  0  0  0  0  0  0  0  0
  -23.7825  -23.5705   15.8675 N   0  0  0  0  0  0  0  0  0  0  0  0
  -29.2586  -22.5102   19.7559 N   0  0  0  0  0  0  0  0  0  0  0  0
  -26.0070  -24.7354   13.2671 N   0  3  0  0  0  0  0  0  0  0  0  0
  -25.5822  -15.0120   15.6928 O   0  0  0  0  0  0  0  0  0  0  0  0
  -22.5047  -25.2775   20.8589 O   0  0  0  0  0  0  0  0  0  0  0  0
  -21.5901  -24.8094   17.2340 O   0  0  0  0  0  0  0  0  0  0  0  0
  -26.0734  -23.9181   15.9586 O   0  0  0  0  0  0  0  0  0  0  0  0
  -28.2602  -21.3018   18.0675 O   0  0  0  0  0  0  0  0  0  0  0  0
  -24.1144  -10.6784   21.9897 O   0  0  0  0  0  0  0  0  0  0  0  0
  -28.5980  -27.8012   20.9485 O   0  0  0  0  0  0  0  0  0  1  0  0
  -18.7992   -9.5961   20.9993 F   0  0  0  0  0  0  0  0  0  0  0  0
  -23.2459  -10.0494   19.4416 F   0  0  0  0  0  0  0  0  0  0  0  0
  1  2  1  0  0  0  0
  1  5  2  0  0  0  0
  2  6  2  0  0  0  0
  3  8  2  0  0  0  0
  3 16  1  0  0  0  0
  4  9  1  0  0  0  0
  4 16  2  0  0  0  0
  5 18  1  0  0  0  0
  6 20  1  0  0  0  0
  7 10  2  0  0  0  0
  7 19  1  0  0  0  0
  8 22  1  0  0  0  0
  9 22  2  0  0  0  0
 10 23  1  0  0  0  0
 11 12  2  0  0  0  0
 11 24  1  0  0  0  0
 12 25  1  0  0  0  0
 13 21  1  0  0  0  0
 13 23  2  0  0  0  0
 14 25  2  0  0  0  0
 14 26  1  0  0  0  0
 15 28  1  0  0  0  0
 15 29  2  0  0  0  0
 16 27  1  0  0  0  0
 17 27  1  0  0  0  0
 17 30  2  0  0  0  0
 17 31  1  0  0  0  0
 18 20  2  0  0  0  0
 18 36  1  0  0  0  0
 19 21  2  0  0  0  0
 19 37  1  0  0  0  0
 20 45  1  0  0  0  0
 21 38  1  0  0  0  0
 22 84  1  0  0  0  0
 23 85  1  0  0  0  0
 24 26  2  0  0  0  0
 24 84  1  0  0  0  0
 25 86  1  0  0  0  0
 26 87  1  0  0  0  0
 27 67  2  0  0  0  0
 28 59  1  0  0  0  0
 28 68  2  0  0  0  0
 29 64  1  0  0  0  0
 29 69  1  0  0  0  0
 30 70  1  0  0  0  0
 30 73  1  0  0  0  0
 31 74  1  0  0  0  0
 31 79  2  0  0  0  0
 32 46  1  0  0  0  0
 32 75  1  0  0  0  0
 32 80  2  0  0  0  0
 33 62  1  0  0  0  0
 33 71  1  0  0  0  0
 33 81  2  0  0  0  0
 34 63  1  0  0  0  0
 34 76  1  0  0  0  0
 34 82  2  0  0  0  0
 35 72  1  0  0  0  0
 35 77  1  0  0  0  0
 35 83  2  0  0  0  0
 36 39  1  0  0  0  0
 37 46  1  0  0  0  0
 38 71  1  0  0  0  0
 39 41  1  0  0  0  0
 40 42  1  0  0  0  0
 40 43  1  0  0  0  0
 41 45  1  0  0  0  0
 42 47  1  0  0  0  0
 43 72  1  0  0  0  0
 44 47  1  0  0  0  0
 44 72  1  0  0  0  0
 45 75  1  0  0  0  0
 46 71  1  0  0  0  0
 47 70  1  0  0  0  0
 48 63  1  0  0  0  0
 49 64  1  0  0  0  0
 50 64  1  0  0  0  0
 51 65  1  0  0  0  0
 52 65  1  0  0  0  0
 53 65  1  0  0  0  0
 54 66  1  0  0  0  0
 55 66  1  0  0  0  0
 56 69  1  0  0  0  0
 57 77  1  0  0  0  0
 58 78  1  0  0  0  0
 59 61  1  0  0  0  0
 60 66  1  0  0  0  0
 60 77  1  0  0  0  0
 61 85  1  0  0  0  0
 62 65  1  0  0  0  0
 62 76  1  0  0  0  0
 63 78  1  0  0  0  0
 64 66  1  0  0  0  0
 67 70  1  0  0  0  0
 68 69  1  0  0  0  0
M  CHG  1  78   1
M  ISO  4  35 100  61 101  77 100  85 101
M  END
> <Batch ID>
0059

> <Smiles>
CNC(C)C(=O)NC(C(=O)N1Cc2cc([101O:1][101CH2:1]Cc3cc(C(C)(C)C(C)(C)C[100N:0](C)[100C:0](=O)N4CCCC(n5nc(-c6ccc(Oc7ccc(F)cc7F)cc6)c(C(N)=O)c5N)C4)n(C)n3)ccc2CC1C(=O)NC1CCCc2ccccc21)C(C)(C)C

> <Shape>
0.273

> <Color>
0.058

> <Negative vol penalty>
0.000

$$$$

  -OEChem-04052317533D

 84 92  0     1  0  0  0  0  0999 V2000
  -19.8380  -34.3090   21.8595 C   0  0  0  0  0  0  0  0  0  0  0  0
  -21.0930  -33.8837   21.4360 C   0  0  0  0  0  0  0  0  0  0  0  0
  -24.9906  -16.2143   21.4367 C   0  0  0  0  0  0  0  0  0  0  0  0
  -25.1862  -15.6102   19.1056 C   0  0  0  0  0  0  0  0  0  0  0  0
  -19.1514  -33.5877   22.8353 C   0  0  0  0  0  0  0  0  0  0  0  0
  -21.6628  -32.7374   21.9889 C   0  0  0  0  0  0  0  0  0  0  0  0
  -25.2280  -28.6555   19.1370 C   0  0  0  0  0  0  0  0  0  0  0  0
  -23.8263  -15.4527   21.5364 C   0  0  0  0  0  0  0  0  0  0  0  0
  -24.0219  -14.8486   19.2053 C   0  0  0  0  0  0  0  0  0  0  0  0
  -26.6113  -28.4865   19.0939 C   0  0  0  0  0  0  0  0  0  0  0  0
  -21.2995  -12.4538   18.9377 C   0  0  0  0  0  0  0  0  0  0  0  0
  -21.3033  -11.1835   18.3616 C   0  0  0  0  0  0  0  0  0  0  0  0
  -26.4602  -26.8494   20.8591 C   0  0  0  0  0  0  0  0  0  0  0  0
  -23.1311  -10.5355   19.8026 C   0  0  0  0  0  0  0  0  0  0  0  0
  -31.1662  -26.5576   18.8237 C   0  0  0  0  0  0  0  0  0  0  0  0
  -25.6706  -16.2931   20.2213 C   0  0  0  0  0  0  0  0  0  0  0  0
  -28.1940  -16.6475   20.3403 C   0  0  0  0  0  0  0  0  0  0  0  0
  -19.7088  -32.4265   23.3935 C   0  0  0  0  0  0  0  0  0  0  0  0
  -24.4504  -27.9295   20.0505 C   0  0  0  0  0  0  0  0  0  0  0  0
  -20.9836  -32.0006   22.9741 C   0  0  0  0  0  0  0  0  0  0  0  0
  -25.0670  -27.0091   20.9101 C   0  0  0  0  0  0  0  0  0  0  0  0
  -23.3419  -14.7699   20.4207 C   0  0  0  0  0  0  0  0  0  0  0  0
  -27.2279  -27.5855   19.9570 C   0  0  0  0  0  0  0  0  0  0  0  0
  -22.2115  -12.7651   19.9462 C   0  0  0  0  0  0  0  0  0  0  0  0
  -22.2190  -10.2244   18.7940 C   0  0  0  0  0  0  0  0  0  0  0  0
  -23.1273  -11.8059   20.3786 C   0  0  0  0  0  0  0  0  0  0  0  0
  -26.8731  -17.0801   20.1175 C   0  0  0  0  0  0  0  0  0  0  0  0
  -30.7585  -27.8551   19.0575 C   0  0  0  0  0  0  0  0  0  0  0  0
  -32.5233  -26.3303   18.9280 C   0  0  0  0  0  0  0  0  0  0  0  0
  -28.9632  -17.7628   20.1149 C   0  0  0  0  0  0  0  0  0  0  0  0
  -32.9004  -28.5124   19.4415 C   0  0  0  0  0  0  0  0  0  0  0  0
  -28.6822  -15.3531   20.7172 C   0  0  0  0  0  0  0  0  0  0  0  0
  -22.5531  -28.6916   22.4843 C   0  0  0  0  0  0  0  0  0  0  0  0
  -21.9155  -25.5111   22.4760 C   0  0  0  0  0  0  0  0  0  0  0  0
  -22.9271  -22.3555   21.6600 C   0  0  0  0  0  0  0  0  0  0  0  0
  -29.9563  -22.1401   16.6263 C   0  0  0  0  0  0  0  0  0  0  0  0
  -18.9494  -31.7065   24.4796 C   0  0  0  0  0  0  0  0  0  0  0  0
  -22.9565  -28.1037   20.0661 C   0  0  0  0  0  0  0  0  0  0  0  0
  -24.2748  -26.1905   21.8954 C   0  0  0  0  0  0  0  0  0  0  0  0
  -19.4601  -30.2927   24.7452 C   0  0  0  0  0  0  0  0  0  0  0  0
  -27.6720  -22.6055   19.5015 C   0  0  0  0  0  0  0  0  0  0  0  0
  -20.9822  -30.2849   24.8455 C   0  0  0  0  0  0  0  0  0  0  0  0
  -27.3195  -21.1687   19.8828 C   0  0  0  0  0  0  0  0  0  0  0  0
  -28.0064  -22.7329   18.0184 C   0  0  0  0  0  0  0  0  0  0  0  0
  -28.7227  -20.3675   17.9413 C   0  0  0  0  0  0  0  0  0  0  0  0
  -21.6240  -30.7482   23.5321 C   0  0  1  0  0  0  0  0  0  0  0  0
  -22.3203  -27.6893   21.3893 C   0  0  1  0  0  0  0  0  0  0  0  0
  -28.4258  -20.1961   19.4386 C   0  0  2  0  0  0  0  0  0  0  0  0
  -33.8633  -29.5978   19.7848 C   0  0  0  0  0  0  0  0  0  0  0  0
  -22.2102  -19.9555   21.8135 C   0  0  0  0  0  0  0  0  0  0  0  0
  -22.6533  -25.4826   25.4365 C   0  0  0  0  0  0  0  0  0  0  0  0
  -22.8432  -22.9902   25.2937 C   0  0  0  0  0  0  0  0  0  0  0  0
  -20.6545  -24.1002   24.8462 C   0  0  0  0  0  0  0  0  0  0  0  0
  -31.9940  -21.3635   15.4755 C   0  0  0  0  0  0  0  0  0  0  0  0
  -22.9117  -22.0509   18.7162 C   0  0  0  0  0  0  0  0  0  0  0  0
  -29.3011  -28.2000   18.9670 C   0  0  0  0  0  0  0  0  0  1  0  0
  -32.8731  -22.6199   18.2436 C   0  0  0  0  0  0  0  0  0  0  0  0
  -32.1055  -23.9359   18.3645 C   0  0  0  0  0  0  0  0  0  0  0  0
  -31.9909  -21.4105   17.9419 C   0  0  0  0  0  0  0  0  0  0  0  0
  -22.5154  -24.2987   23.1463 C   0  0  1  0  0  0  0  0  0  0  0  0
  -22.2071  -21.2157   20.9622 C   0  0  2  0  0  0  0  0  0  0  0  0
  -22.1820  -24.2346   24.6636 C   0  0  0  0  0  0  0  0  0  0  0  0
  -26.8033  -18.3697   19.7770 N   0  0  0  0  0  0  0  0  0  0  0  0
  -31.6016  -28.8610   19.3699 N   0  0  0  0  0  0  0  0  0  0  0  0
  -33.4223  -27.2880   19.2361 N   0  0  0  0  0  0  0  0  0  0  0  0
  -28.0902  -18.7571   19.7841 N   0  0  0  0  0  0  0  0  0  0  0  0
  -22.8179  -26.4012   21.8767 N   0  0  0  0  0  0  0  0  0  0  0  0
  -29.0293  -21.7680   17.6137 N   0  0  0  0  0  0  0  0  0  0  0  0
  -30.2945  -17.9803   20.1695 N   0  0  0  0  0  0  0  0  0  0  0  0
  -27.7555  -14.3191   20.9081 N   0  0  0  0  0  0  0  0  0  0  0  0
  -32.9833  -25.0109   18.6955 N   0  0  0  0  0  0  0  0  0  0  0  0
  -21.5938  -29.6839   22.5519 N   0  0  0  0  0  0  0  0  0  0  0  0
  -22.0567  -23.1422   22.3843 N   0  0  0  0  0  0  0  0  0  0  0  0
  -31.2351  -21.5674   16.7012 N   0  0  0  0  0  0  0  0  0  0  0  0
  -22.8656  -20.9060   19.6617 N   0  3  0  0  0  0  0  0  0  0  0  0
  -29.9026  -15.1245   20.8958 O   0  0  0  0  0  0  0  0  0  0  0  0
  -23.5299  -28.5726   23.2147 O   0  0  0  0  0  0  0  0  0  0  0  0
  -20.6908  -25.6590   22.4777 O   0  0  0  0  0  0  0  0  0  0  0  0
  -24.1409  -22.5283   21.5743 O   0  0  0  0  0  0  0  0  0  0  0  0
  -29.6609  -22.9459   15.7344 O   0  0  0  0  0  0  0  0  0  0  0  0
  -22.2060  -14.0264   20.5177 O   0  0  0  0  0  0  0  0  0  0  0  0
  -28.5779  -27.4191   19.9175 O   0  0  0  0  0  0  0  0  0  1  0  0
  -22.2215   -9.0040   18.2418 F   0  0  0  0  0  0  0  0  0  0  0  0
  -24.0051  -12.0986   21.3479 F   0  0  0  0  0  0  0  0  0  0  0  0
  1  2  1  0  0  0  0
  1  5  2  0  0  0  0
  2  6  2  0  0  0  0
  3  8  2  0  0  0  0
  3 16  1  0  0  0  0
  4  9  1  0  0  0  0
  4 16  2  0  0  0  0
  5 18  1  0  0  0  0
  6 20  1  0  0  0  0
  7 10  2  0  0  0  0
  7 19  1  0  0  0  0
  8 22  1  0  0  0  0
  9 22  2  0  0  0  0
 10 23  1  0  0  0  0
 11 12  2  0  0  0  0
 11 24  1  0  0  0  0
 12 25  1  0  0  0  0
 13 21  1  0  0  0  0
 13 23  2  0  0  0  0
 14 25  2  0  0  0  0
 14 26  1  0  0  0  0
 15 28  1  0  0  0  0
 15 29  2  0  0  0  0
 16 27  1  0  0  0  0
 17 27  1  0  0  0  0
 17 30  2  0  0  0  0
 17 32  1  0  0  0  0
 18 20  2  0  0  0  0
 18 37  1  0  0  0  0
 19 21  2  0  0  0  0
 19 38  1  0  0  0  0
 20 46  1  0  0  0  0
 21 39  1  0  0  0  0
 22 81  1  0  0  0  0
 23 82  1  0  0  0  0
 24 26  2  0  0  0  0
 24 81  1  0  0  0  0
 25 83  1  0  0  0  0
 26 84  1  0  0  0  0
 27 63  2  0  0  0  0
 28 56  1  0  0  0  0
 28 64  2  0  0  0  0
 29 65  1  0  0  0  0
 29 71  1  0  0  0  0
 30 66  1  0  0  0  0
 30 69  1  0  0  0  0
 31 49  1  0  0  0  0
 31 64  1  0  0  0  0
 31 65  2  0  0  0  0
 32 70  1  0  0  0  0
 32 76  2  0  0  0  0
 33 47  1  0  0  0  0
 33 72  1  0  0  0  0
 33 77  2  0  0  0  0
 34 60  1  0  0  0  0
 34 67  1  0  0  0  0
 34 78  2  0  0  0  0
 35 61  1  0  0  0  0
 35 73  1  0  0  0  0
 35 79  2  0  0  0  0
 36 68  1  0  0  0  0
 36 74  1  0  0  0  0
 36 80  2  0  0  0  0
 37 40  1  0  0  0  0
 38 47  1  0  0  0  0
 39 67  1  0  0  0  0
 40 42  1  0  0  0  0
 41 43  1  0  0  0  0
 41 44  1  0  0  0  0
 42 46  1  0  0  0  0
 43 48  1  0  0  0  0
 44 68  1  0  0  0  0
 45 48  1  0  0  0  0
 45 68  1  0  0  0  0
 46 72  1  0  0  0  0
 47 67  1  0  0  0  0
 48 66  1  0  0  0  0
 50 61  1  0  0  0  0
 51 62  1  0  0  0  0
 52 62  1  0  0  0  0
 53 62  1  0  0  0  0
 54 74  1  0  0  0  0
 55 75  1  0  0  0  0
 56 82  1  0  0  0  0
 57 58  1  0  0  0  0
 57 59  1  0  0  0  0
 58 71  1  0  0  0  0
 59 74  1  0  0  0  0
 60 62  1  0  0  0  0
 60 73  1  0  0  0  0
 61 75  1  0  0  0  0
 63 66  1  0  0  0  0
M  CHG  1  75   1
M  ISO  4  36 100  56 101  74 100  82 101
M  END
> <Batch ID>
0059

> <Smiles>
CNC(C)C(=O)NC(C(=O)N1Cc2cc([101O:1][101CH2:1]c3cc(NCCC[100N:0](C)[100C:0](=O)N4CCCC(n5nc(-c6ccc(Oc7ccc(F)cc7F)cc6)c(C(N)=O)c5N)C4)nc(C)n3)ccc2CC1C(=O)NC1CCCc2ccccc21)C(C)(C)C

> <Shape>
0.190

> <Color>
0.092

> <Negative vol penalty>
0.000

$$$$

  -OEChem-04052317533D

 90 98  0     1  0  0  0  0  0999 V2000
  -18.7727  -24.8603   22.9043 C   0  0  0  0  0  0  0  0  0  0  0  0
  -19.9362  -24.8918   22.1423 C   0  0  0  0  0  0  0  0  0  0  0  0
  -24.3789  -13.4733   21.0296 C   0  0  0  0  0  0  0  0  0  0  0  0
  -26.5135  -13.0527   19.9792 C   0  0  0  0  0  0  0  0  0  0  0  0
  -18.1159  -26.0486   23.2213 C   0  0  0  0  0  0  0  0  0  0  0  0
  -20.4430  -26.1118   21.6957 C   0  0  0  0  0  0  0  0  0  0  0  0
  -26.3393  -27.6251   21.0258 C   0  0  0  0  0  0  0  0  0  0  0  0
  -23.9771  -12.1705   20.7349 C   0  0  0  0  0  0  0  0  0  0  0  0
  -26.1118  -11.7498   19.6846 C   0  0  0  0  0  0  0  0  0  0  0  0
  -27.1797  -27.6542   19.9137 C   0  0  0  0  0  0  0  0  0  0  0  0
  -24.4836   -9.0665   21.9767 C   0  0  0  0  0  0  0  0  0  0  0  0
  -23.8497   -8.3400   22.9845 C   0  0  0  0  0  0  0  0  0  0  0  0
  -26.7328  -30.0095   19.6452 C   0  0  0  0  0  0  0  0  0  0  0  0
  -21.8906   -8.1132   21.5889 C   0  0  0  0  0  0  0  0  0  0  0  0
  -27.1637  -23.8693   18.3556 C   0  0  0  0  0  0  0  0  0  0  0  0
  -25.6471  -13.9144   20.6517 C   0  0  0  0  0  0  0  0  0  0  0  0
  -26.7218  -15.7048   22.1170 C   0  0  0  0  0  0  0  0  0  0  0  0
  -18.6202  -27.2845   22.7866 C   0  0  0  0  0  0  0  0  0  0  0  0
  -25.6797  -28.7876   21.4501 C   0  0  0  0  0  0  0  0  0  0  0  0
  -19.7916  -27.3176   22.0061 C   0  0  0  0  0  0  0  0  0  0  0  0
  -25.8866  -29.9931   20.7645 C   0  0  0  0  0  0  0  0  0  0  0  0
  -24.8436  -11.3087   20.0624 C   0  0  0  0  0  0  0  0  0  0  0  0
  -27.3743  -28.8459   19.2215 C   0  0  0  0  0  0  0  0  0  0  0  0
  -23.8210   -9.3165   20.7749 C   0  0  0  0  0  0  0  0  0  0  0  0
  -22.5532   -7.8633   22.7907 C   0  0  0  0  0  0  0  0  0  0  0  0
  -22.5246   -8.8398   20.5810 C   0  0  0  0  0  0  0  0  0  0  0  0
  -26.0624  -15.2603   20.9554 C   0  0  0  0  0  0  0  0  0  0  0  0
  -28.7967  -22.7232   17.6138 C   0  0  0  0  0  0  0  0  0  0  0  0
  -28.5714  -23.6963   16.6689 C   0  0  0  0  0  0  0  0  0  0  0  0
  -26.8918  -17.0535   21.9205 C   0  0  0  0  0  0  0  0  0  0  0  0
  -27.1431  -14.9648   23.2705 C   0  0  0  0  0  0  0  0  0  0  0  0
  -22.6372  -29.6599   21.7438 C   0  0  0  0  0  0  0  0  0  0  0  0
  -23.9326  -32.3059   23.1014 C   0  0  0  0  0  0  0  0  0  0  0  0
  -26.6300  -34.3714   23.4244 C   0  0  0  0  0  0  0  0  0  0  0  0
  -26.9567  -20.1527   16.6357 C   0  0  0  0  0  0  0  0  0  0  0  0
  -17.8495  -28.5388   23.1142 C   0  0  0  0  0  0  0  0  0  0  0  0
  -24.7974  -28.7454   22.6675 C   0  0  0  0  0  0  0  0  0  0  0  0
  -25.2177  -31.2732   21.1916 C   0  0  0  0  0  0  0  0  0  0  0  0
  -18.6578  -29.8189   22.9188 C   0  0  0  0  0  0  0  0  0  0  0  0
  -24.9465  -20.7971   19.6763 C   0  0  0  0  0  0  0  0  0  0  0  0
  -19.3908  -29.7884   21.5814 C   0  0  0  0  0  0  0  0  0  0  0  0
  -25.0084  -19.4567   20.4068 C   0  0  0  0  0  0  0  0  0  0  0  0
  -25.0792  -20.6266   18.1660 C   0  0  0  0  0  0  0  0  0  0  0  0
  -26.3540  -18.5313   18.4798 C   0  0  0  0  0  0  0  0  0  0  0  0
  -20.3860  -28.6232   21.5242 C   0  0  1  0  0  0  0  0  0  0  0  0
  -23.7735  -29.8758   22.7029 C   0  0  1  0  0  0  0  0  0  0  0  0
  -26.2699  -18.6719   20.0071 C   0  0  2  0  0  0  0  0  0  0  0  0
  -25.1956  -24.1550   15.2223 C   0  0  0  0  0  0  0  0  0  0  0  0
  -27.3751  -36.4732   24.5754 C   0  0  0  0  0  0  0  0  0  0  0  0
  -22.3153  -33.9640   21.1152 C   0  0  0  0  0  0  0  0  0  0  0  0
  -23.7846  -35.9176   21.6562 C   0  0  0  0  0  0  0  0  0  0  0  0
  -22.3763  -34.8870   23.4387 C   0  0  0  0  0  0  0  0  0  0  0  0
  -29.4468  -26.8567   17.9469 C   0  0  0  0  0  0  0  0  0  0  0  0
  -28.6405  -28.0905   15.9274 C   0  0  0  0  0  0  0  0  0  0  0  0
  -28.9904  -19.5839   15.3629 C   0  0  0  0  0  0  0  0  0  0  0  0
  -28.7845  -32.9518   24.8743 C   0  0  0  0  0  0  0  0  0  0  0  0
  -29.8119  -21.6580   17.6070 C   0  0  0  0  0  0  0  0  0  0  0  0
  -25.3806  -25.3437   16.1586 C   0  0  0  0  0  0  0  0  0  0  0  0
  -26.9509  -26.9130   17.3748 C   0  0  0  0  0  0  0  0  0  0  0  0
  -29.2368  -20.2331   17.7300 C   0  0  0  0  0  0  0  0  0  0  0  0
  -24.4089  -33.6447   22.5919 C   0  0  1  0  0  0  0  0  0  0  0  0
  -27.3104  -34.9556   24.6493 C   0  0  2  0  0  0  0  0  0  0  0  0
  -26.8634  -25.6274   16.5064 C   0  0  1  0  0  0  0  0  0  0  0  0
  -29.2354  -23.9949   15.3875 C   0  0  0  0  0  0  0  0  0  0  0  0
  -23.2325  -34.5790   22.1910 C   0  0  0  0  0  0  0  0  0  0  0  0
  -28.2967  -27.6800   17.3652 C   0  0  0  0  0  0  0  0  0  1  0  0
  -27.9169  -22.8362   18.6611 N   0  0  0  0  0  0  0  0  0  0  0  0
  -25.8293  -16.2466   20.0854 N   0  0  0  0  0  0  0  0  0  0  0  0
  -27.5221  -24.4224   17.1577 N   0  0  0  0  0  0  0  0  0  0  0  0
  -26.3449  -17.3243   20.7008 N   0  0  0  0  0  0  0  0  0  0  0  0
  -24.3595  -31.1793   22.3842 N   0  0  0  0  0  0  0  0  0  0  0  0
  -26.2628  -19.8405   17.8163 N   0  0  0  0  0  0  0  0  0  0  0  0
  -27.4542  -18.0223   22.6738 N   0  0  0  0  0  0  0  0  0  0  0  0
  -26.8899  -13.5868   23.3094 N   0  0  0  0  0  0  0  0  0  0  0  0
  -21.5819  -28.9426   22.2741 N   0  0  0  0  0  0  0  0  0  0  0  0
  -25.2785  -34.1902   23.6286 N   0  0  0  0  0  0  0  0  0  0  0  0
  -28.3388  -19.9109   16.6232 N   0  0  0  0  0  0  0  0  0  0  0  0
  -28.7002  -34.4313   24.7693 N   0  3  0  0  0  0  0  0  0  0  0  0
  -27.7121  -15.5122   24.2452 O   0  0  0  0  0  0  0  0  0  0  0  0
  -22.7118  -30.1120   20.6072 O   0  0  0  0  0  0  0  0  0  0  0  0
  -23.2142  -32.2608   24.1032 O   0  0  0  0  0  0  0  0  0  0  0  0
  -27.2362  -34.1061   22.3887 O   0  0  0  0  0  0  0  0  0  0  0  0
  -26.3758  -20.6299   15.6525 O   0  0  0  0  0  0  0  0  0  0  0  0
  -24.4520  -10.0373   19.7749 O   0  0  0  0  0  0  0  0  0  0  0  0
  -28.1936  -28.8769   18.1354 O   0  0  0  0  0  0  0  0  0  1  0  0
  -21.9452   -7.1643   23.7581 F   0  0  0  0  0  0  0  0  0  0  0  0
  -21.8834   -9.0757   19.4282 F   0  0  0  0  0  0  0  0  0  0  0  0
  -30.2703  -23.1477   15.0763 F   0  0  0  0  0  0  0  0  0  0  0  0
  -28.4064  -23.9344   14.2946 F   0  0  0  0  0  0  0  0  0  0  0  0
  -29.7851  -25.2509   15.3409 F   0  0  0  0  0  0  0  0  0  0  0  0
  1  2  1  0  0  0  0
  1  5  2  0  0  0  0
  2  6  2  0  0  0  0
  3  8  2  0  0  0  0
  3 16  1  0  0  0  0
  4  9  1  0  0  0  0
  4 16  2  0  0  0  0
  5 18  1  0  0  0  0
  6 20  1  0  0  0  0
  7 10  2  0  0  0  0
  7 19  1  0  0  0  0
  8 22  1  0  0  0  0
  9 22  2  0  0  0  0
 10 23  1  0  0  0  0
 11 12  2  0  0  0  0
 11 24  1  0  0  0  0
 12 25  1  0  0  0  0
 13 21  1  0  0  0  0
 13 23  2  0  0  0  0
 14 25  2  0  0  0  0
 14 26  1  0  0  0  0
 15 67  2  0  0  0  0
 15 69  1  0  0  0  0
 16 27  1  0  0  0  0
 17 27  1  0  0  0  0
 17 30  2  0  0  0  0
 17 31  1  0  0  0  0
 18 20  2  0  0  0  0
 18 36  1  0  0  0  0
 19 21  2  0  0  0  0
 19 37  1  0  0  0  0
 20 45  1  0  0  0  0
 21 38  1  0  0  0  0
 22 84  1  0  0  0  0
 23 85  1  0  0  0  0
 24 26  2  0  0  0  0
 24 84  1  0  0  0  0
 25 86  1  0  0  0  0
 26 87  1  0  0  0  0
 27 68  2  0  0  0  0
 28 29  2  0  0  0  0
 28 57  1  0  0  0  0
 28 67  1  0  0  0  0
 29 64  1  0  0  0  0
 29 69  1  0  0  0  0
 30 70  1  0  0  0  0
 30 73  1  0  0  0  0
 31 74  1  0  0  0  0
 31 79  2  0  0  0  0
 32 46  1  0  0  0  0
 32 75  1  0  0  0  0
 32 80  2  0  0  0  0
 33 61  1  0  0  0  0
 33 71  1  0  0  0  0
 33 81  2  0  0  0  0
 34 62  1  0  0  0  0
 34 76  1  0  0  0  0
 34 82  2  0  0  0  0
 35 72  1  0  0  0  0
 35 77  1  0  0  0  0
 35 83  2  0  0  0  0
 36 39  1  0  0  0  0
 37 46  1  0  0  0  0
 38 71  1  0  0  0  0
 39 41  1  0  0  0  0
 40 42  1  0  0  0  0
 40 43  1  0  0  0  0
 41 45  1  0  0  0  0
 42 47  1  0  0  0  0
 43 72  1  0  0  0  0
 44 47  1  0  0  0  0
 44 72  1  0  0  0  0
 45 75  1  0  0  0  0
 46 71  1  0  0  0  0
 47 70  1  0  0  0  0
 48 58  1  0  0  0  0
 49 62  1  0  0  0  0
 50 65  1  0  0  0  0
 51 65  1  0  0  0  0
 52 65  1  0  0  0  0
 53 66  1  0  0  0  0
 54 66  1  0  0  0  0
 55 77  1  0  0  0  0
 56 78  1  0  0  0  0
 57 60  1  0  0  0  0
 58 63  1  0  0  0  0
 59 63  1  0  0  0  0
 59 66  1  0  0  0  0
 60 77  1  0  0  0  0
 61 65  1  0  0  0  0
 61 76  1  0  0  0  0
 62 78  1  0  0  0  0
 63 69  1  0  0  0  0
 64 88  1  0  0  0  0
 64 89  1  0  0  0  0
 64 90  1  0  0  0  0
 66 85  1  0  0  0  0
 68 70  1  0  0  0  0
M  CHG  1  78   1
M  ISO  4  35 100  66 101  77 100  85 101
M  END
> <Batch ID>
0059

> <Smiles>
CCC(C[101C:1](C)(C)[101O:1]c1ccc2c(c1)CN(C(=O)C(NC(=O)C(C)NC)C(C)(C)C)C(C(=O)NC1CCCc3ccccc31)C2)n1cnc(CC[100N:0](C)[100C:0](=O)N2CCCC(n3nc(-c4ccc(Oc5ccc(F)cc5F)cc4)c(C(N)=O)c3N)C2)c1C(F)(F)F

> <Shape>
0.262

> <Color>
0.117

> <Negative vol penalty>
0.000

$$$$

  -OEChem-04052317533D

 83 91  0     1  0  0  0  0  0999 V2000
  -20.1247  -23.3142   23.4420 C   0  0  0  0  0  0  0  0  0  0  0  0
  -21.4902  -23.5239   23.2784 C   0  0  0  0  0  0  0  0  0  0  0  0
  -25.6463  -16.6930   21.4174 C   0  0  0  0  0  0  0  0  0  0  0  0
  -25.7886  -16.3987   19.0236 C   0  0  0  0  0  0  0  0  0  0  0  0
  -19.2228  -24.3334   23.1388 C   0  0  0  0  0  0  0  0  0  0  0  0
  -21.9546  -24.7526   22.8104 C   0  0  0  0  0  0  0  0  0  0  0  0
  -25.9303  -26.4575   25.4433 C   0  0  0  0  0  0  0  0  0  0  0  0
  -25.1183  -15.4082   21.5440 C   0  0  0  0  0  0  0  0  0  0  0  0
  -25.2606  -15.1139   19.1502 C   0  0  0  0  0  0  0  0  0  0  0  0
  -27.1717  -25.8891   25.1615 C   0  0  0  0  0  0  0  0  0  0  0  0
  -24.0696  -12.0713   22.5341 C   0  0  0  0  0  0  0  0  0  0  0  0
  -24.5782  -11.2580   23.5467 C   0  0  0  0  0  0  0  0  0  0  0  0
  -27.7282  -27.7971   23.7944 C   0  0  0  0  0  0  0  0  0  0  0  0
  -26.7811  -11.4159   22.5672 C   0  0  0  0  0  0  0  0  0  0  0  0
  -31.2006  -24.8455   20.6704 C   0  0  0  0  0  0  0  0  0  0  0  0
  -29.0378  -24.8070   21.0652 C   0  0  0  0  0  0  0  0  0  0  0  0
  -25.9814  -17.1883   20.1572 C   0  0  0  0  0  0  0  0  0  0  0  0
  -27.8845  -18.8844   20.0609 C   0  0  0  0  0  0  0  0  0  0  0  0
  -19.6770  -25.5784   22.6761 C   0  0  0  0  0  0  0  0  0  0  0  0
  -25.5736  -27.6971   24.8931 C   0  0  0  0  0  0  0  0  0  0  0  0
  -21.0579  -25.7889   22.4995 C   0  0  0  0  0  0  0  0  0  0  0  0
  -26.4827  -28.3803   24.0729 C   0  0  0  0  0  0  0  0  0  0  0  0
  -30.2480  -24.5686   21.6693 C   0  0  0  0  0  0  0  0  0  0  0  0
  -24.9255  -14.6186   20.4104 C   0  0  0  0  0  0  0  0  0  0  0  0
  -28.0698  -26.5575   24.3346 C   0  0  0  0  0  0  0  0  0  0  0  0
  -24.9167  -12.5568   21.5379 C   0  0  0  0  0  0  0  0  0  0  0  0
  -25.9339  -10.9303   23.5634 C   0  0  0  0  0  0  0  0  0  0  0  0
  -26.2725  -12.2291   21.5545 C   0  0  0  0  0  0  0  0  0  0  0  0
  -26.5264  -18.5157   20.0257 C   0  0  0  0  0  0  0  0  0  0  0  0
  -27.8748  -20.2474   19.8919 C   0  0  0  0  0  0  0  0  0  0  0  0
  -29.0507  -18.0677   20.2311 C   0  0  0  0  0  0  0  0  0  0  0  0
  -23.2867  -28.7046   22.9287 C   0  0  0  0  0  0  0  0  0  0  0  0
  -24.5074  -31.6260   23.6343 C   0  0  0  0  0  0  0  0  0  0  0  0
  -27.1771  -33.4734   24.6861 C   0  0  0  0  0  0  0  0  0  0  0  0
  -25.7779  -24.5758   16.8613 C   0  0  0  0  0  0  0  0  0  0  0  0
  -18.6613  -26.6338   22.3164 C   0  0  0  0  0  0  0  0  0  0  0  0
  -24.2412  -28.3092   25.2284 C   0  0  0  0  0  0  0  0  0  0  0  0
  -26.1560  -29.7229   23.4735 C   0  0  0  0  0  0  0  0  0  0  0  0
  -19.2578  -28.0325   22.1819 C   0  0  0  0  0  0  0  0  0  0  0  0
  -24.0720  -23.5676   19.9878 C   0  0  0  0  0  0  0  0  0  0  0  0
  -20.5345  -27.9905   21.3483 C   0  0  0  0  0  0  0  0  0  0  0  0
  -24.6240  -22.1640   20.2308 C   0  0  0  0  0  0  0  0  0  0  0  0
  -24.0558  -23.9218   18.5039 C   0  0  0  0  0  0  0  0  0  0  0  0
  -25.9273  -22.3634   18.0762 C   0  0  0  0  0  0  0  0  0  0  0  0
  -21.6020  -27.1164   22.0177 C   0  0  1  0  0  0  0  0  0  0  0  0
  -23.7798  -29.3367   24.1995 C   0  0  1  0  0  0  0  0  0  0  0  0
  -26.0006  -21.9931   19.5652 C   0  0  2  0  0  0  0  0  0  0  0  0
  -27.8836  -35.8408   25.1262 C   0  0  0  0  0  0  0  0  0  0  0  0
  -31.8433  -24.6033   23.7023 C   0  0  0  0  0  0  0  0  0  0  0  0
  -30.5498  -22.5555   23.1444 C   0  0  0  0  0  0  0  0  0  0  0  0
  -24.7678  -32.1039   20.6320 C   0  0  0  0  0  0  0  0  0  0  0  0
  -26.3111  -34.0088   21.1397 C   0  0  0  0  0  0  0  0  0  0  0  0
  -23.9476  -34.0748   21.9349 C   0  0  0  0  0  0  0  0  0  0  0  0
  -27.6315  -25.7112   15.6975 C   0  0  0  0  0  0  0  0  0  0  0  0
  -27.6947  -32.9099   27.5450 C   0  0  0  0  0  0  0  0  0  0  0  0
  -28.3753  -25.5565   18.7678 C   0  0  0  0  0  0  0  0  0  0  0  0
  -28.1431  -24.4425   17.7504 C   0  0  0  0  0  0  0  0  0  0  0  0
  -29.3582  -24.5798   24.0442 C   0  0  0  0  0  0  0  0  0  1  0  0
  -25.5864  -32.5039   23.0478 C   0  0  1  0  0  0  0  0  0  0  0  0
  -27.2939  -34.5736   25.7255 C   0  0  2  0  0  0  0  0  0  0  0  0
  -30.5028  -24.1006   23.1144 C   0  0  0  0  0  0  0  0  0  0  0  0
  -25.1589  -33.1467   21.6982 C   0  0  0  0  0  0  0  0  0  0  0  0
  -30.6435  -25.2302   19.5191 N   0  0  0  0  0  0  0  0  0  0  0  0
  -25.7130  -19.5602   19.8484 N   0  0  0  0  0  0  0  0  0  0  0  0
  -29.3277  -25.1967   19.7907 N   0  0  0  0  0  0  0  0  0  0  0  0
  -26.5625  -20.5986   19.7708 N   0  0  0  0  0  0  0  0  0  0  0  0
  -24.8383  -30.2771   23.8259 N   0  0  0  0  0  0  0  0  0  0  0  0
  -25.3654  -23.7091   17.8868 N   0  0  0  0  0  0  0  0  0  0  0  0
  -28.8609  -21.1677   19.8367 N   0  0  0  0  0  0  0  0  0  0  0  0
  -28.8810  -16.6858   20.3917 N   0  0  0  0  0  0  0  0  0  0  0  0
  -22.2305  -27.8318   23.1075 N   0  0  0  0  0  0  0  0  0  0  0  0
  -25.9363  -33.4686   24.0848 N   0  0  0  0  0  0  0  0  0  0  0  0
  -27.1556  -24.8110   16.7382 N   0  0  0  0  0  0  0  0  0  0  0  0
  -28.1687  -34.1338   26.8491 N   0  3  0  0  0  0  0  0  0  0  0  0
  -30.2078  -18.5513   20.2570 O   0  0  0  0  0  0  0  0  0  0  0  0
  -23.8238  -28.9889   21.8645 O   0  0  0  0  0  0  0  0  0  0  0  0
  -23.4136  -32.1204   23.9188 O   0  0  0  0  0  0  0  0  0  0  0  0
  -28.0961  -32.6984   24.4302 O   0  0  0  0  0  0  0  0  0  0  0  0
  -24.9605  -25.1164   16.1053 O   0  0  0  0  0  0  0  0  0  0  0  0
  -24.4105  -13.3648   20.5336 O   0  0  0  0  0  0  0  0  0  0  0  0
  -29.2819  -26.0047   24.0573 O   0  0  0  0  0  0  0  0  0  1  0  0
  -26.4224  -10.1506   24.5368 F   0  0  0  0  0  0  0  0  0  0  0  0
  -27.0914  -12.6936   20.6009 F   0  0  0  0  0  0  0  0  0  0  0  0
  1  2  1  0  0  0  0
  1  5  2  0  0  0  0
  2  6  2  0  0  0  0
  3  8  2  0  0  0  0
  3 17  1  0  0  0  0
  4  9  1  0  0  0  0
  4 17  2  0  0  0  0
  5 19  1  0  0  0  0
  6 21  1  0  0  0  0
  7 10  2  0  0  0  0
  7 20  1  0  0  0  0
  8 24  1  0  0  0  0
  9 24  2  0  0  0  0
 10 25  1  0  0  0  0
 11 12  2  0  0  0  0
 11 26  1  0  0  0  0
 12 27  1  0  0  0  0
 13 22  1  0  0  0  0
 13 25  2  0  0  0  0
 14 27  2  0  0  0  0
 14 28  1  0  0  0  0
 15 23  1  0  0  0  0
 15 63  2  0  0  0  0
 16 23  2  0  0  0  0
 16 65  1  0  0  0  0
 17 29  1  0  0  0  0
 18 29  1  0  0  0  0
 18 30  2  0  0  0  0
 18 31  1  0  0  0  0
 19 21  2  0  0  0  0
 19 36  1  0  0  0  0
 20 22  2  0  0  0  0
 20 37  1  0  0  0  0
 21 45  1  0  0  0  0
 22 38  1  0  0  0  0
 23 61  1  0  0  0  0
 24 80  1  0  0  0  0
 25 81  1  0  0  0  0
 26 28  2  0  0  0  0
 26 80  1  0  0  0  0
 27 82  1  0  0  0  0
 28 83  1  0  0  0  0
 29 64  2  0  0  0  0
 30 66  1  0  0  0  0
 30 69  1  0  0  0  0
 31 70  1  0  0  0  0
 31 75  2  0  0  0  0
 32 46  1  0  0  0  0
 32 71  1  0  0  0  0
 32 76  2  0  0  0  0
 33 59  1  0  0  0  0
 33 67  1  0  0  0  0
 33 77  2  0  0  0  0
 34 60  1  0  0  0  0
 34 72  1  0  0  0  0
 34 78  2  0  0  0  0
 35 68  1  0  0  0  0
 35 73  1  0  0  0  0
 35 79  2  0  0  0  0
 36 39  1  0  0  0  0
 37 46  1  0  0  0  0
 38 67  1  0  0  0  0
 39 41  1  0  0  0  0
 40 42  1  0  0  0  0
 40 43  1  0  0  0  0
 41 45  1  0  0  0  0
 42 47  1  0  0  0  0
 43 68  1  0  0  0  0
 44 47  1  0  0  0  0
 44 68  1  0  0  0  0
 45 71  1  0  0  0  0
 46 67  1  0  0  0  0
 47 66  1  0  0  0  0
 48 60  1  0  0  0  0
 49 61  1  0  0  0  0
 50 61  1  0  0  0  0
 51 62  1  0  0  0  0
 52 62  1  0  0  0  0
 53 62  1  0  0  0  0
 54 73  1  0  0  0  0
 55 74  1  0  0  0  0
 56 57  1  0  0  0  0
 56 65  1  0  0  0  0
 57 73  1  0  0  0  0
 58 61  1  0  0  0  0
 58 81  1  0  0  0  0
 59 62  1  0  0  0  0
 59 72  1  0  0  0  0
 60 74  1  0  0  0  0
 63 65  1  0  0  0  0
 64 66  1  0  0  0  0
M  CHG  1  74   1
M  ISO  4  35 100  58 101  73 100  81 101
M  END
> <Batch ID>
0059

> <Smiles>
CNC(C)C(=O)NC(C(=O)N1Cc2cc([101O:1][101CH2:1]C(C)(C)c3cnn(CC[100N:0](C)[100C:0](=O)N4CCCC(n5nc(-c6ccc(Oc7ccc(F)cc7F)cc6)c(C(N)=O)c5N)C4)c3)ccc2CC1C(=O)NC1CCCc2ccccc21)C(C)(C)C

> <Shape>
0.210

> <Color>
0.078

> <Negative vol penalty>
0.000

$$$$
