
  -OEChem-04052317553D

 83 91  0     1  0  0  0  0  0999 V2000
  -25.6104  -32.2568   23.8233 C   0  0  0  0  0  0  0  0  0  0  0  0
  -26.2006  -31.0060   23.6727 C   0  0  0  0  0  0  0  0  0  0  0  0
  -23.4510   -9.8298   22.5096 C   0  0  0  0  0  0  0  0  0  0  0  0
  -23.4093   -9.7554   20.0951 C   0  0  0  0  0  0  0  0  0  0  0  0
  -24.6954  -32.7133   22.8756 C   0  0  0  0  0  0  0  0  0  0  0  0
  -25.8752  -30.2105   22.5746 C   0  0  0  0  0  0  0  0  0  0  0  0
  -29.6003  -26.4007   19.5556 C   0  0  0  0  0  0  0  0  0  0  0  0
  -22.6192   -8.7112   22.5585 C   0  0  0  0  0  0  0  0  0  0  0  0
  -22.5775   -8.6367   20.1440 C   0  0  0  0  0  0  0  0  0  0  0  0
  -29.7891  -25.0211   19.6266 C   0  0  0  0  0  0  0  0  0  0  0  0
  -22.9255   -5.3621   22.2082 C   0  0  0  0  0  0  0  0  0  0  0  0
  -23.2561   -4.3473   23.1061 C   0  0  0  0  0  0  0  0  0  0  0  0
  -28.2786  -24.7248   17.7693 C   0  0  0  0  0  0  0  0  0  0  0  0
  -21.1318   -4.6401   24.2191 C   0  0  0  0  0  0  0  0  0  0  0  0
  -31.4149  -19.0142   19.1041 C   0  0  0  0  0  0  0  0  0  0  0  0
  -23.8461  -10.3520   21.2779 C   0  0  0  0  0  0  0  0  0  0  0  0
  -26.1123  -11.5207   21.2019 C   0  0  0  0  0  0  0  0  0  0  0  0
  -24.3659  -31.9270   21.7603 C   0  0  0  0  0  0  0  0  0  0  0  0
  -28.7394  -26.9528   18.5962 C   0  0  0  0  0  0  0  0  0  0  0  0
  -24.9539  -30.6563   21.6118 C   0  0  0  0  0  0  0  0  0  0  0  0
  -28.0826  -26.1119   17.6865 C   0  0  0  0  0  0  0  0  0  0  0  0
  -22.1825   -8.1147   21.3757 C   0  0  0  0  0  0  0  0  0  0  0  0
  -29.1260  -24.1828   18.7353 C   0  0  0  0  0  0  0  0  0  0  0  0
  -21.6981   -6.0161   22.3157 C   0  0  0  0  0  0  0  0  0  0  0  0
  -22.3592   -3.9862   24.1115 C   0  0  0  0  0  0  0  0  0  0  0  0
  -20.8012   -5.6551   23.3212 C   0  0  0  0  0  0  0  0  0  0  0  0
  -24.7048  -11.5078   21.2268 C   0  0  0  0  0  0  0  0  0  0  0  0
  -26.4427  -12.8530   21.1542 C   0  0  0  0  0  0  0  0  0  0  0  0
  -30.2820  -20.8558   19.7056 C   0  0  0  0  0  0  0  0  0  0  0  0
  -29.3777  -18.8271   20.0270 C   0  0  0  0  0  0  0  0  0  0  0  0
  -27.0383  -10.4262   21.2201 C   0  0  0  0  0  0  0  0  0  0  0  0
  -26.0627  -28.6638   18.7043 C   0  0  0  0  0  0  0  0  0  0  0  0
  -26.4846  -28.8055   15.4912 C   0  0  0  0  0  0  0  0  0  0  0  0
  -27.8433  -27.4203   12.6836 C   0  0  0  0  0  0  0  0  0  0  0  0
  -25.3874  -17.8537   18.6649 C   0  0  0  0  0  0  0  0  0  0  0  0
  -23.3357  -32.4431   20.7872 C   0  0  0  0  0  0  0  0  0  0  0  0
  -28.5672  -28.4448   18.5154 C   0  0  0  0  0  0  0  0  0  0  0  0
  -27.1633  -26.6561   16.6248 C   0  0  0  0  0  0  0  0  0  0  0  0
  -23.3276  -31.6964   19.4558 C   0  0  0  0  0  0  0  0  0  0  0  0
  -23.6188  -16.9887   21.7995 C   0  0  0  0  0  0  0  0  0  0  0  0
  -23.3635  -30.1893   19.6887 C   0  0  0  0  0  0  0  0  0  0  0  0
  -23.8052  -15.4746   21.8802 C   0  0  0  0  0  0  0  0  0  0  0  0
  -23.6287  -17.4854   20.3570 C   0  0  0  0  0  0  0  0  0  0  0  0
  -25.0212  -15.5617   19.6679 C   0  0  0  0  0  0  0  0  0  0  0  0
  -24.6452  -29.7746   20.4212 C   0  0  1  0  0  0  0  0  0  0  0  0
  -27.2690  -28.8603   17.8302 C   0  0  1  0  0  0  0  0  0  0  0  0
  -25.0626  -15.0348   21.1102 C   0  0  2  0  0  0  0  0  0  0  0  0
  -27.9835  -27.7411   10.1987 C   0  0  0  0  0  0  0  0  0  0  0  0
  -27.0237  -18.7552   21.0995 C   0  0  0  0  0  0  0  0  0  0  0  0
  -28.7239  -17.0376   21.6605 C   0  0  0  0  0  0  0  0  0  0  0  0
  -23.6370  -27.7498   15.1966 C   0  0  0  0  0  0  0  0  0  0  0  0
  -24.1625  -27.1986   12.8116 C   0  0  0  0  0  0  0  0  0  0  0  0
  -24.2474  -29.5670   13.5904 C   0  0  0  0  0  0  0  0  0  0  0  0
  -27.4165  -18.6038   17.4820 C   0  0  0  0  0  0  0  0  0  0  0  0
  -30.7869  -27.7138   12.7710 C   0  0  0  0  0  0  0  0  0  0  0  0
  -30.1924  -22.3498   19.8117 C   0  0  0  0  0  0  0  0  0  1  0  0
  -27.6771  -17.0449   19.3761 C   0  0  0  0  0  0  0  0  0  0  0  0
  -26.0560  -27.9573   14.3182 C   0  0  1  0  0  0  0  0  0  0  0  0
  -28.6358  -28.0305   11.5417 C   0  0  2  0  0  0  0  0  0  0  0  0
  -28.2492  -17.9775   20.5039 C   0  0  0  0  0  0  0  0  0  0  0  0
  -24.5415  -28.1075   14.0003 C   0  0  0  0  0  0  0  0  0  0  0  0
  -31.4065  -20.3555   19.1688 N   0  0  0  0  0  0  0  0  0  0  0  0
  -30.4396  -18.1864   19.5125 N   0  0  0  0  0  0  0  0  0  0  0  0
  -24.1774  -12.7346   21.1976 N   0  0  0  0  0  0  0  0  0  0  0  0
  -29.2285  -20.1553   20.1554 N   0  0  0  0  0  0  0  0  0  0  0  0
  -25.2592  -13.5308   21.1539 N   0  0  0  0  0  0  0  0  0  0  0  0
  -27.0227  -28.1213   16.5903 N   0  0  0  0  0  0  0  0  0  0  0  0
  -24.8128  -17.0171   19.6360 N   0  0  0  0  0  0  0  0  0  0  0  0
  -27.6273  -13.4992   21.1131 N   0  0  0  0  0  0  0  0  0  0  0  0
  -26.5294   -9.1212   21.2698 N   0  0  0  0  0  0  0  0  0  0  0  0
  -25.7654  -29.7500   19.5052 N   0  0  0  0  0  0  0  0  0  0  0  0
  -26.9371  -28.3153   13.2120 N   0  0  0  0  0  0  0  0  0  0  0  0
  -26.7729  -17.7493   18.4696 N   0  0  0  0  0  0  0  0  0  0  0  0
  -30.0205  -27.4800   11.5200 N   0  3  0  0  0  0  0  0  0  0  0  0
  -28.2804  -10.6008   21.2096 O   0  0  0  0  0  0  0  0  0  0  0  0
  -25.4465  -27.6058   18.6547 O   0  0  0  0  0  0  0  0  0  0  0  0
  -26.3536  -30.0306   15.4314 O   0  0  0  0  0  0  0  0  0  0  0  0
  -28.0087  -26.2641   13.0661 O   0  0  0  0  0  0  0  0  0  0  0  0
  -24.7025  -18.6552   18.0166 O   0  0  0  0  0  0  0  0  0  0  0  0
  -21.3710   -7.0230   21.4230 O   0  0  0  0  0  0  0  0  0  0  0  0
  -29.3079  -22.8359   18.8029 O   0  0  0  0  0  0  0  0  0  1  0  0
  -22.6762   -3.0105   24.9728 F   0  0  0  0  0  0  0  0  0  0  0  0
  -19.6201   -6.2789   23.4288 F   0  0  0  0  0  0  0  0  0  0  0  0
  1  2  1  0  0  0  0
  1  5  2  0  0  0  0
  2  6  2  0  0  0  0
  3  8  2  0  0  0  0
  3 16  1  0  0  0  0
  4  9  1  0  0  0  0
  4 16  2  0  0  0  0
  5 18  1  0  0  0  0
  6 20  1  0  0  0  0
  7 10  2  0  0  0  0
  7 19  1  0  0  0  0
  8 22  1  0  0  0  0
  9 22  2  0  0  0  0
 10 23  1  0  0  0  0
 11 12  2  0  0  0  0
 11 24  1  0  0  0  0
 12 25  1  0  0  0  0
 13 21  1  0  0  0  0
 13 23  2  0  0  0  0
 14 25  2  0  0  0  0
 14 26  1  0  0  0  0
 15 62  2  0  0  0  0
 15 63  1  0  0  0  0
 16 27  1  0  0  0  0
 17 27  1  0  0  0  0
 17 28  2  0  0  0  0
 17 31  1  0  0  0  0
 18 20  2  0  0  0  0
 18 36  1  0  0  0  0
 19 21  2  0  0  0  0
 19 37  1  0  0  0  0
 20 45  1  0  0  0  0
 21 38  1  0  0  0  0
 22 80  1  0  0  0  0
 23 81  1  0  0  0  0
 24 26  2  0  0  0  0
 24 80  1  0  0  0  0
 25 82  1  0  0  0  0
 26 83  1  0  0  0  0
 27 64  2  0  0  0  0
 28 66  1  0  0  0  0
 28 69  1  0  0  0  0
 29 56  1  0  0  0  0
 29 62  1  0  0  0  0
 29 65  2  0  0  0  0
 30 60  1  0  0  0  0
 30 63  2  0  0  0  0
 30 65  1  0  0  0  0
 31 70  1  0  0  0  0
 31 75  2  0  0  0  0
 32 46  1  0  0  0  0
 32 71  1  0  0  0  0
 32 76  2  0  0  0  0
 33 58  1  0  0  0  0
 33 67  1  0  0  0  0
 33 77  2  0  0  0  0
 34 59  1  0  0  0  0
 34 72  1  0  0  0  0
 34 78  2  0  0  0  0
 35 68  1  0  0  0  0
 35 73  1  0  0  0  0
 35 79  2  0  0  0  0
 36 39  1  0  0  0  0
 37 46  1  0  0  0  0
 38 67  1  0  0  0  0
 39 41  1  0  0  0  0
 40 42  1  0  0  0  0
 40 43  1  0  0  0  0
 41 45  1  0  0  0  0
 42 47  1  0  0  0  0
 43 68  1  0  0  0  0
 44 47  1  0  0  0  0
 44 68  1  0  0  0  0
 45 71  1  0  0  0  0
 46 67  1  0  0  0  0
 47 66  1  0  0  0  0
 48 59  1  0  0  0  0
 49 60  1  0  0  0  0
 50 60  1  0  0  0  0
 51 61  1  0  0  0  0
 52 61  1  0  0  0  0
 53 61  1  0  0  0  0
 54 73  1  0  0  0  0
 55 74  1  0  0  0  0
 56 81  1  0  0  0  0
 57 60  1  0  0  0  0
 57 73  1  0  0  0  0
 58 61  1  0  0  0  0
 58 72  1  0  0  0  0
 59 74  1  0  0  0  0
 64 66  1  0  0  0  0
M  CHG  1  74   1
M  ISO  4  35 100  56 101  73 100  81 101
M  END
> <Batch ID>
0060

> <Smiles>
CNC(C)C(=O)NC(C(=O)N1Cc2cc([101O:1][101CH2:1]c3ncnc(C(C)(C)C[100N:0](C)[100C:0](=O)N4CCCC(n5nc(-c6ccc(Oc7ccc(F)cc7F)cc6)c(C(N)=O)c5N)C4)n3)ccc2CC1C(=O)NC1CCCc2ccccc21)C(C)(C)C

> <Shape>
0.250

> <Color>
0.115

> <Negative vol penalty>
0.000

$$$$

  -OEChem-04052317553D

 84 92  0     1  0  0  0  0  0999 V2000
  -17.6617  -30.3220   22.7684 C   0  0  0  0  0  0  0  0  0  0  0  0
  -18.9804  -29.8802   22.7341 C   0  0  0  0  0  0  0  0  0  0  0  0
  -25.4903  -14.4780   20.8580 C   0  0  0  0  0  0  0  0  0  0  0  0
  -25.6369  -14.3937   18.4479 C   0  0  0  0  0  0  0  0  0  0  0  0
  -16.6785  -29.5327   23.3636 C   0  0  0  0  0  0  0  0  0  0  0  0
  -19.3169  -28.6492   23.2961 C   0  0  0  0  0  0  0  0  0  0  0  0
  -22.3910  -25.9333   20.3264 C   0  0  0  0  0  0  0  0  0  0  0  0
  -24.5673  -13.4323   20.8384 C   0  0  0  0  0  0  0  0  0  0  0  0
  -24.7139  -13.3480   18.4283 C   0  0  0  0  0  0  0  0  0  0  0  0
  -23.7394  -26.2874   20.3126 C   0  0  0  0  0  0  0  0  0  0  0  0
  -24.6219  -10.0675   20.5102 C   0  0  0  0  0  0  0  0  0  0  0  0
  -24.7938   -9.0338   21.4308 C   0  0  0  0  0  0  0  0  0  0  0  0
  -24.2231  -24.4814   21.8368 C   0  0  0  0  0  0  0  0  0  0  0  0
  -22.6186   -9.5077   22.3693 C   0  0  0  0  0  0  0  0  0  0  0  0
  -30.4843  -27.5809   20.5212 C   0  0  0  0  0  0  0  0  0  0  0  0
  -26.0250  -14.9587   19.6627 C   0  0  0  0  0  0  0  0  0  0  0  0
  -28.3792  -15.9354   19.7709 C   0  0  0  0  0  0  0  0  0  0  0  0
  -17.0014  -28.2871   23.9246 C   0  0  0  0  0  0  0  0  0  0  0  0
  -21.9461  -24.8555   21.1054 C   0  0  0  0  0  0  0  0  0  0  0  0
  -18.3374  -27.8431   23.9005 C   0  0  0  0  0  0  0  0  0  0  0  0
  -22.8690  -24.1140   21.8568 C   0  0  0  0  0  0  0  0  0  0  0  0
  -24.1792  -12.8673   19.6236 C   0  0  0  0  0  0  0  0  0  0  0  0
  -24.6553  -25.5633   21.0701 C   0  0  0  0  0  0  0  0  0  0  0  0
  -23.4483  -10.8214   20.5192 C   0  0  0  0  0  0  0  0  0  0  0  0
  -23.7922   -8.7538   22.3603 C   0  0  0  0  0  0  0  0  0  0  0  0
  -22.4466  -10.5414   21.4487 C   0  0  0  0  0  0  0  0  0  0  0  0
  -26.9781  -16.0392   19.6822 C   0  0  0  0  0  0  0  0  0  0  0  0
  -29.5842  -28.5577   20.8954 C   0  0  0  0  0  0  0  0  0  0  0  0
  -29.9308  -26.4074   20.0515 C   0  0  0  0  0  0  0  0  0  0  0  0
  -28.8217  -17.2355   19.7515 C   0  0  0  0  0  0  0  0  0  0  0  0
  -27.8291  -27.2216   20.3464 C   0  0  0  0  0  0  0  0  0  0  0  0
  -29.2067  -14.7681   19.8625 C   0  0  0  0  0  0  0  0  0  0  0  0
  -19.9368  -24.5310   23.5469 C   0  0  0  0  0  0  0  0  0  0  0  0
  -20.5070  -21.3705   23.0907 C   0  0  0  0  0  0  0  0  0  0  0  0
  -22.5912  -18.9450   21.8991 C   0  0  0  0  0  0  0  0  0  0  0  0
  -28.3885  -22.2923   17.1907 C   0  0  0  0  0  0  0  0  0  0  0  0
  -15.9127  -27.4904   24.5989 C   0  0  0  0  0  0  0  0  0  0  0  0
  -20.4924  -24.4696   21.0886 C   0  0  0  0  0  0  0  0  0  0  0  0
  -22.4455  -22.9357   22.6940 C   0  0  0  0  0  0  0  0  0  0  0  0
  -16.2864  -26.0299   24.8391 C   0  0  0  0  0  0  0  0  0  0  0  0
  -26.3079  -21.5943   20.1716 C   0  0  0  0  0  0  0  0  0  0  0  0
  -17.6867  -25.9283   25.4355 C   0  0  0  0  0  0  0  0  0  0  0  0
  -26.3610  -20.0704   20.2654 C   0  0  0  0  0  0  0  0  0  0  0  0
  -26.4750  -22.0803   18.7350 C   0  0  0  0  0  0  0  0  0  0  0  0
  -27.7540  -20.0442   18.1584 C   0  0  0  0  0  0  0  0  0  0  0  0
  -18.7374  -26.5024   24.4774 C   0  0  1  0  0  0  0  0  0  0  0  0
  -20.0711  -23.6739   22.3201 C   0  0  1  0  0  0  0  0  0  0  0  0
  -27.6353  -19.5237   19.5987 C   0  0  2  0  0  0  0  0  0  0  0  0
  -30.0885  -29.8616   21.4159 C   0  0  0  0  0  0  0  0  0  0  0  0
  -22.8044  -16.4522   21.7043 C   0  0  0  0  0  0  0  0  0  0  0  0
  -21.2466  -21.2052   26.0463 C   0  0  0  0  0  0  0  0  0  0  0  0
  -22.3331  -18.9985   25.5794 C   0  0  0  0  0  0  0  0  0  0  0  0
  -19.8839  -19.2852   25.2030 C   0  0  0  0  0  0  0  0  0  0  0  0
  -30.4529  -22.3084   15.8426 C   0  0  0  0  0  0  0  0  0  0  0  0
  -22.6459  -19.0643   18.9425 C   0  0  0  0  0  0  0  0  0  0  0  0
  -26.3454  -27.0209   20.2486 C   0  0  0  0  0  0  0  0  0  1  0  0
  -31.2126  -23.2078   18.7757 C   0  0  0  0  0  0  0  0  0  0  0  0
  -30.6433  -21.8906   18.2664 C   0  0  0  0  0  0  0  0  0  0  0  0
  -30.1324  -24.2022   19.1841 C   0  0  0  0  0  0  0  0  0  0  0  0
  -21.5185  -20.3800   23.6150 C   0  0  1  0  0  0  0  0  0  0  0  0
  -22.3281  -17.7290   21.0293 C   0  0  2  0  0  0  0  0  0  0  0  0
  -21.2535  -19.9906   25.0968 C   0  0  0  0  0  0  0  0  0  0  0  0
  -26.5582  -17.3052   19.6119 N   0  0  0  0  0  0  0  0  0  0  0  0
  -28.2451  -28.4112   20.8209 N   0  0  0  0  0  0  0  0  0  0  0  0
  -28.6026  -26.1927   19.9504 N   0  0  0  0  0  0  0  0  0  0  0  0
  -27.7023  -18.0089   19.6565 N   0  0  0  0  0  0  0  0  0  0  0  0
  -21.0124  -22.6016   22.6495 N   0  0  0  0  0  0  0  0  0  0  0  0
  -27.6703  -21.5117   18.1113 N   0  0  0  0  0  0  0  0  0  0  0  0
  -30.0552  -17.7812   19.8067 N   0  0  0  0  0  0  0  0  0  0  0  0
  -28.5890  -13.5101   19.8696 N   0  0  0  0  0  0  0  0  0  0  0  0
  -19.0234  -25.5598   23.4172 N   0  0  0  0  0  0  0  0  0  0  0  0
  -21.5038  -19.2527   22.6891 N   0  0  0  0  0  0  0  0  0  0  0  0
  -29.7718  -22.0725   17.1076 N   0  0  0  0  0  0  0  0  0  0  0  0
  -23.0355  -17.8627   19.7244 N   0  3  0  0  0  0  0  0  0  0  0  0
  -30.4559  -14.8392   19.9523 O   0  0  0  0  0  0  0  0  0  0  0  0
  -20.6108  -24.2769   24.5383 O   0  0  0  0  0  0  0  0  0  0  0  0
  -19.3133  -21.0604   23.0667 O   0  0  0  0  0  0  0  0  0  0  0  0
  -23.6562  -19.5581   21.8824 O   0  0  0  0  0  0  0  0  0  0  0  0
  -27.8268  -23.1442   16.4901 O   0  0  0  0  0  0  0  0  0  0  0  0
  -23.2787  -11.8468   19.6042 O   0  0  0  0  0  0  0  0  0  0  0  0
  -25.9719  -25.9072   21.0589 O   0  0  0  0  0  0  0  0  0  1  0  0
  -30.7580  -25.3883   19.6597 O   0  0  0  0  0  0  0  0  0  0  0  0
  -23.9568   -7.7601   23.2432 F   0  0  0  0  0  0  0  0  0  0  0  0
  -21.3165  -11.2615   21.4615 F   0  0  0  0  0  0  0  0  0  0  0  0
  1  2  1  0  0  0  0
  1  5  2  0  0  0  0
  2  6  2  0  0  0  0
  3  8  2  0  0  0  0
  3 16  1  0  0  0  0
  4  9  1  0  0  0  0
  4 16  2  0  0  0  0
  5 18  1  0  0  0  0
  6 20  1  0  0  0  0
  7 10  2  0  0  0  0
  7 19  1  0  0  0  0
  8 22  1  0  0  0  0
  9 22  2  0  0  0  0
 10 23  1  0  0  0  0
 11 12  2  0  0  0  0
 11 24  1  0  0  0  0
 12 25  1  0  0  0  0
 13 21  1  0  0  0  0
 13 23  2  0  0  0  0
 14 25  2  0  0  0  0
 14 26  1  0  0  0  0
 15 28  1  0  0  0  0
 15 29  2  0  0  0  0
 16 27  1  0  0  0  0
 17 27  1  0  0  0  0
 17 30  2  0  0  0  0
 17 32  1  0  0  0  0
 18 20  2  0  0  0  0
 18 37  1  0  0  0  0
 19 21  2  0  0  0  0
 19 38  1  0  0  0  0
 20 46  1  0  0  0  0
 21 39  1  0  0  0  0
 22 80  1  0  0  0  0
 23 81  1  0  0  0  0
 24 26  2  0  0  0  0
 24 80  1  0  0  0  0
 25 83  1  0  0  0  0
 26 84  1  0  0  0  0
 27 63  2  0  0  0  0
 28 49  1  0  0  0  0
 28 64  2  0  0  0  0
 29 65  1  0  0  0  0
 29 82  1  0  0  0  0
 30 66  1  0  0  0  0
 30 69  1  0  0  0  0
 31 56  1  0  0  0  0
 31 64  1  0  0  0  0
 31 65  2  0  0  0  0
 32 70  1  0  0  0  0
 32 75  2  0  0  0  0
 33 47  1  0  0  0  0
 33 71  1  0  0  0  0
 33 76  2  0  0  0  0
 34 60  1  0  0  0  0
 34 67  1  0  0  0  0
 34 77  2  0  0  0  0
 35 61  1  0  0  0  0
 35 72  1  0  0  0  0
 35 78  2  0  0  0  0
 36 68  1  0  0  0  0
 36 73  1  0  0  0  0
 36 79  2  0  0  0  0
 37 40  1  0  0  0  0
 38 47  1  0  0  0  0
 39 67  1  0  0  0  0
 40 42  1  0  0  0  0
 41 43  1  0  0  0  0
 41 44  1  0  0  0  0
 42 46  1  0  0  0  0
 43 48  1  0  0  0  0
 44 68  1  0  0  0  0
 45 48  1  0  0  0  0
 45 68  1  0  0  0  0
 46 71  1  0  0  0  0
 47 67  1  0  0  0  0
 48 66  1  0  0  0  0
 50 61  1  0  0  0  0
 51 62  1  0  0  0  0
 52 62  1  0  0  0  0
 53 62  1  0  0  0  0
 54 73  1  0  0  0  0
 55 74  1  0  0  0  0
 56 81  1  0  0  0  0
 57 58  1  0  0  0  0
 57 59  1  0  0  0  0
 58 73  1  0  0  0  0
 59 82  1  0  0  0  0
 60 62  1  0  0  0  0
 60 72  1  0  0  0  0
 61 74  1  0  0  0  0
 63 66  1  0  0  0  0
M  CHG  1  74   1
M  ISO  4  36 100  56 101  73 100  81 101
M  END
> <Batch ID>
0060

> <Smiles>
CNC(C)C(=O)NC(C(=O)N1Cc2cc([101O:1][101CH2:1]c3nc(C)cc(OCCC[100N:0](C)[100C:0](=O)N4CCCC(n5nc(-c6ccc(Oc7ccc(F)cc7F)cc6)c(C(N)=O)c5N)C4)n3)ccc2CC1C(=O)NC1CCCc2ccccc21)C(C)(C)C

> <Shape>
0.205

> <Color>
0.082

> <Negative vol penalty>
0.000

$$$$

  -OEChem-04052317553D

 83 91  0     1  0  0  0  0  0999 V2000
  -26.5690  -37.7958   20.9141 C   0  0  0  0  0  0  0  0  0  0  0  0
  -27.1930  -36.5985   20.5786 C   0  0  0  0  0  0  0  0  0  0  0  0
  -24.9001  -14.7531   20.4028 C   0  0  0  0  0  0  0  0  0  0  0  0
  -27.1563  -14.4655   21.2176 C   0  0  0  0  0  0  0  0  0  0  0  0
  -25.6299  -37.8264   21.9442 C   0  0  0  0  0  0  0  0  0  0  0  0
  -26.8791  -35.4313   21.2738 C   0  0  0  0  0  0  0  0  0  0  0  0
  -26.6426  -29.7469   19.0072 C   0  0  0  0  0  0  0  0  0  0  0  0
  -24.7779  -13.3717   20.2534 C   0  0  0  0  0  0  0  0  0  0  0  0
  -27.0340  -13.0840   21.0683 C   0  0  0  0  0  0  0  0  0  0  0  0
  -27.5535  -28.6915   19.0245 C   0  0  0  0  0  0  0  0  0  0  0  0
  -23.7454   -9.8955   19.9986 C   0  0  0  0  0  0  0  0  0  0  0  0
  -22.5696   -9.2959   20.4500 C   0  0  0  0  0  0  0  0  0  0  0  0
  -26.4419  -27.7717   20.9578 C   0  0  0  0  0  0  0  0  0  0  0  0
  -23.0215  -10.0929   22.6855 C   0  0  0  0  0  0  0  0  0  0  0  0
  -30.4984  -23.3852   20.1315 C   0  0  0  0  0  0  0  0  0  0  0  0
  -26.0893  -15.3000   20.8848 C   0  0  0  0  0  0  0  0  0  0  0  0
  -25.9021  -17.4904   22.1791 C   0  0  0  0  0  0  0  0  0  0  0  0
  -25.2972  -36.6570   22.6460 C   0  0  0  0  0  0  0  0  0  0  0  0
  -25.6295  -29.8285   19.9733 C   0  0  0  0  0  0  0  0  0  0  0  0
  -25.9357  -35.4465   22.3152 C   0  0  0  0  0  0  0  0  0  0  0  0
  -25.5179  -28.8277   20.9490 C   0  0  0  0  0  0  0  0  0  0  0  0
  -25.8448  -12.5371   20.5862 C   0  0  0  0  0  0  0  0  0  0  0  0
  -27.4550  -27.7053   20.0016 C   0  0  0  0  0  0  0  0  0  0  0  0
  -24.5592  -10.5937   20.8907 C   0  0  0  0  0  0  0  0  0  0  0  0
  -22.2077   -9.3946   21.7934 C   0  0  0  0  0  0  0  0  0  0  0  0
  -24.1973  -10.6924   22.2342 C   0  0  0  0  0  0  0  0  0  0  0  0
  -26.2164  -16.7270   21.0387 C   0  0  0  0  0  0  0  0  0  0  0  0
  -31.7166  -23.2669   19.4996 C   0  0  0  0  0  0  0  0  0  0  0  0
  -31.4247  -25.3274   18.5512 C   0  0  0  0  0  0  0  0  0  0  0  0
  -30.2062  -25.4453   19.1827 C   0  0  0  0  0  0  0  0  0  0  0  0
  -26.1977  -18.7826   21.8194 C   0  0  0  0  0  0  0  0  0  0  0  0
  -25.3889  -17.0690   23.4498 C   0  0  0  0  0  0  0  0  0  0  0  0
  -24.8620  -31.9116   22.2483 C   0  0  0  0  0  0  0  0  0  0  0  0
  -22.2626  -29.9995   22.5796 C   0  0  0  0  0  0  0  0  0  0  0  0
  -20.8601  -26.9174   22.1548 C   0  0  0  0  0  0  0  0  0  0  0  0
  -29.9380  -21.1365   17.7797 C   0  0  0  0  0  0  0  0  0  0  0  0
  -24.3109  -36.7487   23.7832 C   0  0  0  0  0  0  0  0  0  0  0  0
  -24.6385  -30.9590   19.9248 C   0  0  0  0  0  0  0  0  0  0  0  0
  -24.4359  -28.8585   21.9964 C   0  0  0  0  0  0  0  0  0  0  0  0
  -23.7590  -35.3946   24.2215 C   0  0  0  0  0  0  0  0  0  0  0  0
  -26.4208  -21.6466   17.9934 C   0  0  0  0  0  0  0  0  0  0  0  0
  -24.8884  -34.3797   24.3672 C   0  0  0  0  0  0  0  0  0  0  0  0
  -25.9412  -20.5125   18.9010 C   0  0  0  0  0  0  0  0  0  0  0  0
  -27.5616  -21.1969   17.0831 C   0  0  0  0  0  0  0  0  0  0  0  0
  -28.2274  -19.4507   18.6896 C   0  0  0  0  0  0  0  0  0  0  0  0
  -25.6036  -34.1544   23.0296 C   0  0  1  0  0  0  0  0  0  0  0  0
  -23.9606  -31.2173   21.2668 C   0  0  1  0  0  0  0  0  0  0  0  0
  -27.1152  -19.8715   19.6654 C   0  0  2  0  0  0  0  0  0  0  0  0
  -31.9499  -26.4069   17.6678 C   0  0  0  0  0  0  0  0  0  0  0  0
  -18.7324  -25.6491   22.5565 C   0  0  0  0  0  0  0  0  0  0  0  0
  -32.3888  -21.3216   21.0681 C   0  0  0  0  0  0  0  0  0  0  0  0
  -34.0697  -22.4003   19.5961 C   0  0  0  0  0  0  0  0  0  0  0  0
  -22.9498  -29.7906   25.5450 C   0  0  0  0  0  0  0  0  0  0  0  0
  -21.4172  -27.8162   25.6897 C   0  0  0  0  0  0  0  0  0  0  0  0
  -20.5114  -30.0522   25.0552 C   0  0  0  0  0  0  0  0  0  0  0  0
  -20.4871  -26.3993   19.2649 C   0  0  0  0  0  0  0  0  0  0  0  0
  -29.3506  -26.6659   19.0106 C   0  0  0  0  0  0  0  0  0  1  0  0
  -32.2795  -20.9573   18.5826 C   0  0  0  0  0  0  0  0  0  0  0  0
  -21.9333  -28.7756   23.3997 C   0  0  1  0  0  0  0  0  0  0  0  0
  -19.5267  -26.4896   21.5689 C   0  0  2  0  0  0  0  0  0  0  0  0
  -32.5480  -22.0461   19.6846 C   0  0  0  0  0  0  0  0  0  0  0  0
  -21.7246  -29.1088   24.9040 C   0  0  0  0  0  0  0  0  0  0  0  0
  -29.7212  -24.4765   19.9844 N   0  0  0  0  0  0  0  0  0  0  0  0
  -26.6762  -17.4721   20.0301 N   0  0  0  0  0  0  0  0  0  0  0  0
  -32.2017  -24.2359   18.6981 N   0  0  0  0  0  0  0  0  0  0  0  0
  -26.6530  -18.7172   20.5354 N   0  0  0  0  0  0  0  0  0  0  0  0
  -23.4949  -29.9875   21.9108 N   0  0  0  0  0  0  0  0  0  0  0  0
  -28.6432  -20.5996   17.8700 N   0  0  0  0  0  0  0  0  0  0  0  0
  -26.1098  -19.9569   22.4793 N   0  0  0  0  0  0  0  0  0  0  0  0
  -25.1414  -15.7043   23.6512 N   0  0  0  0  0  0  0  0  0  0  0  0
  -24.8172  -33.2907   22.1751 N   0  0  0  0  0  0  0  0  0  0  0  0
  -20.7791  -28.1539   22.7597 N   0  0  0  0  0  0  0  0  0  0  0  0
  -30.9029  -20.5153   18.5632 N   0  0  0  0  0  0  0  0  0  0  0  0
  -19.7383  -25.6862   20.3317 N   0  3  0  0  0  0  0  0  0  0  0  0
  -25.1413  -17.8808   24.3736 O   0  0  0  0  0  0  0  0  0  0  0  0
  -25.5462  -31.2453   23.0161 O   0  0  0  0  0  0  0  0  0  0  0  0
  -21.4531  -30.9289   22.5283 O   0  0  0  0  0  0  0  0  0  0  0  0
  -21.8715  -26.2225   22.0862 O   0  0  0  0  0  0  0  0  0  0  0  0
  -30.2127  -22.1016   17.0585 O   0  0  0  0  0  0  0  0  0  0  0  0
  -25.7258  -11.1891   20.4409 O   0  0  0  0  0  0  0  0  0  0  0  0
  -28.3432  -26.6744   20.0212 O   0  0  0  0  0  0  0  0  0  1  0  0
  -21.0778   -8.8201   22.2264 F   0  0  0  0  0  0  0  0  0  0  0  0
  -24.9745  -11.3629   23.0957 F   0  0  0  0  0  0  0  0  0  0  0  0
  1  2  1  0  0  0  0
  1  5  2  0  0  0  0
  2  6  2  0  0  0  0
  3  8  2  0  0  0  0
  3 16  1  0  0  0  0
  4  9  1  0  0  0  0
  4 16  2  0  0  0  0
  5 18  1  0  0  0  0
  6 20  1  0  0  0  0
  7 10  2  0  0  0  0
  7 19  1  0  0  0  0
  8 22  1  0  0  0  0
  9 22  2  0  0  0  0
 10 23  1  0  0  0  0
 11 12  2  0  0  0  0
 11 24  1  0  0  0  0
 12 25  1  0  0  0  0
 13 21  1  0  0  0  0
 13 23  2  0  0  0  0
 14 25  2  0  0  0  0
 14 26  1  0  0  0  0
 15 28  1  0  0  0  0
 15 63  2  0  0  0  0
 16 27  1  0  0  0  0
 17 27  1  0  0  0  0
 17 31  2  0  0  0  0
 17 32  1  0  0  0  0
 18 20  2  0  0  0  0
 18 37  1  0  0  0  0
 19 21  2  0  0  0  0
 19 38  1  0  0  0  0
 20 46  1  0  0  0  0
 21 39  1  0  0  0  0
 22 80  1  0  0  0  0
 23 81  1  0  0  0  0
 24 26  2  0  0  0  0
 24 80  1  0  0  0  0
 25 82  1  0  0  0  0
 26 83  1  0  0  0  0
 27 64  2  0  0  0  0
 28 61  1  0  0  0  0
 28 65  2  0  0  0  0
 29 30  2  0  0  0  0
 29 49  1  0  0  0  0
 29 65  1  0  0  0  0
 30 57  1  0  0  0  0
 30 63  1  0  0  0  0
 31 66  1  0  0  0  0
 31 69  1  0  0  0  0
 32 70  1  0  0  0  0
 32 75  2  0  0  0  0
 33 47  1  0  0  0  0
 33 71  1  0  0  0  0
 33 76  2  0  0  0  0
 34 59  1  0  0  0  0
 34 67  1  0  0  0  0
 34 77  2  0  0  0  0
 35 60  1  0  0  0  0
 35 72  1  0  0  0  0
 35 78  2  0  0  0  0
 36 68  1  0  0  0  0
 36 73  1  0  0  0  0
 36 79  2  0  0  0  0
 37 40  1  0  0  0  0
 38 47  1  0  0  0  0
 39 67  1  0  0  0  0
 40 42  1  0  0  0  0
 41 43  1  0  0  0  0
 41 44  1  0  0  0  0
 42 46  1  0  0  0  0
 43 48  1  0  0  0  0
 44 68  1  0  0  0  0
 45 48  1  0  0  0  0
 45 68  1  0  0  0  0
 46 71  1  0  0  0  0
 47 67  1  0  0  0  0
 48 66  1  0  0  0  0
 50 60  1  0  0  0  0
 51 61  1  0  0  0  0
 52 61  1  0  0  0  0
 53 62  1  0  0  0  0
 54 62  1  0  0  0  0
 55 62  1  0  0  0  0
 56 74  1  0  0  0  0
 57 81  1  0  0  0  0
 58 61  1  0  0  0  0
 58 73  1  0  0  0  0
 59 62  1  0  0  0  0
 59 72  1  0  0  0  0
 60 74  1  0  0  0  0
 64 66  1  0  0  0  0
M  CHG  1  74   1
M  ISO  4  36 100  57 101  73 100  81 101
M  END
> <Batch ID>
0060

> <Smiles>
CNC(C)C(=O)NC(C(=O)N1Cc2cc([101O:1][101CH2:1]c3ncc(C(C)(C)C[100NH:0][100C:0](=O)N4CCCC(n5nc(-c6ccc(Oc7ccc(F)cc7F)cc6)c(C(N)=O)c5N)C4)nc3C)ccc2CC1C(=O)NC1CCCc2ccccc21)C(C)(C)C

> <Shape>
0.281

> <Color>
0.080

> <Negative vol penalty>
0.000

$$$$

  -OEChem-04052317553D

 86 94  0     1  0  0  0  0  0999 V2000
  -18.2078  -32.0445   19.5076 C   0  0  0  0  0  0  0  0  0  0  0  0
  -19.4468  -31.5400   19.1258 C   0  0  0  0  0  0  0  0  0  0  0  0
  -27.3653  -12.3545   21.3076 C   0  0  0  0  0  0  0  0  0  0  0  0
  -27.1893  -13.1538   19.0344 C   0  0  0  0  0  0  0  0  0  0  0  0
  -17.9092  -32.2069   20.8598 C   0  0  0  0  0  0  0  0  0  0  0  0
  -20.3884  -31.1987   20.0960 C   0  0  0  0  0  0  0  0  0  0  0  0
  -24.4287  -26.6030   19.8491 C   0  0  0  0  0  0  0  0  0  0  0  0
  -26.5738  -11.2532   20.9816 C   0  0  0  0  0  0  0  0  0  0  0  0
  -26.3978  -12.0525   18.7085 C   0  0  0  0  0  0  0  0  0  0  0  0
  -25.7802  -26.5594   19.5095 C   0  0  0  0  0  0  0  0  0  0  0  0
  -23.2899  -10.5932   20.5292 C   0  0  0  0  0  0  0  0  0  0  0  0
  -22.2690  -10.2452   21.4137 C   0  0  0  0  0  0  0  0  0  0  0  0
  -26.3657  -26.7073   21.8450 C   0  0  0  0  0  0  0  0  0  0  0  0
  -23.2776   -8.0717   21.7228 C   0  0  0  0  0  0  0  0  0  0  0  0
  -27.6730  -13.3048   20.3340 C   0  0  0  0  0  0  0  0  0  0  0  0
  -29.8929  -14.5347   20.5936 C   0  0  0  0  0  0  0  0  0  0  0  0
  -18.8441  -31.8584   21.8473 C   0  0  0  0  0  0  0  0  0  0  0  0
  -24.0351  -26.7102   21.1908 C   0  0  0  0  0  0  0  0  0  0  0  0
  -20.1026  -31.3579   21.4626 C   0  0  0  0  0  0  0  0  0  0  0  0
  -25.0085  -26.7495   22.1992 C   0  0  0  0  0  0  0  0  0  0  0  0
  -26.0900  -11.1022   19.6821 C   0  0  0  0  0  0  0  0  0  0  0  0
  -26.7490  -26.6145   20.5073 C   0  0  0  0  0  0  0  0  0  0  0  0
  -24.3046   -9.6803   20.2414 C   0  0  0  0  0  0  0  0  0  0  0  0
  -22.2629   -8.9845   22.0105 C   0  0  0  0  0  0  0  0  0  0  0  0
  -24.2984   -8.4196   20.8382 C   0  0  0  0  0  0  0  0  0  0  0  0
  -28.4902  -14.4429   20.6702 C   0  0  0  0  0  0  0  0  0  0  0  0
  -30.1773  -15.8093   21.0189 C   0  0  0  0  0  0  0  0  0  0  0  0
  -29.9955  -23.8930   18.8957 C   0  0  0  0  0  0  0  0  0  0  0  0
  -29.0517  -21.9403   18.9706 C   0  0  0  0  0  0  0  0  0  0  0  0
  -30.8529  -13.5553   20.1753 C   0  0  0  0  0  0  0  0  0  0  0  0
  -22.4162  -28.8548   22.8889 C   0  0  0  0  0  0  0  0  0  0  0  0
  -22.6778  -26.6238   25.2291 C   0  0  0  0  0  0  0  0  0  0  0  0
  -24.3681  -23.9474   26.5046 C   0  0  0  0  0  0  0  0  0  0  0  0
  -26.4972  -20.7072   21.0967 C   0  0  0  0  0  0  0  0  0  0  0  0
  -18.4937  -32.0962   23.2949 C   0  0  0  0  0  0  0  0  0  0  0  0
  -22.5728  -26.7291   21.5425 C   0  0  0  0  0  0  0  0  0  0  0  0
  -24.6379  -26.8443   23.6559 C   0  0  0  0  0  0  0  0  0  0  0  0
  -19.4064  -31.3590   24.2715 C   0  0  0  0  0  0  0  0  0  0  0  0
  -28.5181  -19.2822   23.8511 C   0  0  0  0  0  0  0  0  0  0  0  0
  -20.8685  -31.5403   23.8763 C   0  0  0  0  0  0  0  0  0  0  0  0
  -28.7936  -17.8615   23.3616 C   0  0  0  0  0  0  0  0  0  0  0  0
  -27.2093  -19.8312   23.2914 C   0  0  0  0  0  0  0  0  0  0  0  0
  -27.3932  -18.3532   21.3176 C   0  0  0  0  0  0  0  0  0  0  0  0
  -21.1411  -30.9530   22.4862 C   0  0  1  0  0  0  0  0  0  0  0  0
  -22.2939  -27.3573   22.9044 C   0  0  1  0  0  0  0  0  0  0  0  0
  -28.7279  -17.7878   21.8261 C   0  0  2  0  0  0  0  0  0  0  0  0
  -30.2718  -23.0551   23.4476 C   0  0  0  0  0  0  0  0  0  0  0  0
  -24.3674  -22.3622   28.4499 C   0  0  0  0  0  0  0  0  0  0  0  0
  -25.2721  -19.9303   18.3662 C   0  0  0  0  0  0  0  0  0  0  0  0
  -25.2317  -22.3985   18.8457 C   0  0  0  0  0  0  0  0  0  0  0  0
  -23.8587  -28.8060   27.0048 C   0  0  0  0  0  0  0  0  0  0  0  0
  -24.6961  -27.0104   28.5354 C   0  0  0  0  0  0  0  0  0  0  0  0
  -22.2453  -27.2823   28.1578 C   0  0  0  0  0  0  0  0  0  0  0  0
  -23.9661  -21.6033   24.7433 C   0  0  0  0  0  0  0  0  0  0  0  0
  -30.5453  -25.2231   19.3451 C   0  0  0  0  0  0  0  0  0  0  0  0
  -28.3808  -20.7424   19.5059 C   0  0  0  0  0  0  0  0  0  0  0  0
  -30.5002  -22.9043   21.9526 C   0  0  0  0  0  0  0  0  0  0  0  0
  -29.9060  -26.4229   18.6427 C   0  0  0  0  0  0  0  0  0  0  0  0
  -29.2150  -23.1519   21.1659 C   0  0  0  0  0  0  0  0  0  0  0  0
  -28.3899  -26.4723   18.7917 C   0  0  0  0  0  0  0  0  0  1  0  0
  -23.6849  -26.3246   26.3132 C   0  0  1  0  0  0  0  0  0  0  0  0
  -23.8845  -22.6074   27.0288 C   0  0  2  0  0  0  0  0  0  0  0  0
  -26.1114  -21.1721   18.6395 C   0  0  0  0  0  0  0  0  0  0  0  0
  -23.6286  -27.3560   27.4753 C   0  0  0  0  0  0  0  0  0  0  0  0
  -27.9230  -15.5695   21.1097 N   0  0  0  0  0  0  0  0  0  0  0  0
  -29.9945  -23.4080   17.6746 N   0  0  0  0  0  0  0  0  0  0  0  0
  -29.3942  -22.1656   17.7222 N   0  0  0  0  0  0  0  0  0  0  0  0
  -28.9746  -16.3812   21.3132 N   0  0  0  0  0  0  0  0  0  0  0  0
  -29.4114  -23.0020   19.7441 N   0  0  0  0  0  0  0  0  0  0  0  0
  -23.1952  -26.8661   23.9487 N   0  0  0  0  0  0  0  0  0  0  0  0
  -27.1553  -19.7094   21.8342 N   0  0  0  0  0  0  0  0  0  0  0  0
  -31.3364  -16.4856   21.1661 N   0  0  0  0  0  0  0  0  0  0  0  0
  -30.3896  -12.2964   19.7693 N   0  0  0  0  0  0  0  0  0  0  0  0
  -21.2462  -29.5114   22.5582 N   0  0  0  0  0  0  0  0  0  0  0  0
  -23.4434  -24.9461   26.7255 N   0  0  0  0  0  0  0  0  0  0  0  0
  -26.9724  -20.9637   19.8016 N   0  0  0  0  0  0  0  0  0  0  0  0
  -24.3859  -21.5016   26.1647 N   0  3  0  0  0  0  0  0  0  0  0  0
  -32.0862  -13.7842   20.1776 O   0  0  0  0  0  0  0  0  0  0  0  0
  -23.4920  -29.3759   23.1585 O   0  0  0  0  0  0  0  0  0  0  0  0
  -21.4759  -26.6348   25.5065 O   0  0  0  0  0  0  0  0  0  0  0  0
  -25.4588  -24.0943   25.9574 O   0  0  0  0  0  0  0  0  0  0  0  0
  -25.5456  -21.3398   21.5723 O   0  0  0  0  0  0  0  0  0  0  0  0
  -25.3178  -10.0275   19.3636 O   0  0  0  0  0  0  0  0  0  0  0  0
  -28.0688  -26.5728   20.1785 O   0  0  0  0  0  0  0  0  0  1  0  0
  -21.2833   -8.6511   22.8611 F   0  0  0  0  0  0  0  0  0  0  0  0
  -25.2712   -7.5388   20.5665 F   0  0  0  0  0  0  0  0  0  0  0  0
  1  2  1  0  0  0  0
  1  5  2  0  0  0  0
  2  6  2  0  0  0  0
  3  8  2  0  0  0  0
  3 15  1  0  0  0  0
  4  9  1  0  0  0  0
  4 15  2  0  0  0  0
  5 17  1  0  0  0  0
  6 19  1  0  0  0  0
  7 10  2  0  0  0  0
  7 18  1  0  0  0  0
  8 21  1  0  0  0  0
  9 21  2  0  0  0  0
 10 22  1  0  0  0  0
 11 12  2  0  0  0  0
 11 23  1  0  0  0  0
 12 24  1  0  0  0  0
 13 20  1  0  0  0  0
 13 22  2  0  0  0  0
 14 24  2  0  0  0  0
 14 25  1  0  0  0  0
 15 26  1  0  0  0  0
 16 26  1  0  0  0  0
 16 27  2  0  0  0  0
 16 30  1  0  0  0  0
 17 19  2  0  0  0  0
 17 35  1  0  0  0  0
 18 20  2  0  0  0  0
 18 36  1  0  0  0  0
 19 44  1  0  0  0  0
 20 37  1  0  0  0  0
 21 83  1  0  0  0  0
 22 84  1  0  0  0  0
 23 25  2  0  0  0  0
 23 83  1  0  0  0  0
 24 85  1  0  0  0  0
 25 86  1  0  0  0  0
 26 65  2  0  0  0  0
 27 68  1  0  0  0  0
 27 72  1  0  0  0  0
 28 55  1  0  0  0  0
 28 66  2  0  0  0  0
 28 69  1  0  0  0  0
 29 56  1  0  0  0  0
 29 67  2  0  0  0  0
 29 69  1  0  0  0  0
 30 73  1  0  0  0  0
 30 78  2  0  0  0  0
 31 45  1  0  0  0  0
 31 74  1  0  0  0  0
 31 79  2  0  0  0  0
 32 61  1  0  0  0  0
 32 70  1  0  0  0  0
 32 80  2  0  0  0  0
 33 62  1  0  0  0  0
 33 75  1  0  0  0  0
 33 81  2  0  0  0  0
 34 71  1  0  0  0  0
 34 76  1  0  0  0  0
 34 82  2  0  0  0  0
 35 38  1  0  0  0  0
 36 45  1  0  0  0  0
 37 70  1  0  0  0  0
 38 40  1  0  0  0  0
 39 41  1  0  0  0  0
 39 42  1  0  0  0  0
 40 44  1  0  0  0  0
 41 46  1  0  0  0  0
 42 71  1  0  0  0  0
 43 46  1  0  0  0  0
 43 71  1  0  0  0  0
 44 74  1  0  0  0  0
 45 70  1  0  0  0  0
 46 68  1  0  0  0  0
 47 57  1  0  0  0  0
 48 62  1  0  0  0  0
 49 63  1  0  0  0  0
 50 63  1  0  0  0  0
 51 64  1  0  0  0  0
 52 64  1  0  0  0  0
 53 64  1  0  0  0  0
 54 77  1  0  0  0  0
 55 58  1  0  0  0  0
 56 76  1  0  0  0  0
 57 59  1  0  0  0  0
 58 60  1  0  0  0  0
 59 69  1  0  0  0  0
 60 84  1  0  0  0  0
 61 64  1  0  0  0  0
 61 75  1  0  0  0  0
 62 77  1  0  0  0  0
 63 76  1  0  0  0  0
 65 68  1  0  0  0  0
 66 67  1  0  0  0  0
M  CHG  1  77   1
M  ISO  4  34 100  60 101  76 100  84 101
M  END
> <Batch ID>
0060

> <Smiles>
CCCn1c(CC[101CH2:1][101O:1]c2ccc3c(c2)CN(C(=O)C(NC(=O)C(C)NC)C(C)(C)C)C(C(=O)NC2CCCc4ccccc42)C3)nnc1C[100N:0](C(C)C)[100C:0](=O)N1CCCC(n2nc(-c3ccc(Oc4ccc(F)cc4F)cc3)c(C(N)=O)c2N)C1

> <Shape>
0.221

> <Color>
0.078

> <Negative vol penalty>
0.000

$$$$

  -OEChem-04052317552D

  0  0  0     0  0  0  0  0  0999 V2000
M  END
$$$$

  -OEChem-04052317553D

 81 89  0     1  0  0  0  0  0999 V2000
  -18.0328  -27.5670   22.9903 C   0  0  0  0  0  0  0  0  0  0  0  0
  -18.8294  -26.4531   22.7451 C   0  0  0  0  0  0  0  0  0  0  0  0
  -22.2074  -14.9068   20.7327 C   0  0  0  0  0  0  0  0  0  0  0  0
  -23.3666  -15.5848   22.7411 C   0  0  0  0  0  0  0  0  0  0  0  0
  -18.5821  -28.8461   22.9127 C   0  0  0  0  0  0  0  0  0  0  0  0
  -20.1756  -26.6179   22.4211 C   0  0  0  0  0  0  0  0  0  0  0  0
  -24.8138  -22.9328   23.9746 C   0  0  0  0  0  0  0  0  0  0  0  0
  -21.0996  -14.5390   21.4962 C   0  0  0  0  0  0  0  0  0  0  0  0
  -22.2587  -15.2171   23.5046 C   0  0  0  0  0  0  0  0  0  0  0  0
  -25.4824  -21.9238   23.2827 C   0  0  0  0  0  0  0  0  0  0  0  0
  -18.5002  -16.0774   23.0160 C   0  0  0  0  0  0  0  0  0  0  0  0
  -17.2410  -16.4692   22.5617 C   0  0  0  0  0  0  0  0  0  0  0  0
  -27.1903  -23.5026   22.6426 C   0  0  0  0  0  0  0  0  0  0  0  0
  -16.5687  -14.1525   22.4270 C   0  0  0  0  0  0  0  0  0  0  0  0
  -29.4358  -19.2664   18.6050 C   0  0  0  0  0  0  0  0  0  0  0  0
  -23.3410  -15.4296   21.3551 C   0  0  0  0  0  0  0  0  0  0  0  0
  -24.7434  -17.0687   19.9934 C   0  0  0  0  0  0  0  0  0  0  0  0
  -19.9380  -29.0262   22.5971 C   0  0  0  0  0  0  0  0  0  0  0  0
  -25.3237  -24.2390   23.9965 C   0  0  0  0  0  0  0  0  0  0  0  0
  -20.7432  -27.9007   22.3379 C   0  0  0  0  0  0  0  0  0  0  0  0
  -26.5277  -24.5258   23.3376 C   0  0  0  0  0  0  0  0  0  0  0  0
  -21.1251  -14.6942   22.8822 C   0  0  0  0  0  0  0  0  0  0  0  0
  -26.6693  -22.2092   22.6142 C   0  0  0  0  0  0  0  0  0  0  0  0
  -18.7938  -14.7231   23.1757 C   0  0  0  0  0  0  0  0  0  0  0  0
  -16.2752  -15.5068   22.2673 C   0  0  0  0  0  0  0  0  0  0  0  0
  -17.8280  -13.7607   22.8812 C   0  0  0  0  0  0  0  0  0  0  0  0
  -24.4859  -15.8091   20.5670 C   0  0  0  0  0  0  0  0  0  0  0  0
  -30.0590  -18.2504   19.2955 C   0  0  0  0  0  0  0  0  0  0  0  0
  -29.7073  -19.3692   21.2588 C   0  0  0  0  0  0  0  0  0  0  0  0
  -29.0848  -20.3855   20.5681 C   0  0  0  0  0  0  0  0  0  0  0  0
  -25.9478  -16.9140   19.3515 C   0  0  0  0  0  0  0  0  0  0  0  0
  -23.9636  -18.2711   20.0369 C   0  0  0  0  0  0  0  0  0  0  0  0
  -24.2835  -27.0701   22.9933 C   0  0  0  0  0  0  0  0  0  0  0  0
  -26.9488  -28.1462   24.4968 C   0  0  0  0  0  0  0  0  0  0  0  0
  -30.0892  -27.4819   25.6559 C   0  0  0  0  0  0  0  0  0  0  0  0
  -31.2629  -14.9431   19.7786 C   0  0  0  0  0  0  0  0  0  0  0  0
  -20.4755  -30.4304   22.4785 C   0  0  0  0  0  0  0  0  0  0  0  0
  -24.6045  -25.3102   24.7697 C   0  0  0  0  0  0  0  0  0  0  0  0
  -27.1276  -25.9073   23.3476 C   0  0  0  0  0  0  0  0  0  0  0  0
  -22.0002  -30.5025   22.4967 C   0  0  0  0  0  0  0  0  0  0  0  0
  -28.6430  -12.7695   18.3248 C   0  0  0  0  0  0  0  0  0  0  0  0
  -22.5954  -29.4542   21.5621 C   0  0  0  0  0  0  0  0  0  0  0  0
  -27.3541  -13.4395   18.7978 C   0  0  0  0  0  0  0  0  0  0  0  0
  -29.7983  -13.0175   19.2899 C   0  0  0  0  0  0  0  0  0  0  0  0
  -28.7558  -15.1268   20.0502 C   0  0  0  0  0  0  0  0  0  0  0  0
  -22.2138  -28.0374   22.0078 C   0  0  1  0  0  0  0  0  0  0  0  0
  -24.9452  -26.7198   24.2960 C   0  0  1  0  0  0  0  0  0  0  0  0
  -27.5835  -14.9352   19.0763 C   0  0  2  0  0  0  0  0  0  0  0  0
  -29.8627  -19.4180   22.7405 C   0  0  0  0  0  0  0  0  0  0  0  0
  -32.0360  -28.5709   26.8054 C   0  0  0  0  0  0  0  0  0  0  0  0
  -27.7031  -29.5429   21.8910 C   0  0  0  0  0  0  0  0  0  0  0  0
  -30.0305  -29.7919   22.7794 C   0  0  0  0  0  0  0  0  0  0  0  0
  -28.1242  -30.8892   23.9560 C   0  0  0  0  0  0  0  0  0  0  0  0
  -32.8358  -16.8320   19.5852 C   0  0  0  0  0  0  0  0  0  0  0  0
  -29.9138  -25.6311   27.9587 C   0  0  0  0  0  0  0  0  0  0  0  0
  -30.5984  -17.0661   18.5728 C   0  0  0  0  0  0  0  0  0  0  0  0
  -28.5342  -21.5890   21.2750 C   0  0  0  0  0  0  0  0  0  1  0  0
  -28.3846  -28.3781   24.0921 C   0  0  1  0  0  0  0  0  0  0  0  0
  -30.7536  -27.7744   26.9891 C   0  0  2  0  0  0  0  0  0  0  0  0
  -28.5486  -29.6248   23.1776 C   0  0  0  0  0  0  0  0  0  0  0  0
  -28.9376  -20.3523   19.2289 N   0  0  0  0  0  0  0  0  0  0  0  0
  -25.4492  -14.9198   20.3119 N   0  0  0  0  0  0  0  0  0  0  0  0
  -30.2059  -18.2835   20.6349 N   0  0  0  0  0  0  0  0  0  0  0  0
  -26.3237  -15.6214   19.5708 N   0  0  0  0  0  0  0  0  0  0  0  0
  -26.3838  -26.9220   24.1122 N   0  0  0  0  0  0  0  0  0  0  0  0
  -29.9666  -14.4437   19.5708 N   0  0  0  0  0  0  0  0  0  0  0  0
  -26.7113  -17.7588   18.6265 N   0  0  0  0  0  0  0  0  0  0  0  0
  -22.7516  -18.2563   20.7406 N   0  0  0  0  0  0  0  0  0  0  0  0
  -23.0259  -27.6255   23.1326 N   0  0  0  0  0  0  0  0  0  0  0  0
  -29.1529  -28.4404   25.3307 N   0  0  0  0  0  0  0  0  0  0  0  0
  -31.5044  -16.2724   19.4002 N   0  0  0  0  0  0  0  0  0  0  0  0
  -31.0866  -26.5030   27.6918 N   0  3  0  0  0  0  0  0  0  0  0  0
  -24.3228  -19.3227   19.4550 O   0  0  0  0  0  0  0  0  0  0  0  0
  -24.8710  -26.8540   21.9399 O   0  0  0  0  0  0  0  0  0  0  0  0
  -26.3529  -29.0161   25.1369 O   0  0  0  0  0  0  0  0  0  0  0  0
  -30.3751  -26.5032   24.9697 O   0  0  0  0  0  0  0  0  0  0  0  0
  -32.1561  -14.2378   20.2652 O   0  0  0  0  0  0  0  0  0  0  0  0
  -20.0442  -14.3357   23.6275 O   0  0  0  0  0  0  0  0  0  0  0  0
  -27.3235  -21.2263   21.9376 O   0  0  0  0  0  0  0  0  0  1  0  0
  -15.0655  -15.8832   21.8326 F   0  0  0  0  0  0  0  0  0  0  0  0
  -18.1038  -12.4582   23.0338 F   0  0  0  0  0  0  0  0  0  0  0  0
  1  2  1  0  0  0  0
  1  5  2  0  0  0  0
  2  6  2  0  0  0  0
  3  8  2  0  0  0  0
  3 16  1  0  0  0  0
  4  9  1  0  0  0  0
  4 16  2  0  0  0  0
  5 18  1  0  0  0  0
  6 20  1  0  0  0  0
  7 10  2  0  0  0  0
  7 19  1  0  0  0  0
  8 22  1  0  0  0  0
  9 22  2  0  0  0  0
 10 23  1  0  0  0  0
 11 12  2  0  0  0  0
 11 24  1  0  0  0  0
 12 25  1  0  0  0  0
 13 21  1  0  0  0  0
 13 23  2  0  0  0  0
 14 25  2  0  0  0  0
 14 26  1  0  0  0  0
 15 28  1  0  0  0  0
 15 61  2  0  0  0  0
 16 27  1  0  0  0  0
 17 27  1  0  0  0  0
 17 31  2  0  0  0  0
 17 32  1  0  0  0  0
 18 20  2  0  0  0  0
 18 37  1  0  0  0  0
 19 21  2  0  0  0  0
 19 38  1  0  0  0  0
 20 46  1  0  0  0  0
 21 39  1  0  0  0  0
 22 78  1  0  0  0  0
 23 79  1  0  0  0  0
 24 26  2  0  0  0  0
 24 78  1  0  0  0  0
 25 80  1  0  0  0  0
 26 81  1  0  0  0  0
 27 62  2  0  0  0  0
 28 56  1  0  0  0  0
 28 63  2  0  0  0  0
 29 30  2  0  0  0  0
 29 49  1  0  0  0  0
 29 63  1  0  0  0  0
 30 57  1  0  0  0  0
 30 61  1  0  0  0  0
 31 64  1  0  0  0  0
 31 67  1  0  0  0  0
 32 68  1  0  0  0  0
 32 73  2  0  0  0  0
 33 47  1  0  0  0  0
 33 69  1  0  0  0  0
 33 74  2  0  0  0  0
 34 58  1  0  0  0  0
 34 65  1  0  0  0  0
 34 75  2  0  0  0  0
 35 59  1  0  0  0  0
 35 70  1  0  0  0  0
 35 76  2  0  0  0  0
 36 66  1  0  0  0  0
 36 71  1  0  0  0  0
 36 77  2  0  0  0  0
 37 40  1  0  0  0  0
 38 47  1  0  0  0  0
 39 65  1  0  0  0  0
 40 42  1  0  0  0  0
 41 43  1  0  0  0  0
 41 44  1  0  0  0  0
 42 46  1  0  0  0  0
 43 48  1  0  0  0  0
 44 66  1  0  0  0  0
 45 48  1  0  0  0  0
 45 66  1  0  0  0  0
 46 69  1  0  0  0  0
 47 65  1  0  0  0  0
 48 64  1  0  0  0  0
 50 59  1  0  0  0  0
 51 60  1  0  0  0  0
 52 60  1  0  0  0  0
 53 60  1  0  0  0  0
 54 71  1  0  0  0  0
 55 72  1  0  0  0  0
 56 71  1  0  0  0  0
 57 79  1  0  0  0  0
 58 60  1  0  0  0  0
 58 70  1  0  0  0  0
 59 72  1  0  0  0  0
 62 64  1  0  0  0  0
M  CHG  1  72   1
M  ISO  4  36 100  57 101  71 100  79 101
M  END
> <Batch ID>
0060

> <Smiles>
CNC(C)C(=O)NC(C(=O)N1Cc2cc([101O:1][101CH2:1]c3ncc(C[100N:0](C)[100C:0](=O)N4CCCC(n5nc(-c6ccc(Oc7ccc(F)cc7F)cc6)c(C(N)=O)c5N)C4)nc3C)ccc2CC1C(=O)NC1CCCc2ccccc21)C(C)(C)C

> <Shape>
0.181

> <Color>
0.072

> <Negative vol penalty>
0.000

$$$$

  -OEChem-04052317553D

 82 90  0     1  0  0  0  0  0999 V2000
  -35.6451  -28.4865   20.0508 C   0  0  0  0  0  0  0  0  0  0  0  0
  -34.8788  -27.3606   20.3342 C   0  0  0  0  0  0  0  0  0  0  0  0
  -23.7045   -9.5780   21.4395 C   0  0  0  0  0  0  0  0  0  0  0  0
  -24.2307  -10.6082   23.5605 C   0  0  0  0  0  0  0  0  0  0  0  0
  -35.0280  -29.7268   19.8932 C   0  0  0  0  0  0  0  0  0  0  0  0
  -33.4948  -27.4745   20.4613 C   0  0  0  0  0  0  0  0  0  0  0  0
  -31.0109  -23.7952   18.0244 C   0  0  0  0  0  0  0  0  0  0  0  0
  -23.1486   -8.4869   22.1074 C   0  0  0  0  0  0  0  0  0  0  0  0
  -23.6747   -9.5172   24.2284 C   0  0  0  0  0  0  0  0  0  0  0  0
  -30.9575  -22.5462   18.6415 C   0  0  0  0  0  0  0  0  0  0  0  0
  -20.2557   -7.7479   23.6943 C   0  0  0  0  0  0  0  0  0  0  0  0
  -19.0281   -7.2664   23.2396 C   0  0  0  0  0  0  0  0  0  0  0  0
  -28.7257  -23.0317   19.4177 C   0  0  0  0  0  0  0  0  0  0  0  0
  -20.0350   -5.1148   22.7995 C   0  0  0  0  0  0  0  0  0  0  0  0
  -24.2457  -10.6386   22.1661 C   0  0  0  0  0  0  0  0  0  0  0  0
  -24.1603  -12.9406   21.0701 C   0  0  0  0  0  0  0  0  0  0  0  0
  -33.6348  -29.8542   20.0088 C   0  0  0  0  0  0  0  0  0  0  0  0
  -29.9244  -24.6778   18.1087 C   0  0  0  0  0  0  0  0  0  0  0  0
  -32.8586  -28.7178   20.3064 C   0  0  0  0  0  0  0  0  0  0  0  0
  -28.7668  -24.2904   18.7986 C   0  0  0  0  0  0  0  0  0  0  0  0
  -23.1336   -8.4565   23.5018 C   0  0  0  0  0  0  0  0  0  0  0  0
  -29.8159  -22.1654   19.3407 C   0  0  0  0  0  0  0  0  0  0  0  0
  -21.3731   -6.9129   23.7015 C   0  0  0  0  0  0  0  0  0  0  0  0
  -18.9177   -5.9499   22.7923 C   0  0  0  0  0  0  0  0  0  0  0  0
  -21.2627   -5.5963   23.2541 C   0  0  0  0  0  0  0  0  0  0  0  0
  -24.8206  -11.7657   21.4767 C   0  0  0  0  0  0  0  0  0  0  0  0
  -30.6603  -18.7042   21.8908 C   0  0  0  0  0  0  0  0  0  0  0  0
  -30.6456  -18.8099   20.5237 C   0  0  0  0  0  0  0  0  0  0  0  0
  -25.1376  -13.6915   20.4638 C   0  0  0  0  0  0  0  0  0  0  0  0
  -30.1752  -16.5075   21.6943 C   0  0  0  0  0  0  0  0  0  0  0  0
  -22.7863  -13.3194   21.2264 C   0  0  0  0  0  0  0  0  0  0  0  0
  -29.4833  -27.5832   19.3200 C   0  0  0  0  0  0  0  0  0  0  0  0
  -26.5672  -27.2959   17.9285 C   0  0  0  0  0  0  0  0  0  0  0  0
  -24.1095  -25.2427   16.7491 C   0  0  0  0  0  0  0  0  0  0  0  0
  -31.2106  -13.3417   21.1951 C   0  0  0  0  0  0  0  0  0  0  0  0
  -33.0177  -31.2240   19.8769 C   0  0  0  0  0  0  0  0  0  0  0  0
  -29.9875  -26.0108   17.4149 C   0  0  0  0  0  0  0  0  0  0  0  0
  -27.5655  -25.1930   18.9015 C   0  0  0  0  0  0  0  0  0  0  0  0
  -31.5075  -31.1931   19.6567 C   0  0  0  0  0  0  0  0  0  0  0  0
  -29.2457  -13.2737   18.0588 C   0  0  0  0  0  0  0  0  0  0  0  0
  -30.8449  -30.2287   20.6353 C   0  0  0  0  0  0  0  0  0  0  0  0
  -27.8464  -12.9071   18.5503 C   0  0  0  0  0  0  0  0  0  0  0  0
  -30.3322  -12.7180   18.9745 C   0  0  0  0  0  0  0  0  0  0  0  0
  -28.7735  -12.7393   20.8940 C   0  0  0  0  0  0  0  0  0  0  0  0
  -31.3522  -28.7966   20.4272 C   0  0  1  0  0  0  0  0  0  0  0  0
  -29.0201  -27.0352   17.9999 C   0  0  1  0  0  0  0  0  0  0  0  0
  -27.6543  -13.3234   20.0190 C   0  0  2  0  0  0  0  0  0  0  0  0
  -31.2205  -19.4855   24.2064 C   0  0  0  0  0  0  0  0  0  0  0  0
  -21.8282  -25.2989   15.7051 C   0  0  0  0  0  0  0  0  0  0  0  0
  -25.3448  -27.9698   20.6418 C   0  0  0  0  0  0  0  0  0  0  0  0
  -23.1575  -27.0929   19.7961 C   0  0  0  0  0  0  0  0  0  0  0  0
  -24.2215  -29.0604   18.6916 C   0  0  0  0  0  0  0  0  0  0  0  0
  -32.1667  -14.5772   23.1027 C   0  0  0  0  0  0  0  0  0  0  0  0
  -25.0658  -23.8700   14.3077 C   0  0  0  0  0  0  0  0  0  0  0  0
  -30.9417  -19.8826   22.7587 C   0  0  0  0  0  0  0  0  0  0  0  0
  -30.9100  -20.1092   19.8213 C   0  0  0  0  0  0  0  0  0  1  0  0
  -29.9047  -15.1878   22.3305 C   0  0  0  0  0  0  0  0  0  0  0  0
  -25.2233  -26.7625   18.3628 C   0  0  1  0  0  0  0  0  0  0  0  0
  -23.3265  -25.2528   15.4486 C   0  0  2  0  0  0  0  0  0  0  0  0
  -24.5100  -27.7050   19.3729 C   0  0  0  0  0  0  0  0  0  0  0  0
  -26.1172  -11.7655   21.1558 N   0  0  0  0  0  0  0  0  0  0  0  0
  -30.4234  -17.5399   22.5139 N   0  0  0  0  0  0  0  0  0  0  0  0
  -30.3900  -17.7379   19.7520 N   0  0  0  0  0  0  0  0  0  0  0  0
  -30.1473  -16.5519   20.3478 N   0  0  0  0  0  0  0  0  0  0  0  0
  -26.2794  -12.9494   20.5409 N   0  0  0  0  0  0  0  0  0  0  0  0
  -27.6781  -26.4887   18.2117 N   0  0  0  0  0  0  0  0  0  0  0  0
  -30.1015  -13.0925   20.3701 N   0  0  0  0  0  0  0  0  0  0  0  0
  -25.1231  -14.9074   19.8776 N   0  0  0  0  0  0  0  0  0  0  0  0
  -21.9175  -12.4300   21.8731 N   0  0  0  0  0  0  0  0  0  0  0  0
  -30.7193  -28.1992   19.2709 N   0  0  0  0  0  0  0  0  0  0  0  0
  -24.4675  -26.5158   17.1396 N   0  0  0  0  0  0  0  0  0  0  0  0
  -31.0424  -14.2764   22.2279 N   0  0  0  0  0  0  0  0  0  0  0  0
  -23.6296  -24.0303   14.6520 N   0  3  0  0  0  0  0  0  0  0  0  0
  -22.3387  -14.4071   20.7905 O   0  0  0  0  0  0  0  0  0  0  0  0
  -28.7714  -27.4579   20.3095 O   0  0  0  0  0  0  0  0  0  0  0  0
  -26.6282  -28.3851   17.3528 O   0  0  0  0  0  0  0  0  0  0  0  0
  -24.3737  -24.2093   17.3595 O   0  0  0  0  0  0  0  0  0  0  0  0
  -32.2925  -12.7689   21.0125 O   0  0  0  0  0  0  0  0  0  0  0  0
  -22.5910   -7.3921   24.1539 O   0  0  0  0  0  0  0  0  0  0  0  0
  -29.7614  -20.9471   19.9445 O   0  0  0  0  0  0  0  0  0  1  0  0
  -17.7384   -5.4872   22.3571 F   0  0  0  0  0  0  0  0  0  0  0  0
  -22.3323   -4.7890   23.2597 F   0  0  0  0  0  0  0  0  0  0  0  0
  1  2  1  0  0  0  0
  1  5  2  0  0  0  0
  2  6  2  0  0  0  0
  3  8  2  0  0  0  0
  3 15  1  0  0  0  0
  4  9  1  0  0  0  0
  4 15  2  0  0  0  0
  5 17  1  0  0  0  0
  6 19  1  0  0  0  0
  7 10  2  0  0  0  0
  7 18  1  0  0  0  0
  8 21  1  0  0  0  0
  9 21  2  0  0  0  0
 10 22  1  0  0  0  0
 11 12  2  0  0  0  0
 11 23  1  0  0  0  0
 12 24  1  0  0  0  0
 13 20  1  0  0  0  0
 13 22  2  0  0  0  0
 14 24  2  0  0  0  0
 14 25  1  0  0  0  0
 15 26  1  0  0  0  0
 16 26  1  0  0  0  0
 16 29  2  0  0  0  0
 16 31  1  0  0  0  0
 17 19  2  0  0  0  0
 17 36  1  0  0  0  0
 18 20  2  0  0  0  0
 18 37  1  0  0  0  0
 19 45  1  0  0  0  0
 20 38  1  0  0  0  0
 21 79  1  0  0  0  0
 22 80  1  0  0  0  0
 23 25  2  0  0  0  0
 23 79  1  0  0  0  0
 24 81  1  0  0  0  0
 25 82  1  0  0  0  0
 26 61  2  0  0  0  0
 27 28  2  0  0  0  0
 27 55  1  0  0  0  0
 27 62  1  0  0  0  0
 28 56  1  0  0  0  0
 28 63  1  0  0  0  0
 29 65  1  0  0  0  0
 29 68  1  0  0  0  0
 30 57  1  0  0  0  0
 30 62  2  0  0  0  0
 30 64  1  0  0  0  0
 31 69  1  0  0  0  0
 31 74  2  0  0  0  0
 32 46  1  0  0  0  0
 32 70  1  0  0  0  0
 32 75  2  0  0  0  0
 33 58  1  0  0  0  0
 33 66  1  0  0  0  0
 33 76  2  0  0  0  0
 34 59  1  0  0  0  0
 34 71  1  0  0  0  0
 34 77  2  0  0  0  0
 35 67  1  0  0  0  0
 35 72  1  0  0  0  0
 35 78  2  0  0  0  0
 36 39  1  0  0  0  0
 37 46  1  0  0  0  0
 38 66  1  0  0  0  0
 39 41  1  0  0  0  0
 40 42  1  0  0  0  0
 40 43  1  0  0  0  0
 41 45  1  0  0  0  0
 42 47  1  0  0  0  0
 43 67  1  0  0  0  0
 44 47  1  0  0  0  0
 44 67  1  0  0  0  0
 45 70  1  0  0  0  0
 46 66  1  0  0  0  0
 47 65  1  0  0  0  0
 48 55  1  0  0  0  0
 49 59  1  0  0  0  0
 50 60  1  0  0  0  0
 51 60  1  0  0  0  0
 52 60  1  0  0  0  0
 53 72  1  0  0  0  0
 54 73  1  0  0  0  0
 56 80  1  0  0  0  0
 57 72  1  0  0  0  0
 58 60  1  0  0  0  0
 58 71  1  0  0  0  0
 59 73  1  0  0  0  0
 61 65  1  0  0  0  0
 63 64  2  0  0  0  0
M  CHG  1  73   1
M  ISO  4  35 100  56 101  72 100  80 101
M  END
> <Batch ID>
0060

> <Smiles>
CCc1nc(C[100N:0](C)[100C:0](=O)N2CCCC(n3nc(-c4ccc(Oc5ccc(F)cc5F)cc4)c(C(N)=O)c3N)C2)nnc1[101CH2:1][101O:1]c1ccc2c(c1)CN(C(=O)C(NC(=O)C(C)NC)C(C)(C)C)C(C(=O)NC1CCCc3ccccc31)C2

> <Shape>
0.268

> <Color>
0.162

> <Negative vol penalty>
0.000

$$$$

  -OEChem-04052317553D

 86 94  0     1  0  0  0  0  0999 V2000
  -25.5323  -34.1140   27.7357 C   0  0  0  0  0  0  0  0  0  0  0  0
  -26.3125  -33.3311   26.8910 C   0  0  0  0  0  0  0  0  0  0  0  0
  -26.5565  -12.0108   21.2537 C   0  0  0  0  0  0  0  0  0  0  0  0
  -25.9084  -13.6967   19.6492 C   0  0  0  0  0  0  0  0  0  0  0  0
  -24.1854  -33.8063   27.9229 C   0  0  0  0  0  0  0  0  0  0  0  0
  -25.7465  -32.2392   26.2338 C   0  0  0  0  0  0  0  0  0  0  0  0
  -27.1334  -30.1905   20.6316 C   0  0  0  0  0  0  0  0  0  0  0  0
  -25.3364  -11.3617   21.0647 C   0  0  0  0  0  0  0  0  0  0  0  0
  -24.6883  -13.0477   19.4600 C   0  0  0  0  0  0  0  0  0  0  0  0
  -27.9543  -29.1544   20.1883 C   0  0  0  0  0  0  0  0  0  0  0  0
  -22.1336  -11.7351   22.0782 C   0  0  0  0  0  0  0  0  0  0  0  0
  -21.4487  -11.3009   23.2130 C   0  0  0  0  0  0  0  0  0  0  0  0
  -26.0337  -27.7018   20.0461 C   0  0  0  0  0  0  0  0  0  0  0  0
  -21.5587   -9.0253   22.4088 C   0  0  0  0  0  0  0  0  0  0  0  0
  -31.2917  -24.8419   17.1443 C   0  0  0  0  0  0  0  0  0  0  0  0
  -26.8425  -13.1783   20.5460 C   0  0  0  0  0  0  0  0  0  0  0  0
  -29.2991  -13.6345   20.0318 C   0  0  0  0  0  0  0  0  0  0  0  0
  -23.6002  -32.7159   27.2602 C   0  0  0  0  0  0  0  0  0  0  0  0
  -25.7559  -29.9865   20.7961 C   0  0  0  0  0  0  0  0  0  0  0  0
  -24.3908  -31.9158   26.4134 C   0  0  0  0  0  0  0  0  0  0  0  0
  -25.1972  -28.7376   20.4891 C   0  0  0  0  0  0  0  0  0  0  0  0
  -24.4023  -11.8802   20.1678 C   0  0  0  0  0  0  0  0  0  0  0  0
  -27.4049  -27.9090   19.8982 C   0  0  0  0  0  0  0  0  0  0  0  0
  -22.5311  -10.8144   21.1086 C   0  0  0  0  0  0  0  0  0  0  0  0
  -21.1612   -9.9460   23.3784 C   0  0  0  0  0  0  0  0  0  0  0  0
  -22.2437   -9.4596   21.2739 C   0  0  0  0  0  0  0  0  0  0  0  0
  -28.1024  -13.8495   20.7414 C   0  0  0  0  0  0  0  0  0  0  0  0
  -30.1934  -14.5132   20.5927 C   0  0  0  0  0  0  0  0  0  0  0  0
  -31.1203  -23.8965   19.1725 C   0  0  0  0  0  0  0  0  0  0  0  0
  -30.2974  -25.9546   18.8206 C   0  0  0  0  0  0  0  0  0  0  0  0
  -29.5775  -12.7221   18.9614 C   0  0  0  0  0  0  0  0  0  0  0  0
  -23.7496  -30.1018   23.2589 C   0  0  0  0  0  0  0  0  0  0  0  0
  -21.5113  -29.6459   20.9557 C   0  0  0  0  0  0  0  0  0  0  0  0
  -29.4174  -19.6815   23.5589 C   0  0  0  0  0  0  0  0  0  0  0  0
  -20.7595  -28.4860   17.8354 C   0  0  0  0  0  0  0  0  0  0  0  0
  -22.1518  -32.3942   27.5308 C   0  0  0  0  0  0  0  0  0  0  0  0
  -24.8800  -31.1221   21.2496 C   0  0  0  0  0  0  0  0  0  0  0  0
  -23.7211  -28.4730   20.6297 C   0  0  0  0  0  0  0  0  0  0  0  0
  -21.5371  -31.4441   26.5062 C   0  0  0  0  0  0  0  0  0  0  0  0
  -31.1718  -16.7684   24.6884 C   0  0  0  0  0  0  0  0  0  0  0  0
  -22.4692  -30.2652   26.2448 C   0  0  0  0  0  0  0  0  0  0  0  0
  -30.6709  -15.6644   23.7581 C   0  0  0  0  0  0  0  0  0  0  0  0
  -30.0725  -17.7799   24.9973 C   0  0  0  0  0  0  0  0  0  0  0  0
  -28.9446  -17.2841   22.8517 C   0  0  0  0  0  0  0  0  0  0  0  0
  -23.8071  -30.7380   25.6636 C   0  0  1  0  0  0  0  0  0  0  0  0
  -23.5688  -30.6533   21.8729 C   0  0  1  0  0  0  0  0  0  0  0  0
  -30.0327  -16.2578   22.4896 C   0  0  2  0  0  0  0  0  0  0  0  0
  -18.8380  -28.2165   16.2441 C   0  0  0  0  0  0  0  0  0  0  0  0
  -28.8606  -19.3323   19.7987 C   0  0  0  0  0  0  0  0  0  0  0  0
  -28.8540  -21.6825   22.2821 C   0  0  0  0  0  0  0  0  0  0  0  0
  -27.3221  -19.7037   22.2620 C   0  0  0  0  0  0  0  0  0  0  0  0
  -20.4954  -27.2763   22.5875 C   0  0  0  0  0  0  0  0  0  0  0  0
  -19.2564  -26.4979   20.5560 C   0  0  0  0  0  0  0  0  0  0  0  0
  -18.6996  -28.7002   21.5866 C   0  0  0  0  0  0  0  0  0  0  0  0
  -22.0437  -30.2189   15.8089 C   0  0  0  0  0  0  0  0  0  0  0  0
  -31.9764  -19.6360   20.2732 C   0  0  0  0  0  0  0  0  0  0  0  0
  -31.3722  -22.7458   20.0862 C   0  0  0  0  0  0  0  0  0  0  0  0
  -29.5963  -27.1786   19.3322 C   0  0  0  0  0  0  0  0  0  1  0  0
  -30.4407  -21.5530   19.8642 C   0  0  0  0  0  0  0  0  0  0  0  0
  -20.8683  -28.4405   20.3134 C   0  0  1  0  0  0  0  0  0  0  0  0
  -19.9856  -29.1100   16.6882 C   0  0  2  0  0  0  0  0  0  0  0  0
  -29.6295  -19.5503   21.1019 C   0  0  2  0  0  0  0  0  0  0  0  0
  -28.7929  -20.1445   22.2668 C   0  0  0  0  0  0  0  0  0  0  0  0
  -19.8581  -27.7328   21.2600 C   0  0  0  0  0  0  0  0  0  0  0  0
  -31.5508  -23.7675   17.9072 N   0  0  0  0  0  0  0  0  0  0  0  0
  -30.6708  -25.9680   17.5309 N   0  0  0  0  0  0  0  0  0  0  0  0
  -28.2223  -14.7909   21.6813 N   0  0  0  0  0  0  0  0  0  0  0  0
  -30.4878  -24.9573   19.6993 N   0  0  0  0  0  0  0  0  0  0  0  0
  -29.5049  -15.1751   21.5663 N   0  0  0  0  0  0  0  0  0  0  0  0
  -22.9073  -29.6132   21.0825 N   0  0  0  0  0  0  0  0  0  0  0  0
  -29.4764  -18.3034   23.7669 N   0  0  0  0  0  0  0  0  0  0  0  0
  -31.4937  -14.7765   20.3430 N   0  0  0  0  0  0  0  0  0  0  0  0
  -28.5447  -11.8910   18.5064 N   0  0  0  0  0  0  0  0  0  0  0  0
  -23.6647  -31.0524   24.2582 N   0  0  0  0  0  0  0  0  0  0  0  0
  -20.2862  -28.9077   19.0599 N   0  0  0  0  0  0  0  0  0  0  0  0
  -20.8835  -29.3371   15.5206 N   0  3  0  0  0  0  0  0  0  0  0  0
  -30.8036  -20.4409   20.7770 N   0  3  1  0  0  0  0  0  0  0  0  0
  -30.7129  -12.6346   18.4354 O   0  0  0  0  0  0  0  0  0  0  0  0
  -23.9497  -28.9024   23.4105 O   0  0  0  0  0  0  0  0  0  0  0  0
  -20.8018  -30.5851   21.3247 O   0  0  0  0  0  0  0  0  0  0  0  0
  -29.8423  -20.5210   24.3570 O   0  0  0  0  0  0  0  0  0  0  0  0
  -21.6884  -27.7000   17.6626 O   0  0  0  0  0  0  0  0  0  0  0  0
  -23.2118  -11.2470   19.9828 O   0  0  0  0  0  0  0  0  0  0  0  0
  -28.2040  -26.8958   19.4660 O   0  0  0  0  0  0  0  0  0  1  0  0
  -20.5048   -9.5290   24.4689 F   0  0  0  0  0  0  0  0  0  0  0  0
  -22.6240   -8.5702   20.3464 F   0  0  0  0  0  0  0  0  0  0  0  0
  1  2  1  0  0  0  0
  1  5  2  0  0  0  0
  2  6  2  0  0  0  0
  3  8  2  0  0  0  0
  3 16  1  0  0  0  0
  4  9  1  0  0  0  0
  4 16  2  0  0  0  0
  5 18  1  0  0  0  0
  6 20  1  0  0  0  0
  7 10  2  0  0  0  0
  7 19  1  0  0  0  0
  8 22  1  0  0  0  0
  9 22  2  0  0  0  0
 10 23  1  0  0  0  0
 11 12  2  0  0  0  0
 11 24  1  0  0  0  0
 12 25  1  0  0  0  0
 13 21  1  0  0  0  0
 13 23  2  0  0  0  0
 14 25  2  0  0  0  0
 14 26  1  0  0  0  0
 15 65  1  0  0  0  0
 15 66  2  0  0  0  0
 16 27  1  0  0  0  0
 17 27  1  0  0  0  0
 17 28  2  0  0  0  0
 17 31  1  0  0  0  0
 18 20  2  0  0  0  0
 18 36  1  0  0  0  0
 19 21  2  0  0  0  0
 19 37  1  0  0  0  0
 20 45  1  0  0  0  0
 21 38  1  0  0  0  0
 22 83  1  0  0  0  0
 23 84  1  0  0  0  0
 24 26  2  0  0  0  0
 24 83  1  0  0  0  0
 25 85  1  0  0  0  0
 26 86  1  0  0  0  0
 27 67  2  0  0  0  0
 28 69  1  0  0  0  0
 28 72  1  0  0  0  0
 29 57  1  0  0  0  0
 29 65  2  0  0  0  0
 29 68  1  0  0  0  0
 30 58  1  0  0  0  0
 30 66  1  0  0  0  0
 30 68  2  0  0  0  0
 31 73  1  0  0  0  0
 31 78  2  0  0  0  0
 32 46  1  0  0  0  0
 32 74  1  0  0  0  0
 32 79  2  0  0  0  0
 33 60  1  0  0  0  0
 33 70  1  0  0  0  0
 33 80  2  0  0  0  0
 34 63  1  0  0  0  0
 34 71  1  0  0  0  0
 34 81  2  0  0  0  0
 35 61  1  0  0  0  0
 35 75  1  0  0  0  0
 35 82  2  0  0  0  0
 36 39  1  0  0  0  0
 37 46  1  0  0  0  0
 38 70  1  0  0  0  0
 39 41  1  0  0  0  0
 40 42  1  0  0  0  0
 40 43  1  0  0  0  0
 41 45  1  0  0  0  0
 42 47  1  0  0  0  0
 43 71  1  0  0  0  0
 44 47  1  0  0  0  0
 44 71  1  0  0  0  0
 45 74  1  0  0  0  0
 46 70  1  0  0  0  0
 47 69  1  0  0  0  0
 48 61  1  0  0  0  0
 49 62  1  0  0  0  0
 50 63  1  0  0  0  0
 51 63  1  0  0  0  0
 52 64  1  0  0  0  0
 53 64  1  0  0  0  0
 54 64  1  0  0  0  0
 55 76  1  0  0  0  0
 56 77  1  0  0  0  0
 57 59  1  0  0  0  0
 58 84  1  0  0  0  0
 59 77  1  0  0  0  0
 60 64  1  0  0  0  0
 60 75  1  0  0  0  0
 61 76  1  0  0  0  0
 62 63  1  0  0  0  0
 62 77  1  0  0  0  0
 67 69  1  0  0  0  0
M  CHG  2  76   1  77   1
M  ISO  4  34 100  58 101  63 100  84 101
M  END
> <Batch ID>
0060

> <Smiles>
CNC(C)C(=O)NC(C(=O)N1Cc2cc([101O:1][101CH2:1]c3ncnc(CCN(C)C(C)[100C:0](C)(C)[100C:0](=O)N4CCCC(n5nc(-c6ccc(Oc7ccc(F)cc7F)cc6)c(C(N)=O)c5N)C4)n3)ccc2CC1C(=O)NC1CCCc2ccccc21)C(C)(C)C

> <Shape>
0.313

> <Color>
0.094

> <Negative vol penalty>
0.000

$$$$

  -OEChem-04052317552D

  0  0  0     0  0  0  0  0  0999 V2000
M  END
$$$$

  -OEChem-04052317553D

 83 91  0     1  0  0  0  0  0999 V2000
  -21.5301  -12.5578   19.6933 C   0  0  0  0  0  0  0  0  0  0  0  0
  -21.5898  -13.7946   20.3274 C   0  0  0  0  0  0  0  0  0  0  0  0
  -29.5644  -29.2230   20.0336 C   0  0  0  0  0  0  0  0  0  0  0  0
  -29.0729  -26.9924   20.8207 C   0  0  0  0  0  0  0  0  0  0  0  0
  -22.6778  -11.7732   19.5887 C   0  0  0  0  0  0  0  0  0  0  0  0
  -22.7972  -14.2470   20.8584 C   0  0  0  0  0  0  0  0  0  0  0  0
  -23.7101  -19.1027   19.7475 C   0  0  0  0  0  0  0  0  0  0  0  0
  -30.9224  -29.0062   20.2670 C   0  0  0  0  0  0  0  0  0  0  0  0
  -30.4309  -26.7755   21.0541 C   0  0  0  0  0  0  0  0  0  0  0  0
  -23.0302  -20.0651   20.4926 C   0  0  0  0  0  0  0  0  0  0  0  0
  -33.7290  -25.7610   22.1959 C   0  0  0  0  0  0  0  0  0  0  0  0
  -34.0916  -25.1589   23.4006 C   0  0  0  0  0  0  0  0  0  0  0  0
  -24.9952  -20.3912   21.8533 C   0  0  0  0  0  0  0  0  0  0  0  0
  -33.0777  -26.9832   24.6176 C   0  0  0  0  0  0  0  0  0  0  0  0
  -20.7055  -22.9653   24.1045 C   0  0  0  0  0  0  0  0  0  0  0  0
  -28.6397  -28.2161   20.3104 C   0  0  0  0  0  0  0  0  0  0  0  0
  -26.5252  -28.1777   18.8839 C   0  0  0  0  0  0  0  0  0  0  0  0
  -23.9020  -12.2204   20.1102 C   0  0  0  0  0  0  0  0  0  0  0  0
  -25.0365  -18.7689   20.0571 C   0  0  0  0  0  0  0  0  0  0  0  0
  -23.9621  -13.4670   20.7620 C   0  0  0  0  0  0  0  0  0  0  0  0
  -25.6906  -19.4261   21.1090 C   0  0  0  0  0  0  0  0  0  0  0  0
  -31.3556  -27.7825   20.7773 C   0  0  0  0  0  0  0  0  0  0  0  0
  -23.6717  -20.7074   21.5475 C   0  0  0  0  0  0  0  0  0  0  0  0
  -33.0407  -26.9743   22.2019 C   0  0  0  0  0  0  0  0  0  0  0  0
  -33.7660  -25.7700   24.6115 C   0  0  0  0  0  0  0  0  0  0  0  0
  -32.7151  -27.5854   23.4128 C   0  0  0  0  0  0  0  0  0  0  0  0
  -27.2367  -28.4397   20.0700 C   0  0  0  0  0  0  0  0  0  0  0  0
  -21.1182  -22.9991   22.8025 C   0  0  0  0  0  0  0  0  0  0  0  0
  -25.2363  -28.5600   19.1651 C   0  0  0  0  0  0  0  0  0  0  0  0
  -20.4580  -25.0364   23.3629 C   0  0  0  0  0  0  0  0  0  0  0  0
  -26.9879  -27.6370   17.6392 C   0  0  0  0  0  0  0  0  0  0  0  0
  -26.5222  -16.1209   20.9974 C   0  0  0  0  0  0  0  0  0  0  0  0
  -29.1796  -17.9405   20.6105 C   0  0  0  0  0  0  0  0  0  0  0  0
  -30.5643  -21.0574   20.4894 C   0  0  0  0  0  0  0  0  0  0  0  0
  -21.4349  -28.5895   23.5313 C   0  0  0  0  0  0  0  0  0  0  0  0
  -25.1053  -11.3162   20.0149 C   0  0  0  0  0  0  0  0  0  0  0  0
  -25.7647  -17.7478   19.2268 C   0  0  0  0  0  0  0  0  0  0  0  0
  -27.1204  -19.1186   21.4691 C   0  0  0  0  0  0  0  0  0  0  0  0
  -26.4280  -12.0333   20.2734 C   0  0  0  0  0  0  0  0  0  0  0  0
  -23.1363  -31.5429   22.5020 C   0  0  0  0  0  0  0  0  0  0  0  0
  -26.3235  -12.9152   21.5136 C   0  0  0  0  0  0  0  0  0  0  0  0
  -24.3009  -31.0194   21.6597 C   0  0  0  0  0  0  0  0  0  0  0  0
  -22.8383  -30.6250   23.6854 C   0  0  0  0  0  0  0  0  0  0  0  0
  -23.7804  -28.6871   22.4892 C   0  0  0  0  0  0  0  0  0  0  0  0
  -25.2588  -14.0032   21.3288 C   0  0  1  0  0  0  0  0  0  0  0  0
  -26.9470  -17.1176   19.9563 C   0  0  1  0  0  0  0  0  0  0  0  0
  -24.0821  -29.5500   21.2520 C   0  0  2  0  0  0  0  0  0  0  0  0
  -19.0852  -26.8135   22.2147 C   0  0  0  0  0  0  0  0  0  0  0  0
  -32.7663  -22.2246   20.1960 C   0  0  0  0  0  0  0  0  0  0  0  0
  -29.9487  -17.2031   23.4696 C   0  0  0  0  0  0  0  0  0  0  0  0
  -31.5859  -19.0971   23.4436 C   0  0  0  0  0  0  0  0  0  0  0  0
  -31.8495  -17.2008   21.8444 C   0  0  0  0  0  0  0  0  0  0  0  0
  -19.7650  -23.4415   26.6774 C   0  0  0  0  0  0  0  0  0  0  0  0
  -18.3612  -25.2163   25.5553 C   0  0  0  0  0  0  0  0  0  0  0  0
  -20.6324  -25.7537   26.4053 C   0  0  0  0  0  0  0  0  0  0  0  0
  -29.6325  -22.4507   18.0503 C   0  0  0  0  0  0  0  0  0  0  0  0
  -21.6604  -21.9248   21.9062 C   0  0  0  0  0  0  0  0  0  1  0  0
  -20.1441  -26.4847   23.2811 C   0  0  2  0  0  0  0  0  0  0  0  0
  -29.9796  -18.8661   21.4949 C   0  0  1  0  0  0  0  0  0  0  0  0
  -31.5216  -21.6965   19.4998 C   0  0  2  0  0  0  0  0  0  0  0  0
  -30.8133  -18.0964   22.5578 C   0  0  0  0  0  0  0  0  0  0  0  0
  -19.7901  -24.6512   25.7169 C   0  0  0  0  0  0  0  0  0  0  0  0
  -26.4640  -28.9492   21.0330 N   0  0  0  0  0  0  0  0  0  0  0  0
  -20.3029  -24.2394   24.4251 N   0  0  0  0  0  0  0  0  0  0  0  0
  -25.2536  -29.0105   20.4523 N   0  0  0  0  0  0  0  0  0  0  0  0
  -20.9538  -24.2925   22.3688 N   0  3  0  0  0  0  0  0  0  0  0  0
  -27.7877  -18.1083   20.6316 N   0  0  0  0  0  0  0  0  0  0  0  0
  -22.6394  -29.2467   23.2306 N   0  0  0  0  0  0  0  0  0  0  0  0
  -24.1012  -28.5515   18.4344 N   0  0  0  0  0  0  0  0  0  0  0  0
  -28.3425  -27.2975   17.5206 N   0  0  0  0  0  0  0  0  0  0  0  0
  -25.7692  -15.0744   20.5002 N   0  0  0  0  0  0  0  0  0  0  0  0
  -30.7754  -19.6993   20.5999 N   0  0  0  0  0  0  0  0  0  0  0  0
  -21.3255  -27.2878   23.0575 N   0  0  0  0  0  0  0  0  0  0  0  0
  -30.8589  -22.8315   18.7971 N   0  3  0  0  0  0  0  0  0  0  0  0
  -26.2262  -27.4756   16.6557 O   0  0  0  0  0  0  0  0  0  0  0  0
  -26.8544  -16.2881   22.1650 O   0  0  0  0  0  0  0  0  0  0  0  0
  -29.7684  -17.1044   19.9207 O   0  0  0  0  0  0  0  0  0  0  0  0
  -29.7166  -21.6993   21.1058 O   0  0  0  0  0  0  0  0  0  0  0  0
  -20.5225  -29.1250   24.1697 O   0  0  0  0  0  0  0  0  0  0  0  0
  -32.6807  -27.5705   21.0050 O   0  0  0  0  0  0  0  0  0  0  0  0
  -23.0101  -21.6467   22.2769 O   0  0  0  0  0  0  0  0  0  1  0  0
  -34.1130  -25.1908   25.7684 F   0  0  0  0  0  0  0  0  0  0  0  0
  -32.0530  -28.7504   23.4250 F   0  0  0  0  0  0  0  0  0  0  0  0
  1  2  1  0  0  0  0
  1  5  2  0  0  0  0
  2  6  2  0  0  0  0
  3  8  2  0  0  0  0
  3 16  1  0  0  0  0
  4  9  1  0  0  0  0
  4 16  2  0  0  0  0
  5 18  1  0  0  0  0
  6 20  1  0  0  0  0
  7 10  2  0  0  0  0
  7 19  1  0  0  0  0
  8 22  1  0  0  0  0
  9 22  2  0  0  0  0
 10 23  1  0  0  0  0
 11 12  2  0  0  0  0
 11 24  1  0  0  0  0
 12 25  1  0  0  0  0
 13 21  1  0  0  0  0
 13 23  2  0  0  0  0
 14 25  2  0  0  0  0
 14 26  1  0  0  0  0
 15 28  2  0  0  0  0
 15 64  1  0  0  0  0
 16 27  1  0  0  0  0
 17 27  1  0  0  0  0
 17 29  2  0  0  0  0
 17 31  1  0  0  0  0
 18 20  2  0  0  0  0
 18 36  1  0  0  0  0
 19 21  2  0  0  0  0
 19 37  1  0  0  0  0
 20 45  1  0  0  0  0
 21 38  1  0  0  0  0
 22 80  1  0  0  0  0
 23 81  1  0  0  0  0
 24 26  2  0  0  0  0
 24 80  1  0  0  0  0
 25 82  1  0  0  0  0
 26 83  1  0  0  0  0
 27 63  2  0  0  0  0
 28 57  1  0  0  0  0
 28 66  1  0  0  0  0
 29 65  1  0  0  0  0
 29 69  1  0  0  0  0
 30 58  1  0  0  0  0
 30 64  1  0  0  0  0
 30 66  2  0  0  0  0
 31 70  1  0  0  0  0
 31 75  2  0  0  0  0
 32 46  1  0  0  0  0
 32 71  1  0  0  0  0
 32 76  2  0  0  0  0
 33 59  1  0  0  0  0
 33 67  1  0  0  0  0
 33 77  2  0  0  0  0
 34 60  1  0  0  0  0
 34 72  1  0  0  0  0
 34 78  2  0  0  0  0
 35 68  1  0  0  0  0
 35 73  1  0  0  0  0
 35 79  2  0  0  0  0
 36 39  1  0  0  0  0
 37 46  1  0  0  0  0
 38 67  1  0  0  0  0
 39 41  1  0  0  0  0
 40 42  1  0  0  0  0
 40 43  1  0  0  0  0
 41 45  1  0  0  0  0
 42 47  1  0  0  0  0
 43 68  1  0  0  0  0
 44 47  1  0  0  0  0
 44 68  1  0  0  0  0
 45 71  1  0  0  0  0
 46 67  1  0  0  0  0
 47 65  1  0  0  0  0
 48 58  1  0  0  0  0
 49 60  1  0  0  0  0
 50 61  1  0  0  0  0
 51 61  1  0  0  0  0
 52 61  1  0  0  0  0
 53 62  1  0  0  0  0
 54 62  1  0  0  0  0
 55 62  1  0  0  0  0
 56 74  1  0  0  0  0
 57 81  1  0  0  0  0
 58 73  1  0  0  0  0
 59 61  1  0  0  0  0
 59 72  1  0  0  0  0
 60 74  1  0  0  0  0
 62 64  1  0  0  0  0
 63 65  1  0  0  0  0
M  CHG  2  66   1  74   1
M  ISO  4  35 100  57 101  73 100  81 101
M  END
> <Batch ID>
0060

> <Smiles>
CNC(C)C(=O)NC(C(=O)N1Cc2cc([101O:1][101CH2:1]c3cn(C(C)(C)C)c(C(C)[100NH:0][100C:0](=O)N4CCCC(n5nc(-c6ccc(Oc7ccc(F)cc7F)cc6)c(C(N)=O)c5N)C4)n3)ccc2CC1C(=O)NC1CCCc2ccccc21)C(C)(C)C

> <Shape>
0.219

> <Color>
0.061

> <Negative vol penalty>
0.000

$$$$

  -OEChem-04052317553D

 83 91  0     1  0  0  0  0  0999 V2000
  -16.8816  -28.7778   24.2940 C   0  0  0  0  0  0  0  0  0  0  0  0
  -17.5244  -27.8380   23.4946 C   0  0  0  0  0  0  0  0  0  0  0  0
  -27.7971  -12.7843   21.0659 C   0  0  0  0  0  0  0  0  0  0  0  0
  -25.6406  -13.6986   21.6582 C   0  0  0  0  0  0  0  0  0  0  0  0
  -17.2985  -30.1082   24.2763 C   0  0  0  0  0  0  0  0  0  0  0  0
  -18.5837  -28.2283   22.6761 C   0  0  0  0  0  0  0  0  0  0  0  0
  -22.4933  -25.0171   22.8952 C   0  0  0  0  0  0  0  0  0  0  0  0
  -27.3319  -11.5011   21.3531 C   0  0  0  0  0  0  0  0  0  0  0  0
  -25.1754  -12.4153   21.9453 C   0  0  0  0  0  0  0  0  0  0  0  0
  -22.3829  -23.8293   22.1736 C   0  0  0  0  0  0  0  0  0  0  0  0
  -24.0628   -9.7280   20.2245 C   0  0  0  0  0  0  0  0  0  0  0  0
  -22.8023   -9.3744   19.7431 C   0  0  0  0  0  0  0  0  0  0  0  0
  -23.7374  -24.7775   20.4171 C   0  0  0  0  0  0  0  0  0  0  0  0
  -22.0462   -8.9898   22.0053 C   0  0  0  0  0  0  0  0  0  0  0  0
  -26.7323  -21.0577   19.2255 C   0  0  0  0  0  0  0  0  0  0  0  0
  -24.9619  -20.4446   18.2152 C   0  0  0  0  0  0  0  0  0  0  0  0
  -26.9514  -13.8831   21.2186 C   0  0  0  0  0  0  0  0  0  0  0  0
  -27.3746  -15.8772   19.6849 C   0  0  0  0  0  0  0  0  0  0  0  0
  -18.3697  -30.5131   23.4644 C   0  0  0  0  0  0  0  0  0  0  0  0
  -23.2188  -26.0997   22.3773 C   0  0  0  0  0  0  0  0  0  0  0  0
  -19.0144  -29.5656   22.6465 C   0  0  0  0  0  0  0  0  0  0  0  0
  -23.8577  -25.9771   21.1352 C   0  0  0  0  0  0  0  0  0  0  0  0
  -26.0211  -11.3165   21.7927 C   0  0  0  0  0  0  0  0  0  0  0  0
  -23.0026  -23.7104   20.9331 C   0  0  0  0  0  0  0  0  0  0  0  0
  -24.3151   -9.7124   21.5963 C   0  0  0  0  0  0  0  0  0  0  0  0
  -21.7940   -9.0054   20.6335 C   0  0  0  0  0  0  0  0  0  0  0  0
  -23.3068   -9.3434   22.4867 C   0  0  0  0  0  0  0  0  0  0  0  0
  -27.4315  -15.2090   20.9227 C   0  0  0  0  0  0  0  0  0  0  0  0
  -25.7922  -20.8718   20.2115 C   0  0  0  0  0  0  0  0  0  0  0  0
  -27.9572  -17.0973   19.9263 C   0  0  0  0  0  0  0  0  0  0  0  0
  -26.8426  -15.4345   18.4292 C   0  0  0  0  0  0  0  0  0  0  0  0
  -22.5060  -29.0817   21.5386 C   0  0  0  0  0  0  0  0  0  0  0  0
  -25.7153  -29.3204   21.1313 C   0  0  0  0  0  0  0  0  0  0  0  0
  -28.6854  -27.7476   20.5386 C   0  0  0  0  0  0  0  0  0  0  0  0
  -28.1146  -20.8686   24.4909 C   0  0  0  0  0  0  0  0  0  0  0  0
  -18.7538  -31.9714   23.4434 C   0  0  0  0  0  0  0  0  0  0  0  0
  -23.3507  -27.3648   23.1802 C   0  0  0  0  0  0  0  0  0  0  0  0
  -24.6651  -27.1028   20.5441 C   0  0  0  0  0  0  0  0  0  0  0  0
  -20.1272  -32.2308   22.8294 C   0  0  0  0  0  0  0  0  0  0  0  0
  -31.0289  -18.8944   23.3462 C   0  0  0  0  0  0  0  0  0  0  0  0
  -20.2832  -31.4568   21.5242 C   0  0  0  0  0  0  0  0  0  0  0  0
  -30.3751  -17.7661   22.5502 C   0  0  0  0  0  0  0  0  0  0  0  0
  -30.1110  -19.4181   24.4465 C   0  0  0  0  0  0  0  0  0  0  0  0
  -28.1166  -18.7160   23.1645 C   0  0  0  0  0  0  0  0  0  0  0  0
  -20.1835  -29.9454   21.7638 C   0  0  1  0  0  0  0  0  0  0  0  0
  -23.6852  -28.5830   22.3249 C   0  0  1  0  0  0  0  0  0  0  0  0
  -28.9973  -18.1973   22.0180 C   0  0  2  0  0  0  0  0  0  0  0  0
  -31.1313  -28.2113   20.2222 C   0  0  0  0  0  0  0  0  0  0  0  0
  -25.1557  -30.3319   18.3075 C   0  0  0  0  0  0  0  0  0  0  0  0
  -27.5509  -29.8713   17.7428 C   0  0  0  0  0  0  0  0  0  0  0  0
  -26.9863  -31.5432   19.5059 C   0  0  0  0  0  0  0  0  0  0  0  0
  -22.2266  -19.7250   19.1334 C   0  0  0  0  0  0  0  0  0  0  0  0
  -23.4693  -18.9399   21.1376 C   0  0  0  0  0  0  0  0  0  0  0  0
  -26.5429  -22.7451   24.1941 C   0  0  0  0  0  0  0  0  0  0  0  0
  -29.4185  -26.1152   22.8959 C   0  0  0  0  0  0  0  0  0  0  0  0
  -25.8643  -21.0269   21.6744 C   0  0  0  0  0  0  0  0  0  0  0  0
  -27.2420  -21.4791   22.1956 C   0  0  0  0  0  0  0  0  0  0  0  0
  -22.7531  -21.3456   20.9746 C   0  0  0  0  0  0  0  0  0  1  0  0
  -26.6682  -29.0813   19.9851 C   0  0  1  0  0  0  0  0  0  0  0  0
  -30.0379  -27.8596   21.2189 C   0  0  2  0  0  0  0  0  0  0  0  0
  -26.5735  -30.1862   18.8953 C   0  0  0  0  0  0  0  0  0  0  0  0
  -23.2975  -20.1356   20.1725 C   0  0  0  0  0  0  0  0  0  0  0  0
  -26.2091  -20.7905   17.9851 N   0  0  0  0  0  0  0  0  0  0  0  0
  -28.0052  -15.9437   21.8793 N   0  0  0  0  0  0  0  0  0  0  0  0
  -24.6632  -20.4796   19.5490 N   0  0  0  0  0  0  0  0  0  0  0  0
  -28.3141  -17.0861   21.2426 N   0  0  0  0  0  0  0  0  0  0  0  0
  -24.7592  -28.3217   21.3645 N   0  0  0  0  0  0  0  0  0  0  0  0
  -28.7943  -19.7799   23.9204 N   0  0  0  0  0  0  0  0  0  0  0  0
  -28.1940  -18.1680   19.1388 N   0  0  0  0  0  0  0  0  0  0  0  0
  -26.2801  -14.1529   18.3565 N   0  0  0  0  0  0  0  0  0  0  0  0
  -21.4212  -29.4386   22.3166 N   0  0  0  0  0  0  0  0  0  0  0  0
  -27.9933  -28.9394   20.5787 N   0  0  0  0  0  0  0  0  0  0  0  0
  -27.2609  -21.6005   23.6517 N   0  0  0  0  0  0  0  0  0  0  0  0
  -30.3964  -26.5700   21.8743 N   0  3  0  0  0  0  0  0  0  0  0  0
  -26.8801  -16.1480   17.3981 O   0  0  0  0  0  0  0  0  0  0  0  0
  -22.5757  -29.1398   20.3165 O   0  0  0  0  0  0  0  0  0  0  0  0
  -25.8200  -30.3518   21.7997 O   0  0  0  0  0  0  0  0  0  0  0  0
  -28.2847  -26.7078   20.0200 O   0  0  0  0  0  0  0  0  0  0  0  0
  -28.2697  -21.1752   25.6800 O   0  0  0  0  0  0  0  0  0  0  0  0
  -25.5668  -10.0644   22.0728 O   0  0  0  0  0  0  0  0  0  0  0  0
  -22.8958  -22.5523   20.2264 O   0  0  0  0  0  0  0  0  0  1  0  0
  -20.5832   -8.6674   20.1712 F   0  0  0  0  0  0  0  0  0  0  0  0
  -23.5428   -9.3276   23.8058 F   0  0  0  0  0  0  0  0  0  0  0  0
  1  2  1  0  0  0  0
  1  5  2  0  0  0  0
  2  6  2  0  0  0  0
  3  8  2  0  0  0  0
  3 17  1  0  0  0  0
  4  9  1  0  0  0  0
  4 17  2  0  0  0  0
  5 19  1  0  0  0  0
  6 21  1  0  0  0  0
  7 10  2  0  0  0  0
  7 20  1  0  0  0  0
  8 23  1  0  0  0  0
  9 23  2  0  0  0  0
 10 24  1  0  0  0  0
 11 12  2  0  0  0  0
 11 25  1  0  0  0  0
 12 26  1  0  0  0  0
 13 22  1  0  0  0  0
 13 24  2  0  0  0  0
 14 26  2  0  0  0  0
 14 27  1  0  0  0  0
 15 29  2  0  0  0  0
 15 63  1  0  0  0  0
 16 63  2  0  0  0  0
 16 65  1  0  0  0  0
 17 28  1  0  0  0  0
 18 28  1  0  0  0  0
 18 30  2  0  0  0  0
 18 31  1  0  0  0  0
 19 21  2  0  0  0  0
 19 36  1  0  0  0  0
 20 22  2  0  0  0  0
 20 37  1  0  0  0  0
 21 45  1  0  0  0  0
 22 38  1  0  0  0  0
 23 80  1  0  0  0  0
 24 81  1  0  0  0  0
 25 27  2  0  0  0  0
 25 80  1  0  0  0  0
 26 82  1  0  0  0  0
 27 83  1  0  0  0  0
 28 64  2  0  0  0  0
 29 56  1  0  0  0  0
 29 65  1  0  0  0  0
 30 66  1  0  0  0  0
 30 69  1  0  0  0  0
 31 70  1  0  0  0  0
 31 75  2  0  0  0  0
 32 46  1  0  0  0  0
 32 71  1  0  0  0  0
 32 76  2  0  0  0  0
 33 59  1  0  0  0  0
 33 67  1  0  0  0  0
 33 77  2  0  0  0  0
 34 60  1  0  0  0  0
 34 72  1  0  0  0  0
 34 78  2  0  0  0  0
 35 68  1  0  0  0  0
 35 73  1  0  0  0  0
 35 79  2  0  0  0  0
 36 39  1  0  0  0  0
 37 46  1  0  0  0  0
 38 67  1  0  0  0  0
 39 41  1  0  0  0  0
 40 42  1  0  0  0  0
 40 43  1  0  0  0  0
 41 45  1  0  0  0  0
 42 47  1  0  0  0  0
 43 68  1  0  0  0  0
 44 47  1  0  0  0  0
 44 68  1  0  0  0  0
 45 71  1  0  0  0  0
 46 67  1  0  0  0  0
 47 66  1  0  0  0  0
 48 60  1  0  0  0  0
 49 61  1  0  0  0  0
 50 61  1  0  0  0  0
 51 61  1  0  0  0  0
 52 62  1  0  0  0  0
 53 62  1  0  0  0  0
 54 73  1  0  0  0  0
 55 74  1  0  0  0  0
 56 57  1  0  0  0  0
 57 73  1  0  0  0  0
 58 62  1  0  0  0  0
 58 81  1  0  0  0  0
 59 61  1  0  0  0  0
 59 72  1  0  0  0  0
 60 74  1  0  0  0  0
 62 65  1  0  0  0  0
 64 66  1  0  0  0  0
M  CHG  1  74   1
M  ISO  4  35 100  58 101  73 100  81 101
M  END
> <Batch ID>
0060

> <Smiles>
CNC(C)C(=O)NC(C(=O)N1Cc2cc([101O:1][101CH2:1]C(C)(C)n3cncc3CC[100N:0](C)[100C:0](=O)N3CCCC(n4nc(-c5ccc(Oc6ccc(F)cc6F)cc5)c(C(N)=O)c4N)C3)ccc2CC1C(=O)NC1CCCc2ccccc21)C(C)(C)C

> <Shape>
0.211

> <Color>
0.077

> <Negative vol penalty>
0.000

$$$$

  -OEChem-04052317553D

 80 88  0     1  0  0  0  0  0999 V2000
  -31.9615  -11.9968   21.8173 C   0  0  0  0  0  0  0  0  0  0  0  0
  -32.1304  -13.3523   21.5534 C   0  0  0  0  0  0  0  0  0  0  0  0
  -22.0549  -27.5028   23.6152 C   0  0  0  0  0  0  0  0  0  0  0  0
  -22.6894  -28.4388   21.4802 C   0  0  0  0  0  0  0  0  0  0  0  0
  -30.8785  -11.3108   21.2692 C   0  0  0  0  0  0  0  0  0  0  0  0
  -31.2170  -14.0223   20.7402 C   0  0  0  0  0  0  0  0  0  0  0  0
  -29.3664  -19.8338   21.2940 C   0  0  0  0  0  0  0  0  0  0  0  0
  -21.0248  -28.4376   23.7189 C   0  0  0  0  0  0  0  0  0  0  0  0
  -21.6593  -29.3736   21.5839 C   0  0  0  0  0  0  0  0  0  0  0  0
  -29.7534  -21.0071   20.6479 C   0  0  0  0  0  0  0  0  0  0  0  0
  -17.9105  -28.8610   22.4720 C   0  0  0  0  0  0  0  0  0  0  0  0
  -16.6596  -28.4038   22.8863 C   0  0  0  0  0  0  0  0  0  0  0  0
  -27.9133  -20.7588   19.1079 C   0  0  0  0  0  0  0  0  0  0  0  0
  -16.7479  -29.8879   24.7907 C   0  0  0  0  0  0  0  0  0  0  0  0
  -29.1231  -26.5137   19.5222 C   0  0  0  0  0  0  0  0  0  0  0  0
  -22.8873  -27.5035   22.4959 C   0  0  0  0  0  0  0  0  0  0  0  0
  -23.8834  -25.2584   21.8066 C   0  0  0  0  0  0  0  0  0  0  0  0
  -29.9460  -11.9749   20.4567 C   0  0  0  0  0  0  0  0  0  0  0  0
  -28.2546  -19.1072   20.8445 C   0  0  0  0  0  0  0  0  0  0  0  0
  -30.1213  -13.3441   20.1796 C   0  0  0  0  0  0  0  0  0  0  0  0
  -27.5128  -19.5780   19.7517 C   0  0  0  0  0  0  0  0  0  0  0  0
  -20.8270  -29.3729   22.7032 C   0  0  0  0  0  0  0  0  0  0  0  0
  -29.0286  -21.4682   19.5529 C   0  0  0  0  0  0  0  0  0  0  0  0
  -18.5802  -29.8316   23.2171 C   0  0  0  0  0  0  0  0  0  0  0  0
  -16.0783  -28.9173   24.0456 C   0  0  0  0  0  0  0  0  0  0  0  0
  -17.9989  -30.3451   24.3764 C   0  0  0  0  0  0  0  0  0  0  0  0
  -23.9519  -26.5385   22.3884 C   0  0  0  0  0  0  0  0  0  0  0  0
  -29.6489  -25.5101   18.7480 C   0  0  0  0  0  0  0  0  0  0  0  0
  -25.1485  -24.7450   21.9566 C   0  0  0  0  0  0  0  0  0  0  0  0
  -22.7754  -24.5929   21.1861 C   0  0  0  0  0  0  0  0  0  0  0  0
  -27.8060  -16.1812   19.6863 C   0  0  0  0  0  0  0  0  0  0  0  0
  -30.5012  -27.3942   22.6214 C   0  0  0  0  0  0  0  0  0  0  0  0
  -24.6759  -17.0149   19.8579 C   0  0  0  0  0  0  0  0  0  0  0  0
  -22.3397  -19.5017   19.9285 C   0  0  0  0  0  0  0  0  0  0  0  0
  -28.8176  -11.1804   19.8482 C   0  0  0  0  0  0  0  0  0  0  0  0
  -27.8342  -17.8578   21.5689 C   0  0  0  0  0  0  0  0  0  0  0  0
  -26.2992  -18.8456   19.2424 C   0  0  0  0  0  0  0  0  0  0  0  0
  -27.6870  -12.0485   19.3018 C   0  0  0  0  0  0  0  0  0  0  0  0
  -28.9828  -24.9841   24.7954 C   0  0  0  0  0  0  0  0  0  0  0  0
  -28.2498  -13.1968   18.4703 C   0  0  0  0  0  0  0  0  0  0  0  0
  -27.5095  -25.0139   24.3910 C   0  0  0  0  0  0  0  0  0  0  0  0
  -29.6188  -26.3667   24.6902 C   0  0  0  0  0  0  0  0  0  0  0  0
  -28.0033  -27.0313   22.9380 C   0  0  0  0  0  0  0  0  0  0  0  0
  -29.1380  -14.1114   19.3225 C   0  0  1  0  0  0  0  0  0  0  0  0
  -26.9908  -16.9228   20.7076 C   0  0  1  0  0  0  0  0  0  0  0  0
  -27.3306  -25.6486   23.0005 C   0  0  2  0  0  0  0  0  0  0  0  0
  -30.8962  -29.8354   19.6604 C   0  0  0  0  0  0  0  0  0  0  0  0
  -20.0765  -20.5650   20.1401 C   0  0  0  0  0  0  0  0  0  0  0  0
  -24.4372  -16.2390   16.9166 C   0  0  0  0  0  0  0  0  0  0  0  0
  -22.2730  -17.4950   16.8329 C   0  0  0  0  0  0  0  0  0  0  0  0
  -22.5118  -15.5243   18.3436 C   0  0  0  0  0  0  0  0  0  0  0  0
  -22.5983  -19.7402   22.8670 C   0  0  0  0  0  0  0  0  0  0  0  0
  -28.9662  -24.6552   17.7082 C   0  0  0  0  0  0  0  0  0  0  0  0
  -31.2054  -29.1013   20.9587 C   0  0  0  0  0  0  0  0  0  0  0  0
  -28.3735  -23.3821   18.3024 C   0  0  0  0  0  0  0  0  0  1  0  0
  -30.2049  -27.9737   21.2611 C   0  0  1  0  0  0  0  0  0  0  0  0
  -23.6945  -17.6820   18.9247 C   0  0  1  0  0  0  0  0  0  0  0  0
  -21.1452  -19.7361   20.8355 C   0  0  2  0  0  0  0  0  0  0  0  0
  -23.2531  -16.7481   17.7626 C   0  0  0  0  0  0  0  0  0  0  0  0
  -25.1644  -26.8209   22.8720 N   0  0  0  0  0  0  0  0  0  0  0  0
  -30.9755  -25.3523   19.0392 N   0  0  0  0  0  0  0  0  0  0  0  0
  -31.2946  -26.2342   19.9802 N   0  0  0  0  0  0  0  0  0  0  0  0
  -30.1825  -26.9295   20.2685 N   0  0  0  0  0  0  0  0  0  0  0  0
  -25.8696  -25.7110   22.5945 N   0  0  0  0  0  0  0  0  0  0  0  0
  -25.9320  -17.6257   19.9803 N   0  0  0  0  0  0  0  0  0  0  0  0
  -29.4077  -26.9449   23.3619 N   0  0  0  0  0  0  0  0  0  0  0  0
  -25.7032  -23.5660   21.6037 N   0  0  0  0  0  0  0  0  0  0  0  0
  -21.5469  -25.2641   21.1161 N   0  0  0  0  0  0  0  0  0  0  0  0
  -28.3253  -14.9845   20.1420 N   0  0  0  0  0  0  0  0  0  0  0  0
  -22.5963  -18.1576   19.7591 N   0  0  0  0  0  0  0  0  0  0  0  0
  -21.5664  -20.4541   22.0716 N   0  3  0  0  0  0  0  0  0  0  0  0
  -22.8674  -23.4310   20.7225 O   0  0  0  0  0  0  0  0  0  0  0  0
  -27.9518  -16.6587   18.5672 O   0  0  0  0  0  0  0  0  0  0  0  0
  -31.6705  -27.3406   23.0113 O   0  0  0  0  0  0  0  0  0  0  0  0
  -24.3379  -15.9937   20.4616 O   0  0  0  0  0  0  0  0  0  0  0  0
  -22.9787  -20.4191   19.4181 O   0  0  0  0  0  0  0  0  0  0  0  0
  -19.8218  -30.2850   22.8040 O   0  0  0  0  0  0  0  0  0  0  0  0
  -29.4045  -22.6127   18.9200 O   0  0  0  0  0  0  0  0  0  1  0  0
  -14.8763  -28.4792   24.4425 F   0  0  0  0  0  0  0  0  0  0  0  0
  -18.6369  -31.2786   25.0956 F   0  0  0  0  0  0  0  0  0  0  0  0
  1  2  1  0  0  0  0
  1  5  2  0  0  0  0
  2  6  2  0  0  0  0
  3  8  2  0  0  0  0
  3 16  1  0  0  0  0
  4  9  1  0  0  0  0
  4 16  2  0  0  0  0
  5 18  1  0  0  0  0
  6 20  1  0  0  0  0
  7 10  2  0  0  0  0
  7 19  1  0  0  0  0
  8 22  1  0  0  0  0
  9 22  2  0  0  0  0
 10 23  1  0  0  0  0
 11 12  2  0  0  0  0
 11 24  1  0  0  0  0
 12 25  1  0  0  0  0
 13 21  1  0  0  0  0
 13 23  2  0  0  0  0
 14 25  2  0  0  0  0
 14 26  1  0  0  0  0
 15 28  2  0  0  0  0
 15 63  1  0  0  0  0
 16 27  1  0  0  0  0
 17 27  1  0  0  0  0
 17 29  2  0  0  0  0
 17 30  1  0  0  0  0
 18 20  2  0  0  0  0
 18 35  1  0  0  0  0
 19 21  2  0  0  0  0
 19 36  1  0  0  0  0
 20 44  1  0  0  0  0
 21 37  1  0  0  0  0
 22 77  1  0  0  0  0
 23 78  1  0  0  0  0
 24 26  2  0  0  0  0
 24 77  1  0  0  0  0
 25 79  1  0  0  0  0
 26 80  1  0  0  0  0
 27 60  2  0  0  0  0
 28 53  1  0  0  0  0
 28 61  1  0  0  0  0
 29 64  1  0  0  0  0
 29 67  1  0  0  0  0
 30 68  1  0  0  0  0
 30 72  2  0  0  0  0
 31 45  1  0  0  0  0
 31 69  1  0  0  0  0
 31 73  2  0  0  0  0
 32 56  1  0  0  0  0
 32 66  1  0  0  0  0
 32 74  2  0  0  0  0
 33 57  1  0  0  0  0
 33 65  1  0  0  0  0
 33 75  2  0  0  0  0
 34 58  1  0  0  0  0
 34 70  1  0  0  0  0
 34 76  2  0  0  0  0
 35 38  1  0  0  0  0
 36 45  1  0  0  0  0
 37 65  1  0  0  0  0
 38 40  1  0  0  0  0
 39 41  1  0  0  0  0
 39 42  1  0  0  0  0
 40 44  1  0  0  0  0
 41 46  1  0  0  0  0
 42 66  1  0  0  0  0
 43 46  1  0  0  0  0
 43 66  1  0  0  0  0
 44 69  1  0  0  0  0
 45 65  1  0  0  0  0
 46 64  1  0  0  0  0
 47 54  1  0  0  0  0
 48 58  1  0  0  0  0
 49 59  1  0  0  0  0
 50 59  1  0  0  0  0
 51 59  1  0  0  0  0
 52 71  1  0  0  0  0
 53 55  1  0  0  0  0
 54 56  1  0  0  0  0
 55 78  1  0  0  0  0
 56 63  1  0  0  0  0
 57 59  1  0  0  0  0
 57 70  1  0  0  0  0
 58 71  1  0  0  0  0
 60 64  1  0  0  0  0
 61 62  2  0  0  0  0
 62 63  1  0  0  0  0
M  CHG  1  71   1
M  ISO  4  32 100  55 101  56 100  78 101
M  END
> <Batch ID>
0060

> <Smiles>
CC[100CH:0]([100C:0](=O)N1CCCC(n2nc(-c3ccc(Oc4ccc(F)cc4F)cc3)c(C(N)=O)c2N)C1)n1cc(C[101CH2:1][101O:1]c2ccc3c(c2)CN(C(=O)C(NC(=O)C(C)NC)C(C)(C)C)C(C(=O)NC2CCCc4ccccc42)C3)nn1

> <Shape>
0.208

> <Color>
0.070

> <Negative vol penalty>
0.000

$$$$

  -OEChem-04052317553D

 80 88  0     1  0  0  0  0  0999 V2000
  -19.8615  -14.8814   16.5127 C   0  0  0  0  0  0  0  0  0  0  0  0
  -20.7052  -15.9498   16.7992 C   0  0  0  0  0  0  0  0  0  0  0  0
  -20.9399  -24.1938   21.6618 C   0  0  0  0  0  0  0  0  0  0  0  0
  -22.7234  -23.2891   23.0175 C   0  0  0  0  0  0  0  0  0  0  0  0
  -20.0528  -13.6543   17.1464 C   0  0  0  0  0  0  0  0  0  0  0  0
  -21.7401  -15.7920   17.7203 C   0  0  0  0  0  0  0  0  0  0  0  0
  -27.2685  -18.4202   17.5324 C   0  0  0  0  0  0  0  0  0  0  0  0
  -20.3394  -22.9358   21.6124 C   0  0  0  0  0  0  0  0  0  0  0  0
  -22.1228  -22.0311   22.9681 C   0  0  0  0  0  0  0  0  0  0  0  0
  -27.7963  -19.5413   18.1714 C   0  0  0  0  0  0  0  0  0  0  0  0
  -20.7608  -20.0398   19.9213 C   0  0  0  0  0  0  0  0  0  0  0  0
  -20.2919  -19.5945   18.6854 C   0  0  0  0  0  0  0  0  0  0  0  0
  -29.7055  -22.8136   21.5739 C   0  0  0  0  0  0  0  0  0  0  0  0
  -28.7312  -18.1192   19.8811 C   0  0  0  0  0  0  0  0  0  0  0  0
  -18.0571  -19.4376   19.5900 C   0  0  0  0  0  0  0  0  0  0  0  0
  -30.3364  -24.0088   21.8190 C   0  0  0  0  0  0  0  0  0  0  0  0
  -22.1319  -24.3705   22.3644 C   0  0  0  0  0  0  0  0  0  0  0  0
  -22.5368  -26.6782   23.3732 C   0  0  0  0  0  0  0  0  0  0  0  0
  -21.0965  -13.4785   18.0685 C   0  0  0  0  0  0  0  0  0  0  0  0
  -27.4591  -17.1391   18.0697 C   0  0  0  0  0  0  0  0  0  0  0  0
  -21.9447  -14.5618   18.3679 C   0  0  0  0  0  0  0  0  0  0  0  0
  -28.2069  -16.9832   19.2456 C   0  0  0  0  0  0  0  0  0  0  0  0
  -20.9308  -21.8545   22.2655 C   0  0  0  0  0  0  0  0  0  0  0  0
  -28.5253  -19.3912   19.3475 C   0  0  0  0  0  0  0  0  0  0  0  0
  -19.8780  -20.1839   20.9916 C   0  0  0  0  0  0  0  0  0  0  0  0
  -18.9400  -19.2934   18.5198 C   0  0  0  0  0  0  0  0  0  0  0  0
  -18.5261  -19.8828   20.8259 C   0  0  0  0  0  0  0  0  0  0  0  0
  -22.7531  -25.6696   22.4153 C   0  0  0  0  0  0  0  0  0  0  0  0
  -29.4655  -22.8203   20.1868 C   0  0  0  0  0  0  0  0  0  0  0  0
  -23.3581  -27.7066   22.9804 C   0  0  0  0  0  0  0  0  0  0  0  0
  -21.6709  -26.6850   24.5160 C   0  0  0  0  0  0  0  0  0  0  0  0
  -25.5372  -14.8628   19.1781 C   0  0  0  0  0  0  0  0  0  0  0  0
  -28.2934  -13.1609   19.3488 C   0  0  0  0  0  0  0  0  0  0  0  0
  -31.6976  -13.1761   19.5897 C   0  0  0  0  0  0  0  0  0  0  0  0
  -28.4045  -27.8929   19.7632 C   0  0  0  0  0  0  0  0  0  0  0  0
  -21.2347  -12.1472   18.7635 C   0  0  0  0  0  0  0  0  0  0  0  0
  -26.9060  -15.9374   17.3539 C   0  0  0  0  0  0  0  0  0  0  0  0
  -28.4572  -15.6277   19.8524 C   0  0  0  0  0  0  0  0  0  0  0  0
  -22.5859  -11.9544   19.4473 C   0  0  0  0  0  0  0  0  0  0  0  0
  -25.3643  -29.6149   19.0785 C   0  0  0  0  0  0  0  0  0  0  0  0
  -22.9588  -13.1953   20.2521 C   0  0  0  0  0  0  0  0  0  0  0  0
  -24.3308  -28.8900   19.9425 C   0  0  0  0  0  0  0  0  0  0  0  0
  -26.4041  -28.6498   18.5134 C   0  0  0  0  0  0  0  0  0  0  0  0
  -26.0469  -27.0846   20.3832 C   0  0  0  0  0  0  0  0  0  0  0  0
  -23.0938  -14.4226   19.3427 C   0  0  1  0  0  0  0  0  0  0  0  0
  -26.7246  -14.7289   18.2672 C   0  0  1  0  0  0  0  0  0  0  0  0
  -25.0096  -28.0245   21.0211 C   0  0  2  0  0  0  0  0  0  0  0  0
  -33.6683  -11.6303   19.7464 C   0  0  0  0  0  0  0  0  0  0  0  0
  -32.5182  -25.9195   20.6972 C   0  0  0  0  0  0  0  0  0  0  0  0
  -27.6248  -12.6090   22.2742 C   0  0  0  0  0  0  0  0  0  0  0  0
  -30.0049  -11.9103   22.6140 C   0  0  0  0  0  0  0  0  0  0  0  0
  -28.5507  -10.6484   21.0279 C   0  0  0  0  0  0  0  0  0  0  0  0
  -32.8548  -14.2082   17.0689 C   0  0  0  0  0  0  0  0  0  0  0  0
  -28.7969  -21.7537   19.3702 C   0  0  0  0  0  0  0  0  0  1  0  0
  -30.3083  -27.0569   21.1182 C   0  0  0  0  0  0  0  0  0  0  0  0
  -29.3616  -12.9582   20.3960 C   0  0  1  0  0  0  0  0  0  0  0  0
  -32.7656  -12.4248   18.8154 C   0  0  2  0  0  0  0  0  0  0  0  0
  -31.0233  -25.9269   20.3605 C   0  0  2  0  0  0  0  0  0  0  0  0
  -28.8793  -12.0573   21.5679 C   0  0  0  0  0  0  0  0  0  0  0  0
  -23.6420  -26.0250   21.4840 N   0  0  0  0  0  0  0  0  0  0  0  0
  -29.9078  -23.9316   19.5923 N   0  0  0  0  0  0  0  0  0  0  0  0
  -30.4319  -24.6344   20.6109 N   0  0  0  0  0  0  0  0  0  0  0  0
  -23.9915  -27.2686   21.8547 N   0  0  0  0  0  0  0  0  0  0  0  0
  -27.8905  -14.4840   19.1187 N   0  0  0  0  0  0  0  0  0  0  0  0
  -27.0113  -27.8603   19.5877 N   0  0  0  0  0  0  0  0  0  0  0  0
  -23.5931  -28.9338   23.4915 N   0  0  0  0  0  0  0  0  0  0  0  0
  -20.8961  -25.5459   24.7739 N   0  0  0  0  0  0  0  0  0  0  0  0
  -24.3565  -14.3917   18.6363 N   0  0  0  0  0  0  0  0  0  0  0  0
  -30.5321  -12.4463   19.6915 N   0  0  0  0  0  0  0  0  0  0  0  0
  -28.8974  -27.1211   20.8082 N   0  0  0  0  0  0  0  0  0  0  0  0
  -33.6107  -13.3774   18.0413 N   0  3  0  0  0  0  0  0  0  0  0  0
  -21.5746  -27.6780   25.2763 O   0  0  0  0  0  0  0  0  0  0  0  0
  -25.6817  -15.3555   20.2908 O   0  0  0  0  0  0  0  0  0  0  0  0
  -27.8385  -12.1821   18.7516 O   0  0  0  0  0  0  0  0  0  0  0  0
  -31.8803  -14.2966   20.0606 O   0  0  0  0  0  0  0  0  0  0  0  0
  -29.1532  -28.5647   19.0454 O   0  0  0  0  0  0  0  0  0  0  0  0
  -20.3450  -20.6269   22.2177 O   0  0  0  0  0  0  0  0  0  0  0  0
  -29.0411  -20.4838   19.9736 O   0  0  0  0  0  0  0  0  0  1  0  0
  -18.4895  -18.8672   17.3325 F   0  0  0  0  0  0  0  0  0  0  0  0
  -17.6729  -20.0205   21.8501 F   0  0  0  0  0  0  0  0  0  0  0  0
  1  2  1  0  0  0  0
  1  5  2  0  0  0  0
  2  6  2  0  0  0  0
  3  8  2  0  0  0  0
  3 17  1  0  0  0  0
  4  9  1  0  0  0  0
  4 17  2  0  0  0  0
  5 19  1  0  0  0  0
  6 21  1  0  0  0  0
  7 10  2  0  0  0  0
  7 20  1  0  0  0  0
  8 23  1  0  0  0  0
  9 23  2  0  0  0  0
 10 24  1  0  0  0  0
 11 12  2  0  0  0  0
 11 25  1  0  0  0  0
 12 26  1  0  0  0  0
 13 16  2  0  0  0  0
 13 29  1  0  0  0  0
 14 22  1  0  0  0  0
 14 24  2  0  0  0  0
 15 26  2  0  0  0  0
 15 27  1  0  0  0  0
 16 62  1  0  0  0  0
 17 28  1  0  0  0  0
 18 28  1  0  0  0  0
 18 30  2  0  0  0  0
 18 31  1  0  0  0  0
 19 21  2  0  0  0  0
 19 36  1  0  0  0  0
 20 22  2  0  0  0  0
 20 37  1  0  0  0  0
 21 45  1  0  0  0  0
 22 38  1  0  0  0  0
 23 77  1  0  0  0  0
 24 78  1  0  0  0  0
 25 27  2  0  0  0  0
 25 77  1  0  0  0  0
 26 79  1  0  0  0  0
 27 80  1  0  0  0  0
 28 60  2  0  0  0  0
 29 54  1  0  0  0  0
 29 61  2  0  0  0  0
 30 63  1  0  0  0  0
 30 66  1  0  0  0  0
 31 67  1  0  0  0  0
 31 72  2  0  0  0  0
 32 46  1  0  0  0  0
 32 68  1  0  0  0  0
 32 73  2  0  0  0  0
 33 56  1  0  0  0  0
 33 64  1  0  0  0  0
 33 74  2  0  0  0  0
 34 57  1  0  0  0  0
 34 69  1  0  0  0  0
 34 75  2  0  0  0  0
 35 65  1  0  0  0  0
 35 70  1  0  0  0  0
 35 76  2  0  0  0  0
 36 39  1  0  0  0  0
 37 46  1  0  0  0  0
 38 64  1  0  0  0  0
 39 41  1  0  0  0  0
 40 42  1  0  0  0  0
 40 43  1  0  0  0  0
 41 45  1  0  0  0  0
 42 47  1  0  0  0  0
 43 65  1  0  0  0  0
 44 47  1  0  0  0  0
 44 65  1  0  0  0  0
 45 68  1  0  0  0  0
 46 64  1  0  0  0  0
 47 63  1  0  0  0  0
 48 57  1  0  0  0  0
 49 58  1  0  0  0  0
 50 59  1  0  0  0  0
 51 59  1  0  0  0  0
 52 59  1  0  0  0  0
 53 71  1  0  0  0  0
 54 78  1  0  0  0  0
 55 58  1  0  0  0  0
 55 70  1  0  0  0  0
 56 59  1  0  0  0  0
 56 69  1  0  0  0  0
 57 71  1  0  0  0  0
 58 62  1  0  0  0  0
 60 63  1  0  0  0  0
 61 62  1  0  0  0  0
M  CHG  1  71   1
M  ISO  4  35 100  54 101  70 100  78 101
M  END
> <Batch ID>
0060

> <Smiles>
CNC(C)C(=O)NC(C(=O)N1Cc2cc([101O:1][101CH2:1]c3ccn(C(C)C[100NH:0][100C:0](=O)N4CCCC(n5nc(-c6ccc(Oc7ccc(F)cc7F)cc6)c(C(N)=O)c5N)C4)n3)ccc2CC1C(=O)NC1CCCc2ccccc21)C(C)(C)C

> <Shape>
0.190

> <Color>
0.090

> <Negative vol penalty>
0.000

$$$$

  -OEChem-04052317553D

 82 90  0     1  0  0  0  0  0999 V2000
  -19.0849  -33.8320   21.2240 C   0  0  0  0  0  0  0  0  0  0  0  0
  -20.4518  -33.6227   21.0719 C   0  0  0  0  0  0  0  0  0  0  0  0
  -25.7837  -15.3589   20.3607 C   0  0  0  0  0  0  0  0  0  0  0  0
  -28.0683  -14.7492   19.8648 C   0  0  0  0  0  0  0  0  0  0  0  0
  -18.3344  -32.9738   22.0266 C   0  0  0  0  0  0  0  0  0  0  0  0
  -21.0693  -32.5555   21.7233 C   0  0  0  0  0  0  0  0  0  0  0  0
  -25.7514  -29.1924   19.6563 C   0  0  0  0  0  0  0  0  0  0  0  0
  -25.4636  -14.0133   20.5405 C   0  0  0  0  0  0  0  0  0  0  0  0
  -27.7482  -13.4035   20.0446 C   0  0  0  0  0  0  0  0  0  0  0  0
  -27.1224  -29.2400   19.9052 C   0  0  0  0  0  0  0  0  0  0  0  0
  -24.7976  -11.3304   18.5955 C   0  0  0  0  0  0  0  0  0  0  0  0
  -23.6220  -10.8608   18.0099 C   0  0  0  0  0  0  0  0  0  0  0  0
  -26.8707  -27.5272   21.5851 C   0  0  0  0  0  0  0  0  0  0  0  0
  -22.7840  -10.2406   20.1894 C   0  0  0  0  0  0  0  0  0  0  0  0
  -29.2893  -26.0739   18.2067 C   0  0  0  0  0  0  0  0  0  0  0  0
  -27.0860  -15.7269   20.0228 C   0  0  0  0  0  0  0  0  0  0  0  0
  -27.8712  -18.0212   20.8150 C   0  0  0  0  0  0  0  0  0  0  0  0
  -18.9413  -31.8899   22.6805 C   0  0  0  0  0  0  0  0  0  0  0  0
  -24.9267  -28.3181   20.3787 C   0  0  0  0  0  0  0  0  0  0  0  0
  -20.3265  -31.6828   22.5366 C   0  0  0  0  0  0  0  0  0  0  0  0
  -25.4899  -27.4686   21.3416 C   0  0  0  0  0  0  0  0  0  0  0  0
  -26.4458  -13.0356   20.3825 C   0  0  0  0  0  0  0  0  0  0  0  0
  -27.6818  -28.4094   20.8718 C   0  0  0  0  0  0  0  0  0  0  0  0
  -24.9665  -11.2550   19.9781 C   0  0  0  0  0  0  0  0  0  0  0  0
  -22.6152  -10.3159   18.8068 C   0  0  0  0  0  0  0  0  0  0  0  0
  -23.9596  -10.7102   20.7750 C   0  0  0  0  0  0  0  0  0  0  0  0
  -27.4172  -17.1168   19.8363 C   0  0  0  0  0  0  0  0  0  0  0  0
  -28.0406  -19.2038   20.1374 C   0  0  0  0  0  0  0  0  0  0  0  0
  -29.9984  -24.1155   18.0685 C   0  0  0  0  0  0  0  0  0  0  0  0
  -28.1178  -17.8110   22.2116 C   0  0  0  0  0  0  0  0  0  0  0  0
  -22.4693  -28.6777   22.3625 C   0  0  0  0  0  0  0  0  0  0  0  0
  -22.3614  -25.4401   22.1935 C   0  0  0  0  0  0  0  0  0  0  0  0
  -24.0090  -22.5142   21.5839 C   0  0  0  0  0  0  0  0  0  0  0  0
  -30.1747  -21.6689   15.4805 C   0  0  0  0  0  0  0  0  0  0  0  0
  -18.0975  -31.0172   23.5755 C   0  0  0  0  0  0  0  0  0  0  0  0
  -23.4538  -28.2598   20.0795 C   0  0  0  0  0  0  0  0  0  0  0  0
  -24.6511  -26.4977   22.1304 C   0  0  0  0  0  0  0  0  0  0  0  0
  -18.7602  -29.6889   23.9314 C   0  0  0  0  0  0  0  0  0  0  0  0
  -26.6351  -20.5859   15.4888 C   0  0  0  0  0  0  0  0  0  0  0  0
  -20.2097  -29.9111   24.3513 C   0  0  0  0  0  0  0  0  0  0  0  0
  -26.5890  -19.6071   16.6609 C   0  0  0  0  0  0  0  0  0  0  0  0
  -28.0200  -20.6426   14.8513 C   0  0  0  0  0  0  0  0  0  0  0  0
  -29.0682  -19.9653   16.9860 C   0  0  0  0  0  0  0  0  0  0  0  0
  -21.0280  -30.5217   23.2071 C   0  0  1  0  0  0  0  0  0  0  0  0
  -22.6312  -27.6979   21.2349 C   0  0  1  0  0  0  0  0  0  0  0  0
  -27.6986  -19.9189   17.6800 C   0  0  2  0  0  0  0  0  0  0  0  0
  -31.0079  -21.9482   18.8718 C   0  0  0  0  0  0  0  0  0  0  0  0
  -23.6669  -20.0283   21.5626 C   0  0  0  0  0  0  0  0  0  0  0  0
  -22.4638  -25.4023   25.2428 C   0  0  0  0  0  0  0  0  0  0  0  0
  -23.0732  -22.9769   25.1228 C   0  0  0  0  0  0  0  0  0  0  0  0
  -20.8769  -23.7549   24.2318 C   0  0  0  0  0  0  0  0  0  0  0  0
  -31.9339  -23.2610   16.1515 C   0  0  0  0  0  0  0  0  0  0  0  0
  -24.6533  -22.3335   18.7010 C   0  0  0  0  0  0  0  0  0  0  0  0
  -31.0813  -27.2282   21.0692 C   0  0  0  0  0  0  0  0  0  0  0  0
  -31.2015  -27.2648   19.5441 C   0  0  0  0  0  0  0  0  0  0  0  0
  -29.6391  -27.2482   21.5621 C   0  0  0  0  0  0  0  0  0  1  0  0
  -30.1833  -22.6932   17.7943 C   0  0  2  0  0  0  0  0  0  0  0  0
  -22.9942  -24.3075   22.9654 C   0  0  1  0  0  0  0  0  0  0  0  0
  -23.6400  -21.3073   20.7403 C   0  0  2  0  0  0  0  0  0  0  0  0
  -22.3678  -24.1300   24.3774 C   0  0  0  0  0  0  0  0  0  0  0  0
  -28.9664  -24.8435   17.7101 N   0  0  0  0  0  0  0  0  0  0  0  0
  -27.3051  -17.6769   18.6290 N   0  0  0  0  0  0  0  0  0  0  0  0
  -30.8894  -24.8873   18.7470 N   0  0  0  0  0  0  0  0  0  0  0  0
  -30.4563  -26.1530   18.8497 N   0  0  0  0  0  0  0  0  0  0  0  0
  -27.6910  -18.9460   18.8445 N   0  0  0  0  0  0  0  0  0  0  0  0
  -23.2152  -26.4825   21.8059 N   0  0  0  0  0  0  0  0  0  0  0  0
  -29.0602  -20.8974   15.8486 N   0  0  0  0  0  0  0  0  0  0  0  0
  -28.4529  -20.4287   20.5273 N   0  0  0  0  0  0  0  0  0  0  0  0
  -27.8923  -16.5348   22.7453 N   0  0  0  0  0  0  0  0  0  0  0  0
  -21.3715  -29.5070   22.2340 N   0  0  0  0  0  0  0  0  0  0  0  0
  -22.8934  -23.1269   22.1143 N   0  0  0  0  0  0  0  0  0  0  0  0
  -30.7821  -22.4356   16.4865 N   0  0  0  0  0  0  0  0  0  0  0  0
  -24.5947  -21.1568   19.6059 N   0  3  0  0  0  0  0  0  0  0  0  0
  -28.5104  -18.7319   22.9675 O   0  0  0  0  0  0  0  0  0  0  0  0
  -23.2795  -28.6800   23.2819 O   0  0  0  0  0  0  0  0  0  0  0  0
  -21.1554  -25.3978   21.9375 O   0  0  0  0  0  0  0  0  0  0  0  0
  -25.1709  -22.8750   21.7582 O   0  0  0  0  0  0  0  0  0  0  0  0
  -30.5965  -21.6796   14.3170 O   0  0  0  0  0  0  0  0  0  0  0  0
  -26.1339  -11.7224   20.5581 O   0  0  0  0  0  0  0  0  0  0  0  0
  -29.0195  -28.4543   21.1172 O   0  0  0  0  0  0  0  0  0  1  0  0
  -21.4856   -9.8664   18.2444 F   0  0  0  0  0  0  0  0  0  0  0  0
  -24.1156  -10.6362   22.1039 F   0  0  0  0  0  0  0  0  0  0  0  0
  1  2  1  0  0  0  0
  1  5  2  0  0  0  0
  2  6  2  0  0  0  0
  3  8  2  0  0  0  0
  3 16  1  0  0  0  0
  4  9  1  0  0  0  0
  4 16  2  0  0  0  0
  5 18  1  0  0  0  0
  6 20  1  0  0  0  0
  7 10  2  0  0  0  0
  7 19  1  0  0  0  0
  8 22  1  0  0  0  0
  9 22  2  0  0  0  0
 10 23  1  0  0  0  0
 11 12  2  0  0  0  0
 11 24  1  0  0  0  0
 12 25  1  0  0  0  0
 13 21  1  0  0  0  0
 13 23  2  0  0  0  0
 14 25  2  0  0  0  0
 14 26  1  0  0  0  0
 15 61  2  0  0  0  0
 15 64  1  0  0  0  0
 16 27  1  0  0  0  0
 17 27  1  0  0  0  0
 17 28  2  0  0  0  0
 17 30  1  0  0  0  0
 18 20  2  0  0  0  0
 18 35  1  0  0  0  0
 19 21  2  0  0  0  0
 19 36  1  0  0  0  0
 20 44  1  0  0  0  0
 21 37  1  0  0  0  0
 22 79  1  0  0  0  0
 23 80  1  0  0  0  0
 24 26  2  0  0  0  0
 24 79  1  0  0  0  0
 25 81  1  0  0  0  0
 26 82  1  0  0  0  0
 27 62  2  0  0  0  0
 28 65  1  0  0  0  0
 28 68  1  0  0  0  0
 29 57  1  0  0  0  0
 29 61  1  0  0  0  0
 29 63  2  0  0  0  0
 30 69  1  0  0  0  0
 30 74  2  0  0  0  0
 31 45  1  0  0  0  0
 31 70  1  0  0  0  0
 31 75  2  0  0  0  0
 32 58  1  0  0  0  0
 32 66  1  0  0  0  0
 32 76  2  0  0  0  0
 33 59  1  0  0  0  0
 33 71  1  0  0  0  0
 33 77  2  0  0  0  0
 34 67  1  0  0  0  0
 34 72  1  0  0  0  0
 34 78  2  0  0  0  0
 35 38  1  0  0  0  0
 36 45  1  0  0  0  0
 37 66  1  0  0  0  0
 38 40  1  0  0  0  0
 39 41  1  0  0  0  0
 39 42  1  0  0  0  0
 40 44  1  0  0  0  0
 41 46  1  0  0  0  0
 42 67  1  0  0  0  0
 43 46  1  0  0  0  0
 43 67  1  0  0  0  0
 44 70  1  0  0  0  0
 45 66  1  0  0  0  0
 46 65  1  0  0  0  0
 47 57  1  0  0  0  0
 48 59  1  0  0  0  0
 49 60  1  0  0  0  0
 50 60  1  0  0  0  0
 51 60  1  0  0  0  0
 52 72  1  0  0  0  0
 53 73  1  0  0  0  0
 54 55  1  0  0  0  0
 54 56  1  0  0  0  0
 55 64  1  0  0  0  0
 56 80  1  0  0  0  0
 57 72  1  0  0  0  0
 58 60  1  0  0  0  0
 58 71  1  0  0  0  0
 59 73  1  0  0  0  0
 62 65  1  0  0  0  0
 63 64  1  0  0  0  0
M  CHG  1  73   1
M  ISO  4  34 100  56 101  72 100  80 101
M  END
> <Batch ID>
0060

> <Smiles>
CNC(C)C(=O)NC(C(=O)N1Cc2cc([101O:1][101CH2:1]CCn3cnc(C(C)[100N:0](C)[100C:0](=O)N4CCCC(n5nc(-c6ccc(Oc7ccc(F)cc7F)cc6)c(C(N)=O)c5N)C4)n3)ccc2CC1C(=O)NC1CCCc2ccccc21)C(C)(C)C

> <Shape>
0.225

> <Color>
0.088

> <Negative vol penalty>
0.000

$$$$

  -OEChem-04052317553D

 83 91  0     1  0  0  0  0  0999 V2000
  -19.2602  -14.9113   25.0473 C   0  0  0  0  0  0  0  0  0  0  0  0
  -20.0602  -15.9463   24.5739 C   0  0  0  0  0  0  0  0  0  0  0  0
  -23.6590  -29.7100   20.2633 C   0  0  0  0  0  0  0  0  0  0  0  0
  -22.8839  -27.4218   20.2631 C   0  0  0  0  0  0  0  0  0  0  0  0
  -19.8277  -13.6726   25.3433 C   0  0  0  0  0  0  0  0  0  0  0  0
  -21.4284  -15.7435   24.3971 C   0  0  0  0  0  0  0  0  0  0  0  0
  -24.9774  -18.1738   20.0378 C   0  0  0  0  0  0  0  0  0  0  0  0
  -22.3694  -30.1469   20.5660 C   0  0  0  0  0  0  0  0  0  0  0  0
  -21.5942  -27.8586   20.5659 C   0  0  0  0  0  0  0  0  0  0  0  0
  -25.8393  -19.2697   20.0326 C   0  0  0  0  0  0  0  0  0  0  0  0
  -19.8967  -28.9040   23.2946 C   0  0  0  0  0  0  0  0  0  0  0  0
  -19.1986  -28.2184   24.2887 C   0  0  0  0  0  0  0  0  0  0  0  0
  -27.7007  -17.8002   20.4743 C   0  0  0  0  0  0  0  0  0  0  0  0
  -17.4747  -27.6580   22.6914 C   0  0  0  0  0  0  0  0  0  0  0  0
  -30.4842  -24.3122   20.0121 C   0  0  0  0  0  0  0  0  0  0  0  0
  -23.9163  -28.3475   20.1117 C   0  0  0  0  0  0  0  0  0  0  0  0
  -26.2650  -27.5509   20.7089 C   0  0  0  0  0  0  0  0  0  0  0  0
  -21.2019  -13.4516   25.1610 C   0  0  0  0  0  0  0  0  0  0  0  0
  -25.4700  -16.8820   20.2724 C   0  0  0  0  0  0  0  0  0  0  0  0
  -22.0151  -14.5012   24.6922 C   0  0  0  0  0  0  0  0  0  0  0  0
  -26.8433  -16.6893   20.4794 C   0  0  0  0  0  0  0  0  0  0  0  0
  -21.3370  -29.2212   20.7174 C   0  0  0  0  0  0  0  0  0  0  0  0
  -27.2007  -19.0834   20.2538 C   0  0  0  0  0  0  0  0  0  0  0  0
  -19.3838  -28.9667   21.9990 C   0  0  0  0  0  0  0  0  0  0  0  0
  -17.9876  -27.5954   23.9871 C   0  0  0  0  0  0  0  0  0  0  0  0
  -18.1728  -28.3437   21.6974 C   0  0  0  0  0  0  0  0  0  0  0  0
  -25.2481  -27.8956   19.7984 C   0  0  0  0  0  0  0  0  0  0  0  0
  -29.9019  -23.8888   18.8377 C   0  0  0  0  0  0  0  0  0  0  0  0
  -28.5527  -22.4692   20.0185 C   0  0  0  0  0  0  0  0  0  0  0  0
  -29.1356  -22.8921   21.1928 C   0  0  0  0  0  0  0  0  0  0  0  0
  -27.3274  -27.1902   19.9166 C   0  0  0  0  0  0  0  0  0  0  0  0
  -26.2505  -27.5562   22.1425 C   0  0  0  0  0  0  0  0  0  0  0  0
  -24.9843  -14.6664   22.4993 C   0  0  0  0  0  0  0  0  0  0  0  0
  -26.8633  -12.8656   20.5631 C   0  0  0  0  0  0  0  0  0  0  0  0
  -29.2704  -12.7569   18.1462 C   0  0  0  0  0  0  0  0  0  0  0  0
  -28.9897  -24.1442   15.4137 C   0  0  0  0  0  0  0  0  0  0  0  0
  -21.7780  -12.1102   25.5395 C   0  0  0  0  0  0  0  0  0  0  0  0
  -24.5311  -15.7072   20.2482 C   0  0  0  0  0  0  0  0  0  0  0  0
  -27.4253  -15.3204   20.7159 C   0  0  0  0  0  0  0  0  0  0  0  0
  -23.1723  -11.8632   24.9691 C   0  0  0  0  0  0  0  0  0  0  0  0
  -28.0757  -27.7010   14.9493 C   0  0  0  0  0  0  0  0  0  0  0  0
  -24.0619  -13.0830   25.1870 C   0  0  0  0  0  0  0  0  0  0  0  0
  -27.2816  -28.0092   16.2175 C   0  0  0  0  0  0  0  0  0  0  0  0
  -27.9780  -26.2284   14.5627 C   0  0  0  0  0  0  0  0  0  0  0  0
  -27.5745  -25.6006   16.9200 C   0  0  0  0  0  0  0  0  0  0  0  0
  -23.4991  -14.3125   24.4639 C   0  0  1  0  0  0  0  0  0  0  0  0
  -25.0672  -14.4981   21.0085 C   0  0  1  0  0  0  0  0  0  0  0  0
  -27.6901  -27.0668   17.3631 C   0  0  2  0  0  0  0  0  0  0  0  0
  -28.1230  -23.4202   23.4399 C   0  0  0  0  0  0  0  0  0  0  0  0
  -29.8561  -21.6011   23.2345 C   0  0  0  0  0  0  0  0  0  0  0  0
  -30.6302  -11.1403   16.7916 C   0  0  0  0  0  0  0  0  0  0  0  0
  -28.6228  -12.3125   22.9938 C   0  0  0  0  0  0  0  0  0  0  0  0
  -30.4139  -11.5262   21.4312 C   0  0  0  0  0  0  0  0  0  0  0  0
  -28.2262  -10.3310   21.5205 C   0  0  0  0  0  0  0  0  0  0  0  0
  -30.5841  -22.4174   16.1590 C   0  0  0  0  0  0  0  0  0  0  0  0
  -28.1507  -13.7688   15.6004 C   0  0  0  0  0  0  0  0  0  0  0  0
  -30.3397  -24.4526   17.5315 C   0  0  0  0  0  0  0  0  0  0  0  0
  -27.4662  -21.4344   20.0128 C   0  0  0  0  0  0  0  0  0  1  0  0
  -28.7140  -22.3413   22.5122 C   0  0  0  0  0  0  0  0  0  0  0  0
  -28.3474  -12.6157   20.4446 C   0  0  1  0  0  0  0  0  0  0  0  0
  -29.3600  -11.9747   16.8483 C   0  0  2  0  0  0  0  0  0  0  0  0
  -28.8917  -11.7225   21.5950 C   0  0  0  0  0  0  0  0  0  0  0  0
  -30.1115  -23.8213   21.2108 N   0  0  0  0  0  0  0  0  0  0  0  0
  -25.6302  -27.7658   18.5252 N   0  0  0  0  0  0  0  0  0  0  0  0
  -28.9256  -22.9598   18.8199 N   0  0  0  0  0  0  0  0  0  0  0  0
  -26.8990  -27.3355   18.6299 N   0  0  0  0  0  0  0  0  0  0  0  0
  -26.4657  -14.2042   20.6890 N   0  0  0  0  0  0  0  0  0  0  0  0
  -28.3299  -25.3547   15.6825 N   0  0  0  0  0  0  0  0  0  0  0  0
  -28.5768  -26.7662   20.2020 N   0  0  0  0  0  0  0  0  0  0  0  0
  -25.0771  -27.9544   22.7974 N   0  0  0  0  0  0  0  0  0  0  0  0
  -23.7889  -14.2426   23.0477 N   0  0  0  0  0  0  0  0  0  0  0  0
  -28.5639  -12.0685   19.1097 N   0  0  0  0  0  0  0  0  0  0  0  0
  -29.8678  -23.6625   16.3964 N   0  0  0  0  0  0  0  0  0  0  0  0
  -29.3552  -12.9031   15.6826 N   0  3  0  0  0  0  0  0  0  0  0  0
  -27.2539  -27.2335   22.8227 O   0  0  0  0  0  0  0  0  0  0  0  0
  -25.9352  -15.1439   23.1071 O   0  0  0  0  0  0  0  0  0  0  0  0
  -26.0850  -11.9089   20.5374 O   0  0  0  0  0  0  0  0  0  0  0  0
  -29.7795  -13.8660   18.2921 O   0  0  0  0  0  0  0  0  0  0  0  0
  -28.8118  -23.5341   14.3517 O   0  0  0  0  0  0  0  0  0  0  0  0
  -20.0785  -29.6471   21.0130 O   0  0  0  0  0  0  0  0  0  0  0  0
  -28.0440  -20.1514   20.2500 O   0  0  0  0  0  0  0  0  0  1  0  0
  -17.3180  -26.9357   24.9414 F   0  0  0  0  0  0  0  0  0  0  0  0
  -17.6757  -28.3994   20.4542 F   0  0  0  0  0  0  0  0  0  0  0  0
  1  2  1  0  0  0  0
  1  5  2  0  0  0  0
  2  6  2  0  0  0  0
  3  8  2  0  0  0  0
  3 16  1  0  0  0  0
  4  9  1  0  0  0  0
  4 16  2  0  0  0  0
  5 18  1  0  0  0  0
  6 20  1  0  0  0  0
  7 10  2  0  0  0  0
  7 19  1  0  0  0  0
  8 22  1  0  0  0  0
  9 22  2  0  0  0  0
 10 23  1  0  0  0  0
 11 12  2  0  0  0  0
 11 24  1  0  0  0  0
 12 25  1  0  0  0  0
 13 21  1  0  0  0  0
 13 23  2  0  0  0  0
 14 25  2  0  0  0  0
 14 26  1  0  0  0  0
 15 28  1  0  0  0  0
 15 63  2  0  0  0  0
 16 27  1  0  0  0  0
 17 27  1  0  0  0  0
 17 31  2  0  0  0  0
 17 32  1  0  0  0  0
 18 20  2  0  0  0  0
 18 37  1  0  0  0  0
 19 21  2  0  0  0  0
 19 38  1  0  0  0  0
 20 46  1  0  0  0  0
 21 39  1  0  0  0  0
 22 80  1  0  0  0  0
 23 81  1  0  0  0  0
 24 26  2  0  0  0  0
 24 80  1  0  0  0  0
 25 82  1  0  0  0  0
 26 83  1  0  0  0  0
 27 64  2  0  0  0  0
 28 57  1  0  0  0  0
 28 65  2  0  0  0  0
 29 30  2  0  0  0  0
 29 58  1  0  0  0  0
 29 65  1  0  0  0  0
 30 59  1  0  0  0  0
 30 63  1  0  0  0  0
 31 66  1  0  0  0  0
 31 69  1  0  0  0  0
 32 70  1  0  0  0  0
 32 75  2  0  0  0  0
 33 47  1  0  0  0  0
 33 71  1  0  0  0  0
 33 76  2  0  0  0  0
 34 60  1  0  0  0  0
 34 67  1  0  0  0  0
 34 77  2  0  0  0  0
 35 61  1  0  0  0  0
 35 72  1  0  0  0  0
 35 78  2  0  0  0  0
 36 68  1  0  0  0  0
 36 73  1  0  0  0  0
 36 79  2  0  0  0  0
 37 40  1  0  0  0  0
 38 47  1  0  0  0  0
 39 67  1  0  0  0  0
 40 42  1  0  0  0  0
 41 43  1  0  0  0  0
 41 44  1  0  0  0  0
 42 46  1  0  0  0  0
 43 48  1  0  0  0  0
 44 68  1  0  0  0  0
 45 48  1  0  0  0  0
 45 68  1  0  0  0  0
 46 71  1  0  0  0  0
 47 67  1  0  0  0  0
 48 66  1  0  0  0  0
 49 59  1  0  0  0  0
 50 59  1  0  0  0  0
 51 61  1  0  0  0  0
 52 62  1  0  0  0  0
 53 62  1  0  0  0  0
 54 62  1  0  0  0  0
 55 73  1  0  0  0  0
 56 74  1  0  0  0  0
 57 73  1  0  0  0  0
 58 81  1  0  0  0  0
 60 62  1  0  0  0  0
 60 72  1  0  0  0  0
 61 74  1  0  0  0  0
 64 66  1  0  0  0  0
M  CHG  1  74   1
M  ISO  4  36 100  58 101  73 100  81 101
M  END
> <Batch ID>
0060

> <Smiles>
CNC(C)C(=O)NC(C(=O)N1Cc2cc([101O:1][101CH2:1]c3nc(C[100N:0](C)[100C:0](=O)N4CCCC(n5nc(-c6ccc(Oc7ccc(F)cc7F)cc6)c(C(N)=O)c5N)C4)cnc3C(C)C)ccc2CC1C(=O)NC1CCCc2ccccc21)C(C)(C)C

> <Shape>
0.229

> <Color>
0.074

> <Negative vol penalty>
0.000

$$$$

  -OEChem-04052317553D

 84 92  0     1  0  0  0  0  0999 V2000
  -25.7176  -11.7813   38.9789 C   0  0  0  0  0  0  0  0  0  0  0  0
  -26.3468  -12.1934   37.8086 C   0  0  0  0  0  0  0  0  0  0  0  0
  -23.2873   -9.7984   19.9109 C   0  0  0  0  0  0  0  0  0  0  0  0
  -23.7315   -9.9387   22.2815 C   0  0  0  0  0  0  0  0  0  0  0  0
  -24.8778  -10.6684   38.9629 C   0  0  0  0  0  0  0  0  0  0  0  0
  -26.1375  -11.4921   36.6217 C   0  0  0  0  0  0  0  0  0  0  0  0
  -25.3045  -14.5554   32.6762 C   0  0  0  0  0  0  0  0  0  0  0  0
  -22.5582   -8.6272   20.1168 C   0  0  0  0  0  0  0  0  0  0  0  0
  -23.0024   -8.7675   22.4875 C   0  0  0  0  0  0  0  0  0  0  0  0
  -26.4153  -15.1752   32.1056 C   0  0  0  0  0  0  0  0  0  0  0  0
  -20.9550   -6.0113   23.6830 C   0  0  0  0  0  0  0  0  0  0  0  0
  -20.0503   -5.9878   24.7443 C   0  0  0  0  0  0  0  0  0  0  0  0
  -26.4267  -13.5233   30.3478 C   0  0  0  0  0  0  0  0  0  0  0  0
  -18.8468   -7.8368   23.7594 C   0  0  0  0  0  0  0  0  0  0  0  0
  -30.3798  -15.9775   23.9000 C   0  0  0  0  0  0  0  0  0  0  0  0
  -29.0254  -14.2480   23.8042 C   0  0  0  0  0  0  0  0  0  0  0  0
  -23.8739  -10.4542   20.9932 C   0  0  0  0  0  0  0  0  0  0  0  0
  -24.1383  -12.9837   20.7949 C   0  0  0  0  0  0  0  0  0  0  0  0
  -24.6506   -9.9589   37.7731 C   0  0  0  0  0  0  0  0  0  0  0  0
  -24.7521  -13.4066   32.0919 C   0  0  0  0  0  0  0  0  0  0  0  0
  -25.2950  -10.3678   36.5900 C   0  0  0  0  0  0  0  0  0  0  0  0
  -25.3072  -12.8923   30.9114 C   0  0  0  0  0  0  0  0  0  0  0  0
  -29.0619  -15.5688   24.1790 C   0  0  0  0  0  0  0  0  0  0  0  0
  -22.4158   -8.1118   21.4050 C   0  0  0  0  0  0  0  0  0  0  0  0
  -26.9784  -14.6575   30.9429 C   0  0  0  0  0  0  0  0  0  0  0  0
  -20.8057   -6.9476   22.6598 C   0  0  0  0  0  0  0  0  0  0  0  0
  -18.9962   -6.9005   24.7826 C   0  0  0  0  0  0  0  0  0  0  0  0
  -19.7516   -7.8603   22.6981 C   0  0  0  0  0  0  0  0  0  0  0  0
  -24.6276  -11.6637   20.7811 C   0  0  0  0  0  0  0  0  0  0  0  0
  -25.2419  -13.7616   20.5429 C   0  0  0  0  0  0  0  0  0  0  0  0
  -22.8055  -13.4637   21.0157 C   0  0  0  0  0  0  0  0  0  0  0  0
  -24.3368  -10.3954   33.0215 C   0  0  0  0  0  0  0  0  0  0  0  0
  -31.1126  -12.7891   21.3804 C   0  0  0  0  0  0  0  0  0  0  0  0
  -22.7177  -10.1637   30.2203 C   0  0  0  0  0  0  0  0  0  0  0  0
  -22.2029  -11.3559   27.0642 C   0  0  0  0  0  0  0  0  0  0  0  0
  -23.7717   -8.7339   37.8150 C   0  0  0  0  0  0  0  0  0  0  0  0
  -23.5374  -12.7653   32.7048 C   0  0  0  0  0  0  0  0  0  0  0  0
  -24.7394  -11.6730   30.2336 C   0  0  0  0  0  0  0  0  0  0  0  0
  -23.3079   -8.2696   36.4367 C   0  0  0  0  0  0  0  0  0  0  0  0
  -29.4692  -13.6697   18.3203 C   0  0  0  0  0  0  0  0  0  0  0  0
  -24.4788   -8.2462   35.4593 C   0  0  0  0  0  0  0  0  0  0  0  0
  -28.0009  -13.3483   18.5960 C   0  0  0  0  0  0  0  0  0  0  0  0
  -30.3977  -12.6791   19.0158 C   0  0  0  0  0  0  0  0  0  0  0  0
  -28.7045  -12.2448   20.7668 C   0  0  0  0  0  0  0  0  0  0  0  0
  -25.0736   -9.6479   35.2774 C   0  0  1  0  0  0  0  0  0  0  0  0
  -23.3715  -11.3010   32.3104 C   0  0  1  0  0  0  0  0  0  0  0  0
  -27.7331  -13.2400   20.1076 C   0  0  2  0  0  0  0  0  0  0  0  0
  -31.8857  -12.1083   23.6418 C   0  0  0  0  0  0  0  0  0  0  0  0
  -20.8418  -10.9372   24.9980 C   0  0  0  0  0  0  0  0  0  0  0  0
  -26.5559  -15.9160   24.2605 C   0  0  0  0  0  0  0  0  0  0  0  0
  -28.1119  -17.8998   24.4488 C   0  0  0  0  0  0  0  0  0  0  0  0
  -24.4995   -7.7846   29.5314 C   0  0  0  0  0  0  0  0  0  0  0  0
  -23.7678   -8.0156   27.1482 C   0  0  0  0  0  0  0  0  0  0  0  0
  -22.0916   -7.4957   28.9210 C   0  0  0  0  0  0  0  0  0  0  0  0
  -20.9343  -14.0252   27.2187 C   0  0  0  0  0  0  0  0  0  0  0  0
  -28.9426  -16.3930   28.4616 C   0  0  0  0  0  0  0  0  0  0  0  0
  -29.1377  -16.4133   26.9531 C   0  0  0  0  0  0  0  0  0  0  0  0
  -28.2041  -15.1600   28.9678 C   0  0  0  0  0  0  0  0  0  1  0  0
  -30.7250  -12.6832   22.8338 C   0  0  1  0  0  0  0  0  0  0  0  0
  -23.0861   -9.8169   28.7980 C   0  0  1  0  0  0  0  0  0  0  0  0
  -20.9296  -11.6979   26.3119 C   0  0  2  0  0  0  0  0  0  0  0  0
  -27.9203  -16.4083   24.7721 C   0  0  0  0  0  0  0  0  0  0  0  0
  -23.3734   -8.3000   28.6132 C   0  0  0  0  0  0  0  0  0  0  0  0
  -31.1265  -14.9958   23.3876 N   0  0  0  0  0  0  0  0  0  0  0  0
  -25.9398  -11.6027   20.5394 N   0  0  0  0  0  0  0  0  0  0  0  0
  -30.2750  -13.9570   23.3418 N   0  0  0  0  0  0  0  0  0  0  0  0
  -26.2844  -12.8941   20.3988 N   0  0  0  0  0  0  0  0  0  0  0  0
  -23.5552  -11.0780   30.8749 N   0  0  0  0  0  0  0  0  0  0  0  0
  -30.0967  -12.5884   20.4456 N   0  0  0  0  0  0  0  0  0  0  0  0
  -25.4125  -15.0962   20.4327 N   0  0  0  0  0  0  0  0  0  0  0  0
  -21.7906  -12.5286   21.2605 N   0  0  0  0  0  0  0  0  0  0  0  0
  -24.2401  -10.4406   34.3992 N   0  0  0  0  0  0  0  0  0  0  0  0
  -22.0058  -10.3268   27.9605 N   0  0  0  0  0  0  0  0  0  0  0  0
  -20.8800  -13.1574   26.0142 N   0  3  0  0  0  0  0  0  0  0  0  0
  -27.8319  -16.3371   26.2569 N   0  3  0  0  0  0  0  0  0  0  0  0
  -22.5199  -14.6846   20.9804 O   0  0  0  0  0  0  0  0  0  0  0  0
  -25.1111   -9.7056   32.3685 O   0  0  0  0  0  0  0  0  0  0  0  0
  -32.2831  -13.0455   21.0866 O   0  0  0  0  0  0  0  0  0  0  0  0
  -21.7193   -9.6480   30.7292 O   0  0  0  0  0  0  0  0  0  0  0  0
  -23.2670  -11.9404   26.8731 O   0  0  0  0  0  0  0  0  0  0  0  0
  -21.7042   -6.9691   21.6064 O   0  0  0  0  0  0  0  0  0  0  0  0
  -28.0631  -15.2602   30.3843 O   0  0  0  0  0  0  0  0  0  1  0  0
  -18.1266   -6.8769   25.8011 F   0  0  0  0  0  0  0  0  0  0  0  0
  -19.6023   -8.7614   21.7174 F   0  0  0  0  0  0  0  0  0  0  0  0
  1  2  1  0  0  0  0
  1  5  2  0  0  0  0
  2  6  2  0  0  0  0
  3  8  2  0  0  0  0
  3 17  1  0  0  0  0
  4  9  1  0  0  0  0
  4 17  2  0  0  0  0
  5 19  1  0  0  0  0
  6 21  1  0  0  0  0
  7 10  2  0  0  0  0
  7 20  1  0  0  0  0
  8 24  1  0  0  0  0
  9 24  2  0  0  0  0
 10 25  1  0  0  0  0
 11 12  2  0  0  0  0
 11 26  1  0  0  0  0
 12 27  1  0  0  0  0
 13 22  1  0  0  0  0
 13 25  2  0  0  0  0
 14 27  2  0  0  0  0
 14 28  1  0  0  0  0
 15 23  1  0  0  0  0
 15 64  2  0  0  0  0
 16 23  2  0  0  0  0
 16 66  1  0  0  0  0
 17 29  1  0  0  0  0
 18 29  1  0  0  0  0
 18 30  2  0  0  0  0
 18 31  1  0  0  0  0
 19 21  2  0  0  0  0
 19 36  1  0  0  0  0
 20 22  2  0  0  0  0
 20 37  1  0  0  0  0
 21 45  1  0  0  0  0
 22 38  1  0  0  0  0
 23 62  1  0  0  0  0
 24 81  1  0  0  0  0
 25 82  1  0  0  0  0
 26 28  2  0  0  0  0
 26 81  1  0  0  0  0
 27 83  1  0  0  0  0
 28 84  1  0  0  0  0
 29 65  2  0  0  0  0
 30 67  1  0  0  0  0
 30 70  1  0  0  0  0
 31 71  1  0  0  0  0
 31 76  2  0  0  0  0
 32 46  1  0  0  0  0
 32 72  1  0  0  0  0
 32 77  2  0  0  0  0
 33 59  1  0  0  0  0
 33 69  1  0  0  0  0
 33 78  2  0  0  0  0
 34 60  1  0  0  0  0
 34 68  1  0  0  0  0
 34 79  2  0  0  0  0
 35 61  1  0  0  0  0
 35 73  1  0  0  0  0
 35 80  2  0  0  0  0
 36 39  1  0  0  0  0
 37 46  1  0  0  0  0
 38 68  1  0  0  0  0
 39 41  1  0  0  0  0
 40 42  1  0  0  0  0
 40 43  1  0  0  0  0
 41 45  1  0  0  0  0
 42 47  1  0  0  0  0
 43 69  1  0  0  0  0
 44 47  1  0  0  0  0
 44 69  1  0  0  0  0
 45 72  1  0  0  0  0
 46 68  1  0  0  0  0
 47 67  1  0  0  0  0
 48 59  1  0  0  0  0
 49 61  1  0  0  0  0
 50 62  1  0  0  0  0
 51 62  1  0  0  0  0
 52 63  1  0  0  0  0
 53 63  1  0  0  0  0
 54 63  1  0  0  0  0
 55 74  1  0  0  0  0
 56 57  1  0  0  0  0
 56 58  1  0  0  0  0
 57 75  1  0  0  0  0
 58 82  1  0  0  0  0
 59 66  1  0  0  0  0
 60 63  1  0  0  0  0
 60 73  1  0  0  0  0
 61 74  1  0  0  0  0
 62 75  1  0  0  0  0
 64 66  1  0  0  0  0
 65 67  1  0  0  0  0
M  CHG  2  74   1  75   1
M  ISO  4  33 100  58 101  59 100  82 101
M  END
> <Batch ID>
0060

> <Smiles>
CNC(C)C(=O)NC(C(=O)N1Cc2cc([101O:1][101CH2:1]CCNC(C)(C)c3cnn([100CH:0](C)[100C:0](=O)N4CCCC(n5nc(-c6ccc(Oc7ccc(F)cc7F)cc6)c(C(N)=O)c5N)C4)c3)ccc2CC1C(=O)NC1CCCc2ccccc21)C(C)(C)C

> <Shape>
0.133

> <Color>
0.170

> <Negative vol penalty>
0.000

$$$$

  -OEChem-04052317553D

 82 90  0     1  0  0  0  0  0999 V2000
  -29.1572   -9.3983   22.4346 C   0  0  0  0  0  0  0  0  0  0  0  0
  -29.6516  -10.6753   22.1893 C   0  0  0  0  0  0  0  0  0  0  0  0
  -23.0561  -28.3768   20.3975 C   0  0  0  0  0  0  0  0  0  0  0  0
  -23.9350  -26.1771   20.8728 C   0  0  0  0  0  0  0  0  0  0  0  0
  -27.9558   -8.9937   21.8540 C   0  0  0  0  0  0  0  0  0  0  0  0
  -28.9455  -11.5482   21.3623 C   0  0  0  0  0  0  0  0  0  0  0  0
  -28.5236  -17.6309   21.9354 C   0  0  0  0  0  0  0  0  0  0  0  0
  -21.7577  -27.8924   20.5563 C   0  0  0  0  0  0  0  0  0  0  0  0
  -22.6367  -25.6927   21.0316 C   0  0  0  0  0  0  0  0  0  0  0  0
  -29.1959  -18.6807   21.3111 C   0  0  0  0  0  0  0  0  0  0  0  0
  -19.6814  -27.1227   23.1116 C   0  0  0  0  0  0  0  0  0  0  0  0
  -18.7918  -27.8877   23.8658 C   0  0  0  0  0  0  0  0  0  0  0  0
  -27.3891  -18.8871   19.7261 C   0  0  0  0  0  0  0  0  0  0  0  0
  -17.3341  -28.0825   21.9489 C   0  0  0  0  0  0  0  0  0  0  0  0
  -31.4159  -26.4775   21.0406 C   0  0  0  0  0  0  0  0  0  0  0  0
  -30.4236  -24.5871   21.8597 C   0  0  0  0  0  0  0  0  0  0  0  0
  -24.1447  -27.5192   20.5557 C   0  0  0  0  0  0  0  0  0  0  0  0
  -26.3175  -28.5660   21.3868 C   0  0  0  0  0  0  0  0  0  0  0  0
  -27.2298   -9.8655   21.0272 C   0  0  0  0  0  0  0  0  0  0  0  0
  -27.2820  -17.1934   21.4522 C   0  0  0  0  0  0  0  0  0  0  0  0
  -27.7340  -11.1545   20.7691 C   0  0  0  0  0  0  0  0  0  0  0  0
  -26.7020  -17.8332   20.3476 C   0  0  0  0  0  0  0  0  0  0  0  0
  -21.5480  -26.5503   20.8734 C   0  0  0  0  0  0  0  0  0  0  0  0
  -28.6300  -19.3071   20.2045 C   0  0  0  0  0  0  0  0  0  0  0  0
  -19.3974  -26.8376   21.7760 C   0  0  0  0  0  0  0  0  0  0  0  0
  -17.6181  -28.3676   23.2845 C   0  0  0  0  0  0  0  0  0  0  0  0
  -18.2238  -27.3175   21.1947 C   0  0  0  0  0  0  0  0  0  0  0  0
  -25.4861  -28.0189   20.3912 C   0  0  0  0  0  0  0  0  0  0  0  0
  -31.1284  -26.0719   19.7559 C   0  0  0  0  0  0  0  0  0  0  0  0
  -30.1354  -24.1817   20.5751 C   0  0  0  0  0  0  0  0  0  0  0  0
  -27.4786  -28.8864   20.7267 C   0  0  0  0  0  0  0  0  0  0  0  0
  -26.0631  -28.7666   22.7835 C   0  0  0  0  0  0  0  0  0  0  0  0
  -26.1768  -14.4652   20.2525 C   0  0  0  0  0  0  0  0  0  0  0  0
  -23.3332  -16.0223   20.3600 C   0  0  0  0  0  0  0  0  0  0  0  0
  -21.6577  -18.9951   20.4029 C   0  0  0  0  0  0  0  0  0  0  0  0
  -30.5894  -26.5250   16.2736 C   0  0  0  0  0  0  0  0  0  0  0  0
  -25.9600   -9.3669   20.3841 C   0  0  0  0  0  0  0  0  0  0  0  0
  -26.5573  -16.0772   22.1532 C   0  0  0  0  0  0  0  0  0  0  0  0
  -25.3618  -17.4147   19.8023 C   0  0  0  0  0  0  0  0  0  0  0  0
  -25.0836  -10.4827   19.8208 C   0  0  0  0  0  0  0  0  0  0  0  0
  -28.7167  -29.7078   16.0200 C   0  0  0  0  0  0  0  0  0  0  0  0
  -25.9252  -11.4673   19.0151 C   0  0  0  0  0  0  0  0  0  0  0  0
  -27.7239  -29.6031   17.1764 C   0  0  0  0  0  0  0  0  0  0  0  0
  -29.1089  -28.3347   15.4831 C   0  0  0  0  0  0  0  0  0  0  0  0
  -28.6377  -27.3028   17.6802 C   0  0  0  0  0  0  0  0  0  0  0  0
  -26.9844  -12.1387   19.8976 C   0  0  1  0  0  0  0  0  0  0  0  0
  -25.5369  -15.3752   21.2625 C   0  0  1  0  0  0  0  0  0  0  0  0
  -28.2577  -28.6672   18.2748 C   0  0  2  0  0  0  0  0  0  0  0  0
  -19.3366  -19.9476   20.4545 C   0  0  0  0  0  0  0  0  0  0  0  0
  -22.9903  -15.3404   17.4058 C   0  0  0  0  0  0  0  0  0  0  0  0
  -21.1916  -17.0777   17.2852 C   0  0  0  0  0  0  0  0  0  0  0  0
  -20.9145  -15.0998   18.7797 C   0  0  0  0  0  0  0  0  0  0  0  0
  -32.5276  -25.2335   17.0830 C   0  0  0  0  0  0  0  0  0  0  0  0
  -22.1509  -20.3620   22.9811 C   0  0  0  0  0  0  0  0  0  0  0  0
  -31.5278  -26.9097   18.5918 C   0  0  0  0  0  0  0  0  0  0  0  0
  -28.4829  -21.3282   18.9598 C   0  0  0  0  0  0  0  0  0  1  0  0
  -29.2178  -22.6540   19.0003 C   0  0  0  0  0  0  0  0  0  0  0  0
  -22.5634  -16.9092   19.4114 C   0  0  1  0  0  0  0  0  0  0  0  0
  -20.5313  -19.5039   21.2843 C   0  0  2  0  0  0  0  0  0  0  0  0
  -21.9411  -16.1136   18.2294 C   0  0  0  0  0  0  0  0  0  0  0  0
  -31.0687  -25.7424   22.1155 N   0  0  0  0  0  0  0  0  0  0  0  0
  -26.0694  -27.9918   19.1899 N   0  0  0  0  0  0  0  0  0  0  0  0
  -30.4829  -24.9166   19.5002 N   0  0  0  0  0  0  0  0  0  0  0  0
  -27.2797  -28.5260   19.4264 N   0  0  0  0  0  0  0  0  0  0  0  0
  -24.6953  -16.3144   20.5182 N   0  0  0  0  0  0  0  0  0  0  0  0
  -29.5717  -27.4514   16.5541 N   0  0  0  0  0  0  0  0  0  0  0  0
  -28.6400  -29.4384   21.1374 N   0  0  0  0  0  0  0  0  0  0  0  0
  -24.8177  -28.3809   23.2979 N   0  0  0  0  0  0  0  0  0  0  0  0
  -26.3835  -13.1769   20.7073 N   0  0  0  0  0  0  0  0  0  0  0  0
  -21.5900  -17.6295   20.2251 N   0  0  0  0  0  0  0  0  0  0  0  0
  -31.4497  -26.1813   17.3274 N   0  0  0  0  0  0  0  0  0  0  0  0
  -20.9942  -20.6629   22.0989 N   0  3  0  0  0  0  0  0  0  0  0  0
  -26.9089  -29.2879   23.5493 O   0  0  0  0  0  0  0  0  0  0  0  0
  -26.4606  -14.8994   19.1422 O   0  0  0  0  0  0  0  0  0  0  0  0
  -22.7459  -15.1086   20.9447 O   0  0  0  0  0  0  0  0  0  0  0  0
  -22.5100  -19.7357   19.9174 O   0  0  0  0  0  0  0  0  0  0  0  0
  -30.7275  -26.0404   15.1431 O   0  0  0  0  0  0  0  0  0  0  0  0
  -20.2812  -26.0773   21.0287 O   0  0  0  0  0  0  0  0  0  0  0  0
  -29.2843  -20.3316   19.5929 O   0  0  0  0  0  0  0  0  0  1  0  0
  -29.4773  -23.0003   20.3553 O   0  0  0  0  0  0  0  0  0  0  0  0
  -16.7632  -29.1010   24.0094 F   0  0  0  0  0  0  0  0  0  0  0  0
  -17.9449  -27.0459   19.9124 F   0  0  0  0  0  0  0  0  0  0  0  0
  1  2  1  0  0  0  0
  1  5  2  0  0  0  0
  2  6  2  0  0  0  0
  3  8  2  0  0  0  0
  3 17  1  0  0  0  0
  4  9  1  0  0  0  0
  4 17  2  0  0  0  0
  5 19  1  0  0  0  0
  6 21  1  0  0  0  0
  7 10  2  0  0  0  0
  7 20  1  0  0  0  0
  8 23  1  0  0  0  0
  9 23  2  0  0  0  0
 10 24  1  0  0  0  0
 11 12  2  0  0  0  0
 11 25  1  0  0  0  0
 12 26  1  0  0  0  0
 13 22  1  0  0  0  0
 13 24  2  0  0  0  0
 14 26  2  0  0  0  0
 14 27  1  0  0  0  0
 15 29  2  0  0  0  0
 15 61  1  0  0  0  0
 16 30  1  0  0  0  0
 16 61  2  0  0  0  0
 17 28  1  0  0  0  0
 18 28  1  0  0  0  0
 18 31  2  0  0  0  0
 18 32  1  0  0  0  0
 19 21  2  0  0  0  0
 19 37  1  0  0  0  0
 20 22  2  0  0  0  0
 20 38  1  0  0  0  0
 21 46  1  0  0  0  0
 22 39  1  0  0  0  0
 23 78  1  0  0  0  0
 24 79  1  0  0  0  0
 25 27  2  0  0  0  0
 25 78  1  0  0  0  0
 26 81  1  0  0  0  0
 27 82  1  0  0  0  0
 28 62  2  0  0  0  0
 29 55  1  0  0  0  0
 29 63  1  0  0  0  0
 30 63  2  0  0  0  0
 30 80  1  0  0  0  0
 31 64  1  0  0  0  0
 31 67  1  0  0  0  0
 32 68  1  0  0  0  0
 32 73  2  0  0  0  0
 33 47  1  0  0  0  0
 33 69  1  0  0  0  0
 33 74  2  0  0  0  0
 34 58  1  0  0  0  0
 34 65  1  0  0  0  0
 34 75  2  0  0  0  0
 35 59  1  0  0  0  0
 35 70  1  0  0  0  0
 35 76  2  0  0  0  0
 36 66  1  0  0  0  0
 36 71  1  0  0  0  0
 36 77  2  0  0  0  0
 37 40  1  0  0  0  0
 38 47  1  0  0  0  0
 39 65  1  0  0  0  0
 40 42  1  0  0  0  0
 41 43  1  0  0  0  0
 41 44  1  0  0  0  0
 42 46  1  0  0  0  0
 43 48  1  0  0  0  0
 44 66  1  0  0  0  0
 45 48  1  0  0  0  0
 45 66  1  0  0  0  0
 46 69  1  0  0  0  0
 47 65  1  0  0  0  0
 48 64  1  0  0  0  0
 49 59  1  0  0  0  0
 50 60  1  0  0  0  0
 51 60  1  0  0  0  0
 52 60  1  0  0  0  0
 53 71  1  0  0  0  0
 54 72  1  0  0  0  0
 55 71  1  0  0  0  0
 56 57  1  0  0  0  0
 56 79  1  0  0  0  0
 57 80  1  0  0  0  0
 58 60  1  0  0  0  0
 58 70  1  0  0  0  0
 59 72  1  0  0  0  0
 62 64  1  0  0  0  0
M  CHG  1  72   1
M  ISO  4  36 100  56 101  71 100  79 101
M  END
> <Batch ID>
0060

> <Smiles>
CNC(C)C(=O)NC(C(=O)N1Cc2cc([101O:1][101CH2:1]COc3cncc(C[100N:0](C)[100C:0](=O)N4CCCC(n5nc(-c6ccc(Oc7ccc(F)cc7F)cc6)c(C(N)=O)c5N)C4)n3)ccc2CC1C(=O)NC1CCCc2ccccc21)C(C)(C)C

> <Shape>
0.219

> <Color>
0.070

> <Negative vol penalty>
0.000

$$$$

  -OEChem-04052317553D

 88 96  0     1  0  0  0  0  0999 V2000
  -28.5989  -24.4346   29.5998 C   0  0  0  0  0  0  0  0  0  0  0  0
  -29.2575  -24.8303   28.4400 C   0  0  0  0  0  0  0  0  0  0  0  0
  -26.7067  -13.2388   21.8756 C   0  0  0  0  0  0  0  0  0  0  0  0
  -26.1366  -14.6076   19.9681 C   0  0  0  0  0  0  0  0  0  0  0  0
  -27.2536  -24.7537   29.7796 C   0  0  0  0  0  0  0  0  0  0  0  0
  -28.5708  -25.5445   27.4588 C   0  0  0  0  0  0  0  0  0  0  0  0
  -30.8311  -29.9433   23.8467 C   0  0  0  0  0  0  0  0  0  0  0  0
  -25.4202  -12.6999   21.8735 C   0  0  0  0  0  0  0  0  0  0  0  0
  -24.8500  -14.0687   19.9659 C   0  0  0  0  0  0  0  0  0  0  0  0
  -31.2991  -29.9303   22.5334 C   0  0  0  0  0  0  0  0  0  0  0  0
  -22.3977  -10.6987   22.1466 C   0  0  0  0  0  0  0  0  0  0  0  0
  -22.2726   -9.3180   22.3006 C   0  0  0  0  0  0  0  0  0  0  0  0
  -29.1337  -30.6608   21.7609 C   0  0  0  0  0  0  0  0  0  0  0  0
  -23.5773   -8.9762   20.2961 C   0  0  0  0  0  0  0  0  0  0  0  0
  -27.0649  -14.1927   20.9229 C   0  0  0  0  0  0  0  0  0  0  0  0
  -29.5212  -14.2623   20.2377 C   0  0  0  0  0  0  0  0  0  0  0  0
  -26.5526  -25.4805   28.8044 C   0  0  0  0  0  0  0  0  0  0  0  0
  -29.5055  -30.3052   24.1263 C   0  0  0  0  0  0  0  0  0  0  0  0
  -27.2145  -25.8724   27.6251 C   0  0  0  0  0  0  0  0  0  0  0  0
  -28.6521  -30.6800   23.0788 C   0  0  0  0  0  0  0  0  0  0  0  0
  -24.4918  -13.1148   20.9186 C   0  0  0  0  0  0  0  0  0  0  0  0
  -30.4496  -30.2863   21.4900 C   0  0  0  0  0  0  0  0  0  0  0  0
  -23.1125  -11.2181   21.0672 C   0  0  0  0  0  0  0  0  0  0  0  0
  -22.8624   -8.4568   21.3754 C   0  0  0  0  0  0  0  0  0  0  0  0
  -23.7023  -10.3569   20.1420 C   0  0  0  0  0  0  0  0  0  0  0  0
  -28.3936  -14.7501   20.9250 C   0  0  0  0  0  0  0  0  0  0  0  0
  -29.0868  -25.8891   20.4505 C   0  0  0  0  0  0  0  0  0  0  0  0
  -29.6842  -24.7163   20.0440 C   0  0  0  0  0  0  0  0  0  0  0  0
  -30.7682  -25.8463   18.3772 C   0  0  0  0  0  0  0  0  0  0  0  0
  -30.1702  -27.0189   18.7834 C   0  0  0  0  0  0  0  0  0  0  0  0
  -30.5277  -15.1380   20.5642 C   0  0  0  0  0  0  0  0  0  0  0  0
  -29.6475  -13.1198   19.3807 C   0  0  0  0  0  0  0  0  0  0  0  0
  -27.0053  -28.8345   25.4261 C   0  0  0  0  0  0  0  0  0  0  0  0
  -25.6424  -31.7672   25.1735 C   0  0  0  0  0  0  0  0  0  0  0  0
  -25.5715  -34.8050   23.6198 C   0  0  0  0  0  0  0  0  0  0  0  0
  -30.6856  -20.7777   22.2510 C   0  0  0  0  0  0  0  0  0  0  0  0
  -25.0868  -25.7610   29.0221 C   0  0  0  0  0  0  0  0  0  0  0  0
  -29.0237  -30.3399   25.5508 C   0  0  0  0  0  0  0  0  0  0  0  0
  -27.2261  -31.0961   23.3278 C   0  0  0  0  0  0  0  0  0  0  0  0
  -24.5309  -26.8448   28.1021 C   0  0  0  0  0  0  0  0  0  0  0  0
  -31.9563  -18.0898   24.0361 C   0  0  0  0  0  0  0  0  0  0  0  0
  -24.9825  -26.6080   26.6644 C   0  0  0  0  0  0  0  0  0  0  0  0
  -31.3004  -16.8730   23.3848 C   0  0  0  0  0  0  0  0  0  0  0  0
  -30.9628  -19.2378   24.1690 C   0  0  0  0  0  0  0  0  0  0  0  0
  -29.6840  -18.4453   22.2049 C   0  0  0  0  0  0  0  0  0  0  0  0
  -26.5103  -26.6699   26.5488 C   0  0  1  0  0  0  0  0  0  0  0  0
  -27.5070  -30.2294   25.6714 C   0  0  1  0  0  0  0  0  0  0  0  0
  -30.6468  -17.2509   22.0440 C   0  0  2  0  0  0  0  0  0  0  0  0
  -28.1466  -25.9228   21.6064 C   0  0  0  0  0  0  0  0  0  0  0  0
  -32.0014  -24.3903   16.7506 C   0  0  0  0  0  0  0  0  0  0  0  0
  -28.1722  -18.3461   19.0695 C   0  0  0  0  0  0  0  0  0  0  0  0
  -24.3215  -36.9809   23.6042 C   0  0  0  0  0  0  0  0  0  0  0  0
  -23.3399  -30.4310   23.6825 C   0  0  0  0  0  0  0  0  0  0  0  0
  -22.6347  -32.6964   22.8833 C   0  0  0  0  0  0  0  0  0  0  0  0
  -22.6420  -32.1834   25.3245 C   0  0  0  0  0  0  0  0  0  0  0  0
  -27.9965  -36.3367   24.3494 C   0  0  0  0  0  0  0  0  0  0  0  0
  -31.7087  -25.8129   17.2214 C   0  0  0  0  0  0  0  0  0  0  0  0
  -30.4387  -28.3238   18.0773 C   0  0  0  0  0  0  0  0  0  0  0  0
  -29.4177  -23.4261   20.7412 C   0  0  0  0  0  0  0  0  0  0  0  0
  -29.3555  -19.1117   19.6452 C   0  0  0  0  0  0  0  0  0  0  0  0
  -31.7952  -28.9427   18.4214 C   0  0  0  0  0  0  0  0  0  0  0  0
  -30.3752  -22.2987   20.3358 C   0  0  0  0  0  0  0  0  0  0  0  0
  -28.9294  -20.3056   20.4910 C   0  0  0  0  0  0  0  0  0  0  0  0
  -31.9267  -29.3312   19.8895 C   0  0  0  0  0  0  0  0  0  1  0  0
  -24.8414  -32.4863   24.1150 C   0  0  1  0  0  0  0  0  0  0  0  0
  -25.5079  -36.2176   24.1721 C   0  0  2  0  0  0  0  0  0  0  0  0
  -23.3908  -31.9396   23.9961 C   0  0  0  0  0  0  0  0  0  0  0  0
  -28.6583  -15.8502   21.6347 N   0  0  0  0  0  0  0  0  0  0  0  0
  -29.3191  -27.0614   19.8274 N   0  0  0  0  0  0  0  0  0  0  0  0
  -30.5357  -24.6739   19.0001 N   0  0  0  0  0  0  0  0  0  0  0  0
  -29.9638  -16.0609   21.3951 N   0  0  0  0  0  0  0  0  0  0  0  0
  -26.8002  -31.1078   24.7371 N   0  0  0  0  0  0  0  0  0  0  0  0
  -30.3576  -19.5665   22.8780 N   0  0  0  0  0  0  0  0  0  0  0  0
  -31.8312  -15.2008   20.2188 N   0  0  0  0  0  0  0  0  0  0  0  0
  -28.5142  -12.3277   19.1519 N   0  0  0  0  0  0  0  0  0  0  0  0
  -26.9627  -28.0445   26.5591 N   0  0  0  0  0  0  0  0  0  0  0  0
  -24.9200  -33.9068   24.4384 N   0  0  0  0  0  0  0  0  0  0  0  0
  -30.0717  -21.0493   21.0190 N   0  0  0  0  0  0  0  0  0  0  0  0
  -26.7527  -36.9632   23.8322 N   0  3  0  0  0  0  0  0  0  0  0  0
  -30.7371  -12.8012   18.8470 O   0  0  0  0  0  0  0  0  0  0  0  0
  -26.6794  -28.5001   24.2931 O   0  0  0  0  0  0  0  0  0  0  0  0
  -25.2589  -31.7957   26.3456 O   0  0  0  0  0  0  0  0  0  0  0  0
  -26.1390  -34.5268   22.5657 O   0  0  0  0  0  0  0  0  0  0  0  0
  -31.4776  -21.5772   22.7664 O   0  0  0  0  0  0  0  0  0  0  0  0
  -23.2364  -12.5891   20.9161 O   0  0  0  0  0  0  0  0  0  0  0  0
  -30.9036  -30.2739   20.2073 O   0  0  0  0  0  0  0  0  0  1  0  0
  -22.7435   -7.1309   21.5243 F   0  0  0  0  0  0  0  0  0  0  0  0
  -24.3912  -10.8500   19.1037 F   0  0  0  0  0  0  0  0  0  0  0  0
  1  2  1  0  0  0  0
  1  5  2  0  0  0  0
  2  6  2  0  0  0  0
  3  8  2  0  0  0  0
  3 15  1  0  0  0  0
  4  9  1  0  0  0  0
  4 15  2  0  0  0  0
  5 17  1  0  0  0  0
  6 19  1  0  0  0  0
  7 10  2  0  0  0  0
  7 18  1  0  0  0  0
  8 21  1  0  0  0  0
  9 21  2  0  0  0  0
 10 22  1  0  0  0  0
 11 12  2  0  0  0  0
 11 23  1  0  0  0  0
 12 24  1  0  0  0  0
 13 20  1  0  0  0  0
 13 22  2  0  0  0  0
 14 24  2  0  0  0  0
 14 25  1  0  0  0  0
 15 26  1  0  0  0  0
 16 26  1  0  0  0  0
 16 31  2  0  0  0  0
 16 32  1  0  0  0  0
 17 19  2  0  0  0  0
 17 37  1  0  0  0  0
 18 20  2  0  0  0  0
 18 38  1  0  0  0  0
 19 46  1  0  0  0  0
 20 39  1  0  0  0  0
 21 85  1  0  0  0  0
 22 86  1  0  0  0  0
 23 25  2  0  0  0  0
 23 85  1  0  0  0  0
 24 87  1  0  0  0  0
 25 88  1  0  0  0  0
 26 68  2  0  0  0  0
 27 28  2  0  0  0  0
 27 49  1  0  0  0  0
 27 69  1  0  0  0  0
 28 59  1  0  0  0  0
 28 70  1  0  0  0  0
 29 30  1  0  0  0  0
 29 57  1  0  0  0  0
 29 70  2  0  0  0  0
 30 58  1  0  0  0  0
 30 69  2  0  0  0  0
 31 71  1  0  0  0  0
 31 74  1  0  0  0  0
 32 75  1  0  0  0  0
 32 80  2  0  0  0  0
 33 47  1  0  0  0  0
 33 76  1  0  0  0  0
 33 81  2  0  0  0  0
 34 65  1  0  0  0  0
 34 72  1  0  0  0  0
 34 82  2  0  0  0  0
 35 66  1  0  0  0  0
 35 77  1  0  0  0  0
 35 83  2  0  0  0  0
 36 73  1  0  0  0  0
 36 78  1  0  0  0  0
 36 84  2  0  0  0  0
 37 40  1  0  0  0  0
 38 47  1  0  0  0  0
 39 72  1  0  0  0  0
 40 42  1  0  0  0  0
 41 43  1  0  0  0  0
 41 44  1  0  0  0  0
 42 46  1  0  0  0  0
 43 48  1  0  0  0  0
 44 73  1  0  0  0  0
 45 48  1  0  0  0  0
 45 73  1  0  0  0  0
 46 76  1  0  0  0  0
 47 72  1  0  0  0  0
 48 71  1  0  0  0  0
 50 57  1  0  0  0  0
 51 60  1  0  0  0  0
 52 66  1  0  0  0  0
 53 67  1  0  0  0  0
 54 67  1  0  0  0  0
 55 67  1  0  0  0  0
 56 79  1  0  0  0  0
 58 61  1  0  0  0  0
 59 62  1  0  0  0  0
 60 63  1  0  0  0  0
 61 64  1  0  0  0  0
 62 78  1  0  0  0  0
 63 78  1  0  0  0  0
 64 86  1  0  0  0  0
 65 67  1  0  0  0  0
 65 77  1  0  0  0  0
 66 79  1  0  0  0  0
 68 71  1  0  0  0  0
M  CHG  1  79   1
M  ISO  4  36 100  64 101  78 100  86 101
M  END
> <Batch ID>
0060

> <Smiles>
CCC[100N:0](CCc1nc(CC)c(CC[101CH2:1][101O:1]c2ccc3c(c2)CN(C(=O)C(NC(=O)C(C)NC)C(C)(C)C)C(C(=O)NC2CCCc4ccccc42)C3)nc1C)[100C:0](=O)N1CCCC(n2nc(-c3ccc(Oc4ccc(F)cc4F)cc3)c(C(N)=O)c2N)C1

> <Shape>
0.316

> <Color>
0.106

> <Negative vol penalty>
0.000

$$$$

  -OEChem-04052317553D

 80 88  0     1  0  0  0  0  0999 V2000
  -23.4357  -23.7741   19.7361 C   0  0  0  0  0  0  0  0  0  0  0  0
  -24.5348  -22.9908   20.0734 C   0  0  0  0  0  0  0  0  0  0  0  0
  -25.4032  -28.6477   20.3508 C   0  0  0  0  0  0  0  0  0  0  0  0
  -26.8860  -28.3172   22.2294 C   0  0  0  0  0  0  0  0  0  0  0  0
  -22.1473  -23.3280   20.0277 C   0  0  0  0  0  0  0  0  0  0  0  0
  -24.3462  -21.7613   20.7037 C   0  0  0  0  0  0  0  0  0  0  0  0
  -27.2183  -18.0966   18.7124 C   0  0  0  0  0  0  0  0  0  0  0  0
  -24.3503  -28.9084   21.2277 C   0  0  0  0  0  0  0  0  0  0  0  0
  -25.8331  -28.5779   23.1063 C   0  0  0  0  0  0  0  0  0  0  0  0
  -28.5629  -18.0707   19.0801 C   0  0  0  0  0  0  0  0  0  0  0  0
  -22.2260  -27.1324   23.1662 C   0  0  0  0  0  0  0  0  0  0  0  0
  -20.9994  -26.5222   22.9044 C   0  0  0  0  0  0  0  0  0  0  0  0
  -28.0873  -16.3230   20.6734 C   0  0  0  0  0  0  0  0  0  0  0  0
  -19.9593  -28.6945   22.7143 C   0  0  0  0  0  0  0  0  0  0  0  0
  -31.3343  -19.8713   22.9387 C   0  0  0  0  0  0  0  0  0  0  0  0
  -26.6711  -28.3520   20.8516 C   0  0  0  0  0  0  0  0  0  0  0  0
  -28.6607  -29.0144   19.3989 C   0  0  0  0  0  0  0  0  0  0  0  0
  -21.9424  -22.0880   20.6532 C   0  0  0  0  0  0  0  0  0  0  0  0
  -26.2946  -17.2420   19.3312 C   0  0  0  0  0  0  0  0  0  0  0  0
  -23.0540  -21.2988   21.0052 C   0  0  0  0  0  0  0  0  0  0  0  0
  -26.7320  -16.3382   20.3099 C   0  0  0  0  0  0  0  0  0  0  0  0
  -24.5652  -28.8735   22.6055 C   0  0  0  0  0  0  0  0  0  0  0  0
  -28.9970  -17.1859   20.0628 C   0  0  0  0  0  0  0  0  0  0  0  0
  -22.3193  -28.5237   23.2022 C   0  0  0  0  0  0  0  0  0  0  0  0
  -19.8660  -27.3032   22.6784 C   0  0  0  0  0  0  0  0  0  0  0  0
  -21.1860  -29.3048   22.9762 C   0  0  0  0  0  0  0  0  0  0  0  0
  -27.7590  -28.0821   19.9463 C   0  0  0  0  0  0  0  0  0  0  0  0
  -29.4951  -28.2620   18.6090 C   0  0  0  0  0  0  0  0  0  0  0  0
  -32.2150  -21.0126   21.4291 C   0  0  0  0  0  0  0  0  0  0  0  0
  -28.7371  -30.4337   19.5877 C   0  0  0  0  0  0  0  0  0  0  0  0
  -23.6915  -17.6606   21.1066 C   0  0  0  0  0  0  0  0  0  0  0  0
  -23.4519  -14.4384   20.8200 C   0  0  0  0  0  0  0  0  0  0  0  0
  -25.0121  -11.4559   20.2567 C   0  0  0  0  0  0  0  0  0  0  0  0
  -31.0990  -22.4941   18.7076 C   0  0  0  0  0  0  0  0  0  0  0  0
  -20.5334  -21.6694   20.9910 C   0  0  0  0  0  0  0  0  0  0  0  0
  -24.8525  -17.2636   18.9043 C   0  0  0  0  0  0  0  0  0  0  0  0
  -25.7840  -15.3859   20.9903 C   0  0  0  0  0  0  0  0  0  0  0  0
  -20.4018  -20.1851   21.3224 C   0  0  0  0  0  0  0  0  0  0  0  0
  -29.5762  -24.2469   16.0084 C   0  0  0  0  0  0  0  0  0  0  0  0
  -21.5005  -19.7545   22.2889 C   0  0  0  0  0  0  0  0  0  0  0  0
  -29.0191  -25.5127   16.6622 C   0  0  0  0  0  0  0  0  0  0  0  0
  -29.4591  -23.0363   16.9319 C   0  0  0  0  0  0  0  0  0  0  0  0
  -29.4918  -24.4856   18.9250 C   0  0  0  0  0  0  0  0  0  0  0  0
  -22.8890  -19.9481   21.6674 C   0  0  1  0  0  0  0  0  0  0  0  0
  -23.9070  -16.7080   19.9648 C   0  0  1  0  0  0  0  0  0  0  0  0
  -29.6389  -25.7445   18.0534 C   0  0  2  0  0  0  0  0  0  0  0  0
  -33.6539  -23.0778   21.2672 C   0  0  0  0  0  0  0  0  0  0  0  0
  -24.5607   -8.9910   20.1223 C   0  0  0  0  0  0  0  0  0  0  0  0
  -23.2847  -14.3056   23.8638 C   0  0  0  0  0  0  0  0  0  0  0  0
  -23.7914  -11.8583   23.7152 C   0  0  0  0  0  0  0  0  0  0  0  0
  -21.7194  -12.7671   22.6648 C   0  0  0  0  0  0  0  0  0  0  0  0
  -25.8980  -11.3297   17.4356 C   0  0  0  0  0  0  0  0  0  0  0  0
  -31.9212  -17.4252   22.2020 C   0  0  0  0  0  0  0  0  0  0  0  0
  -30.6042  -16.7893   21.7703 C   0  0  0  0  0  0  0  0  0  1  0  0
  -32.6949  -22.0868   20.5641 C   0  0  2  0  0  0  0  0  0  0  0  0
  -23.9625  -13.2544   21.6051 C   0  0  1  0  0  0  0  0  0  0  0  0
  -24.6642  -10.2936   19.3443 C   0  0  2  0  0  0  0  0  0  0  0  0
  -23.2073  -13.0655   22.9510 C   0  0  0  0  0  0  0  0  0  0  0  0
  -31.5189  -21.1617   22.5320 N   0  0  0  0  0  0  0  0  0  0  0  0
  -27.9980  -26.8329   19.5385 N   0  0  0  0  0  0  0  0  0  0  0  0
  -32.4297  -19.6895   21.1987 N   0  0  0  0  0  0  0  0  0  0  0  0
  -31.8726  -18.9331   22.1567 N   0  0  0  0  0  0  0  0  0  0  0  0
  -29.0593  -26.9750   18.7264 N   0  0  0  0  0  0  0  0  0  0  0  0
  -24.3829  -15.4495   20.5428 N   0  0  0  0  0  0  0  0  0  0  0  0
  -30.0673  -23.3212   18.2338 N   0  0  0  0  0  0  0  0  0  0  0  0
  -30.5518  -28.5824   17.8323 N   0  0  0  0  0  0  0  0  0  0  0  0
  -27.8019  -31.0466   20.4327 N   0  0  0  0  0  0  0  0  0  0  0  0
  -23.1749  -18.8850   20.7279 N   0  0  0  0  0  0  0  0  0  0  0  0
  -23.8833  -12.1057   20.7092 N   0  0  0  0  0  0  0  0  0  0  0  0
  -31.6245  -22.8380   19.9471 N   0  0  0  0  0  0  0  0  0  0  0  0
  -25.7069  -10.1310   18.2920 N   0  3  0  0  0  0  0  0  0  0  0  0
  -29.5987  -31.1396   19.0109 O   0  0  0  0  0  0  0  0  0  0  0  0
  -23.9717  -17.3102   22.2470 O   0  0  0  0  0  0  0  0  0  0  0  0
  -22.2724  -14.4619   20.4597 O   0  0  0  0  0  0  0  0  0  0  0  0
  -26.1694  -11.7550   20.5426 O   0  0  0  0  0  0  0  0  0  0  0  0
  -31.5243  -21.5244   18.0706 O   0  0  0  0  0  0  0  0  0  0  0  0
  -23.5380  -29.1280   23.4615 O   0  0  0  0  0  0  0  0  0  0  0  0
  -30.3088  -17.1590   20.4241 O   0  0  0  0  0  0  0  0  0  1  0  0
  -18.6884  -26.7171   22.4255 F   0  0  0  0  0  0  0  0  0  0  0  0
  -21.2696  -30.6418   23.0082 F   0  0  0  0  0  0  0  0  0  0  0  0
  1  2  1  0  0  0  0
  1  5  2  0  0  0  0
  2  6  2  0  0  0  0
  3  8  2  0  0  0  0
  3 16  1  0  0  0  0
  4  9  1  0  0  0  0
  4 16  2  0  0  0  0
  5 18  1  0  0  0  0
  6 20  1  0  0  0  0
  7 10  2  0  0  0  0
  7 19  1  0  0  0  0
  8 22  1  0  0  0  0
  9 22  2  0  0  0  0
 10 23  1  0  0  0  0
 11 12  2  0  0  0  0
 11 24  1  0  0  0  0
 12 25  1  0  0  0  0
 13 21  1  0  0  0  0
 13 23  2  0  0  0  0
 14 25  2  0  0  0  0
 14 26  1  0  0  0  0
 15 59  2  0  0  0  0
 15 62  1  0  0  0  0
 16 27  1  0  0  0  0
 17 27  1  0  0  0  0
 17 28  2  0  0  0  0
 17 30  1  0  0  0  0
 18 20  2  0  0  0  0
 18 35  1  0  0  0  0
 19 21  2  0  0  0  0
 19 36  1  0  0  0  0
 20 44  1  0  0  0  0
 21 37  1  0  0  0  0
 22 77  1  0  0  0  0
 23 78  1  0  0  0  0
 24 26  2  0  0  0  0
 24 77  1  0  0  0  0
 25 79  1  0  0  0  0
 26 80  1  0  0  0  0
 27 60  2  0  0  0  0
 28 63  1  0  0  0  0
 28 66  1  0  0  0  0
 29 55  1  0  0  0  0
 29 59  1  0  0  0  0
 29 61  2  0  0  0  0
 30 67  1  0  0  0  0
 30 72  2  0  0  0  0
 31 45  1  0  0  0  0
 31 68  1  0  0  0  0
 31 73  2  0  0  0  0
 32 56  1  0  0  0  0
 32 64  1  0  0  0  0
 32 74  2  0  0  0  0
 33 57  1  0  0  0  0
 33 69  1  0  0  0  0
 33 75  2  0  0  0  0
 34 65  1  0  0  0  0
 34 70  1  0  0  0  0
 34 76  2  0  0  0  0
 35 38  1  0  0  0  0
 36 45  1  0  0  0  0
 37 64  1  0  0  0  0
 38 40  1  0  0  0  0
 39 41  1  0  0  0  0
 39 42  1  0  0  0  0
 40 44  1  0  0  0  0
 41 46  1  0  0  0  0
 42 65  1  0  0  0  0
 43 46  1  0  0  0  0
 43 65  1  0  0  0  0
 44 68  1  0  0  0  0
 45 64  1  0  0  0  0
 46 63  1  0  0  0  0
 47 55  1  0  0  0  0
 48 57  1  0  0  0  0
 49 58  1  0  0  0  0
 50 58  1  0  0  0  0
 51 58  1  0  0  0  0
 52 71  1  0  0  0  0
 53 54  1  0  0  0  0
 53 62  1  0  0  0  0
 54 78  1  0  0  0  0
 55 70  1  0  0  0  0
 56 58  1  0  0  0  0
 56 69  1  0  0  0  0
 57 71  1  0  0  0  0
 60 63  1  0  0  0  0
 61 62  1  0  0  0  0
M  CHG  1  71   1
M  ISO  4  34 100  54 101  70 100  78 101
M  END
> <Batch ID>
0060

> <Smiles>
CNC(C)C(=O)NC(C(=O)N1Cc2cc([101O:1][101CH2:1]Cn3cnc(C(C)[100NH:0][100C:0](=O)N4CCCC(n5nc(-c6ccc(Oc7ccc(F)cc7F)cc6)c(C(N)=O)c5N)C4)n3)ccc2CC1C(=O)NC1CCCc2ccccc21)C(C)(C)C

> <Shape>
0.212

> <Color>
0.080

> <Negative vol penalty>
0.000

$$$$

  -OEChem-04052317553D

 83 91  0     1  0  0  0  0  0999 V2000
  -17.5333  -32.4612   21.7882 C   0  0  0  0  0  0  0  0  0  0  0  0
  -18.7044  -32.4317   21.0379 C   0  0  0  0  0  0  0  0  0  0  0  0
  -25.8767  -13.1098   21.2286 C   0  0  0  0  0  0  0  0  0  0  0  0
  -24.6220  -14.0798   19.4059 C   0  0  0  0  0  0  0  0  0  0  0  0
  -17.4891  -31.8371   23.0341 C   0  0  0  0  0  0  0  0  0  0  0  0
  -19.8325  -31.7788   21.5336 C   0  0  0  0  0  0  0  0  0  0  0  0
  -25.5190  -28.0145   19.3406 C   0  0  0  0  0  0  0  0  0  0  0  0
  -24.8268  -12.2272   21.4817 C   0  0  0  0  0  0  0  0  0  0  0  0
  -23.5720  -13.1971   19.6591 C   0  0  0  0  0  0  0  0  0  0  0  0
  -26.9074  -27.9896   19.4651 C   0  0  0  0  0  0  0  0  0  0  0  0
  -22.6244   -9.4773   22.3779 C   0  0  0  0  0  0  0  0  0  0  0  0
  -22.9431   -8.1385   22.6050 C   0  0  0  0  0  0  0  0  0  0  0  0
  -26.6905  -26.8782   21.5952 C   0  0  0  0  0  0  0  0  0  0  0  0
  -23.9455   -8.0050   20.4108 C   0  0  0  0  0  0  0  0  0  0  0  0
  -30.4921  -23.2931   18.5410 C   0  0  0  0  0  0  0  0  0  0  0  0
  -25.7743  -14.0362   20.1907 C   0  0  0  0  0  0  0  0  0  0  0  0
  -27.9523  -14.7441   19.0669 C   0  0  0  0  0  0  0  0  0  0  0  0
  -18.6142  -31.1680   23.5412 C   0  0  0  0  0  0  0  0  0  0  0  0
  -24.7043  -27.4802   20.3492 C   0  0  0  0  0  0  0  0  0  0  0  0
  -19.8036  -31.1463   22.7882 C   0  0  0  0  0  0  0  0  0  0  0  0
  -25.2921  -26.8952   21.4799 C   0  0  0  0  0  0  0  0  0  0  0  0
  -23.6744  -12.2708   20.6970 C   0  0  0  0  0  0  0  0  0  0  0  0
  -27.4933  -27.4241   20.5938 C   0  0  0  0  0  0  0  0  0  0  0  0
  -22.9662  -10.0800   21.1672 C   0  0  0  0  0  0  0  0  0  0  0  0
  -23.6037   -7.4023   21.6215 C   0  0  0  0  0  0  0  0  0  0  0  0
  -23.6267   -9.3438   20.1837 C   0  0  0  0  0  0  0  0  0  0  0  0
  -26.8584  -14.9486   19.9291 C   0  0  0  0  0  0  0  0  0  0  0  0
  -28.6914  -15.8972   19.1706 C   0  0  0  0  0  0  0  0  0  0  0  0
  -28.4382  -23.2816   18.1688 C   0  0  0  0  0  0  0  0  0  0  0  0
  -28.2717  -13.6131   18.2457 C   0  0  0  0  0  0  0  0  0  0  0  0
  -22.4915  -28.6575   22.3040 C   0  0  0  0  0  0  0  0  0  0  0  0
  -22.1145  -25.5414   23.1227 C   0  0  0  0  0  0  0  0  0  0  0  0
  -23.4597  -22.4102   23.3032 C   0  0  0  0  0  0  0  0  0  0  0  0
  -27.2864  -21.5192   20.6772 C   0  0  0  0  0  0  0  0  0  0  0  0
  -18.5328  -30.5484   24.9138 C   0  0  0  0  0  0  0  0  0  0  0  0
  -23.2089  -27.4908   20.1874 C   0  0  0  0  0  0  0  0  0  0  0  0
  -24.4624  -26.2900   22.5815 C   0  0  0  0  0  0  0  0  0  0  0  0
  -19.6573  -29.5572   25.2023 C   0  0  0  0  0  0  0  0  0  0  0  0
  -29.7116  -19.4281   22.2337 C   0  0  0  0  0  0  0  0  0  0  0  0
  -21.0037  -30.1416   24.7872 C   0  0  0  0  0  0  0  0  0  0  0  0
  -29.3540  -18.0245   21.7417 C   0  0  0  0  0  0  0  0  0  0  0  0
  -28.4650  -20.2785   22.4682 C   0  0  0  0  0  0  0  0  0  0  0  0
  -27.1884  -18.9570   20.8258 C   0  0  0  0  0  0  0  0  0  0  0  0
  -21.0405  -30.4270   23.2810 C   0  0  1  0  0  0  0  0  0  0  0  0
  -22.4636  -27.3798   21.5139 C   0  0  1  0  0  0  0  0  0  0  0  0
  -28.4151  -18.0802   20.5217 C   0  0  2  0  0  0  0  0  0  0  0  0
  -23.5493  -19.9336   23.6983 C   0  0  0  0  0  0  0  0  0  0  0  0
  -26.9535  -21.8712   16.5867 C   0  0  0  0  0  0  0  0  0  0  0  0
  -26.4691  -24.2741   16.9707 C   0  0  0  0  0  0  0  0  0  0  0  0
  -22.5158  -26.3857   26.0272 C   0  0  0  0  0  0  0  0  0  0  0  0
  -22.9187  -23.9814   26.5975 C   0  0  0  0  0  0  0  0  0  0  0  0
  -20.7125  -24.6894   25.6735 C   0  0  0  0  0  0  0  0  0  0  0  0
  -22.6037  -21.8199   20.5323 C   0  0  0  0  0  0  0  0  0  0  0  0
  -30.9191  -26.6035   19.8044 C   0  0  0  0  0  0  0  0  0  0  0  0
  -30.7208  -25.1838   20.3399 C   0  0  0  0  0  0  0  0  0  0  0  0
  -26.0651  -22.6182   18.8171 C   0  0  0  0  0  0  0  0  0  0  0  0
  -29.6098  -27.3277   19.5135 C   0  0  0  0  0  0  0  0  0  1  0  0
  -22.7303  -24.6243   24.1516 C   0  0  1  0  0  0  0  0  0  0  0  0
  -22.9156  -21.0547   22.8894 C   0  0  2  0  0  0  0  0  0  0  0  0
  -27.0905  -23.0104   17.6762 C   0  0  0  0  0  0  0  0  0  0  0  0
  -22.2352  -24.9332   25.5928 C   0  0  0  0  0  0  0  0  0  0  0  0
  -29.5364  -22.6694   17.7911 N   0  0  0  0  0  0  0  0  0  0  0  0
  -26.8953  -16.1379   20.5359 N   0  0  0  0  0  0  0  0  0  0  0  0
  -28.7378  -24.2251   19.1015 N   0  0  0  0  0  0  0  0  0  0  0  0
  -30.0543  -24.2527   19.3589 N   0  0  0  0  0  0  0  0  0  0  0  0
  -28.0215  -16.6911   20.0544 N   0  0  0  0  0  0  0  0  0  0  0  0
  -23.0045  -26.3303   22.3800 N   0  0  0  0  0  0  0  0  0  0  0  0
  -27.6181  -20.2912   21.2730 N   0  0  0  0  0  0  0  0  0  0  0  0
  -29.8425  -16.2992   18.5912 N   0  0  0  0  0  0  0  0  0  0  0  0
  -27.4044  -12.5122   18.2579 N   0  0  0  0  0  0  0  0  0  0  0  0
  -21.2430  -29.2010   22.5391 N   0  0  0  0  0  0  0  0  0  0  0  0
  -22.4536  -23.2638   23.7035 N   0  0  0  0  0  0  0  0  0  0  0  0
  -26.4852  -21.4413   19.5446 N   0  0  0  0  0  0  0  0  0  0  0  0
  -23.1894  -20.8054   21.4458 N   0  3  0  0  0  0  0  0  0  0  0  0
  -29.3046  -13.5730   17.5350 O   0  0  0  0  0  0  0  0  0  0  0  0
  -23.5661  -29.1155   22.6744 O   0  0  0  0  0  0  0  0  0  0  0  0
  -20.8896  -25.5521   22.9780 O   0  0  0  0  0  0  0  0  0  0  0  0
  -24.6578  -22.6830   23.2776 O   0  0  0  0  0  0  0  0  0  0  0  0
  -27.6799  -22.6043   21.1185 O   0  0  0  0  0  0  0  0  0  0  0  0
  -22.6497  -11.4095   20.9435 O   0  0  0  0  0  0  0  0  0  0  0  0
  -28.8482  -27.3991   20.7182 O   0  0  0  0  0  0  0  0  0  1  0  0
  -23.9110   -6.1171   21.8403 F   0  0  0  0  0  0  0  0  0  0  0  0
  -23.9587   -9.9176   19.0190 F   0  0  0  0  0  0  0  0  0  0  0  0
  1  2  1  0  0  0  0
  1  5  2  0  0  0  0
  2  6  2  0  0  0  0
  3  8  2  0  0  0  0
  3 16  1  0  0  0  0
  4  9  1  0  0  0  0
  4 16  2  0  0  0  0
  5 18  1  0  0  0  0
  6 20  1  0  0  0  0
  7 10  2  0  0  0  0
  7 19  1  0  0  0  0
  8 22  1  0  0  0  0
  9 22  2  0  0  0  0
 10 23  1  0  0  0  0
 11 12  2  0  0  0  0
 11 24  1  0  0  0  0
 12 25  1  0  0  0  0
 13 21  1  0  0  0  0
 13 23  2  0  0  0  0
 14 25  2  0  0  0  0
 14 26  1  0  0  0  0
 15 62  2  0  0  0  0
 15 65  1  0  0  0  0
 16 27  1  0  0  0  0
 17 27  1  0  0  0  0
 17 28  2  0  0  0  0
 17 30  1  0  0  0  0
 18 20  2  0  0  0  0
 18 35  1  0  0  0  0
 19 21  2  0  0  0  0
 19 36  1  0  0  0  0
 20 44  1  0  0  0  0
 21 37  1  0  0  0  0
 22 80  1  0  0  0  0
 23 81  1  0  0  0  0
 24 26  2  0  0  0  0
 24 80  1  0  0  0  0
 25 82  1  0  0  0  0
 26 83  1  0  0  0  0
 27 63  2  0  0  0  0
 28 66  1  0  0  0  0
 28 69  1  0  0  0  0
 29 60  1  0  0  0  0
 29 62  1  0  0  0  0
 29 64  2  0  0  0  0
 30 70  1  0  0  0  0
 30 75  2  0  0  0  0
 31 45  1  0  0  0  0
 31 71  1  0  0  0  0
 31 76  2  0  0  0  0
 32 58  1  0  0  0  0
 32 67  1  0  0  0  0
 32 77  2  0  0  0  0
 33 59  1  0  0  0  0
 33 72  1  0  0  0  0
 33 78  2  0  0  0  0
 34 68  1  0  0  0  0
 34 73  1  0  0  0  0
 34 79  2  0  0  0  0
 35 38  1  0  0  0  0
 36 45  1  0  0  0  0
 37 67  1  0  0  0  0
 38 40  1  0  0  0  0
 39 41  1  0  0  0  0
 39 42  1  0  0  0  0
 40 44  1  0  0  0  0
 41 46  1  0  0  0  0
 42 68  1  0  0  0  0
 43 46  1  0  0  0  0
 43 68  1  0  0  0  0
 44 71  1  0  0  0  0
 45 67  1  0  0  0  0
 46 66  1  0  0  0  0
 47 59  1  0  0  0  0
 48 60  1  0  0  0  0
 49 60  1  0  0  0  0
 50 61  1  0  0  0  0
 51 61  1  0  0  0  0
 52 61  1  0  0  0  0
 53 74  1  0  0  0  0
 54 55  1  0  0  0  0
 54 57  1  0  0  0  0
 55 65  1  0  0  0  0
 56 60  1  0  0  0  0
 56 73  1  0  0  0  0
 57 81  1  0  0  0  0
 58 61  1  0  0  0  0
 58 72  1  0  0  0  0
 59 74  1  0  0  0  0
 63 66  1  0  0  0  0
 64 65  1  0  0  0  0
M  CHG  1  74   1
M  ISO  4  34 100  57 101  73 100  81 101
M  END
> <Batch ID>
0060

> <Smiles>
CNC(C)C(=O)NC(C(=O)N1Cc2cc([101O:1][101CH2:1]CCn3cnc(C(C)(C)C[100NH:0][100C:0](=O)N4CCCC(n5nc(-c6ccc(Oc7ccc(F)cc7F)cc6)c(C(N)=O)c5N)C4)n3)ccc2CC1C(=O)NC1CCCc2ccccc21)C(C)(C)C

> <Shape>
0.245

> <Color>
0.078

> <Negative vol penalty>
0.000

$$$$

  -OEChem-04052317553D

 83 91  0     1  0  0  0  0  0999 V2000
  -28.1399  -34.2727   25.0039 C   0  0  0  0  0  0  0  0  0  0  0  0
  -28.6788  -33.0675   24.5651 C   0  0  0  0  0  0  0  0  0  0  0  0
  -24.1659   -8.9463   22.0004 C   0  0  0  0  0  0  0  0  0  0  0  0
  -23.3860  -11.0802   22.8222 C   0  0  0  0  0  0  0  0  0  0  0  0
  -26.7575  -34.4182   25.1129 C   0  0  0  0  0  0  0  0  0  0  0  0
  -27.8356  -32.0068   24.2361 C   0  0  0  0  0  0  0  0  0  0  0  0
  -28.7041  -27.8442   19.8287 C   0  0  0  0  0  0  0  0  0  0  0  0
  -23.6005   -8.3134   23.1073 C   0  0  0  0  0  0  0  0  0  0  0  0
  -22.8205  -10.4472   23.9291 C   0  0  0  0  0  0  0  0  0  0  0  0
  -29.1981  -26.5407   19.8538 C   0  0  0  0  0  0  0  0  0  0  0  0
  -20.8600   -9.3505   26.7877 C   0  0  0  0  0  0  0  0  0  0  0  0
  -19.5689   -9.7245   27.1602 C   0  0  0  0  0  0  0  0  0  0  0  0
  -26.9416  -25.6940   19.9571 C   0  0  0  0  0  0  0  0  0  0  0  0
  -18.7446   -9.0332   24.9968 C   0  0  0  0  0  0  0  0  0  0  0  0
  -24.0587  -10.3298   21.8579 C   0  0  0  0  0  0  0  0  0  0  0  0
  -24.0284  -11.2377   19.4741 C   0  0  0  0  0  0  0  0  0  0  0  0
  -25.8966  -33.3619   24.7758 C   0  0  0  0  0  0  0  0  0  0  0  0
  -27.3232  -28.0831   19.8788 C   0  0  0  0  0  0  0  0  0  0  0  0
  -26.4405  -32.1379   24.3419 C   0  0  0  0  0  0  0  0  0  0  0  0
  -26.4326  -27.0014   19.9300 C   0  0  0  0  0  0  0  0  0  0  0  0
  -22.9278   -9.0638   24.0717 C   0  0  0  0  0  0  0  0  0  0  0  0
  -28.3170  -25.4654   19.9209 C   0  0  0  0  0  0  0  0  0  0  0  0
  -21.0934   -8.8180   25.5198 C   0  0  0  0  0  0  0  0  0  0  0  0
  -18.5111   -9.5658   26.2648 C   0  0  0  0  0  0  0  0  0  0  0  0
  -20.0358   -8.6593   24.6244 C   0  0  0  0  0  0  0  0  0  0  0  0
  -24.6430  -10.9843   20.7149 C   0  0  0  0  0  0  0  0  0  0  0  0
  -24.9949  -11.8761   18.7361 C   0  0  0  0  0  0  0  0  0  0  0  0
  -28.9180  -19.6849   19.9691 C   0  0  0  0  0  0  0  0  0  0  0  0
  -28.5576  -21.8228   20.0630 C   0  0  0  0  0  0  0  0  0  0  0  0
  -22.7022  -10.9241   19.0284 C   0  0  0  0  0  0  0  0  0  0  0  0
  -25.3771  -29.5771   21.8997 C   0  0  0  0  0  0  0  0  0  0  0  0
  -23.1611  -28.9573   19.6133 C   0  0  0  0  0  0  0  0  0  0  0  0
  -22.1818  -27.0258   16.9757 C   0  0  0  0  0  0  0  0  0  0  0  0
  -29.7829  -15.1406   20.2427 C   0  0  0  0  0  0  0  0  0  0  0  0
  -24.4110  -33.5508   24.9549 C   0  0  0  0  0  0  0  0  0  0  0  0
  -26.8054  -29.4943   19.8239 C   0  0  0  0  0  0  0  0  0  0  0  0
  -24.9405  -27.2036   19.9652 C   0  0  0  0  0  0  0  0  0  0  0  0
  -23.5719  -32.5023   24.2291 C   0  0  0  0  0  0  0  0  0  0  0  0
  -29.7452  -12.1857   18.2568 C   0  0  0  0  0  0  0  0  0  0  0  0
  -24.1260  -31.1043   24.4851 C   0  0  0  0  0  0  0  0  0  0  0  0
  -28.3779  -11.5656   18.5496 C   0  0  0  0  0  0  0  0  0  0  0  0
  -30.3430  -12.8455   19.4974 C   0  0  0  0  0  0  0  0  0  0  0  0
  -28.0998  -13.2117   20.4501 C   0  0  0  0  0  0  0  0  0  0  0  0
  -25.5577  -30.9722   23.9520 C   0  0  1  0  0  0  0  0  0  0  0  0
  -25.3995  -29.6375   20.3986 C   0  0  1  0  0  0  0  0  0  0  0  0
  -27.4318  -12.5829   19.2153 C   0  0  2  0  0  0  0  0  0  0  0  0
  -20.3053  -26.7377   15.3345 C   0  0  0  0  0  0  0  0  0  0  0  0
  -21.4584  -27.6651   21.7906 C   0  0  0  0  0  0  0  0  0  0  0  0
  -20.0972  -26.5852   19.9880 C   0  0  0  0  0  0  0  0  0  0  0  0
  -20.1810  -29.0721   20.1648 C   0  0  0  0  0  0  0  0  0  0  0  0
  -25.9116  -19.5125   20.6127 C   0  0  0  0  0  0  0  0  0  0  0  0
  -26.4282  -19.7203   18.1490 C   0  0  0  0  0  0  0  0  0  0  0  0
  -25.7091  -21.7038   19.4596 C   0  0  0  0  0  0  0  0  0  0  0  0
  -23.9654  -27.5369   14.6699 C   0  0  0  0  0  0  0  0  0  0  0  0
  -28.6722  -18.2416   19.8015 C   0  0  0  0  0  0  0  0  0  0  0  0
  -27.8371  -23.1381   20.0154 C   0  0  0  0  0  0  0  0  0  1  0  0
  -29.0701  -17.3871   21.0200 C   0  0  0  0  0  0  0  0  0  0  0  0
  -22.2109  -27.8200   19.3257 C   0  0  1  0  0  0  0  0  0  0  0  0
  -21.6522  -27.3918   15.6009 C   0  0  2  0  0  0  0  0  0  0  0  0
  -21.0150  -27.7815   20.3186 C   0  0  0  0  0  0  0  0  0  0  0  0
  -26.5523  -20.4064   19.5277 C   0  0  0  0  0  0  0  0  0  0  0  0
  -25.9027  -11.4255   20.7660 N   0  0  0  0  0  0  0  0  0  0  0  0
  -30.0611  -20.2657   20.2562 N   0  0  0  0  0  0  0  0  0  0  0  0
  -29.8318  -21.6259   20.3159 N   0  0  0  0  0  0  0  0  0  0  0  0
  -26.0874  -11.9626   19.5480 N   0  0  0  0  0  0  0  0  0  0  0  0
  -27.9440  -20.6278   19.8387 N   0  0  0  0  0  0  0  0  0  0  0  0
  -24.4833  -28.6022   19.9158 N   0  0  0  0  0  0  0  0  0  0  0  0
  -29.3965  -13.8000   20.0795 N   0  0  0  0  0  0  0  0  0  0  0  0
  -25.0085  -12.3662   17.4783 N   0  0  0  0  0  0  0  0  0  0  0  0
  -21.8378  -10.2663   19.9140 N   0  0  0  0  0  0  0  0  0  0  0  0
  -25.5482  -30.8026   22.5148 N   0  0  0  0  0  0  0  0  0  0  0  0
  -21.8216  -27.9572   17.9264 N   0  0  0  0  0  0  0  0  0  0  0  0
  -28.8237  -15.9800   20.7959 N   0  0  0  0  0  0  0  0  0  0  0  0
  -22.6060  -26.9510   14.5441 N   0  3  0  0  0  0  0  0  0  0  0  0
  -22.3011  -11.2039   17.8732 O   0  0  0  0  0  0  0  0  0  0  0  0
  -25.2150  -28.4986   22.4586 O   0  0  0  0  0  0  0  0  0  0  0  0
  -22.7472  -30.1183   19.5640 O   0  0  0  0  0  0  0  0  0  0  0  0
  -22.8452  -26.0128   17.1859 O   0  0  0  0  0  0  0  0  0  0  0  0
  -30.8981  -15.5595   19.9144 O   0  0  0  0  0  0  0  0  0  0  0  0
  -22.3757   -8.4465   25.1518 O   0  0  0  0  0  0  0  0  0  0  0  0
  -28.7965  -24.1922   19.9462 O   0  0  0  0  0  0  0  0  0  1  0  0
  -17.2711   -9.9236   26.6231 F   0  0  0  0  0  0  0  0  0  0  0  0
  -20.2537   -8.1472   23.4054 F   0  0  0  0  0  0  0  0  0  0  0  0
  1  2  1  0  0  0  0
  1  5  2  0  0  0  0
  2  6  2  0  0  0  0
  3  8  2  0  0  0  0
  3 15  1  0  0  0  0
  4  9  1  0  0  0  0
  4 15  2  0  0  0  0
  5 17  1  0  0  0  0
  6 19  1  0  0  0  0
  7 10  2  0  0  0  0
  7 18  1  0  0  0  0
  8 21  1  0  0  0  0
  9 21  2  0  0  0  0
 10 22  1  0  0  0  0
 11 12  2  0  0  0  0
 11 23  1  0  0  0  0
 12 24  1  0  0  0  0
 13 20  1  0  0  0  0
 13 22  2  0  0  0  0
 14 24  2  0  0  0  0
 14 25  1  0  0  0  0
 15 26  1  0  0  0  0
 16 26  1  0  0  0  0
 16 27  2  0  0  0  0
 16 30  1  0  0  0  0
 17 19  2  0  0  0  0
 17 35  1  0  0  0  0
 18 20  2  0  0  0  0
 18 36  1  0  0  0  0
 19 44  1  0  0  0  0
 20 37  1  0  0  0  0
 21 80  1  0  0  0  0
 22 81  1  0  0  0  0
 23 25  2  0  0  0  0
 23 80  1  0  0  0  0
 24 82  1  0  0  0  0
 25 83  1  0  0  0  0
 26 62  2  0  0  0  0
 27 65  1  0  0  0  0
 27 69  1  0  0  0  0
 28 55  1  0  0  0  0
 28 63  2  0  0  0  0
 28 66  1  0  0  0  0
 29 56  1  0  0  0  0
 29 64  2  0  0  0  0
 29 66  1  0  0  0  0
 30 70  1  0  0  0  0
 30 75  2  0  0  0  0
 31 45  1  0  0  0  0
 31 71  1  0  0  0  0
 31 76  2  0  0  0  0
 32 58  1  0  0  0  0
 32 67  1  0  0  0  0
 32 77  2  0  0  0  0
 33 59  1  0  0  0  0
 33 72  1  0  0  0  0
 33 78  2  0  0  0  0
 34 68  1  0  0  0  0
 34 73  1  0  0  0  0
 34 79  2  0  0  0  0
 35 38  1  0  0  0  0
 36 45  1  0  0  0  0
 37 67  1  0  0  0  0
 38 40  1  0  0  0  0
 39 41  1  0  0  0  0
 39 42  1  0  0  0  0
 40 44  1  0  0  0  0
 41 46  1  0  0  0  0
 42 68  1  0  0  0  0
 43 46  1  0  0  0  0
 43 68  1  0  0  0  0
 44 71  1  0  0  0  0
 45 67  1  0  0  0  0
 46 65  1  0  0  0  0
 47 59  1  0  0  0  0
 48 60  1  0  0  0  0
 49 60  1  0  0  0  0
 50 60  1  0  0  0  0
 51 61  1  0  0  0  0
 52 61  1  0  0  0  0
 53 61  1  0  0  0  0
 54 74  1  0  0  0  0
 55 57  1  0  0  0  0
 56 81  1  0  0  0  0
 57 73  1  0  0  0  0
 58 60  1  0  0  0  0
 58 72  1  0  0  0  0
 59 74  1  0  0  0  0
 61 66  1  0  0  0  0
 62 65  1  0  0  0  0
 63 64  1  0  0  0  0
M  CHG  1  74   1
M  ISO  4  34 100  56 101  73 100  81 101
M  END
> <Batch ID>
0060

> <Smiles>
CNC(C)C(=O)NC(C(=O)N1Cc2cc([101O:1][101CH2:1]c3nnc(CC[100NH:0][100C:0](=O)N4CCCC(n5nc(-c6ccc(Oc7ccc(F)cc7F)cc6)c(C(N)=O)c5N)C4)n3C(C)(C)C)ccc2CC1C(=O)NC1CCCc2ccccc21)C(C)(C)C

> <Shape>
0.293

> <Color>
0.074

> <Negative vol penalty>
0.000

$$$$

  -OEChem-04052317553D

 80 88  0     1  0  0  0  0  0999 V2000
  -28.5475  -11.0680   20.7485 C   0  0  0  0  0  0  0  0  0  0  0  0
  -28.8193  -12.3117   20.1874 C   0  0  0  0  0  0  0  0  0  0  0  0
  -25.6875  -27.3593   21.0806 C   0  0  0  0  0  0  0  0  0  0  0  0
  -26.0529  -28.1604   18.8307 C   0  0  0  0  0  0  0  0  0  0  0  0
  -27.2319  -10.7070   21.0364 C   0  0  0  0  0  0  0  0  0  0  0  0
  -27.7756  -13.1946   19.9128 C   0  0  0  0  0  0  0  0  0  0  0  0
  -28.8055  -17.9337   21.3707 C   0  0  0  0  0  0  0  0  0  0  0  0
  -24.6215  -28.2473   21.2236 C   0  0  0  0  0  0  0  0  0  0  0  0
  -24.9867  -29.0484   18.9737 C   0  0  0  0  0  0  0  0  0  0  0  0
  -29.6464  -18.6838   20.5498 C   0  0  0  0  0  0  0  0  0  0  0  0
  -21.3798  -28.4206   20.2778 C   0  0  0  0  0  0  0  0  0  0  0  0
  -20.2041  -27.9351   20.8502 C   0  0  0  0  0  0  0  0  0  0  0  0
  -32.1643  -20.9129   16.6415 C   0  0  0  0  0  0  0  0  0  0  0  0
  -27.7237  -19.7878   19.5993 C   0  0  0  0  0  0  0  0  0  0  0  0
  -20.3966  -29.5624   22.6257 C   0  0  0  0  0  0  0  0  0  0  0  0
  -32.9259  -21.9924   16.2659 C   0  0  0  0  0  0  0  0  0  0  0  0
  -26.4033  -27.3159   19.8841 C   0  0  0  0  0  0  0  0  0  0  0  0
  -27.4520  -25.0767   19.2563 C   0  0  0  0  0  0  0  0  0  0  0  0
  -26.1724  -11.5897   20.7741 C   0  0  0  0  0  0  0  0  0  0  0  0
  -27.4144  -18.0974   21.3042 C   0  0  0  0  0  0  0  0  0  0  0  0
  -26.4445  -12.8445   20.1962 C   0  0  0  0  0  0  0  0  0  0  0  0
  -26.8674  -19.0403   20.4222 C   0  0  0  0  0  0  0  0  0  0  0  0
  -24.2710  -29.0918   20.1702 C   0  0  0  0  0  0  0  0  0  0  0  0
  -29.1054  -19.6090   19.6619 C   0  0  0  0  0  0  0  0  0  0  0  0
  -22.0640  -29.4769   20.8794 C   0  0  0  0  0  0  0  0  0  0  0  0
  -19.7125  -28.5060   22.0241 C   0  0  0  0  0  0  0  0  0  0  0  0
  -21.5723  -30.0478   22.0532 C   0  0  0  0  0  0  0  0  0  0  0  0
  -27.5051  -26.3992   19.7359 C   0  0  0  0  0  0  0  0  0  0  0  0
  -32.0552  -21.0288   18.0402 C   0  0  0  0  0  0  0  0  0  0  0  0
  -28.7528  -24.6392   19.3108 C   0  0  0  0  0  0  0  0  0  0  0  0
  -26.3274  -24.3122   18.8019 C   0  0  0  0  0  0  0  0  0  0  0  0
  -24.9671  -16.2121   20.5558 C   0  0  0  0  0  0  0  0  0  0  0  0
  -23.2112  -18.7669   21.5109 C   0  0  0  0  0  0  0  0  0  0  0  0
  -23.0382  -22.1375   22.0168 C   0  0  0  0  0  0  0  0  0  0  0  0
  -34.0722  -27.1047   18.4691 C   0  0  0  0  0  0  0  0  0  0  0  0
  -24.7624  -11.1364   21.0587 C   0  0  0  0  0  0  0  0  0  0  0  0
  -26.5224  -17.2996   22.2154 C   0  0  0  0  0  0  0  0  0  0  0  0
  -25.3817  -19.2686   20.3267 C   0  0  0  0  0  0  0  0  0  0  0  0
  -23.7490  -12.2777   21.0839 C   0  0  0  0  0  0  0  0  0  0  0  0
  -32.8065  -26.0095   21.7706 C   0  0  0  0  0  0  0  0  0  0  0  0
  -23.9497  -13.1964   19.8829 C   0  0  0  0  0  0  0  0  0  0  0  0
  -31.2967  -25.9488   21.5451 C   0  0  0  0  0  0  0  0  0  0  0  0
  -33.4747  -27.0376   20.8628 C   0  0  0  0  0  0  0  0  0  0  0  0
  -31.6702  -26.7855   19.1912 C   0  0  0  0  0  0  0  0  0  0  0  0
  -25.3416  -13.8395   19.9067 C   0  0  1  0  0  0  0  0  0  0  0  0
  -25.0923  -17.1807   21.6977 C   0  0  1  0  0  0  0  0  0  0  0  0
  -30.9727  -25.7261   20.0576 C   0  0  2  0  0  0  0  0  0  0  0  0
  -21.4602  -23.9383   22.7678 C   0  0  0  0  0  0  0  0  0  0  0  0
  -21.7769  -18.6284   18.8214 C   0  0  0  0  0  0  0  0  0  0  0  0
  -20.9296  -20.9481   19.2325 C   0  0  0  0  0  0  0  0  0  0  0  0
  -20.2874  -19.0959   20.7751 C   0  0  0  0  0  0  0  0  0  0  0  0
  -34.9910  -26.5822   16.2414 C   0  0  0  0  0  0  0  0  0  0  0  0
  -24.7824  -22.8790   24.2899 C   0  0  0  0  0  0  0  0  0  0  0  0
  -31.3272  -20.1121   18.9788 C   0  0  0  0  0  0  0  0  0  1  0  0
  -33.9975  -23.8707   17.5316 C   0  0  0  0  0  0  0  0  0  0  0  0
  -33.2177  -25.1248   17.1453 C   0  0  0  0  0  0  0  0  0  0  0  0
  -22.6505  -19.9929   20.8316 C   0  0  1  0  0  0  0  0  0  0  0  0
  -22.5390  -22.9550   23.1945 C   0  0  2  0  0  0  0  0  0  0  0  0
  -21.4390  -19.6609   19.9153 C   0  0  0  0  0  0  0  0  0  0  0  0
  -28.7417  -26.7770   20.0707 N   0  0  0  0  0  0  0  0  0  0  0  0
  -32.6964  -22.0975   18.5206 N   0  0  0  0  0  0  0  0  0  0  0  0
  -33.2157  -22.6630   17.4176 N   0  0  0  0  0  0  0  0  0  0  0  0
  -29.4776  -25.6853   19.8011 N   0  0  0  0  0  0  0  0  0  0  0  0
  -24.5508  -18.4598   21.2339 N   0  0  0  0  0  0  0  0  0  0  0  0
  -33.1154  -26.8292   19.4597 N   0  0  0  0  0  0  0  0  0  0  0  0
  -29.3358  -23.4655   18.9869 N   0  0  0  0  0  0  0  0  0  0  0  0
  -25.0620  -24.9146   18.8117 N   0  0  0  0  0  0  0  0  0  0  0  0
  -25.3790  -14.9285   20.8592 N   0  0  0  0  0  0  0  0  0  0  0  0
  -22.3524  -20.9477   21.8936 N   0  0  0  0  0  0  0  0  0  0  0  0
  -34.0133  -26.3416   17.2931 N   0  0  0  0  0  0  0  0  0  0  0  0
  -23.6608  -23.7235   23.8043 N   0  3  0  0  0  0  0  0  0  0  0  0
  -26.4388  -23.1243   18.4146 O   0  0  0  0  0  0  0  0  0  0  0  0
  -24.5278  -16.6002   19.4797 O   0  0  0  0  0  0  0  0  0  0  0  0
  -22.4893  -18.1101   22.2653 O   0  0  0  0  0  0  0  0  0  0  0  0
  -23.9434  -22.5181   21.2777 O   0  0  0  0  0  0  0  0  0  0  0  0
  -34.9362  -27.9761   18.6307 O   0  0  0  0  0  0  0  0  0  0  0  0
  -23.2306  -29.9583   20.3094 O   0  0  0  0  0  0  0  0  0  0  0  0
  -29.9239  -20.3421   18.8591 O   0  0  0  0  0  0  0  0  0  1  0  0
  -18.5826  -28.0408   22.5729 F   0  0  0  0  0  0  0  0  0  0  0  0
  -22.2246  -31.0637   22.6351 F   0  0  0  0  0  0  0  0  0  0  0  0
  1  2  1  0  0  0  0
  1  5  2  0  0  0  0
  2  6  2  0  0  0  0
  3  8  2  0  0  0  0
  3 17  1  0  0  0  0
  4  9  1  0  0  0  0
  4 17  2  0  0  0  0
  5 19  1  0  0  0  0
  6 21  1  0  0  0  0
  7 10  2  0  0  0  0
  7 20  1  0  0  0  0
  8 23  1  0  0  0  0
  9 23  2  0  0  0  0
 10 24  1  0  0  0  0
 11 12  2  0  0  0  0
 11 25  1  0  0  0  0
 12 26  1  0  0  0  0
 13 16  2  0  0  0  0
 13 29  1  0  0  0  0
 14 22  1  0  0  0  0
 14 24  2  0  0  0  0
 15 26  2  0  0  0  0
 15 27  1  0  0  0  0
 16 62  1  0  0  0  0
 17 28  1  0  0  0  0
 18 28  1  0  0  0  0
 18 30  2  0  0  0  0
 18 31  1  0  0  0  0
 19 21  2  0  0  0  0
 19 36  1  0  0  0  0
 20 22  2  0  0  0  0
 20 37  1  0  0  0  0
 21 45  1  0  0  0  0
 22 38  1  0  0  0  0
 23 77  1  0  0  0  0
 24 78  1  0  0  0  0
 25 27  2  0  0  0  0
 25 77  1  0  0  0  0
 26 79  1  0  0  0  0
 27 80  1  0  0  0  0
 28 60  2  0  0  0  0
 29 54  1  0  0  0  0
 29 61  2  0  0  0  0
 30 63  1  0  0  0  0
 30 66  1  0  0  0  0
 31 67  1  0  0  0  0
 31 72  2  0  0  0  0
 32 46  1  0  0  0  0
 32 68  1  0  0  0  0
 32 73  2  0  0  0  0
 33 57  1  0  0  0  0
 33 64  1  0  0  0  0
 33 74  2  0  0  0  0
 34 58  1  0  0  0  0
 34 69  1  0  0  0  0
 34 75  2  0  0  0  0
 35 65  1  0  0  0  0
 35 70  1  0  0  0  0
 35 76  2  0  0  0  0
 36 39  1  0  0  0  0
 37 46  1  0  0  0  0
 38 64  1  0  0  0  0
 39 41  1  0  0  0  0
 40 42  1  0  0  0  0
 40 43  1  0  0  0  0
 41 45  1  0  0  0  0
 42 47  1  0  0  0  0
 43 65  1  0  0  0  0
 44 47  1  0  0  0  0
 44 65  1  0  0  0  0
 45 68  1  0  0  0  0
 46 64  1  0  0  0  0
 47 63  1  0  0  0  0
 48 58  1  0  0  0  0
 49 59  1  0  0  0  0
 50 59  1  0  0  0  0
 51 59  1  0  0  0  0
 52 70  1  0  0  0  0
 53 71  1  0  0  0  0
 54 78  1  0  0  0  0
 55 56  1  0  0  0  0
 55 62  1  0  0  0  0
 56 70  1  0  0  0  0
 57 59  1  0  0  0  0
 57 69  1  0  0  0  0
 58 71  1  0  0  0  0
 60 63  1  0  0  0  0
 61 62  1  0  0  0  0
M  CHG  1  71   1
M  ISO  4  35 100  54 101  70 100  78 101
M  END
> <Batch ID>
0060

> <Smiles>
CNC(C)C(=O)NC(C(=O)N1Cc2cc([101O:1][101CH2:1]c3ccn(CC[100N:0](C)[100C:0](=O)N4CCCC(n5nc(-c6ccc(Oc7ccc(F)cc7F)cc6)c(C(N)=O)c5N)C4)n3)ccc2CC1C(=O)NC1CCCc2ccccc21)C(C)(C)C

> <Shape>
0.206

> <Color>
0.083

> <Negative vol penalty>
0.000

$$$$

  -OEChem-04052317553D

 81 89  0     1  0  0  0  0  0999 V2000
  -29.2632  -34.3983   24.2145 C   0  0  0  0  0  0  0  0  0  0  0  0
  -29.8805  -33.3855   23.4874 C   0  0  0  0  0  0  0  0  0  0  0  0
  -23.2858  -10.1448   22.2710 C   0  0  0  0  0  0  0  0  0  0  0  0
  -23.9267   -9.5899   20.0086 C   0  0  0  0  0  0  0  0  0  0  0  0
  -28.0433  -34.1579   24.8454 C   0  0  0  0  0  0  0  0  0  0  0  0
  -29.2787  -32.1313   23.3918 C   0  0  0  0  0  0  0  0  0  0  0  0
  -28.5495  -26.6187   18.8756 C   0  0  0  0  0  0  0  0  0  0  0  0
  -22.4851   -9.0039   22.3240 C   0  0  0  0  0  0  0  0  0  0  0  0
  -23.1260   -8.4489   20.0617 C   0  0  0  0  0  0  0  0  0  0  0  0
  -28.7097  -25.2345   18.8309 C   0  0  0  0  0  0  0  0  0  0  0  0
  -20.5547   -6.0455   23.1823 C   0  0  0  0  0  0  0  0  0  0  0  0
  -20.6260   -5.2559   24.3299 C   0  0  0  0  0  0  0  0  0  0  0  0
  -26.5632  -24.9577   19.8964 C   0  0  0  0  0  0  0  0  0  0  0  0
  -22.9809   -4.8907   23.9321 C   0  0  0  0  0  0  0  0  0  0  0  0
  -24.0066  -10.4378   21.1133 C   0  0  0  0  0  0  0  0  0  0  0  0
  -26.1908  -11.7204   21.4165 C   0  0  0  0  0  0  0  0  0  0  0  0
  -27.4216  -32.9029   24.7495 C   0  0  0  0  0  0  0  0  0  0  0  0
  -27.3979  -27.1841   19.4418 C   0  0  0  0  0  0  0  0  0  0  0  0
  -28.0501  -31.8734   24.0232 C   0  0  0  0  0  0  0  0  0  0  0  0
  -26.3897  -26.3493   19.9447 C   0  0  0  0  0  0  0  0  0  0  0  0
  -22.4052   -8.1560   21.2194 C   0  0  0  0  0  0  0  0  0  0  0  0
  -27.7178  -24.4038   19.3440 C   0  0  0  0  0  0  0  0  0  0  0  0
  -21.6964   -6.2577   22.4095 C   0  0  0  0  0  0  0  0  0  0  0  0
  -21.8392   -4.6785   24.7048 C   0  0  0  0  0  0  0  0  0  0  0  0
  -22.9095   -5.6803   22.7844 C   0  0  0  0  0  0  0  0  0  0  0  0
  -24.8335  -11.6165   21.0577 C   0  0  0  0  0  0  0  0  0  0  0  0
  -26.5079  -13.0362   21.1827 C   0  0  0  0  0  0  0  0  0  0  0  0
  -29.0438  -21.0537   18.7396 C   0  0  0  0  0  0  0  0  0  0  0  0
  -28.8644  -19.0846   18.0705 C   0  0  0  0  0  0  0  0  0  0  0  0
  -27.0849  -10.7173   21.9163 C   0  0  0  0  0  0  0  0  0  0  0  0
  -26.8218  -29.1024   21.9100 C   0  0  0  0  0  0  0  0  0  0  0  0
  -23.7920  -29.0376   20.7531 C   0  0  0  0  0  0  0  0  0  0  0  0
  -21.4265  -27.4015   18.9161 C   0  0  0  0  0  0  0  0  0  0  0  0
  -26.3027  -17.5951   17.9703 C   0  0  0  0  0  0  0  0  0  0  0  0
  -26.1263  -32.6761   25.4880 C   0  0  0  0  0  0  0  0  0  0  0  0
  -27.2282  -28.6785   19.4582 C   0  0  0  0  0  0  0  0  0  0  0  0
  -25.1253  -26.9059   20.5448 C   0  0  0  0  0  0  0  0  0  0  0  0
  -25.3717  -31.4321   25.0263 C   0  0  0  0  0  0  0  0  0  0  0  0
  -23.5455  -17.0024   20.1436 C   0  0  0  0  0  0  0  0  0  0  0  0
  -26.3204  -30.2428   24.9150 C   0  0  0  0  0  0  0  0  0  0  0  0
  -23.7435  -15.5556   20.5994 C   0  0  0  0  0  0  0  0  0  0  0  0
  -23.9654  -17.1981   18.6885 C   0  0  0  0  0  0  0  0  0  0  0  0
  -25.5317  -15.3005   18.8285 C   0  0  0  0  0  0  0  0  0  0  0  0
  -27.4166  -30.5070   23.8757 C   0  0  1  0  0  0  0  0  0  0  0  0
  -26.2460  -29.1567   20.5232 C   0  0  1  0  0  0  0  0  0  0  0  0
  -25.1745  -15.0662   20.3063 C   0  0  2  0  0  0  0  0  0  0  0  0
  -19.0329  -27.5762   18.1830 C   0  0  0  0  0  0  0  0  0  0  0  0
  -29.8905  -16.8486   17.2855 C   0  0  0  0  0  0  0  0  0  0  0  0
  -28.3687  -18.1483   15.8016 C   0  0  0  0  0  0  0  0  0  0  0  0
  -22.8795  -28.1934   23.5397 C   0  0  0  0  0  0  0  0  0  0  0  0
  -20.7024  -27.4754   22.5332 C   0  0  0  0  0  0  0  0  0  0  0  0
  -21.3980  -29.8683   22.4196 C   0  0  0  0  0  0  0  0  0  0  0  0
  -29.2738  -17.9828   20.3026 C   0  0  0  0  0  0  0  0  0  0  0  0
  -22.1860  -27.4683   16.0564 C   0  0  0  0  0  0  0  0  0  0  0  0
  -29.0749  -22.5536   18.7186 C   0  0  0  0  0  0  0  0  0  1  0  0
  -22.5812  -28.1637   20.9753 C   0  0  1  0  0  0  0  0  0  0  0  0
  -20.4800  -27.8856   17.8324 C   0  0  2  0  0  0  0  0  0  0  0  0
  -28.6798  -17.8413   17.3007 C   0  0  0  0  0  0  0  0  0  0  0  0
  -21.9149  -28.4144   22.3575 C   0  0  0  0  0  0  0  0  0  0  0  0
  -24.3234  -12.7740   20.6287 N   0  0  0  0  0  0  0  0  0  0  0  0
  -28.8066  -20.3148   17.6160 N   0  0  0  0  0  0  0  0  0  0  0  0
  -29.2448  -20.3579   19.8608 N   0  0  0  0  0  0  0  0  0  0  0  0
  -25.3657  -13.6178   20.7166 N   0  0  0  0  0  0  0  0  0  0  0  0
  -29.1248  -19.1016   19.4053 N   0  0  0  0  0  0  0  0  0  0  0  0
  -25.0089  -28.3735   20.5435 N   0  0  0  0  0  0  0  0  0  0  0  0
  -25.3324  -16.7154   18.4777 N   0  0  0  0  0  0  0  0  0  0  0  0
  -27.6496  -13.7408   21.3325 N   0  0  0  0  0  0  0  0  0  0  0  0
  -26.5956   -9.4165   22.0976 N   0  0  0  0  0  0  0  0  0  0  0  0
  -26.8963  -30.3317   22.5367 N   0  0  0  0  0  0  0  0  0  0  0  0
  -21.6986  -28.3917   19.8362 N   0  0  0  0  0  0  0  0  0  0  0  0
  -27.5741  -17.0589   17.8068 N   0  0  0  0  0  0  0  0  0  0  0  0
  -20.7998  -27.2282   16.5338 N   0  3  0  0  0  0  0  0  0  0  0  0
  -28.2779  -10.9708   22.2095 O   0  0  0  0  0  0  0  0  0  0  0  0
  -27.1711  -28.0248   22.3774 O   0  0  0  0  0  0  0  0  0  0  0  0
  -23.6615  -30.2642   20.7581 O   0  0  0  0  0  0  0  0  0  0  0  0
  -21.8764  -26.2581   18.9456 O   0  0  0  0  0  0  0  0  0  0  0  0
  -26.0558  -18.7728   17.6893 O   0  0  0  0  0  0  0  0  0  0  0  0
  -21.6241   -7.0425   21.2709 O   0  0  0  0  0  0  0  0  0  0  0  0
  -27.8720  -23.0524   19.3022 O   0  0  0  0  0  0  0  0  0  1  0  0
  -21.9079   -3.9215   25.8077 F   0  0  0  0  0  0  0  0  0  0  0  0
  -24.0100   -5.8814   22.0467 F   0  0  0  0  0  0  0  0  0  0  0  0
  1  2  1  0  0  0  0
  1  5  2  0  0  0  0
  2  6  2  0  0  0  0
  3  8  2  0  0  0  0
  3 15  1  0  0  0  0
  4  9  1  0  0  0  0
  4 15  2  0  0  0  0
  5 17  1  0  0  0  0
  6 19  1  0  0  0  0
  7 10  2  0  0  0  0
  7 18  1  0  0  0  0
  8 21  1  0  0  0  0
  9 21  2  0  0  0  0
 10 22  1  0  0  0  0
 11 12  2  0  0  0  0
 11 23  1  0  0  0  0
 12 24  1  0  0  0  0
 13 20  1  0  0  0  0
 13 22  2  0  0  0  0
 14 24  2  0  0  0  0
 14 25  1  0  0  0  0
 15 26  1  0  0  0  0
 16 26  1  0  0  0  0
 16 27  2  0  0  0  0
 16 30  1  0  0  0  0
 17 19  2  0  0  0  0
 17 35  1  0  0  0  0
 18 20  2  0  0  0  0
 18 36  1  0  0  0  0
 19 44  1  0  0  0  0
 20 37  1  0  0  0  0
 21 78  1  0  0  0  0
 22 79  1  0  0  0  0
 23 25  2  0  0  0  0
 23 78  1  0  0  0  0
 24 80  1  0  0  0  0
 25 81  1  0  0  0  0
 26 60  2  0  0  0  0
 27 63  1  0  0  0  0
 27 67  1  0  0  0  0
 28 55  1  0  0  0  0
 28 61  1  0  0  0  0
 28 62  2  0  0  0  0
 29 58  1  0  0  0  0
 29 61  2  0  0  0  0
 29 64  1  0  0  0  0
 30 68  1  0  0  0  0
 30 73  2  0  0  0  0
 31 45  1  0  0  0  0
 31 69  1  0  0  0  0
 31 74  2  0  0  0  0
 32 56  1  0  0  0  0
 32 65  1  0  0  0  0
 32 75  2  0  0  0  0
 33 57  1  0  0  0  0
 33 70  1  0  0  0  0
 33 76  2  0  0  0  0
 34 66  1  0  0  0  0
 34 71  1  0  0  0  0
 34 77  2  0  0  0  0
 35 38  1  0  0  0  0
 36 45  1  0  0  0  0
 37 65  1  0  0  0  0
 38 40  1  0  0  0  0
 39 41  1  0  0  0  0
 39 42  1  0  0  0  0
 40 44  1  0  0  0  0
 41 46  1  0  0  0  0
 42 66  1  0  0  0  0
 43 46  1  0  0  0  0
 43 66  1  0  0  0  0
 44 69  1  0  0  0  0
 45 65  1  0  0  0  0
 46 63  1  0  0  0  0
 47 57  1  0  0  0  0
 48 58  1  0  0  0  0
 49 58  1  0  0  0  0
 50 59  1  0  0  0  0
 51 59  1  0  0  0  0
 52 59  1  0  0  0  0
 53 64  1  0  0  0  0
 54 72  1  0  0  0  0
 55 79  1  0  0  0  0
 56 59  1  0  0  0  0
 56 70  1  0  0  0  0
 57 72  1  0  0  0  0
 58 71  1  0  0  0  0
 60 63  1  0  0  0  0
 62 64  1  0  0  0  0
M  CHG  1  72   1
M  ISO  4  34 100  55 101  71 100  79 101
M  END
> <Batch ID>
0060

> <Smiles>
CNC(C)C(=O)NC(C(=O)N1Cc2cc([101O:1][101CH2:1]c3nc(C(C)(C)[100NH:0][100C:0](=O)N4CCCC(n5nc(-c6ccc(Oc7ccc(F)cc7F)cc6)c(C(N)=O)c5N)C4)n(C)n3)ccc2CC1C(=O)NC1CCCc2ccccc21)C(C)(C)C

> <Shape>
0.296

> <Color>
0.112

> <Negative vol penalty>
0.000

$$$$

  -OEChem-04052317553D

 91 99  0     1  0  0  0  0  0999 V2000
  -23.4095  -18.3893   26.0484 C   0  0  0  0  0  0  0  0  0  0  0  0
  -24.2807  -19.4646   25.9156 C   0  0  0  0  0  0  0  0  0  0  0  0
  -25.8420  -12.8982   19.5353 C   0  0  0  0  0  0  0  0  0  0  0  0
  -25.3739  -14.3857   21.3807 C   0  0  0  0  0  0  0  0  0  0  0  0
  -22.2794  -18.3086   25.2375 C   0  0  0  0  0  0  0  0  0  0  0  0
  -24.0160  -20.4655   24.9801 C   0  0  0  0  0  0  0  0  0  0  0  0
  -27.2841  -25.3507   23.3734 C   0  0  0  0  0  0  0  0  0  0  0  0
  -25.4557  -11.8085   20.3156 C   0  0  0  0  0  0  0  0  0  0  0  0
  -24.9875  -13.2959   22.1610 C   0  0  0  0  0  0  0  0  0  0  0  0
  -28.2486  -25.6756   22.4205 C   0  0  0  0  0  0  0  0  0  0  0  0
  -22.5688  -10.3696   21.3296 C   0  0  0  0  0  0  0  0  0  0  0  0
  -21.7349   -9.4167   20.7448 C   0  0  0  0  0  0  0  0  0  0  0  0
  -26.5265  -26.5835   20.9959 C   0  0  0  0  0  0  0  0  0  0  0  0
  -23.4126   -7.7189   21.1188 C   0  0  0  0  0  0  0  0  0  0  0  0
  -26.8641  -21.0860   19.7799 C   0  0  0  0  0  0  0  0  0  0  0  0
  -25.8012  -14.1868   20.0678 C   0  0  0  0  0  0  0  0  0  0  0  0
  -25.3804  -16.0931   18.4257 C   0  0  0  0  0  0  0  0  0  0  0  0
  -22.0080  -19.3030   24.2834 C   0  0  0  0  0  0  0  0  0  0  0  0
  -25.9300  -25.6303   23.1396 C   0  0  0  0  0  0  0  0  0  0  0  0
  -22.8679  -20.4142   24.1690 C   0  0  0  0  0  0  0  0  0  0  0  0
  -25.5471  -26.2634   21.9486 C   0  0  0  0  0  0  0  0  0  0  0  0
  -25.0284  -12.0074   21.6284 C   0  0  0  0  0  0  0  0  0  0  0  0
  -27.8695  -26.2895   21.2303 C   0  0  0  0  0  0  0  0  0  0  0  0
  -23.8247   -9.9972   21.8090 C   0  0  0  0  0  0  0  0  0  0  0  0
  -22.1567   -8.0913   20.6394 C   0  0  0  0  0  0  0  0  0  0  0  0
  -24.2466   -8.6719   21.7036 C   0  0  0  0  0  0  0  0  0  0  0  0
  -26.2006  -15.3128   19.2625 C   0  0  0  0  0  0  0  0  0  0  0  0
  -27.0861  -20.5348   21.0254 C   0  0  0  0  0  0  0  0  0  0  0  0
  -27.9703  -21.1720   18.9594 C   0  0  0  0  0  0  0  0  0  0  0  0
  -26.2299  -17.0289   17.8880 C   0  0  0  0  0  0  0  0  0  0  0  0
  -29.2901  -20.2360   20.5559 C   0  0  0  0  0  0  0  0  0  0  0  0
  -23.9762  -15.9820   18.1584 C   0  0  0  0  0  0  0  0  0  0  0  0
  -23.2916  -23.8781   22.8711 C   0  0  0  0  0  0  0  0  0  0  0  0
  -21.8445  -26.7790   22.7567 C   0  0  0  0  0  0  0  0  0  0  0  0
  -31.4579  -19.2796   19.8151 C   0  0  0  0  0  0  0  0  0  0  0  0
  -22.0901  -30.1145   22.0776 C   0  0  0  0  0  0  0  0  0  0  0  0
  -20.7664  -19.1697   23.4373 C   0  0  0  0  0  0  0  0  0  0  0  0
  -24.9051  -25.2977   24.1891 C   0  0  0  0  0  0  0  0  0  0  0  0
  -24.1089  -26.6034   21.6581 C   0  0  0  0  0  0  0  0  0  0  0  0
  -20.8061  -20.0360   22.1826 C   0  0  0  0  0  0  0  0  0  0  0  0
  -30.8025  -17.6871   16.6728 C   0  0  0  0  0  0  0  0  0  0  0  0
  -21.2016  -21.4594   22.5461 C   0  0  0  0  0  0  0  0  0  0  0  0
  -29.4882  -16.9455   16.9135 C   0  0  0  0  0  0  0  0  0  0  0  0
  -31.6737  -17.7000   17.9250 C   0  0  0  0  0  0  0  0  0  0  0  0
  -29.6780  -17.5160   19.3759 C   0  0  0  0  0  0  0  0  0  0  0  0
  -22.6165  -21.4990   23.1373 C   0  0  1  0  0  0  0  0  0  0  0  0
  -23.4943  -25.1621   23.6247 C   0  0  1  0  0  0  0  0  0  0  0  0
  -28.7546  -17.5060   18.1447 C   0  0  2  0  0  0  0  0  0  0  0  0
  -25.9497  -20.3996   21.9828 C   0  0  0  0  0  0  0  0  0  0  0  0
  -20.7297  -32.2229   22.0415 C   0  0  0  0  0  0  0  0  0  0  0  0
  -31.7973  -24.9194   18.7173 C   0  0  0  0  0  0  0  0  0  0  0  0
  -30.6326  -18.5429   21.9584 C   0  0  0  0  0  0  0  0  0  0  0  0
  -20.5168  -25.8751   20.1625 C   0  0  0  0  0  0  0  0  0  0  0  0
  -19.9616  -28.2709   19.6934 C   0  0  0  0  0  0  0  0  0  0  0  0
  -19.0211  -27.1466   21.7119 C   0  0  0  0  0  0  0  0  0  0  0  0
  -23.8204  -31.4032   24.1035 C   0  0  0  0  0  0  0  0  0  0  0  0
  -29.7252  -25.7551   16.4786 C   0  0  0  0  0  0  0  0  0  0  0  0
  -27.8264  -21.7587   17.5778 C   0  0  0  0  0  0  0  0  0  0  0  0
  -28.0499  -23.2756   17.5208 C   0  0  0  0  0  0  0  0  0  0  0  0
  -29.4432  -23.7478   17.9250 C   0  0  0  0  0  0  0  0  0  0  0  0
  -29.9673  -25.7765   20.2344 C   0  0  0  0  0  0  0  0  0  1  0  0
  -21.4763  -27.7476   21.6588 C   0  0  1  0  0  0  0  0  0  0  0  0
  -21.6531  -31.3374   22.8637 C   0  0  2  0  0  0  0  0  0  0  0  0
  -30.5533  -25.7861   18.8270 C   0  0  2  0  0  0  0  0  0  0  0  0
  -30.6369  -19.7607   20.9850 C   0  0  2  0  0  0  0  0  0  0  0  0
  -20.2709  -27.2520   20.8110 C   0  0  0  0  0  0  0  0  0  0  0  0
  -31.4370  -20.8948   21.6716 C   0  0  0  0  0  0  0  0  0  0  0  0
  -27.4735  -15.7176   19.2597 N   0  0  0  0  0  0  0  0  0  0  0  0
  -28.2906  -20.0978   21.4478 N   0  0  0  0  0  0  0  0  0  0  0  0
  -29.2028  -20.7553   19.3165 N   0  0  0  0  0  0  0  0  0  0  0  0
  -27.4595  -16.7624   18.4146 N   0  0  0  0  0  0  0  0  0  0  0  0
  -23.1432  -26.2525   22.7125 N   0  0  0  0  0  0  0  0  0  0  0  0
  -30.9338  -18.2182   19.0771 N   0  0  0  0  0  0  0  0  0  0  0  0
  -26.0376  -18.0454   17.0208 N   0  0  0  0  0  0  0  0  0  0  0  0
  -23.2534  -14.9637   18.7949 N   0  0  0  0  0  0  0  0  0  0  0  0
  -22.8731  -22.8232   23.6594 N   0  0  0  0  0  0  0  0  0  0  0  0
  -21.2612  -29.0368   22.3070 N   0  0  0  0  0  0  0  0  0  0  0  0
  -22.8391  -32.1435   23.2693 N   0  3  0  0  0  0  0  0  0  0  0  0
  -29.5289  -25.2509   17.8841 N   0  3  1  0  0  0  0  0  0  0  0  0
  -23.3832  -16.7524   17.3657 O   0  0  0  0  0  0  0  0  0  0  0  0
  -23.4980  -23.8472   21.6635 O   0  0  0  0  0  0  0  0  0  0  0  0
  -21.0128  -26.5053   23.6257 O   0  0  0  0  0  0  0  0  0  0  0  0
  -32.5313  -19.8339   19.5645 O   0  0  0  0  0  0  0  0  0  0  0  0
  -23.0668  -30.1163   21.3316 O   0  0  0  0  0  0  0  0  0  0  0  0
  -24.6512  -10.9443   22.3901 O   0  0  0  0  0  0  0  0  0  0  0  0
  -28.8087  -26.6071   20.2982 O   0  0  0  0  0  0  0  0  0  1  0  0
  -21.3552   -7.1760   20.0791 F   0  0  0  0  0  0  0  0  0  0  0  0
  -25.4515   -8.3079   22.1634 F   0  0  0  0  0  0  0  0  0  0  0  0
  -30.7828  -21.3435   22.7678 F   0  0  0  0  0  0  0  0  0  0  0  0
  -32.6659  -20.4962   22.0757 F   0  0  0  0  0  0  0  0  0  0  0  0
  -31.6109  -21.9496   20.8447 F   0  0  0  0  0  0  0  0  0  0  0  0
  1  2  1  0  0  0  0
  1  5  2  0  0  0  0
  2  6  2  0  0  0  0
  3  8  2  0  0  0  0
  3 16  1  0  0  0  0
  4  9  1  0  0  0  0
  4 16  2  0  0  0  0
  5 18  1  0  0  0  0
  6 20  1  0  0  0  0
  7 10  2  0  0  0  0
  7 19  1  0  0  0  0
  8 22  1  0  0  0  0
  9 22  2  0  0  0  0
 10 23  1  0  0  0  0
 11 12  2  0  0  0  0
 11 24  1  0  0  0  0
 12 25  1  0  0  0  0
 13 21  1  0  0  0  0
 13 23  2  0  0  0  0
 14 25  2  0  0  0  0
 14 26  1  0  0  0  0
 15 28  2  0  0  0  0
 15 29  1  0  0  0  0
 16 27  1  0  0  0  0
 17 27  1  0  0  0  0
 17 30  2  0  0  0  0
 17 32  1  0  0  0  0
 18 20  2  0  0  0  0
 18 37  1  0  0  0  0
 19 21  2  0  0  0  0
 19 38  1  0  0  0  0
 20 46  1  0  0  0  0
 21 39  1  0  0  0  0
 22 85  1  0  0  0  0
 23 86  1  0  0  0  0
 24 26  2  0  0  0  0
 24 85  1  0  0  0  0
 25 87  1  0  0  0  0
 26 88  1  0  0  0  0
 27 68  2  0  0  0  0
 28 49  1  0  0  0  0
 28 69  1  0  0  0  0
 29 58  1  0  0  0  0
 29 70  2  0  0  0  0
 30 71  1  0  0  0  0
 30 74  1  0  0  0  0
 31 65  1  0  0  0  0
 31 69  2  0  0  0  0
 31 70  1  0  0  0  0
 32 75  1  0  0  0  0
 32 80  2  0  0  0  0
 33 47  1  0  0  0  0
 33 76  1  0  0  0  0
 33 81  2  0  0  0  0
 34 62  1  0  0  0  0
 34 72  1  0  0  0  0
 34 82  2  0  0  0  0
 35 65  1  0  0  0  0
 35 73  1  0  0  0  0
 35 83  2  0  0  0  0
 36 63  1  0  0  0  0
 36 77  1  0  0  0  0
 36 84  2  0  0  0  0
 37 40  1  0  0  0  0
 38 47  1  0  0  0  0
 39 72  1  0  0  0  0
 40 42  1  0  0  0  0
 41 43  1  0  0  0  0
 41 44  1  0  0  0  0
 42 46  1  0  0  0  0
 43 48  1  0  0  0  0
 44 73  1  0  0  0  0
 45 48  1  0  0  0  0
 45 73  1  0  0  0  0
 46 76  1  0  0  0  0
 47 72  1  0  0  0  0
 48 71  1  0  0  0  0
 50 63  1  0  0  0  0
 51 64  1  0  0  0  0
 52 65  1  0  0  0  0
 53 66  1  0  0  0  0
 54 66  1  0  0  0  0
 55 66  1  0  0  0  0
 56 78  1  0  0  0  0
 57 79  1  0  0  0  0
 58 59  1  0  0  0  0
 59 60  1  0  0  0  0
 60 79  1  0  0  0  0
 61 64  1  0  0  0  0
 61 86  1  0  0  0  0
 62 66  1  0  0  0  0
 62 77  1  0  0  0  0
 63 78  1  0  0  0  0
 64 79  1  0  0  0  0
 65 67  1  0  0  0  0
 67 89  1  0  0  0  0
 67 90  1  0  0  0  0
 67 91  1  0  0  0  0
 68 71  1  0  0  0  0
M  CHG  2  78   1  79   1
M  ISO  4  35 100  61 101  65 100  86 101
M  END
> <Batch ID>
0060

> <Smiles>
CNC(C)C(=O)NC(C(=O)N1Cc2cc([101O:1][101CH2:1]C(C)N(C)CCCc3cc(C)nc([100C:0](C)([100C:0](=O)N4CCCC(n5nc(-c6ccc(Oc7ccc(F)cc7F)cc6)c(C(N)=O)c5N)C4)C(F)(F)F)n3)ccc2CC1C(=O)NC1CCCc2ccccc21)C(C)(C)C

> <Shape>
0.217

> <Color>
0.074

> <Negative vol penalty>
0.000

$$$$

  -OEChem-04052317553D

 87 95  0     1  0  0  0  0  0999 V2000
  -28.8936  -32.6034   21.3945 C   0  0  0  0  0  0  0  0  0  0  0  0
  -28.4367  -31.3963   20.8752 C   0  0  0  0  0  0  0  0  0  0  0  0
  -22.5002  -13.2699   20.4965 C   0  0  0  0  0  0  0  0  0  0  0  0
  -24.1676  -12.6792   22.1422 C   0  0  0  0  0  0  0  0  0  0  0  0
  -28.3422  -33.1078   22.5715 C   0  0  0  0  0  0  0  0  0  0  0  0
  -27.4288  -30.6924   21.5332 C   0  0  0  0  0  0  0  0  0  0  0  0
  -23.8786  -28.9634   18.3628 C   0  0  0  0  0  0  0  0  0  0  0  0
  -22.0115  -11.9637   20.5228 C   0  0  0  0  0  0  0  0  0  0  0  0
  -23.6789  -11.3730   22.1685 C   0  0  0  0  0  0  0  0  0  0  0  0
  -24.1854  -27.8206   17.6255 C   0  0  0  0  0  0  0  0  0  0  0  0
  -23.9168   -8.5853   20.2704 C   0  0  0  0  0  0  0  0  0  0  0  0
  -24.8454   -7.5451   20.2365 C   0  0  0  0  0  0  0  0  0  0  0  0
  -22.9198  -26.4829   19.1837 C   0  0  0  0  0  0  0  0  0  0  0  0
  -24.0324   -6.7499   22.3682 C   0  0  0  0  0  0  0  0  0  0  0  0
  -23.5783  -13.6276   21.3062 C   0  0  0  0  0  0  0  0  0  0  0  0
  -23.6718  -16.0553   22.0841 C   0  0  0  0  0  0  0  0  0  0  0  0
  -27.3203  -32.4145   23.2391 C   0  0  0  0  0  0  0  0  0  0  0  0
  -23.0979  -28.8729   19.5241 C   0  0  0  0  0  0  0  0  0  0  0  0
  -26.8641  -31.1874   22.7210 C   0  0  0  0  0  0  0  0  0  0  0  0
  -22.6024  -27.6264   19.9325 C   0  0  0  0  0  0  0  0  0  0  0  0
  -22.6008  -11.0153   21.3588 C   0  0  0  0  0  0  0  0  0  0  0  0
  -23.7084  -26.5797   18.0375 C   0  0  0  0  0  0  0  0  0  0  0  0
  -23.0460   -8.7079   21.3532 C   0  0  0  0  0  0  0  0  0  0  0  0
  -24.9032   -6.6274   21.2854 C   0  0  0  0  0  0  0  0  0  0  0  0
  -23.1038   -7.7902   22.4020 C   0  0  0  0  0  0  0  0  0  0  0  0
  -24.0840  -14.9766   21.2790 C   0  0  0  0  0  0  0  0  0  0  0  0
  -24.4518  -17.1083   21.6730 C   0  0  0  0  0  0  0  0  0  0  0  0
  -27.8411  -21.6796   21.4780 C   0  0  0  0  0  0  0  0  0  0  0  0
  -27.5971  -23.6767   22.0340 C   0  0  0  0  0  0  0  0  0  0  0  0
  -22.6731  -16.1013   23.1119 C   0  0  0  0  0  0  0  0  0  0  0  0
  -23.5710  -29.5158   22.6009 C   0  0  0  0  0  0  0  0  0  0  0  0
  -20.4111  -28.8201   22.8311 C   0  0  0  0  0  0  0  0  0  0  0  0
  -17.6979  -27.2062   21.5347 C   0  0  0  0  0  0  0  0  0  0  0  0
  -29.7226  -18.8143   20.3978 C   0  0  0  0  0  0  0  0  0  0  0  0
  -26.7880  -32.9759   24.5338 C   0  0  0  0  0  0  0  0  0  0  0  0
  -22.7536  -30.1187   20.2935 C   0  0  0  0  0  0  0  0  0  0  0  0
  -21.7433  -27.4783   21.1607 C   0  0  0  0  0  0  0  0  0  0  0  0
  -25.4629  -32.3547   24.9680 C   0  0  0  0  0  0  0  0  0  0  0  0
  -27.5121  -17.6025   17.6873 C   0  0  0  0  0  0  0  0  0  0  0  0
  -25.5204  -30.8353   24.8462 C   0  0  0  0  0  0  0  0  0  0  0  0
  -26.4320  -16.8409   18.4538 C   0  0  0  0  0  0  0  0  0  0  0  0
  -28.8424  -17.6054   18.4343 C   0  0  0  0  0  0  0  0  0  0  0  0
  -27.6685  -17.3533   20.5960 C   0  0  0  0  0  0  0  0  0  0  0  0
  -25.7551  -30.4069   23.3926 C   0  0  1  0  0  0  0  0  0  0  0  0
  -22.3788  -29.8397   21.7457 C   0  0  1  0  0  0  0  0  0  0  0  0
  -26.3032  -17.3710   19.8924 C   0  0  2  0  0  0  0  0  0  0  0  0
  -15.2604  -26.7928   21.9651 C   0  0  0  0  0  0  0  0  0  0  0  0
  -25.3635  -24.1483   15.8429 C   0  0  0  0  0  0  0  0  0  0  0  0
  -27.3674  -24.7688   24.2924 C   0  0  0  0  0  0  0  0  0  0  0  0
  -26.0920  -25.6764   22.3212 C   0  0  0  0  0  0  0  0  0  0  0  0
  -28.5455  -26.0334   22.5050 C   0  0  0  0  0  0  0  0  0  0  0  0
  -21.1388  -26.8195   25.0170 C   0  0  0  0  0  0  0  0  0  0  0  0
  -18.8739  -25.7910   24.7329 C   0  0  0  0  0  0  0  0  0  0  0  0
  -19.0802  -28.1633   25.4760 C   0  0  0  0  0  0  0  0  0  0  0  0
  -30.4031  -20.5707   21.9889 C   0  0  0  0  0  0  0  0  0  0  0  0
  -16.9106  -28.4985   18.9913 C   0  0  0  0  0  0  0  0  0  0  0  0
  -27.9933  -20.2242   21.5912 C   0  0  0  0  0  0  0  0  0  0  0  0
  -26.4546  -24.5108   18.6448 C   0  0  0  0  0  0  0  0  0  0  0  0
  -26.4114  -25.6321   17.5979 C   0  0  0  0  0  0  0  0  0  0  0  0
  -27.5975  -24.6775   19.6531 C   0  0  0  0  0  0  0  0  0  0  0  0
  -19.6077  -27.5658   23.0767 C   0  0  1  0  0  0  0  0  0  0  0  0
  -16.2802  -27.6768   21.2642 C   0  0  2  0  0  0  0  0  0  0  0  0
  -25.2480  -25.4553   16.6158 C   0  0  2  0  0  0  0  0  0  1  0  0
  -27.4210  -24.9594   22.7383 C   0  0  0  0  0  0  0  0  0  0  0  0
  -19.6929  -27.0871   24.5536 C   0  0  0  0  0  0  0  0  0  0  0  0
  -25.0507  -15.3134   20.4211 N   0  0  0  0  0  0  0  0  0  0  0  0
  -27.7034  -22.4842   22.5727 N   0  0  0  0  0  0  0  0  0  0  0  0
  -27.8267  -22.2991   20.2959 N   0  0  0  0  0  0  0  0  0  0  0  0
  -25.2524  -16.6156   20.6848 N   0  0  0  0  0  0  0  0  0  0  0  0
  -27.6695  -23.5752   20.6796 N   0  0  0  0  0  0  0  0  0  0  0  0
  -21.4394  -28.7248   21.8829 N   0  0  0  0  0  0  0  0  0  0  0  0
  -28.6836  -18.0726   19.8119 N   0  0  0  0  0  0  0  0  0  0  0  0
  -24.5241  -18.3985   22.0638 N   0  0  0  0  0  0  0  0  0  0  0  0
  -21.9645  -14.9289   23.4079 N   0  0  0  0  0  0  0  0  0  0  0  0
  -24.5291  -30.5112   22.6307 N   0  0  0  0  0  0  0  0  0  0  0  0
  -18.2525  -27.8529   22.6189 N   0  0  0  0  0  0  0  0  0  0  0  0
  -29.3626  -19.7687   21.3613 N   0  0  0  0  0  0  0  0  0  0  0  0
  -15.9967  -27.6526   19.8013 N   0  3  0  0  0  0  0  0  0  0  0  0
  -22.4053  -17.1550   23.7375 O   0  0  0  0  0  0  0  0  0  0  0  0
  -23.6176  -28.4429   23.1912 O   0  0  0  0  0  0  0  0  0  0  0  0
  -20.1318  -29.8485   23.4524 O   0  0  0  0  0  0  0  0  0  0  0  0
  -18.2559  -26.3479   20.8548 O   0  0  0  0  0  0  0  0  0  0  0  0
  -30.9037  -18.6404   20.0711 O   0  0  0  0  0  0  0  0  0  0  0  0
  -22.1240   -9.7407   21.3849 O   0  0  0  0  0  0  0  0  0  0  0  0
  -24.0069  -25.4626   17.3200 O   0  0  0  0  0  0  0  0  0  1  0  0
  -25.7940   -5.6276   21.2520 F   0  0  0  0  0  0  0  0  0  0  0  0
  -22.2690   -7.9021   23.4444 F   0  0  0  0  0  0  0  0  0  0  0  0
  1  2  1  0  0  0  0
  1  5  2  0  0  0  0
  2  6  2  0  0  0  0
  3  8  2  0  0  0  0
  3 15  1  0  0  0  0
  4  9  1  0  0  0  0
  4 15  2  0  0  0  0
  5 17  1  0  0  0  0
  6 19  1  0  0  0  0
  7 10  2  0  0  0  0
  7 18  1  0  0  0  0
  8 21  1  0  0  0  0
  9 21  2  0  0  0  0
 10 22  1  0  0  0  0
 11 12  2  0  0  0  0
 11 23  1  0  0  0  0
 12 24  1  0  0  0  0
 13 20  1  0  0  0  0
 13 22  2  0  0  0  0
 14 24  2  0  0  0  0
 14 25  1  0  0  0  0
 15 26  1  0  0  0  0
 16 26  1  0  0  0  0
 16 27  2  0  0  0  0
 16 30  1  0  0  0  0
 17 19  2  0  0  0  0
 17 35  1  0  0  0  0
 18 20  2  0  0  0  0
 18 36  1  0  0  0  0
 19 44  1  0  0  0  0
 20 37  1  0  0  0  0
 21 84  1  0  0  0  0
 22 85  1  0  0  0  0
 23 25  2  0  0  0  0
 23 84  1  0  0  0  0
 24 86  1  0  0  0  0
 25 87  1  0  0  0  0
 26 66  2  0  0  0  0
 27 69  1  0  0  0  0
 27 73  1  0  0  0  0
 28 57  1  0  0  0  0
 28 67  1  0  0  0  0
 28 68  2  0  0  0  0
 29 64  1  0  0  0  0
 29 67  2  0  0  0  0
 29 70  1  0  0  0  0
 30 74  1  0  0  0  0
 30 79  2  0  0  0  0
 31 45  1  0  0  0  0
 31 75  1  0  0  0  0
 31 80  2  0  0  0  0
 32 61  1  0  0  0  0
 32 71  1  0  0  0  0
 32 81  2  0  0  0  0
 33 62  1  0  0  0  0
 33 76  1  0  0  0  0
 33 82  2  0  0  0  0
 34 72  1  0  0  0  0
 34 77  1  0  0  0  0
 34 83  2  0  0  0  0
 35 38  1  0  0  0  0
 36 45  1  0  0  0  0
 37 71  1  0  0  0  0
 38 40  1  0  0  0  0
 39 41  1  0  0  0  0
 39 42  1  0  0  0  0
 40 44  1  0  0  0  0
 41 46  1  0  0  0  0
 42 72  1  0  0  0  0
 43 46  1  0  0  0  0
 43 72  1  0  0  0  0
 44 75  1  0  0  0  0
 45 71  1  0  0  0  0
 46 69  1  0  0  0  0
 47 62  1  0  0  0  0
 48 63  1  0  0  0  0
 49 64  1  0  0  0  0
 50 64  1  0  0  0  0
 51 64  1  0  0  0  0
 52 65  1  0  0  0  0
 53 65  1  0  0  0  0
 54 65  1  0  0  0  0
 55 77  1  0  0  0  0
 56 78  1  0  0  0  0
 57 77  1  0  0  0  0
 58 59  1  0  0  0  0
 58 60  1  0  0  0  0
 59 63  1  0  0  0  0
 60 70  1  0  0  0  0
 61 65  1  0  0  0  0
 61 76  1  0  0  0  0
 62 78  1  0  0  0  0
 63 85  1  0  0  0  0
 66 69  1  0  0  0  0
 68 70  1  0  0  0  0
M  CHG  1  78   1
M  ISO  4  34 100  63 101  77 100  85 101
M  END
> <Batch ID>
0060

> <Smiles>
CNC(C)C(=O)NC(C(=O)N1Cc2cc([101O:1][101CH:1](C)CCCn3nc(C[100N:0](C)[100C:0](=O)N4CCCC(n5nc(-c6ccc(Oc7ccc(F)cc7F)cc6)c(C(N)=O)c5N)C4)nc3C(C)(C)C)ccc2CC1C(=O)NC1CCCc2ccccc21)C(C)(C)C

> <Shape>
0.252

> <Color>
0.038

> <Negative vol penalty>
0.000

$$$$

  -OEChem-04052317553D

 88 96  0     1  0  0  0  0  0999 V2000
  -28.3007  -12.5436   18.2192 C   0  0  0  0  0  0  0  0  0  0  0  0
  -27.8382  -13.7902   17.8100 C   0  0  0  0  0  0  0  0  0  0  0  0
  -28.4609  -24.8032   18.3331 C   0  0  0  0  0  0  0  0  0  0  0  0
  -26.6366  -23.5996   19.3629 C   0  0  0  0  0  0  0  0  0  0  0  0
  -27.6278  -11.8462   19.2215 C   0  0  0  0  0  0  0  0  0  0  0  0
  -26.7016  -14.3397   18.4023 C   0  0  0  0  0  0  0  0  0  0  0  0
  -23.8744  -20.6531   20.2638 C   0  0  0  0  0  0  0  0  0  0  0  0
  -29.2805  -23.6836   18.4764 C   0  0  0  0  0  0  0  0  0  0  0  0
  -27.4562  -22.4800   19.5062 C   0  0  0  0  0  0  0  0  0  0  0  0
  -22.7066  -21.3984   20.1072 C   0  0  0  0  0  0  0  0  0  0  0  0
  -29.9097  -21.4383   21.5861 C   0  0  0  0  0  0  0  0  0  0  0  0
  -29.8864  -20.7706   22.8105 C   0  0  0  0  0  0  0  0  0  0  0  0
  -21.6712  -20.1381   21.8846 C   0  0  0  0  0  0  0  0  0  0  0  0
  -29.1499  -18.7564   21.6980 C   0  0  0  0  0  0  0  0  0  0  0  0
  -18.6167  -28.0839   21.7147 C   0  0  0  0  0  0  0  0  0  0  0  0
  -27.1390  -24.7612   18.7764 C   0  0  0  0  0  0  0  0  0  0  0  0
  -25.4659  -26.2322   17.5336 C   0  0  0  0  0  0  0  0  0  0  0  0
  -26.4880  -12.3917   19.8331 C   0  0  0  0  0  0  0  0  0  0  0  0
  -23.9459  -19.6356   21.2262 C   0  0  0  0  0  0  0  0  0  0  0  0
  -26.0120  -13.6484   19.4129 C   0  0  0  0  0  0  0  0  0  0  0  0
  -22.8420  -19.3830   22.0531 C   0  0  0  0  0  0  0  0  0  0  0  0
  -19.5436  -28.4142   22.6822 C   0  0  0  0  0  0  0  0  0  0  0  0
  -28.7781  -22.5220   19.0629 C   0  0  0  0  0  0  0  0  0  0  0  0
  -21.6038  -21.1390   20.9157 C   0  0  0  0  0  0  0  0  0  0  0  0
  -29.5530  -20.7652   20.4176 C   0  0  0  0  0  0  0  0  0  0  0  0
  -29.5065  -19.4296   22.8664 C   0  0  0  0  0  0  0  0  0  0  0  0
  -29.1732  -19.4242   20.4736 C   0  0  0  0  0  0  0  0  0  0  0  0
  -26.2921  -25.9175   18.6292 C   0  0  0  0  0  0  0  0  0  0  0  0
  -19.6398  -27.5351   23.7416 C   0  0  0  0  0  0  0  0  0  0  0  0
  -24.8749  -27.4226   17.8800 C   0  0  0  0  0  0  0  0  0  0  0  0
  -18.0264  -26.2051   22.8500 C   0  0  0  0  0  0  0  0  0  0  0  0
  -25.2516  -25.5126   16.3122 C   0  0  0  0  0  0  0  0  0  0  0  0
  -24.3981  -16.4906   21.1362 C   0  0  0  0  0  0  0  0  0  0  0  0
  -24.4569  -16.7991   24.3647 C   0  0  0  0  0  0  0  0  0  0  0  0
  -23.5493  -18.5961   27.1204 C   0  0  0  0  0  0  0  0  0  0  0  0
  -22.7897  -30.1955   22.5144 C   0  0  0  0  0  0  0  0  0  0  0  0
  -25.7666  -11.5795   20.8793 C   0  0  0  0  0  0  0  0  0  0  0  0
  -25.2219  -18.8586   21.4006 C   0  0  0  0  0  0  0  0  0  0  0  0
  -22.8744  -18.3153   23.1148 C   0  0  0  0  0  0  0  0  0  0  0  0
  -24.7877  -12.3977   21.7176 C   0  0  0  0  0  0  0  0  0  0  0  0
  -25.9372  -31.0388   21.0796 C   0  0  0  0  0  0  0  0  0  0  0  0
  -23.9311  -13.2867   20.8217 C   0  0  0  0  0  0  0  0  0  0  0  0
  -26.2728  -29.8334   20.1996 C   0  0  0  0  0  0  0  0  0  0  0  0
  -25.2257  -30.6192   22.3640 C   0  0  0  0  0  0  0  0  0  0  0  0
  -24.3615  -28.5799   21.2834 C   0  0  0  0  0  0  0  0  0  0  0  0
  -24.7971  -14.2886   20.0485 C   0  0  1  0  0  0  0  0  0  0  0  0
  -25.0092  -17.5017   22.0646 C   0  0  1  0  0  0  0  0  0  0  0  0
  -25.0300  -28.9578   19.9505 C   0  0  2  0  0  0  0  0  0  0  0  0
  -23.7093  -18.5777   29.6247 C   0  0  0  0  0  0  0  0  0  0  0  0
  -16.3133  -25.0241   24.2427 C   0  0  0  0  0  0  0  0  0  0  0  0
  -16.1493  -24.7814   21.7818 C   0  0  0  0  0  0  0  0  0  0  0  0
  -22.2980  -14.6462   24.4845 C   0  0  0  0  0  0  0  0  0  0  0  0
  -21.8341  -15.3410   26.8446 C   0  0  0  0  0  0  0  0  0  0  0  0
  -24.0768  -14.4380   26.2300 C   0  0  0  0  0  0  0  0  0  0  0  0
  -25.0407  -21.1521   27.1597 C   0  0  0  0  0  0  0  0  0  0  0  0
  -20.3710  -29.6420   22.5671 C   0  0  0  0  0  0  0  0  0  0  0  0
  -18.9106  -23.3793   21.7954 C   0  0  0  0  0  0  0  0  0  0  0  0
  -18.0370  -23.6505   23.0262 C   0  0  0  0  0  0  0  0  0  0  0  0
  -19.6564  -22.0567   21.9263 C   0  0  0  0  0  0  0  0  0  1  0  0
  -23.4208  -16.7557   25.4619 C   0  0  1  0  0  0  0  0  0  0  0  0
  -24.3440  -19.0576   28.3287 C   0  0  2  0  0  0  0  0  0  0  0  0
  -20.6095  -27.7902   24.8480 C   0  0  0  0  0  0  0  0  0  0  0  0
  -17.1572  -24.9381   22.9459 C   0  0  0  0  0  0  0  0  0  0  0  0
  -22.9058  -15.3141   25.7340 C   0  0  0  0  0  0  0  0  0  0  0  0
  -17.8385  -26.9830   21.7669 N   0  0  0  0  0  0  0  0  0  0  0  0
  -26.2340  -26.8343   19.5988 N   0  0  0  0  0  0  0  0  0  0  0  0
  -18.8939  -26.4170   23.8581 N   0  0  0  0  0  0  0  0  0  0  0  0
  -25.3643  -27.7367   19.1138 N   0  0  0  0  0  0  0  0  0  0  0  0
  -24.1426  -17.5785   23.2424 N   0  0  0  0  0  0  0  0  0  0  0  0
  -24.0556  -29.7928   22.0580 N   0  0  0  0  0  0  0  0  0  0  0  0
  -23.9896  -28.2211   17.2466 N   0  0  0  0  0  0  0  0  0  0  0  0
  -25.9387  -24.3065   16.1179 N   0  0  0  0  0  0  0  0  0  0  0  0
  -25.1929  -15.3834   20.9083 N   0  0  0  0  0  0  0  0  0  0  0  0
  -24.0262  -17.4027   26.6209 N   0  0  0  0  0  0  0  0  0  0  0  0
  -21.7337  -29.3585   22.1752 N   0  0  0  0  0  0  0  0  0  0  0  0
  -24.4162  -20.5457   28.3636 N   0  3  0  0  0  0  0  0  0  0  0  0
  -24.4866  -25.9351   15.4124 O   0  0  0  0  0  0  0  0  0  0  0  0
  -23.2871  -16.6988   20.6628 O   0  0  0  0  0  0  0  0  0  0  0  0
  -25.5094  -16.1706   24.5017 O   0  0  0  0  0  0  0  0  0  0  0  0
  -22.5980  -19.2290   26.6675 O   0  0  0  0  0  0  0  0  0  0  0  0
  -22.6129  -31.2274   23.1708 O   0  0  0  0  0  0  0  0  0  0  0  0
  -29.5774  -21.4293   19.2027 O   0  0  0  0  0  0  0  0  0  0  0  0
  -20.4625  -21.8645   20.7646 O   0  0  0  0  0  0  0  0  0  1  0  0
  -29.4856  -18.7881   24.0421 F   0  0  0  0  0  0  0  0  0  0  0  0
  -28.8306  -18.7719   19.3542 F   0  0  0  0  0  0  0  0  0  0  0  0
  -21.3388  -28.9325   24.6821 F   0  0  0  0  0  0  0  0  0  0  0  0
  -20.0185  -27.9180   26.0720 F   0  0  0  0  0  0  0  0  0  0  0  0
  -21.5239  -26.7870   24.9842 F   0  0  0  0  0  0  0  0  0  0  0  0
  1  2  1  0  0  0  0
  1  5  2  0  0  0  0
  2  6  2  0  0  0  0
  3  8  2  0  0  0  0
  3 16  1  0  0  0  0
  4  9  1  0  0  0  0
  4 16  2  0  0  0  0
  5 18  1  0  0  0  0
  6 20  1  0  0  0  0
  7 10  2  0  0  0  0
  7 19  1  0  0  0  0
  8 23  1  0  0  0  0
  9 23  2  0  0  0  0
 10 24  1  0  0  0  0
 11 12  2  0  0  0  0
 11 25  1  0  0  0  0
 12 26  1  0  0  0  0
 13 21  1  0  0  0  0
 13 24  2  0  0  0  0
 14 26  2  0  0  0  0
 14 27  1  0  0  0  0
 15 22  1  0  0  0  0
 15 65  2  0  0  0  0
 16 28  1  0  0  0  0
 17 28  1  0  0  0  0
 17 30  2  0  0  0  0
 17 32  1  0  0  0  0
 18 20  2  0  0  0  0
 18 37  1  0  0  0  0
 19 21  2  0  0  0  0
 19 38  1  0  0  0  0
 20 46  1  0  0  0  0
 21 39  1  0  0  0  0
 22 29  2  0  0  0  0
 22 56  1  0  0  0  0
 23 82  1  0  0  0  0
 24 83  1  0  0  0  0
 25 27  2  0  0  0  0
 25 82  1  0  0  0  0
 26 84  1  0  0  0  0
 27 85  1  0  0  0  0
 28 66  2  0  0  0  0
 29 62  1  0  0  0  0
 29 67  1  0  0  0  0
 30 68  1  0  0  0  0
 30 71  1  0  0  0  0
 31 63  1  0  0  0  0
 31 65  1  0  0  0  0
 31 67  2  0  0  0  0
 32 72  1  0  0  0  0
 32 77  2  0  0  0  0
 33 47  1  0  0  0  0
 33 73  1  0  0  0  0
 33 78  2  0  0  0  0
 34 60  1  0  0  0  0
 34 69  1  0  0  0  0
 34 79  2  0  0  0  0
 35 61  1  0  0  0  0
 35 74  1  0  0  0  0
 35 80  2  0  0  0  0
 36 70  1  0  0  0  0
 36 75  1  0  0  0  0
 36 81  2  0  0  0  0
 37 40  1  0  0  0  0
 38 47  1  0  0  0  0
 39 69  1  0  0  0  0
 40 42  1  0  0  0  0
 41 43  1  0  0  0  0
 41 44  1  0  0  0  0
 42 46  1  0  0  0  0
 43 48  1  0  0  0  0
 44 70  1  0  0  0  0
 45 48  1  0  0  0  0
 45 70  1  0  0  0  0
 46 73  1  0  0  0  0
 47 69  1  0  0  0  0
 48 68  1  0  0  0  0
 49 61  1  0  0  0  0
 50 63  1  0  0  0  0
 51 63  1  0  0  0  0
 52 64  1  0  0  0  0
 53 64  1  0  0  0  0
 54 64  1  0  0  0  0
 55 76  1  0  0  0  0
 56 75  1  0  0  0  0
 57 58  1  0  0  0  0
 57 59  1  0  0  0  0
 58 63  1  0  0  0  0
 59 83  1  0  0  0  0
 60 64  1  0  0  0  0
 60 74  1  0  0  0  0
 61 76  1  0  0  0  0
 62 86  1  0  0  0  0
 62 87  1  0  0  0  0
 62 88  1  0  0  0  0
 66 68  1  0  0  0  0
M  CHG  1  76   1
M  ISO  4  36 100  59 101  75 100  83 101
M  END
> <Batch ID>
0060

> <Smiles>
CNC(C)C(=O)NC(C(=O)N1Cc2cc([101O:1][101CH2:1]CCC(C)(C)c3ncc(C[100NH:0][100C:0](=O)N4CCCC(n5nc(-c6ccc(Oc7ccc(F)cc7F)cc6)c(C(N)=O)c5N)C4)c(C(F)(F)F)n3)ccc2CC1C(=O)NC1CCCc2ccccc21)C(C)(C)C

> <Shape>
0.213

> <Color>
0.080

> <Negative vol penalty>
0.000

$$$$

  -OEChem-04052317553D

 82 90  0     1  0  0  0  0  0999 V2000
  -18.4036  -33.7438   23.2273 C   0  0  0  0  0  0  0  0  0  0  0  0
  -19.6210  -33.7495   22.5542 C   0  0  0  0  0  0  0  0  0  0  0  0
  -25.5287  -15.3489   21.5881 C   0  0  0  0  0  0  0  0  0  0  0  0
  -25.2010  -15.5221   19.2007 C   0  0  0  0  0  0  0  0  0  0  0  0
  -18.0989  -32.7048   24.1057 C   0  0  0  0  0  0  0  0  0  0  0  0
  -20.5351  -32.7167   22.7598 C   0  0  0  0  0  0  0  0  0  0  0  0
  -25.5668  -28.9483   19.3252 C   0  0  0  0  0  0  0  0  0  0  0  0
  -24.3881  -14.5521   21.6869 C   0  0  0  0  0  0  0  0  0  0  0  0
  -24.0604  -14.7252   19.2995 C   0  0  0  0  0  0  0  0  0  0  0  0
  -26.9002  -28.5624   19.4555 C   0  0  0  0  0  0  0  0  0  0  0  0
  -23.5448  -11.3279   21.1154 C   0  0  0  0  0  0  0  0  0  0  0  0
  -23.6224  -10.1799   21.9037 C   0  0  0  0  0  0  0  0  0  0  0  0
  -26.2329  -26.7786   20.9361 C   0  0  0  0  0  0  0  0  0  0  0  0
  -21.8452  -11.0230   23.3065 C   0  0  0  0  0  0  0  0  0  0  0  0
  -31.0870  -24.8166   20.4349 C   0  0  0  0  0  0  0  0  0  0  0  0
  -25.9351  -15.8339   20.3450 C   0  0  0  0  0  0  0  0  0  0  0  0
  -28.4360  -16.2263   20.0293 C   0  0  0  0  0  0  0  0  0  0  0  0
  -19.0056  -31.6537   24.3149 C   0  0  0  0  0  0  0  0  0  0  0  0
  -24.5559  -28.2578   20.0091 C   0  0  0  0  0  0  0  0  0  0  0  0
  -20.2428  -31.6633   23.6428 C   0  0  0  0  0  0  0  0  0  0  0  0
  -24.8872  -27.1561   20.8108 C   0  0  0  0  0  0  0  0  0  0  0  0
  -23.6540  -14.2402   20.5426 C   0  0  0  0  0  0  0  0  0  0  0  0
  -27.2337  -27.4792   20.2634 C   0  0  0  0  0  0  0  0  0  0  0  0
  -22.6175  -12.3236   21.4227 C   0  0  0  0  0  0  0  0  0  0  0  0
  -22.7726  -10.0274   22.9993 C   0  0  0  0  0  0  0  0  0  0  0  0
  -21.7677  -12.1711   22.5182 C   0  0  0  0  0  0  0  0  0  0  0  0
  -27.1129  -16.6576   20.2424 C   0  0  0  0  0  0  0  0  0  0  0  0
  -31.3845  -24.0607   18.4676 C   0  0  0  0  0  0  0  0  0  0  0  0
  -29.1756  -17.3834   20.0109 C   0  0  0  0  0  0  0  0  0  0  0  0
  -31.2746  -25.4238   18.3248 C   0  0  0  0  0  0  0  0  0  0  0  0
  -28.9503  -14.8983   19.8628 C   0  0  0  0  0  0  0  0  0  0  0  0
  -22.4191  -29.0319   22.2314 C   0  0  0  0  0  0  0  0  0  0  0  0
  -21.3424  -26.0203   21.6899 C   0  0  0  0  0  0  0  0  0  0  0  0
  -22.0102  -22.8580   20.5941 C   0  0  0  0  0  0  0  0  0  0  0  0
  -28.2999  -22.9205   18.0982 C   0  0  0  0  0  0  0  0  0  0  0  0
  -18.6517  -30.5770   25.3100 C   0  0  0  0  0  0  0  0  0  0  0  0
  -23.1196  -28.6700   19.8368 C   0  0  0  0  0  0  0  0  0  0  0  0
  -23.8373  -26.3690   21.5501 C   0  0  0  0  0  0  0  0  0  0  0  0
  -19.5179  -29.3260   25.1875 C   0  0  0  0  0  0  0  0  0  0  0  0
  -28.5190  -21.9843   21.6727 C   0  0  0  0  0  0  0  0  0  0  0  0
  -20.9911  -29.7055   25.0756 C   0  0  0  0  0  0  0  0  0  0  0  0
  -28.2283  -20.4847   21.6427 C   0  0  0  0  0  0  0  0  0  0  0  0
  -27.8457  -22.7158   20.5155 C   0  0  0  0  0  0  0  0  0  0  0  0
  -27.8846  -20.6572   19.1462 C   0  0  0  0  0  0  0  0  0  0  0  0
  -21.2499  -30.5479   23.8206 C   0  0  1  0  0  0  0  0  0  0  0  0
  -22.2253  -28.2144   20.9857 C   0  0  1  0  0  0  0  0  0  0  0  0
  -28.5866  -19.8838   20.2724 C   0  0  2  0  0  0  0  0  0  0  0  0
  -20.9417  -20.6054   20.3087 C   0  0  0  0  0  0  0  0  0  0  0  0
  -21.5803  -25.5297   24.6921 C   0  0  0  0  0  0  0  0  0  0  0  0
  -21.4319  -23.0732   24.2318 C   0  0  0  0  0  0  0  0  0  0  0  0
  -19.5261  -24.5691   23.6375 C   0  0  0  0  0  0  0  0  0  0  0  0
  -28.9391  -22.8718   15.7173 C   0  0  0  0  0  0  0  0  0  0  0  0
  -22.4273  -22.9027   17.6645 C   0  0  0  0  0  0  0  0  0  0  0  0
  -31.5994  -23.0493   17.4215 C   0  0  0  0  0  0  0  0  0  0  0  0
  -30.9038  -27.3390   19.9913 C   0  0  0  0  0  0  0  0  0  0  0  0
  -30.5204  -21.9493   17.3709 C   0  0  0  0  0  0  0  0  0  0  0  0
  -29.5060  -27.8583   19.6727 C   0  0  0  0  0  0  0  0  0  1  0  0
  -21.6462  -24.6571   22.2630 C   0  0  1  0  0  0  0  0  0  0  0  0
  -21.2567  -21.9392   19.6494 C   0  0  2  0  0  0  0  0  0  0  0  0
  -21.0664  -24.4731   23.6938 C   0  0  0  0  0  0  0  0  0  0  0  0
  -31.2666  -23.6891   19.7835 N   0  0  0  0  0  0  0  0  0  0  0  0
  -27.0147  -17.9851   20.3517 N   0  0  0  0  0  0  0  0  0  0  0  0
  -31.0839  -25.8942   19.5935 N   0  0  0  0  0  0  0  0  0  0  0  0
  -28.2853  -18.3980   20.2067 N   0  0  0  0  0  0  0  0  0  0  0  0
  -22.4479  -26.8149   21.3545 N   0  0  0  0  0  0  0  0  0  0  0  0
  -28.1685  -22.0978   19.2290 N   0  0  0  0  0  0  0  0  0  0  0  0
  -30.4941  -17.6219   19.8465 N   0  0  0  0  0  0  0  0  0  0  0  0
  -28.0523  -13.8233   19.9089 N   0  0  0  0  0  0  0  0  0  0  0  0
  -21.2853  -29.7052   22.6447 N   0  0  0  0  0  0  0  0  0  0  0  0
  -21.1559  -23.6868   21.2902 N   0  0  0  0  0  0  0  0  0  0  0  0
  -29.1938  -22.5000   17.1018 N   0  0  0  0  0  0  0  0  0  0  0  0
  -22.0655  -21.6789   18.4251 N   0  3  0  0  0  0  0  0  0  0  0  0
  -30.1724  -14.6706   19.6951 O   0  0  0  0  0  0  0  0  0  0  0  0
  -23.5157  -29.0494   22.7781 O   0  0  0  0  0  0  0  0  0  0  0  0
  -20.1676  -26.3645   21.5386 O   0  0  0  0  0  0  0  0  0  0  0  0
  -23.2340  -22.8396   20.7063 O   0  0  0  0  0  0  0  0  0  0  0  0
  -27.6622  -23.9757   17.9900 O   0  0  0  0  0  0  0  0  0  0  0  0
  -22.5411  -13.4625   20.6386 O   0  0  0  0  0  0  0  0  0  0  0  0
  -28.5344  -27.1009   20.3929 O   0  0  0  0  0  0  0  0  0  1  0  0
  -22.8462   -8.9241   23.7553 F   0  0  0  0  0  0  0  0  0  0  0  0
  -20.8739  -13.1237   22.8176 F   0  0  0  0  0  0  0  0  0  0  0  0
  -31.3391  -26.1338   17.1994 F   0  0  0  0  0  0  0  0  0  0  0  0
  1  2  1  0  0  0  0
  1  5  2  0  0  0  0
  2  6  2  0  0  0  0
  3  8  2  0  0  0  0
  3 16  1  0  0  0  0
  4  9  1  0  0  0  0
  4 16  2  0  0  0  0
  5 18  1  0  0  0  0
  6 20  1  0  0  0  0
  7 10  2  0  0  0  0
  7 19  1  0  0  0  0
  8 22  1  0  0  0  0
  9 22  2  0  0  0  0
 10 23  1  0  0  0  0
 11 12  2  0  0  0  0
 11 24  1  0  0  0  0
 12 25  1  0  0  0  0
 13 21  1  0  0  0  0
 13 23  2  0  0  0  0
 14 25  2  0  0  0  0
 14 26  1  0  0  0  0
 15 61  2  0  0  0  0
 15 63  1  0  0  0  0
 16 27  1  0  0  0  0
 17 27  1  0  0  0  0
 17 29  2  0  0  0  0
 17 31  1  0  0  0  0
 18 20  2  0  0  0  0
 18 36  1  0  0  0  0
 19 21  2  0  0  0  0
 19 37  1  0  0  0  0
 20 45  1  0  0  0  0
 21 38  1  0  0  0  0
 22 78  1  0  0  0  0
 23 79  1  0  0  0  0
 24 26  2  0  0  0  0
 24 78  1  0  0  0  0
 25 80  1  0  0  0  0
 26 81  1  0  0  0  0
 27 62  2  0  0  0  0
 28 30  2  0  0  0  0
 28 54  1  0  0  0  0
 28 61  1  0  0  0  0
 29 64  1  0  0  0  0
 29 67  1  0  0  0  0
 30 63  1  0  0  0  0
 30 82  1  0  0  0  0
 31 68  1  0  0  0  0
 31 73  2  0  0  0  0
 32 46  1  0  0  0  0
 32 69  1  0  0  0  0
 32 74  2  0  0  0  0
 33 58  1  0  0  0  0
 33 65  1  0  0  0  0
 33 75  2  0  0  0  0
 34 59  1  0  0  0  0
 34 70  1  0  0  0  0
 34 76  2  0  0  0  0
 35 66  1  0  0  0  0
 35 71  1  0  0  0  0
 35 77  2  0  0  0  0
 36 39  1  0  0  0  0
 37 46  1  0  0  0  0
 38 65  1  0  0  0  0
 39 41  1  0  0  0  0
 40 42  1  0  0  0  0
 40 43  1  0  0  0  0
 41 45  1  0  0  0  0
 42 47  1  0  0  0  0
 43 66  1  0  0  0  0
 44 47  1  0  0  0  0
 44 66  1  0  0  0  0
 45 69  1  0  0  0  0
 46 65  1  0  0  0  0
 47 64  1  0  0  0  0
 48 59  1  0  0  0  0
 49 60  1  0  0  0  0
 50 60  1  0  0  0  0
 51 60  1  0  0  0  0
 52 71  1  0  0  0  0
 53 72  1  0  0  0  0
 54 56  1  0  0  0  0
 55 57  1  0  0  0  0
 55 63  1  0  0  0  0
 56 71  1  0  0  0  0
 57 79  1  0  0  0  0
 58 60  1  0  0  0  0
 58 70  1  0  0  0  0
 59 72  1  0  0  0  0
 62 64  1  0  0  0  0
M  CHG  1  72   1
M  ISO  4  35 100  57 101  71 100  79 101
M  END
> <Batch ID>
0060

> <Smiles>
CNC(C)C(=O)NC(C(=O)N1Cc2cc([101O:1][101CH2:1]Cn3cnc(CC[100N:0](C)[100C:0](=O)N4CCCC(n5nc(-c6ccc(Oc7ccc(F)cc7F)cc6)c(C(N)=O)c5N)C4)c3F)ccc2CC1C(=O)NC1CCCc2ccccc21)C(C)(C)C

> <Shape>
0.260

> <Color>
0.090

> <Negative vol penalty>
0.000

$$$$

  -OEChem-04052317553D

 83 91  0     1  0  0  0  0  0999 V2000
  -29.0309  -35.4301   19.7670 C   0  0  0  0  0  0  0  0  0  0  0  0
  -29.5137  -34.1257   19.7393 C   0  0  0  0  0  0  0  0  0  0  0  0
  -23.8687  -13.2228   21.1732 C   0  0  0  0  0  0  0  0  0  0  0  0
  -26.0594  -12.6751   20.3140 C   0  0  0  0  0  0  0  0  0  0  0  0
  -27.8843  -35.7325   20.5004 C   0  0  0  0  0  0  0  0  0  0  0  0
  -28.8506  -33.1229   20.4460 C   0  0  0  0  0  0  0  0  0  0  0  0
  -28.2541  -27.2496   18.8167 C   0  0  0  0  0  0  0  0  0  0  0  0
  -23.4328  -11.9293   20.8864 C   0  0  0  0  0  0  0  0  0  0  0  0
  -25.6235  -11.3815   20.0273 C   0  0  0  0  0  0  0  0  0  0  0  0
  -28.9468  -26.0982   19.1883 C   0  0  0  0  0  0  0  0  0  0  0  0
  -23.6955   -8.8504   22.2591 C   0  0  0  0  0  0  0  0  0  0  0  0
  -22.9502   -8.1866   23.2335 C   0  0  0  0  0  0  0  0  0  0  0  0
  -27.2563  -25.6222   20.8421 C   0  0  0  0  0  0  0  0  0  0  0  0
  -21.1012   -7.9971   21.6900 C   0  0  0  0  0  0  0  0  0  0  0  0
  -25.1820  -13.5958   20.8870 C   0  0  0  0  0  0  0  0  0  0  0  0
  -26.2164  -15.3870   22.3801 C   0  0  0  0  0  0  0  0  0  0  0  0
  -27.2014  -34.7311   21.2085 C   0  0  0  0  0  0  0  0  0  0  0  0
  -27.0610  -27.6025   19.4636 C   0  0  0  0  0  0  0  0  0  0  0  0
  -27.6946  -33.4124   21.1906 C   0  0  0  0  0  0  0  0  0  0  0  0
  -26.5491  -26.7773   20.4751 C   0  0  0  0  0  0  0  0  0  0  0  0
  -24.3102  -11.0086   20.3135 C   0  0  0  0  0  0  0  0  0  0  0  0
  -28.4494  -25.2858   20.2031 C   0  0  0  0  0  0  0  0  0  0  0  0
  -23.1437   -9.0877   21.0002 C   0  0  0  0  0  0  0  0  0  0  0  0
  -21.6531   -7.7599   22.9490 C   0  0  0  0  0  0  0  0  0  0  0  0
  -21.8465   -8.6610   20.7157 C   0  0  0  0  0  0  0  0  0  0  0  0
  -25.6328  -14.9321   21.1825 C   0  0  0  0  0  0  0  0  0  0  0  0
  -26.4631  -16.7196   22.1572 C   0  0  0  0  0  0  0  0  0  0  0  0
  -30.8321  -19.7379   19.1760 C   0  0  0  0  0  0  0  0  0  0  0  0
  -26.5095  -14.6691   23.5861 C   0  0  0  0  0  0  0  0  0  0  0  0
  -26.1066  -30.0762   21.2167 C   0  0  0  0  0  0  0  0  0  0  0  0
  -23.2291  -28.5887   21.0452 C   0  0  0  0  0  0  0  0  0  0  0  0
  -21.4898  -25.6875   20.5927 C   0  0  0  0  0  0  0  0  0  0  0  0
  -27.3523  -19.9248   17.1786 C   0  0  0  0  0  0  0  0  0  0  0  0
  -25.9932  -35.1151   22.0254 C   0  0  0  0  0  0  0  0  0  0  0  0
  -26.3118  -28.8336   19.0328 C   0  0  0  0  0  0  0  0  0  0  0  0
  -25.2618  -27.1010   21.1869 C   0  0  0  0  0  0  0  0  0  0  0  0
  -25.1359  -33.9229   22.4424 C   0  0  0  0  0  0  0  0  0  0  0  0
  -24.8450  -20.4590   19.6493 C   0  0  0  0  0  0  0  0  0  0  0  0
  -26.0121  -32.8011   22.9909 C   0  0  0  0  0  0  0  0  0  0  0  0
  -24.8152  -19.1441   20.4305 C   0  0  0  0  0  0  0  0  0  0  0  0
  -25.0985  -20.2259   18.1616 C   0  0  0  0  0  0  0  0  0  0  0  0
  -26.2686  -18.1097   18.6371 C   0  0  0  0  0  0  0  0  0  0  0  0
  -26.9891  -32.2924   21.9241 C   0  0  1  0  0  0  0  0  0  0  0  0
  -25.3748  -29.3705   20.1103 C   0  0  1  0  0  0  0  0  0  0  0  0
  -26.0715  -18.2974   20.1511 C   0  0  2  0  0  0  0  0  0  0  0  0
  -19.1507  -24.7799   20.5457 C   0  0  0  0  0  0  0  0  0  0  0  0
  -23.1176  -28.7249   24.0913 C   0  0  0  0  0  0  0  0  0  0  0  0
  -21.2946  -27.0098   24.0318 C   0  0  0  0  0  0  0  0  0  0  0  0
  -20.9530  -29.2288   22.9446 C   0  0  0  0  0  0  0  0  0  0  0  0
  -32.1253  -19.7139   16.2604 C   0  0  0  0  0  0  0  0  0  0  0  0
  -31.1026  -17.4542   16.1980 C   0  0  0  0  0  0  0  0  0  0  0  0
  -21.7635  -24.8081   17.7801 C   0  0  0  0  0  0  0  0  0  0  0  0
  -30.7289  -21.2047   18.8422 C   0  0  0  0  0  0  0  0  0  0  0  0
  -29.9153  -22.0114   19.8566 C   0  0  0  0  0  0  0  0  0  0  0  0
  -29.6216  -19.4826   16.2764 C   0  0  0  0  0  0  0  0  0  0  0  0
  -29.8883  -23.5058   19.5574 C   0  0  0  0  0  0  0  0  0  1  0  0
  -22.5112  -27.5506   21.8734 C   0  0  1  0  0  0  0  0  0  0  0  0
  -20.2912  -25.3570   19.7217 C   0  0  2  0  0  0  0  0  0  0  0  0
  -21.9944  -28.1232   23.2234 C   0  0  0  0  0  0  0  0  0  0  0  0
  -30.9471  -18.8694   16.8048 C   0  0  0  0  0  0  0  0  0  0  0  0
  -25.5155  -15.8974   20.2668 N   0  0  0  0  0  0  0  0  0  0  0  0
  -30.8486  -19.1817   20.3654 N   0  0  0  0  0  0  0  0  0  0  0  0
  -30.9556  -17.8278   20.1407 N   0  0  0  0  0  0  0  0  0  0  0  0
  -31.0026  -17.5622   18.8409 N   0  0  0  0  0  0  0  0  0  0  0  0
  -26.0289  -16.9722   20.8892 N   0  0  0  0  0  0  0  0  0  0  0  0
  -30.9254  -18.7577   18.2400 N   0  0  0  0  0  0  0  0  0  0  0  0
  -24.5693  -28.3187   20.7341 N   0  0  0  0  0  0  0  0  0  0  0  0
  -26.3047  -19.4182   17.9653 N   0  0  0  0  0  0  0  0  0  0  0  0
  -27.0069  -17.6884   22.9242 N   0  0  0  0  0  0  0  0  0  0  0  0
  -26.1912  -13.3055   23.6460 N   0  0  0  0  0  0  0  0  0  0  0  0
  -26.3079  -31.4240   20.9880 N   0  0  0  0  0  0  0  0  0  0  0  0
  -21.4654  -26.9986   21.0190 N   0  0  0  0  0  0  0  0  0  0  0  0
  -28.4615  -19.0979   17.0489 N   0  0  0  0  0  0  0  0  0  0  0  0
  -20.6678  -24.3616   18.6784 N   0  3  0  0  0  0  0  0  0  0  0  0
  -27.0228  -15.2243   24.5870 O   0  0  0  0  0  0  0  0  0  0  0  0
  -26.4610  -29.4449   22.2055 O   0  0  0  0  0  0  0  0  0  0  0  0
  -22.6210  -29.5984   20.6814 O   0  0  0  0  0  0  0  0  0  0  0  0
  -22.3587  -24.8638   20.8704 O   0  0  0  0  0  0  0  0  0  0  0  0
  -27.3050  -21.0343   16.6365 O   0  0  0  0  0  0  0  0  0  0  0  0
  -23.8852   -9.7462   20.0337 O   0  0  0  0  0  0  0  0  0  0  0  0
  -29.1239  -24.1616   20.5682 O   0  0  0  0  0  0  0  0  0  1  0  0
  -20.9380   -7.1210   23.8842 F   0  0  0  0  0  0  0  0  0  0  0  0
  -21.3114   -8.8851   19.5077 F   0  0  0  0  0  0  0  0  0  0  0  0
  1  2  1  0  0  0  0
  1  5  2  0  0  0  0
  2  6  2  0  0  0  0
  3  8  2  0  0  0  0
  3 15  1  0  0  0  0
  4  9  1  0  0  0  0
  4 15  2  0  0  0  0
  5 17  1  0  0  0  0
  6 19  1  0  0  0  0
  7 10  2  0  0  0  0
  7 18  1  0  0  0  0
  8 21  1  0  0  0  0
  9 21  2  0  0  0  0
 10 22  1  0  0  0  0
 11 12  2  0  0  0  0
 11 23  1  0  0  0  0
 12 24  1  0  0  0  0
 13 20  1  0  0  0  0
 13 22  2  0  0  0  0
 14 24  2  0  0  0  0
 14 25  1  0  0  0  0
 15 26  1  0  0  0  0
 16 26  1  0  0  0  0
 16 27  2  0  0  0  0
 16 29  1  0  0  0  0
 17 19  2  0  0  0  0
 17 34  1  0  0  0  0
 18 20  2  0  0  0  0
 18 35  1  0  0  0  0
 19 43  1  0  0  0  0
 20 36  1  0  0  0  0
 21 80  1  0  0  0  0
 22 81  1  0  0  0  0
 23 25  2  0  0  0  0
 23 80  1  0  0  0  0
 24 82  1  0  0  0  0
 25 83  1  0  0  0  0
 26 61  2  0  0  0  0
 27 65  1  0  0  0  0
 27 69  1  0  0  0  0
 28 53  1  0  0  0  0
 28 62  2  0  0  0  0
 28 66  1  0  0  0  0
 29 70  1  0  0  0  0
 29 75  2  0  0  0  0
 30 44  1  0  0  0  0
 30 71  1  0  0  0  0
 30 76  2  0  0  0  0
 31 57  1  0  0  0  0
 31 67  1  0  0  0  0
 31 77  2  0  0  0  0
 32 58  1  0  0  0  0
 32 72  1  0  0  0  0
 32 78  2  0  0  0  0
 33 68  1  0  0  0  0
 33 73  1  0  0  0  0
 33 79  2  0  0  0  0
 34 37  1  0  0  0  0
 35 44  1  0  0  0  0
 36 67  1  0  0  0  0
 37 39  1  0  0  0  0
 38 40  1  0  0  0  0
 38 41  1  0  0  0  0
 39 43  1  0  0  0  0
 40 45  1  0  0  0  0
 41 68  1  0  0  0  0
 42 45  1  0  0  0  0
 42 68  1  0  0  0  0
 43 71  1  0  0  0  0
 44 67  1  0  0  0  0
 45 65  1  0  0  0  0
 46 58  1  0  0  0  0
 47 59  1  0  0  0  0
 48 59  1  0  0  0  0
 49 59  1  0  0  0  0
 50 60  1  0  0  0  0
 51 60  1  0  0  0  0
 52 74  1  0  0  0  0
 53 54  1  0  0  0  0
 54 56  1  0  0  0  0
 55 60  1  0  0  0  0
 55 73  1  0  0  0  0
 56 81  1  0  0  0  0
 57 59  1  0  0  0  0
 57 72  1  0  0  0  0
 58 74  1  0  0  0  0
 60 66  1  0  0  0  0
 61 65  1  0  0  0  0
 62 63  1  0  0  0  0
 63 64  2  0  0  0  0
 64 66  1  0  0  0  0
M  CHG  1  74   1
M  ISO  4  33 100  56 101  73 100  81 101
M  END
> <Batch ID>
0060

> <Smiles>
CNC(C)C(=O)NC(C(=O)N1Cc2cc([101O:1][101CH2:1]CCc3nnnn3C(C)(C)C[100NH:0][100C:0](=O)N3CCCC(n4nc(-c5ccc(Oc6ccc(F)cc6F)cc5)c(C(N)=O)c4N)C3)ccc2CC1C(=O)NC1CCCc2ccccc21)C(C)(C)C

> <Shape>
0.232

> <Color>
0.059

> <Negative vol penalty>
0.000

$$$$

  -OEChem-04052317553D

 83 91  0     1  0  0  0  0  0999 V2000
  -23.7638  -22.8554   18.1684 C   0  0  0  0  0  0  0  0  0  0  0  0
  -24.6370  -22.0320   17.4649 C   0  0  0  0  0  0  0  0  0  0  0  0
  -27.2576  -28.1366   20.6995 C   0  0  0  0  0  0  0  0  0  0  0  0
  -25.4211  -26.9624   19.6575 C   0  0  0  0  0  0  0  0  0  0  0  0
  -23.4756  -22.5835   19.5052 C   0  0  0  0  0  0  0  0  0  0  0  0
  -25.2235  -20.9368   18.0981 C   0  0  0  0  0  0  0  0  0  0  0  0
  -27.5094  -14.2805   16.7622 C   0  0  0  0  0  0  0  0  0  0  0  0
  -26.5026  -29.3094   20.7087 C   0  0  0  0  0  0  0  0  0  0  0  0
  -24.6661  -28.1352   19.6668 C   0  0  0  0  0  0  0  0  0  0  0  0
  -28.6368  -13.4762   16.9232 C   0  0  0  0  0  0  0  0  0  0  0  0
  -22.1237  -30.7330   19.7445 C   0  0  0  0  0  0  0  0  0  0  0  0
  -20.7946  -30.6462   20.1588 C   0  0  0  0  0  0  0  0  0  0  0  0
  -28.0036  -13.0577   19.2130 C   0  0  0  0  0  0  0  0  0  0  0  0
  -21.5194  -29.8245   22.3121 C   0  0  0  0  0  0  0  0  0  0  0  0
  -26.7169  -26.9631   20.1738 C   0  0  0  0  0  0  0  0  0  0  0  0
  -27.5537  -24.7687   21.1698 C   0  0  0  0  0  0  0  0  0  0  0  0
  -24.0514  -21.4788   20.1523 C   0  0  0  0  0  0  0  0  0  0  0  0
  -26.6250  -14.4886   17.8303 C   0  0  0  0  0  0  0  0  0  0  0  0
  -24.9439  -20.6506   19.4452 C   0  0  0  0  0  0  0  0  0  0  0  0
  -26.8644  -13.8631   19.0622 C   0  0  0  0  0  0  0  0  0  0  0  0
  -25.2068  -29.3087   20.1924 C   0  0  0  0  0  0  0  0  0  0  0  0
  -28.8856  -12.8670   18.1496 C   0  0  0  0  0  0  0  0  0  0  0  0
  -23.1506  -30.3654   20.6140 C   0  0  0  0  0  0  0  0  0  0  0  0
  -20.4924  -30.1920   21.4426 C   0  0  0  0  0  0  0  0  0  0  0  0
  -22.8485  -29.9112   21.8978 C   0  0  0  0  0  0  0  0  0  0  0  0
  -27.4966  -25.7515   20.1634 C   0  0  0  0  0  0  0  0  0  0  0  0
  -28.4294  -23.8293   20.6829 C   0  0  0  0  0  0  0  0  0  0  0  0
  -30.2560  -17.8233   18.5762 C   0  0  0  0  0  0  0  0  0  0  0  0
  -26.8757  -24.7102   22.4317 C   0  0  0  0  0  0  0  0  0  0  0  0
  -25.6643  -17.0268   19.4851 C   0  0  0  0  0  0  0  0  0  0  0  0
  -23.6390  -14.8880   20.8439 C   0  0  0  0  0  0  0  0  0  0  0  0
  -22.9535  -11.6362   21.6203 C   0  0  0  0  0  0  0  0  0  0  0  0
  -30.3252  -20.6426   16.5120 C   0  0  0  0  0  0  0  0  0  0  0  0
  -23.7465  -21.2524   21.6120 C   0  0  0  0  0  0  0  0  0  0  0  0
  -25.3992  -15.3375   17.6325 C   0  0  0  0  0  0  0  0  0  0  0  0
  -25.9350  -14.0382   20.2343 C   0  0  0  0  0  0  0  0  0  0  0  0
  -24.1182  -19.8555   22.1024 C   0  0  0  0  0  0  0  0  0  0  0  0
  -31.5434  -23.9828   16.6997 C   0  0  0  0  0  0  0  0  0  0  0  0
  -25.5151  -19.4752   21.6218 C   0  0  0  0  0  0  0  0  0  0  0  0
  -30.6004  -24.6607   17.6953 C   0  0  0  0  0  0  0  0  0  0  0  0
  -30.8069  -22.9727   15.8227 C   0  0  0  0  0  0  0  0  0  0  0  0
  -29.0897  -22.6364   17.5583 C   0  0  0  0  0  0  0  0  0  0  0  0
  -25.5807  -19.4388   20.0902 C   0  0  1  0  0  0  0  0  0  0  0  0
  -24.8412  -15.8948   18.9385 C   0  0  1  0  0  0  0  0  0  0  0  0
  -29.7974  -23.6231   18.5027 C   0  0  2  0  0  0  0  0  0  0  0  0
  -21.2417  -10.2034   22.7667 C   0  0  0  0  0  0  0  0  0  0  0  0
  -24.6973  -15.7985   23.5570 C   0  0  0  0  0  0  0  0  0  0  0  0
  -23.6945  -13.7364   24.5621 C   0  0  0  0  0  0  0  0  0  0  0  0
  -22.2250  -15.4315   23.4714 C   0  0  0  0  0  0  0  0  0  0  0  0
  -22.3768  -10.1351   19.1358 C   0  0  0  0  0  0  0  0  0  0  0  0
  -29.7425  -18.3684   17.3168 C   0  0  0  0  0  0  0  0  0  0  0  0
  -32.5025  -14.2037   19.4732 C   0  0  0  0  0  0  0  0  0  0  0  0
  -32.4861  -12.6823   19.6362 C   0  0  0  0  0  0  0  0  0  0  0  0
  -32.6402  -14.9053   20.8280 C   0  0  0  0  0  0  0  0  0  0  0  0
  -32.3827  -11.9804   18.2838 C   0  0  0  0  0  0  0  0  0  0  0  0
  -32.6632  -16.4336   20.7122 C   0  0  0  0  0  0  0  0  0  0  0  0
  -31.1330  -12.4038   17.5249 C   0  0  0  0  0  0  0  0  0  1  0  0
  -23.7019  -13.9646   22.0365 C   0  0  1  0  0  0  0  0  0  0  0  0
  -21.6974  -10.8020   21.4451 C   0  0  2  0  0  0  0  0  0  0  0  0
  -23.5984  -14.7308   23.3854 C   0  0  0  0  0  0  0  0  0  0  0  0
  -28.2743  -25.4632   19.1165 N   0  0  0  0  0  0  0  0  0  0  0  0
  -29.4899  -17.6907   19.6961 N   0  0  0  0  0  0  0  0  0  0  0  0
  -31.5150  -17.4033   18.7242 N   0  0  0  0  0  0  0  0  0  0  0  0
  -30.2816  -17.1603   20.6199 N   0  0  0  0  0  0  0  0  0  0  0  0
  -28.8284  -24.2887   19.4623 N   0  0  0  0  0  0  0  0  0  0  0  0
  -31.4625  -17.0089   20.0042 N   0  0  0  0  0  0  0  0  0  0  0  0
  -24.7534  -14.8827   19.9931 N   0  0  0  0  0  0  0  0  0  0  0  0
  -30.0667  -22.0164   16.6495 N   0  0  0  0  0  0  0  0  0  0  0  0
  -28.8895  -22.6633   21.1842 N   0  0  0  0  0  0  0  0  0  0  0  0
  -26.0114  -25.7587   22.7751 N   0  0  0  0  0  0  0  0  0  0  0  0
  -24.9790  -18.2224   19.5873 N   0  0  0  0  0  0  0  0  0  0  0  0
  -22.6578  -12.9658   21.8349 N   0  0  0  0  0  0  0  0  0  0  0  0
  -29.5847  -19.8056   17.3377 N   0  0  0  0  0  0  0  0  0  0  0  0
  -21.9446   -9.6890   20.4854 N   0  3  0  0  0  0  0  0  0  0  0  0
  -27.0442  -23.7644   23.2383 O   0  0  0  0  0  0  0  0  0  0  0  0
  -26.8339  -16.8297   19.7929 O   0  0  0  0  0  0  0  0  0  0  0  0
  -22.6349  -15.5831   20.6696 O   0  0  0  0  0  0  0  0  0  0  0  0
  -24.0839  -11.1558   21.5754 O   0  0  0  0  0  0  0  0  0  0  0  0
  -31.1583  -20.1955   15.7164 O   0  0  0  0  0  0  0  0  0  0  0  0
  -24.4697  -30.4529   20.2015 O   0  0  0  0  0  0  0  0  0  0  0  0
  -29.9855  -12.0820   18.3098 O   0  0  0  0  0  0  0  0  0  1  0  0
  -19.2162  -30.1102   21.8408 F   0  0  0  0  0  0  0  0  0  0  0  0
  -23.8309  -29.5578   22.7379 F   0  0  0  0  0  0  0  0  0  0  0  0
  1  2  1  0  0  0  0
  1  5  2  0  0  0  0
  2  6  2  0  0  0  0
  3  8  2  0  0  0  0
  3 15  1  0  0  0  0
  4  9  1  0  0  0  0
  4 15  2  0  0  0  0
  5 17  1  0  0  0  0
  6 19  1  0  0  0  0
  7 10  2  0  0  0  0
  7 18  1  0  0  0  0
  8 21  1  0  0  0  0
  9 21  2  0  0  0  0
 10 22  1  0  0  0  0
 11 12  2  0  0  0  0
 11 23  1  0  0  0  0
 12 24  1  0  0  0  0
 13 20  1  0  0  0  0
 13 22  2  0  0  0  0
 14 24  2  0  0  0  0
 14 25  1  0  0  0  0
 15 26  1  0  0  0  0
 16 26  1  0  0  0  0
 16 27  2  0  0  0  0
 16 29  1  0  0  0  0
 17 19  2  0  0  0  0
 17 34  1  0  0  0  0
 18 20  2  0  0  0  0
 18 35  1  0  0  0  0
 19 43  1  0  0  0  0
 20 36  1  0  0  0  0
 21 80  1  0  0  0  0
 22 81  1  0  0  0  0
 23 25  2  0  0  0  0
 23 80  1  0  0  0  0
 24 82  1  0  0  0  0
 25 83  1  0  0  0  0
 26 61  2  0  0  0  0
 27 65  1  0  0  0  0
 27 69  1  0  0  0  0
 28 51  1  0  0  0  0
 28 62  1  0  0  0  0
 28 63  2  0  0  0  0
 29 70  1  0  0  0  0
 29 75  2  0  0  0  0
 30 44  1  0  0  0  0
 30 71  1  0  0  0  0
 30 76  2  0  0  0  0
 31 58  1  0  0  0  0
 31 67  1  0  0  0  0
 31 77  2  0  0  0  0
 32 59  1  0  0  0  0
 32 72  1  0  0  0  0
 32 78  2  0  0  0  0
 33 68  1  0  0  0  0
 33 73  1  0  0  0  0
 33 79  2  0  0  0  0
 34 37  1  0  0  0  0
 35 44  1  0  0  0  0
 36 67  1  0  0  0  0
 37 39  1  0  0  0  0
 38 40  1  0  0  0  0
 38 41  1  0  0  0  0
 39 43  1  0  0  0  0
 40 45  1  0  0  0  0
 41 68  1  0  0  0  0
 42 45  1  0  0  0  0
 42 68  1  0  0  0  0
 43 71  1  0  0  0  0
 44 67  1  0  0  0  0
 45 65  1  0  0  0  0
 46 59  1  0  0  0  0
 47 60  1  0  0  0  0
 48 60  1  0  0  0  0
 49 60  1  0  0  0  0
 50 74  1  0  0  0  0
 51 73  1  0  0  0  0
 52 53  1  0  0  0  0
 52 54  1  0  0  0  0
 53 55  1  0  0  0  0
 54 56  1  0  0  0  0
 55 57  1  0  0  0  0
 56 66  1  0  0  0  0
 57 81  1  0  0  0  0
 58 60  1  0  0  0  0
 58 72  1  0  0  0  0
 59 74  1  0  0  0  0
 61 65  1  0  0  0  0
 62 64  2  0  0  0  0
 63 66  1  0  0  0  0
 64 66  1  0  0  0  0
M  CHG  1  74   1
M  ISO  4  33 100  57 101  73 100  81 101
M  END
> <Batch ID>
0060

> <Smiles>
CNC(C)C(=O)NC(C(=O)N1Cc2cc([101O:1][101CH2:1]CCCCCn3nnc(C[100NH:0][100C:0](=O)N4CCCC(n5nc(-c6ccc(Oc7ccc(F)cc7F)cc6)c(C(N)=O)c5N)C4)n3)ccc2CC1C(=O)NC1CCCc2ccccc21)C(C)(C)C

> <Shape>
0.240

> <Color>
0.056

> <Negative vol penalty>
0.000

$$$$

  -OEChem-04052317553D

 82 90  0     1  0  0  0  0  0999 V2000
  -16.6168  -28.7790   23.9547 C   0  0  0  0  0  0  0  0  0  0  0  0
  -17.0940  -28.4192   22.6984 C   0  0  0  0  0  0  0  0  0  0  0  0
  -25.4735  -16.4821   21.0754 C   0  0  0  0  0  0  0  0  0  0  0  0
  -25.6493  -16.2342   18.6786 C   0  0  0  0  0  0  0  0  0  0  0  0
  -17.3106  -29.7146   24.7210 C   0  0  0  0  0  0  0  0  0  0  0  0
  -18.2648  -28.9957   22.2072 C   0  0  0  0  0  0  0  0  0  0  0  0
  -22.4876  -26.3141   18.6741 C   0  0  0  0  0  0  0  0  0  0  0  0
  -24.7276  -15.3054   21.1425 C   0  0  0  0  0  0  0  0  0  0  0  0
  -24.9033  -15.0574   18.7457 C   0  0  0  0  0  0  0  0  0  0  0  0
  -22.7151  -26.3421   17.2988 C   0  0  0  0  0  0  0  0  0  0  0  0
  -23.3520  -11.7960   18.3276 C   0  0  0  0  0  0  0  0  0  0  0  0
  -23.8026  -10.6990   17.5934 C   0  0  0  0  0  0  0  0  0  0  0  0
  -24.3484  -28.0897   17.6106 C   0  0  0  0  0  0  0  0  0  0  0  0
  -25.8768  -10.7218   18.8320 C   0  0  0  0  0  0  0  0  0  0  0  0
  -26.9293  -25.1234   14.0391 C   0  0  0  0  0  0  0  0  0  0  0  0
  -27.8957  -27.0973   14.2013 C   0  0  0  0  0  0  0  0  0  0  0  0
  -25.9343  -16.9466   19.8435 C   0  0  0  0  0  0  0  0  0  0  0  0
  -28.1037  -18.2887   19.8628 C   0  0  0  0  0  0  0  0  0  0  0  0
  -18.4957  -30.2957   24.2430 C   0  0  0  0  0  0  0  0  0  0  0  0
  -23.1821  -27.1828   19.5282 C   0  0  0  0  0  0  0  0  0  0  0  0
  -18.9744  -29.9410   22.9672 C   0  0  0  0  0  0  0  0  0  0  0  0
  -24.1298  -28.0690   18.9966 C   0  0  0  0  0  0  0  0  0  0  0  0
  -24.4425  -14.5931   19.9776 C   0  0  0  0  0  0  0  0  0  0  0  0
  -23.6435  -27.2319   16.7666 C   0  0  0  0  0  0  0  0  0  0  0  0
  -24.1639  -12.3560   19.3140 C   0  0  0  0  0  0  0  0  0  0  0  0
  -25.0649  -10.1619   17.8456 C   0  0  0  0  0  0  0  0  0  0  0  0
  -25.4262  -11.8189   19.5662 C   0  0  0  0  0  0  0  0  0  0  0  0
  -26.7045  -18.1624   19.7735 C   0  0  0  0  0  0  0  0  0  0  0  0
  -26.0363  -26.1416   13.8016 C   0  0  0  0  0  0  0  0  0  0  0  0
  -28.3353  -19.6368   19.7395 C   0  0  0  0  0  0  0  0  0  0  0  0
  -29.1046  -17.2777   20.0412 C   0  0  0  0  0  0  0  0  0  0  0  0
  -22.3459  -29.5183   21.5156 C   0  0  0  0  0  0  0  0  0  0  0  0
  -25.4964  -29.4625   22.2858 C   0  0  0  0  0  0  0  0  0  0  0  0
  -28.6902  -28.6857   21.3673 C   0  0  0  0  0  0  0  0  0  0  0  0
  -27.3688  -24.5324   17.2405 C   0  0  0  0  0  0  0  0  0  0  0  0
  -19.1854  -31.3376   25.0876 C   0  0  0  0  0  0  0  0  0  0  0  0
  -22.9447  -27.1216   21.0122 C   0  0  0  0  0  0  0  0  0  0  0  0
  -24.9164  -29.0081   19.8728 C   0  0  0  0  0  0  0  0  0  0  0  0
  -20.6202  -31.6229   24.6516 C   0  0  0  0  0  0  0  0  0  0  0  0
  -25.1309  -23.5497   19.8294 C   0  0  0  0  0  0  0  0  0  0  0  0
  -20.6928  -31.8020   23.1385 C   0  0  0  0  0  0  0  0  0  0  0  0
  -25.4519  -22.0701   20.0483 C   0  0  0  0  0  0  0  0  0  0  0  0
  -25.2385  -23.9386   18.3566 C   0  0  0  0  0  0  0  0  0  0  0  0
  -26.8441  -22.1165   17.9368 C   0  0  0  0  0  0  0  0  0  0  0  0
  -20.2542  -30.5258   22.4102 C   0  0  1  0  0  0  0  0  0  0  0  0
  -23.3348  -28.4082   21.7332 C   0  0  1  0  0  0  0  0  0  0  0  0
  -26.8034  -21.6898   19.4142 C   0  0  2  0  0  0  0  0  0  0  0  0
  -31.0579  -28.7909   22.1920 C   0  0  0  0  0  0  0  0  0  0  0  0
  -25.5631  -32.4571   21.7049 C   0  0  0  0  0  0  0  0  0  0  0  0
  -28.0610  -32.3130   21.6133 C   0  0  0  0  0  0  0  0  0  0  0  0
  -26.8580  -31.7576   23.7269 C   0  0  0  0  0  0  0  0  0  0  0  0
  -29.5371  -23.7115   13.9692 C   0  0  0  0  0  0  0  0  0  0  0  0
  -30.5250  -25.9856   14.0610 C   0  0  0  0  0  0  0  0  0  0  0  0
  -28.9869  -25.7438   21.2424 C   0  0  0  0  0  0  0  0  0  0  0  0
  -24.5687  -26.0372   13.4649 C   0  0  0  0  0  0  0  0  0  0  0  0
  -29.5514  -24.9727   16.1443 C   0  0  0  0  0  0  0  0  0  0  0  0
  -23.6868  -26.0405   14.7088 C   0  0  0  0  0  0  0  0  0  1  0  0
  -26.7348  -30.1574   21.7733 C   0  0  1  0  0  0  0  0  0  0  0  0
  -29.7967  -27.9464   22.0976 C   0  0  2  0  0  0  0  0  0  0  0  0
  -26.7882  -31.6551   22.1876 C   0  0  0  0  0  0  0  0  0  0  0  0
  -29.3705  -25.1121   14.6081 C   0  0  0  0  0  0  0  0  0  0  0  0
  -26.6442  -27.3678   13.9038 N   0  0  0  0  0  0  0  0  0  0  0  0
  -26.0903  -19.3367   19.6065 N   0  0  0  0  0  0  0  0  0  0  0  0
  -28.1162  -25.7511   14.2932 N   0  0  0  0  0  0  0  0  0  0  0  0
  -27.1085  -20.2137   19.5900 N   0  0  0  0  0  0  0  0  0  0  0  0
  -24.6440  -28.9149   21.3166 N   0  0  0  0  0  0  0  0  0  0  0  0
  -26.5440  -23.5519   17.8161 N   0  0  0  0  0  0  0  0  0  0  0  0
  -29.4667  -20.3733   19.7455 N   0  0  0  0  0  0  0  0  0  0  0  0
  -28.6934  -15.9422   20.1500 N   0  0  0  0  0  0  0  0  0  0  0  0
  -21.3139  -29.5406   22.4343 N   0  0  0  0  0  0  0  0  0  0  0  0
  -27.8689  -29.3675   22.2403 N   0  0  0  0  0  0  0  0  0  0  0  0
  -28.5918  -24.0822   16.7582 N   0  0  0  0  0  0  0  0  0  0  0  0
  -30.1311  -26.6804   21.3860 N   0  3  0  0  0  0  0  0  0  0  0  0
  -30.3261  -17.5522   20.1188 O   0  0  0  0  0  0  0  0  0  0  0  0
  -22.5079  -30.2978   20.5841 O   0  0  0  0  0  0  0  0  0  0  0  0
  -25.2966  -29.4013   23.5015 O   0  0  0  0  0  0  0  0  0  0  0  0
  -28.5688  -28.6639   20.1445 O   0  0  0  0  0  0  0  0  0  0  0  0
  -27.0420  -25.7218   17.1669 O   0  0  0  0  0  0  0  0  0  0  0  0
  -23.7149  -13.4447   20.0427 O   0  0  0  0  0  0  0  0  0  0  0  0
  -23.8670  -27.2618   15.4246 O   0  0  0  0  0  0  0  0  0  1  0  0
  -25.4968   -9.1074   17.1414 F   0  0  0  0  0  0  0  0  0  0  0  0
  -26.2102  -12.3518   20.5134 F   0  0  0  0  0  0  0  0  0  0  0  0
  1  2  1  0  0  0  0
  1  5  2  0  0  0  0
  2  6  2  0  0  0  0
  3  8  2  0  0  0  0
  3 17  1  0  0  0  0
  4  9  1  0  0  0  0
  4 17  2  0  0  0  0
  5 19  1  0  0  0  0
  6 21  1  0  0  0  0
  7 10  2  0  0  0  0
  7 20  1  0  0  0  0
  8 23  1  0  0  0  0
  9 23  2  0  0  0  0
 10 24  1  0  0  0  0
 11 12  2  0  0  0  0
 11 25  1  0  0  0  0
 12 26  1  0  0  0  0
 13 22  1  0  0  0  0
 13 24  2  0  0  0  0
 14 26  2  0  0  0  0
 14 27  1  0  0  0  0
 15 29  2  0  0  0  0
 15 64  1  0  0  0  0
 16 62  2  0  0  0  0
 16 64  1  0  0  0  0
 17 28  1  0  0  0  0
 18 28  1  0  0  0  0
 18 30  2  0  0  0  0
 18 31  1  0  0  0  0
 19 21  2  0  0  0  0
 19 36  1  0  0  0  0
 20 22  2  0  0  0  0
 20 37  1  0  0  0  0
 21 45  1  0  0  0  0
 22 38  1  0  0  0  0
 23 79  1  0  0  0  0
 24 80  1  0  0  0  0
 25 27  2  0  0  0  0
 25 79  1  0  0  0  0
 26 81  1  0  0  0  0
 27 82  1  0  0  0  0
 28 63  2  0  0  0  0
 29 55  1  0  0  0  0
 29 62  1  0  0  0  0
 30 65  1  0  0  0  0
 30 68  1  0  0  0  0
 31 69  1  0  0  0  0
 31 74  2  0  0  0  0
 32 46  1  0  0  0  0
 32 70  1  0  0  0  0
 32 75  2  0  0  0  0
 33 58  1  0  0  0  0
 33 66  1  0  0  0  0
 33 76  2  0  0  0  0
 34 59  1  0  0  0  0
 34 71  1  0  0  0  0
 34 77  2  0  0  0  0
 35 67  1  0  0  0  0
 35 72  1  0  0  0  0
 35 78  2  0  0  0  0
 36 39  1  0  0  0  0
 37 46  1  0  0  0  0
 38 66  1  0  0  0  0
 39 41  1  0  0  0  0
 40 42  1  0  0  0  0
 40 43  1  0  0  0  0
 41 45  1  0  0  0  0
 42 47  1  0  0  0  0
 43 67  1  0  0  0  0
 44 47  1  0  0  0  0
 44 67  1  0  0  0  0
 45 70  1  0  0  0  0
 46 66  1  0  0  0  0
 47 65  1  0  0  0  0
 48 59  1  0  0  0  0
 49 60  1  0  0  0  0
 50 60  1  0  0  0  0
 51 60  1  0  0  0  0
 52 61  1  0  0  0  0
 53 61  1  0  0  0  0
 54 73  1  0  0  0  0
 55 57  1  0  0  0  0
 56 61  1  0  0  0  0
 56 72  1  0  0  0  0
 57 80  1  0  0  0  0
 58 60  1  0  0  0  0
 58 71  1  0  0  0  0
 59 73  1  0  0  0  0
 61 64  1  0  0  0  0
 63 65  1  0  0  0  0
M  CHG  1  73   1
M  ISO  4  35 100  57 101  72 100  80 101
M  END
> <Batch ID>
0060

> <Smiles>
CNC(C)C(=O)NC(C(=O)N1Cc2cc([101O:1][101CH2:1]Cc3cn(C(C)(C)C[100NH:0][100C:0](=O)N4CCCC(n5nc(-c6ccc(Oc7ccc(F)cc7F)cc6)c(C(N)=O)c5N)C4)cn3)ccc2CC1C(=O)NC1CCCc2ccccc21)C(C)(C)C

> <Shape>
0.209

> <Color>
0.074

> <Negative vol penalty>
0.000

$$$$

  -OEChem-04052317553D

 83 91  0     1  0  0  0  0  0999 V2000
  -26.2077  -29.5319   19.6915 C   0  0  0  0  0  0  0  0  0  0  0  0
  -26.5675  -28.3237   19.1031 C   0  0  0  0  0  0  0  0  0  0  0  0
  -30.5398  -22.0286   20.7974 C   0  0  0  0  0  0  0  0  0  0  0  0
  -29.8887  -22.0309   18.4707 C   0  0  0  0  0  0  0  0  0  0  0  0
  -25.3611  -29.5417   20.7992 C   0  0  0  0  0  0  0  0  0  0  0  0
  -26.0817  -27.1244   19.6229 C   0  0  0  0  0  0  0  0  0  0  0  0
  -24.0782  -20.5581   17.5771 C   0  0  0  0  0  0  0  0  0  0  0  0
  -31.0659  -23.3121   20.6514 C   0  0  0  0  0  0  0  0  0  0  0  0
  -30.4148  -23.3145   18.3248 C   0  0  0  0  0  0  0  0  0  0  0  0
  -24.3201  -19.2172   17.8725 C   0  0  0  0  0  0  0  0  0  0  0  0
  -32.2572  -26.7307   20.9821 C   0  0  0  0  0  0  0  0  0  0  0  0
  -31.9646  -27.6680   21.9728 C   0  0  0  0  0  0  0  0  0  0  0  0
  -22.8008  -19.3608   19.7407 C   0  0  0  0  0  0  0  0  0  0  0  0
  -29.6063  -27.4211   21.5099 C   0  0  0  0  0  0  0  0  0  0  0  0
  -29.9513  -21.3879   19.7070 C   0  0  0  0  0  0  0  0  0  0  0  0
  -28.0934  -19.7181   20.2244 C   0  0  0  0  0  0  0  0  0  0  0  0
  -24.8570  -28.3426   21.3269 C   0  0  0  0  0  0  0  0  0  0  0  0
  -23.2026  -21.3146   18.3692 C   0  0  0  0  0  0  0  0  0  0  0  0
  -25.2287  -27.1181   20.7396 C   0  0  0  0  0  0  0  0  0  0  0  0
  -22.5474  -20.7104   19.4517 C   0  0  0  0  0  0  0  0  0  0  0  0
  -31.0033  -23.9551   19.4152 C   0  0  0  0  0  0  0  0  0  0  0  0
  -23.6836  -18.6191   18.9562 C   0  0  0  0  0  0  0  0  0  0  0  0
  -31.2243  -26.1386   20.2552 C   0  0  0  0  0  0  0  0  0  0  0  0
  -30.6392  -28.0131   22.2367 C   0  0  0  0  0  0  0  0  0  0  0  0
  -29.8989  -26.4838   20.5191 C   0  0  0  0  0  0  0  0  0  0  0  0
  -29.4082  -20.0618   19.8570 C   0  0  0  0  0  0  0  0  0  0  0  0
  -28.0848  -18.3447   20.2246 C   0  0  0  0  0  0  0  0  0  0  0  0
  -23.1076  -13.1515   20.6353 C   0  0  0  0  0  0  0  0  0  0  0  0
  -25.2414  -13.7946   20.8998 C   0  0  0  0  0  0  0  0  0  0  0  0
  -23.6429  -15.3292   20.5441 C   0  0  0  0  0  0  0  0  0  0  0  0
  -26.9794  -20.5647   20.5374 C   0  0  0  0  0  0  0  0  0  0  0  0
  -23.4953  -23.9009   20.1938 C   0  0  0  0  0  0  0  0  0  0  0  0
  -20.2713  -23.6264   20.4238 C   0  0  0  0  0  0  0  0  0  0  0  0
  -17.5144  -21.6226   20.2481 C   0  0  0  0  0  0  0  0  0  0  0  0
  -29.5469  -13.6518   17.3686 C   0  0  0  0  0  0  0  0  0  0  0  0
  -23.9828  -28.4005   22.5546 C   0  0  0  0  0  0  0  0  0  0  0  0
  -22.9317  -22.7527   18.0213 C   0  0  0  0  0  0  0  0  0  0  0  0
  -21.5828  -21.4735   20.3210 C   0  0  0  0  0  0  0  0  0  0  0  0
  -23.2114  -27.1092   22.8145 C   0  0  0  0  0  0  0  0  0  0  0  0
  -31.8643  -15.0108   19.9150 C   0  0  0  0  0  0  0  0  0  0  0  0
  -24.1324  -25.9007   22.6792 C   0  0  0  0  0  0  0  0  0  0  0  0
  -31.3581  -16.4408   20.0967 C   0  0  0  0  0  0  0  0  0  0  0  0
  -31.5697  -14.4783   18.5160 C   0  0  0  0  0  0  0  0  0  0  0  0
  -29.6299  -15.9975   18.3086 C   0  0  0  0  0  0  0  0  0  0  0  0
  -24.7024  -25.7979   21.2593 C   0  0  1  0  0  0  0  0  0  0  0  0
  -22.4155  -23.5666   19.2039 C   0  0  1  0  0  0  0  0  0  0  0  0
  -29.8695  -16.5475   19.7227 C   0  0  2  0  0  0  0  0  0  0  0  0
  -22.0840  -12.0697   20.5687 C   0  0  0  0  0  0  0  0  0  0  0  0
  -15.0205  -21.6749   20.5220 C   0  0  0  0  0  0  0  0  0  0  0  0
  -20.6080  -23.6855   23.4558 C   0  0  0  0  0  0  0  0  0  0  0  0
  -18.2770  -22.7957   23.6622 C   0  0  0  0  0  0  0  0  0  0  0  0
  -18.6729  -25.0154   22.5950 C   0  0  0  0  0  0  0  0  0  0  0  0
  -27.5034  -12.4077   16.7720 C   0  0  0  0  0  0  0  0  0  0  0  0
  -17.0723  -20.8066   17.4378 C   0  0  0  0  0  0  0  0  0  0  0  0
  -26.6729  -13.4528   21.1377 C   0  0  0  0  0  0  0  0  0  0  0  0
  -23.2325  -16.7621   20.3717 C   0  0  0  0  0  0  0  0  0  1  0  0
  -27.4245  -12.9468   19.8903 C   0  0  0  0  0  0  0  0  0  0  0  0
  -27.4227  -13.9237   18.7164 C   0  0  0  0  0  0  0  0  0  0  0  0
  -19.3231  -22.9102   21.3549 C   0  0  1  0  0  0  0  0  0  0  0  0
  -16.1803  -21.8041   19.5469 C   0  0  2  0  0  0  0  0  0  0  0  0
  -19.2398  -23.5876   22.7520 C   0  0  0  0  0  0  0  0  0  0  0  0
  -30.1790  -18.9928   19.6397 N   0  0  0  0  0  0  0  0  0  0  0  0
  -24.3764  -12.7688   20.8523 N   0  0  0  0  0  0  0  0  0  0  0  0
  -22.6672  -14.4096   20.4722 N   0  0  0  0  0  0  0  0  0  0  0  0
  -24.9485  -15.0970   20.7547 N   0  0  0  0  0  0  0  0  0  0  0  0
  -29.3459  -17.9639   19.8714 N   0  0  0  0  0  0  0  0  0  0  0  0
  -21.3559  -22.8785   19.9440 N   0  0  0  0  0  0  0  0  0  0  0  0
  -30.1563  -14.6314   18.1697 N   0  0  0  0  0  0  0  0  0  0  0  0
  -27.1216  -17.4375   20.4925 N   0  0  0  0  0  0  0  0  0  0  0  0
  -27.1613  -21.9536   20.4886 N   0  0  0  0  0  0  0  0  0  0  0  0
  -23.7111  -25.2563   20.3547 N   0  0  0  0  0  0  0  0  0  0  0  0
  -18.0464  -22.8283   20.6536 N   0  0  0  0  0  0  0  0  0  0  0  0
  -28.1776  -13.4216   17.5704 N   0  0  0  0  0  0  0  0  0  0  0  0
  -16.0128  -20.7784   18.4788 N   0  3  0  0  0  0  0  0  0  0  0  0
  -25.8605  -20.1033   20.8670 O   0  0  0  0  0  0  0  0  0  0  0  0
  -24.0878  -22.9962   20.7702 O   0  0  0  0  0  0  0  0  0  0  0  0
  -20.0537  -24.8038   20.1273 O   0  0  0  0  0  0  0  0  0  0  0  0
  -18.0309  -20.5211   20.4223 O   0  0  0  0  0  0  0  0  0  0  0  0
  -30.1921  -13.0124   16.5279 O   0  0  0  0  0  0  0  0  0  0  0  0
  -31.5164  -25.2077   19.2725 O   0  0  0  0  0  0  0  0  0  0  0  0
  -23.9185  -17.3107   19.2471 O   0  0  0  0  0  0  0  0  0  1  0  0
  -30.3583  -28.9121   23.1892 F   0  0  0  0  0  0  0  0  0  0  0  0
  -28.9022  -25.9175   19.8249 F   0  0  0  0  0  0  0  0  0  0  0  0
  1  2  1  0  0  0  0
  1  5  2  0  0  0  0
  2  6  2  0  0  0  0
  3  8  2  0  0  0  0
  3 15  1  0  0  0  0
  4  9  1  0  0  0  0
  4 15  2  0  0  0  0
  5 17  1  0  0  0  0
  6 19  1  0  0  0  0
  7 10  2  0  0  0  0
  7 18  1  0  0  0  0
  8 21  1  0  0  0  0
  9 21  2  0  0  0  0
 10 22  1  0  0  0  0
 11 12  2  0  0  0  0
 11 23  1  0  0  0  0
 12 24  1  0  0  0  0
 13 20  1  0  0  0  0
 13 22  2  0  0  0  0
 14 24  2  0  0  0  0
 14 25  1  0  0  0  0
 15 26  1  0  0  0  0
 16 26  1  0  0  0  0
 16 27  2  0  0  0  0
 16 31  1  0  0  0  0
 17 19  2  0  0  0  0
 17 36  1  0  0  0  0
 18 20  2  0  0  0  0
 18 37  1  0  0  0  0
 19 45  1  0  0  0  0
 20 38  1  0  0  0  0
 21 80  1  0  0  0  0
 22 81  1  0  0  0  0
 23 25  2  0  0  0  0
 23 80  1  0  0  0  0
 24 82  1  0  0  0  0
 25 83  1  0  0  0  0
 26 62  2  0  0  0  0
 27 66  1  0  0  0  0
 27 69  1  0  0  0  0
 28 48  1  0  0  0  0
 28 63  1  0  0  0  0
 28 64  2  0  0  0  0
 29 55  1  0  0  0  0
 29 63  2  0  0  0  0
 29 65  1  0  0  0  0
 30 56  1  0  0  0  0
 30 64  1  0  0  0  0
 30 65  2  0  0  0  0
 31 70  1  0  0  0  0
 31 75  2  0  0  0  0
 32 46  1  0  0  0  0
 32 71  1  0  0  0  0
 32 76  2  0  0  0  0
 33 59  1  0  0  0  0
 33 67  1  0  0  0  0
 33 77  2  0  0  0  0
 34 60  1  0  0  0  0
 34 72  1  0  0  0  0
 34 78  2  0  0  0  0
 35 68  1  0  0  0  0
 35 73  1  0  0  0  0
 35 79  2  0  0  0  0
 36 39  1  0  0  0  0
 37 46  1  0  0  0  0
 38 67  1  0  0  0  0
 39 41  1  0  0  0  0
 40 42  1  0  0  0  0
 40 43  1  0  0  0  0
 41 45  1  0  0  0  0
 42 47  1  0  0  0  0
 43 68  1  0  0  0  0
 44 47  1  0  0  0  0
 44 68  1  0  0  0  0
 45 71  1  0  0  0  0
 46 67  1  0  0  0  0
 47 66  1  0  0  0  0
 49 60  1  0  0  0  0
 50 61  1  0  0  0  0
 51 61  1  0  0  0  0
 52 61  1  0  0  0  0
 53 73  1  0  0  0  0
 54 74  1  0  0  0  0
 55 57  1  0  0  0  0
 56 81  1  0  0  0  0
 57 58  1  0  0  0  0
 58 73  1  0  0  0  0
 59 61  1  0  0  0  0
 59 72  1  0  0  0  0
 60 74  1  0  0  0  0
 62 66  1  0  0  0  0
M  CHG  1  74   1
M  ISO  4  35 100  56 101  73 100  81 101
M  END
> <Batch ID>
0060

> <Smiles>
CNC(C)C(=O)NC(C(=O)N1Cc2cc([101O:1][101CH2:1]c3nc(C)nc(CCC[100N:0](C)[100C:0](=O)N4CCCC(n5nc(-c6ccc(Oc7ccc(F)cc7F)cc6)c(C(N)=O)c5N)C4)n3)ccc2CC1C(=O)NC1CCCc2ccccc21)C(C)(C)C

> <Shape>
0.204

> <Color>
0.063

> <Negative vol penalty>
0.000

$$$$

  -OEChem-04052317553D

 83 91  0     1  0  0  0  0  0999 V2000
  -17.3269  -25.0455   20.9857 C   0  0  0  0  0  0  0  0  0  0  0  0
  -18.5293  -25.0173   20.2864 C   0  0  0  0  0  0  0  0  0  0  0  0
  -22.6064  -14.9066   20.0326 C   0  0  0  0  0  0  0  0  0  0  0  0
  -24.0821  -14.3034   21.8479 C   0  0  0  0  0  0  0  0  0  0  0  0
  -17.1354  -25.9791   22.0034 C   0  0  0  0  0  0  0  0  0  0  0  0
  -19.5405  -25.9236   20.6037 C   0  0  0  0  0  0  0  0  0  0  0  0
  -24.0986  -23.7333   20.8705 C   0  0  0  0  0  0  0  0  0  0  0  0
  -21.9439  -13.6864   20.1657 C   0  0  0  0  0  0  0  0  0  0  0  0
  -23.4195  -13.0832   21.9811 C   0  0  0  0  0  0  0  0  0  0  0  0
  -24.7404  -23.4501   19.6657 C   0  0  0  0  0  0  0  0  0  0  0  0
  -23.3831  -10.0847   20.4195 C   0  0  0  0  0  0  0  0  0  0  0  0
  -24.1620   -8.9369   20.5657 C   0  0  0  0  0  0  0  0  0  0  0  0
  -26.0880  -25.4342   19.9240 C   0  0  0  0  0  0  0  0  0  0  0  0
  -23.1291   -8.5087   22.7074 C   0  0  0  0  0  0  0  0  0  0  0  0
  -30.0444  -23.3499   16.7107 C   0  0  0  0  0  0  0  0  0  0  0  0
  -23.6756  -15.2151   20.8736 C   0  0  0  0  0  0  0  0  0  0  0  0
  -24.0542  -17.6849   21.3876 C   0  0  0  0  0  0  0  0  0  0  0  0
  -18.1484  -26.8909   22.3398 C   0  0  0  0  0  0  0  0  0  0  0  0
  -24.4397  -24.8769   21.6069 C   0  0  0  0  0  0  0  0  0  0  0  0
  -19.3618  -26.8711   21.6259 C   0  0  0  0  0  0  0  0  0  0  0  0
  -25.4508  -25.7283   21.1392 C   0  0  0  0  0  0  0  0  0  0  0  0
  -22.3504  -12.7747   21.1400 C   0  0  0  0  0  0  0  0  0  0  0  0
  -25.7332  -24.3021   19.1908 C   0  0  0  0  0  0  0  0  0  0  0  0
  -22.4772  -10.4446   21.4173 C   0  0  0  0  0  0  0  0  0  0  0  0
  -24.0350   -8.1489   21.7096 C   0  0  0  0  0  0  0  0  0  0  0  0
  -22.3502   -9.6566   22.5612 C   0  0  0  0  0  0  0  0  0  0  0  0
  -24.3607  -16.4752   20.7362 C   0  0  0  0  0  0  0  0  0  0  0  0
  -31.1753  -23.6851   17.4269 C   0  0  0  0  0  0  0  0  0  0  0  0
  -28.9904  -22.8595   17.4543 C   0  0  0  0  0  0  0  0  0  0  0  0
  -24.9923  -18.5732   20.9213 C   0  0  0  0  0  0  0  0  0  0  0  0
  -30.1848  -23.0666   19.3772 C   0  0  0  0  0  0  0  0  0  0  0  0
  -23.0145  -17.9794   22.3299 C   0  0  0  0  0  0  0  0  0  0  0  0
  -22.8884  -27.4903   22.5384 C   0  0  0  0  0  0  0  0  0  0  0  0
  -25.6406  -28.0765   24.1522 C   0  0  0  0  0  0  0  0  0  0  0  0
  -29.0021  -27.5577   24.4315 C   0  0  0  0  0  0  0  0  0  0  0  0
  -30.2639  -19.8334   19.5920 C   0  0  0  0  0  0  0  0  0  0  0  0
  -17.8775  -27.9126   23.4156 C   0  0  0  0  0  0  0  0  0  0  0  0
  -23.7566  -25.1540   22.9181 C   0  0  0  0  0  0  0  0  0  0  0  0
  -25.8681  -26.9580   21.9022 C   0  0  0  0  0  0  0  0  0  0  0  0
  -19.1390  -28.5924   23.9416 C   0  0  0  0  0  0  0  0  0  0  0  0
  -28.3108  -18.1667   17.1254 C   0  0  0  0  0  0  0  0  0  0  0  0
  -20.0325  -29.0282   22.7847 C   0  0  0  0  0  0  0  0  0  0  0  0
  -27.0875  -17.6728   17.8998 C   0  0  0  0  0  0  0  0  0  0  0  0
  -29.5813  -18.0907   17.9691 C   0  0  0  0  0  0  0  0  0  0  0  0
  -28.2749  -18.2747   20.0507 C   0  0  0  0  0  0  0  0  0  0  0  0
  -20.4918  -27.8215   21.9574 C   0  0  1  0  0  0  0  0  0  0  0  0
  -23.8253  -26.6216   23.3291 C   0  0  1  0  0  0  0  0  0  0  0  0
  -26.9600  -18.3847   19.2600 C   0  0  2  0  0  0  0  0  0  0  0  0
  -32.3669  -24.2248   16.7093 C   0  0  0  0  0  0  0  0  0  0  0  0
  -28.8947  -23.1540   21.5340 C   0  0  0  0  0  0  0  0  0  0  0  0
  -30.9851  -28.2004   25.8286 C   0  0  0  0  0  0  0  0  0  0  0  0
  -25.7051  -30.8103   22.7987 C   0  0  0  0  0  0  0  0  0  0  0  0
  -28.1114  -31.0045   23.4621 C   0  0  0  0  0  0  0  0  0  0  0  0
  -26.3463  -30.8276   25.2159 C   0  0  0  0  0  0  0  0  0  0  0  0
  -29.4987  -24.7503   25.2257 C   0  0  0  0  0  0  0  0  0  0  0  0
  -27.7093  -22.4670   16.7593 C   0  0  0  0  0  0  0  0  0  0  0  0
  -30.8171  -21.5393   21.3074 C   0  0  0  0  0  0  0  0  0  0  0  0
  -26.4857  -22.6544   17.6497 C   0  0  0  0  0  0  0  0  0  1  0  0
  -30.2608  -22.9125   20.8585 C   0  0  1  0  0  0  0  0  0  0  0  0
  -26.9329  -28.7907   23.8378 C   0  0  1  0  0  0  0  0  0  0  0  0
  -29.8688  -27.1885   25.6218 C   0  0  2  0  0  0  0  0  0  0  0  0
  -26.7649  -30.3362   23.8130 C   0  0  0  0  0  0  0  0  0  0  0  0
  -25.4113  -16.5817   19.9183 N   0  0  0  0  0  0  0  0  0  0  0  0
  -31.2804  -23.5559   18.7658 N   0  0  0  0  0  0  0  0  0  0  0  0
  -29.0264  -22.7039   18.7940 N   0  0  0  0  0  0  0  0  0  0  0  0
  -25.7730  -17.8690   20.0525 N   0  0  0  0  0  0  0  0  0  0  0  0
  -25.1663  -27.1894   23.1755 N   0  0  0  0  0  0  0  0  0  0  0  0
  -29.3945  -18.7862   19.2448 N   0  0  0  0  0  0  0  0  0  0  0  0
  -25.2171  -19.8802   21.1736 N   0  0  0  0  0  0  0  0  0  0  0  0
  -22.1374  -16.9509   22.7002 N   0  0  0  0  0  0  0  0  0  0  0  0
  -21.5606  -27.1206   22.6364 N   0  0  0  0  0  0  0  0  0  0  0  0
  -27.9108  -28.3114   24.8086 N   0  0  0  0  0  0  0  0  0  0  0  0
  -30.0130  -20.4431   20.8151 N   0  0  0  0  0  0  0  0  0  0  0  0
  -30.4831  -25.8460   25.4187 N   0  3  0  0  0  0  0  0  0  0  0  0
  -22.8575  -19.1249   22.8164 O   0  0  0  0  0  0  0  0  0  0  0  0
  -23.3369  -28.4276   21.8887 O   0  0  0  0  0  0  0  0  0  0  0  0
  -25.0766  -28.2922   25.2279 O   0  0  0  0  0  0  0  0  0  0  0  0
  -29.2686  -27.2151   23.2817 O   0  0  0  0  0  0  0  0  0  0  0  0
  -31.1916  -20.2014   18.8633 O   0  0  0  0  0  0  0  0  0  0  0  0
  -21.7040  -11.5840   21.2704 O   0  0  0  0  0  0  0  0  0  0  0  0
  -26.3608  -24.0283   18.0148 O   0  0  0  0  0  0  0  0  0  1  0  0
  -24.7820   -7.0459   21.8492 F   0  0  0  0  0  0  0  0  0  0  0  0
  -21.4808   -9.9966   23.5227 F   0  0  0  0  0  0  0  0  0  0  0  0
  1  2  1  0  0  0  0
  1  5  2  0  0  0  0
  2  6  2  0  0  0  0
  3  8  2  0  0  0  0
  3 16  1  0  0  0  0
  4  9  1  0  0  0  0
  4 16  2  0  0  0  0
  5 18  1  0  0  0  0
  6 20  1  0  0  0  0
  7 10  2  0  0  0  0
  7 19  1  0  0  0  0
  8 22  1  0  0  0  0
  9 22  2  0  0  0  0
 10 23  1  0  0  0  0
 11 12  2  0  0  0  0
 11 24  1  0  0  0  0
 12 25  1  0  0  0  0
 13 21  1  0  0  0  0
 13 23  2  0  0  0  0
 14 25  2  0  0  0  0
 14 26  1  0  0  0  0
 15 28  2  0  0  0  0
 15 29  1  0  0  0  0
 16 27  1  0  0  0  0
 17 27  1  0  0  0  0
 17 30  2  0  0  0  0
 17 32  1  0  0  0  0
 18 20  2  0  0  0  0
 18 37  1  0  0  0  0
 19 21  2  0  0  0  0
 19 38  1  0  0  0  0
 20 46  1  0  0  0  0
 21 39  1  0  0  0  0
 22 80  1  0  0  0  0
 23 81  1  0  0  0  0
 24 26  2  0  0  0  0
 24 80  1  0  0  0  0
 25 82  1  0  0  0  0
 26 83  1  0  0  0  0
 27 63  2  0  0  0  0
 28 49  1  0  0  0  0
 28 64  1  0  0  0  0
 29 56  1  0  0  0  0
 29 65  2  0  0  0  0
 30 66  1  0  0  0  0
 30 69  1  0  0  0  0
 31 59  1  0  0  0  0
 31 64  2  0  0  0  0
 31 65  1  0  0  0  0
 32 70  1  0  0  0  0
 32 75  2  0  0  0  0
 33 47  1  0  0  0  0
 33 71  1  0  0  0  0
 33 76  2  0  0  0  0
 34 60  1  0  0  0  0
 34 67  1  0  0  0  0
 34 77  2  0  0  0  0
 35 61  1  0  0  0  0
 35 72  1  0  0  0  0
 35 78  2  0  0  0  0
 36 68  1  0  0  0  0
 36 73  1  0  0  0  0
 36 79  2  0  0  0  0
 37 40  1  0  0  0  0
 38 47  1  0  0  0  0
 39 67  1  0  0  0  0
 40 42  1  0  0  0  0
 41 43  1  0  0  0  0
 41 44  1  0  0  0  0
 42 46  1  0  0  0  0
 43 48  1  0  0  0  0
 44 68  1  0  0  0  0
 45 48  1  0  0  0  0
 45 68  1  0  0  0  0
 46 71  1  0  0  0  0
 47 67  1  0  0  0  0
 48 66  1  0  0  0  0
 50 59  1  0  0  0  0
 51 61  1  0  0  0  0
 52 62  1  0  0  0  0
 53 62  1  0  0  0  0
 54 62  1  0  0  0  0
 55 74  1  0  0  0  0
 56 58  1  0  0  0  0
 57 59  1  0  0  0  0
 57 73  1  0  0  0  0
 58 81  1  0  0  0  0
 60 62  1  0  0  0  0
 60 72  1  0  0  0  0
 61 74  1  0  0  0  0
 63 66  1  0  0  0  0
M  CHG  1  74   1
M  ISO  4  36 100  58 101  73 100  81 101
M  END
> <Batch ID>
0060

> <Smiles>
CNC(C)C(=O)NC(C(=O)N1Cc2cc([101O:1][101CH2:1]Cc3cc(C)nc(C(C)C[100NH:0][100C:0](=O)N4CCCC(n5nc(-c6ccc(Oc7ccc(F)cc7F)cc6)c(C(N)=O)c5N)C4)n3)ccc2CC1C(=O)NC1CCCc2ccccc21)C(C)(C)C

> <Shape>
0.223

> <Color>
0.056

> <Negative vol penalty>
0.000

$$$$

  -OEChem-04052317553D

 82 90  0     1  0  0  0  0  0999 V2000
  -29.3870   -8.6669   37.5012 C   0  0  0  0  0  0  0  0  0  0  0  0
  -29.4728   -8.7810   36.1173 C   0  0  0  0  0  0  0  0  0  0  0  0
  -23.1901   -9.8192   19.9312 C   0  0  0  0  0  0  0  0  0  0  0  0
  -23.5670   -9.9996   22.3108 C   0  0  0  0  0  0  0  0  0  0  0  0
  -28.2673   -8.0734   38.0825 C   0  0  0  0  0  0  0  0  0  0  0  0
  -28.4393   -8.3007   35.3139 C   0  0  0  0  0  0  0  0  0  0  0  0
  -27.1745  -11.5402   31.6327 C   0  0  0  0  0  0  0  0  0  0  0  0
  -22.4236   -8.6726   20.1395 C   0  0  0  0  0  0  0  0  0  0  0  0
  -22.8005   -8.8530   22.5192 C   0  0  0  0  0  0  0  0  0  0  0  0
  -28.0082  -11.5925   30.5164 C   0  0  0  0  0  0  0  0  0  0  0  0
  -21.2422   -5.7693   23.6472 C   0  0  0  0  0  0  0  0  0  0  0  0
  -21.7380   -4.8095   24.5295 C   0  0  0  0  0  0  0  0  0  0  0  0
  -26.4645  -10.1893   29.3051 C   0  0  0  0  0  0  0  0  0  0  0  0
  -23.6974   -4.5454   23.1410 C   0  0  0  0  0  0  0  0  0  0  0  0
  -23.7618  -10.4827   21.0169 C   0  0  0  0  0  0  0  0  0  0  0  0
  -24.1008  -12.9994   20.7733 C   0  0  0  0  0  0  0  0  0  0  0  0
  -27.2152   -7.5943   37.2862 C   0  0  0  0  0  0  0  0  0  0  0  0
  -25.9829  -10.8018   31.5970 C   0  0  0  0  0  0  0  0  0  0  0  0
  -27.3050   -7.6991   35.8850 C   0  0  0  0  0  0  0  0  0  0  0  0
  -25.6162  -10.1313   30.4214 C   0  0  0  0  0  0  0  0  0  0  0  0
  -22.2288   -8.1895   21.4335 C   0  0  0  0  0  0  0  0  0  0  0  0
  -27.6547  -10.9147   29.3534 C   0  0  0  0  0  0  0  0  0  0  0  0
  -21.9739   -6.1172   22.5117 C   0  0  0  0  0  0  0  0  0  0  0  0
  -22.9656   -4.1975   24.2764 C   0  0  0  0  0  0  0  0  0  0  0  0
  -23.2016   -5.5052   22.2587 C   0  0  0  0  0  0  0  0  0  0  0  0
  -24.5542  -11.6669   20.8023 C   0  0  0  0  0  0  0  0  0  0  0  0
  -25.2322  -13.7419   20.5387 C   0  0  0  0  0  0  0  0  0  0  0  0
  -30.4046  -11.6834   27.0742 C   0  0  0  0  0  0  0  0  0  0  0  0
  -31.1631  -12.2892   25.2264 C   0  0  0  0  0  0  0  0  0  0  0  0
  -22.7755  -13.5193   20.9433 C   0  0  0  0  0  0  0  0  0  0  0  0
  -24.8472   -8.2976   33.1917 C   0  0  0  0  0  0  0  0  0  0  0  0
  -22.1477   -8.9464   31.5142 C   0  0  0  0  0  0  0  0  0  0  0  0
  -20.7212  -10.3541   28.7519 C   0  0  0  0  0  0  0  0  0  0  0  0
  -31.0463  -12.7517   21.5714 C   0  0  0  0  0  0  0  0  0  0  0  0
  -26.0464   -6.9177   37.9578 C   0  0  0  0  0  0  0  0  0  0  0  0
  -25.0814  -10.7772   32.8008 C   0  0  0  0  0  0  0  0  0  0  0  0
  -24.3376   -9.3411   30.3250 C   0  0  0  0  0  0  0  0  0  0  0  0
  -24.8251   -6.7723   37.0537 C   0  0  0  0  0  0  0  0  0  0  0  0
  -29.5208  -13.4691   18.4353 C   0  0  0  0  0  0  0  0  0  0  0  0
  -25.2353   -6.2425   35.6833 C   0  0  0  0  0  0  0  0  0  0  0  0
  -28.0341  -13.2088   18.6837 C   0  0  0  0  0  0  0  0  0  0  0  0
  -30.4016  -12.4797   19.1951 C   0  0  0  0  0  0  0  0  0  0  0  0
  -28.6471  -12.1370   20.8915 C   0  0  0  0  0  0  0  0  0  0  0  0
  -26.1932   -7.2124   34.9810 C   0  0  1  0  0  0  0  0  0  0  0  0
  -24.1447   -9.5731   32.8213 C   0  0  1  0  0  0  0  0  0  0  0  0
  -27.7201  -13.1448   20.1906 C   0  0  2  0  0  0  0  0  0  0  0  0
  -31.6558  -14.5294   24.1773 C   0  0  0  0  0  0  0  0  0  0  0  0
  -18.4979  -10.6911   27.6381 C   0  0  0  0  0  0  0  0  0  0  0  0
  -31.9599   -8.6732   24.8452 C   0  0  0  0  0  0  0  0  0  0  0  0
  -33.8618  -10.3393   24.9588 C   0  0  0  0  0  0  0  0  0  0  0  0
  -22.1719   -6.0382   30.5914 C   0  0  0  0  0  0  0  0  0  0  0  0
  -20.5500   -6.6686   28.7914 C   0  0  0  0  0  0  0  0  0  0  0  0
  -19.9109   -6.9242   31.1891 C   0  0  0  0  0  0  0  0  0  0  0  0
  -20.9520  -13.2997   28.9219 C   0  0  0  0  0  0  0  0  0  0  0  0
  -29.6661  -11.7283   28.3796 C   0  0  0  0  0  0  0  0  0  1  0  0
  -31.5350  -13.0029   23.9915 C   0  0  2  0  0  0  0  0  0  0  0  0
  -21.5912   -8.5196   30.1774 C   0  0  1  0  0  0  0  0  0  0  0  0
  -19.5253  -11.2759   28.5947 C   0  0  2  0  0  0  0  0  0  0  0  0
  -32.3691  -10.1393   24.6904 C   0  0  0  0  0  0  0  0  0  0  0  0
  -21.0811   -7.0509   30.1895 C   0  0  0  0  0  0  0  0  0  0  0  0
  -25.8709  -11.5657   20.6020 N   0  0  0  0  0  0  0  0  0  0  0  0
  -30.4283  -12.7440   26.2145 N   0  0  0  0  0  0  0  0  0  0  0  0
  -31.0786  -10.6009   26.6802 N   0  0  0  0  0  0  0  0  0  0  0  0
  -26.2546  -12.8441   20.4447 N   0  0  0  0  0  0  0  0  0  0  0  0
  -31.5541  -11.0147   25.4957 N   0  0  0  0  0  0  0  0  0  0  0  0
  -23.4927   -9.3422   31.5307 N   0  0  0  0  0  0  0  0  0  0  0  0
  -30.0542  -12.4686   20.6181 N   0  0  0  0  0  0  0  0  0  0  0  0
  -25.4423  -15.0688   20.4055 N   0  0  0  0  0  0  0  0  0  0  0  0
  -21.7287  -12.6172   21.1767 N   0  0  0  0  0  0  0  0  0  0  0  0
  -25.4626   -8.3329   34.4284 N   0  0  0  0  0  0  0  0  0  0  0  0
  -20.5723   -9.5031   29.8265 N   0  0  0  0  0  0  0  0  0  0  0  0
  -30.6313  -12.7264   22.8972 N   0  0  0  0  0  0  0  0  0  0  0  0
  -19.9582  -12.6007   28.0671 N   0  3  0  0  0  0  0  0  0  0  0  0
  -22.5244  -14.7464   20.8735 O   0  0  0  0  0  0  0  0  0  0  0  0
  -24.8308   -7.3509   32.4137 O   0  0  0  0  0  0  0  0  0  0  0  0
  -21.4141   -8.9361   32.5058 O   0  0  0  0  0  0  0  0  0  0  0  0
  -21.6888  -10.3834   27.9947 O   0  0  0  0  0  0  0  0  0  0  0  0
  -32.2141  -13.0132   21.2634 O   0  0  0  0  0  0  0  0  0  0  0  0
  -21.4807   -7.0708   21.6371 O   0  0  0  0  0  0  0  0  0  0  0  0
  -28.4670  -10.9637   28.2626 O   0  0  0  0  0  0  0  0  0  1  0  0
  -23.4423   -3.2769   25.1246 F   0  0  0  0  0  0  0  0  0  0  0  0
  -23.9097   -5.8361   21.1701 F   0  0  0  0  0  0  0  0  0  0  0  0
  1  2  1  0  0  0  0
  1  5  2  0  0  0  0
  2  6  2  0  0  0  0
  3  8  2  0  0  0  0
  3 15  1  0  0  0  0
  4  9  1  0  0  0  0
  4 15  2  0  0  0  0
  5 17  1  0  0  0  0
  6 19  1  0  0  0  0
  7 10  2  0  0  0  0
  7 18  1  0  0  0  0
  8 21  1  0  0  0  0
  9 21  2  0  0  0  0
 10 22  1  0  0  0  0
 11 12  2  0  0  0  0
 11 23  1  0  0  0  0
 12 24  1  0  0  0  0
 13 20  1  0  0  0  0
 13 22  2  0  0  0  0
 14 24  2  0  0  0  0
 14 25  1  0  0  0  0
 15 26  1  0  0  0  0
 16 26  1  0  0  0  0
 16 27  2  0  0  0  0
 16 30  1  0  0  0  0
 17 19  2  0  0  0  0
 17 35  1  0  0  0  0
 18 20  2  0  0  0  0
 18 36  1  0  0  0  0
 19 44  1  0  0  0  0
 20 37  1  0  0  0  0
 21 79  1  0  0  0  0
 22 80  1  0  0  0  0
 23 25  2  0  0  0  0
 23 79  1  0  0  0  0
 24 81  1  0  0  0  0
 25 82  1  0  0  0  0
 26 61  2  0  0  0  0
 27 64  1  0  0  0  0
 27 68  1  0  0  0  0
 28 55  1  0  0  0  0
 28 62  1  0  0  0  0
 28 63  2  0  0  0  0
 29 56  1  0  0  0  0
 29 62  2  0  0  0  0
 29 65  1  0  0  0  0
 30 69  1  0  0  0  0
 30 74  2  0  0  0  0
 31 45  1  0  0  0  0
 31 70  1  0  0  0  0
 31 75  2  0  0  0  0
 32 57  1  0  0  0  0
 32 66  1  0  0  0  0
 32 76  2  0  0  0  0
 33 58  1  0  0  0  0
 33 71  1  0  0  0  0
 33 77  2  0  0  0  0
 34 67  1  0  0  0  0
 34 72  1  0  0  0  0
 34 78  2  0  0  0  0
 35 38  1  0  0  0  0
 36 45  1  0  0  0  0
 37 66  1  0  0  0  0
 38 40  1  0  0  0  0
 39 41  1  0  0  0  0
 39 42  1  0  0  0  0
 40 44  1  0  0  0  0
 41 46  1  0  0  0  0
 42 67  1  0  0  0  0
 43 46  1  0  0  0  0
 43 67  1  0  0  0  0
 44 70  1  0  0  0  0
 45 66  1  0  0  0  0
 46 64  1  0  0  0  0
 47 56  1  0  0  0  0
 48 58  1  0  0  0  0
 49 59  1  0  0  0  0
 50 59  1  0  0  0  0
 51 60  1  0  0  0  0
 52 60  1  0  0  0  0
 53 60  1  0  0  0  0
 54 73  1  0  0  0  0
 55 80  1  0  0  0  0
 56 72  1  0  0  0  0
 57 60  1  0  0  0  0
 57 71  1  0  0  0  0
 58 73  1  0  0  0  0
 59 65  1  0  0  0  0
 61 64  1  0  0  0  0
 63 65  1  0  0  0  0
M  CHG  1  73   1
M  ISO  4  34 100  55 101  72 100  80 101
M  END
> <Batch ID>
0060

> <Smiles>
CNC(C)C(=O)NC(C(=O)N1Cc2cc([101O:1][101CH2:1]c3nc(C(C)[100NH:0][100C:0](=O)N4CCCC(n5nc(-c6ccc(Oc7ccc(F)cc7F)cc6)c(C(N)=O)c5N)C4)n(C(C)C)n3)ccc2CC1C(=O)NC1CCCc2ccccc21)C(C)(C)C

> <Shape>
0.139

> <Color>
0.178

> <Negative vol penalty>
0.000

$$$$

  -OEChem-04052317553D

 83 91  0     1  0  0  0  0  0999 V2000
  -20.6418  -35.2936   22.4982 C   0  0  0  0  0  0  0  0  0  0  0  0
  -21.8382  -34.7305   22.0660 C   0  0  0  0  0  0  0  0  0  0  0  0
  -29.8950  -16.6309   21.4432 C   0  0  0  0  0  0  0  0  0  0  0  0
  -32.0331  -17.2192   20.4841 C   0  0  0  0  0  0  0  0  0  0  0  0
  -19.8078  -34.5807   23.3586 C   0  0  0  0  0  0  0  0  0  0  0  0
  -22.2020  -33.4544   22.4948 C   0  0  0  0  0  0  0  0  0  0  0  0
  -25.2514  -29.2223   19.2861 C   0  0  0  0  0  0  0  0  0  0  0  0
  -30.1360  -15.2873   21.1564 C   0  0  0  0  0  0  0  0  0  0  0  0
  -32.2741  -15.8755   20.1974 C   0  0  0  0  0  0  0  0  0  0  0  0
  -26.5941  -28.8476   19.2661 C   0  0  0  0  0  0  0  0  0  0  0  0
  -29.9924  -13.2512   18.4623 C   0  0  0  0  0  0  0  0  0  0  0  0
  -28.9537  -12.5142   17.8936 C   0  0  0  0  0  0  0  0  0  0  0  0
  -26.1131  -27.0633   20.8166 C   0  0  0  0  0  0  0  0  0  0  0  0
  -28.9909  -11.0058   19.7805 C   0  0  0  0  0  0  0  0  0  0  0  0
  -31.3520  -27.8193   20.4156 C   0  0  0  0  0  0  0  0  0  0  0  0
  -30.8435  -17.5969   21.1070 C   0  0  0  0  0  0  0  0  0  0  0  0
  -30.9332  -19.6772   22.5807 C   0  0  0  0  0  0  0  0  0  0  0  0
  -20.1569  -33.2914   23.7905 C   0  0  0  0  0  0  0  0  0  0  0  0
  -24.3299  -28.5259   20.0812 C   0  0  0  0  0  0  0  0  0  0  0  0
  -21.3726  -32.7242   23.3628 C   0  0  0  0  0  0  0  0  0  0  0  0
  -24.7587  -27.4296   20.8429 C   0  0  0  0  0  0  0  0  0  0  0  0
  -31.3256  -14.9096   20.5335 C   0  0  0  0  0  0  0  0  0  0  0  0
  -27.0257  -27.7698   20.0336 C   0  0  0  0  0  0  0  0  0  0  0  0
  -30.5305  -12.8654   19.6901 C   0  0  0  0  0  0  0  0  0  0  0  0
  -28.4529  -11.3915   18.5527 C   0  0  0  0  0  0  0  0  0  0  0  0
  -30.0297  -11.7427   20.3492 C   0  0  0  0  0  0  0  0  0  0  0  0
  -30.5949  -18.9850   21.4024 C   0  0  0  0  0  0  0  0  0  0  0  0
  -32.6105  -27.2532   20.4178 C   0  0  0  0  0  0  0  0  0  0  0  0
  -30.5967  -27.5913   19.2834 C   0  0  0  0  0  0  0  0  0  0  0  0
  -30.4858  -20.9581   22.3669 C   0  0  0  0  0  0  0  0  0  0  0  0
  -32.2711  -26.3686   18.3515 C   0  0  0  0  0  0  0  0  0  0  0  0
  -31.5929  -19.2047   23.7627 C   0  0  0  0  0  0  0  0  0  0  0  0
  -22.4509  -29.2899   22.5286 C   0  0  0  0  0  0  0  0  0  0  0  0
  -21.3454  -26.2680   22.1189 C   0  0  0  0  0  0  0  0  0  0  0  0
  -21.9118  -23.1077   20.9620 C   0  0  0  0  0  0  0  0  0  0  0  0
  -29.4718  -24.1474   17.4019 C   0  0  0  0  0  0  0  0  0  0  0  0
  -19.2459  -32.5784   24.7581 C   0  0  0  0  0  0  0  0  0  0  0  0
  -22.8799  -28.9260   20.0711 C   0  0  0  0  0  0  0  0  0  0  0  0
  -23.8055  -26.6364   21.6977 C   0  0  0  0  0  0  0  0  0  0  0  0
  -19.5254  -31.0817   24.8679 C   0  0  0  0  0  0  0  0  0  0  0  0
  -27.1356  -23.4054   19.9841 C   0  0  0  0  0  0  0  0  0  0  0  0
  -21.0224  -30.8276   25.0139 C   0  0  0  0  0  0  0  0  0  0  0  0
  -27.7878  -22.2508   20.7467 C   0  0  0  0  0  0  0  0  0  0  0  0
  -27.4050  -23.3143   18.4837 C   0  0  0  0  0  0  0  0  0  0  0  0
  -29.4809  -22.0461   18.8786 C   0  0  0  0  0  0  0  0  0  0  0  0
  -21.7900  -31.3325   23.7862 C   0  0  1  0  0  0  0  0  0  0  0  0
  -22.1247  -28.4669   21.3146 C   0  0  1  0  0  0  0  0  0  0  0  0
  -29.2840  -22.1255   20.4021 C   0  0  2  0  0  0  0  0  0  0  0  0
  -33.5007  -27.4446   21.5997 C   0  0  0  0  0  0  0  0  0  0  0  0
  -20.8369  -20.8456   20.8040 C   0  0  0  0  0  0  0  0  0  0  0  0
  -33.8008  -24.4291   17.5800 C   0  0  0  0  0  0  0  0  0  0  0  0
  -33.5475  -26.4708   16.1933 C   0  0  0  0  0  0  0  0  0  0  0  0
  -21.9243  -25.7890   25.0761 C   0  0  0  0  0  0  0  0  0  0  0  0
  -21.7456  -23.3299   24.6412 C   0  0  0  0  0  0  0  0  0  0  0  0
  -19.7725  -24.8084   24.2622 C   0  0  0  0  0  0  0  0  0  0  0  0
  -21.9955  -23.1462   18.0039 C   0  0  0  0  0  0  0  0  0  0  0  0
  -29.2136  -28.1654   19.1895 C   0  0  0  0  0  0  0  0  0  1  0  0
  -31.6248  -24.8658   16.3981 C   0  0  0  0  0  0  0  0  0  0  0  0
  -21.7233  -24.9091   22.6572 C   0  0  1  0  0  0  0  0  0  0  0  0
  -21.0643  -22.1797   20.1104 C   0  0  2  0  0  0  0  0  0  0  0  0
  -32.7796  -25.5598   17.2064 C   0  0  0  0  0  0  0  0  0  0  0  0
  -21.3100  -24.7250   24.1447 C   0  0  0  0  0  0  0  0  0  0  0  0
  -29.9799  -19.7618   20.5066 N   0  0  0  0  0  0  0  0  0  0  0  0
  -33.1040  -26.5192   19.3990 N   0  0  0  0  0  0  0  0  0  0  0  0
  -31.0266  -26.8681   18.2286 N   0  0  0  0  0  0  0  0  0  0  0  0
  -29.9282  -20.9553   21.1222 N   0  0  0  0  0  0  0  0  0  0  0  0
  -22.3992  -27.0704   21.6591 N   0  0  0  0  0  0  0  0  0  0  0  0
  -28.8422  -23.1991   18.2248 N   0  0  0  0  0  0  0  0  0  0  0  0
  -30.5189  -22.0752   23.1240 N   0  0  0  0  0  0  0  0  0  0  0  0
  -31.9860  -17.8604   23.8163 N   0  0  0  0  0  0  0  0  0  0  0  0
  -21.6490  -30.4043   22.6850 N   0  0  0  0  0  0  0  0  0  0  0  0
  -21.1345  -23.9318   21.7481 N   0  0  0  0  0  0  0  0  0  0  0  0
  -30.8368  -23.9686   17.2134 N   0  0  0  0  0  0  0  0  0  0  0  0
  -21.7321  -21.9221   18.8033 N   0  3  0  0  0  0  0  0  0  0  0  0
  -31.8123  -19.9482   24.7488 O   0  0  0  0  0  0  0  0  0  0  0  0
  -23.3618  -28.9390   23.2695 O   0  0  0  0  0  0  0  0  0  0  0  0
  -20.1581  -26.6022   22.1002 O   0  0  0  0  0  0  0  0  0  0  0  0
  -23.1405  -23.0995   20.9355 O   0  0  0  0  0  0  0  0  0  0  0  0
  -28.8637  -25.0872   16.8785 O   0  0  0  0  0  0  0  0  0  0  0  0
  -31.5612  -13.5986   20.2538 O   0  0  0  0  0  0  0  0  0  0  0  0
  -28.3359  -27.4024   20.0165 O   0  0  0  0  0  0  0  0  0  1  0  0
  -27.4543  -10.6848   18.0072 F   0  0  0  0  0  0  0  0  0  0  0  0
  -30.5417  -11.3679   21.5295 F   0  0  0  0  0  0  0  0  0  0  0  0
  1  2  1  0  0  0  0
  1  5  2  0  0  0  0
  2  6  2  0  0  0  0
  3  8  2  0  0  0  0
  3 16  1  0  0  0  0
  4  9  1  0  0  0  0
  4 16  2  0  0  0  0
  5 18  1  0  0  0  0
  6 20  1  0  0  0  0
  7 10  2  0  0  0  0
  7 19  1  0  0  0  0
  8 22  1  0  0  0  0
  9 22  2  0  0  0  0
 10 23  1  0  0  0  0
 11 12  2  0  0  0  0
 11 24  1  0  0  0  0
 12 25  1  0  0  0  0
 13 21  1  0  0  0  0
 13 23  2  0  0  0  0
 14 25  2  0  0  0  0
 14 26  1  0  0  0  0
 15 28  2  0  0  0  0
 15 29  1  0  0  0  0
 16 27  1  0  0  0  0
 17 27  1  0  0  0  0
 17 30  2  0  0  0  0
 17 32  1  0  0  0  0
 18 20  2  0  0  0  0
 18 37  1  0  0  0  0
 19 21  2  0  0  0  0
 19 38  1  0  0  0  0
 20 46  1  0  0  0  0
 21 39  1  0  0  0  0
 22 80  1  0  0  0  0
 23 81  1  0  0  0  0
 24 26  2  0  0  0  0
 24 80  1  0  0  0  0
 25 82  1  0  0  0  0
 26 83  1  0  0  0  0
 27 63  2  0  0  0  0
 28 49  1  0  0  0  0
 28 64  1  0  0  0  0
 29 57  1  0  0  0  0
 29 65  2  0  0  0  0
 30 66  1  0  0  0  0
 30 69  1  0  0  0  0
 31 61  1  0  0  0  0
 31 64  2  0  0  0  0
 31 65  1  0  0  0  0
 32 70  1  0  0  0  0
 32 75  2  0  0  0  0
 33 47  1  0  0  0  0
 33 71  1  0  0  0  0
 33 76  2  0  0  0  0
 34 59  1  0  0  0  0
 34 67  1  0  0  0  0
 34 77  2  0  0  0  0
 35 60  1  0  0  0  0
 35 72  1  0  0  0  0
 35 78  2  0  0  0  0
 36 68  1  0  0  0  0
 36 73  1  0  0  0  0
 36 79  2  0  0  0  0
 37 40  1  0  0  0  0
 38 47  1  0  0  0  0
 39 67  1  0  0  0  0
 40 42  1  0  0  0  0
 41 43  1  0  0  0  0
 41 44  1  0  0  0  0
 42 46  1  0  0  0  0
 43 48  1  0  0  0  0
 44 68  1  0  0  0  0
 45 48  1  0  0  0  0
 45 68  1  0  0  0  0
 46 71  1  0  0  0  0
 47 67  1  0  0  0  0
 48 66  1  0  0  0  0
 50 60  1  0  0  0  0
 51 61  1  0  0  0  0
 52 61  1  0  0  0  0
 53 62  1  0  0  0  0
 54 62  1  0  0  0  0
 55 62  1  0  0  0  0
 56 74  1  0  0  0  0
 57 81  1  0  0  0  0
 58 61  1  0  0  0  0
 58 73  1  0  0  0  0
 59 62  1  0  0  0  0
 59 72  1  0  0  0  0
 60 74  1  0  0  0  0
 63 66  1  0  0  0  0
M  CHG  1  74   1
M  ISO  4  36 100  57 101  73 100  81 101
M  END
> <Batch ID>
0060

> <Smiles>
CNC(C)C(=O)NC(C(=O)N1Cc2cc([101O:1][101CH2:1]c3cc(C)nc(C(C)(C)C[100NH:0][100C:0](=O)N4CCCC(n5nc(-c6ccc(Oc7ccc(F)cc7F)cc6)c(C(N)=O)c5N)C4)n3)ccc2CC1C(=O)NC1CCCc2ccccc21)C(C)(C)C

> <Shape>
0.223

> <Color>
0.072

> <Negative vol penalty>
0.000

$$$$

  -OEChem-04052317553D

 83 91  0     1  0  0  0  0  0999 V2000
  -22.5437  -26.8809   17.2451 C   0  0  0  0  0  0  0  0  0  0  0  0
  -23.4584  -25.8421   17.3859 C   0  0  0  0  0  0  0  0  0  0  0  0
  -23.2864   -9.8008   19.9137 C   0  0  0  0  0  0  0  0  0  0  0  0
  -23.7417   -9.9398   22.2823 C   0  0  0  0  0  0  0  0  0  0  0  0
  -21.9527  -27.4457   18.3745 C   0  0  0  0  0  0  0  0  0  0  0  0
  -23.7833  -25.3682   18.6565 C   0  0  0  0  0  0  0  0  0  0  0  0
  -25.0933  -19.5902   20.2069 C   0  0  0  0  0  0  0  0  0  0  0  0
  -22.5602   -8.6283   20.1221 C   0  0  0  0  0  0  0  0  0  0  0  0
  -23.0154   -8.7673   22.4907 C   0  0  0  0  0  0  0  0  0  0  0  0
  -26.3014  -18.9225   20.4029 C   0  0  0  0  0  0  0  0  0  0  0  0
  -19.7686   -7.8569   22.7136 C   0  0  0  0  0  0  0  0  0  0  0  0
  -18.8682   -7.8347   23.7787 C   0  0  0  0  0  0  0  0  0  0  0  0
  -26.1344  -19.3291   22.7748 C   0  0  0  0  0  0  0  0  0  0  0  0
  -20.0754   -5.9866   24.7608 C   0  0  0  0  0  0  0  0  0  0  0  0
  -23.8772  -10.4566   20.9938 C   0  0  0  0  0  0  0  0  0  0  0  0
  -24.1368  -12.9866   20.7963 C   0  0  0  0  0  0  0  0  0  0  0  0
  -22.2633  -26.9720   19.6590 C   0  0  0  0  0  0  0  0  0  0  0  0
  -24.4009  -20.1428   21.2940 C   0  0  0  0  0  0  0  0  0  0  0  0
  -23.1969  -25.9281   19.8042 C   0  0  0  0  0  0  0  0  0  0  0  0
  -24.9164  -20.0011   22.5903 C   0  0  0  0  0  0  0  0  0  0  0  0
  -22.4246   -8.1116   21.4106 C   0  0  0  0  0  0  0  0  0  0  0  0
  -26.8236  -18.7944   21.6867 C   0  0  0  0  0  0  0  0  0  0  0  0
  -20.8223   -6.9439   22.6720 C   0  0  0  0  0  0  0  0  0  0  0  0
  -19.0216   -6.8997   24.8023 C   0  0  0  0  0  0  0  0  0  0  0  0
  -20.9758   -6.0088   23.6956 C   0  0  0  0  0  0  0  0  0  0  0  0
  -24.6281  -11.6674   20.7791 C   0  0  0  0  0  0  0  0  0  0  0  0
  -25.2380  -13.7664   20.5397 C   0  0  0  0  0  0  0  0  0  0  0  0
  -31.9355  -17.1877   22.5628 C   0  0  0  0  0  0  0  0  0  0  0  0
  -29.7958  -17.3289   23.2247 C   0  0  0  0  0  0  0  0  0  0  0  0
  -31.0655  -15.6033   23.8931 C   0  0  0  0  0  0  0  0  0  0  0  0
  -22.8043  -13.4644   21.0239 C   0  0  0  0  0  0  0  0  0  0  0  0
  -23.5218  -23.0794   22.1349 C   0  0  0  0  0  0  0  0  0  0  0  0
  -21.9846  -21.5147   24.5246 C   0  0  0  0  0  0  0  0  0  0  0  0
  -21.7581  -18.7349   26.4915 C   0  0  0  0  0  0  0  0  0  0  0  0
  -31.1104  -12.9215   21.3477 C   0  0  0  0  0  0  0  0  0  0  0  0
  -21.6345  -27.6458   20.8528 C   0  0  0  0  0  0  0  0  0  0  0  0
  -23.0856  -20.8368   21.0690 C   0  0  0  0  0  0  0  0  0  0  0  0
  -24.2019  -20.5587   23.7932 C   0  0  0  0  0  0  0  0  0  0  0  0
  -21.7505  -26.8349   22.1410 C   0  0  0  0  0  0  0  0  0  0  0  0
  -29.4558  -13.6633   18.2836 C   0  0  0  0  0  0  0  0  0  0  0  0
  -23.1716  -26.3085   22.3143 C   0  0  0  0  0  0  0  0  0  0  0  0
  -27.9866  -13.3549   18.5772 C   0  0  0  0  0  0  0  0  0  0  0  0
  -30.3902  -12.6832   18.9896 C   0  0  0  0  0  0  0  0  0  0  0  0
  -28.7068  -12.2531   20.7374 C   0  0  0  0  0  0  0  0  0  0  0  0
  -23.5564  -25.3701   21.1642 C   0  0  1  0  0  0  0  0  0  0  0  0
  -22.7232  -21.8078   22.1884 C   0  0  1  0  0  0  0  0  0  0  0  0
  -27.7278  -13.2490   20.0922 C   0  0  2  0  0  0  0  0  0  0  0  0
  -33.0898  -17.7412   21.7987 C   0  0  0  0  0  0  0  0  0  0  0  0
  -20.4234  -17.7620   28.3808 C   0  0  0  0  0  0  0  0  0  0  0  0
  -29.9378  -13.8482   25.4243 C   0  0  0  0  0  0  0  0  0  0  0  0
  -32.3081  -14.4946   25.7705 C   0  0  0  0  0  0  0  0  0  0  0  0
  -23.4259  -23.3538   26.4868 C   0  0  0  0  0  0  0  0  0  0  0  0
  -22.8187  -21.7595   28.3192 C   0  0  0  0  0  0  0  0  0  0  0  0
  -21.0242  -22.9216   27.0340 C   0  0  0  0  0  0  0  0  0  0  0  0
  -20.8849  -16.4364   24.8444 C   0  0  0  0  0  0  0  0  0  0  0  0
  -28.4797  -18.0495   23.2224 C   0  0  0  0  0  0  0  0  0  1  0  0
  -31.6768  -13.1336   23.7547 C   0  0  0  0  0  0  0  0  0  0  0  0
  -22.3482  -21.0765   25.9228 C   0  0  1  0  0  0  0  0  0  0  0  0
  -20.5747  -17.8632   26.8709 C   0  0  2  0  0  0  0  0  0  0  0  0
  -31.2188  -14.3338   24.6596 C   0  0  0  0  0  0  0  0  0  0  0  0
  -22.4189  -22.2689   26.9180 C   0  0  0  0  0  0  0  0  0  0  0  0
  -25.9392  -11.6086   20.5311 N   0  0  0  0  0  0  0  0  0  0  0  0
  -30.7896  -17.8863   22.5146 N   0  0  0  0  0  0  0  0  0  0  0  0
  -32.1474  -16.0413   23.2293 N   0  0  0  0  0  0  0  0  0  0  0  0
  -29.8597  -16.1923   23.9367 N   0  0  0  0  0  0  0  0  0  0  0  0
  -26.2812  -12.9006   20.3900 N   0  0  0  0  0  0  0  0  0  0  0  0
  -22.9224  -21.2342   23.5208 N   0  0  0  0  0  0  0  0  0  0  0  0
  -30.0936  -12.6310   20.4232 N   0  0  0  0  0  0  0  0  0  0  0  0
  -25.4060  -15.1014   20.4298 N   0  0  0  0  0  0  0  0  0  0  0  0
  -21.7920  -12.5276   21.2727 N   0  0  0  0  0  0  0  0  0  0  0  0
  -22.9552  -24.0672   21.3522 N   0  0  0  0  0  0  0  0  0  0  0  0
  -21.3829  -20.0467   26.2918 N   0  0  0  0  0  0  0  0  0  0  0  0
  -30.7432  -12.8552   22.6862 N   0  0  0  0  0  0  0  0  0  0  0  0
  -20.7474  -16.4882   26.3227 N   0  3  0  0  0  0  0  0  0  0  0  0
  -22.5167  -14.6849   20.9909 O   0  0  0  0  0  0  0  0  0  0  0  0
  -24.5736  -23.1590   22.7588 O   0  0  0  0  0  0  0  0  0  0  0  0
  -20.9050  -22.0785   24.3292 O   0  0  0  0  0  0  0  0  0  0  0  0
  -22.9016  -18.2969   26.3867 O   0  0  0  0  0  0  0  0  0  0  0  0
  -32.2588  -13.2233   21.0056 O   0  0  0  0  0  0  0  0  0  0  0  0
  -21.7158   -6.9676   21.6143 O   0  0  0  0  0  0  0  0  0  0  0  0
  -28.0030  -18.1437   21.8807 O   0  0  0  0  0  0  0  0  0  1  0  0
  -18.1578   -6.8795   25.8258 F   0  0  0  0  0  0  0  0  0  0  0  0
  -21.9868   -5.1299   23.6618 F   0  0  0  0  0  0  0  0  0  0  0  0
  1  2  1  0  0  0  0
  1  5  2  0  0  0  0
  2  6  2  0  0  0  0
  3  8  2  0  0  0  0
  3 15  1  0  0  0  0
  4  9  1  0  0  0  0
  4 15  2  0  0  0  0
  5 17  1  0  0  0  0
  6 19  1  0  0  0  0
  7 10  2  0  0  0  0
  7 18  1  0  0  0  0
  8 21  1  0  0  0  0
  9 21  2  0  0  0  0
 10 22  1  0  0  0  0
 11 12  2  0  0  0  0
 11 23  1  0  0  0  0
 12 24  1  0  0  0  0
 13 20  1  0  0  0  0
 13 22  2  0  0  0  0
 14 24  2  0  0  0  0
 14 25  1  0  0  0  0
 15 26  1  0  0  0  0
 16 26  1  0  0  0  0
 16 27  2  0  0  0  0
 16 31  1  0  0  0  0
 17 19  2  0  0  0  0
 17 36  1  0  0  0  0
 18 20  2  0  0  0  0
 18 37  1  0  0  0  0
 19 45  1  0  0  0  0
 20 38  1  0  0  0  0
 21 80  1  0  0  0  0
 22 81  1  0  0  0  0
 23 25  2  0  0  0  0
 23 80  1  0  0  0  0
 24 82  1  0  0  0  0
 25 83  1  0  0  0  0
 26 62  2  0  0  0  0
 27 66  1  0  0  0  0
 27 69  1  0  0  0  0
 28 48  1  0  0  0  0
 28 63  2  0  0  0  0
 28 64  1  0  0  0  0
 29 56  1  0  0  0  0
 29 63  1  0  0  0  0
 29 65  2  0  0  0  0
 30 60  1  0  0  0  0
 30 64  2  0  0  0  0
 30 65  1  0  0  0  0
 31 70  1  0  0  0  0
 31 75  2  0  0  0  0
 32 46  1  0  0  0  0
 32 71  1  0  0  0  0
 32 76  2  0  0  0  0
 33 58  1  0  0  0  0
 33 67  1  0  0  0  0
 33 77  2  0  0  0  0
 34 59  1  0  0  0  0
 34 72  1  0  0  0  0
 34 78  2  0  0  0  0
 35 68  1  0  0  0  0
 35 73  1  0  0  0  0
 35 79  2  0  0  0  0
 36 39  1  0  0  0  0
 37 46  1  0  0  0  0
 38 67  1  0  0  0  0
 39 41  1  0  0  0  0
 40 42  1  0  0  0  0
 40 43  1  0  0  0  0
 41 45  1  0  0  0  0
 42 47  1  0  0  0  0
 43 68  1  0  0  0  0
 44 47  1  0  0  0  0
 44 68  1  0  0  0  0
 45 71  1  0  0  0  0
 46 67  1  0  0  0  0
 47 66  1  0  0  0  0
 49 59  1  0  0  0  0
 50 60  1  0  0  0  0
 51 60  1  0  0  0  0
 52 61  1  0  0  0  0
 53 61  1  0  0  0  0
 54 61  1  0  0  0  0
 55 74  1  0  0  0  0
 56 81  1  0  0  0  0
 57 60  1  0  0  0  0
 57 73  1  0  0  0  0
 58 61  1  0  0  0  0
 58 72  1  0  0  0  0
 59 74  1  0  0  0  0
 62 66  1  0  0  0  0
M  CHG  1  74   1
M  ISO  4  35 100  56 101  73 100  81 101
M  END
> <Batch ID>
0060

> <Smiles>
CNC(C)C(=O)NC(C(=O)N1Cc2cc([101O:1][101CH2:1]c3nc(C)nc(C(C)(C)C[100NH:0][100C:0](=O)N4CCCC(n5nc(-c6ccc(Oc7ccc(F)cc7F)cc6)c(C(N)=O)c5N)C4)n3)ccc2CC1C(=O)NC1CCCc2ccccc21)C(C)(C)C

> <Shape>
0.171

> <Color>
0.167

> <Negative vol penalty>
0.000

$$$$

  -OEChem-04052317553D

 84 92  0     1  0  0  0  0  0999 V2000
  -20.3904  -22.8390   21.0754 C   0  0  0  0  0  0  0  0  0  0  0  0
  -21.7430  -22.6232   20.8321 C   0  0  0  0  0  0  0  0  0  0  0  0
  -21.5260  -27.2259   21.7425 C   0  0  0  0  0  0  0  0  0  0  0  0
  -23.1208  -28.0151   23.3769 C   0  0  0  0  0  0  0  0  0  0  0  0
  -19.6646  -21.9213   21.8338 C   0  0  0  0  0  0  0  0  0  0  0  0
  -22.3710  -21.4901   21.3481 C   0  0  0  0  0  0  0  0  0  0  0  0
  -26.8700  -18.2619   18.7321 C   0  0  0  0  0  0  0  0  0  0  0  0
  -20.4783  -27.6117   22.5786 C   0  0  0  0  0  0  0  0  0  0  0  0
  -22.0730  -28.4009   24.2129 C   0  0  0  0  0  0  0  0  0  0  0  0
  -28.2526  -18.2643   18.9112 C   0  0  0  0  0  0  0  0  0  0  0  0
  -18.8834  -30.4734   23.4154 C   0  0  0  0  0  0  0  0  0  0  0  0
  -17.8134  -31.1585   22.8398 C   0  0  0  0  0  0  0  0  0  0  0  0
  -28.0523  -16.4058   20.4360 C   0  0  0  0  0  0  0  0  0  0  0  0
  -16.3093  -29.4063   23.5501 C   0  0  0  0  0  0  0  0  0  0  0  0
  -32.5785  -22.1596   23.1639 C   0  0  0  0  0  0  0  0  0  0  0  0
  -22.8473  -27.4276   22.1417 C   0  0  0  0  0  0  0  0  0  0  0  0
  -24.5593  -27.8074   20.2890 C   0  0  0  0  0  0  0  0  0  0  0  0
  -20.2818  -20.7715   22.3512 C   0  0  0  0  0  0  0  0  0  0  0  0
  -26.0657  -17.3369   19.4132 C   0  0  0  0  0  0  0  0  0  0  0  0
  -21.6532  -20.5569   22.1152 C   0  0  0  0  0  0  0  0  0  0  0  0
  -26.6600  -16.3921   20.2619 C   0  0  0  0  0  0  0  0  0  0  0  0
  -20.7517  -28.1992   23.8138 C   0  0  0  0  0  0  0  0  0  0  0  0
  -28.8437  -17.3381   19.7654 C   0  0  0  0  0  0  0  0  0  0  0  0
  -18.6664  -29.2546   24.0582 C   0  0  0  0  0  0  0  0  0  0  0  0
  -16.5264  -30.6250   22.9072 C   0  0  0  0  0  0  0  0  0  0  0  0
  -17.3794  -28.7211   24.1256 C   0  0  0  0  0  0  0  0  0  0  0  0
  -23.9300  -27.0288   21.2787 C   0  0  0  0  0  0  0  0  0  0  0  0
  -32.8477  -21.4138   22.0077 C   0  0  0  0  0  0  0  0  0  0  0  0
  -25.5162  -26.9783   19.7568 C   0  0  0  0  0  0  0  0  0  0  0  0
  -24.3018  -29.1593   19.8868 C   0  0  0  0  0  0  0  0  0  0  0  0
  -23.7216  -17.5478   21.5496 C   0  0  0  0  0  0  0  0  0  0  0  0
  -23.5381  -14.3424   21.0871 C   0  0  0  0  0  0  0  0  0  0  0  0
  -25.0913  -11.4608   20.1222 C   0  0  0  0  0  0  0  0  0  0  0  0
  -29.6109  -23.2388   20.3852 C   0  0  0  0  0  0  0  0  0  0  0  0
  -19.4673  -19.8322   23.2050 C   0  0  0  0  0  0  0  0  0  0  0  0
  -24.5784  -17.3302   19.1886 C   0  0  0  0  0  0  0  0  0  0  0  0
  -25.8430  -15.3650   21.0008 C   0  0  0  0  0  0  0  0  0  0  0  0
  -20.1198  -18.4661   23.4005 C   0  0  0  0  0  0  0  0  0  0  0  0
  -26.2688  -22.0117   20.3506 C   0  0  0  0  0  0  0  0  0  0  0  0
  -21.5933  -18.6251   23.7615 C   0  0  0  0  0  0  0  0  0  0  0  0
  -25.4152  -23.2706   20.5136 C   0  0  0  0  0  0  0  0  0  0  0  0
  -27.5574  -22.0942   21.1659 C   0  0  0  0  0  0  0  0  0  0  0  0
  -27.5186  -24.5568   21.0792 C   0  0  0  0  0  0  0  0  0  0  0  0
  -22.3641  -19.3271   22.6370 C   0  0  1  0  0  0  0  0  0  0  0  0
  -23.8049  -16.6755   20.3290 C   0  0  1  0  0  0  0  0  0  0  0  0
  -26.2349  -24.5442   20.2318 C   0  0  2  0  0  0  0  0  0  0  0  0
  -24.6972   -8.9935   19.8888 C   0  0  0  0  0  0  0  0  0  0  0  0
  -23.7966  -14.0176   24.1100 C   0  0  0  0  0  0  0  0  0  0  0  0
  -24.3486  -11.6048   23.7335 C   0  0  0  0  0  0  0  0  0  0  0  0
  -22.1260  -12.4974   23.0365 C   0  0  0  0  0  0  0  0  0  0  0  0
  -32.3654  -25.9023   21.5665 C   0  0  0  0  0  0  0  0  0  0  0  0
  -34.0363  -24.8224   20.0841 C   0  0  0  0  0  0  0  0  0  0  0  0
  -25.5826  -11.5408   17.2048 C   0  0  0  0  0  0  0  0  0  0  0  0
  -33.0528  -19.9272   21.8601 C   0  0  0  0  0  0  0  0  0  0  0  0
  -31.7613  -19.1478   21.5888 C   0  0  0  0  0  0  0  0  0  0  0  0
  -31.9780  -17.6355   21.5188 C   0  0  0  0  0  0  0  0  0  0  0  0
  -31.5862  -24.5267   19.6114 C   0  0  0  0  0  0  0  0  0  0  0  0
  -30.6820  -16.8987   21.2089 C   0  0  0  0  0  0  0  0  0  1  0  0
  -24.1863  -13.1327   21.7160 C   0  0  1  0  0  0  0  0  0  0  0  0
  -24.6545  -10.3442   19.1912 C   0  0  2  0  0  0  0  0  0  0  0  0
  -23.6298  -12.8336   23.1367 C   0  0  0  0  0  0  0  0  0  0  0  0
  -32.6486  -24.6240   20.7400 C   0  0  0  0  0  0  0  0  0  0  0  0
  -32.4683  -23.4541   22.8525 N   0  0  0  0  0  0  0  0  0  0  0  0
  -24.4439  -25.7994   21.3716 N   0  0  0  0  0  0  0  0  0  0  0  0
  -32.9100  -22.2262   20.9490 N   0  0  0  0  0  0  0  0  0  0  0  0
  -25.4061  -25.7993   20.4334 N   0  0  0  0  0  0  0  0  0  0  0  0
  -32.6762  -23.4155   21.5265 N   0  0  0  0  0  0  0  0  0  0  0  0
  -24.3922  -15.4029   20.7530 N   0  0  0  0  0  0  0  0  0  0  0  0
  -28.2883  -23.3239   20.8505 N   0  0  0  0  0  0  0  0  0  0  0  0
  -26.4327  -27.1501   18.7806 N   0  0  0  0  0  0  0  0  0  0  0  0
  -23.2827  -29.8676   20.5381 N   0  0  0  0  0  0  0  0  0  0  0  0
  -22.6360  -18.4028   21.5571 N   0  0  0  0  0  0  0  0  0  0  0  0
  -24.0174  -12.0388   20.7656 N   0  0  0  0  0  0  0  0  0  0  0  0
  -30.2288  -24.4512   20.1039 N   0  0  0  0  0  0  0  0  0  0  0  0
  -25.5463  -10.2856   17.9986 N   0  3  0  0  0  0  0  0  0  0  0  0
  -24.9451  -29.7171   18.9656 O   0  0  0  0  0  0  0  0  0  0  0  0
  -24.5779  -17.4512   22.4209 O   0  0  0  0  0  0  0  0  0  0  0  0
  -22.3200  -14.3434   20.8928 O   0  0  0  0  0  0  0  0  0  0  0  0
  -26.2679  -11.7853   20.2672 O   0  0  0  0  0  0  0  0  0  0  0  0
  -30.1959  -22.1619   20.2268 O   0  0  0  0  0  0  0  0  0  0  0  0
  -19.7296  -28.5759   24.6298 O   0  0  0  0  0  0  0  0  0  0  0  0
  -30.1930  -17.3386   19.9425 O   0  0  0  0  0  0  0  0  0  1  0  0
  -15.4987  -31.2838   22.3558 F   0  0  0  0  0  0  0  0  0  0  0  0
  -17.1645  -27.5512   24.7429 F   0  0  0  0  0  0  0  0  0  0  0  0
  1  2  1  0  0  0  0
  1  5  2  0  0  0  0
  2  6  2  0  0  0  0
  3  8  2  0  0  0  0
  3 16  1  0  0  0  0
  4  9  1  0  0  0  0
  4 16  2  0  0  0  0
  5 18  1  0  0  0  0
  6 20  1  0  0  0  0
  7 10  2  0  0  0  0
  7 19  1  0  0  0  0
  8 22  1  0  0  0  0
  9 22  2  0  0  0  0
 10 23  1  0  0  0  0
 11 12  2  0  0  0  0
 11 24  1  0  0  0  0
 12 25  1  0  0  0  0
 13 21  1  0  0  0  0
 13 23  2  0  0  0  0
 14 25  2  0  0  0  0
 14 26  1  0  0  0  0
 15 28  1  0  0  0  0
 15 63  2  0  0  0  0
 16 27  1  0  0  0  0
 17 27  1  0  0  0  0
 17 29  2  0  0  0  0
 17 30  1  0  0  0  0
 18 20  2  0  0  0  0
 18 35  1  0  0  0  0
 19 21  2  0  0  0  0
 19 36  1  0  0  0  0
 20 44  1  0  0  0  0
 21 37  1  0  0  0  0
 22 81  1  0  0  0  0
 23 82  1  0  0  0  0
 24 26  2  0  0  0  0
 24 81  1  0  0  0  0
 25 83  1  0  0  0  0
 26 84  1  0  0  0  0
 27 64  2  0  0  0  0
 28 54  1  0  0  0  0
 28 65  2  0  0  0  0
 29 66  1  0  0  0  0
 29 70  1  0  0  0  0
 30 71  1  0  0  0  0
 30 76  2  0  0  0  0
 31 45  1  0  0  0  0
 31 72  1  0  0  0  0
 31 77  2  0  0  0  0
 32 59  1  0  0  0  0
 32 68  1  0  0  0  0
 32 78  2  0  0  0  0
 33 60  1  0  0  0  0
 33 73  1  0  0  0  0
 33 79  2  0  0  0  0
 34 69  1  0  0  0  0
 34 74  1  0  0  0  0
 34 80  2  0  0  0  0
 35 38  1  0  0  0  0
 36 45  1  0  0  0  0
 37 68  1  0  0  0  0
 38 40  1  0  0  0  0
 39 41  1  0  0  0  0
 39 42  1  0  0  0  0
 40 44  1  0  0  0  0
 41 46  1  0  0  0  0
 42 69  1  0  0  0  0
 43 46  1  0  0  0  0
 43 69  1  0  0  0  0
 44 72  1  0  0  0  0
 45 68  1  0  0  0  0
 46 66  1  0  0  0  0
 47 60  1  0  0  0  0
 48 61  1  0  0  0  0
 49 61  1  0  0  0  0
 50 61  1  0  0  0  0
 51 62  1  0  0  0  0
 52 62  1  0  0  0  0
 53 75  1  0  0  0  0
 54 55  1  0  0  0  0
 55 56  1  0  0  0  0
 56 58  1  0  0  0  0
 57 62  1  0  0  0  0
 57 74  1  0  0  0  0
 58 82  1  0  0  0  0
 59 61  1  0  0  0  0
 59 73  1  0  0  0  0
 60 75  1  0  0  0  0
 62 67  1  0  0  0  0
 63 67  1  0  0  0  0
 64 66  1  0  0  0  0
 65 67  1  0  0  0  0
M  CHG  1  75   1
M  ISO  4  34 100  58 101  74 100  82 101
M  END
> <Batch ID>
0060

> <Smiles>
CNC(C)C(=O)NC(C(=O)N1Cc2cc([101O:1][101CH2:1]CCCc3cnn(C(C)(C)C[100NH:0][100C:0](=O)N4CCCC(n5nc(-c6ccc(Oc7ccc(F)cc7F)cc6)c(C(N)=O)c5N)C4)n3)ccc2CC1C(=O)NC1CCCc2ccccc21)C(C)(C)C

> <Shape>
0.202

> <Color>
0.062

> <Negative vol penalty>
0.000

$$$$

  -OEChem-04052317553D

 86 95  0     1  0  0  0  0  0999 V2000
  -28.8711  -31.2399   27.1538 C   0  0  0  0  0  0  0  0  0  0  0  0
  -28.4857  -30.1531   26.3755 C   0  0  0  0  0  0  0  0  0  0  0  0
  -23.0858  -11.1120   21.8677 C   0  0  0  0  0  0  0  0  0  0  0  0
  -22.7196  -13.3776   21.1127 C   0  0  0  0  0  0  0  0  0  0  0  0
  -27.9987  -32.3128   27.3316 C   0  0  0  0  0  0  0  0  0  0  0  0
  -27.2271  -30.1382   25.7753 C   0  0  0  0  0  0  0  0  0  0  0  0
  -27.3933  -28.6063   20.9513 C   0  0  0  0  0  0  0  0  0  0  0  0
  -22.0290  -11.2414   22.7688 C   0  0  0  0  0  0  0  0  0  0  0  0
  -21.6627  -13.5070   22.0138 C   0  0  0  0  0  0  0  0  0  0  0  0
  -27.5109  -27.2361   20.7221 C   0  0  0  0  0  0  0  0  0  0  0  0
  -18.4212  -12.5699   22.1998 C   0  0  0  0  0  0  0  0  0  0  0  0
  -17.2438  -13.1561   21.7355 C   0  0  0  0  0  0  0  0  0  0  0  0
  -25.1403  -27.1105   20.2935 C   0  0  0  0  0  0  0  0  0  0  0  0
  -29.0097  -18.1113   18.6350 C   0  0  0  0  0  0  0  0  0  0  0  0
  -17.4575  -14.8994   23.3945 C   0  0  0  0  0  0  0  0  0  0  0  0
  -31.6527  -18.7778   18.5086 C   0  0  0  0  0  0  0  0  0  0  0  0
  -27.3956  -21.0507   20.0198 C   0  0  0  0  0  0  0  0  0  0  0  0
  -23.4311  -12.1800   21.0397 C   0  0  0  0  0  0  0  0  0  0  0  0
  -24.4553  -11.5929   18.7783 C   0  0  0  0  0  0  0  0  0  0  0  0
  -26.7325  -32.3154   26.7254 C   0  0  0  0  0  0  0  0  0  0  0  0
  -26.1444  -29.2380   20.8639 C   0  0  0  0  0  0  0  0  0  0  0  0
  -26.3364  -31.2116   25.9462 C   0  0  0  0  0  0  0  0  0  0  0  0
  -25.0100  -28.4893   20.5196 C   0  0  0  0  0  0  0  0  0  0  0  0
  -29.3743  -19.3696   18.1692 C   0  0  0  0  0  0  0  0  0  0  0  0
  -30.7189  -19.7170   18.1016 C   0  0  0  0  0  0  0  0  0  0  0  0
  -21.3174  -12.4389   22.8419 C   0  0  0  0  0  0  0  0  0  0  0  0
  -26.3839  -26.4875   20.3960 C   0  0  0  0  0  0  0  0  0  0  0  0
  -19.1168  -13.1483   23.2616 C   0  0  0  0  0  0  0  0  0  0  0  0
  -16.7619  -14.3208   22.3329 C   0  0  0  0  0  0  0  0  0  0  0  0
  -18.6350  -14.3131   23.8589 C   0  0  0  0  0  0  0  0  0  0  0  0
  -24.5231  -12.0471   20.1090 C   0  0  0  0  0  0  0  0  0  0  0  0
  -30.0200  -17.2438   19.0180 C   0  0  0  0  0  0  0  0  0  0  0  0
  -25.7516  -11.6534   18.3284 C   0  0  0  0  0  0  0  0  0  0  0  0
  -27.7191  -23.1125   19.9793 C   0  0  0  0  0  0  0  0  0  0  0  0
  -23.3219  -11.1555   18.0168 C   0  0  0  0  0  0  0  0  0  0  0  0
  -24.2859  -30.8242   22.8970 C   0  0  0  0  0  0  0  0  0  0  0  0
  -22.5065  -31.3672   20.2396 C   0  0  0  0  0  0  0  0  0  0  0  0
  -21.6202  -30.3811   17.0950 C   0  0  0  0  0  0  0  0  0  0  0  0
  -30.4786  -14.9400   19.9281 C   0  0  0  0  0  0  0  0  0  0  0  0
  -25.8057  -33.4765   26.9851 C   0  0  0  0  0  0  0  0  0  0  0  0
  -26.0388  -30.7216   21.0879 C   0  0  0  0  0  0  0  0  0  0  0  0
  -23.6497  -29.1234   20.3932 C   0  0  0  0  0  0  0  0  0  0  0  0
  -24.6349  -33.5516   26.0085 C   0  0  0  0  0  0  0  0  0  0  0  0
  -30.2723  -11.3857   19.8860 C   0  0  0  0  0  0  0  0  0  0  0  0
  -23.9915  -32.1789   25.8398 C   0  0  0  0  0  0  0  0  0  0  0  0
  -28.7687  -11.1107   19.8112 C   0  0  0  0  0  0  0  0  0  0  0  0
  -30.5840  -12.6003   20.7586 C   0  0  0  0  0  0  0  0  0  0  0  0
  -28.3519  -13.5494   20.3270 C   0  0  0  0  0  0  0  0  0  0  0  0
  -24.9891  -31.1697   25.2585 C   0  0  1  0  0  0  0  0  0  0  0  0
  -24.6328  -31.1686   21.4762 C   0  0  1  0  0  0  0  0  0  0  0  0
  -27.9842  -12.3742   19.4065 C   0  0  2  0  0  0  0  0  0  0  0  0
  -31.1644  -21.0509   17.6108 C   0  0  0  0  0  0  0  0  0  0  0  0
  -27.0410  -19.7253   17.1009 C   0  0  0  0  0  0  0  0  0  0  0  0
  -20.1148  -31.0038   15.1862 C   0  0  0  0  0  0  0  0  0  0  0  0
  -20.1124  -30.2510   21.7668 C   0  0  0  0  0  0  0  0  0  0  0  0
  -18.9178  -30.0107   19.5797 C   0  0  0  0  0  0  0  0  0  0  0  0
  -19.6142  -32.2695   20.3769 C   0  0  0  0  0  0  0  0  0  0  0  0
  -23.9116  -30.7697   15.2627 C   0  0  0  0  0  0  0  0  0  0  0  0
  -27.7982  -24.5785   20.2888 C   0  0  0  0  0  0  0  0  0  1  0  0
  -28.2906  -20.3453   17.7401 C   0  0  1  0  0  0  0  0  0  0  0  0
  -21.3713  -30.6513   19.5484 C   0  0  1  0  0  0  0  0  0  0  0  0
  -21.5012  -31.1530   15.7933 C   0  0  2  0  0  0  0  0  0  0  0  0
  -20.0291  -30.7831   20.3221 C   0  0  0  0  0  0  0  0  0  0  0  0
  -31.3368  -17.5457   18.9667 N   0  0  0  0  0  0  0  0  0  0  0  0
  -27.2342  -22.1817   20.7679 N   0  0  0  0  0  0  0  0  0  0  0  0
  -25.7642  -12.3720   20.4804 N   0  0  0  0  0  0  0  0  0  0  0  0
  -28.1472  -22.5504   18.8172 N   0  0  0  0  0  0  0  0  0  0  0  0
  -27.9500  -21.2233   18.8180 N   0  0  0  0  0  0  0  0  0  0  0  0
  -26.4884  -12.1216   19.3764 N   0  0  0  0  0  0  0  0  0  0  0  0
  -23.5968  -30.5758   20.6279 N   0  0  0  0  0  0  0  0  0  0  0  0
  -29.8080  -13.7600   20.3139 N   0  0  0  0  0  0  0  0  0  0  0  0
  -26.3218  -11.3511   17.1427 N   0  0  0  0  0  0  0  0  0  0  0  0
  -22.0628  -11.1563   18.6324 N   0  0  0  0  0  0  0  0  0  0  0  0
  -29.6386  -15.9645   19.4928 N   0  0  0  0  0  0  0  0  0  0  0  0
  -25.1410  -31.3726   23.8337 N   0  0  0  0  0  0  0  0  0  0  0  0
  -21.3294  -31.1721   18.1863 N   0  0  0  0  0  0  0  0  0  0  0  0
  -22.5024  -30.6603   14.8055 N   0  3  0  0  0  0  0  0  0  0  0  0
  -23.4253  -10.7596   16.8310 O   0  0  0  0  0  0  0  0  0  0  0  0
  -23.3134  -30.1148   23.1265 O   0  0  0  0  0  0  0  0  0  0  0  0
  -22.4319  -32.5850   20.4217 O   0  0  0  0  0  0  0  0  0  0  0  0
  -21.9357  -29.1940   17.1390 O   0  0  0  0  0  0  0  0  0  0  0  0
  -31.7090  -15.0253   19.9543 O   0  0  0  0  0  0  0  0  0  0  0  0
  -20.2860  -12.5656   23.7209 O   0  0  0  0  0  0  0  0  0  0  0  0
  -26.4957  -25.1498   20.1724 O   0  0  0  0  0  0  0  0  0  1  0  0
  -15.6321  -14.8845   21.8859 F   0  0  0  0  0  0  0  0  0  0  0  0
  -19.2995  -14.8741   24.8784 F   0  0  0  0  0  0  0  0  0  0  0  0
  1  2  1  0  0  0  0
  1  5  2  0  0  0  0
  2  6  2  0  0  0  0
  3  8  2  0  0  0  0
  3 18  1  0  0  0  0
  4  9  1  0  0  0  0
  4 18  2  0  0  0  0
  5 20  1  0  0  0  0
  6 22  1  0  0  0  0
  7 10  2  0  0  0  0
  7 21  1  0  0  0  0
  8 26  1  0  0  0  0
  9 26  2  0  0  0  0
 10 27  1  0  0  0  0
 11 12  2  0  0  0  0
 11 28  1  0  0  0  0
 12 29  1  0  0  0  0
 13 23  1  0  0  0  0
 13 27  2  0  0  0  0
 14 24  1  0  0  0  0
 14 32  2  0  0  0  0
 15 29  2  0  0  0  0
 15 30  1  0  0  0  0
 16 25  1  0  0  0  0
 16 64  2  0  0  0  0
 17 65  2  0  0  0  0
 17 68  1  0  0  0  0
 18 31  1  0  0  0  0
 19 31  1  0  0  0  0
 19 33  2  0  0  0  0
 19 35  1  0  0  0  0
 20 22  2  0  0  0  0
 20 40  1  0  0  0  0
 21 23  2  0  0  0  0
 21 41  1  0  0  0  0
 22 49  1  0  0  0  0
 23 42  1  0  0  0  0
 24 25  2  0  0  0  0
 24 60  1  0  0  0  0
 25 52  1  0  0  0  0
 26 83  1  0  0  0  0
 27 84  1  0  0  0  0
 28 30  2  0  0  0  0
 28 83  1  0  0  0  0
 29 85  1  0  0  0  0
 30 86  1  0  0  0  0
 31 66  2  0  0  0  0
 32 64  1  0  0  0  0
 32 74  1  0  0  0  0
 33 69  1  0  0  0  0
 33 72  1  0  0  0  0
 34 59  1  0  0  0  0
 34 65  1  0  0  0  0
 34 67  2  0  0  0  0
 35 73  1  0  0  0  0
 35 78  2  0  0  0  0
 36 50  1  0  0  0  0
 36 75  1  0  0  0  0
 36 79  2  0  0  0  0
 37 61  1  0  0  0  0
 37 70  1  0  0  0  0
 37 80  2  0  0  0  0
 38 62  1  0  0  0  0
 38 76  1  0  0  0  0
 38 81  2  0  0  0  0
 39 71  1  0  0  0  0
 39 74  1  0  0  0  0
 39 82  2  0  0  0  0
 40 43  1  0  0  0  0
 41 50  1  0  0  0  0
 42 70  1  0  0  0  0
 43 45  1  0  0  0  0
 44 46  1  0  0  0  0
 44 47  1  0  0  0  0
 45 49  1  0  0  0  0
 46 51  1  0  0  0  0
 47 71  1  0  0  0  0
 48 51  1  0  0  0  0
 48 71  1  0  0  0  0
 49 75  1  0  0  0  0
 50 70  1  0  0  0  0
 51 69  1  0  0  0  0
 53 60  1  0  0  0  0
 54 62  1  0  0  0  0
 55 63  1  0  0  0  0
 56 63  1  0  0  0  0
 57 63  1  0  0  0  0
 58 77  1  0  0  0  0
 59 84  1  0  0  0  0
 60 68  1  0  0  0  0
 61 63  1  0  0  0  0
 61 76  1  0  0  0  0
 62 77  1  0  0  0  0
 66 69  1  0  0  0  0
 67 68  1  0  0  0  0
M  CHG  1  77   1
M  ISO  4  39 100  59 101  74 100  84 101
M  END
> <Batch ID>
0060

> <Smiles>
CNC(C)C(=O)NC(C(=O)N1Cc2cc([101O:1][101CH2:1]c3ncn(C(C)c4cc([100NH:0][100C:0](=O)N5CCCC(n6nc(-c7ccc(Oc8ccc(F)cc8F)cc7)c(C(N)=O)c6N)C5)ncc4C)n3)ccc2CC1C(=O)NC1CCCc2ccccc21)C(C)(C)C

> <Shape>
0.256

> <Color>
0.085

> <Negative vol penalty>
0.000

$$$$

  -OEChem-04052317553D

 80 88  0     1  0  0  0  0  0999 V2000
  -32.2998  -14.9617   19.7728 C   0  0  0  0  0  0  0  0  0  0  0  0
  -31.3674  -15.9868   19.8956 C   0  0  0  0  0  0  0  0  0  0  0  0
  -29.0442  -27.1804   20.5442 C   0  0  0  0  0  0  0  0  0  0  0  0
  -27.6788  -25.8344   19.0740 C   0  0  0  0  0  0  0  0  0  0  0  0
  -31.8696  -13.6442   19.6204 C   0  0  0  0  0  0  0  0  0  0  0  0
  -30.0041  -15.6952   19.8651 C   0  0  0  0  0  0  0  0  0  0  0  0
  -25.5644  -18.5181   22.9997 C   0  0  0  0  0  0  0  0  0  0  0  0
  -30.0787  -26.2513   20.4340 C   0  0  0  0  0  0  0  0  0  0  0  0
  -28.7134  -24.9054   18.9638 C   0  0  0  0  0  0  0  0  0  0  0  0
  -24.6562  -19.5156   22.6476 C   0  0  0  0  0  0  0  0  0  0  0  0
  -30.8619  -21.9989   18.5815 C   0  0  0  0  0  0  0  0  0  0  0  0
  -30.5335  -20.6473   18.6865 C   0  0  0  0  0  0  0  0  0  0  0  0
  -22.9980  -17.8295   22.1714 C   0  0  0  0  0  0  0  0  0  0  0  0
  -29.6747  -21.0289   20.9122 C   0  0  0  0  0  0  0  0  0  0  0  0
  -21.3197  -22.6712   20.2915 C   0  0  0  0  0  0  0  0  0  0  0  0
  -21.0304  -23.1801   22.4110 C   0  0  0  0  0  0  0  0  0  0  0  0
  -27.8442  -26.9719   19.8642 C   0  0  0  0  0  0  0  0  0  0  0  0
  -26.5492  -29.0537   19.1594 C   0  0  0  0  0  0  0  0  0  0  0  0
  -30.5004  -13.3352   19.5977 C   0  0  0  0  0  0  0  0  0  0  0  0
  -25.1991  -17.1660   22.9297 C   0  0  0  0  0  0  0  0  0  0  0  0
  -29.5552  -14.3726   19.7109 C   0  0  0  0  0  0  0  0  0  0  0  0
  -23.9026  -16.8169   22.5256 C   0  0  0  0  0  0  0  0  0  0  0  0
  -21.8116  -22.4100   21.5844 C   0  0  0  0  0  0  0  0  0  0  0  0
  -29.9134  -25.1138   19.6438 C   0  0  0  0  0  0  0  0  0  0  0  0
  -23.3737  -19.1713   22.2306 C   0  0  0  0  0  0  0  0  0  0  0  0
  -30.5968  -22.8655   19.6419 C   0  0  0  0  0  0  0  0  0  0  0  0
  -29.9399  -20.1623   19.8518 C   0  0  0  0  0  0  0  0  0  0  0  0
  -30.0032  -22.3805   20.8073 C   0  0  0  0  0  0  0  0  0  0  0  0
  -26.7749  -27.9310   19.9781 C   0  0  0  0  0  0  0  0  0  0  0  0
  -25.4175  -29.6345   19.6774 C   0  0  0  0  0  0  0  0  0  0  0  0
  -27.2958  -29.5292   18.0315 C   0  0  0  0  0  0  0  0  0  0  0  0
  -26.2211  -14.6489   21.2794 C   0  0  0  0  0  0  0  0  0  0  0  0
  -24.1160  -13.0513   23.1605 C   0  0  0  0  0  0  0  0  0  0  0  0
  -21.3064  -13.1489   25.0953 C   0  0  0  0  0  0  0  0  0  0  0  0
  -20.8268  -27.4874   22.8660 C   0  0  0  0  0  0  0  0  0  0  0  0
  -30.0832  -11.9018   19.3834 C   0  0  0  0  0  0  0  0  0  0  0  0
  -26.1817  -16.1032   23.3385 C   0  0  0  0  0  0  0  0  0  0  0  0
  -23.4544  -15.3808   22.4526 C   0  0  0  0  0  0  0  0  0  0  0  0
  -28.6227  -11.6331   19.7370 C   0  0  0  0  0  0  0  0  0  0  0  0
  -23.0134  -30.1436   23.7826 C   0  0  0  0  0  0  0  0  0  0  0  0
  -27.7223  -12.7107   19.1412 C   0  0  0  0  0  0  0  0  0  0  0  0
  -24.2050  -29.9790   22.8376 C   0  0  0  0  0  0  0  0  0  0  0  0
  -22.4440  -28.7936   24.2132 C   0  0  0  0  0  0  0  0  0  0  0  0
  -23.2847  -27.7227   22.1589 C   0  0  0  0  0  0  0  0  0  0  0  0
  -28.0679  -14.0934   19.7073 C   0  0  1  0  0  0  0  0  0  0  0  0
  -25.8682  -14.7365   22.7373 C   0  0  1  0  0  0  0  0  0  0  0  0
  -23.8581  -29.0574   21.6529 C   0  0  2  0  0  0  0  0  0  0  0  0
  -19.8095  -11.6773   26.4705 C   0  0  0  0  0  0  0  0  0  0  0  0
  -17.7326  -24.2207   21.6643 C   0  0  0  0  0  0  0  0  0  0  0  0
  -22.8809  -11.9258   20.6074 C   0  0  0  0  0  0  0  0  0  0  0  0
  -20.8747  -11.2656   21.9519 C   0  0  0  0  0  0  0  0  0  0  0  0
  -23.1043  -10.2759   22.4735 C   0  0  0  0  0  0  0  0  0  0  0  0
  -21.8664  -14.6865   27.5612 C   0  0  0  0  0  0  0  0  0  0  0  0
  -22.9345  -21.4946   21.9748 C   0  0  0  0  0  0  0  0  0  1  0  0
  -19.3244  -26.1582   21.4048 C   0  0  0  0  0  0  0  0  0  0  0  0
  -22.6528  -12.6928   23.0622 C   0  0  1  0  0  0  0  0  0  0  0  0
  -21.0181  -12.6003   26.4810 C   0  0  2  0  0  0  0  0  0  0  0  0
  -19.1263  -24.7579   22.0068 C   0  0  2  0  0  0  0  0  0  0  0  0
  -22.3869  -11.5671   22.0231 C   0  0  0  0  0  0  0  0  0  0  0  0
  -20.3045  -23.5392   20.2916 N   0  0  0  0  0  0  0  0  0  0  0  0
  -25.8601  -27.8041   20.9430 N   0  0  0  0  0  0  0  0  0  0  0  0
  -20.1521  -23.8301   21.5948 N   0  0  0  0  0  0  0  0  0  0  0  0
  -25.0486  -28.8548   20.7340 N   0  0  0  0  0  0  0  0  0  0  0  0
  -24.4535  -14.3777   22.8565 N   0  0  0  0  0  0  0  0  0  0  0  0
  -22.1346  -27.9685   23.0430 N   0  0  0  0  0  0  0  0  0  0  0  0
  -24.7118  -30.7309   19.3277 N   0  0  0  0  0  0  0  0  0  0  0  0
  -28.4326  -28.8129   17.6328 N   0  0  0  0  0  0  0  0  0  0  0  0
  -27.5206  -14.2457   21.0384 N   0  0  0  0  0  0  0  0  0  0  0  0
  -22.2198  -12.3696   24.4173 N   0  0  0  0  0  0  0  0  0  0  0  0
  -20.6177  -26.7185   21.7277 N   0  0  0  0  0  0  0  0  0  0  0  0
  -20.7502  -13.7145   27.4338 N   0  3  0  0  0  0  0  0  0  0  0  0
  -26.9741  -30.5679   17.4062 O   0  0  0  0  0  0  0  0  0  0  0  0
  -25.3764  -14.9252   20.4357 O   0  0  0  0  0  0  0  0  0  0  0  0
  -24.9285  -12.1880   23.5015 O   0  0  0  0  0  0  0  0  0  0  0  0
  -20.7717  -14.1649   24.6566 O   0  0  0  0  0  0  0  0  0  0  0  0
  -19.9121  -27.7298   23.6606 O   0  0  0  0  0  0  0  0  0  0  0  0
  -30.9227  -24.2072   19.5359 O   0  0  0  0  0  0  0  0  0  0  0  0
  -22.4855  -20.1429   21.8858 O   0  0  0  0  0  0  0  0  0  1  0  0
  -29.6231  -18.8647   19.9519 F   0  0  0  0  0  0  0  0  0  0  0  0
  -29.7450  -23.2084   21.8289 F   0  0  0  0  0  0  0  0  0  0  0  0
  1  2  1  0  0  0  0
  1  5  2  0  0  0  0
  2  6  2  0  0  0  0
  3  8  2  0  0  0  0
  3 17  1  0  0  0  0
  4  9  1  0  0  0  0
  4 17  2  0  0  0  0
  5 19  1  0  0  0  0
  6 21  1  0  0  0  0
  7 10  2  0  0  0  0
  7 20  1  0  0  0  0
  8 24  1  0  0  0  0
  9 24  2  0  0  0  0
 10 25  1  0  0  0  0
 11 12  2  0  0  0  0
 11 26  1  0  0  0  0
 12 27  1  0  0  0  0
 13 22  1  0  0  0  0
 13 25  2  0  0  0  0
 14 27  2  0  0  0  0
 14 28  1  0  0  0  0
 15 23  1  0  0  0  0
 15 60  2  0  0  0  0
 16 23  2  0  0  0  0
 16 62  1  0  0  0  0
 17 29  1  0  0  0  0
 18 29  1  0  0  0  0
 18 30  2  0  0  0  0
 18 31  1  0  0  0  0
 19 21  2  0  0  0  0
 19 36  1  0  0  0  0
 20 22  2  0  0  0  0
 20 37  1  0  0  0  0
 21 45  1  0  0  0  0
 22 38  1  0  0  0  0
 23 54  1  0  0  0  0
 24 77  1  0  0  0  0
 25 78  1  0  0  0  0
 26 28  2  0  0  0  0
 26 77  1  0  0  0  0
 27 79  1  0  0  0  0
 28 80  1  0  0  0  0
 29 61  2  0  0  0  0
 30 63  1  0  0  0  0
 30 66  1  0  0  0  0
 31 67  1  0  0  0  0
 31 72  2  0  0  0  0
 32 46  1  0  0  0  0
 32 68  1  0  0  0  0
 32 73  2  0  0  0  0
 33 56  1  0  0  0  0
 33 64  1  0  0  0  0
 33 74  2  0  0  0  0
 34 57  1  0  0  0  0
 34 69  1  0  0  0  0
 34 75  2  0  0  0  0
 35 65  1  0  0  0  0
 35 70  1  0  0  0  0
 35 76  2  0  0  0  0
 36 39  1  0  0  0  0
 37 46  1  0  0  0  0
 38 64  1  0  0  0  0
 39 41  1  0  0  0  0
 40 42  1  0  0  0  0
 40 43  1  0  0  0  0
 41 45  1  0  0  0  0
 42 47  1  0  0  0  0
 43 65  1  0  0  0  0
 44 47  1  0  0  0  0
 44 65  1  0  0  0  0
 45 68  1  0  0  0  0
 46 64  1  0  0  0  0
 47 63  1  0  0  0  0
 48 57  1  0  0  0  0
 49 58  1  0  0  0  0
 50 59  1  0  0  0  0
 51 59  1  0  0  0  0
 52 59  1  0  0  0  0
 53 71  1  0  0  0  0
 54 78  1  0  0  0  0
 55 58  1  0  0  0  0
 55 70  1  0  0  0  0
 56 59  1  0  0  0  0
 56 69  1  0  0  0  0
 57 71  1  0  0  0  0
 58 62  1  0  0  0  0
 60 62  1  0  0  0  0
 61 63  1  0  0  0  0
M  CHG  1  71   1
M  ISO  4  35 100  54 101  70 100  78 101
M  END
> <Batch ID>
0060

> <Smiles>
CNC(C)C(=O)NC(C(=O)N1Cc2cc([101O:1][101CH2:1]c3cnn(C(C)C[100NH:0][100C:0](=O)N4CCCC(n5nc(-c6ccc(Oc7ccc(F)cc7F)cc6)c(C(N)=O)c5N)C4)c3)ccc2CC1C(=O)NC1CCCc2ccccc21)C(C)(C)C

> <Shape>
0.231

> <Color>
0.058

> <Negative vol penalty>
0.000

$$$$

  -OEChem-04052317553D

 81 89  0     1  0  0  0  0  0999 V2000
  -19.3758  -33.8963   21.3427 C   0  0  0  0  0  0  0  0  0  0  0  0
  -20.6637  -33.5207   20.9741 C   0  0  0  0  0  0  0  0  0  0  0  0
  -25.9205  -14.8582   22.4147 C   0  0  0  0  0  0  0  0  0  0  0  0
  -25.6068  -14.1985   20.1118 C   0  0  0  0  0  0  0  0  0  0  0  0
  -18.7171  -33.2132   22.3641 C   0  0  0  0  0  0  0  0  0  0  0  0
  -21.2940  -32.4624   21.6276 C   0  0  0  0  0  0  0  0  0  0  0  0
  -25.1685  -28.4038   19.1736 C   0  0  0  0  0  0  0  0  0  0  0  0
  -24.9415  -13.9464   22.8093 C   0  0  0  0  0  0  0  0  0  0  0  0
  -24.6278  -13.2866   20.5063 C   0  0  0  0  0  0  0  0  0  0  0  0
  -26.5602  -28.3223   19.1650 C   0  0  0  0  0  0  0  0  0  0  0  0
  -22.3009  -10.5279   20.9457 C   0  0  0  0  0  0  0  0  0  0  0  0
  -22.3426   -9.2494   20.3896 C   0  0  0  0  0  0  0  0  0  0  0  0
  -26.4782  -26.8271   21.0563 C   0  0  0  0  0  0  0  0  0  0  0  0
  -24.5485   -8.9176   21.3175 C   0  0  0  0  0  0  0  0  0  0  0  0
  -28.1786  -24.7127   17.6344 C   0  0  0  0  0  0  0  0  0  0  0  0
  -29.1526  -22.7845   17.1984 C   0  0  0  0  0  0  0  0  0  0  0  0
  -26.2532  -14.9843   21.0659 C   0  0  0  0  0  0  0  0  0  0  0  0
  -28.6466  -15.6907   20.5366 C   0  0  0  0  0  0  0  0  0  0  0  0
  -19.3360  -32.1398   23.0239 C   0  0  0  0  0  0  0  0  0  0  0  0
  -24.4204  -27.7051   20.1320 C   0  0  0  0  0  0  0  0  0  0  0  0
  -20.6434  -31.7652   22.6598 C   0  0  0  0  0  0  0  0  0  0  0  0
  -25.0769  -26.8994   21.0733 C   0  0  0  0  0  0  0  0  0  0  0  0
  -24.2952  -13.1606   21.8551 C   0  0  0  0  0  0  0  0  0  0  0  0
  -27.2155  -27.5361   20.1083 C   0  0  0  0  0  0  0  0  0  0  0  0
  -23.3831  -11.0013   21.6877 C   0  0  0  0  0  0  0  0  0  0  0  0
  -23.4663   -8.4442   20.5755 C   0  0  0  0  0  0  0  0  0  0  0  0
  -24.5069  -10.1961   21.8736 C   0  0  0  0  0  0  0  0  0  0  0  0
  -27.2640  -15.9264   20.6576 C   0  0  0  0  0  0  0  0  0  0  0  0
  -29.5340  -24.7721   17.8577 C   0  0  0  0  0  0  0  0  0  0  0  0
  -29.1648  -16.8928   20.1208 C   0  0  0  0  0  0  0  0  0  0  0  0
  -29.3955  -14.4922   20.7784 C   0  0  0  0  0  0  0  0  0  0  0  0
  -22.4299  -28.5366   22.4666 C   0  0  0  0  0  0  0  0  0  0  0  0
  -21.9964  -25.3311   22.7100 C   0  0  0  0  0  0  0  0  0  0  0  0
  -26.6676  -21.3905   17.1527 C   0  0  0  0  0  0  0  0  0  0  0  0
  -23.2230  -22.1924   22.1708 C   0  0  0  0  0  0  0  0  0  0  0  0
  -18.6023  -31.4621   24.1540 C   0  0  0  0  0  0  0  0  0  0  0  0
  -22.9184  -27.7824   20.1111 C   0  0  0  0  0  0  0  0  0  0  0  0
  -24.3189  -26.1134   22.1106 C   0  0  0  0  0  0  0  0  0  0  0  0
  -19.1965  -30.1107   24.5424 C   0  0  0  0  0  0  0  0  0  0  0  0
  -28.3796  -21.5994   20.3546 C   0  0  0  0  0  0  0  0  0  0  0  0
  -20.7137  -30.2102   24.6656 C   0  0  0  0  0  0  0  0  0  0  0  0
  -28.3849  -20.1360   20.7944 C   0  0  0  0  0  0  0  0  0  0  0  0
  -27.1045  -21.9520   19.5931 C   0  0  0  0  0  0  0  0  0  0  0  0
  -26.8457  -19.6041   18.8552 C   0  0  0  0  0  0  0  0  0  0  0  0
  -21.3509  -30.6064   23.3282 C   0  0  1  0  0  0  0  0  0  0  0  0
  -22.2835  -27.4359   21.4543 C   0  0  1  0  0  0  0  0  0  0  0  0
  -28.1288  -19.1999   19.6004 C   0  0  2  0  0  0  0  0  0  0  0  0
  -23.2444  -19.6847   22.0793 C   0  0  0  0  0  0  0  0  0  0  0  0
  -26.4203  -23.0645   15.3474 C   0  0  0  0  0  0  0  0  0  0  0  0
  -25.4711  -23.4532   17.6218 C   0  0  0  0  0  0  0  0  0  0  0  0
  -22.6749  -25.5904   25.6735 C   0  0  0  0  0  0  0  0  0  0  0  0
  -23.0259  -23.1124   25.7385 C   0  0  0  0  0  0  0  0  0  0  0  0
  -20.7804  -24.0377   25.1690 C   0  0  0  0  0  0  0  0  0  0  0  0
  -22.1134  -22.1674   19.4273 C   0  0  0  0  0  0  0  0  0  0  0  0
  -30.3504  -25.9463   18.3355 C   0  0  0  0  0  0  0  0  0  0  0  0
  -30.4843  -26.0246   19.8579 C   0  0  0  0  0  0  0  0  0  0  0  0
  -29.1541  -26.2385   20.5707 C   0  0  0  0  0  0  0  0  0  1  0  0
  -22.6587  -24.2186   23.4863 C   0  0  1  0  0  0  0  0  0  0  0  0
  -22.5912  -20.9554   21.5584 C   0  0  2  0  0  0  0  0  0  0  0  0
  -26.6715  -22.8684   16.8532 C   0  0  0  0  0  0  0  0  0  0  0  0
  -22.2996  -24.2560   24.9986 C   0  0  0  0  0  0  0  0  0  0  0  0
  -30.1345  -23.5687   17.5842 N   0  0  0  0  0  0  0  0  0  0  0  0
  -26.9253  -17.1798   20.3442 N   0  0  0  0  0  0  0  0  0  0  0  0
  -27.9493  -23.4336   17.2120 N   0  0  0  0  0  0  0  0  0  0  0  0
  -28.1025  -17.7425   20.0222 N   0  0  0  0  0  0  0  0  0  0  0  0
  -22.8521  -26.2266   22.0531 N   0  0  0  0  0  0  0  0  0  0  0  0
  -26.8818  -21.0207   18.4807 N   0  0  0  0  0  0  0  0  0  0  0  0
  -30.4209  -17.2953   19.8337 N   0  0  0  0  0  0  0  0  0  0  0  0
  -28.7062  -13.3474   21.2010 N   0  0  0  0  0  0  0  0  0  0  0  0
  -21.4083  -29.4665   22.4384 N   0  0  0  0  0  0  0  0  0  0  0  0
  -22.2899  -22.9768   22.8152 N   0  0  0  0  0  0  0  0  0  0  0  0
  -22.7321  -20.9822   20.0750 N   0  3  0  0  0  0  0  0  0  0  0  0
  -30.6413  -14.4426   20.6401 O   0  0  0  0  0  0  0  0  0  0  0  0
  -23.3974  -28.5409   23.2187 O   0  0  0  0  0  0  0  0  0  0  0  0
  -20.7650  -25.3987   22.6814 O   0  0  0  0  0  0  0  0  0  0  0  0
  -26.4823  -20.5902   16.2321 O   0  0  0  0  0  0  0  0  0  0  0  0
  -24.4249  -22.4363   22.0893 O   0  0  0  0  0  0  0  0  0  0  0  0
  -23.3400  -12.2705   22.2398 O   0  0  0  0  0  0  0  0  0  0  0  0
  -28.5739  -27.4553   20.1026 O   0  0  0  0  0  0  0  0  0  1  0  0
  -23.5055   -7.2159   20.0427 F   0  0  0  0  0  0  0  0  0  0  0  0
  -25.5491  -10.6450   22.5864 F   0  0  0  0  0  0  0  0  0  0  0  0
  1  2  1  0  0  0  0
  1  5  2  0  0  0  0
  2  6  2  0  0  0  0
  3  8  2  0  0  0  0
  3 17  1  0  0  0  0
  4  9  1  0  0  0  0
  4 17  2  0  0  0  0
  5 19  1  0  0  0  0
  6 21  1  0  0  0  0
  7 10  2  0  0  0  0
  7 20  1  0  0  0  0
  8 23  1  0  0  0  0
  9 23  2  0  0  0  0
 10 24  1  0  0  0  0
 11 12  2  0  0  0  0
 11 25  1  0  0  0  0
 12 26  1  0  0  0  0
 13 22  1  0  0  0  0
 13 24  2  0  0  0  0
 14 26  2  0  0  0  0
 14 27  1  0  0  0  0
 15 29  2  0  0  0  0
 15 64  1  0  0  0  0
 16 62  2  0  0  0  0
 16 64  1  0  0  0  0
 17 28  1  0  0  0  0
 18 28  1  0  0  0  0
 18 30  2  0  0  0  0
 18 31  1  0  0  0  0
 19 21  2  0  0  0  0
 19 36  1  0  0  0  0
 20 22  2  0  0  0  0
 20 37  1  0  0  0  0
 21 45  1  0  0  0  0
 22 38  1  0  0  0  0
 23 78  1  0  0  0  0
 24 79  1  0  0  0  0
 25 27  2  0  0  0  0
 25 78  1  0  0  0  0
 26 80  1  0  0  0  0
 27 81  1  0  0  0  0
 28 63  2  0  0  0  0
 29 55  1  0  0  0  0
 29 62  1  0  0  0  0
 30 65  1  0  0  0  0
 30 68  1  0  0  0  0
 31 69  1  0  0  0  0
 31 73  2  0  0  0  0
 32 46  1  0  0  0  0
 32 70  1  0  0  0  0
 32 74  2  0  0  0  0
 33 58  1  0  0  0  0
 33 66  1  0  0  0  0
 33 75  2  0  0  0  0
 34 60  1  0  0  0  0
 34 67  1  0  0  0  0
 34 76  2  0  0  0  0
 35 59  1  0  0  0  0
 35 71  1  0  0  0  0
 35 77  2  0  0  0  0
 36 39  1  0  0  0  0
 37 46  1  0  0  0  0
 38 66  1  0  0  0  0
 39 41  1  0  0  0  0
 40 42  1  0  0  0  0
 40 43  1  0  0  0  0
 41 45  1  0  0  0  0
 42 47  1  0  0  0  0
 43 67  1  0  0  0  0
 44 47  1  0  0  0  0
 44 67  1  0  0  0  0
 45 70  1  0  0  0  0
 46 66  1  0  0  0  0
 47 65  1  0  0  0  0
 48 59  1  0  0  0  0
 49 60  1  0  0  0  0
 50 60  1  0  0  0  0
 51 61  1  0  0  0  0
 52 61  1  0  0  0  0
 53 61  1  0  0  0  0
 54 72  1  0  0  0  0
 55 56  1  0  0  0  0
 56 57  1  0  0  0  0
 57 79  1  0  0  0  0
 58 61  1  0  0  0  0
 58 71  1  0  0  0  0
 59 72  1  0  0  0  0
 60 64  1  0  0  0  0
 63 65  1  0  0  0  0
M  CHG  1  72   1
M  ISO  4  34 100  57 101  60 100  79 101
M  END
> <Batch ID>
0060

> <Smiles>
CNC(C)C(=O)NC(C(=O)N1Cc2cc([101O:1][101CH2:1]CCc3cn([100C:0](C)(C)[100C:0](=O)N4CCCC(n5nc(-c6ccc(Oc7ccc(F)cc7F)cc6)c(C(N)=O)c5N)C4)cn3)ccc2CC1C(=O)NC1CCCc2ccccc21)C(C)(C)C

> <Shape>
0.237

> <Color>
0.098

> <Negative vol penalty>
0.000

$$$$

  -OEChem-04052317553D

 80 88  0     1  0  0  0  0  0999 V2000
  -21.8751  -11.5409   21.1109 C   0  0  0  0  0  0  0  0  0  0  0  0
  -21.8259  -12.8071   21.6851 C   0  0  0  0  0  0  0  0  0  0  0  0
  -26.1914  -28.3129   21.3402 C   0  0  0  0  0  0  0  0  0  0  0  0
  -24.9779  -27.7263   19.3351 C   0  0  0  0  0  0  0  0  0  0  0  0
  -23.0727  -11.0633   20.5803 C   0  0  0  0  0  0  0  0  0  0  0  0
  -22.9748  -13.5961   21.7301 C   0  0  0  0  0  0  0  0  0  0  0  0
  -22.0870  -18.3986   20.3910 C   0  0  0  0  0  0  0  0  0  0  0  0
  -27.1711  -28.9339   20.5656 C   0  0  0  0  0  0  0  0  0  0  0  0
  -25.9577  -28.3473   18.5604 C   0  0  0  0  0  0  0  0  0  0  0  0
  -21.4909  -19.2251   21.3424 C   0  0  0  0  0  0  0  0  0  0  0  0
  -30.1754  -30.3609   19.0952 C   0  0  0  0  0  0  0  0  0  0  0  0
  -31.5103  -30.1110   19.4128 C   0  0  0  0  0  0  0  0  0  0  0  0
  -23.6500  -20.1608   21.8735 C   0  0  0  0  0  0  0  0  0  0  0  0
  -31.1647  -27.7539   19.0107 C   0  0  0  0  0  0  0  0  0  0  0  0
  -19.9855  -21.6991   25.6149 C   0  0  0  0  0  0  0  0  0  0  0  0
  -19.1791  -22.9815   24.0211 C   0  0  0  0  0  0  0  0  0  0  0  0
  -25.0948  -27.7091   20.7249 C   0  0  0  0  0  0  0  0  0  0  0  0
  -24.2575  -25.9867   22.4101 C   0  0  0  0  0  0  0  0  0  0  0  0
  -24.2345  -11.8507   20.6101 C   0  0  0  0  0  0  0  0  0  0  0  0
  -23.4729  -18.4393   20.1810 C   0  0  0  0  0  0  0  0  0  0  0  0
  -24.1894  -13.1281   21.2006 C   0  0  0  0  0  0  0  0  0  0  0  0
  -24.2609  -19.3356   20.9170 C   0  0  0  0  0  0  0  0  0  0  0  0
  -19.8311  -21.7889   24.2185 C   0  0  0  0  0  0  0  0  0  0  0  0
  -27.0543  -28.9512   19.1757 C   0  0  0  0  0  0  0  0  0  0  0  0
  -22.2728  -20.1043   22.0859 C   0  0  0  0  0  0  0  0  0  0  0  0
  -29.3350  -29.3073   18.7354 C   0  0  0  0  0  0  0  0  0  0  0  0
  -32.0050  -28.8075   19.3705 C   0  0  0  0  0  0  0  0  0  0  0  0
  -29.8297  -28.0038   18.6931 C   0  0  0  0  0  0  0  0  0  0  0  0
  -24.0827  -27.0669   21.5245 C   0  0  0  0  0  0  0  0  0  0  0  0
  -23.0030  -25.7528   22.9183 C   0  0  0  0  0  0  0  0  0  0  0  0
  -25.4474  -25.2596   22.7437 C   0  0  0  0  0  0  0  0  0  0  0  0
  -25.8494  -16.3498   20.4811 C   0  0  0  0  0  0  0  0  0  0  0  0
  -27.5951  -18.7337   19.1424 C   0  0  0  0  0  0  0  0  0  0  0  0
  -28.5168  -22.1959   18.7174 C   0  0  0  0  0  0  0  0  0  0  0  0
  -18.3517  -28.1123   25.1800 C   0  0  0  0  0  0  0  0  0  0  0  0
  -25.5172  -11.2729   20.0665 C   0  0  0  0  0  0  0  0  0  0  0  0
  -24.0971  -17.5603   19.1320 C   0  0  0  0  0  0  0  0  0  0  0  0
  -25.7504  -19.4323   20.7154 C   0  0  0  0  0  0  0  0  0  0  0  0
  -26.5996  -12.3201   19.8175 C   0  0  0  0  0  0  0  0  0  0  0  0
  -18.4847  -27.5264   21.5275 C   0  0  0  0  0  0  0  0  0  0  0  0
  -26.7179  -13.2603   21.0128 C   0  0  0  0  0  0  0  0  0  0  0  0
  -19.9796  -27.3380   21.2746 C   0  0  0  0  0  0  0  0  0  0  0  0
  -18.2221  -28.4215   22.7347 C   0  0  0  0  0  0  0  0  0  0  0  0
  -20.3940  -27.7791   23.7270 C   0  0  0  0  0  0  0  0  0  0  0  0
  -25.4085  -14.0236   21.2460 C   0  0  1  0  0  0  0  0  0  0  0  0
  -25.5855  -17.3187   19.3634 C   0  0  1  0  0  0  0  0  0  0  0  0
  -20.6930  -26.8444   22.5453 C   0  0  2  0  0  0  0  0  0  0  0  0
  -30.1804  -23.2635   17.1714 C   0  0  0  0  0  0  0  0  0  0  0  0
  -29.5125  -18.4856   21.5029 C   0  0  0  0  0  0  0  0  0  0  0  0
  -30.4576  -20.7188   20.8803 C   0  0  0  0  0  0  0  0  0  0  0  0
  -30.6237  -18.8077   19.2857 C   0  0  0  0  0  0  0  0  0  0  0  0
  -18.0641  -27.2712   27.4798 C   0  0  0  0  0  0  0  0  0  0  0  0
  -26.4745  -24.0168   17.5894 C   0  0  0  0  0  0  0  0  0  0  0  0
  -20.2797  -20.8057   23.1775 C   0  0  0  0  0  0  0  0  0  1  0  0
  -18.3440  -24.7668   25.5682 C   0  0  0  0  0  0  0  0  0  0  0  0
  -19.3328  -25.8873   25.8795 C   0  0  0  0  0  0  0  0  0  0  0  0
  -28.3809  -19.9095   19.6705 C   0  0  1  0  0  0  0  0  0  0  0  0
  -28.7151  -22.9288   17.4029 C   0  0  2  0  0  0  0  0  0  0  0  0
  -29.7159  -19.4775   20.3402 C   0  0  0  0  0  0  0  0  0  0  0  0
  -19.4729  -22.7509   26.2590 N   0  0  0  0  0  0  0  0  0  0  0  0
  -22.8169  -27.4900   21.4707 N   0  0  0  0  0  0  0  0  0  0  0  0
  -18.9902  -23.5130   25.2628 N   0  0  0  0  0  0  0  0  0  0  0  0
  -22.1849  -26.6712   22.3289 N   0  0  0  0  0  0  0  0  0  0  0  0
  -26.3147  -18.5478   19.6826 N   0  0  0  0  0  0  0  0  0  0  0  0
  -18.9463  -27.9543   23.9173 N   0  0  0  0  0  0  0  0  0  0  0  0
  -22.5310  -24.8532   23.8073 N   0  0  0  0  0  0  0  0  0  0  0  0
  -25.7770  -24.1313   21.9804 N   0  0  0  0  0  0  0  0  0  0  0  0
  -25.2779  -15.1057   20.2940 N   0  0  0  0  0  0  0  0  0  0  0  0
  -28.5450  -20.8277   18.5487 N   0  0  0  0  0  0  0  0  0  0  0  0
  -18.6648  -27.1567   26.1584 N   0  0  0  0  0  0  0  0  0  0  0  0
  -27.9360  -24.1992   17.3954 N   0  3  0  0  0  0  0  0  0  0  0  0
  -26.1874  -25.5909   23.7008 O   0  0  0  0  0  0  0  0  0  0  0  0
  -26.5231  -16.7042   21.4415 O   0  0  0  0  0  0  0  0  0  0  0  0
  -28.0960  -18.0111   18.2772 O   0  0  0  0  0  0  0  0  0  0  0  0
  -28.3569  -22.7789   19.7875 O   0  0  0  0  0  0  0  0  0  0  0  0
  -17.5773  -29.0485   25.4162 O   0  0  0  0  0  0  0  0  0  0  0  0
  -28.0100  -29.5572   18.4196 O   0  0  0  0  0  0  0  0  0  0  0  0
  -21.6935  -20.9117   23.0157 O   0  0  0  0  0  0  0  0  0  1  0  0
  -33.2874  -28.5678   19.6741 F   0  0  0  0  0  0  0  0  0  0  0  0
  -29.0274  -26.9877   18.3470 F   0  0  0  0  0  0  0  0  0  0  0  0
  1  2  1  0  0  0  0
  1  5  2  0  0  0  0
  2  6  2  0  0  0  0
  3  8  2  0  0  0  0
  3 17  1  0  0  0  0
  4  9  1  0  0  0  0
  4 17  2  0  0  0  0
  5 19  1  0  0  0  0
  6 21  1  0  0  0  0
  7 10  2  0  0  0  0
  7 20  1  0  0  0  0
  8 24  1  0  0  0  0
  9 24  2  0  0  0  0
 10 25  1  0  0  0  0
 11 12  2  0  0  0  0
 11 26  1  0  0  0  0
 12 27  1  0  0  0  0
 13 22  1  0  0  0  0
 13 25  2  0  0  0  0
 14 27  2  0  0  0  0
 14 28  1  0  0  0  0
 15 23  1  0  0  0  0
 15 60  2  0  0  0  0
 16 23  2  0  0  0  0
 16 62  1  0  0  0  0
 17 29  1  0  0  0  0
 18 29  1  0  0  0  0
 18 30  2  0  0  0  0
 18 31  1  0  0  0  0
 19 21  2  0  0  0  0
 19 36  1  0  0  0  0
 20 22  2  0  0  0  0
 20 37  1  0  0  0  0
 21 45  1  0  0  0  0
 22 38  1  0  0  0  0
 23 54  1  0  0  0  0
 24 77  1  0  0  0  0
 25 78  1  0  0  0  0
 26 28  2  0  0  0  0
 26 77  1  0  0  0  0
 27 79  1  0  0  0  0
 28 80  1  0  0  0  0
 29 61  2  0  0  0  0
 30 63  1  0  0  0  0
 30 66  1  0  0  0  0
 31 67  1  0  0  0  0
 31 72  2  0  0  0  0
 32 46  1  0  0  0  0
 32 68  1  0  0  0  0
 32 73  2  0  0  0  0
 33 57  1  0  0  0  0
 33 64  1  0  0  0  0
 33 74  2  0  0  0  0
 34 58  1  0  0  0  0
 34 69  1  0  0  0  0
 34 75  2  0  0  0  0
 35 65  1  0  0  0  0
 35 70  1  0  0  0  0
 35 76  2  0  0  0  0
 36 39  1  0  0  0  0
 37 46  1  0  0  0  0
 38 64  1  0  0  0  0
 39 41  1  0  0  0  0
 40 42  1  0  0  0  0
 40 43  1  0  0  0  0
 41 45  1  0  0  0  0
 42 47  1  0  0  0  0
 43 65  1  0  0  0  0
 44 47  1  0  0  0  0
 44 65  1  0  0  0  0
 45 68  1  0  0  0  0
 46 64  1  0  0  0  0
 47 63  1  0  0  0  0
 48 58  1  0  0  0  0
 49 59  1  0  0  0  0
 50 59  1  0  0  0  0
 51 59  1  0  0  0  0
 52 70  1  0  0  0  0
 53 71  1  0  0  0  0
 54 78  1  0  0  0  0
 55 56  1  0  0  0  0
 55 62  1  0  0  0  0
 56 70  1  0  0  0  0
 57 59  1  0  0  0  0
 57 69  1  0  0  0  0
 58 71  1  0  0  0  0
 60 62  1  0  0  0  0
 61 63  1  0  0  0  0
M  CHG  1  71   1
M  ISO  4  35 100  54 101  70 100  78 101
M  END
> <Batch ID>
0060

> <Smiles>
CNC(C)C(=O)NC(C(=O)N1Cc2cc([101O:1][101CH2:1]c3cnn(CC[100N:0](C)[100C:0](=O)N4CCCC(n5nc(-c6ccc(Oc7ccc(F)cc7F)cc6)c(C(N)=O)c5N)C4)c3)ccc2CC1C(=O)NC1CCCc2ccccc21)C(C)(C)C

> <Shape>
0.196

> <Color>
0.084

> <Negative vol penalty>
0.000

$$$$

  -OEChem-04052317553D

 83 91  0     1  0  0  0  0  0999 V2000
  -20.6418  -35.2936   22.4982 C   0  0  0  0  0  0  0  0  0  0  0  0
  -21.8382  -34.7305   22.0660 C   0  0  0  0  0  0  0  0  0  0  0  0
  -29.8950  -16.6309   21.4432 C   0  0  0  0  0  0  0  0  0  0  0  0
  -32.0331  -17.2192   20.4841 C   0  0  0  0  0  0  0  0  0  0  0  0
  -19.8078  -34.5807   23.3586 C   0  0  0  0  0  0  0  0  0  0  0  0
  -22.2020  -33.4544   22.4948 C   0  0  0  0  0  0  0  0  0  0  0  0
  -25.2514  -29.2223   19.2861 C   0  0  0  0  0  0  0  0  0  0  0  0
  -30.1360  -15.2873   21.1564 C   0  0  0  0  0  0  0  0  0  0  0  0
  -32.2741  -15.8755   20.1974 C   0  0  0  0  0  0  0  0  0  0  0  0
  -26.5941  -28.8476   19.2661 C   0  0  0  0  0  0  0  0  0  0  0  0
  -29.9924  -13.2512   18.4623 C   0  0  0  0  0  0  0  0  0  0  0  0
  -28.9537  -12.5142   17.8936 C   0  0  0  0  0  0  0  0  0  0  0  0
  -26.1131  -27.0633   20.8166 C   0  0  0  0  0  0  0  0  0  0  0  0
  -28.9909  -11.0058   19.7805 C   0  0  0  0  0  0  0  0  0  0  0  0
  -31.3520  -27.8193   20.4156 C   0  0  0  0  0  0  0  0  0  0  0  0
  -30.8435  -17.5969   21.1070 C   0  0  0  0  0  0  0  0  0  0  0  0
  -30.9332  -19.6772   22.5807 C   0  0  0  0  0  0  0  0  0  0  0  0
  -20.1569  -33.2914   23.7905 C   0  0  0  0  0  0  0  0  0  0  0  0
  -24.3299  -28.5259   20.0812 C   0  0  0  0  0  0  0  0  0  0  0  0
  -21.3726  -32.7242   23.3628 C   0  0  0  0  0  0  0  0  0  0  0  0
  -24.7587  -27.4296   20.8429 C   0  0  0  0  0  0  0  0  0  0  0  0
  -31.3256  -14.9096   20.5335 C   0  0  0  0  0  0  0  0  0  0  0  0
  -27.0257  -27.7698   20.0336 C   0  0  0  0  0  0  0  0  0  0  0  0
  -30.5305  -12.8654   19.6901 C   0  0  0  0  0  0  0  0  0  0  0  0
  -28.4529  -11.3915   18.5527 C   0  0  0  0  0  0  0  0  0  0  0  0
  -30.0297  -11.7427   20.3492 C   0  0  0  0  0  0  0  0  0  0  0  0
  -30.5949  -18.9850   21.4024 C   0  0  0  0  0  0  0  0  0  0  0  0
  -32.6105  -27.2532   20.4178 C   0  0  0  0  0  0  0  0  0  0  0  0
  -30.5967  -27.5913   19.2834 C   0  0  0  0  0  0  0  0  0  0  0  0
  -30.4858  -20.9581   22.3669 C   0  0  0  0  0  0  0  0  0  0  0  0
  -32.2711  -26.3686   18.3515 C   0  0  0  0  0  0  0  0  0  0  0  0
  -31.5929  -19.2047   23.7627 C   0  0  0  0  0  0  0  0  0  0  0  0
  -22.4509  -29.2899   22.5286 C   0  0  0  0  0  0  0  0  0  0  0  0
  -21.3454  -26.2680   22.1189 C   0  0  0  0  0  0  0  0  0  0  0  0
  -21.9118  -23.1077   20.9620 C   0  0  0  0  0  0  0  0  0  0  0  0
  -29.4718  -24.1474   17.4019 C   0  0  0  0  0  0  0  0  0  0  0  0
  -19.2459  -32.5784   24.7581 C   0  0  0  0  0  0  0  0  0  0  0  0
  -22.8799  -28.9260   20.0711 C   0  0  0  0  0  0  0  0  0  0  0  0
  -23.8055  -26.6364   21.6977 C   0  0  0  0  0  0  0  0  0  0  0  0
  -19.5254  -31.0817   24.8679 C   0  0  0  0  0  0  0  0  0  0  0  0
  -27.1356  -23.4054   19.9841 C   0  0  0  0  0  0  0  0  0  0  0  0
  -21.0224  -30.8276   25.0139 C   0  0  0  0  0  0  0  0  0  0  0  0
  -27.7878  -22.2508   20.7467 C   0  0  0  0  0  0  0  0  0  0  0  0
  -27.4050  -23.3143   18.4837 C   0  0  0  0  0  0  0  0  0  0  0  0
  -29.4809  -22.0461   18.8786 C   0  0  0  0  0  0  0  0  0  0  0  0
  -21.7900  -31.3325   23.7862 C   0  0  1  0  0  0  0  0  0  0  0  0
  -22.1247  -28.4669   21.3146 C   0  0  1  0  0  0  0  0  0  0  0  0
  -29.2840  -22.1255   20.4021 C   0  0  2  0  0  0  0  0  0  0  0  0
  -33.5007  -27.4446   21.5997 C   0  0  0  0  0  0  0  0  0  0  0  0
  -20.8369  -20.8456   20.8040 C   0  0  0  0  0  0  0  0  0  0  0  0
  -33.8008  -24.4291   17.5800 C   0  0  0  0  0  0  0  0  0  0  0  0
  -33.5475  -26.4708   16.1933 C   0  0  0  0  0  0  0  0  0  0  0  0
  -21.9243  -25.7890   25.0761 C   0  0  0  0  0  0  0  0  0  0  0  0
  -21.7456  -23.3299   24.6412 C   0  0  0  0  0  0  0  0  0  0  0  0
  -19.7725  -24.8084   24.2622 C   0  0  0  0  0  0  0  0  0  0  0  0
  -21.9955  -23.1462   18.0039 C   0  0  0  0  0  0  0  0  0  0  0  0
  -29.2136  -28.1654   19.1895 C   0  0  0  0  0  0  0  0  0  1  0  0
  -31.6248  -24.8658   16.3981 C   0  0  0  0  0  0  0  0  0  0  0  0
  -21.7233  -24.9091   22.6572 C   0  0  1  0  0  0  0  0  0  0  0  0
  -21.0643  -22.1797   20.1104 C   0  0  2  0  0  0  0  0  0  0  0  0
  -32.7796  -25.5598   17.2064 C   0  0  0  0  0  0  0  0  0  0  0  0
  -21.3100  -24.7250   24.1447 C   0  0  0  0  0  0  0  0  0  0  0  0
  -29.9799  -19.7618   20.5066 N   0  0  0  0  0  0  0  0  0  0  0  0
  -33.1040  -26.5192   19.3990 N   0  0  0  0  0  0  0  0  0  0  0  0
  -31.0266  -26.8681   18.2286 N   0  0  0  0  0  0  0  0  0  0  0  0
  -29.9282  -20.9553   21.1222 N   0  0  0  0  0  0  0  0  0  0  0  0
  -22.3992  -27.0704   21.6591 N   0  0  0  0  0  0  0  0  0  0  0  0
  -28.8422  -23.1991   18.2248 N   0  0  0  0  0  0  0  0  0  0  0  0
  -30.5189  -22.0752   23.1240 N   0  0  0  0  0  0  0  0  0  0  0  0
  -31.9860  -17.8604   23.8163 N   0  0  0  0  0  0  0  0  0  0  0  0
  -21.6490  -30.4043   22.6850 N   0  0  0  0  0  0  0  0  0  0  0  0
  -21.1345  -23.9318   21.7481 N   0  0  0  0  0  0  0  0  0  0  0  0
  -30.8368  -23.9686   17.2134 N   0  0  0  0  0  0  0  0  0  0  0  0
  -21.7321  -21.9221   18.8033 N   0  3  0  0  0  0  0  0  0  0  0  0
  -31.8123  -19.9482   24.7488 O   0  0  0  0  0  0  0  0  0  0  0  0
  -23.3618  -28.9390   23.2695 O   0  0  0  0  0  0  0  0  0  0  0  0
  -20.1581  -26.6022   22.1002 O   0  0  0  0  0  0  0  0  0  0  0  0
  -23.1405  -23.0995   20.9355 O   0  0  0  0  0  0  0  0  0  0  0  0
  -28.8637  -25.0872   16.8785 O   0  0  0  0  0  0  0  0  0  0  0  0
  -31.5612  -13.5986   20.2538 O   0  0  0  0  0  0  0  0  0  0  0  0
  -28.3359  -27.4024   20.0165 O   0  0  0  0  0  0  0  0  0  1  0  0
  -27.4543  -10.6848   18.0072 F   0  0  0  0  0  0  0  0  0  0  0  0
  -30.5417  -11.3679   21.5295 F   0  0  0  0  0  0  0  0  0  0  0  0
  1  2  1  0  0  0  0
  1  5  2  0  0  0  0
  2  6  2  0  0  0  0
  3  8  2  0  0  0  0
  3 16  1  0  0  0  0
  4  9  1  0  0  0  0
  4 16  2  0  0  0  0
  5 18  1  0  0  0  0
  6 20  1  0  0  0  0
  7 10  2  0  0  0  0
  7 19  1  0  0  0  0
  8 22  1  0  0  0  0
  9 22  2  0  0  0  0
 10 23  1  0  0  0  0
 11 12  2  0  0  0  0
 11 24  1  0  0  0  0
 12 25  1  0  0  0  0
 13 21  1  0  0  0  0
 13 23  2  0  0  0  0
 14 25  2  0  0  0  0
 14 26  1  0  0  0  0
 15 28  2  0  0  0  0
 15 29  1  0  0  0  0
 16 27  1  0  0  0  0
 17 27  1  0  0  0  0
 17 30  2  0  0  0  0
 17 32  1  0  0  0  0
 18 20  2  0  0  0  0
 18 37  1  0  0  0  0
 19 21  2  0  0  0  0
 19 38  1  0  0  0  0
 20 46  1  0  0  0  0
 21 39  1  0  0  0  0
 22 80  1  0  0  0  0
 23 81  1  0  0  0  0
 24 26  2  0  0  0  0
 24 80  1  0  0  0  0
 25 82  1  0  0  0  0
 26 83  1  0  0  0  0
 27 63  2  0  0  0  0
 28 49  1  0  0  0  0
 28 64  1  0  0  0  0
 29 57  1  0  0  0  0
 29 65  2  0  0  0  0
 30 66  1  0  0  0  0
 30 69  1  0  0  0  0
 31 61  1  0  0  0  0
 31 64  2  0  0  0  0
 31 65  1  0  0  0  0
 32 70  1  0  0  0  0
 32 75  2  0  0  0  0
 33 47  1  0  0  0  0
 33 71  1  0  0  0  0
 33 76  2  0  0  0  0
 34 59  1  0  0  0  0
 34 67  1  0  0  0  0
 34 77  2  0  0  0  0
 35 60  1  0  0  0  0
 35 72  1  0  0  0  0
 35 78  2  0  0  0  0
 36 68  1  0  0  0  0
 36 73  1  0  0  0  0
 36 79  2  0  0  0  0
 37 40  1  0  0  0  0
 38 47  1  0  0  0  0
 39 67  1  0  0  0  0
 40 42  1  0  0  0  0
 41 43  1  0  0  0  0
 41 44  1  0  0  0  0
 42 46  1  0  0  0  0
 43 48  1  0  0  0  0
 44 68  1  0  0  0  0
 45 48  1  0  0  0  0
 45 68  1  0  0  0  0
 46 71  1  0  0  0  0
 47 67  1  0  0  0  0
 48 66  1  0  0  0  0
 50 60  1  0  0  0  0
 51 61  1  0  0  0  0
 52 61  1  0  0  0  0
 53 62  1  0  0  0  0
 54 62  1  0  0  0  0
 55 62  1  0  0  0  0
 56 74  1  0  0  0  0
 57 81  1  0  0  0  0
 58 61  1  0  0  0  0
 58 73  1  0  0  0  0
 59 62  1  0  0  0  0
 59 72  1  0  0  0  0
 60 74  1  0  0  0  0
 63 66  1  0  0  0  0
M  CHG  1  74   1
M  ISO  4  36 100  57 101  73 100  81 101
M  END
> <Batch ID>
0060

> <Smiles>
CNC(C)C(=O)NC(C(=O)N1Cc2cc([101O:1][101CH2:1]c3cc(C)nc(C(C)(C)C[100NH:0][100C:0](=O)N4CCCC(n5nc(-c6ccc(Oc7ccc(F)cc7F)cc6)c(C(N)=O)c5N)C4)n3)ccc2CC1C(=O)NC1CCCc2ccccc21)C(C)(C)C

> <Shape>
0.223

> <Color>
0.072

> <Negative vol penalty>
0.000

$$$$

  -OEChem-04052317553D

 84 92  0     1  0  0  0  0  0999 V2000
  -29.0426  -31.4954   26.9399 C   0  0  0  0  0  0  0  0  0  0  0  0
  -28.5595  -30.4261   26.1926 C   0  0  0  0  0  0  0  0  0  0  0  0
  -26.4766  -12.6249   21.6265 C   0  0  0  0  0  0  0  0  0  0  0  0
  -25.9514  -13.6427   19.4992 C   0  0  0  0  0  0  0  0  0  0  0  0
  -28.2597  -32.6367   27.1086 C   0  0  0  0  0  0  0  0  0  0  0  0
  -27.2926  -30.4970   25.6142 C   0  0  0  0  0  0  0  0  0  0  0  0
  -27.2494  -28.8567   20.8234 C   0  0  0  0  0  0  0  0  0  0  0  0
  -25.2306  -11.9980   21.6341 C   0  0  0  0  0  0  0  0  0  0  0  0
  -24.7054  -13.0158   19.5068 C   0  0  0  0  0  0  0  0  0  0  0  0
  -27.2559  -27.4770   20.6227 C   0  0  0  0  0  0  0  0  0  0  0  0
  -23.7902   -9.3010   20.1905 C   0  0  0  0  0  0  0  0  0  0  0  0
  -23.7448   -7.9532   20.5470 C   0  0  0  0  0  0  0  0  0  0  0  0
  -24.8751  -27.5281   20.2372 C   0  0  0  0  0  0  0  0  0  0  0  0
  -22.2865   -8.4916   22.3965 C   0  0  0  0  0  0  0  0  0  0  0  0
  -26.8370  -13.4473   20.5590 C   0  0  0  0  0  0  0  0  0  0  0  0
  -29.3248  -13.5944   20.0142 C   0  0  0  0  0  0  0  0  0  0  0  0
  -26.9865  -32.7255   26.5240 C   0  0  0  0  0  0  0  0  0  0  0  0
  -26.0520  -29.5820   20.7431 C   0  0  0  0  0  0  0  0  0  0  0  0
  -26.4914  -31.6400   25.7763 C   0  0  0  0  0  0  0  0  0  0  0  0
  -24.8566  -28.9172   20.4348 C   0  0  0  0  0  0  0  0  0  0  0  0
  -24.3450  -12.1934   20.5743 C   0  0  0  0  0  0  0  0  0  0  0  0
  -26.0682  -26.8121   20.3324 C   0  0  0  0  0  0  0  0  0  0  0  0
  -23.0838  -10.2441   20.9370 C   0  0  0  0  0  0  0  0  0  0  0  0
  -22.9930   -7.5485   21.6500 C   0  0  0  0  0  0  0  0  0  0  0  0
  -22.3319   -9.8393   22.0400 C   0  0  0  0  0  0  0  0  0  0  0  0
  -28.1237  -14.0957   20.5508 C   0  0  0  0  0  0  0  0  0  0  0  0
  -30.2481  -14.5816   20.2577 C   0  0  0  0  0  0  0  0  0  0  0  0
  -26.7928  -20.2586   20.7721 C   0  0  0  0  0  0  0  0  0  0  0  0
  -29.5828  -12.3478   19.3546 C   0  0  0  0  0  0  0  0  0  0  0  0
  -24.3605  -31.3506   22.7716 C   0  0  0  0  0  0  0  0  0  0  0  0
  -22.5796  -31.9755   20.1334 C   0  0  0  0  0  0  0  0  0  0  0  0
  -29.6597  -20.4969   21.1380 C   0  0  0  0  0  0  0  0  0  0  0  0
  -21.5609  -30.9963   17.0269 C   0  0  0  0  0  0  0  0  0  0  0  0
  -26.1577  -33.9606   26.7736 C   0  0  0  0  0  0  0  0  0  0  0  0
  -26.0662  -31.0737   20.9359 C   0  0  0  0  0  0  0  0  0  0  0  0
  -23.5475  -29.6528   20.3174 C   0  0  0  0  0  0  0  0  0  0  0  0
  -24.9783  -34.1066   25.8154 C   0  0  0  0  0  0  0  0  0  0  0  0
  -31.2397  -18.1223   23.3070 C   0  0  0  0  0  0  0  0  0  0  0  0
  -24.2271  -32.7850   25.6882 C   0  0  0  0  0  0  0  0  0  0  0  0
  -30.7068  -16.7771   22.8156 C   0  0  0  0  0  0  0  0  0  0  0  0
  -30.1850  -19.2180   23.1880 C   0  0  0  0  0  0  0  0  0  0  0  0
  -29.0852  -18.0254   21.3199 C   0  0  0  0  0  0  0  0  0  0  0  0
  -25.1322  -31.6892   25.1127 C   0  0  1  0  0  0  0  0  0  0  0  0
  -24.7066  -31.6372   21.3378 C   0  0  1  0  0  0  0  0  0  0  0  0
  -30.1293  -16.8973   21.3942 C   0  0  2  0  0  0  0  0  0  0  0  0
  -20.0732  -31.6948   15.1305 C   0  0  0  0  0  0  0  0  0  0  0  0
  -25.8093  -20.9724   22.9613 C   0  0  0  0  0  0  0  0  0  0  0  0
  -28.1850  -20.2666   22.9524 C   0  0  0  0  0  0  0  0  0  0  0  0
  -29.1983  -21.9062   19.1572 C   0  0  0  0  0  0  0  0  0  0  0  0
  -30.0070  -19.5576   18.9237 C   0  0  0  0  0  0  0  0  0  0  0  0
  -20.1348  -31.0817   21.7253 C   0  0  0  0  0  0  0  0  0  0  0  0
  -18.8846  -30.8900   19.5646 C   0  0  0  0  0  0  0  0  0  0  0  0
  -19.7692  -33.1036   20.2995 C   0  0  0  0  0  0  0  0  0  0  0  0
  -23.8411  -31.1665   15.1479 C   0  0  0  0  0  0  0  0  0  0  0  0
  -26.5137  -23.3108   21.1000 C   0  0  0  0  0  0  0  0  0  0  0  0
  -27.5267  -22.4534   21.8682 C   0  0  0  0  0  0  0  0  0  0  0  0
  -27.0585  -24.7097   20.8375 C   0  0  0  0  0  0  0  0  0  1  0  0
  -21.3795  -31.3362   19.4776 C   0  0  1  0  0  0  0  0  0  0  0  0
  -21.4780  -31.7479   15.7106 C   0  0  2  0  0  0  0  0  0  0  0  0
  -27.0992  -20.9699   22.1026 C   0  0  0  0  0  0  0  0  0  0  0  0
  -29.0899  -20.4866   19.7419 C   0  0  0  0  0  0  0  0  0  0  0  0
  -20.0662  -31.5884   20.2708 C   0  0  0  0  0  0  0  0  0  0  0  0
  -28.2679  -15.3072   21.0943 N   0  0  0  0  0  0  0  0  0  0  0  0
  -25.6550  -19.7296   20.3849 N   0  0  0  0  0  0  0  0  0  0  0  0
  -25.8914  -19.2189   19.1286 N   0  0  0  0  0  0  0  0  0  0  0  0
  -27.1474  -19.4321   18.7556 N   0  0  0  0  0  0  0  0  0  0  0  0
  -29.5704  -15.5754   20.9005 N   0  0  0  0  0  0  0  0  0  0  0  0
  -27.7088  -20.0820   19.7847 N   0  0  0  0  0  0  0  0  0  0  0  0
  -23.6121  -31.1096   20.5207 N   0  0  0  0  0  0  0  0  0  0  0  0
  -29.6451  -19.2851   21.8289 N   0  0  0  0  0  0  0  0  0  0  0  0
  -31.5655  -14.6879   19.9825 N   0  0  0  0  0  0  0  0  0  0  0  0
  -28.5212  -11.4482   19.1871 N   0  0  0  0  0  0  0  0  0  0  0  0
  -25.2729  -31.8499   23.6813 N   0  0  0  0  0  0  0  0  0  0  0  0
  -21.3528  -31.8302   18.1051 N   0  0  0  0  0  0  0  0  0  0  0  0
  -22.4193  -31.1580   14.7171 N   0  3  0  0  0  0  0  0  0  0  0  0
  -30.7247  -12.0337   18.9410 O   0  0  0  0  0  0  0  0  0  0  0  0
  -23.3403  -30.7242   23.0333 O   0  0  0  0  0  0  0  0  0  0  0  0
  -22.6033  -33.1988   20.2896 O   0  0  0  0  0  0  0  0  0  0  0  0
  -30.1067  -21.5509   21.5980 O   0  0  0  0  0  0  0  0  0  0  0  0
  -21.7839  -29.7894   17.0919 O   0  0  0  0  0  0  0  0  0  0  0  0
  -23.1292  -11.5816   20.5813 O   0  0  0  0  0  0  0  0  0  0  0  0
  -26.0716  -25.4654   20.1367 O   0  0  0  0  0  0  0  0  0  1  0  0
  -22.9482   -6.2540   21.9913 F   0  0  0  0  0  0  0  0  0  0  0  0
  -21.6502  -10.7406   22.7603 F   0  0  0  0  0  0  0  0  0  0  0  0
  1  2  1  0  0  0  0
  1  5  2  0  0  0  0
  2  6  2  0  0  0  0
  3  8  2  0  0  0  0
  3 15  1  0  0  0  0
  4  9  1  0  0  0  0
  4 15  2  0  0  0  0
  5 17  1  0  0  0  0
  6 19  1  0  0  0  0
  7 10  2  0  0  0  0
  7 18  1  0  0  0  0
  8 21  1  0  0  0  0
  9 21  2  0  0  0  0
 10 22  1  0  0  0  0
 11 12  2  0  0  0  0
 11 23  1  0  0  0  0
 12 24  1  0  0  0  0
 13 20  1  0  0  0  0
 13 22  2  0  0  0  0
 14 24  2  0  0  0  0
 14 25  1  0  0  0  0
 15 26  1  0  0  0  0
 16 26  1  0  0  0  0
 16 27  2  0  0  0  0
 16 29  1  0  0  0  0
 17 19  2  0  0  0  0
 17 34  1  0  0  0  0
 18 20  2  0  0  0  0
 18 35  1  0  0  0  0
 19 43  1  0  0  0  0
 20 36  1  0  0  0  0
 21 81  1  0  0  0  0
 22 82  1  0  0  0  0
 23 25  2  0  0  0  0
 23 81  1  0  0  0  0
 24 83  1  0  0  0  0
 25 84  1  0  0  0  0
 26 63  2  0  0  0  0
 27 67  1  0  0  0  0
 27 71  1  0  0  0  0
 28 60  1  0  0  0  0
 28 64  2  0  0  0  0
 28 68  1  0  0  0  0
 29 72  1  0  0  0  0
 29 76  2  0  0  0  0
 30 44  1  0  0  0  0
 30 73  1  0  0  0  0
 30 77  2  0  0  0  0
 31 58  1  0  0  0  0
 31 69  1  0  0  0  0
 31 78  2  0  0  0  0
 32 61  1  0  0  0  0
 32 70  1  0  0  0  0
 32 79  2  0  0  0  0
 33 59  1  0  0  0  0
 33 74  1  0  0  0  0
 33 80  2  0  0  0  0
 34 37  1  0  0  0  0
 35 44  1  0  0  0  0
 36 69  1  0  0  0  0
 37 39  1  0  0  0  0
 38 40  1  0  0  0  0
 38 41  1  0  0  0  0
 39 43  1  0  0  0  0
 40 45  1  0  0  0  0
 41 70  1  0  0  0  0
 42 45  1  0  0  0  0
 42 70  1  0  0  0  0
 43 73  1  0  0  0  0
 44 69  1  0  0  0  0
 45 67  1  0  0  0  0
 46 59  1  0  0  0  0
 47 60  1  0  0  0  0
 48 60  1  0  0  0  0
 49 61  1  0  0  0  0
 50 61  1  0  0  0  0
 51 62  1  0  0  0  0
 52 62  1  0  0  0  0
 53 62  1  0  0  0  0
 54 75  1  0  0  0  0
 55 56  1  0  0  0  0
 55 57  1  0  0  0  0
 56 60  1  0  0  0  0
 57 82  1  0  0  0  0
 58 62  1  0  0  0  0
 58 74  1  0  0  0  0
 59 75  1  0  0  0  0
 61 68  1  0  0  0  0
 63 67  1  0  0  0  0
 64 65  1  0  0  0  0
 65 66  2  0  0  0  0
 66 68  1  0  0  0  0
M  CHG  1  75   1
M  ISO  4  32 100  57 101  61 100  82 101
M  END
> <Batch ID>
0060

> <Smiles>
CNC(C)C(=O)NC(C(=O)N1Cc2cc([101O:1][101CH2:1]CCC(C)(C)c3nnnn3[100C:0](C)(C)[100C:0](=O)N3CCCC(n4nc(-c5ccc(Oc6ccc(F)cc6F)cc5)c(C(N)=O)c4N)C3)ccc2CC1C(=O)NC1CCCc2ccccc21)C(C)(C)C

> <Shape>
0.312

> <Color>
0.084

> <Negative vol penalty>
0.000

$$$$

  -OEChem-04052317553D

 83 91  0     1  0  0  0  0  0999 V2000
  -22.0623  -12.3295   19.2542 C   0  0  0  0  0  0  0  0  0  0  0  0
  -21.9147  -13.7032   19.4179 C   0  0  0  0  0  0  0  0  0  0  0  0
  -29.1742  -27.4927   21.2600 C   0  0  0  0  0  0  0  0  0  0  0  0
  -28.0502  -25.3738   20.9704 C   0  0  0  0  0  0  0  0  0  0  0  0
  -23.2263  -11.6978   19.6900 C   0  0  0  0  0  0  0  0  0  0  0  0
  -22.9307  -14.4458   20.0186 C   0  0  0  0  0  0  0  0  0  0  0  0
  -23.9211  -18.7469   17.5357 C   0  0  0  0  0  0  0  0  0  0  0  0
  -30.3143  -26.8265   21.7095 C   0  0  0  0  0  0  0  0  0  0  0  0
  -29.1903  -24.7075   21.4199 C   0  0  0  0  0  0  0  0  0  0  0  0
  -23.0401  -19.8103   17.7279 C   0  0  0  0  0  0  0  0  0  0  0  0
  -31.3803  -25.3618   24.5630 C   0  0  0  0  0  0  0  0  0  0  0  0
  -32.0184  -25.8636   25.6973 C   0  0  0  0  0  0  0  0  0  0  0  0
  -24.5823  -20.7961   19.2992 C   0  0  0  0  0  0  0  0  0  0  0  0
  -34.0354  -26.2045   24.4118 C   0  0  0  0  0  0  0  0  0  0  0  0
  -28.0421  -26.7663   20.8905 C   0  0  0  0  0  0  0  0  0  0  0  0
  -26.5499  -27.8017   19.0992 C   0  0  0  0  0  0  0  0  0  0  0  0
  -24.2612  -12.4345   20.2876 C   0  0  0  0  0  0  0  0  0  0  0  0
  -25.1364  -18.6945   18.2333 C   0  0  0  0  0  0  0  0  0  0  0  0
  -24.1091  -13.8231   20.4640 C   0  0  0  0  0  0  0  0  0  0  0  0
  -25.4780  -19.7322   19.1123 C   0  0  0  0  0  0  0  0  0  0  0  0
  -30.3223  -25.4339   21.7894 C   0  0  0  0  0  0  0  0  0  0  0  0
  -23.3693  -20.8336   18.6119 C   0  0  0  0  0  0  0  0  0  0  0  0
  -32.0698  -25.2812   23.3531 C   0  0  0  0  0  0  0  0  0  0  0  0
  -33.3459  -26.2850   25.6217 C   0  0  0  0  0  0  0  0  0  0  0  0
  -33.3974  -25.7026   23.2776 C   0  0  0  0  0  0  0  0  0  0  0  0
  -26.8640  -27.4539   20.4267 C   0  0  0  0  0  0  0  0  0  0  0  0
  -25.3338  -28.4338   19.1884 C   0  0  0  0  0  0  0  0  0  0  0  0
  -21.8284  -23.9201   19.8144 C   0  0  0  0  0  0  0  0  0  0  0  0
  -20.1547  -25.0639   20.5888 C   0  0  0  0  0  0  0  0  0  0  0  0
  -27.2912  -27.5738   17.8933 C   0  0  0  0  0  0  0  0  0  0  0  0
  -26.4287  -16.6966   20.3410 C   0  0  0  0  0  0  0  0  0  0  0  0
  -29.0302  -18.5968   19.9615 C   0  0  0  0  0  0  0  0  0  0  0  0
  -30.2876  -21.6468   19.0878 C   0  0  0  0  0  0  0  0  0  0  0  0
  -20.8718  -28.1469   23.1709 C   0  0  0  0  0  0  0  0  0  0  0  0
  -25.4809  -11.7005   20.7856 C   0  0  0  0  0  0  0  0  0  0  0  0
  -26.0877  -17.5541   17.9948 C   0  0  0  0  0  0  0  0  0  0  0  0
  -26.7796  -19.7334   19.8702 C   0  0  0  0  0  0  0  0  0  0  0  0
  -26.6680  -12.6163   21.0727 C   0  0  0  0  0  0  0  0  0  0  0  0
  -22.6852  -31.0507   22.1930 C   0  0  0  0  0  0  0  0  0  0  0  0
  -26.2206  -13.8349   21.8737 C   0  0  0  0  0  0  0  0  0  0  0  0
  -23.9335  -30.4896   21.5097 C   0  0  0  0  0  0  0  0  0  0  0  0
  -22.2565  -30.1904   23.3796 C   0  0  0  0  0  0  0  0  0  0  0  0
  -23.3176  -28.1990   22.3886 C   0  0  0  0  0  0  0  0  0  0  0  0
  -25.1993  -14.6667   21.0884 C   0  0  1  0  0  0  0  0  0  0  0  0
  -27.0679  -17.3432   19.1447 C   0  0  1  0  0  0  0  0  0  0  0  0
  -23.7559  -29.0018   21.1518 C   0  0  2  0  0  0  0  0  0  0  0  0
  -20.3268  -21.8402   21.8062 C   0  0  0  0  0  0  0  0  0  0  0  0
  -32.4486  -22.9108   18.9158 C   0  0  0  0  0  0  0  0  0  0  0  0
  -17.9677  -24.4452   21.8261 C   0  0  0  0  0  0  0  0  0  0  0  0
  -18.2799  -26.7096   20.8614 C   0  0  0  0  0  0  0  0  0  0  0  0
  -29.0741  -18.9296   22.9942 C   0  0  0  0  0  0  0  0  0  0  0  0
  -30.5952  -20.8942   22.6868 C   0  0  0  0  0  0  0  0  0  0  0  0
  -31.3241  -18.6267   21.9453 C   0  0  0  0  0  0  0  0  0  0  0  0
  -29.9562  -22.0463   16.1741 C   0  0  0  0  0  0  0  0  0  0  0  0
  -22.9121  -22.8865   19.7222 C   0  0  0  0  0  0  0  0  0  1  0  0
  -20.9654  -23.1950   22.0597 C   0  0  0  0  0  0  0  0  0  0  0  0
  -19.6094  -26.0298   22.8825 C   0  0  0  0  0  0  0  0  0  0  0  0
  -29.5457  -19.8493   20.6282 C   0  0  1  0  0  0  0  0  0  0  0  0
  -31.4413  -22.0389   18.1824 C   0  0  2  0  0  0  0  0  0  0  0  0
  -19.0781  -25.5123   21.4897 C   0  0  0  0  0  0  0  0  0  0  0  0
  -30.1093  -19.5742   22.0510 C   0  0  0  0  0  0  0  0  0  0  0  0
  -25.9232  -27.8337   21.2955 N   0  0  0  0  0  0  0  0  0  0  0  0
  -21.5386  -24.8453   18.9276 N   0  0  0  0  0  0  0  0  0  0  0  0
  -20.4737  -25.5730   19.4202 N   0  0  0  0  0  0  0  0  0  0  0  0
  -25.0062  -28.4267   20.5123 N   0  0  0  0  0  0  0  0  0  0  0  0
  -20.9820  -24.0210   20.8765 N   0  0  0  0  0  0  0  0  0  0  0  0
  -27.6735  -18.5934   19.6077 N   0  0  0  0  0  0  0  0  0  0  0  0
  -22.1041  -28.7914   22.9727 N   0  0  0  0  0  0  0  0  0  0  0  0
  -24.5233  -28.9894   18.2627 N   0  0  0  0  0  0  0  0  0  0  0  0
  -28.5223  -26.9096   17.9812 N   0  0  0  0  0  0  0  0  0  0  0  0
  -25.8646  -15.4626   20.0793 N   0  0  0  0  0  0  0  0  0  0  0  0
  -30.5123  -20.4347   19.7055 N   0  0  0  0  0  0  0  0  0  0  0  0
  -20.8107  -26.8237   22.7513 N   0  0  0  0  0  0  0  0  0  0  0  0
  -30.9384  -22.7944   17.0004 N   0  3  0  0  0  0  0  0  0  0  0  0
  -26.8820  -27.9626   16.7731 O   0  0  0  0  0  0  0  0  0  0  0  0
  -26.4473  -17.2739   21.4218 O   0  0  0  0  0  0  0  0  0  0  0  0
  -29.8045  -17.6588   19.7556 O   0  0  0  0  0  0  0  0  0  0  0  0
  -29.2887  -22.3476   19.2354 O   0  0  0  0  0  0  0  0  0  0  0  0
  -19.8966  -28.7108   23.6788 O   0  0  0  0  0  0  0  0  0  0  0  0
  -31.4347  -24.7835   22.2277 O   0  0  0  0  0  0  0  0  0  0  0  0
  -22.5110  -21.8724   18.8017 O   0  0  0  0  0  0  0  0  0  1  0  0
  -33.9580  -26.7684   26.7107 F   0  0  0  0  0  0  0  0  0  0  0  0
  -34.0646  -25.6288   22.1177 F   0  0  0  0  0  0  0  0  0  0  0  0
  1  2  1  0  0  0  0
  1  5  2  0  0  0  0
  2  6  2  0  0  0  0
  3  8  2  0  0  0  0
  3 15  1  0  0  0  0
  4  9  1  0  0  0  0
  4 15  2  0  0  0  0
  5 17  1  0  0  0  0
  6 19  1  0  0  0  0
  7 10  2  0  0  0  0
  7 18  1  0  0  0  0
  8 21  1  0  0  0  0
  9 21  2  0  0  0  0
 10 22  1  0  0  0  0
 11 12  2  0  0  0  0
 11 23  1  0  0  0  0
 12 24  1  0  0  0  0
 13 20  1  0  0  0  0
 13 22  2  0  0  0  0
 14 24  2  0  0  0  0
 14 25  1  0  0  0  0
 15 26  1  0  0  0  0
 16 26  1  0  0  0  0
 16 27  2  0  0  0  0
 16 30  1  0  0  0  0
 17 19  2  0  0  0  0
 17 35  1  0  0  0  0
 18 20  2  0  0  0  0
 18 36  1  0  0  0  0
 19 44  1  0  0  0  0
 20 37  1  0  0  0  0
 21 80  1  0  0  0  0
 22 81  1  0  0  0  0
 23 25  2  0  0  0  0
 23 80  1  0  0  0  0
 24 82  1  0  0  0  0
 25 83  1  0  0  0  0
 26 62  2  0  0  0  0
 27 65  1  0  0  0  0
 27 69  1  0  0  0  0
 28 55  1  0  0  0  0
 28 63  2  0  0  0  0
 28 66  1  0  0  0  0
 29 60  1  0  0  0  0
 29 64  2  0  0  0  0
 29 66  1  0  0  0  0
 30 70  1  0  0  0  0
 30 75  2  0  0  0  0
 31 45  1  0  0  0  0
 31 71  1  0  0  0  0
 31 76  2  0  0  0  0
 32 58  1  0  0  0  0
 32 67  1  0  0  0  0
 32 77  2  0  0  0  0
 33 59  1  0  0  0  0
 33 72  1  0  0  0  0
 33 78  2  0  0  0  0
 34 68  1  0  0  0  0
 34 73  1  0  0  0  0
 34 79  2  0  0  0  0
 35 38  1  0  0  0  0
 36 45  1  0  0  0  0
 37 67  1  0  0  0  0
 38 40  1  0  0  0  0
 39 41  1  0  0  0  0
 39 42  1  0  0  0  0
 40 44  1  0  0  0  0
 41 46  1  0  0  0  0
 42 68  1  0  0  0  0
 43 46  1  0  0  0  0
 43 68  1  0  0  0  0
 44 71  1  0  0  0  0
 45 67  1  0  0  0  0
 46 65  1  0  0  0  0
 47 56  1  0  0  0  0
 48 59  1  0  0  0  0
 49 60  1  0  0  0  0
 50 60  1  0  0  0  0
 51 61  1  0  0  0  0
 52 61  1  0  0  0  0
 53 61  1  0  0  0  0
 54 74  1  0  0  0  0
 55 81  1  0  0  0  0
 56 66  1  0  0  0  0
 57 60  1  0  0  0  0
 57 73  1  0  0  0  0
 58 61  1  0  0  0  0
 58 72  1  0  0  0  0
 59 74  1  0  0  0  0
 62 65  1  0  0  0  0
 63 64  1  0  0  0  0
M  CHG  1  74   1
M  ISO  4  34 100  55 101  73 100  81 101
M  END
> <Batch ID>
0060

> <Smiles>
CCn1c(C(C)(C)C[100NH:0][100C:0](=O)N2CCCC(n3nc(-c4ccc(Oc5ccc(F)cc5F)cc4)c(C(N)=O)c3N)C2)nnc1[101CH2:1][101O:1]c1ccc2c(c1)CN(C(=O)C(NC(=O)C(C)NC)C(C)(C)C)C(C(=O)NC1CCCc3ccccc31)C2

> <Shape>
0.215

> <Color>
0.066

> <Negative vol penalty>
0.000

$$$$

  -OEChem-04052317553D

 87 95  0     1  0  0  0  0  0999 V2000
  -17.2699  -26.6045   22.4608 C   0  0  0  0  0  0  0  0  0  0  0  0
  -18.5037  -26.0393   22.7668 C   0  0  0  0  0  0  0  0  0  0  0  0
  -23.7296  -13.6494   20.1903 C   0  0  0  0  0  0  0  0  0  0  0  0
  -25.6855  -14.1201   21.5281 C   0  0  0  0  0  0  0  0  0  0  0  0
  -17.2108  -27.8353   21.8084 C   0  0  0  0  0  0  0  0  0  0  0  0
  -19.6793  -26.7041   22.4195 C   0  0  0  0  0  0  0  0  0  0  0  0
  -24.9403  -26.7604   25.5538 C   0  0  0  0  0  0  0  0  0  0  0  0
  -24.1091  -12.3098   20.1067 C   0  0  0  0  0  0  0  0  0  0  0  0
  -26.0650  -12.7805   21.4446 C   0  0  0  0  0  0  0  0  0  0  0  0
  -26.1234  -26.0362   25.4138 C   0  0  0  0  0  0  0  0  0  0  0  0
  -23.9834   -9.5581   22.0676 C   0  0  0  0  0  0  0  0  0  0  0  0
  -22.9990   -8.5915   22.2726 C   0  0  0  0  0  0  0  0  0  0  0  0
  -27.0749  -27.8489   24.1380 C   0  0  0  0  0  0  0  0  0  0  0  0
  -23.3872   -7.7250   20.0509 C   0  0  0  0  0  0  0  0  0  0  0  0
  -28.9669  -24.2324   20.1346 C   0  0  0  0  0  0  0  0  0  0  0  0
  -29.3510  -26.4933   18.7380 C   0  0  0  0  0  0  0  0  0  0  0  0
  -24.5178  -14.5546   20.9010 C   0  0  0  0  0  0  0  0  0  0  0  0
  -23.3118  -16.5321   21.9700 C   0  0  0  0  0  0  0  0  0  0  0  0
  -18.3862  -28.5200   21.4615 C   0  0  0  0  0  0  0  0  0  0  0  0
  -24.8116  -28.0319   24.9768 C   0  0  0  0  0  0  0  0  0  0  0  0
  -19.6359  -27.9445   21.7606 C   0  0  0  0  0  0  0  0  0  0  0  0
  -25.8901  -28.5883   24.2744 C   0  0  0  0  0  0  0  0  0  0  0  0
  -25.2768  -11.8753   20.7338 C   0  0  0  0  0  0  0  0  0  0  0  0
  -27.1899  -26.5792   24.7033 C   0  0  0  0  0  0  0  0  0  0  0  0
  -24.6697   -9.6083   20.8543 C   0  0  0  0  0  0  0  0  0  0  0  0
  -22.7009   -7.6749   21.2643 C   0  0  0  0  0  0  0  0  0  0  0  0
  -24.3717   -8.6918   19.8460 C   0  0  0  0  0  0  0  0  0  0  0  0
  -24.1266  -15.9386   20.9872 C   0  0  0  0  0  0  0  0  0  0  0  0
  -28.2516  -24.5197   18.9900 C   0  0  0  0  0  0  0  0  0  0  0  0
  -29.8925  -25.1827   20.5146 C   0  0  0  0  0  0  0  0  0  0  0  0
  -23.2433  -17.8548   21.6063 C   0  0  0  0  0  0  0  0  0  0  0  0
  -22.6740  -15.9406   23.1097 C   0  0  0  0  0  0  0  0  0  0  0  0
  -22.9176  -29.3115   22.7680 C   0  0  0  0  0  0  0  0  0  0  0  0
  -24.4104  -32.0571   23.6372 C   0  0  0  0  0  0  0  0  0  0  0  0
  -27.1528  -33.5544   25.0098 C   0  0  0  0  0  0  0  0  0  0  0  0
  -25.4585  -22.4717   19.9517 C   0  0  0  0  0  0  0  0  0  0  0  0
  -18.2723  -29.8255   20.7149 C   0  0  0  0  0  0  0  0  0  0  0  0
  -23.5383  -28.8114   25.1597 C   0  0  0  0  0  0  0  0  0  0  0  0
  -25.8098  -29.9579   23.6530 C   0  0  0  0  0  0  0  0  0  0  0  0
  -19.5619  -30.6424   20.7161 C   0  0  0  0  0  0  0  0  0  0  0  0
  -24.6757  -20.1949   17.3680 C   0  0  0  0  0  0  0  0  0  0  0  0
  -20.7559  -29.7554   20.3779 C   0  0  0  0  0  0  0  0  0  0  0  0
  -24.4023  -18.9184   18.1621 C   0  0  0  0  0  0  0  0  0  0  0  0
  -25.8580  -20.9826   17.9357 C   0  0  0  0  0  0  0  0  0  0  0  0
  -25.4651  -20.0054   20.1747 C   0  0  0  0  0  0  0  0  0  0  0  0
  -20.9330  -28.6467   21.4224 C   0  0  1  0  0  0  0  0  0  0  0  0
  -23.3354  -29.8832   24.0932 C   0  0  1  0  0  0  0  0  0  0  0  0
  -24.2444  -19.2263   19.6613 C   0  0  2  0  0  0  0  0  0  0  0  0
  -31.6237  -23.7229   21.5925 C   0  0  0  0  0  0  0  0  0  0  0  0
  -28.0995  -35.8147   25.5505 C   0  0  0  0  0  0  0  0  0  0  0  0
  -24.7023  -25.4508   17.2911 C   0  0  0  0  0  0  0  0  0  0  0  0
  -23.1710  -24.3744   18.9504 C   0  0  0  0  0  0  0  0  0  0  0  0
  -23.8221  -26.7699   19.2374 C   0  0  0  0  0  0  0  0  0  0  0  0
  -25.0788  -32.4794   20.6902 C   0  0  0  0  0  0  0  0  0  0  0  0
  -26.7827  -34.1745   21.3914 C   0  0  0  0  0  0  0  0  0  0  0  0
  -24.3704  -34.5470   21.9059 C   0  0  0  0  0  0  0  0  0  0  0  0
  -27.2564  -32.9469   27.9045 C   0  0  0  0  0  0  0  0  0  0  0  0
  -27.2277  -23.5516   18.4996 C   0  0  0  0  0  0  0  0  0  0  0  0
  -29.8821  -24.8319   23.0433 C   0  0  0  0  0  0  0  0  0  0  0  0
  -25.5141  -24.9160   19.6345 C   0  0  0  0  0  0  0  0  0  0  0  0
  -29.1074  -26.1026   23.3797 C   0  0  0  0  0  0  0  0  0  1  0  0
  -30.7291  -24.9568   21.7621 C   0  0  2  0  0  0  0  0  0  0  0  0
  -25.6537  -32.7862   23.1885 C   0  0  1  0  0  0  0  0  0  0  0  0
  -27.2868  -34.6370   26.0655 C   0  0  2  0  0  0  0  0  0  0  0  0
  -24.3175  -25.3879   18.7789 C   0  0  0  0  0  0  0  0  0  0  0  0
  -25.4726  -33.4701   21.8039 C   0  0  0  0  0  0  0  0  0  0  0  0
  -28.4186  -25.6449   18.2644 N   0  0  0  0  0  0  0  0  0  0  0  0
  -30.1115  -26.3288   19.8372 N   0  0  0  0  0  0  0  0  0  0  0  0
  -24.5455  -16.8126   20.0682 N   0  0  0  0  0  0  0  0  0  0  0  0
  -23.9917  -17.9687   20.4719 N   0  0  0  0  0  0  0  0  0  0  0  0
  -24.5416  -30.6782   23.8541 N   0  0  0  0  0  0  0  0  0  0  0  0
  -25.6898  -21.2133   19.3769 N   0  0  0  0  0  0  0  0  0  0  0  0
  -22.6164  -18.9198   22.1494 N   0  0  0  0  0  0  0  0  0  0  0  0
  -22.8486  -14.5685   23.3359 N   0  0  0  0  0  0  0  0  0  0  0  0
  -21.5505  -29.1747   22.6201 N   0  0  0  0  0  0  0  0  0  0  0  0
  -26.0003  -33.7046   24.2678 N   0  0  0  0  0  0  0  0  0  0  0  0
  -26.0035  -23.5867   19.2974 N   0  0  0  0  0  0  0  0  0  0  0  0
  -27.9609  -34.0959   27.2795 N   0  3  0  0  0  0  0  0  0  0  0  0
  -21.9567  -16.6058   23.8949 O   0  0  0  0  0  0  0  0  0  0  0  0
  -23.7721  -29.0178   21.9403 O   0  0  0  0  0  0  0  0  0  0  0  0
  -23.3630  -32.6891   23.7965 O   0  0  0  0  0  0  0  0  0  0  0  0
  -27.9888  -32.6667   24.8561 O   0  0  0  0  0  0  0  0  0  0  0  0
  -24.8072  -22.5933   20.9973 O   0  0  0  0  0  0  0  0  0  0  0  0
  -25.6474  -10.5682   20.6526 O   0  0  0  0  0  0  0  0  0  0  0  0
  -28.3456  -25.8742   24.5645 O   0  0  0  0  0  0  0  0  0  1  0  0
  -21.7566   -6.7457   21.4618 F   0  0  0  0  0  0  0  0  0  0  0  0
  -25.0285   -8.7343   18.6786 F   0  0  0  0  0  0  0  0  0  0  0  0
  1  2  1  0  0  0  0
  1  5  2  0  0  0  0
  2  6  2  0  0  0  0
  3  8  2  0  0  0  0
  3 17  1  0  0  0  0
  4  9  1  0  0  0  0
  4 17  2  0  0  0  0
  5 19  1  0  0  0  0
  6 21  1  0  0  0  0
  7 10  2  0  0  0  0
  7 20  1  0  0  0  0
  8 23  1  0  0  0  0
  9 23  2  0  0  0  0
 10 24  1  0  0  0  0
 11 12  2  0  0  0  0
 11 25  1  0  0  0  0
 12 26  1  0  0  0  0
 13 22  1  0  0  0  0
 13 24  2  0  0  0  0
 14 26  2  0  0  0  0
 14 27  1  0  0  0  0
 15 29  2  0  0  0  0
 15 30  1  0  0  0  0
 16 67  2  0  0  0  0
 16 68  1  0  0  0  0
 17 28  1  0  0  0  0
 18 28  1  0  0  0  0
 18 31  2  0  0  0  0
 18 32  1  0  0  0  0
 19 21  2  0  0  0  0
 19 37  1  0  0  0  0
 20 22  2  0  0  0  0
 20 38  1  0  0  0  0
 21 46  1  0  0  0  0
 22 39  1  0  0  0  0
 23 84  1  0  0  0  0
 24 85  1  0  0  0  0
 25 27  2  0  0  0  0
 25 84  1  0  0  0  0
 26 86  1  0  0  0  0
 27 87  1  0  0  0  0
 28 69  2  0  0  0  0
 29 58  1  0  0  0  0
 29 67  1  0  0  0  0
 30 62  1  0  0  0  0
 30 68  2  0  0  0  0
 31 70  1  0  0  0  0
 31 73  1  0  0  0  0
 32 74  1  0  0  0  0
 32 79  2  0  0  0  0
 33 47  1  0  0  0  0
 33 75  1  0  0  0  0
 33 80  2  0  0  0  0
 34 63  1  0  0  0  0
 34 71  1  0  0  0  0
 34 81  2  0  0  0  0
 35 64  1  0  0  0  0
 35 76  1  0  0  0  0
 35 82  2  0  0  0  0
 36 72  1  0  0  0  0
 36 77  1  0  0  0  0
 36 83  2  0  0  0  0
 37 40  1  0  0  0  0
 38 47  1  0  0  0  0
 39 71  1  0  0  0  0
 40 42  1  0  0  0  0
 41 43  1  0  0  0  0
 41 44  1  0  0  0  0
 42 46  1  0  0  0  0
 43 48  1  0  0  0  0
 44 72  1  0  0  0  0
 45 48  1  0  0  0  0
 45 72  1  0  0  0  0
 46 75  1  0  0  0  0
 47 71  1  0  0  0  0
 48 70  1  0  0  0  0
 49 62  1  0  0  0  0
 50 64  1  0  0  0  0
 51 65  1  0  0  0  0
 52 65  1  0  0  0  0
 53 65  1  0  0  0  0
 54 66  1  0  0  0  0
 55 66  1  0  0  0  0
 56 66  1  0  0  0  0
 57 78  1  0  0  0  0
 58 77  1  0  0  0  0
 59 61  1  0  0  0  0
 59 62  1  0  0  0  0
 60 65  1  0  0  0  0
 60 77  1  0  0  0  0
 61 85  1  0  0  0  0
 63 66  1  0  0  0  0
 63 76  1  0  0  0  0
 64 78  1  0  0  0  0
 69 70  1  0  0  0  0
M  CHG  1  78   1
M  ISO  4  36 100  61 101  77 100  85 101
M  END
> <Batch ID>
0060

> <Smiles>
CNC(C)C(=O)NC(C(=O)N1Cc2cc([101O:1][101CH2:1]CC(C)c3cc(C[100N:0](CC(C)(C)C)[100C:0](=O)N4CCCC(n5nc(-c6ccc(Oc7ccc(F)cc7F)cc6)c(C(N)=O)c5N)C4)ncn3)ccc2CC1C(=O)NC1CCCc2ccccc21)C(C)(C)C

> <Shape>
0.215

> <Color>
0.088

> <Negative vol penalty>
0.000

$$$$

  -OEChem-04052317553D

 86 94  0     1  0  0  0  0  0999 V2000
  -26.4485  -28.9264   26.7283 C   0  0  0  0  0  0  0  0  0  0  0  0
  -26.5940  -27.6283   27.2072 C   0  0  0  0  0  0  0  0  0  0  0  0
  -23.2312   -9.8273   19.9117 C   0  0  0  0  0  0  0  0  0  0  0  0
  -23.7882   -9.9272   22.2605 C   0  0  0  0  0  0  0  0  0  0  0  0
  -25.4013  -29.2349   25.8611 C   0  0  0  0  0  0  0  0  0  0  0  0
  -25.6916  -26.6383   26.8200 C   0  0  0  0  0  0  0  0  0  0  0  0
  -26.9106  -20.7114   25.8758 C   0  0  0  0  0  0  0  0  0  0  0  0
  -22.5060   -8.6566   20.1334 C   0  0  0  0  0  0  0  0  0  0  0  0
  -23.0629   -8.7566   22.4823 C   0  0  0  0  0  0  0  0  0  0  0  0
  -26.7462  -19.5810   26.6752 C   0  0  0  0  0  0  0  0  0  0  0  0
  -19.8220   -7.8644   22.8303 C   0  0  0  0  0  0  0  0  0  0  0  0
  -18.9678   -7.8321   23.9324 C   0  0  0  0  0  0  0  0  0  0  0  0
  -24.6362  -19.1319   25.5956 C   0  0  0  0  0  0  0  0  0  0  0  0
  -20.2022   -5.9613   24.8343 C   0  0  0  0  0  0  0  0  0  0  0  0
  -27.8285  -14.0776   25.2601 C   0  0  0  0  0  0  0  0  0  0  0  0
  -23.8724  -10.4626   20.9752 C   0  0  0  0  0  0  0  0  0  0  0  0
  -24.1417  -12.9936   20.8045 C   0  0  0  0  0  0  0  0  0  0  0  0
  -24.4913  -28.2460   25.4555 C   0  0  0  0  0  0  0  0  0  0  0  0
  -25.9322  -21.0672   24.9363 C   0  0  0  0  0  0  0  0  0  0  0  0
  -24.6304  -26.9342   25.9476 C   0  0  0  0  0  0  0  0  0  0  0  0
  -24.7918  -20.2658   24.7838 C   0  0  0  0  0  0  0  0  0  0  0  0
  -22.4218   -8.1212   21.4187 C   0  0  0  0  0  0  0  0  0  0  0  0
  -25.6075  -18.7927   26.5372 C   0  0  0  0  0  0  0  0  0  0  0  0
  -20.8663   -6.9451   22.7300 C   0  0  0  0  0  0  0  0  0  0  0  0
  -19.1579   -6.8805   24.9345 C   0  0  0  0  0  0  0  0  0  0  0  0
  -21.0565   -5.9936   23.7321 C   0  0  0  0  0  0  0  0  0  0  0  0
  -24.6221  -11.6716   20.7467 C   0  0  0  0  0  0  0  0  0  0  0  0
  -26.8425  -15.0189   25.4585 C   0  0  0  0  0  0  0  0  0  0  0  0
  -28.5970  -15.2616   23.4609 C   0  0  0  0  0  0  0  0  0  0  0  0
  -27.6105  -16.2026   23.6587 C   0  0  0  0  0  0  0  0  0  0  0  0
  -25.2366  -13.7698   20.5127 C   0  0  0  0  0  0  0  0  0  0  0  0
  -22.8237  -13.4767   21.0960 C   0  0  0  0  0  0  0  0  0  0  0  0
  -24.0290  -23.5790   24.5215 C   0  0  0  0  0  0  0  0  0  0  0  0
  -23.2574  -22.0482   21.7677 C   0  0  0  0  0  0  0  0  0  0  0  0
  -23.0738  -19.1115   20.0389 C   0  0  0  0  0  0  0  0  0  0  0  0
  -31.0464  -13.4580   21.6229 C   0  0  0  0  0  0  0  0  0  0  0  0
  -23.3475  -28.6379   24.5539 C   0  0  0  0  0  0  0  0  0  0  0  0
  -26.1372  -22.2746   24.0631 C   0  0  0  0  0  0  0  0  0  0  0  0
  -23.7216  -20.5931   23.7758 C   0  0  0  0  0  0  0  0  0  0  0  0
  -22.6549  -27.4472   23.8961 C   0  0  0  0  0  0  0  0  0  0  0  0
  -29.5631  -13.0146   18.2607 C   0  0  0  0  0  0  0  0  0  0  0  0
  -22.3805  -26.3543   24.9243 C   0  0  0  0  0  0  0  0  0  0  0  0
  -28.1083  -12.6751   18.5806 C   0  0  0  0  0  0  0  0  0  0  0  0
  -30.5057  -12.5822   19.3797 C   0  0  0  0  0  0  0  0  0  0  0  0
  -28.6823  -12.7783   21.0383 C   0  0  0  0  0  0  0  0  0  0  0  0
  -23.6865  -25.8272   25.5310 C   0  0  1  0  0  0  0  0  0  0  0  0
  -24.8342  -22.8307   23.4971 C   0  0  1  0  0  0  0  0  0  0  0  0
  -27.7011  -13.2427   19.9515 C   0  0  2  0  0  0  0  0  0  0  0  0
  -22.7046  -17.5773   18.0876 C   0  0  0  0  0  0  0  0  0  0  0  0
  -20.3330  -22.2739   22.6085 C   0  0  0  0  0  0  0  0  0  0  0  0
  -19.7788  -20.5333   20.8964 C   0  0  0  0  0  0  0  0  0  0  0  0
  -20.7582  -22.7140   20.1836 C   0  0  0  0  0  0  0  0  0  0  0  0
  -31.7074  -14.9100   23.5030 C   0  0  0  0  0  0  0  0  0  0  0  0
  -25.8749  -19.4047   19.1297 C   0  0  0  0  0  0  0  0  0  0  0  0
  -25.8589  -14.8694   26.5915 C   0  0  0  0  0  0  0  0  0  0  0  0
  -29.5807  -15.3889   22.3482 C   0  0  0  0  0  0  0  0  0  0  0  0
  -26.3151  -15.5295   27.8944 C   0  0  0  0  0  0  0  0  0  0  0  0
  -26.6270  -17.0138   27.7422 C   0  0  0  0  0  0  0  0  0  1  0  0
  -22.2216  -21.0257   21.3670 C   0  0  1  0  0  0  0  0  0  0  0  0
  -23.5187  -18.7388   18.6361 C   0  0  2  0  0  0  0  0  0  0  0  0
  -27.4811  -17.3916   22.7692 C   0  0  0  0  0  0  0  0  0  0  0  0
  -20.7920  -21.6314   21.2843 C   0  0  0  0  0  0  0  0  0  0  0  0
  -28.7235  -14.1821   24.2578 N   0  0  0  0  0  0  0  0  0  0  0  0
  -25.9210  -11.6078   20.4419 N   0  0  0  0  0  0  0  0  0  0  0  0
  -26.7158  -16.0982   24.6613 N   0  0  0  0  0  0  0  0  0  0  0  0
  -26.2661  -12.8995   20.3056 N   0  0  0  0  0  0  0  0  0  0  0  0
  -23.9648  -21.7873   22.9497 N   0  0  0  0  0  0  0  0  0  0  0  0
  -30.0713  -13.0996   20.6777 N   0  0  0  0  0  0  0  0  0  0  0  0
  -25.4095  -15.1052   20.4156 N   0  0  0  0  0  0  0  0  0  0  0  0
  -21.8161  -12.5429   21.3739 N   0  0  0  0  0  0  0  0  0  0  0  0
  -24.3418  -24.9220   24.6114 N   0  0  0  0  0  0  0  0  0  0  0  0
  -22.6931  -20.4343   20.1195 N   0  0  0  0  0  0  0  0  0  0  0  0
  -30.7247  -14.4946   22.5122 N   0  0  0  0  0  0  0  0  0  0  0  0
  -24.9564  -18.3467   18.6357 N   0  3  0  0  0  0  0  0  0  0  0  0
  -22.5437  -14.6994   21.0936 O   0  0  0  0  0  0  0  0  0  0  0  0
  -23.1854  -22.9825   25.1804 O   0  0  0  0  0  0  0  0  0  0  0  0
  -23.4374  -23.0383   21.0542 O   0  0  0  0  0  0  0  0  0  0  0  0
  -23.0615  -18.3084   20.9692 O   0  0  0  0  0  0  0  0  0  0  0  0
  -32.1457  -12.8906   21.6632 O   0  0  0  0  0  0  0  0  0  0  0  0
  -21.7140   -6.9791   21.6355 O   0  0  0  0  0  0  0  0  0  0  0  0
  -25.4442  -17.6892   27.3167 O   0  0  0  0  0  0  0  0  0  1  0  0
  -18.3384   -6.8506   25.9936 F   0  0  0  0  0  0  0  0  0  0  0  0
  -22.0587   -5.1087   23.6419 F   0  0  0  0  0  0  0  0  0  0  0  0
  -28.4173  -17.4372   21.7751 F   0  0  0  0  0  0  0  0  0  0  0  0
  -26.2774  -17.4668   22.1272 F   0  0  0  0  0  0  0  0  0  0  0  0
  -27.6088  -18.5707   23.4454 F   0  0  0  0  0  0  0  0  0  0  0  0
  1  2  1  0  0  0  0
  1  5  2  0  0  0  0
  2  6  2  0  0  0  0
  3  8  2  0  0  0  0
  3 16  1  0  0  0  0
  4  9  1  0  0  0  0
  4 16  2  0  0  0  0
  5 18  1  0  0  0  0
  6 20  1  0  0  0  0
  7 10  2  0  0  0  0
  7 19  1  0  0  0  0
  8 22  1  0  0  0  0
  9 22  2  0  0  0  0
 10 23  1  0  0  0  0
 11 12  2  0  0  0  0
 11 24  1  0  0  0  0
 12 25  1  0  0  0  0
 13 21  1  0  0  0  0
 13 23  2  0  0  0  0
 14 25  2  0  0  0  0
 14 26  1  0  0  0  0
 15 28  1  0  0  0  0
 15 63  2  0  0  0  0
 16 27  1  0  0  0  0
 17 27  1  0  0  0  0
 17 31  2  0  0  0  0
 17 32  1  0  0  0  0
 18 20  2  0  0  0  0
 18 37  1  0  0  0  0
 19 21  2  0  0  0  0
 19 38  1  0  0  0  0
 20 46  1  0  0  0  0
 21 39  1  0  0  0  0
 22 80  1  0  0  0  0
 23 81  1  0  0  0  0
 24 26  2  0  0  0  0
 24 80  1  0  0  0  0
 25 82  1  0  0  0  0
 26 83  1  0  0  0  0
 27 64  2  0  0  0  0
 28 55  1  0  0  0  0
 28 65  2  0  0  0  0
 29 30  2  0  0  0  0
 29 56  1  0  0  0  0
 29 63  1  0  0  0  0
 30 61  1  0  0  0  0
 30 65  1  0  0  0  0
 31 66  1  0  0  0  0
 31 69  1  0  0  0  0
 32 70  1  0  0  0  0
 32 75  2  0  0  0  0
 33 47  1  0  0  0  0
 33 71  1  0  0  0  0
 33 76  2  0  0  0  0
 34 59  1  0  0  0  0
 34 67  1  0  0  0  0
 34 77  2  0  0  0  0
 35 60  1  0  0  0  0
 35 72  1  0  0  0  0
 35 78  2  0  0  0  0
 36 68  1  0  0  0  0
 36 73  1  0  0  0  0
 36 79  2  0  0  0  0
 37 40  1  0  0  0  0
 38 47  1  0  0  0  0
 39 67  1  0  0  0  0
 40 42  1  0  0  0  0
 41 43  1  0  0  0  0
 41 44  1  0  0  0  0
 42 46  1  0  0  0  0
 43 48  1  0  0  0  0
 44 68  1  0  0  0  0
 45 48  1  0  0  0  0
 45 68  1  0  0  0  0
 46 71  1  0  0  0  0
 47 67  1  0  0  0  0
 48 66  1  0  0  0  0
 49 60  1  0  0  0  0
 50 62  1  0  0  0  0
 51 62  1  0  0  0  0
 52 62  1  0  0  0  0
 53 73  1  0  0  0  0
 54 74  1  0  0  0  0
 55 57  1  0  0  0  0
 56 73  1  0  0  0  0
 57 58  1  0  0  0  0
 58 81  1  0  0  0  0
 59 62  1  0  0  0  0
 59 72  1  0  0  0  0
 60 74  1  0  0  0  0
 61 84  1  0  0  0  0
 61 85  1  0  0  0  0
 61 86  1  0  0  0  0
 64 66  1  0  0  0  0
M  CHG  1  74   1
M  ISO  4  36 100  58 101  73 100  81 101
M  END
> <Batch ID>
0060

> <Smiles>
CNC(C)C(=O)NC(C(=O)N1Cc2cc([101O:1][101CH2:1]CCc3cnc(C[100N:0](C)[100C:0](=O)N4CCCC(n5nc(-c6ccc(Oc7ccc(F)cc7F)cc6)c(C(N)=O)c5N)C4)c(C(F)(F)F)n3)ccc2CC1C(=O)NC1CCCc2ccccc21)C(C)(C)C

> <Shape>
0.159

> <Color>
0.177

> <Negative vol penalty>
0.000

$$$$

  -OEChem-04052317553D

 82 90  0     1  0  0  0  0  0999 V2000
  -18.3415  -33.3699   23.0043 C   0  0  0  0  0  0  0  0  0  0  0  0
  -19.6022  -33.3807   22.4162 C   0  0  0  0  0  0  0  0  0  0  0  0
  -26.5762  -14.3137   22.0309 C   0  0  0  0  0  0  0  0  0  0  0  0
  -26.1853  -14.2429   19.6478 C   0  0  0  0  0  0  0  0  0  0  0  0
  -17.9725  -32.3169   23.8404 C   0  0  0  0  0  0  0  0  0  0  0  0
  -20.4952  -32.3388   22.6647 C   0  0  0  0  0  0  0  0  0  0  0  0
  -25.7326  -28.6036   19.5129 C   0  0  0  0  0  0  0  0  0  0  0  0
  -25.7064  -13.2374   22.2056 C   0  0  0  0  0  0  0  0  0  0  0  0
  -25.3155  -13.1665   19.8225 C   0  0  0  0  0  0  0  0  0  0  0  0
  -27.0521  -28.2075   19.7269 C   0  0  0  0  0  0  0  0  0  0  0  0
  -22.1200  -12.6811   20.8144 C   0  0  0  0  0  0  0  0  0  0  0  0
  -20.9058  -12.7111   20.1285 C   0  0  0  0  0  0  0  0  0  0  0  0
  -26.2766  -26.4011   21.1251 C   0  0  0  0  0  0  0  0  0  0  0  0
  -21.4972  -10.6627   18.9921 C   0  0  0  0  0  0  0  0  0  0  0  0
  -31.1824  -24.3466   20.7506 C   0  0  0  0  0  0  0  0  0  0  0  0
  -26.8156  -14.8165   20.7520 C   0  0  0  0  0  0  0  0  0  0  0  0
  -29.1018  -15.8724   20.3447 C   0  0  0  0  0  0  0  0  0  0  0  0
  -18.8578  -31.2568   24.0915 C   0  0  0  0  0  0  0  0  0  0  0  0
  -24.6740  -27.9069   20.1131 C   0  0  0  0  0  0  0  0  0  0  0  0
  -20.1382  -31.2713   23.5060 C   0  0  0  0  0  0  0  0  0  0  0  0
  -24.9444  -26.7889   20.9150 C   0  0  0  0  0  0  0  0  0  0  0  0
  -25.0761  -12.6637   21.1014 C   0  0  0  0  0  0  0  0  0  0  0  0
  -27.3244  -27.1079   20.5354 C   0  0  0  0  0  0  0  0  0  0  0  0
  -23.0229  -11.6420   20.5891 C   0  0  0  0  0  0  0  0  0  0  0  0
  -20.5944  -11.7019   19.2173 C   0  0  0  0  0  0  0  0  0  0  0  0
  -22.7115  -10.6327   19.6780 C   0  0  0  0  0  0  0  0  0  0  0  0
  -27.7135  -15.9288   20.5710 C   0  0  0  0  0  0  0  0  0  0  0  0
  -29.4865  -17.1869   20.2417 C   0  0  0  0  0  0  0  0  0  0  0  0
  -31.6054  -23.7503   18.7955 C   0  0  0  0  0  0  0  0  0  0  0  0
  -29.9664  -14.7337   20.2372 C   0  0  0  0  0  0  0  0  0  0  0  0
  -22.3937  -28.6531   22.1981 C   0  0  0  0  0  0  0  0  0  0  0  0
  -21.3425  -25.6583   21.5284 C   0  0  0  0  0  0  0  0  0  0  0  0
  -22.0689  -22.5126   20.4223 C   0  0  0  0  0  0  0  0  0  0  0  0
  -28.6880  -22.3526   18.2863 C   0  0  0  0  0  0  0  0  0  0  0  0
  -18.4316  -30.1643   25.0399 C   0  0  0  0  0  0  0  0  0  0  0  0
  -23.2548  -28.3307   19.8507 C   0  0  0  0  0  0  0  0  0  0  0  0
  -23.8426  -25.9947   21.5660 C   0  0  0  0  0  0  0  0  0  0  0  0
  -19.2982  -28.9106   24.9538 C   0  0  0  0  0  0  0  0  0  0  0  0
  -26.9581  -21.4471   21.2636 C   0  0  0  0  0  0  0  0  0  0  0  0
  -20.7774  -29.2834   24.9499 C   0  0  0  0  0  0  0  0  0  0  0  0
  -27.1097  -19.9262   21.3265 C   0  0  0  0  0  0  0  0  0  0  0  0
  -26.7931  -21.9388   19.8272 C   0  0  0  0  0  0  0  0  0  0  0  0
  -27.9970  -19.9719   18.9581 C   0  0  0  0  0  0  0  0  0  0  0  0
  -21.1255  -30.1469   23.7315 C   0  0  1  0  0  0  0  0  0  0  0  0
  -22.2818  -27.8596   20.9271 C   0  0  1  0  0  0  0  0  0  0  0  0
  -28.2224  -19.4340   20.3816 C   0  0  2  0  0  0  0  0  0  0  0  0
  -21.0119  -20.2720   20.0227 C   0  0  0  0  0  0  0  0  0  0  0  0
  -32.7129  -21.6552   17.7559 C   0  0  0  0  0  0  0  0  0  0  0  0
  -32.7982  -23.8434   16.5895 C   0  0  0  0  0  0  0  0  0  0  0  0
  -21.3719  -25.1118   24.5301 C   0  0  0  0  0  0  0  0  0  0  0  0
  -21.2438  -22.6650   24.0153 C   0  0  0  0  0  0  0  0  0  0  0  0
  -19.3903  -24.1827   23.3200 C   0  0  0  0  0  0  0  0  0  0  0  0
  -22.6859  -22.6081   17.5294 C   0  0  0  0  0  0  0  0  0  0  0  0
  -31.0038  -26.9508   20.5125 C   0  0  0  0  0  0  0  0  0  0  0  0
  -30.6164  -22.6064   16.7448 C   0  0  0  0  0  0  0  0  0  0  0  0
  -29.6335  -27.4841   20.1087 C   0  0  0  0  0  0  0  0  0  1  0  0
  -21.5999  -24.2832   22.0955 C   0  0  1  0  0  0  0  0  0  0  0  0
  -21.3776  -21.6156   19.4114 C   0  0  2  0  0  0  0  0  0  0  0  0
  -31.9038  -23.0031   17.5768 C   0  0  0  0  0  0  0  0  0  0  0  0
  -20.9225  -24.0766   23.4797 C   0  0  0  0  0  0  0  0  0  0  0  0
  -31.4233  -23.2381   19.9904 N   0  0  0  0  0  0  0  0  0  0  0  0
  -27.2477  -17.1800   20.6097 N   0  0  0  0  0  0  0  0  0  0  0  0
  -31.4765  -25.1030   18.8528 N   0  0  0  0  0  0  0  0  0  0  0  0
  -31.2039  -25.5124   20.1011 N   0  0  0  0  0  0  0  0  0  0  0  0
  -28.3496  -17.9221   20.4064 N   0  0  0  0  0  0  0  0  0  0  0  0
  -22.4720  -26.4523   21.2842 N   0  0  0  0  0  0  0  0  0  0  0  0
  -27.8811  -21.4384   18.9836 N   0  0  0  0  0  0  0  0  0  0  0  0
  -30.6831  -17.7741   20.0273 N   0  0  0  0  0  0  0  0  0  0  0  0
  -29.4068  -13.4553   20.3678 N   0  0  0  0  0  0  0  0  0  0  0  0
  -21.2374  -29.3255   22.5452 N   0  0  0  0  0  0  0  0  0  0  0  0
  -21.1728  -23.3337   21.0736 N   0  0  0  0  0  0  0  0  0  0  0  0
  -29.7002  -21.7949   17.5148 N   0  0  0  0  0  0  0  0  0  0  0  0
  -22.2671  -21.3729   18.2407 N   0  3  0  0  0  0  0  0  0  0  0  0
  -31.2012  -14.8470   20.0479 O   0  0  0  0  0  0  0  0  0  0  0  0
  -23.4503  -28.6541   22.8187 O   0  0  0  0  0  0  0  0  0  0  0  0
  -20.1824  -26.0123   21.3035 O   0  0  0  0  0  0  0  0  0  0  0  0
  -23.2820  -22.4849   20.6176 O   0  0  0  0  0  0  0  0  0  0  0  0
  -28.5222  -23.5754   18.3509 O   0  0  0  0  0  0  0  0  0  0  0  0
  -24.2275  -11.6132   21.2715 O   0  0  0  0  0  0  0  0  0  0  0  0
  -28.6114  -26.7195   20.7466 O   0  0  0  0  0  0  0  0  0  1  0  0
  -19.4278  -11.7299   18.5599 F   0  0  0  0  0  0  0  0  0  0  0  0
  -23.5743   -9.6312   19.4583 F   0  0  0  0  0  0  0  0  0  0  0  0
  1  2  1  0  0  0  0
  1  5  2  0  0  0  0
  2  6  2  0  0  0  0
  3  8  2  0  0  0  0
  3 16  1  0  0  0  0
  4  9  1  0  0  0  0
  4 16  2  0  0  0  0
  5 18  1  0  0  0  0
  6 20  1  0  0  0  0
  7 10  2  0  0  0  0
  7 19  1  0  0  0  0
  8 22  1  0  0  0  0
  9 22  2  0  0  0  0
 10 23  1  0  0  0  0
 11 12  2  0  0  0  0
 11 24  1  0  0  0  0
 12 25  1  0  0  0  0
 13 21  1  0  0  0  0
 13 23  2  0  0  0  0
 14 25  2  0  0  0  0
 14 26  1  0  0  0  0
 15 61  2  0  0  0  0
 15 64  1  0  0  0  0
 16 27  1  0  0  0  0
 17 27  1  0  0  0  0
 17 28  2  0  0  0  0
 17 30  1  0  0  0  0
 18 20  2  0  0  0  0
 18 35  1  0  0  0  0
 19 21  2  0  0  0  0
 19 36  1  0  0  0  0
 20 44  1  0  0  0  0
 21 37  1  0  0  0  0
 22 79  1  0  0  0  0
 23 80  1  0  0  0  0
 24 26  2  0  0  0  0
 24 79  1  0  0  0  0
 25 81  1  0  0  0  0
 26 82  1  0  0  0  0
 27 62  2  0  0  0  0
 28 65  1  0  0  0  0
 28 68  1  0  0  0  0
 29 59  1  0  0  0  0
 29 61  1  0  0  0  0
 29 63  2  0  0  0  0
 30 69  1  0  0  0  0
 30 74  2  0  0  0  0
 31 45  1  0  0  0  0
 31 70  1  0  0  0  0
 31 75  2  0  0  0  0
 32 57  1  0  0  0  0
 32 66  1  0  0  0  0
 32 76  2  0  0  0  0
 33 58  1  0  0  0  0
 33 71  1  0  0  0  0
 33 77  2  0  0  0  0
 34 67  1  0  0  0  0
 34 72  1  0  0  0  0
 34 78  2  0  0  0  0
 35 38  1  0  0  0  0
 36 45  1  0  0  0  0
 37 66  1  0  0  0  0
 38 40  1  0  0  0  0
 39 41  1  0  0  0  0
 39 42  1  0  0  0  0
 40 44  1  0  0  0  0
 41 46  1  0  0  0  0
 42 67  1  0  0  0  0
 43 46  1  0  0  0  0
 43 67  1  0  0  0  0
 44 70  1  0  0  0  0
 45 66  1  0  0  0  0
 46 65  1  0  0  0  0
 47 58  1  0  0  0  0
 48 59  1  0  0  0  0
 49 59  1  0  0  0  0
 50 60  1  0  0  0  0
 51 60  1  0  0  0  0
 52 60  1  0  0  0  0
 53 73  1  0  0  0  0
 54 56  1  0  0  0  0
 54 64  1  0  0  0  0
 55 59  1  0  0  0  0
 55 72  1  0  0  0  0
 56 80  1  0  0  0  0
 57 60  1  0  0  0  0
 57 71  1  0  0  0  0
 58 73  1  0  0  0  0
 62 65  1  0  0  0  0
 63 64  1  0  0  0  0
M  CHG  1  73   1
M  ISO  4  34 100  56 101  72 100  80 101
M  END
> <Batch ID>
0060

> <Smiles>
CNC(C)C(=O)NC(C(=O)N1Cc2cc([101O:1][101CH2:1]Cn3cnc(C(C)(C)C[100NH:0][100C:0](=O)N4CCCC(n5nc(-c6ccc(Oc7ccc(F)cc7F)cc6)c(C(N)=O)c5N)C4)n3)ccc2CC1C(=O)NC1CCCc2ccccc21)C(C)(C)C

> <Shape>
0.243

> <Color>
0.106

> <Negative vol penalty>
0.000

$$$$

  -OEChem-04052317553D

 84 92  0     1  0  0  0  0  0999 V2000
  -22.2737  -21.9136   14.8840 C   0  0  0  0  0  0  0  0  0  0  0  0
  -23.5020  -21.3163   15.1484 C   0  0  0  0  0  0  0  0  0  0  0  0
  -22.3549  -27.8055   21.4227 C   0  0  0  0  0  0  0  0  0  0  0  0
  -23.7915  -29.0451   22.9181 C   0  0  0  0  0  0  0  0  0  0  0  0
  -21.2609  -21.8757   15.8414 C   0  0  0  0  0  0  0  0  0  0  0  0
  -23.7186  -20.6817   16.3710 C   0  0  0  0  0  0  0  0  0  0  0  0
  -27.1116  -15.6830   17.3740 C   0  0  0  0  0  0  0  0  0  0  0  0
  -21.3103  -27.9076   22.3414 C   0  0  0  0  0  0  0  0  0  0  0  0
  -22.7470  -29.1473   23.8369 C   0  0  0  0  0  0  0  0  0  0  0  0
  -28.4153  -15.5117   17.8377 C   0  0  0  0  0  0  0  0  0  0  0  0
  -19.0552  -30.2373   23.3004 C   0  0  0  0  0  0  0  0  0  0  0  0
  -17.7954  -30.5856   22.8136 C   0  0  0  0  0  0  0  0  0  0  0  0
  -27.5691  -15.1634   20.0698 C   0  0  0  0  0  0  0  0  0  0  0  0
  -16.8970  -28.5044   23.6494 C   0  0  0  0  0  0  0  0  0  0  0  0
  -29.8386  -18.7144   20.4257 C   0  0  0  0  0  0  0  0  0  0  0  0
  -31.8936  -19.4636   20.6509 C   0  0  0  0  0  0  0  0  0  0  0  0
  -23.5955  -28.3742   21.7110 C   0  0  0  0  0  0  0  0  0  0  0  0
  -24.9837  -29.1658   19.7226 C   0  0  0  0  0  0  0  0  0  0  0  0
  -21.4620  -21.2319   17.0726 C   0  0  0  0  0  0  0  0  0  0  0  0
  -26.0259  -15.6064   18.2582 C   0  0  0  0  0  0  0  0  0  0  0  0
  -22.7080  -20.6363   17.3464 C   0  0  0  0  0  0  0  0  0  0  0  0
  -26.2526  -15.3315   19.6143 C   0  0  0  0  0  0  0  0  0  0  0  0
  -31.1484  -18.3143   20.7514 C   0  0  0  0  0  0  0  0  0  0  0  0
  -21.5064  -28.5785   23.5485 C   0  0  0  0  0  0  0  0  0  0  0  0
  -28.6444  -15.2547   19.1863 C   0  0  0  0  0  0  0  0  0  0  0  0
  -19.2360  -29.0225   23.9617 C   0  0  0  0  0  0  0  0  0  0  0  0
  -16.7163  -29.7192   22.9881 C   0  0  0  0  0  0  0  0  0  0  0  0
  -18.1569  -28.1561   24.1363 C   0  0  0  0  0  0  0  0  0  0  0  0
  -24.6750  -28.2686   20.7626 C   0  0  0  0  0  0  0  0  0  0  0  0
  -26.0882  -28.6203   19.1151 C   0  0  0  0  0  0  0  0  0  0  0  0
  -24.3306  -30.3834   19.3400 C   0  0  0  0  0  0  0  0  0  0  0  0
  -23.7604  -17.6234   19.2085 C   0  0  0  0  0  0  0  0  0  0  0  0
  -22.6099  -15.0012   20.7326 C   0  0  0  0  0  0  0  0  0  0  0  0
  -23.2333  -11.9330   22.0907 C   0  0  0  0  0  0  0  0  0  0  0  0
  -30.3767  -25.1858   20.9647 C   0  0  0  0  0  0  0  0  0  0  0  0
  -20.3534  -21.2579   18.0949 C   0  0  0  0  0  0  0  0  0  0  0  0
  -24.6239  -15.7670   17.7375 C   0  0  0  0  0  0  0  0  0  0  0  0
  -25.1200  -15.2193   20.6008 C   0  0  0  0  0  0  0  0  0  0  0  0
  -20.5367  -20.2405   19.2181 C   0  0  0  0  0  0  0  0  0  0  0  0
  -28.2228  -24.4322   18.2694 C   0  0  0  0  0  0  0  0  0  0  0  0
  -21.9662  -20.2826   19.7485 C   0  0  0  0  0  0  0  0  0  0  0  0
  -27.0826  -25.4212   18.5075 C   0  0  0  0  0  0  0  0  0  0  0  0
  -28.7424  -23.8289   19.5757 C   0  0  0  0  0  0  0  0  0  0  0  0
  -27.9886  -25.8266   20.8262 C   0  0  0  0  0  0  0  0  0  0  0  0
  -22.9729  -19.9169   18.6511 C   0  0  1  0  0  0  0  0  0  0  0  0
  -23.6287  -16.1785   18.8180 C   0  0  1  0  0  0  0  0  0  0  0  0
  -27.4888  -26.4921   19.5348 C   0  0  2  0  0  0  0  0  0  0  0  0
  -22.1016  -10.0462   23.2975 C   0  0  0  0  0  0  0  0  0  0  0  0
  -33.4640  -23.3532   21.8418 C   0  0  0  0  0  0  0  0  0  0  0  0
  -33.3080  -24.6260   19.6786 C   0  0  0  0  0  0  0  0  0  0  0  0
  -22.6023  -16.6507   23.2995 C   0  0  0  0  0  0  0  0  0  0  0  0
  -22.3924  -14.5149   24.5889 C   0  0  0  0  0  0  0  0  0  0  0  0
  -20.5969  -15.1881   22.9934 C   0  0  0  0  0  0  0  0  0  0  0  0
  -23.8705  -10.0146   19.9291 C   0  0  0  0  0  0  0  0  0  0  0  0
  -31.6277  -16.9354   21.1289 C   0  0  0  0  0  0  0  0  0  0  0  0
  -32.0758  -16.0905   19.9343 C   0  0  0  0  0  0  0  0  0  0  0  0
  -31.3368  -21.8333   20.0565 C   0  0  0  0  0  0  0  0  0  0  0  0
  -30.9497  -22.7347   21.2261 C   0  0  0  0  0  0  0  0  0  0  0  0
  -30.9500  -15.7888   18.9520 C   0  0  0  0  0  0  0  0  0  1  0  0
  -22.8161  -14.3785   22.0923 C   0  0  1  0  0  0  0  0  0  0  0  0
  -22.5173  -10.6025   21.9445 C   0  0  2  0  0  0  0  0  0  0  0  0
  -32.7245  -24.4414   21.0736 C   0  0  0  0  0  0  0  0  0  0  0  0
  -22.1236  -15.1870   23.2255 C   0  0  0  0  0  0  0  0  0  0  0  0
  -29.7533  -20.0164   20.1398 N   0  0  0  0  0  0  0  0  0  0  0  0
  -25.5154  -27.2318   20.8156 N   0  0  0  0  0  0  0  0  0  0  0  0
  -31.0189  -20.4443   20.2857 N   0  0  0  0  0  0  0  0  0  0  0  0
  -26.3630  -27.4740   19.8012 N   0  0  0  0  0  0  0  0  0  0  0  0
  -23.7678  -15.3904   20.0443 N   0  0  0  0  0  0  0  0  0  0  0  0
  -29.0732  -24.8831   20.5442 N   0  0  0  0  0  0  0  0  0  0  0  0
  -26.8414  -29.0140   18.0663 N   0  0  0  0  0  0  0  0  0  0  0  0
  -23.2096  -30.7987   20.0715 N   0  0  0  0  0  0  0  0  0  0  0  0
  -22.9967  -18.4847   18.4441 N   0  0  0  0  0  0  0  0  0  0  0  0
  -22.3623  -12.9964   21.9813 N   0  0  0  0  0  0  0  0  0  0  0  0
  -31.3038  -24.1331   20.9911 N   0  0  0  0  0  0  0  0  0  0  0  0
  -23.4049   -9.6069   21.2796 N   0  3  0  0  0  0  0  0  0  0  0  0
  -24.7194  -31.0740   18.3676 O   0  0  0  0  0  0  0  0  0  0  0  0
  -24.4991  -17.9337   20.1358 O   0  0  0  0  0  0  0  0  0  0  0  0
  -21.4642  -15.1309   20.2942 O   0  0  0  0  0  0  0  0  0  0  0  0
  -24.4435  -12.0203   22.2864 O   0  0  0  0  0  0  0  0  0  0  0  0
  -30.6943  -26.3324   21.3062 O   0  0  0  0  0  0  0  0  0  0  0  0
  -20.4873  -28.6786   24.4452 O   0  0  0  0  0  0  0  0  0  0  0  0
  -29.9159  -15.0878   19.6416 O   0  0  0  0  0  0  0  0  0  1  0  0
  -15.5062  -30.0545   22.5219 F   0  0  0  0  0  0  0  0  0  0  0  0
  -18.3242  -26.9882   24.7718 F   0  0  0  0  0  0  0  0  0  0  0  0
  1  2  1  0  0  0  0
  1  5  2  0  0  0  0
  2  6  2  0  0  0  0
  3  8  2  0  0  0  0
  3 17  1  0  0  0  0
  4  9  1  0  0  0  0
  4 17  2  0  0  0  0
  5 19  1  0  0  0  0
  6 21  1  0  0  0  0
  7 10  2  0  0  0  0
  7 20  1  0  0  0  0
  8 24  1  0  0  0  0
  9 24  2  0  0  0  0
 10 25  1  0  0  0  0
 11 12  2  0  0  0  0
 11 26  1  0  0  0  0
 12 27  1  0  0  0  0
 13 22  1  0  0  0  0
 13 25  2  0  0  0  0
 14 27  2  0  0  0  0
 14 28  1  0  0  0  0
 15 23  1  0  0  0  0
 15 64  2  0  0  0  0
 16 23  2  0  0  0  0
 16 66  1  0  0  0  0
 17 29  1  0  0  0  0
 18 29  1  0  0  0  0
 18 30  2  0  0  0  0
 18 31  1  0  0  0  0
 19 21  2  0  0  0  0
 19 36  1  0  0  0  0
 20 22  2  0  0  0  0
 20 37  1  0  0  0  0
 21 45  1  0  0  0  0
 22 38  1  0  0  0  0
 23 55  1  0  0  0  0
 24 81  1  0  0  0  0
 25 82  1  0  0  0  0
 26 28  2  0  0  0  0
 26 81  1  0  0  0  0
 27 83  1  0  0  0  0
 28 84  1  0  0  0  0
 29 65  2  0  0  0  0
 30 67  1  0  0  0  0
 30 70  1  0  0  0  0
 31 71  1  0  0  0  0
 31 76  2  0  0  0  0
 32 46  1  0  0  0  0
 32 72  1  0  0  0  0
 32 77  2  0  0  0  0
 33 60  1  0  0  0  0
 33 68  1  0  0  0  0
 33 78  2  0  0  0  0
 34 61  1  0  0  0  0
 34 73  1  0  0  0  0
 34 79  2  0  0  0  0
 35 69  1  0  0  0  0
 35 74  1  0  0  0  0
 35 80  2  0  0  0  0
 36 39  1  0  0  0  0
 37 46  1  0  0  0  0
 38 68  1  0  0  0  0
 39 41  1  0  0  0  0
 40 42  1  0  0  0  0
 40 43  1  0  0  0  0
 41 45  1  0  0  0  0
 42 47  1  0  0  0  0
 43 69  1  0  0  0  0
 44 47  1  0  0  0  0
 44 69  1  0  0  0  0
 45 72  1  0  0  0  0
 46 68  1  0  0  0  0
 47 67  1  0  0  0  0
 48 61  1  0  0  0  0
 49 62  1  0  0  0  0
 50 62  1  0  0  0  0
 51 63  1  0  0  0  0
 52 63  1  0  0  0  0
 53 63  1  0  0  0  0
 54 75  1  0  0  0  0
 55 56  1  0  0  0  0
 56 59  1  0  0  0  0
 57 58  1  0  0  0  0
 57 66  1  0  0  0  0
 58 74  1  0  0  0  0
 59 82  1  0  0  0  0
 60 63  1  0  0  0  0
 60 73  1  0  0  0  0
 61 75  1  0  0  0  0
 62 74  1  0  0  0  0
 64 66  1  0  0  0  0
 65 67  1  0  0  0  0
M  CHG  1  75   1
M  ISO  4  35 100  59 101  74 100  82 101
M  END
> <Batch ID>
0060

> <Smiles>
CNC(C)C(=O)NC(C(=O)N1Cc2cc([101O:1][101CH2:1]CCc3cnn(CC[100N:0](C(C)C)[100C:0](=O)N4CCCC(n5nc(-c6ccc(Oc7ccc(F)cc7F)cc6)c(C(N)=O)c5N)C4)c3)ccc2CC1C(=O)NC1CCCc2ccccc21)C(C)(C)C

> <Shape>
0.209

> <Color>
0.071

> <Negative vol penalty>
0.000

$$$$

  -OEChem-04052317553D

 79 87  0     1  0  0  0  0  0999 V2000
  -27.9794  -11.3355   22.6265 C   0  0  0  0  0  0  0  0  0  0  0  0
  -28.5356  -12.5806   22.3514 C   0  0  0  0  0  0  0  0  0  0  0  0
  -21.3880  -27.0224   21.3252 C   0  0  0  0  0  0  0  0  0  0  0  0
  -21.7494  -28.6038   19.5348 C   0  0  0  0  0  0  0  0  0  0  0  0
  -26.7678  -10.9699   22.0414 C   0  0  0  0  0  0  0  0  0  0  0  0
  -27.8811  -13.4605   21.4902 C   0  0  0  0  0  0  0  0  0  0  0  0
  -27.7353  -19.5704   21.8827 C   0  0  0  0  0  0  0  0  0  0  0  0
  -20.1049  -27.5340   21.5182 C   0  0  0  0  0  0  0  0  0  0  0  0
  -20.4662  -29.1155   19.7277 C   0  0  0  0  0  0  0  0  0  0  0  0
  -28.4633  -20.5694   21.2377 C   0  0  0  0  0  0  0  0  0  0  0  0
  -18.6929  -30.2214   23.0043 C   0  0  0  0  0  0  0  0  0  0  0  0
  -18.2837  -30.4655   24.3152 C   0  0  0  0  0  0  0  0  0  0  0  0
  -26.6877  -20.8123   19.6230 C   0  0  0  0  0  0  0  0  0  0  0  0
  -16.4564  -28.9100   24.0344 C   0  0  0  0  0  0  0  0  0  0  0  0
  -29.6648  -25.4864   17.5803 C   0  0  0  0  0  0  0  0  0  0  0  0
  -22.2104  -27.5573   20.3335 C   0  0  0  0  0  0  0  0  0  0  0  0
  -23.9122  -25.9762   19.2792 C   0  0  0  0  0  0  0  0  0  0  0  0
  -26.0932  -11.8496   21.1802 C   0  0  0  0  0  0  0  0  0  0  0  0
  -26.4808  -19.1766   21.3954 C   0  0  0  0  0  0  0  0  0  0  0  0
  -26.6600  -13.1059   20.8920 C   0  0  0  0  0  0  0  0  0  0  0  0
  -25.9447  -19.8099   20.2650 C   0  0  0  0  0  0  0  0  0  0  0  0
  -19.6439  -28.5806   20.7194 C   0  0  0  0  0  0  0  0  0  0  0  0
  -27.9407  -21.1885   20.1060 C   0  0  0  0  0  0  0  0  0  0  0  0
  -17.9838  -29.3217   22.2084 C   0  0  0  0  0  0  0  0  0  0  0  0
  -17.1655  -29.8098   24.8303 C   0  0  0  0  0  0  0  0  0  0  0  0
  -16.8656  -28.6660   22.7234 C   0  0  0  0  0  0  0  0  0  0  0  0
  -23.5362  -27.0296   20.1341 C   0  0  0  0  0  0  0  0  0  0  0  0
  -30.0609  -24.2412   17.9994 C   0  0  0  0  0  0  0  0  0  0  0  0
  -25.2700  -25.8622   19.4515 C   0  0  0  0  0  0  0  0  0  0  0  0
  -23.1060  -25.1726   18.4074 C   0  0  0  0  0  0  0  0  0  0  0  0
  -25.2648  -16.4684   20.2595 C   0  0  0  0  0  0  0  0  0  0  0  0
  -30.2935  -28.2819   19.8973 C   0  0  0  0  0  0  0  0  0  0  0  0
  -22.4955  -18.1574   20.2835 C   0  0  0  0  0  0  0  0  0  0  0  0
  -20.9596  -21.2043   20.2182 C   0  0  0  0  0  0  0  0  0  0  0  0
  -24.8096  -11.3915   20.5343 C   0  0  0  0  0  0  0  0  0  0  0  0
  -25.6964  -18.1161   22.1181 C   0  0  0  0  0  0  0  0  0  0  0  0
  -24.5934  -19.4378   19.7137 C   0  0  0  0  0  0  0  0  0  0  0  0
  -23.9931  -12.5295   19.9274 C   0  0  0  0  0  0  0  0  0  0  0  0
  -28.3468  -27.9253   22.8844 C   0  0  0  0  0  0  0  0  0  0  0  0
  -24.8894  -13.4502   19.1053 C   0  0  0  0  0  0  0  0  0  0  0  0
  -26.9464  -27.6039   22.3641 C   0  0  0  0  0  0  0  0  0  0  0  0
  -29.0767  -28.8953   21.9607 C   0  0  0  0  0  0  0  0  0  0  0  0
  -27.7579  -28.1157   20.0179 C   0  0  0  0  0  0  0  0  0  0  0  0
  -25.9677  -14.0977   19.9825 C   0  0  1  0  0  0  0  0  0  0  0  0
  -24.6555  -17.4361   21.2341 C   0  0  1  0  0  0  0  0  0  0  0  0
  -26.9974  -27.1149   20.9057 C   0  0  2  0  0  0  0  0  0  0  0  0
  -31.3124  -28.4172   17.6348 C   0  0  0  0  0  0  0  0  0  0  0  0
  -18.6848  -22.2638   20.2109 C   0  0  0  0  0  0  0  0  0  0  0  0
  -22.1576  -17.4057   17.3457 C   0  0  0  0  0  0  0  0  0  0  0  0
  -20.4432  -19.2199   17.1508 C   0  0  0  0  0  0  0  0  0  0  0  0
  -20.0561  -17.3014   18.6975 C   0  0  0  0  0  0  0  0  0  0  0  0
  -21.4841  -22.6219   22.7627 C   0  0  0  0  0  0  0  0  0  0  0  0
  -29.7077  -22.8893   17.4284 C   0  0  0  0  0  0  0  0  0  0  0  0
  -28.4550  -22.2995   18.0671 C   0  0  0  0  0  0  0  0  0  1  0  0
  -30.2208  -27.7676   18.4816 C   0  0  1  0  0  0  0  0  0  0  0  0
  -21.7795  -19.0507   19.2994 C   0  0  1  0  0  0  0  0  0  0  0  0
  -19.8473  -21.7900   21.0692 C   0  0  2  0  0  0  0  0  0  0  0  0
  -21.1354  -18.2503   18.1324 C   0  0  0  0  0  0  0  0  0  0  0  0
  -24.5716  -27.5477   20.8001 N   0  0  0  0  0  0  0  0  0  0  0  0
  -30.8858  -24.3620   19.0832 N   0  0  0  0  0  0  0  0  0  0  0  0
  -31.0159  -25.6559   19.3549 N   0  0  0  0  0  0  0  0  0  0  0  0
  -30.2829  -26.3284   18.4528 N   0  0  0  0  0  0  0  0  0  0  0  0
  -25.6115  -26.8168   20.3638 N   0  0  0  0  0  0  0  0  0  0  0  0
  -23.8677  -18.3909   20.4518 N   0  0  0  0  0  0  0  0  0  0  0  0
  -29.0839  -28.4057   20.5810 N   0  0  0  0  0  0  0  0  0  0  0  0
  -26.1933  -25.0394   18.9101 N   0  0  0  0  0  0  0  0  0  0  0  0
  -21.7282  -25.4232   18.3516 N   0  0  0  0  0  0  0  0  0  0  0  0
  -25.4058  -15.1857   20.7538 N   0  0  0  0  0  0  0  0  0  0  0  0
  -20.8307  -19.8385   20.0788 N   0  0  0  0  0  0  0  0  0  0  0  0
  -20.3535  -22.9498   21.8565 N   0  3  0  0  0  0  0  0  0  0  0  0
  -23.5907  -24.2486   17.7110 O   0  0  0  0  0  0  0  0  0  0  0  0
  -25.5821  -16.8563   19.1412 O   0  0  0  0  0  0  0  0  0  0  0  0
  -31.3937  -28.5620   20.3803 O   0  0  0  0  0  0  0  0  0  0  0  0
  -21.8592  -17.2892   20.8861 O   0  0  0  0  0  0  0  0  0  0  0  0
  -21.8513  -21.8901   19.7234 O   0  0  0  0  0  0  0  0  0  0  0  0
  -18.3918  -29.0799   20.9073 O   0  0  0  0  0  0  0  0  0  0  0  0
  -28.6495  -22.1634   19.4742 O   0  0  0  0  0  0  0  0  0  1  0  0
  -16.7735  -30.0431   26.0897 F   0  0  0  0  0  0  0  0  0  0  0  0
  -16.1811  -27.7997   21.9640 F   0  0  0  0  0  0  0  0  0  0  0  0
  1  2  1  0  0  0  0
  1  5  2  0  0  0  0
  2  6  2  0  0  0  0
  3  8  2  0  0  0  0
  3 16  1  0  0  0  0
  4  9  1  0  0  0  0
  4 16  2  0  0  0  0
  5 18  1  0  0  0  0
  6 20  1  0  0  0  0
  7 10  2  0  0  0  0
  7 19  1  0  0  0  0
  8 22  1  0  0  0  0
  9 22  2  0  0  0  0
 10 23  1  0  0  0  0
 11 12  2  0  0  0  0
 11 24  1  0  0  0  0
 12 25  1  0  0  0  0
 13 21  1  0  0  0  0
 13 23  2  0  0  0  0
 14 25  2  0  0  0  0
 14 26  1  0  0  0  0
 15 28  2  0  0  0  0
 15 62  1  0  0  0  0
 16 27  1  0  0  0  0
 17 27  1  0  0  0  0
 17 29  2  0  0  0  0
 17 30  1  0  0  0  0
 18 20  2  0  0  0  0
 18 35  1  0  0  0  0
 19 21  2  0  0  0  0
 19 36  1  0  0  0  0
 20 44  1  0  0  0  0
 21 37  1  0  0  0  0
 22 76  1  0  0  0  0
 23 77  1  0  0  0  0
 24 26  2  0  0  0  0
 24 76  1  0  0  0  0
 25 78  1  0  0  0  0
 26 79  1  0  0  0  0
 27 59  2  0  0  0  0
 28 53  1  0  0  0  0
 28 60  1  0  0  0  0
 29 63  1  0  0  0  0
 29 66  1  0  0  0  0
 30 67  1  0  0  0  0
 30 71  2  0  0  0  0
 31 45  1  0  0  0  0
 31 68  1  0  0  0  0
 31 72  2  0  0  0  0
 32 55  1  0  0  0  0
 32 65  1  0  0  0  0
 32 73  2  0  0  0  0
 33 56  1  0  0  0  0
 33 64  1  0  0  0  0
 33 74  2  0  0  0  0
 34 57  1  0  0  0  0
 34 69  1  0  0  0  0
 34 75  2  0  0  0  0
 35 38  1  0  0  0  0
 36 45  1  0  0  0  0
 37 64  1  0  0  0  0
 38 40  1  0  0  0  0
 39 41  1  0  0  0  0
 39 42  1  0  0  0  0
 40 44  1  0  0  0  0
 41 46  1  0  0  0  0
 42 65  1  0  0  0  0
 43 46  1  0  0  0  0
 43 65  1  0  0  0  0
 44 68  1  0  0  0  0
 45 64  1  0  0  0  0
 46 63  1  0  0  0  0
 47 55  1  0  0  0  0
 48 57  1  0  0  0  0
 49 58  1  0  0  0  0
 50 58  1  0  0  0  0
 51 58  1  0  0  0  0
 52 70  1  0  0  0  0
 53 54  1  0  0  0  0
 54 77  1  0  0  0  0
 55 62  1  0  0  0  0
 56 58  1  0  0  0  0
 56 69  1  0  0  0  0
 57 70  1  0  0  0  0
 59 63  1  0  0  0  0
 60 61  2  0  0  0  0
 61 62  1  0  0  0  0
M  CHG  1  70   1
M  ISO  4  32 100  54 101  55 100  77 101
M  END
> <Batch ID>
0060

> <Smiles>
CNC(C)C(=O)NC(C(=O)N1Cc2cc([101O:1][101CH2:1]Cc3cn([100CH:0](C)[100C:0](=O)N4CCCC(n5nc(-c6ccc(Oc7ccc(F)cc7F)cc6)c(C(N)=O)c5N)C4)nn3)ccc2CC1C(=O)NC1CCCc2ccccc21)C(C)(C)C

> <Shape>
0.201

> <Color>
0.082

> <Negative vol penalty>
0.000

$$$$

  -OEChem-04052317553D

 81 89  0     1  0  0  0  0  0999 V2000
  -13.8828  -16.6825   23.7266 C   0  0  0  0  0  0  0  0  0  0  0  0
  -14.9526  -15.9097   23.2865 C   0  0  0  0  0  0  0  0  0  0  0  0
  -23.1874   -9.8245   19.9331 C   0  0  0  0  0  0  0  0  0  0  0  0
  -23.5742   -9.9995   22.3115 C   0  0  0  0  0  0  0  0  0  0  0  0
  -14.1156  -17.8083   24.5155 C   0  0  0  0  0  0  0  0  0  0  0  0
  -16.2560  -16.2629   23.6342 C   0  0  0  0  0  0  0  0  0  0  0  0
  -22.6237  -13.3388   25.1237 C   0  0  0  0  0  0  0  0  0  0  0  0
  -22.4213   -8.6779   20.1420 C   0  0  0  0  0  0  0  0  0  0  0  0
  -22.8080   -8.8529   22.5204 C   0  0  0  0  0  0  0  0  0  0  0  0
  -23.9629  -13.4240   24.7455 C   0  0  0  0  0  0  0  0  0  0  0  0
  -23.2062   -5.5065   22.2477 C   0  0  0  0  0  0  0  0  0  0  0  0
  -23.7071   -4.5430   23.1230 C   0  0  0  0  0  0  0  0  0  0  0  0
  -24.2393  -15.3445   26.1788 C   0  0  0  0  0  0  0  0  0  0  0  0
  -21.7556   -4.8011   24.5238 C   0  0  0  0  0  0  0  0  0  0  0  0
  -29.2557  -14.6384   25.2356 C   0  0  0  0  0  0  0  0  0  0  0  0
  -23.7640  -10.4854   21.0178 C   0  0  0  0  0  0  0  0  0  0  0  0
  -24.1032  -13.0024   20.7783 C   0  0  0  0  0  0  0  0  0  0  0  0
  -15.4218  -18.1699   24.8811 C   0  0  0  0  0  0  0  0  0  0  0  0
  -22.0785  -14.2641   26.0254 C   0  0  0  0  0  0  0  0  0  0  0  0
  -16.5065  -17.3953   24.4277 C   0  0  0  0  0  0  0  0  0  0  0  0
  -22.8935  -15.2674   26.5688 C   0  0  0  0  0  0  0  0  0  0  0  0
  -22.2315   -8.1920   21.4357 C   0  0  0  0  0  0  0  0  0  0  0  0
  -24.7702  -14.4286   25.2709 C   0  0  0  0  0  0  0  0  0  0  0  0
  -21.9800   -6.1174   22.5104 C   0  0  0  0  0  0  0  0  0  0  0  0
  -22.9819   -4.1903   24.2611 C   0  0  0  0  0  0  0  0  0  0  0  0
  -21.2547   -5.7647   23.6484 C   0  0  0  0  0  0  0  0  0  0  0  0
  -24.5560  -11.6696   20.8026 C   0  0  0  0  0  0  0  0  0  0  0  0
  -28.2425  -15.5127   24.9319 C   0  0  0  0  0  0  0  0  0  0  0  0
  -25.2340  -13.7449   20.5407 C   0  0  0  0  0  0  0  0  0  0  0  0
  -22.7789  -13.5226   20.9549 C   0  0  0  0  0  0  0  0  0  0  0  0
  -19.7658  -16.4400   25.8828 C   0  0  0  0  0  0  0  0  0  0  0  0
  -20.3851  -16.7388   29.0529 C   0  0  0  0  0  0  0  0  0  0  0  0
  -22.6030  -16.3645   31.6195 C   0  0  0  0  0  0  0  0  0  0  0  0
  -31.0518  -12.7495   21.5473 C   0  0  0  0  0  0  0  0  0  0  0  0
  -15.6271  -19.4223   25.6961 C   0  0  0  0  0  0  0  0  0  0  0  0
  -20.6389  -14.1424   26.4438 C   0  0  0  0  0  0  0  0  0  0  0  0
  -22.3618  -16.2730   27.5559 C   0  0  0  0  0  0  0  0  0  0  0  0
  -17.0117  -19.5149   26.3321 C   0  0  0  0  0  0  0  0  0  0  0  0
  -29.5138  -13.4745   18.4191 C   0  0  0  0  0  0  0  0  0  0  0  0
  -18.0920  -19.1703   25.3117 C   0  0  0  0  0  0  0  0  0  0  0  0
  -28.0279  -13.2144   18.6730 C   0  0  0  0  0  0  0  0  0  0  0  0
  -30.3972  -12.4830   19.1731 C   0  0  0  0  0  0  0  0  0  0  0  0
  -28.6495  -12.1375   20.8759 C   0  0  0  0  0  0  0  0  0  0  0  0
  -17.9330  -17.7319   24.8045 C   0  0  1  0  0  0  0  0  0  0  0  0
  -20.0583  -15.4497   26.9743 C   0  0  1  0  0  0  0  0  0  0  0  0
  -27.7201  -13.1473   20.1810 C   0  0  2  0  0  0  0  0  0  0  0  0
  -22.8353  -16.7297   34.0914 C   0  0  0  0  0  0  0  0  0  0  0  0
  -20.7304  -19.7327   28.5757 C   0  0  0  0  0  0  0  0  0  0  0  0
  -21.8647  -19.8860   30.8024 C   0  0  0  0  0  0  0  0  0  0  0  0
  -19.4865  -19.1459   30.6645 C   0  0  0  0  0  0  0  0  0  0  0  0
  -32.5318  -15.2279   23.3544 C   0  0  0  0  0  0  0  0  0  0  0  0
  -32.2907  -14.6082   25.7447 C   0  0  0  0  0  0  0  0  0  0  0  0
  -23.0452  -13.4815   32.1212 C   0  0  0  0  0  0  0  0  0  0  0  0
  -26.8469  -15.5686   25.4801 C   0  0  0  0  0  0  0  0  0  1  0  0
  -31.5506  -12.9951   23.9660 C   0  0  0  0  0  0  0  0  0  0  0  0
  -21.3172  -17.5861   29.8849 C   0  0  1  0  0  0  0  0  0  0  0  0
  -22.4540  -15.7447   32.9972 C   0  0  2  0  0  0  0  0  0  0  0  0
  -20.8596  -19.0700   29.9618 C   0  0  0  0  0  0  0  0  0  0  0  0
  -31.6090  -14.4963   24.3598 C   0  0  0  0  0  0  0  0  0  0  0  0
  -25.8718  -11.5682   20.5966 N   0  0  0  0  0  0  0  0  0  0  0  0
  -28.6757  -16.4111   23.9966 N   0  0  0  0  0  0  0  0  0  0  0  0
  -29.9388  -16.1197   23.7051 N   0  0  0  0  0  0  0  0  0  0  0  0
  -30.2845  -15.0565   24.4489 N   0  0  0  0  0  0  0  0  0  0  0  0
  -26.2555  -12.8467   20.4406 N   0  0  0  0  0  0  0  0  0  0  0  0
  -20.9463  -16.1162   27.9290 N   0  0  0  0  0  0  0  0  0  0  0  0
  -30.0557  -12.4690   20.5975 N   0  0  0  0  0  0  0  0  0  0  0  0
  -25.4442  -15.0719   20.4096 N   0  0  0  0  0  0  0  0  0  0  0  0
  -21.7326  -12.6205   21.1907 N   0  0  0  0  0  0  0  0  0  0  0  0
  -18.4332  -16.7921   25.7848 N   0  0  0  0  0  0  0  0  0  0  0  0
  -21.4220  -16.9252   31.1813 N   0  0  0  0  0  0  0  0  0  0  0  0
  -30.6422  -12.7214   22.8748 N   0  0  0  0  0  0  0  0  0  0  0  0
  -23.3267  -14.5430   33.1217 N   0  3  0  0  0  0  0  0  0  0  0  0
  -22.5281  -14.7499   20.8888 O   0  0  0  0  0  0  0  0  0  0  0  0
  -20.6816  -16.8552   25.1824 O   0  0  0  0  0  0  0  0  0  0  0  0
  -19.2043  -16.6276   29.3919 O   0  0  0  0  0  0  0  0  0  0  0  0
  -23.6622  -16.3557   30.9961 O   0  0  0  0  0  0  0  0  0  0  0  0
  -32.2184  -13.0111   21.2351 O   0  0  0  0  0  0  0  0  0  0  0  0
  -21.4837   -7.0733   21.6400 O   0  0  0  0  0  0  0  0  0  0  0  0
  -26.0776  -14.5144   24.9029 O   0  0  0  0  0  0  0  0  0  1  0  0
  -23.4623   -3.2638   25.1008 F   0  0  0  0  0  0  0  0  0  0  0  0
  -20.0756   -6.3472   23.9055 F   0  0  0  0  0  0  0  0  0  0  0  0
  1  2  1  0  0  0  0
  1  5  2  0  0  0  0
  2  6  2  0  0  0  0
  3  8  2  0  0  0  0
  3 16  1  0  0  0  0
  4  9  1  0  0  0  0
  4 16  2  0  0  0  0
  5 18  1  0  0  0  0
  6 20  1  0  0  0  0
  7 10  2  0  0  0  0
  7 19  1  0  0  0  0
  8 22  1  0  0  0  0
  9 22  2  0  0  0  0
 10 23  1  0  0  0  0
 11 12  2  0  0  0  0
 11 24  1  0  0  0  0
 12 25  1  0  0  0  0
 13 21  1  0  0  0  0
 13 23  2  0  0  0  0
 14 25  2  0  0  0  0
 14 26  1  0  0  0  0
 15 28  2  0  0  0  0
 15 63  1  0  0  0  0
 16 27  1  0  0  0  0
 17 27  1  0  0  0  0
 17 29  2  0  0  0  0
 17 30  1  0  0  0  0
 18 20  2  0  0  0  0
 18 35  1  0  0  0  0
 19 21  2  0  0  0  0
 19 36  1  0  0  0  0
 20 44  1  0  0  0  0
 21 37  1  0  0  0  0
 22 78  1  0  0  0  0
 23 79  1  0  0  0  0
 24 26  2  0  0  0  0
 24 78  1  0  0  0  0
 25 80  1  0  0  0  0
 26 81  1  0  0  0  0
 27 60  2  0  0  0  0
 28 54  1  0  0  0  0
 28 61  1  0  0  0  0
 29 64  1  0  0  0  0
 29 67  1  0  0  0  0
 30 68  1  0  0  0  0
 30 73  2  0  0  0  0
 31 45  1  0  0  0  0
 31 69  1  0  0  0  0
 31 74  2  0  0  0  0
 32 56  1  0  0  0  0
 32 65  1  0  0  0  0
 32 75  2  0  0  0  0
 33 57  1  0  0  0  0
 33 70  1  0  0  0  0
 33 76  2  0  0  0  0
 34 66  1  0  0  0  0
 34 71  1  0  0  0  0
 34 77  2  0  0  0  0
 35 38  1  0  0  0  0
 36 45  1  0  0  0  0
 37 65  1  0  0  0  0
 38 40  1  0  0  0  0
 39 41  1  0  0  0  0
 39 42  1  0  0  0  0
 40 44  1  0  0  0  0
 41 46  1  0  0  0  0
 42 66  1  0  0  0  0
 43 46  1  0  0  0  0
 43 66  1  0  0  0  0
 44 69  1  0  0  0  0
 45 65  1  0  0  0  0
 46 64  1  0  0  0  0
 47 57  1  0  0  0  0
 48 58  1  0  0  0  0
 49 58  1  0  0  0  0
 50 58  1  0  0  0  0
 51 59  1  0  0  0  0
 52 59  1  0  0  0  0
 53 72  1  0  0  0  0
 54 79  1  0  0  0  0
 55 59  1  0  0  0  0
 55 71  1  0  0  0  0
 56 58  1  0  0  0  0
 56 70  1  0  0  0  0
 57 72  1  0  0  0  0
 59 63  1  0  0  0  0
 60 64  1  0  0  0  0
 61 62  2  0  0  0  0
 62 63  1  0  0  0  0
M  CHG  1  72   1
M  ISO  4  34 100  54 101  71 100  79 101
M  END
> <Batch ID>
0060

> <Smiles>
CNC(C)C(=O)NC(C(=O)N1Cc2cc([101O:1][101CH2:1]c3cn(C(C)(C)C[100NH:0][100C:0](=O)N4CCCC(n5nc(-c6ccc(Oc7ccc(F)cc7F)cc6)c(C(N)=O)c5N)C4)nn3)ccc2CC1C(=O)NC1CCCc2ccccc21)C(C)(C)C

> <Shape>
0.146

> <Color>
0.177

> <Negative vol penalty>
0.000

$$$$

  -OEChem-04052317553D

 83 91  0     1  0  0  0  0  0999 V2000
  -21.7822  -12.3720   14.5910 C   0  0  0  0  0  0  0  0  0  0  0  0
  -23.1262  -12.6667   14.7965 C   0  0  0  0  0  0  0  0  0  0  0  0
  -26.4570  -28.1983   18.9685 C   0  0  0  0  0  0  0  0  0  0  0  0
  -26.2999  -27.3029   21.2070 C   0  0  0  0  0  0  0  0  0  0  0  0
  -20.8479  -12.6530   15.5870 C   0  0  0  0  0  0  0  0  0  0  0  0
  -23.5365  -13.2436   15.9978 C   0  0  0  0  0  0  0  0  0  0  0  0
  -28.8212  -12.2675   18.9347 C   0  0  0  0  0  0  0  0  0  0  0  0
  -25.7124  -29.3105   19.3611 C   0  0  0  0  0  0  0  0  0  0  0  0
  -25.5553  -28.4151   21.5996 C   0  0  0  0  0  0  0  0  0  0  0  0
  -30.0158  -12.9849   18.9796 C   0  0  0  0  0  0  0  0  0  0  0  0
  -26.1456  -31.6328   22.4471 C   0  0  0  0  0  0  0  0  0  0  0  0
  -26.4811  -32.2413   23.6566 C   0  0  0  0  0  0  0  0  0  0  0  0
  -29.2906  -14.0533   21.0172 C   0  0  0  0  0  0  0  0  0  0  0  0
  -24.2581  -31.8013   24.4944 C   0  0  0  0  0  0  0  0  0  0  0  0
  -30.8544  -19.8019   19.3334 C   0  0  0  0  0  0  0  0  0  0  0  0
  -30.1164  -19.0217   21.2522 C   0  0  0  0  0  0  0  0  0  0  0  0
  -26.7508  -27.1944   19.8914 C   0  0  0  0  0  0  0  0  0  0  0  0
  -28.9192  -25.9010   19.5272 C   0  0  0  0  0  0  0  0  0  0  0  0
  -21.2483  -13.2248   16.8049 C   0  0  0  0  0  0  0  0  0  0  0  0
  -27.8461  -12.4460   19.9265 C   0  0  0  0  0  0  0  0  0  0  0  0
  -22.6065  -13.5338   17.0105 C   0  0  0  0  0  0  0  0  0  0  0  0
  -28.0856  -13.3350   20.9840 C   0  0  0  0  0  0  0  0  0  0  0  0
  -31.1997  -18.9629   20.4098 C   0  0  0  0  0  0  0  0  0  0  0  0
  -25.2616  -29.4189   20.6767 C   0  0  0  0  0  0  0  0  0  0  0  0
  -30.2494  -13.8801   20.0193 C   0  0  0  0  0  0  0  0  0  0  0  0
  -24.8664  -31.1086   22.2612 C   0  0  0  0  0  0  0  0  0  0  0  0
  -25.5373  -32.3255   24.6803 C   0  0  0  0  0  0  0  0  0  0  0  0
  -23.9227  -31.1928   23.2849 C   0  0  0  0  0  0  0  0  0  0  0  0
  -27.5194  -26.0450   19.4863 C   0  0  0  0  0  0  0  0  0  0  0  0
  -29.1489  -24.6380   19.0390 C   0  0  0  0  0  0  0  0  0  0  0  0
  -29.9222  -26.8263   19.9672 C   0  0  0  0  0  0  0  0  0  0  0  0
  -24.8372  -13.4705   19.9555 C   0  0  0  0  0  0  0  0  0  0  0  0
  -24.9716  -12.5725   23.0696 C   0  0  0  0  0  0  0  0  0  0  0  0
  -26.7286  -19.3582   19.1557 C   0  0  0  0  0  0  0  0  0  0  0  0
  -26.8855  -11.9562   25.8272 C   0  0  0  0  0  0  0  0  0  0  0  0
  -20.1954  -13.5540   17.8333 C   0  0  0  0  0  0  0  0  0  0  0  0
  -26.5740  -11.6447   19.8783 C   0  0  0  0  0  0  0  0  0  0  0  0
  -27.0795  -13.5479   22.0845 C   0  0  0  0  0  0  0  0  0  0  0  0
  -20.7648  -13.8207   19.2243 C   0  0  0  0  0  0  0  0  0  0  0  0
  -26.6080  -21.4542   16.2519 C   0  0  0  0  0  0  0  0  0  0  0  0
  -21.9642  -14.7594   19.1392 C   0  0  0  0  0  0  0  0  0  0  0  0
  -26.9353  -22.8434   16.7981 C   0  0  0  0  0  0  0  0  0  0  0  0
  -25.7992  -20.6365   17.2540 C   0  0  0  0  0  0  0  0  0  0  0  0
  -26.7702  -21.9017   19.1456 C   0  0  0  0  0  0  0  0  0  0  0  0
  -23.0940  -14.1371   18.3100 C   0  0  1  0  0  0  0  0  0  0  0  0
  -25.4336  -12.2864   20.6625 C   0  0  1  0  0  0  0  0  0  0  0  0
  -27.6129  -22.7498   18.1766 C   0  0  2  0  0  0  0  0  0  0  0  0
  -26.7082  -11.2748   28.2359 C   0  0  0  0  0  0  0  0  0  0  0  0
  -27.9655  -20.4016   22.6930 C   0  0  0  0  0  0  0  0  0  0  0  0
  -25.3598  -19.7714   21.1524 C   0  0  0  0  0  0  0  0  0  0  0  0
  -26.9624  -17.8512   21.0374 C   0  0  0  0  0  0  0  0  0  0  0  0
  -24.0114  -15.3776   23.7901 C   0  0  0  0  0  0  0  0  0  0  0  0
  -24.7559  -14.9528   26.1425 C   0  0  0  0  0  0  0  0  0  0  0  0
  -22.9664  -13.5415   25.1284 C   0  0  0  0  0  0  0  0  0  0  0  0
  -28.4990   -9.5166   25.3761 C   0  0  0  0  0  0  0  0  0  0  0  0
  -32.4708  -18.1737   20.5970 C   0  0  0  0  0  0  0  0  0  0  0  0
  -32.4125  -16.7631   20.0069 C   0  0  0  0  0  0  0  0  0  0  0  0
  -31.3719  -15.8717   20.6747 C   0  0  0  0  0  0  0  0  0  1  0  0
  -25.3580  -13.2503   24.3620 C   0  0  1  0  0  0  0  0  0  0  0  0
  -26.8986  -10.7953   26.8053 C   0  0  2  0  0  0  0  0  0  0  0  0
  -27.9255  -20.2343   21.1616 C   0  0  2  0  0  0  0  0  0  0  0  0
  -26.7464  -19.3287   20.6633 C   0  0  0  0  0  0  0  0  0  0  0  0
  -24.2913  -14.2782   24.8341 C   0  0  0  0  0  0  0  0  0  0  0  0
  -29.6462  -20.3532   19.4762 N   0  0  0  0  0  0  0  0  0  0  0  0
  -26.9032  -24.9601   19.0097 N   0  0  0  0  0  0  0  0  0  0  0  0
  -29.2228  -19.8595   20.6523 N   0  0  0  0  0  0  0  0  0  0  0  0
  -27.9205  -24.1224   18.7464 N   0  0  0  0  0  0  0  0  0  0  0  0
  -25.8485  -12.7459   21.9895 N   0  0  0  0  0  0  0  0  0  0  0  0
  -26.4652  -20.5903   18.5569 N   0  0  0  0  0  0  0  0  0  0  0  0
  -30.2797  -23.9292   18.8356 N   0  0  0  0  0  0  0  0  0  0  0  0
  -29.5128  -28.0808   20.4395 N   0  0  0  0  0  0  0  0  0  0  0  0
  -23.8087  -13.1497   19.0902 N   0  0  0  0  0  0  0  0  0  0  0  0
  -25.6235  -12.1822   25.3197 N   0  0  0  0  0  0  0  0  0  0  0  0
  -28.1944  -10.0637   26.7233 N   0  3  0  0  0  0  0  0  0  0  0  0
  -31.1462  -26.5550   19.9270 O   0  0  0  0  0  0  0  0  0  0  0  0
  -25.2766  -14.5923   20.1796 O   0  0  0  0  0  0  0  0  0  0  0  0
  -23.9337  -11.9076   23.0223 O   0  0  0  0  0  0  0  0  0  0  0  0
  -26.9456  -18.3168   18.5306 O   0  0  0  0  0  0  0  0  0  0  0  0
  -27.8931  -12.6007   25.5448 O   0  0  0  0  0  0  0  0  0  0  0  0
  -24.5352  -30.5042   21.0602 O   0  0  0  0  0  0  0  0  0  0  0  0
  -31.4143  -14.5822   20.0651 O   0  0  0  0  0  0  0  0  0  1  0  0
  -25.8601  -32.9085   25.8422 F   0  0  0  0  0  0  0  0  0  0  0  0
  -22.6925  -30.6900   23.1127 F   0  0  0  0  0  0  0  0  0  0  0  0
  1  2  1  0  0  0  0
  1  5  2  0  0  0  0
  2  6  2  0  0  0  0
  3  8  2  0  0  0  0
  3 17  1  0  0  0  0
  4  9  1  0  0  0  0
  4 17  2  0  0  0  0
  5 19  1  0  0  0  0
  6 21  1  0  0  0  0
  7 10  2  0  0  0  0
  7 20  1  0  0  0  0
  8 24  1  0  0  0  0
  9 24  2  0  0  0  0
 10 25  1  0  0  0  0
 11 12  2  0  0  0  0
 11 26  1  0  0  0  0
 12 27  1  0  0  0  0
 13 22  1  0  0  0  0
 13 25  2  0  0  0  0
 14 27  2  0  0  0  0
 14 28  1  0  0  0  0
 15 23  1  0  0  0  0
 15 64  2  0  0  0  0
 16 23  2  0  0  0  0
 16 66  1  0  0  0  0
 17 29  1  0  0  0  0
 18 29  1  0  0  0  0
 18 30  2  0  0  0  0
 18 31  1  0  0  0  0
 19 21  2  0  0  0  0
 19 36  1  0  0  0  0
 20 22  2  0  0  0  0
 20 37  1  0  0  0  0
 21 45  1  0  0  0  0
 22 38  1  0  0  0  0
 23 56  1  0  0  0  0
 24 80  1  0  0  0  0
 25 81  1  0  0  0  0
 26 28  2  0  0  0  0
 26 80  1  0  0  0  0
 27 82  1  0  0  0  0
 28 83  1  0  0  0  0
 29 65  2  0  0  0  0
 30 67  1  0  0  0  0
 30 70  1  0  0  0  0
 31 71  1  0  0  0  0
 31 75  2  0  0  0  0
 32 46  1  0  0  0  0
 32 72  1  0  0  0  0
 32 76  2  0  0  0  0
 33 59  1  0  0  0  0
 33 68  1  0  0  0  0
 33 77  2  0  0  0  0
 34 62  1  0  0  0  0
 34 69  1  0  0  0  0
 34 78  2  0  0  0  0
 35 60  1  0  0  0  0
 35 73  1  0  0  0  0
 35 79  2  0  0  0  0
 36 39  1  0  0  0  0
 37 46  1  0  0  0  0
 38 68  1  0  0  0  0
 39 41  1  0  0  0  0
 40 42  1  0  0  0  0
 40 43  1  0  0  0  0
 41 45  1  0  0  0  0
 42 47  1  0  0  0  0
 43 69  1  0  0  0  0
 44 47  1  0  0  0  0
 44 69  1  0  0  0  0
 45 72  1  0  0  0  0
 46 68  1  0  0  0  0
 47 67  1  0  0  0  0
 48 60  1  0  0  0  0
 49 61  1  0  0  0  0
 50 62  1  0  0  0  0
 51 62  1  0  0  0  0
 52 63  1  0  0  0  0
 53 63  1  0  0  0  0
 54 63  1  0  0  0  0
 55 74  1  0  0  0  0
 56 57  1  0  0  0  0
 57 58  1  0  0  0  0
 58 81  1  0  0  0  0
 59 63  1  0  0  0  0
 59 73  1  0  0  0  0
 60 74  1  0  0  0  0
 61 62  1  0  0  0  0
 61 66  1  0  0  0  0
 64 66  1  0  0  0  0
 65 67  1  0  0  0  0
M  CHG  1  74   1
M  ISO  4  34 100  58 101  62 100  81 101
M  END
> <Batch ID>
0060

> <Smiles>
CNC(C)C(=O)NC(C(=O)N1Cc2cc([101O:1][101CH2:1]CCc3cnn(C(C)[100C:0](C)(C)[100C:0](=O)N4CCCC(n5nc(-c6ccc(Oc7ccc(F)cc7F)cc6)c(C(N)=O)c5N)C4)c3)ccc2CC1C(=O)NC1CCCc2ccccc21)C(C)(C)C

> <Shape>
0.237

> <Color>
0.086

> <Negative vol penalty>
0.000

$$$$

  -OEChem-04052317553D

 84 92  0     1  0  0  0  0  0999 V2000
  -25.9961  -33.9881   25.2081 C   0  0  0  0  0  0  0  0  0  0  0  0
  -26.3885  -32.6661   25.0246 C   0  0  0  0  0  0  0  0  0  0  0  0
  -23.8954   -9.9949   22.3700 C   0  0  0  0  0  0  0  0  0  0  0  0
  -22.7283  -10.3055   20.2775 C   0  0  0  0  0  0  0  0  0  0  0  0
  -24.6430  -34.3229   25.1788 C   0  0  0  0  0  0  0  0  0  0  0  0
  -25.4278  -31.6778   24.8128 C   0  0  0  0  0  0  0  0  0  0  0  0
  -26.6835  -28.5207   21.0578 C   0  0  0  0  0  0  0  0  0  0  0  0
  -22.9452   -9.0512   22.7599 C   0  0  0  0  0  0  0  0  0  0  0  0
  -21.7781   -9.3617   20.6674 C   0  0  0  0  0  0  0  0  0  0  0  0
  -27.6254  -27.5334   21.3441 C   0  0  0  0  0  0  0  0  0  0  0  0
  -22.2652   -5.7977   22.1390 C   0  0  0  0  0  0  0  0  0  0  0  0
  -22.7260   -4.6128   22.7127 C   0  0  0  0  0  0  0  0  0  0  0  0
  -25.8487  -25.9230   21.6071 C   0  0  0  0  0  0  0  0  0  0  0  0
  -21.4893   -5.1078   24.7283 C   0  0  0  0  0  0  0  0  0  0  0  0
  -28.2250  -22.2430   20.5970 C   0  0  0  0  0  0  0  0  0  0  0  0
  -23.7869  -10.6221   21.1288 C   0  0  0  0  0  0  0  0  0  0  0  0
  -25.9642  -11.3597   20.0230 C   0  0  0  0  0  0  0  0  0  0  0  0
  -23.6658  -33.3398   24.9569 C   0  0  0  0  0  0  0  0  0  0  0  0
  -25.3142  -28.2184   21.0547 C   0  0  0  0  0  0  0  0  0  0  0  0
  -24.0602  -31.9996   24.7818 C   0  0  0  0  0  0  0  0  0  0  0  0
  -24.8916  -26.9076   21.3179 C   0  0  0  0  0  0  0  0  0  0  0  0
  -21.8866   -8.7345   21.9086 C   0  0  0  0  0  0  0  0  0  0  0  0
  -27.2079  -26.2351   21.6217 C   0  0  0  0  0  0  0  0  0  0  0  0
  -21.4165   -6.6378   22.8600 C   0  0  0  0  0  0  0  0  0  0  0  0
  -22.3380   -4.2678   24.0074 C   0  0  0  0  0  0  0  0  0  0  0  0
  -21.0285   -6.2928   24.1546 C   0  0  0  0  0  0  0  0  0  0  0  0
  -24.7678  -11.5975   20.7257 C   0  0  0  0  0  0  0  0  0  0  0  0
  -29.2275  -23.1133   20.2499 C   0  0  0  0  0  0  0  0  0  0  0  0
  -26.5356  -12.6014   19.8876 C   0  0  0  0  0  0  0  0  0  0  0  0
  -26.5102  -10.1267   19.5360 C   0  0  0  0  0  0  0  0  0  0  0  0
  -22.7971  -29.1980   22.7305 C   0  0  0  0  0  0  0  0  0  0  0  0
  -21.1623  -27.3707   20.6066 C   0  0  0  0  0  0  0  0  0  0  0  0
  -21.1885  -24.7637   18.4045 C   0  0  0  0  0  0  0  0  0  0  0  0
  -24.3896  -17.9816   19.6515 C   0  0  0  0  0  0  0  0  0  0  0  0
  -22.2125  -33.7424   24.9808 C   0  0  0  0  0  0  0  0  0  0  0  0
  -24.3123  -29.2885   20.7176 C   0  0  0  0  0  0  0  0  0  0  0  0
  -23.4344  -26.5269   21.3072 C   0  0  0  0  0  0  0  0  0  0  0  0
  -21.2803  -32.6949   24.3775 C   0  0  0  0  0  0  0  0  0  0  0  0
  -26.7758  -16.8744   22.0078 C   0  0  0  0  0  0  0  0  0  0  0  0
  -21.6211  -31.3068   24.9104 C   0  0  0  0  0  0  0  0  0  0  0  0
  -26.6420  -15.3573   21.8840 C   0  0  0  0  0  0  0  0  0  0  0  0
  -25.4197  -17.5787   21.9358 C   0  0  0  0  0  0  0  0  0  0  0  0
  -24.4886  -15.7034   20.6171 C   0  0  0  0  0  0  0  0  0  0  0  0
  -23.0493  -30.9032   24.5248 C   0  0  1  0  0  0  0  0  0  0  0  0
  -22.9141  -28.9862   21.2475 C   0  0  1  0  0  0  0  0  0  0  0  0
  -25.8422  -14.9764   20.6261 C   0  0  2  0  0  0  0  0  0  0  0  0
  -19.6922  -23.4849   16.8478 C   0  0  0  0  0  0  0  0  0  0  0  0
  -25.4288  -22.2449   17.6796 C   0  0  0  0  0  0  0  0  0  0  0  0
  -27.2820  -19.7733   18.0376 C   0  0  0  0  0  0  0  0  0  0  0  0
  -19.8995  -25.9485   22.9925 C   0  0  0  0  0  0  0  0  0  0  0  0
  -19.1883  -24.1198   21.4374 C   0  0  0  0  0  0  0  0  0  0  0  0
  -18.3219  -26.4366   21.1145 C   0  0  0  0  0  0  0  0  0  0  0  0
  -23.7449  -19.9023   21.1681 C   0  0  0  0  0  0  0  0  0  0  0  0
  -22.8282  -25.4858   16.0488 C   0  0  0  0  0  0  0  0  0  0  0  0
  -30.0454  -24.0224   21.1347 C   0  0  0  0  0  0  0  0  0  0  0  0
  -24.2994  -20.2921   18.7960 C   0  0  0  0  0  0  0  0  0  0  0  0
  -29.4105  -25.3994   21.2960 C   0  0  0  0  0  0  0  0  0  1  0  0
  -20.7322  -25.9248   20.5488 C   0  0  1  0  0  0  0  0  0  0  0  0
  -20.6711  -24.6409   16.9826 C   0  0  2  0  0  0  0  0  0  0  0  0
  -25.4303  -21.3360   18.9181 C   0  0  1  0  0  0  0  0  0  0  0  0
  -26.8336  -20.7027   19.1769 C   0  0  2  0  0  0  0  0  0  0  0  0
  -19.5629  -25.6147   21.5255 C   0  0  0  0  0  0  0  0  0  0  0  0
  -24.5887  -12.8888   21.0167 N   0  0  0  0  0  0  0  0  0  0  0  0
  -29.4301  -23.0655   18.8986 N   0  0  0  0  0  0  0  0  0  0  0  0
  -28.5760  -22.1848   18.3887 N   0  0  0  0  0  0  0  0  0  0  0  0
  -27.8543  -21.6929   19.4087 N   0  0  0  0  0  0  0  0  0  0  0  0
  -25.6802  -13.4734   20.4943 N   0  0  0  0  0  0  0  0  0  0  0  0
  -22.4929  -27.6099   20.9782 N   0  0  0  0  0  0  0  0  0  0  0  0
  -24.6701  -17.1513   20.7466 N   0  0  0  0  0  0  0  0  0  0  0  0
  -27.6812  -13.0214   19.3102 N   0  0  0  0  0  0  0  0  0  0  0  0
  -25.7935   -8.9435   19.7610 N   0  0  0  0  0  0  0  0  0  0  0  0
  -23.0994  -30.4823   23.1410 N   0  0  0  0  0  0  0  0  0  0  0  0
  -20.4321  -25.6438   19.1490 N   0  0  0  0  0  0  0  0  0  0  0  0
  -24.2393  -19.3529   19.9071 N   0  0  0  0  0  0  0  0  0  0  0  0
  -21.8010  -24.4126   16.0381 N   0  3  0  0  0  0  0  0  0  0  0  0
  -27.6094  -10.0735   18.9339 O   0  0  0  0  0  0  0  0  0  0  0  0
  -22.4562  -28.2656   23.4489 O   0  0  0  0  0  0  0  0  0  0  0  0
  -20.3496  -28.2550   20.3253 O   0  0  0  0  0  0  0  0  0  0  0  0
  -22.1637  -24.1382   18.8147 O   0  0  0  0  0  0  0  0  0  0  0  0
  -24.2716  -17.5230   18.5079 O   0  0  0  0  0  0  0  0  0  0  0  0
  -20.9593   -7.8135   22.2887 O   0  0  0  0  0  0  0  0  0  0  0  0
  -28.1252  -25.2697   21.9021 O   0  0  0  0  0  0  0  0  0  1  0  0
  -22.7793   -3.1291   24.5576 F   0  0  0  0  0  0  0  0  0  0  0  0
  -20.2124   -7.0952   24.8517 F   0  0  0  0  0  0  0  0  0  0  0  0
  1  2  1  0  0  0  0
  1  5  2  0  0  0  0
  2  6  2  0  0  0  0
  3  8  2  0  0  0  0
  3 16  1  0  0  0  0
  4  9  1  0  0  0  0
  4 16  2  0  0  0  0
  5 18  1  0  0  0  0
  6 20  1  0  0  0  0
  7 10  2  0  0  0  0
  7 19  1  0  0  0  0
  8 22  1  0  0  0  0
  9 22  2  0  0  0  0
 10 23  1  0  0  0  0
 11 12  2  0  0  0  0
 11 24  1  0  0  0  0
 12 25  1  0  0  0  0
 13 21  1  0  0  0  0
 13 23  2  0  0  0  0
 14 25  2  0  0  0  0
 14 26  1  0  0  0  0
 15 28  2  0  0  0  0
 15 66  1  0  0  0  0
 16 27  1  0  0  0  0
 17 27  1  0  0  0  0
 17 29  2  0  0  0  0
 17 30  1  0  0  0  0
 18 20  2  0  0  0  0
 18 35  1  0  0  0  0
 19 21  2  0  0  0  0
 19 36  1  0  0  0  0
 20 44  1  0  0  0  0
 21 37  1  0  0  0  0
 22 81  1  0  0  0  0
 23 82  1  0  0  0  0
 24 26  2  0  0  0  0
 24 81  1  0  0  0  0
 25 83  1  0  0  0  0
 26 84  1  0  0  0  0
 27 63  2  0  0  0  0
 28 55  1  0  0  0  0
 28 64  1  0  0  0  0
 29 67  1  0  0  0  0
 29 70  1  0  0  0  0
 30 71  1  0  0  0  0
 30 76  2  0  0  0  0
 31 45  1  0  0  0  0
 31 72  1  0  0  0  0
 31 77  2  0  0  0  0
 32 58  1  0  0  0  0
 32 68  1  0  0  0  0
 32 78  2  0  0  0  0
 33 59  1  0  0  0  0
 33 73  1  0  0  0  0
 33 79  2  0  0  0  0
 34 69  1  0  0  0  0
 34 74  1  0  0  0  0
 34 80  2  0  0  0  0
 35 38  1  0  0  0  0
 36 45  1  0  0  0  0
 37 68  1  0  0  0  0
 38 40  1  0  0  0  0
 39 41  1  0  0  0  0
 39 42  1  0  0  0  0
 40 44  1  0  0  0  0
 41 46  1  0  0  0  0
 42 69  1  0  0  0  0
 43 46  1  0  0  0  0
 43 69  1  0  0  0  0
 44 72  1  0  0  0  0
 45 68  1  0  0  0  0
 46 67  1  0  0  0  0
 47 59  1  0  0  0  0
 48 60  1  0  0  0  0
 49 61  1  0  0  0  0
 50 62  1  0  0  0  0
 51 62  1  0  0  0  0
 52 62  1  0  0  0  0
 53 74  1  0  0  0  0
 54 75  1  0  0  0  0
 55 57  1  0  0  0  0
 56 60  1  0  0  0  0
 56 74  1  0  0  0  0
 57 82  1  0  0  0  0
 58 62  1  0  0  0  0
 58 73  1  0  0  0  0
 59 75  1  0  0  0  0
 60 61  1  0  0  0  0
 61 66  1  0  0  0  0
 63 67  1  0  0  0  0
 64 65  2  0  0  0  0
 65 66  1  0  0  0  0
M  CHG  1  75   1
M  ISO  4  34 100  57 101  74 100  82 101
M  END
> <Batch ID>
0060

> <Smiles>
CNC(C)C(=O)NC(C(=O)N1Cc2cc([101O:1][101CH2:1]Cc3cn(C(C)C(C)C[100N:0](C)[100C:0](=O)N4CCCC(n5nc(-c6ccc(Oc7ccc(F)cc7F)cc6)c(C(N)=O)c5N)C4)nn3)ccc2CC1C(=O)NC1CCCc2ccccc21)C(C)(C)C

> <Shape>
0.267

> <Color>
0.077

> <Negative vol penalty>
0.000

$$$$

  -OEChem-04052317552D

  0  0  0     0  0  0  0  0  0999 V2000
M  END
$$$$

  -OEChem-04052317553D

 84 92  0     1  0  0  0  0  0999 V2000
  -16.7913  -24.7687   23.6644 C   0  0  0  0  0  0  0  0  0  0  0  0
  -17.4422  -24.1314   22.6129 C   0  0  0  0  0  0  0  0  0  0  0  0
  -25.8240  -15.2059   21.7910 C   0  0  0  0  0  0  0  0  0  0  0  0
  -25.6348  -15.9638   19.5048 C   0  0  0  0  0  0  0  0  0  0  0  0
  -17.1579  -26.0641   24.0270 C   0  0  0  0  0  0  0  0  0  0  0  0
  -18.4593  -24.7897   21.9225 C   0  0  0  0  0  0  0  0  0  0  0  0
  -23.4945  -22.2757   19.5075 C   0  0  0  0  0  0  0  0  0  0  0  0
  -24.4710  -14.8669   21.7906 C   0  0  0  0  0  0  0  0  0  0  0  0
  -24.2818  -15.6247   19.5043 C   0  0  0  0  0  0  0  0  0  0  0  0
  -23.8140  -21.8769   18.2104 C   0  0  0  0  0  0  0  0  0  0  0  0
  -22.5357  -12.3438   20.6409 C   0  0  0  0  0  0  0  0  0  0  0  0
  -22.1765  -11.1098   21.1829 C   0  0  0  0  0  0  0  0  0  0  0  0
  -24.9114  -23.9924   17.8367 C   0  0  0  0  0  0  0  0  0  0  0  0
  -20.7913  -12.2297   22.8151 C   0  0  0  0  0  0  0  0  0  0  0  0
  -27.8116  -22.6089   14.6796 C   0  0  0  0  0  0  0  0  0  0  0  0
  -26.4059  -15.7545   20.6481 C   0  0  0  0  0  0  0  0  0  0  0  0
  -28.8865  -15.2826   20.2854 C   0  0  0  0  0  0  0  0  0  0  0  0
  -18.1866  -26.7350   23.3470 C   0  0  0  0  0  0  0  0  0  0  0  0
  -23.8721  -23.5423   19.9761 C   0  0  0  0  0  0  0  0  0  0  0  0
  -18.8390  -26.0958   22.2755 C   0  0  0  0  0  0  0  0  0  0  0  0
  -24.5976  -24.4039   19.1411 C   0  0  0  0  0  0  0  0  0  0  0  0
  -23.6999  -15.0762   20.6473 C   0  0  0  0  0  0  0  0  0  0  0  0
  -24.5201  -22.7364   17.3738 C   0  0  0  0  0  0  0  0  0  0  0  0
  -22.0227  -13.5209   21.1861 C   0  0  0  0  0  0  0  0  0  0  0  0
  -21.3043  -11.0527   22.2699 C   0  0  0  0  0  0  0  0  0  0  0  0
  -21.1505  -13.4638   22.2731 C   0  0  0  0  0  0  0  0  0  0  0  0
  -27.8034  -16.1055   20.6481 C   0  0  0  0  0  0  0  0  0  0  0  0
  -27.3380  -21.3568   14.9526 C   0  0  0  0  0  0  0  0  0  0  0  0
  -29.9937  -16.0773   20.4564 C   0  0  0  0  0  0  0  0  0  0  0  0
  -29.4450  -21.4517   15.6249 C   0  0  0  0  0  0  0  0  0  0  0  0
  -28.8915  -13.9217   19.8343 C   0  0  0  0  0  0  0  0  0  0  0  0
  -22.3084  -26.1116   21.0042 C   0  0  0  0  0  0  0  0  0  0  0  0
  -25.2962  -27.1805   21.6769 C   0  0  0  0  0  0  0  0  0  0  0  0
  -28.6440  -27.0193   21.0343 C   0  0  0  0  0  0  0  0  0  0  0  0
  -30.8025  -22.0097   20.4009 C   0  0  0  0  0  0  0  0  0  0  0  0
  -18.5156  -28.1522   23.7444 C   0  0  0  0  0  0  0  0  0  0  0  0
  -23.5430  -23.9471   21.3869 C   0  0  0  0  0  0  0  0  0  0  0  0
  -25.0440  -25.7662   19.6029 C   0  0  0  0  0  0  0  0  0  0  0  0
  -19.8578  -28.6400   23.2051 C   0  0  0  0  0  0  0  0  0  0  0  0
  -31.5905  -19.7664   23.0510 C   0  0  0  0  0  0  0  0  0  0  0  0
  -20.0000  -28.2863   21.7281 C   0  0  0  0  0  0  0  0  0  0  0  0
  -30.8070  -18.4995   22.7029 C   0  0  0  0  0  0  0  0  0  0  0  0
  -30.8177  -21.0289   22.6755 C   0  0  0  0  0  0  0  0  0  0  0  0
  -29.5771  -19.8146   20.9263 C   0  0  0  0  0  0  0  0  0  0  0  0
  -19.9640  -26.7677   21.5185 C   0  0  1  0  0  0  0  0  0  0  0  0
  -23.5301  -25.4594   21.5870 C   0  0  1  0  0  0  0  0  0  0  0  0
  -30.3396  -18.5148   21.2351 C   0  0  2  0  0  0  0  0  0  0  0  0
  -28.9166  -16.8919   15.5040 C   0  0  0  0  0  0  0  0  0  0  0  0
  -31.0937  -27.4875   21.3126 C   0  0  0  0  0  0  0  0  0  0  0  0
  -24.6331  -29.6776   20.0536 C   0  0  0  0  0  0  0  0  0  0  0  0
  -27.0827  -30.1878   19.9683 C   0  0  0  0  0  0  0  0  0  0  0  0
  -25.9021  -30.1120   22.1644 C   0  0  0  0  0  0  0  0  0  0  0  0
  -28.9668  -24.8011   22.9667 C   0  0  0  0  0  0  0  0  0  0  0  0
  -25.9780  -20.7498   14.7069 C   0  0  0  0  0  0  0  0  0  0  0  0
  -30.7694  -21.0947   16.1912 C   0  0  0  0  0  0  0  0  0  0  0  0
  -28.9981  -18.3296   15.0181 C   0  0  0  0  0  0  0  0  0  0  0  0
  -31.4957  -22.2510   16.9130 C   0  0  0  0  0  0  0  0  0  0  0  0
  -28.3109  -19.2853   15.9909 C   0  0  0  0  0  0  0  0  0  0  0  0
  -30.7074  -22.8593   18.0710 C   0  0  0  0  0  0  0  0  0  0  0  0
  -25.0305  -20.9543   15.8839 C   0  0  0  0  0  0  0  0  0  1  0  0
  -26.3494  -27.9556   20.9226 C   0  0  1  0  0  0  0  0  0  0  0  0
  -29.8432  -26.9118   21.9589 C   0  0  2  0  0  0  0  0  0  0  0  0
  -25.9819  -29.4584   20.7676 C   0  0  0  0  0  0  0  0  0  0  0  0
  -28.1877  -17.3290   21.0213 N   0  0  0  0  0  0  0  0  0  0  0  0
  -28.3697  -20.6621   15.5367 N   0  0  0  0  0  0  0  0  0  0  0  0
  -29.5247  -17.2808   20.8942 N   0  0  0  0  0  0  0  0  0  0  0  0
  -29.1174  -22.6396   15.1062 N   0  3  0  0  0  0  0  0  0  0  0  0
  -24.6927  -26.1186   20.9885 N   0  0  0  0  0  0  0  0  0  0  0  0
  -30.4048  -20.9811   21.2709 N   0  0  0  0  0  0  0  0  0  0  0  0
  -31.3129  -15.8570   20.2734 N   0  0  0  0  0  0  0  0  0  0  0  0
  -27.6656  -13.2530   19.7149 N   0  0  0  0  0  0  0  0  0  0  0  0
  -21.2369  -26.1781   21.8743 N   0  0  0  0  0  0  0  0  0  0  0  0
  -27.6089  -27.7174   21.6194 N   0  0  0  0  0  0  0  0  0  0  0  0
  -30.3736  -21.8842   19.0852 N   0  0  0  0  0  0  0  0  0  0  0  0
  -30.1059  -25.4857   22.3028 N   0  3  0  0  0  0  0  0  0  0  0  0
  -29.9529  -13.3114   19.5614 O   0  0  0  0  0  0  0  0  0  0  0  0
  -22.3362  -26.5253   19.8511 O   0  0  0  0  0  0  0  0  0  0  0  0
  -25.0243  -27.5008   22.8367 O   0  0  0  0  0  0  0  0  0  0  0  0
  -28.6286  -26.5358   19.9044 O   0  0  0  0  0  0  0  0  0  0  0  0
  -31.4933  -22.9662   20.7682 O   0  0  0  0  0  0  0  0  0  0  0  0
  -22.3797  -14.7452   20.6465 O   0  0  0  0  0  0  0  0  0  0  0  0
  -24.8327  -22.3498   16.1070 O   0  0  0  0  0  0  0  0  0  1  0  0
  -20.9583   -9.8675   22.7892 F   0  0  0  0  0  0  0  0  0  0  0  0
  -20.6536  -14.5911   22.8004 F   0  0  0  0  0  0  0  0  0  0  0  0
  1  2  1  0  0  0  0
  1  5  2  0  0  0  0
  2  6  2  0  0  0  0
  3  8  2  0  0  0  0
  3 16  1  0  0  0  0
  4  9  1  0  0  0  0
  4 16  2  0  0  0  0
  5 18  1  0  0  0  0
  6 20  1  0  0  0  0
  7 10  2  0  0  0  0
  7 19  1  0  0  0  0
  8 22  1  0  0  0  0
  9 22  2  0  0  0  0
 10 23  1  0  0  0  0
 11 12  2  0  0  0  0
 11 24  1  0  0  0  0
 12 25  1  0  0  0  0
 13 21  1  0  0  0  0
 13 23  2  0  0  0  0
 14 25  2  0  0  0  0
 14 26  1  0  0  0  0
 15 28  2  0  0  0  0
 15 67  1  0  0  0  0
 16 27  1  0  0  0  0
 17 27  1  0  0  0  0
 17 29  2  0  0  0  0
 17 31  1  0  0  0  0
 18 20  2  0  0  0  0
 18 36  1  0  0  0  0
 19 21  2  0  0  0  0
 19 37  1  0  0  0  0
 20 45  1  0  0  0  0
 21 38  1  0  0  0  0
 22 81  1  0  0  0  0
 23 82  1  0  0  0  0
 24 26  2  0  0  0  0
 24 81  1  0  0  0  0
 25 83  1  0  0  0  0
 26 84  1  0  0  0  0
 27 64  2  0  0  0  0
 28 54  1  0  0  0  0
 28 65  1  0  0  0  0
 29 66  1  0  0  0  0
 29 70  1  0  0  0  0
 30 55  1  0  0  0  0
 30 65  1  0  0  0  0
 30 67  2  0  0  0  0
 31 71  1  0  0  0  0
 31 76  2  0  0  0  0
 32 46  1  0  0  0  0
 32 72  1  0  0  0  0
 32 77  2  0  0  0  0
 33 61  1  0  0  0  0
 33 68  1  0  0  0  0
 33 78  2  0  0  0  0
 34 62  1  0  0  0  0
 34 73  1  0  0  0  0
 34 79  2  0  0  0  0
 35 69  1  0  0  0  0
 35 74  1  0  0  0  0
 35 80  2  0  0  0  0
 36 39  1  0  0  0  0
 37 46  1  0  0  0  0
 38 68  1  0  0  0  0
 39 41  1  0  0  0  0
 40 42  1  0  0  0  0
 40 43  1  0  0  0  0
 41 45  1  0  0  0  0
 42 47  1  0  0  0  0
 43 69  1  0  0  0  0
 44 47  1  0  0  0  0
 44 69  1  0  0  0  0
 45 72  1  0  0  0  0
 46 68  1  0  0  0  0
 47 66  1  0  0  0  0
 48 56  1  0  0  0  0
 49 62  1  0  0  0  0
 50 63  1  0  0  0  0
 51 63  1  0  0  0  0
 52 63  1  0  0  0  0
 53 75  1  0  0  0  0
 54 60  1  0  0  0  0
 55 57  1  0  0  0  0
 56 58  1  0  0  0  0
 57 59  1  0  0  0  0
 58 65  1  0  0  0  0
 59 74  1  0  0  0  0
 60 82  1  0  0  0  0
 61 63  1  0  0  0  0
 61 73  1  0  0  0  0
 62 75  1  0  0  0  0
 64 66  1  0  0  0  0
M  CHG  2  67   1  75   1
M  ISO  4  35 100  60 101  74 100  82 101
M  END
> <Batch ID>
0060

> <Smiles>
CCCn1c(C[101CH2:1][101O:1]c2ccc3c(c2)CN(C(=O)C(NC(=O)C(C)NC)C(C)(C)C)C(C(=O)NC2CCCc4ccccc42)C3)cnc1CCC[100NH:0][100C:0](=O)N1CCCC(n2nc(-c3ccc(Oc4ccc(F)cc4F)cc3)c(C(N)=O)c2N)C1

> <Shape>
0.218

> <Color>
0.056

> <Negative vol penalty>
0.000

$$$$

  -OEChem-04052317553D

 84 92  0     1  0  0  0  0  0999 V2000
  -22.7566  -20.1908   21.2209 C   0  0  0  0  0  0  0  0  0  0  0  0
  -23.6920  -21.1260   21.6489 C   0  0  0  0  0  0  0  0  0  0  0  0
  -26.1625  -13.6281   21.7288 C   0  0  0  0  0  0  0  0  0  0  0  0
  -25.9108  -14.3660   19.4420 C   0  0  0  0  0  0  0  0  0  0  0  0
  -21.7549  -20.5700   20.3299 C   0  0  0  0  0  0  0  0  0  0  0  0
  -23.6190  -22.4435   21.1955 C   0  0  0  0  0  0  0  0  0  0  0  0
  -26.7014  -25.6858   23.2424 C   0  0  0  0  0  0  0  0  0  0  0  0
  -25.0088  -12.8538   21.6060 C   0  0  0  0  0  0  0  0  0  0  0  0
  -24.7571  -13.5917   19.3192 C   0  0  0  0  0  0  0  0  0  0  0  0
  -28.0707  -25.6930   22.9803 C   0  0  0  0  0  0  0  0  0  0  0  0
  -24.1402   -9.8732   20.2665 C   0  0  0  0  0  0  0  0  0  0  0  0
  -24.1780   -8.5703   20.7630 C   0  0  0  0  0  0  0  0  0  0  0  0
  -27.7766  -27.5965   21.5280 C   0  0  0  0  0  0  0  0  0  0  0  0
  -22.3700   -9.0948   22.2773 C   0  0  0  0  0  0  0  0  0  0  0  0
  -26.6135  -14.3842   20.6468 C   0  0  0  0  0  0  0  0  0  0  0  0
  -29.1279  -14.7890   20.4998 C   0  0  0  0  0  0  0  0  0  0  0  0
  -21.6777  -21.8901   19.8560 C   0  0  0  0  0  0  0  0  0  0  0  0
  -25.8564  -26.6286   22.6396 C   0  0  0  0  0  0  0  0  0  0  0  0
  -22.6011  -22.8516   20.3146 C   0  0  0  0  0  0  0  0  0  0  0  0
  -26.3973  -27.6007   21.7860 C   0  0  0  0  0  0  0  0  0  0  0  0
  -24.3061  -12.8356   20.4012 C   0  0  0  0  0  0  0  0  0  0  0  0
  -28.6081  -26.6467   22.1207 C   0  0  0  0  0  0  0  0  0  0  0  0
  -23.2173  -10.7870   20.7754 C   0  0  0  0  0  0  0  0  0  0  0  0
  -23.2929   -8.1811   21.7683 C   0  0  0  0  0  0  0  0  0  0  0  0
  -22.3322  -10.3978   21.7808 C   0  0  0  0  0  0  0  0  0  0  0  0
  -27.8049  -15.1847   20.7733 C   0  0  0  0  0  0  0  0  0  0  0  0
  -29.8832  -15.9026   20.7751 C   0  0  0  0  0  0  0  0  0  0  0  0
  -31.1266  -23.1237   19.3333 C   0  0  0  0  0  0  0  0  0  0  0  0
  -32.0201  -24.0520   20.9756 C   0  0  0  0  0  0  0  0  0  0  0  0
  -29.6292  -13.5276   20.0380 C   0  0  0  0  0  0  0  0  0  0  0  0
  -23.3879  -26.4759   20.6429 C   0  0  0  0  0  0  0  0  0  0  0  0
  -23.2289  -29.6652   21.2137 C   0  0  0  0  0  0  0  0  0  0  0  0
  -24.8340  -32.5207   22.1711 C   0  0  0  0  0  0  0  0  0  0  0  0
  -28.1046  -21.7632   20.9439 C   0  0  0  0  0  0  0  0  0  0  0  0
  -20.5683  -22.2481   18.8988 C   0  0  0  0  0  0  0  0  0  0  0  0
  -24.3854  -26.6240   22.9536 C   0  0  0  0  0  0  0  0  0  0  0  0
  -25.5359  -28.6474   21.1296 C   0  0  0  0  0  0  0  0  0  0  0  0
  -20.8360  -23.5411   18.1354 C   0  0  0  0  0  0  0  0  0  0  0  0
  -29.9385  -19.8225   23.5075 C   0  0  0  0  0  0  0  0  0  0  0  0
  -21.2465  -24.6407   19.1033 C   0  0  0  0  0  0  0  0  0  0  0  0
  -29.6451  -18.3782   23.1050 C   0  0  0  0  0  0  0  0  0  0  0  0
  -28.8170  -20.7675   23.0869 C   0  0  0  0  0  0  0  0  0  0  0  0
  -28.1882  -19.2531   21.2362 C   0  0  0  0  0  0  0  0  0  0  0  0
  -22.5597  -24.2830   19.8110 C   0  0  1  0  0  0  0  0  0  0  0  0
  -23.5437  -27.3108   21.8824 C   0  0  1  0  0  0  0  0  0  0  0  0
  -29.3202  -18.2822   21.6042 C   0  0  2  0  0  0  0  0  0  0  0  0
  -32.6940  -24.3908   22.2419 C   0  0  0  0  0  0  0  0  0  0  0  0
  -24.4518  -34.9785   22.5033 C   0  0  0  0  0  0  0  0  0  0  0  0
  -26.2811  -21.3645   18.4790 C   0  0  0  0  0  0  0  0  0  0  0  0
  -27.1403  -23.7119   18.7526 C   0  0  0  0  0  0  0  0  0  0  0  0
  -23.3041  -30.0829   18.1921 C   0  0  0  0  0  0  0  0  0  0  0  0
  -23.8750  -32.4848   18.6084 C   0  0  0  0  0  0  0  0  0  0  0  0
  -21.6995  -31.5646   19.4104 C   0  0  0  0  0  0  0  0  0  0  0  0
  -25.5005  -32.3532   25.0497 C   0  0  0  0  0  0  0  0  0  0  0  0
  -30.6273  -22.0630   18.4504 C   0  0  0  0  0  0  0  0  0  0  0  0
  -31.6813  -26.4912   20.1932 C   0  0  0  0  0  0  0  0  0  0  0  0
  -29.6200  -21.1013   19.1149 C   0  0  0  0  0  0  0  0  0  0  0  0
  -30.3554  -27.1354   20.5833 C   0  0  0  0  0  0  0  0  0  1  0  0
  -23.8364  -30.8955   20.5842 C   0  0  1  0  0  0  0  0  0  0  0  0
  -24.4529  -33.6070   23.1605 C   0  0  2  0  0  0  0  0  0  0  0  0
  -27.5177  -22.2527   18.5317 C   0  0  0  0  0  0  0  0  0  0  0  0
  -23.1950  -31.2361   19.2095 C   0  0  0  0  0  0  0  0  0  0  0  0
  -27.7212  -16.4508   21.1905 N   0  0  0  0  0  0  0  0  0  0  0  0
  -31.7448  -22.8519   20.5201 N   0  0  0  0  0  0  0  0  0  0  0  0
  -31.0021  -24.4165   19.0258 N   0  0  0  0  0  0  0  0  0  0  0  0
  -29.0011  -16.8602   21.1813 N   0  0  0  0  0  0  0  0  0  0  0  0
  -31.5815  -24.9885   20.0922 N   0  0  0  0  0  0  0  0  0  0  0  0
  -24.1028  -28.5976   21.4631 N   0  0  0  0  0  0  0  0  0  0  0  0
  -28.4992  -20.6247   21.6657 N   0  0  0  0  0  0  0  0  0  0  0  0
  -31.2093  -16.1462   20.7070 N   0  0  0  0  0  0  0  0  0  0  0  0
  -28.7158  -12.4905   19.8047 N   0  0  0  0  0  0  0  0  0  0  0  0
  -22.8047  -25.2430   20.8647 N   0  0  0  0  0  0  0  0  0  0  0  0
  -23.7240  -31.9594   21.5761 N   0  0  0  0  0  0  0  0  0  0  0  0
  -28.4301  -21.8000   19.5795 N   0  0  0  0  0  0  0  0  0  0  0  0
  -25.4149  -33.6319   24.2984 N   0  3  0  0  0  0  0  0  0  0  0  0
  -30.8527  -13.3210   19.8540 O   0  0  0  0  0  0  0  0  0  0  0  0
  -23.7672  -26.9183   19.5649 O   0  0  0  0  0  0  0  0  0  0  0  0
  -22.0247  -29.6546   21.4810 O   0  0  0  0  0  0  0  0  0  0  0  0
  -26.0001  -32.2043   21.9456 O   0  0  0  0  0  0  0  0  0  0  0  0
  -27.5046  -22.6978   21.4900 O   0  0  0  0  0  0  0  0  0  0  0  0
  -23.1805  -12.0800   20.2809 O   0  0  0  0  0  0  0  0  0  0  0  0
  -29.9442  -26.6556   21.8627 O   0  0  0  0  0  0  0  0  0  1  0  0
  -23.3283   -6.9294   22.2439 F   0  0  0  0  0  0  0  0  0  0  0  0
  -21.4426  -11.2709   22.2728 F   0  0  0  0  0  0  0  0  0  0  0  0
  1  2  1  0  0  0  0
  1  5  2  0  0  0  0
  2  6  2  0  0  0  0
  3  8  2  0  0  0  0
  3 15  1  0  0  0  0
  4  9  1  0  0  0  0
  4 15  2  0  0  0  0
  5 17  1  0  0  0  0
  6 19  1  0  0  0  0
  7 10  2  0  0  0  0
  7 18  1  0  0  0  0
  8 21  1  0  0  0  0
  9 21  2  0  0  0  0
 10 22  1  0  0  0  0
 11 12  2  0  0  0  0
 11 23  1  0  0  0  0
 12 24  1  0  0  0  0
 13 20  1  0  0  0  0
 13 22  2  0  0  0  0
 14 24  2  0  0  0  0
 14 25  1  0  0  0  0
 15 26  1  0  0  0  0
 16 26  1  0  0  0  0
 16 27  2  0  0  0  0
 16 30  1  0  0  0  0
 17 19  2  0  0  0  0
 17 35  1  0  0  0  0
 18 20  2  0  0  0  0
 18 36  1  0  0  0  0
 19 44  1  0  0  0  0
 20 37  1  0  0  0  0
 21 81  1  0  0  0  0
 22 82  1  0  0  0  0
 23 25  2  0  0  0  0
 23 81  1  0  0  0  0
 24 83  1  0  0  0  0
 25 84  1  0  0  0  0
 26 63  2  0  0  0  0
 27 66  1  0  0  0  0
 27 70  1  0  0  0  0
 28 55  1  0  0  0  0
 28 64  1  0  0  0  0
 28 65  2  0  0  0  0
 29 47  1  0  0  0  0
 29 64  2  0  0  0  0
 29 67  1  0  0  0  0
 30 71  1  0  0  0  0
 30 76  2  0  0  0  0
 31 45  1  0  0  0  0
 31 72  1  0  0  0  0
 31 77  2  0  0  0  0
 32 59  1  0  0  0  0
 32 68  1  0  0  0  0
 32 78  2  0  0  0  0
 33 60  1  0  0  0  0
 33 73  1  0  0  0  0
 33 79  2  0  0  0  0
 34 69  1  0  0  0  0
 34 74  1  0  0  0  0
 34 80  2  0  0  0  0
 35 38  1  0  0  0  0
 36 45  1  0  0  0  0
 37 68  1  0  0  0  0
 38 40  1  0  0  0  0
 39 41  1  0  0  0  0
 39 42  1  0  0  0  0
 40 44  1  0  0  0  0
 41 46  1  0  0  0  0
 42 69  1  0  0  0  0
 43 46  1  0  0  0  0
 43 69  1  0  0  0  0
 44 72  1  0  0  0  0
 45 68  1  0  0  0  0
 46 66  1  0  0  0  0
 48 60  1  0  0  0  0
 49 61  1  0  0  0  0
 50 61  1  0  0  0  0
 51 62  1  0  0  0  0
 52 62  1  0  0  0  0
 53 62  1  0  0  0  0
 54 75  1  0  0  0  0
 55 57  1  0  0  0  0
 56 58  1  0  0  0  0
 56 67  1  0  0  0  0
 57 74  1  0  0  0  0
 58 82  1  0  0  0  0
 59 62  1  0  0  0  0
 59 73  1  0  0  0  0
 60 75  1  0  0  0  0
 61 74  1  0  0  0  0
 63 66  1  0  0  0  0
 65 67  1  0  0  0  0
M  CHG  1  75   1
M  ISO  4  34 100  58 101  74 100  82 101
M  END
> <Batch ID>
0060

> <Smiles>
CNC(C)C(=O)NC(C(=O)N1Cc2cc([101O:1][101CH2:1]Cn3nc(CC[100N:0](C(C)C)[100C:0](=O)N4CCCC(n5nc(-c6ccc(Oc7ccc(F)cc7F)cc6)c(C(N)=O)c5N)C4)nc3C)ccc2CC1C(=O)NC1CCCc2ccccc21)C(C)(C)C

> <Shape>
0.260

> <Color>
0.051

> <Negative vol penalty>
0.000

$$$$

  -OEChem-04052317553D

 82 90  0     1  0  0  0  0  0999 V2000
  -20.9104  -33.4128   25.0690 C   0  0  0  0  0  0  0  0  0  0  0  0
  -22.1420  -32.9016   24.6725 C   0  0  0  0  0  0  0  0  0  0  0  0
  -26.5507  -14.0985   21.7702 C   0  0  0  0  0  0  0  0  0  0  0  0
  -26.1935  -14.1835   19.3822 C   0  0  0  0  0  0  0  0  0  0  0  0
  -19.7851  -32.5896   25.0768 C   0  0  0  0  0  0  0  0  0  0  0  0
  -22.2492  -31.5665   24.2845 C   0  0  0  0  0  0  0  0  0  0  0  0
  -25.9284  -29.2740   19.9586 C   0  0  0  0  0  0  0  0  0  0  0  0
  -25.7217  -12.9799   21.8543 C   0  0  0  0  0  0  0  0  0  0  0  0
  -25.3645  -13.0649   19.4664 C   0  0  0  0  0  0  0  0  0  0  0  0
  -27.1674  -28.6377   20.0216 C   0  0  0  0  0  0  0  0  0  0  0  0
  -25.9473   -9.6609   21.2491 C   0  0  0  0  0  0  0  0  0  0  0  0
  -26.3825   -8.5887   22.0278 C   0  0  0  0  0  0  0  0  0  0  0  0
  -26.0627  -26.4940   19.9617 C   0  0  0  0  0  0  0  0  0  0  0  0
  -24.4246   -8.8096   23.4260 C   0  0  0  0  0  0  0  0  0  0  0  0
  -30.4312  -24.1751   20.1282 C   0  0  0  0  0  0  0  0  0  0  0  0
  -26.7866  -14.7003   20.5341 C   0  0  0  0  0  0  0  0  0  0  0  0
  -29.0347  -15.8692   20.2386 C   0  0  0  0  0  0  0  0  0  0  0  0
  -19.8767  -31.2463   24.6795 C   0  0  0  0  0  0  0  0  0  0  0  0
  -24.7448  -28.5238   19.9076 C   0  0  0  0  0  0  0  0  0  0  0  0
  -21.1244  -30.7243   24.2883 C   0  0  0  0  0  0  0  0  0  0  0  0
  -24.8101  -27.1232   19.8955 C   0  0  0  0  0  0  0  0  0  0  0  0
  -25.1286  -12.4631   20.7025 C   0  0  0  0  0  0  0  0  0  0  0  0
  -27.2345  -27.2475   20.0261 C   0  0  0  0  0  0  0  0  0  0  0  0
  -24.7508  -10.3076   21.5588 C   0  0  0  0  0  0  0  0  0  0  0  0
  -25.6211   -8.1630   23.1163 C   0  0  0  0  0  0  0  0  0  0  0  0
  -23.9894   -9.8819   22.6472 C   0  0  0  0  0  0  0  0  0  0  0  0
  -27.6425  -15.8562   20.4466 C   0  0  0  0  0  0  0  0  0  0  0  0
  -31.0592  -25.3568   20.4651 C   0  0  0  0  0  0  0  0  0  0  0  0
  -31.0996  -23.3824   19.2177 C   0  0  0  0  0  0  0  0  0  0  0  0
  -29.3689  -17.2015   20.2352 C   0  0  0  0  0  0  0  0  0  0  0  0
  -32.7993  -24.8854   19.0806 C   0  0  0  0  0  0  0  0  0  0  0  0
  -29.9446  -14.7750   20.0640 C   0  0  0  0  0  0  0  0  0  0  0  0
  -22.1923  -28.2310   21.7791 C   0  0  0  0  0  0  0  0  0  0  0  0
  -21.0966  -26.3967   19.3383 C   0  0  0  0  0  0  0  0  0  0  0  0
  -21.8149  -24.4354   16.6394 C   0  0  0  0  0  0  0  0  0  0  0  0
  -28.0459  -22.3565   18.2372 C   0  0  0  0  0  0  0  0  0  0  0  0
  -18.6422  -30.3828   24.7496 C   0  0  0  0  0  0  0  0  0  0  0  0
  -23.4176  -29.2253   19.8130 C   0  0  0  0  0  0  0  0  0  0  0  0
  -23.5697  -26.2721   19.8216 C   0  0  0  0  0  0  0  0  0  0  0  0
  -18.7660  -29.0784   23.9663 C   0  0  0  0  0  0  0  0  0  0  0  0
  -26.6933  -21.2884   21.5131 C   0  0  0  0  0  0  0  0  0  0  0  0
  -20.1000  -28.4014   24.2642 C   0  0  0  0  0  0  0  0  0  0  0  0
  -26.8740  -19.7720   21.4697 C   0  0  0  0  0  0  0  0  0  0  0  0
  -26.5196  -21.8791   20.1172 C   0  0  0  0  0  0  0  0  0  0  0  0
  -27.7917  -20.0038   19.1277 C   0  0  0  0  0  0  0  0  0  0  0  0
  -21.2761  -29.2878   23.8369 C   0  0  1  0  0  0  0  0  0  0  0  0
  -22.2508  -28.3624   20.2835 C   0  0  1  0  0  0  0  0  0  0  0  0
  -28.0159  -19.3828   20.5147 C   0  0  2  0  0  0  0  0  0  0  0  0
  -34.1163  -25.2775   18.5012 C   0  0  0  0  0  0  0  0  0  0  0  0
  -20.7119  -23.0435   14.8664 C   0  0  0  0  0  0  0  0  0  0  0  0
  -20.5861  -24.1948   21.3879 C   0  0  0  0  0  0  0  0  0  0  0  0
  -20.4045  -22.5689   19.4927 C   0  0  0  0  0  0  0  0  0  0  0  0
  -18.7869  -24.4595   19.6712 C   0  0  0  0  0  0  0  0  0  0  0  0
  -29.7745  -22.6396   16.5019 C   0  0  0  0  0  0  0  0  0  0  0  0
  -22.9166  -26.1188   14.4689 C   0  0  0  0  0  0  0  0  0  0  0  0
  -30.4056  -26.2907   21.4545 C   0  0  0  0  0  0  0  0  0  0  0  0
  -30.4992  -22.0839   18.7936 C   0  0  0  0  0  0  0  0  0  0  0  0
  -29.4902  -27.3048   20.7773 C   0  0  0  0  0  0  0  0  0  1  0  0
  -21.1738  -24.9313   18.9841 C   0  0  1  0  0  0  0  0  0  0  0  0
  -21.2533  -24.4176   15.2292 C   0  0  2  0  0  0  0  0  0  0  0  0
  -20.2613  -24.0544   19.8873 C   0  0  0  0  0  0  0  0  0  0  0  0
  -27.1275  -17.0827   20.5668 N   0  0  0  0  0  0  0  0  0  0  0  0
  -32.2480  -25.7448   19.9586 N   0  0  0  0  0  0  0  0  0  0  0  0
  -32.2896  -23.7079   18.6716 N   0  0  0  0  0  0  0  0  0  0  0  0
  -28.2020  -17.8790   20.4340 N   0  0  0  0  0  0  0  0  0  0  0  0
  -22.2955  -27.0047   19.7369 N   0  0  0  0  0  0  0  0  0  0  0  0
  -27.5950  -21.4583   19.2184 N   0  0  0  0  0  0  0  0  0  0  0  0
  -30.5441  -17.8477   20.0817 N   0  0  0  0  0  0  0  0  0  0  0  0
  -29.4340  -13.4701   20.0946 N   0  0  0  0  0  0  0  0  0  0  0  0
  -21.4620  -29.2244   22.4031 N   0  0  0  0  0  0  0  0  0  0  0  0
  -20.8710  -24.8390   17.5600 N   0  0  0  0  0  0  0  0  0  0  0  0
  -29.3930  -22.2639   17.8559 N   0  0  0  0  0  0  0  0  0  0  0  0
  -22.3123  -24.7802   14.2453 N   0  3  0  0  0  0  0  0  0  0  0  0
  -31.1763  -14.9486   19.9024 O   0  0  0  0  0  0  0  0  0  0  0  0
  -22.7659  -27.2965   22.3264 O   0  0  0  0  0  0  0  0  0  0  0  0
  -20.0139  -26.9822   19.2573 O   0  0  0  0  0  0  0  0  0  0  0  0
  -22.9738  -24.1190   16.8989 O   0  0  0  0  0  0  0  0  0  0  0  0
  -27.2900  -23.1998   17.7378 O   0  0  0  0  0  0  0  0  0  0  0  0
  -24.3198  -11.3715   20.7842 O   0  0  0  0  0  0  0  0  0  0  0  0
  -28.4424  -26.6239   20.0882 O   0  0  0  0  0  0  0  0  0  1  0  0
  -26.0383   -7.1323   23.8631 F   0  0  0  0  0  0  0  0  0  0  0  0
  -22.8385  -10.4984   22.9490 F   0  0  0  0  0  0  0  0  0  0  0  0
  1  2  1  0  0  0  0
  1  5  2  0  0  0  0
  2  6  2  0  0  0  0
  3  8  2  0  0  0  0
  3 16  1  0  0  0  0
  4  9  1  0  0  0  0
  4 16  2  0  0  0  0
  5 18  1  0  0  0  0
  6 20  1  0  0  0  0
  7 10  2  0  0  0  0
  7 19  1  0  0  0  0
  8 22  1  0  0  0  0
  9 22  2  0  0  0  0
 10 23  1  0  0  0  0
 11 12  2  0  0  0  0
 11 24  1  0  0  0  0
 12 25  1  0  0  0  0
 13 21  1  0  0  0  0
 13 23  2  0  0  0  0
 14 25  2  0  0  0  0
 14 26  1  0  0  0  0
 15 28  1  0  0  0  0
 15 29  2  0  0  0  0
 16 27  1  0  0  0  0
 17 27  1  0  0  0  0
 17 30  2  0  0  0  0
 17 32  1  0  0  0  0
 18 20  2  0  0  0  0
 18 37  1  0  0  0  0
 19 21  2  0  0  0  0
 19 38  1  0  0  0  0
 20 46  1  0  0  0  0
 21 39  1  0  0  0  0
 22 79  1  0  0  0  0
 23 80  1  0  0  0  0
 24 26  2  0  0  0  0
 24 79  1  0  0  0  0
 25 81  1  0  0  0  0
 26 82  1  0  0  0  0
 27 62  2  0  0  0  0
 28 56  1  0  0  0  0
 28 63  2  0  0  0  0
 29 57  1  0  0  0  0
 29 64  1  0  0  0  0
 30 65  1  0  0  0  0
 30 68  1  0  0  0  0
 31 49  1  0  0  0  0
 31 63  1  0  0  0  0
 31 64  2  0  0  0  0
 32 69  1  0  0  0  0
 32 74  2  0  0  0  0
 33 47  1  0  0  0  0
 33 70  1  0  0  0  0
 33 75  2  0  0  0  0
 34 59  1  0  0  0  0
 34 66  1  0  0  0  0
 34 76  2  0  0  0  0
 35 60  1  0  0  0  0
 35 71  1  0  0  0  0
 35 77  2  0  0  0  0
 36 67  1  0  0  0  0
 36 72  1  0  0  0  0
 36 78  2  0  0  0  0
 37 40  1  0  0  0  0
 38 47  1  0  0  0  0
 39 66  1  0  0  0  0
 40 42  1  0  0  0  0
 41 43  1  0  0  0  0
 41 44  1  0  0  0  0
 42 46  1  0  0  0  0
 43 48  1  0  0  0  0
 44 67  1  0  0  0  0
 45 48  1  0  0  0  0
 45 67  1  0  0  0  0
 46 70  1  0  0  0  0
 47 66  1  0  0  0  0
 48 65  1  0  0  0  0
 50 60  1  0  0  0  0
 51 61  1  0  0  0  0
 52 61  1  0  0  0  0
 53 61  1  0  0  0  0
 54 72  1  0  0  0  0
 55 73  1  0  0  0  0
 56 58  1  0  0  0  0
 57 72  1  0  0  0  0
 58 80  1  0  0  0  0
 59 61  1  0  0  0  0
 59 71  1  0  0  0  0
 60 73  1  0  0  0  0
 62 65  1  0  0  0  0
M  CHG  1  73   1
M  ISO  4  36 100  58 101  72 100  80 101
M  END
> <Batch ID>
0060

> <Smiles>
CNC(C)C(=O)NC(C(=O)N1Cc2cc([101O:1][101CH2:1]Cc3cc(C[100N:0](C)[100C:0](=O)N4CCCC(n5nc(-c6ccc(Oc7ccc(F)cc7F)cc6)c(C(N)=O)c5N)C4)nc(C)n3)ccc2CC1C(=O)NC1CCCc2ccccc21)C(C)(C)C

> <Shape>
0.239

> <Color>
0.096

> <Negative vol penalty>
0.000

$$$$

  -OEChem-04052317553D

 81 89  0     1  0  0  0  0  0999 V2000
  -22.0764  -11.0967   20.0269 C   0  0  0  0  0  0  0  0  0  0  0  0
  -21.6960  -12.4065   20.3009 C   0  0  0  0  0  0  0  0  0  0  0  0
  -25.1056  -28.7872   19.2709 C   0  0  0  0  0  0  0  0  0  0  0  0
  -25.8030  -27.4327   21.1460 C   0  0  0  0  0  0  0  0  0  0  0  0
  -23.4164  -10.7252   20.1295 C   0  0  0  0  0  0  0  0  0  0  0  0
  -22.6552  -13.3454   20.6789 C   0  0  0  0  0  0  0  0  0  0  0  0
  -22.0908  -17.7714   18.2837 C   0  0  0  0  0  0  0  0  0  0  0  0
  -26.3598  -29.3970   19.2448 C   0  0  0  0  0  0  0  0  0  0  0  0
  -27.0573  -28.0425   21.1199 C   0  0  0  0  0  0  0  0  0  0  0  0
  -21.0870  -18.6217   18.7454 C   0  0  0  0  0  0  0  0  0  0  0  0
  -29.9040  -27.8037   19.3144 C   0  0  0  0  0  0  0  0  0  0  0  0
  -31.0250  -26.9816   19.4288 C   0  0  0  0  0  0  0  0  0  0  0  0
  -22.7366  -19.9053   19.9497 C   0  0  0  0  0  0  0  0  0  0  0  0
  -31.6852  -28.1607   21.4316 C   0  0  0  0  0  0  0  0  0  0  0  0
  -17.5706  -22.3588   19.5229 C   0  0  0  0  0  0  0  0  0  0  0  0
  -17.7331  -21.3781   21.4843 C   0  0  0  0  0  0  0  0  0  0  0  0
  -24.8271  -27.8051   20.2215 C   0  0  0  0  0  0  0  0  0  0  0  0
  -23.1356  -26.0145   19.5583 C   0  0  0  0  0  0  0  0  0  0  0  0
  -24.3938  -11.6624   20.4996 C   0  0  0  0  0  0  0  0  0  0  0  0
  -23.4258  -17.9755   18.6610 C   0  0  0  0  0  0  0  0  0  0  0  0
  -24.0093  -12.9857   20.7879 C   0  0  0  0  0  0  0  0  0  0  0  0
  -23.7558  -19.0577   19.4894 C   0  0  0  0  0  0  0  0  0  0  0  0
  -18.1762  -21.2759   20.1882 C   0  0  0  0  0  0  0  0  0  0  0  0
  -27.3357  -29.0246   20.1693 C   0  0  0  0  0  0  0  0  0  0  0  0
  -21.4094  -19.6872   19.5808 C   0  0  0  0  0  0  0  0  0  0  0  0
  -29.6736  -28.8044   20.2585 C   0  0  0  0  0  0  0  0  0  0  0  0
  -31.9156  -27.1601   20.4874 C   0  0  0  0  0  0  0  0  0  0  0  0
  -30.5642  -28.9828   21.3171 C   0  0  0  0  0  0  0  0  0  0  0  0
  -23.5315  -27.1753   20.2493 C   0  0  0  0  0  0  0  0  0  0  0  0
  -21.8222  -25.8328   19.9166 C   0  0  0  0  0  0  0  0  0  0  0  0
  -23.8878  -25.1754   18.6718 C   0  0  0  0  0  0  0  0  0  0  0  0
  -25.5846  -16.2880   20.2722 C   0  0  0  0  0  0  0  0  0  0  0  0
  -27.5623  -18.7007   19.3832 C   0  0  0  0  0  0  0  0  0  0  0  0
  -27.9088  -21.9529   18.4087 C   0  0  0  0  0  0  0  0  0  0  0  0
  -17.8042  -25.7231   23.7882 C   0  0  0  0  0  0  0  0  0  0  0  0
  -25.8230  -11.2025   20.6430 C   0  0  0  0  0  0  0  0  0  0  0  0
  -24.5004  -17.0652   18.1329 C   0  0  0  0  0  0  0  0  0  0  0  0
  -25.1765  -19.3322   19.9072 C   0  0  0  0  0  0  0  0  0  0  0  0
  -26.8303  -12.3487   20.6859 C   0  0  0  0  0  0  0  0  0  0  0  0
  -18.6282  -28.8868   22.3779 C   0  0  0  0  0  0  0  0  0  0  0  0
  -26.3570  -13.4399   21.6409 C   0  0  0  0  0  0  0  0  0  0  0  0
  -19.9472  -28.6292   21.6472 C   0  0  0  0  0  0  0  0  0  0  0  0
  -18.5364  -28.0870   23.6756 C   0  0  0  0  0  0  0  0  0  0  0  0
  -20.0804  -26.3793   22.7958 C   0  0  0  0  0  0  0  0  0  0  0  0
  -25.0239  -14.0390   21.1768 C   0  0  1  0  0  0  0  0  0  0  0  0
  -25.7583  -17.0620   18.9961 C   0  0  1  0  0  0  0  0  0  0  0  0
  -20.1954  -27.1212   21.4531 C   0  0  2  0  0  0  0  0  0  0  0  0
  -29.6519  -23.6491   17.7907 C   0  0  0  0  0  0  0  0  0  0  0  0
  -28.2927  -19.0196   22.3285 C   0  0  0  0  0  0  0  0  0  0  0  0
  -29.2528  -21.2648   21.7753 C   0  0  0  0  0  0  0  0  0  0  0  0
  -30.2223  -19.2084   20.7488 C   0  0  0  0  0  0  0  0  0  0  0  0
  -15.3727  -24.2492   22.3735 C   0  0  0  0  0  0  0  0  0  0  0  0
  -15.2310  -21.9034   23.1691 C   0  0  0  0  0  0  0  0  0  0  0  0
  -26.7860  -22.2876   15.6910 C   0  0  0  0  0  0  0  0  0  0  0  0
  -19.0966  -20.2401   19.6127 C   0  0  0  0  0  0  0  0  0  1  0  0
  -17.2059  -23.3148   23.8185 C   0  0  0  0  0  0  0  0  0  0  0  0
  -27.9598  -20.0308   19.9763 C   0  0  1  0  0  0  0  0  0  0  0  0
  -28.6943  -22.5864   17.2746 C   0  0  2  0  0  0  0  0  0  0  0  0
  -28.9048  -19.8748   21.2011 C   0  0  0  0  0  0  0  0  0  0  0  0
  -16.2174  -22.9851   22.6669 C   0  0  0  0  0  0  0  0  0  0  0  0
  -16.8014  -23.0946   20.3297 N   0  0  0  0  0  0  0  0  0  0  0  0
  -22.5491  -27.6945   20.9904 N   0  0  0  0  0  0  0  0  0  0  0  0
  -16.9205  -22.4730   21.5152 N   0  0  0  0  0  0  0  0  0  0  0  0
  -21.5228  -26.8561   20.7670 N   0  0  0  0  0  0  0  0  0  0  0  0
  -26.1907  -18.4102   19.3698 N   0  0  0  0  0  0  0  0  0  0  0  0
  -18.7800  -26.6649   23.4220 N   0  0  0  0  0  0  0  0  0  0  0  0
  -20.9057  -24.8991   19.5839 N   0  0  0  0  0  0  0  0  0  0  0  0
  -25.2248  -25.5063   18.4126 N   0  0  0  0  0  0  0  0  0  0  0  0
  -25.2385  -14.9635   20.0842 N   0  0  0  0  0  0  0  0  0  0  0  0
  -28.5242  -20.8133   18.8820 N   0  0  0  0  0  0  0  0  0  0  0  0
  -18.1119  -24.3977   23.5068 N   0  0  0  0  0  0  0  0  0  0  0  0
  -27.7684  -23.2235   16.2959 N   0  3  0  0  0  0  0  0  0  0  0  0
  -23.3843  -24.1716   18.1129 O   0  0  0  0  0  0  0  0  0  0  0  0
  -25.7537  -16.8505   21.3477 O   0  0  0  0  0  0  0  0  0  0  0  0
  -28.4360  -17.9502   18.9413 O   0  0  0  0  0  0  0  0  0  0  0  0
  -26.8567  -22.4241   18.8349 O   0  0  0  0  0  0  0  0  0  0  0  0
  -16.7355  -26.0406   24.3212 O   0  0  0  0  0  0  0  0  0  0  0  0
  -28.5597  -29.6192   20.1440 O   0  0  0  0  0  0  0  0  0  0  0  0
  -20.4315  -20.5183   20.0334 O   0  0  0  0  0  0  0  0  0  1  0  0
  -32.9912  -26.3696   20.5981 F   0  0  0  0  0  0  0  0  0  0  0  0
  -30.3475  -29.9417   22.2279 F   0  0  0  0  0  0  0  0  0  0  0  0
  1  2  1  0  0  0  0
  1  5  2  0  0  0  0
  2  6  2  0  0  0  0
  3  8  2  0  0  0  0
  3 17  1  0  0  0  0
  4  9  1  0  0  0  0
  4 17  2  0  0  0  0
  5 19  1  0  0  0  0
  6 21  1  0  0  0  0
  7 10  2  0  0  0  0
  7 20  1  0  0  0  0
  8 24  1  0  0  0  0
  9 24  2  0  0  0  0
 10 25  1  0  0  0  0
 11 12  2  0  0  0  0
 11 26  1  0  0  0  0
 12 27  1  0  0  0  0
 13 22  1  0  0  0  0
 13 25  2  0  0  0  0
 14 27  2  0  0  0  0
 14 28  1  0  0  0  0
 15 23  1  0  0  0  0
 15 61  2  0  0  0  0
 16 23  2  0  0  0  0
 16 63  1  0  0  0  0
 17 29  1  0  0  0  0
 18 29  1  0  0  0  0
 18 30  2  0  0  0  0
 18 31  1  0  0  0  0
 19 21  2  0  0  0  0
 19 36  1  0  0  0  0
 20 22  2  0  0  0  0
 20 37  1  0  0  0  0
 21 45  1  0  0  0  0
 22 38  1  0  0  0  0
 23 55  1  0  0  0  0
 24 78  1  0  0  0  0
 25 79  1  0  0  0  0
 26 28  2  0  0  0  0
 26 78  1  0  0  0  0
 27 80  1  0  0  0  0
 28 81  1  0  0  0  0
 29 62  2  0  0  0  0
 30 64  1  0  0  0  0
 30 67  1  0  0  0  0
 31 68  1  0  0  0  0
 31 73  2  0  0  0  0
 32 46  1  0  0  0  0
 32 69  1  0  0  0  0
 32 74  2  0  0  0  0
 33 57  1  0  0  0  0
 33 65  1  0  0  0  0
 33 75  2  0  0  0  0
 34 58  1  0  0  0  0
 34 70  1  0  0  0  0
 34 76  2  0  0  0  0
 35 66  1  0  0  0  0
 35 71  1  0  0  0  0
 35 77  2  0  0  0  0
 36 39  1  0  0  0  0
 37 46  1  0  0  0  0
 38 65  1  0  0  0  0
 39 41  1  0  0  0  0
 40 42  1  0  0  0  0
 40 43  1  0  0  0  0
 41 45  1  0  0  0  0
 42 47  1  0  0  0  0
 43 66  1  0  0  0  0
 44 47  1  0  0  0  0
 44 66  1  0  0  0  0
 45 69  1  0  0  0  0
 46 65  1  0  0  0  0
 47 64  1  0  0  0  0
 48 58  1  0  0  0  0
 49 59  1  0  0  0  0
 50 59  1  0  0  0  0
 51 59  1  0  0  0  0
 52 60  1  0  0  0  0
 53 60  1  0  0  0  0
 54 72  1  0  0  0  0
 55 79  1  0  0  0  0
 56 60  1  0  0  0  0
 56 71  1  0  0  0  0
 57 59  1  0  0  0  0
 57 70  1  0  0  0  0
 58 72  1  0  0  0  0
 60 63  1  0  0  0  0
 61 63  1  0  0  0  0
 62 64  1  0  0  0  0
M  CHG  1  72   1
M  ISO  4  35 100  55 101  71 100  79 101
M  END
> <Batch ID>
0060

> <Smiles>
CNC(C)C(=O)NC(C(=O)N1Cc2cc([101O:1][101CH2:1]c3cnn(C(C)(C)C[100NH:0][100C:0](=O)N4CCCC(n5nc(-c6ccc(Oc7ccc(F)cc7F)cc6)c(C(N)=O)c5N)C4)c3)ccc2CC1C(=O)NC1CCCc2ccccc21)C(C)(C)C

> <Shape>
0.199

> <Color>
0.072

> <Negative vol penalty>
0.000

$$$$

  -OEChem-04052317553D

 83 91  0     1  0  0  0  0  0999 V2000
  -35.7163  -27.8168   21.6611 C   0  0  0  0  0  0  0  0  0  0  0  0
  -34.9464  -26.6826   21.4239 C   0  0  0  0  0  0  0  0  0  0  0  0
  -23.3248   -9.6846   19.9786 C   0  0  0  0  0  0  0  0  0  0  0  0
  -23.8961   -9.9128   22.3149 C   0  0  0  0  0  0  0  0  0  0  0  0
  -35.1028  -29.0640   21.7707 C   0  0  0  0  0  0  0  0  0  0  0  0
  -33.5623  -26.7949   21.2972 C   0  0  0  0  0  0  0  0  0  0  0  0
  -31.7451  -24.1217   17.3989 C   0  0  0  0  0  0  0  0  0  0  0  0
  -22.6736   -8.4826   20.2552 C   0  0  0  0  0  0  0  0  0  0  0  0
  -23.2448   -8.7107   22.5916 C   0  0  0  0  0  0  0  0  0  0  0  0
  -31.6099  -22.7458   17.5783 C   0  0  0  0  0  0  0  0  0  0  0  0
  -21.4224   -5.8836   23.9715 C   0  0  0  0  0  0  0  0  0  0  0  0
  -20.5828   -5.8412   25.0845 C   0  0  0  0  0  0  0  0  0  0  0  0
  -29.2524  -23.0383   17.9980 C   0  0  0  0  0  0  0  0  0  0  0  0
  -19.2260   -7.5965   24.1278 C   0  0  0  0  0  0  0  0  0  0  0  0
  -28.8415  -17.6180   17.5829 C   0  0  0  0  0  0  0  0  0  0  0  0
  -29.4154  -16.6469   16.8119 C   0  0  0  0  0  0  0  0  0  0  0  0
  -23.9361  -10.3998   21.0085 C   0  0  0  0  0  0  0  0  0  0  0  0
  -24.0507  -12.9334   20.7339 C   0  0  0  0  0  0  0  0  0  0  0  0
  -33.7115  -29.1929   21.6357 C   0  0  0  0  0  0  0  0  0  0  0  0
  -30.6352  -24.9689   17.5286 C   0  0  0  0  0  0  0  0  0  0  0  0
  -32.9294  -28.0448   21.4064 C   0  0  0  0  0  0  0  0  0  0  0  0
  -29.3758  -24.4244   17.8172 C   0  0  0  0  0  0  0  0  0  0  0  0
  -22.6336   -7.9956   21.5617 C   0  0  0  0  0  0  0  0  0  0  0  0
  -30.3640  -22.2042   17.8808 C   0  0  0  0  0  0  0  0  0  0  0  0
  -21.1639   -6.7825   22.9367 C   0  0  0  0  0  0  0  0  0  0  0  0
  -19.4845   -6.6976   25.1627 C   0  0  0  0  0  0  0  0  0  0  0  0
  -20.0657   -7.6389   23.0148 C   0  0  0  0  0  0  0  0  0  0  0  0
  -24.6095  -11.6413   20.7233 C   0  0  0  0  0  0  0  0  0  0  0  0
  -25.0941  -13.7614   20.3988 C   0  0  0  0  0  0  0  0  0  0  0  0
  -30.9162  -17.3181   18.2943 C   0  0  0  0  0  0  0  0  0  0  0  0
  -22.7086  -13.3480   21.0211 C   0  0  0  0  0  0  0  0  0  0  0  0
  -29.8623  -27.3737   19.4583 C   0  0  0  0  0  0  0  0  0  0  0  0
  -27.2983  -27.6186   17.4864 C   0  0  0  0  0  0  0  0  0  0  0  0
  -25.1990  -26.1048   15.2621 C   0  0  0  0  0  0  0  0  0  0  0  0
  -30.1931  -15.4280   20.8263 C   0  0  0  0  0  0  0  0  0  0  0  0
  -33.0885  -30.5555   21.8090 C   0  0  0  0  0  0  0  0  0  0  0  0
  -30.7927  -26.4481   17.3056 C   0  0  0  0  0  0  0  0  0  0  0  0
  -28.1491  -25.2885   17.9472 C   0  0  0  0  0  0  0  0  0  0  0  0
  -31.6557  -30.6406   21.2893 C   0  0  0  0  0  0  0  0  0  0  0  0
  -29.7014  -12.7164   18.6179 C   0  0  0  0  0  0  0  0  0  0  0  0
  -30.8417  -29.4432   21.7692 C   0  0  0  0  0  0  0  0  0  0  0  0
  -28.2790  -12.2884   18.9762 C   0  0  0  0  0  0  0  0  0  0  0  0
  -30.5132  -13.1052   19.8549 C   0  0  0  0  0  0  0  0  0  0  0  0
  -28.4360  -13.6989   21.0612 C   0  0  0  0  0  0  0  0  0  0  0  0
  -31.4279  -28.1293   21.2384 C   0  0  1  0  0  0  0  0  0  0  0  0
  -29.6936  -27.2726   17.9686 C   0  0  1  0  0  0  0  0  0  0  0  0
  -27.5806  -13.3605   19.8306 C   0  0  2  0  0  0  0  0  0  0  0  0
  -23.1748  -26.5499   13.8472 C   0  0  0  0  0  0  0  0  0  0  0  0
  -32.8681  -18.8521   19.0247 C   0  0  0  0  0  0  0  0  0  0  0  0
  -33.2686  -16.4645   18.4818 C   0  0  0  0  0  0  0  0  0  0  0  0
  -25.5317  -27.4636   19.9694 C   0  0  0  0  0  0  0  0  0  0  0  0
  -23.5906  -26.9575   18.4714 C   0  0  0  0  0  0  0  0  0  0  0  0
  -24.7895  -29.1352   18.2637 C   0  0  0  0  0  0  0  0  0  0  0  0
  -32.6054  -14.7441   21.1704 C   0  0  0  0  0  0  0  0  0  0  0  0
  -26.6734  -25.5199   12.7635 C   0  0  0  0  0  0  0  0  0  0  0  0
  -29.5941  -19.0729   19.5501 C   0  0  0  0  0  0  0  0  0  0  0  0
  -32.0190  -17.0659   20.5773 C   0  0  0  0  0  0  0  0  0  0  0  0
  -29.2104  -20.4233   18.9549 C   0  0  0  0  0  0  0  0  0  1  0  0
  -25.9130  -27.0197   17.4547 C   0  0  1  0  0  0  0  0  0  0  0  0
  -24.6947  -26.5384   13.8975 C   0  0  2  0  0  0  0  0  0  0  0  0
  -32.1838  -17.4374   19.0567 C   0  0  0  0  0  0  0  0  0  0  0  0
  -24.9795  -27.6276   18.5393 C   0  0  0  0  0  0  0  0  0  0  0  0
  -25.9070  -11.6432   20.4063 N   0  0  0  0  0  0  0  0  0  0  0  0
  -29.7923  -18.0148   18.4920 N   0  0  0  0  0  0  0  0  0  0  0  0
  -26.1722  -12.9466   20.2146 N   0  0  0  0  0  0  0  0  0  0  0  0
  -30.6989  -16.4820   17.2740 N   0  3  0  0  0  0  0  0  0  0  0  0
  -28.3555  -26.7294   17.7264 N   0  0  0  0  0  0  0  0  0  0  0  0
  -29.7902  -14.0941   20.6662 N   0  0  0  0  0  0  0  0  0  0  0  0
  -25.1852  -15.0996   20.2466 N   0  0  0  0  0  0  0  0  0  0  0  0
  -21.7618  -12.3676   21.3476 N   0  0  0  0  0  0  0  0  0  0  0  0
  -31.0616  -27.9362   19.8517 N   0  0  0  0  0  0  0  0  0  0  0  0
  -25.4282  -27.1844   16.0886 N   0  0  0  0  0  0  0  0  0  0  0  0
  -31.5694  -15.6943   20.7700 N   0  0  0  0  0  0  0  0  0  0  0  0
  -25.1927  -25.6111   12.8425 N   0  3  0  0  0  0  0  0  0  0  0  0
  -22.3555  -14.5507   20.9732 O   0  0  0  0  0  0  0  0  0  0  0  0
  -28.9699  -26.9725   20.1960 O   0  0  0  0  0  0  0  0  0  0  0  0
  -27.4380  -28.8297   17.2979 O   0  0  0  0  0  0  0  0  0  0  0  0
  -25.3687  -24.9260   15.5658 O   0  0  0  0  0  0  0  0  0  0  0  0
  -29.3695  -16.3320   21.0174 O   0  0  0  0  0  0  0  0  0  0  0  0
  -21.9980   -6.8228   21.8320 O   0  0  0  0  0  0  0  0  0  0  0  0
  -30.2293  -20.8615   18.0570 O   0  0  0  0  0  0  0  0  0  1  0  0
  -18.6774   -6.6557   26.2309 F   0  0  0  0  0  0  0  0  0  0  0  0
  -19.8115   -8.5037   22.0232 F   0  0  0  0  0  0  0  0  0  0  0  0
  1  2  1  0  0  0  0
  1  5  2  0  0  0  0
  2  6  2  0  0  0  0
  3  8  2  0  0  0  0
  3 17  1  0  0  0  0
  4  9  1  0  0  0  0
  4 17  2  0  0  0  0
  5 19  1  0  0  0  0
  6 21  1  0  0  0  0
  7 10  2  0  0  0  0
  7 20  1  0  0  0  0
  8 23  1  0  0  0  0
  9 23  2  0  0  0  0
 10 24  1  0  0  0  0
 11 12  2  0  0  0  0
 11 25  1  0  0  0  0
 12 26  1  0  0  0  0
 13 22  1  0  0  0  0
 13 24  2  0  0  0  0
 14 26  2  0  0  0  0
 14 27  1  0  0  0  0
 15 16  2  0  0  0  0
 15 64  1  0  0  0  0
 16 66  1  0  0  0  0
 17 28  1  0  0  0  0
 18 28  1  0  0  0  0
 18 29  2  0  0  0  0
 18 31  1  0  0  0  0
 19 21  2  0  0  0  0
 19 36  1  0  0  0  0
 20 22  2  0  0  0  0
 20 37  1  0  0  0  0
 21 45  1  0  0  0  0
 22 38  1  0  0  0  0
 23 80  1  0  0  0  0
 24 81  1  0  0  0  0
 25 27  2  0  0  0  0
 25 80  1  0  0  0  0
 26 82  1  0  0  0  0
 27 83  1  0  0  0  0
 28 63  2  0  0  0  0
 29 65  1  0  0  0  0
 29 69  1  0  0  0  0
 30 61  1  0  0  0  0
 30 64  1  0  0  0  0
 30 66  2  0  0  0  0
 31 70  1  0  0  0  0
 31 75  2  0  0  0  0
 32 46  1  0  0  0  0
 32 71  1  0  0  0  0
 32 76  2  0  0  0  0
 33 59  1  0  0  0  0
 33 67  1  0  0  0  0
 33 77  2  0  0  0  0
 34 60  1  0  0  0  0
 34 72  1  0  0  0  0
 34 78  2  0  0  0  0
 35 68  1  0  0  0  0
 35 73  1  0  0  0  0
 35 79  2  0  0  0  0
 36 39  1  0  0  0  0
 37 46  1  0  0  0  0
 38 67  1  0  0  0  0
 39 41  1  0  0  0  0
 40 42  1  0  0  0  0
 40 43  1  0  0  0  0
 41 45  1  0  0  0  0
 42 47  1  0  0  0  0
 43 68  1  0  0  0  0
 44 47  1  0  0  0  0
 44 68  1  0  0  0  0
 45 71  1  0  0  0  0
 46 67  1  0  0  0  0
 47 65  1  0  0  0  0
 48 60  1  0  0  0  0
 49 61  1  0  0  0  0
 50 61  1  0  0  0  0
 51 62  1  0  0  0  0
 52 62  1  0  0  0  0
 53 62  1  0  0  0  0
 54 73  1  0  0  0  0
 55 74  1  0  0  0  0
 56 58  1  0  0  0  0
 56 64  1  0  0  0  0
 57 61  1  0  0  0  0
 57 73  1  0  0  0  0
 58 81  1  0  0  0  0
 59 62  1  0  0  0  0
 59 72  1  0  0  0  0
 60 74  1  0  0  0  0
 63 65  1  0  0  0  0
M  CHG  2  66   1  74   1
M  ISO  4  35 100  58 101  73 100  81 101
M  END
> <Batch ID>
0060

> <Smiles>
CNC(C)C(=O)NC(C(=O)N1Cc2cc([101O:1][101CH2:1]Cn3ccnc3C(C)(C)C[100N:0](C)[100C:0](=O)N3CCCC(n4nc(-c5ccc(Oc6ccc(F)cc6F)cc5)c(C(N)=O)c4N)C3)ccc2CC1C(=O)NC1CCCc2ccccc21)C(C)(C)C

> <Shape>
0.260

> <Color>
0.176

> <Negative vol penalty>
0.000

$$$$

  -OEChem-04052317553D

 82 90  0     1  0  0  0  0  0999 V2000
  -18.0763  -24.8181   23.1227 C   0  0  0  0  0  0  0  0  0  0  0  0
  -19.3436  -24.7651   22.5513 C   0  0  0  0  0  0  0  0  0  0  0  0
  -26.2741  -13.9785   21.5322 C   0  0  0  0  0  0  0  0  0  0  0  0
  -26.2175  -13.6223   19.1433 C   0  0  0  0  0  0  0  0  0  0  0  0
  -17.4389  -26.0468   23.2896 C   0  0  0  0  0  0  0  0  0  0  0  0
  -19.9738  -25.9409   22.1453 C   0  0  0  0  0  0  0  0  0  0  0  0
  -24.8377  -26.1205   23.5435 C   0  0  0  0  0  0  0  0  0  0  0  0
  -24.9546  -13.5369   21.6294 C   0  0  0  0  0  0  0  0  0  0  0  0
  -24.8980  -13.1806   19.2404 C   0  0  0  0  0  0  0  0  0  0  0  0
  -25.7455  -25.3811   22.7866 C   0  0  0  0  0  0  0  0  0  0  0  0
  -23.3126  -10.5812   21.6559 C   0  0  0  0  0  0  0  0  0  0  0  0
  -23.0026   -9.6848   22.6786 C   0  0  0  0  0  0  0  0  0  0  0  0
  -26.3922  -27.3873   21.6135 C   0  0  0  0  0  0  0  0  0  0  0  0
  -21.4089  -11.2621   23.5781 C   0  0  0  0  0  0  0  0  0  0  0  0
  -26.7342  -18.3289   17.1467 C   0  0  0  0  0  0  0  0  0  0  0  0
  -26.9056  -14.0212   20.2892 C   0  0  0  0  0  0  0  0  0  0  0  0
  -29.4358  -13.6960   20.2769 C   0  0  0  0  0  0  0  0  0  0  0  0
  -18.0656  -27.2391   22.8944 C   0  0  0  0  0  0  0  0  0  0  0  0
  -24.6923  -27.4993   23.3333 C   0  0  0  0  0  0  0  0  0  0  0  0
  -19.3436  -27.1866   22.3059 C   0  0  0  0  0  0  0  0  0  0  0  0
  -25.4837  -28.1424   22.3709 C   0  0  0  0  0  0  0  0  0  0  0  0
  -24.2665  -13.1380   20.4835 C   0  0  0  0  0  0  0  0  0  0  0  0
  -26.5209  -26.0140   21.8194 C   0  0  0  0  0  0  0  0  0  0  0  0
  -22.6708  -11.8182   21.5943 C   0  0  0  0  0  0  0  0  0  0  0  0
  -22.0508  -10.0252   23.6397 C   0  0  0  0  0  0  0  0  0  0  0  0
  -21.7189  -12.1586   22.5554 C   0  0  0  0  0  0  0  0  0  0  0  0
  -28.2685  -14.4779   20.1881 C   0  0  0  0  0  0  0  0  0  0  0  0
  -30.4632  -14.5935   20.1179 C   0  0  0  0  0  0  0  0  0  0  0  0
  -27.6501  -20.1780   17.4611 C   0  0  0  0  0  0  0  0  0  0  0  0
  -29.5786  -12.2845   20.4844 C   0  0  0  0  0  0  0  0  0  0  0  0
  -22.3095  -29.3880   22.4065 C   0  0  0  0  0  0  0  0  0  0  0  0
  -24.4274  -31.7457   23.0980 C   0  0  0  0  0  0  0  0  0  0  0  0
  -30.7169  -19.9696   17.4447 C   0  0  0  0  0  0  0  0  0  0  0  0
  -27.6833  -32.6968   23.4740 C   0  0  0  0  0  0  0  0  0  0  0  0
  -17.3174  -28.5392   23.0516 C   0  0  0  0  0  0  0  0  0  0  0  0
  -23.7278  -28.2873   24.1765 C   0  0  0  0  0  0  0  0  0  0  0  0
  -25.3802  -29.6239   22.1204 C   0  0  0  0  0  0  0  0  0  0  0  0
  -18.2094  -29.7728   22.9384 C   0  0  0  0  0  0  0  0  0  0  0  0
  -31.5808  -19.1826   20.8320 C   0  0  0  0  0  0  0  0  0  0  0  0
  -19.1377  -29.6516   21.7340 C   0  0  0  0  0  0  0  0  0  0  0  0
  -30.9115  -17.8292   21.0680 C   0  0  0  0  0  0  0  0  0  0  0  0
  -30.7423  -20.0678   19.9153 C   0  0  0  0  0  0  0  0  0  0  0  0
  -29.7334  -18.0821   18.8380 C   0  0  0  0  0  0  0  0  0  0  0  0
  -20.0701  -28.4425   21.8756 C   0  0  1  0  0  0  0  0  0  0  0  0
  -23.2934  -29.5956   23.5229 C   0  0  1  0  0  0  0  0  0  0  0  0
  -30.5623  -17.1452   19.7344 C   0  0  2  0  0  0  0  0  0  0  0  0
  -29.1024  -34.6973   24.0048 C   0  0  0  0  0  0  0  0  0  0  0  0
  -29.7797  -20.8327   15.3235 C   0  0  0  0  0  0  0  0  0  0  0  0
  -30.4908  -18.4529   15.5592 C   0  0  0  0  0  0  0  0  0  0  0  0
  -23.9513  -32.8270   20.2847 C   0  0  0  0  0  0  0  0  0  0  0  0
  -26.0333  -34.1951   20.5335 C   0  0  0  0  0  0  0  0  0  0  0  0
  -24.1009  -34.5781   22.0639 C   0  0  0  0  0  0  0  0  0  0  0  0
  -28.8113  -31.4020   25.8843 C   0  0  0  0  0  0  0  0  0  0  0  0
  -28.0175  -21.5881   17.8492 C   0  0  0  0  0  0  0  0  0  0  0  0
  -27.3800  -22.0549   19.1625 C   0  0  0  0  0  0  0  0  0  0  0  0
  -27.7017  -23.5115   19.4997 C   0  0  0  0  0  0  0  0  0  0  0  0
  -27.0854  -23.9270   20.8286 C   0  0  0  0  0  0  0  0  0  1  0  0
  -25.4940  -32.4847   22.3265 C   0  0  1  0  0  0  0  0  0  0  0  0
  -28.3834  -33.4816   24.5687 C   0  0  2  0  0  0  0  0  0  0  0  0
  -29.8141  -19.6314   16.2851 C   0  0  0  0  0  0  0  0  0  0  0  0
  -24.8957  -33.4930   21.3053 C   0  0  0  0  0  0  0  0  0  0  0  0
  -26.5251  -19.5518   17.7173 N   0  0  0  0  0  0  0  0  0  0  0  0
  -27.9178  -18.1591   16.5536 N   0  0  0  0  0  0  0  0  0  0  0  0
  -28.5290  -15.7726   19.9884 N   0  0  0  0  0  0  0  0  0  0  0  0
  -29.8718  -15.8111   19.9504 N   0  0  0  0  0  0  0  0  0  0  0  0
  -28.4841  -19.3562   16.7691 N   0  0  0  0  0  0  0  0  0  0  0  0
  -24.4182  -30.3499   22.9661 N   0  0  0  0  0  0  0  0  0  0  0  0
  -30.4128  -19.3741   18.6690 N   0  0  0  0  0  0  0  0  0  0  0  0
  -31.8056  -14.4522   20.1064 N   0  0  0  0  0  0  0  0  0  0  0  0
  -28.4196  -11.5097   20.6282 N   0  0  0  0  0  0  0  0  0  0  0  0
  -21.1503  -28.7416   22.7911 N   0  0  0  0  0  0  0  0  0  0  0  0
  -26.3710  -33.0919   23.3219 N   0  0  0  0  0  0  0  0  0  0  0  0
  -29.3849  -32.6229   25.2620 N   0  3  0  0  0  0  0  0  0  0  0  0
  -30.7011  -11.7294   20.5571 O   0  0  0  0  0  0  0  0  0  0  0  0
  -22.5813  -29.7861   21.2798 O   0  0  0  0  0  0  0  0  0  0  0  0
  -23.6361  -32.3829   23.7976 O   0  0  0  0  0  0  0  0  0  0  0  0
  -31.6653  -20.7379   17.2650 O   0  0  0  0  0  0  0  0  0  0  0  0
  -28.2454  -31.8235   22.8168 O   0  0  0  0  0  0  0  0  0  0  0  0
  -22.9790  -12.7068   20.5779 O   0  0  0  0  0  0  0  0  0  0  0  0
  -27.4073  -25.2945   21.0787 O   0  0  0  0  0  0  0  0  0  1  0  0
  -21.7521   -9.1637   24.6208 F   0  0  0  0  0  0  0  0  0  0  0  0
  -21.0981  -13.3450   22.5008 F   0  0  0  0  0  0  0  0  0  0  0  0
  1  2  1  0  0  0  0
  1  5  2  0  0  0  0
  2  6  2  0  0  0  0
  3  8  2  0  0  0  0
  3 16  1  0  0  0  0
  4  9  1  0  0  0  0
  4 16  2  0  0  0  0
  5 18  1  0  0  0  0
  6 20  1  0  0  0  0
  7 10  2  0  0  0  0
  7 19  1  0  0  0  0
  8 22  1  0  0  0  0
  9 22  2  0  0  0  0
 10 23  1  0  0  0  0
 11 12  2  0  0  0  0
 11 24  1  0  0  0  0
 12 25  1  0  0  0  0
 13 21  1  0  0  0  0
 13 23  2  0  0  0  0
 14 25  2  0  0  0  0
 14 26  1  0  0  0  0
 15 62  1  0  0  0  0
 15 63  2  0  0  0  0
 16 27  1  0  0  0  0
 17 27  1  0  0  0  0
 17 28  2  0  0  0  0
 17 30  1  0  0  0  0
 18 20  2  0  0  0  0
 18 35  1  0  0  0  0
 19 21  2  0  0  0  0
 19 36  1  0  0  0  0
 20 44  1  0  0  0  0
 21 37  1  0  0  0  0
 22 79  1  0  0  0  0
 23 80  1  0  0  0  0
 24 26  2  0  0  0  0
 24 79  1  0  0  0  0
 25 81  1  0  0  0  0
 26 82  1  0  0  0  0
 27 64  2  0  0  0  0
 28 65  1  0  0  0  0
 28 69  1  0  0  0  0
 29 54  1  0  0  0  0
 29 62  2  0  0  0  0
 29 66  1  0  0  0  0
 30 70  1  0  0  0  0
 30 74  2  0  0  0  0
 31 45  1  0  0  0  0
 31 71  1  0  0  0  0
 31 75  2  0  0  0  0
 32 58  1  0  0  0  0
 32 67  1  0  0  0  0
 32 76  2  0  0  0  0
 33 60  1  0  0  0  0
 33 68  1  0  0  0  0
 33 77  2  0  0  0  0
 34 59  1  0  0  0  0
 34 72  1  0  0  0  0
 34 78  2  0  0  0  0
 35 38  1  0  0  0  0
 36 45  1  0  0  0  0
 37 67  1  0  0  0  0
 38 40  1  0  0  0  0
 39 41  1  0  0  0  0
 39 42  1  0  0  0  0
 40 44  1  0  0  0  0
 41 46  1  0  0  0  0
 42 68  1  0  0  0  0
 43 46  1  0  0  0  0
 43 68  1  0  0  0  0
 44 71  1  0  0  0  0
 45 67  1  0  0  0  0
 46 65  1  0  0  0  0
 47 59  1  0  0  0  0
 48 60  1  0  0  0  0
 49 60  1  0  0  0  0
 50 61  1  0  0  0  0
 51 61  1  0  0  0  0
 52 61  1  0  0  0  0
 53 73  1  0  0  0  0
 54 55  1  0  0  0  0
 55 56  1  0  0  0  0
 56 57  1  0  0  0  0
 57 80  1  0  0  0  0
 58 61  1  0  0  0  0
 58 72  1  0  0  0  0
 59 73  1  0  0  0  0
 60 66  1  0  0  0  0
 63 66  1  0  0  0  0
 64 65  1  0  0  0  0
M  CHG  1  73   1
M  ISO  4  33 100  57 101  60 100  80 101
M  END
> <Batch ID>
0060

> <Smiles>
CNC(C)C(=O)NC(C(=O)N1Cc2cc([101O:1][101CH2:1]CCCc3ncnn3[100C:0](C)(C)[100C:0](=O)N3CCCC(n4nc(-c5ccc(Oc6ccc(F)cc6F)cc5)c(C(N)=O)c4N)C3)ccc2CC1C(=O)NC1CCCc2ccccc21)C(C)(C)C

> <Shape>
0.257

> <Color>
0.064

> <Negative vol penalty>
0.000

$$$$

  -OEChem-04052317553D

 83 91  0     1  0  0  0  0  0999 V2000
  -26.1636  -35.7907   22.1683 C   0  0  0  0  0  0  0  0  0  0  0  0
  -26.6599  -34.4913   22.1973 C   0  0  0  0  0  0  0  0  0  0  0  0
  -26.6193  -12.7346   20.1451 C   0  0  0  0  0  0  0  0  0  0  0  0
  -24.9514  -14.4330   19.7323 C   0  0  0  0  0  0  0  0  0  0  0  0
  -24.8244  -36.0310   22.4726 C   0  0  0  0  0  0  0  0  0  0  0  0
  -25.8175  -33.4317   22.5316 C   0  0  0  0  0  0  0  0  0  0  0  0
  -26.3788  -29.4555   19.4461 C   0  0  0  0  0  0  0  0  0  0  0  0
  -25.6408  -11.7467   20.0346 C   0  0  0  0  0  0  0  0  0  0  0  0
  -23.9729  -13.4452   19.6218 C   0  0  0  0  0  0  0  0  0  0  0  0
  -27.4849  -28.6343   19.6606 C   0  0  0  0  0  0  0  0  0  0  0  0
  -23.5161   -8.8013   20.2176 C   0  0  0  0  0  0  0  0  0  0  0  0
  -23.5089   -7.7838   21.1716 C   0  0  0  0  0  0  0  0  0  0  0  0
  -26.0812  -27.0593   20.8302 C   0  0  0  0  0  0  0  0  0  0  0  0
  -23.1815   -9.4222   22.9167 C   0  0  0  0  0  0  0  0  0  0  0  0
  -28.9006  -23.1354   20.4405 C   0  0  0  0  0  0  0  0  0  0  0  0
  -26.2746  -14.0778   19.9940 C   0  0  0  0  0  0  0  0  0  0  0  0
  -28.4406  -15.2436   19.3179 C   0  0  0  0  0  0  0  0  0  0  0  0
  -23.9627  -34.9727   22.8013 C   0  0  0  0  0  0  0  0  0  0  0  0
  -25.1155  -29.0894   19.9324 C   0  0  0  0  0  0  0  0  0  0  0  0
  -24.4657  -33.6583   22.8418 C   0  0  0  0  0  0  0  0  0  0  0  0
  -24.9602  -27.8764   20.6184 C   0  0  0  0  0  0  0  0  0  0  0  0
  -24.3176  -12.1020   19.7729 C   0  0  0  0  0  0  0  0  0  0  0  0
  -27.3367  -27.4374   20.3552 C   0  0  0  0  0  0  0  0  0  0  0  0
  -23.3560  -10.1293   20.6132 C   0  0  0  0  0  0  0  0  0  0  0  0
  -23.3416   -8.0942   22.5212 C   0  0  0  0  0  0  0  0  0  0  0  0
  -23.1886  -10.4397   21.9627 C   0  0  0  0  0  0  0  0  0  0  0  0
  -27.2849  -15.0987   20.1086 C   0  0  0  0  0  0  0  0  0  0  0  0
  -27.7484  -22.4548   20.0036 C   0  0  0  0  0  0  0  0  0  0  0  0
  -29.0551  -24.1616   19.5407 C   0  0  0  0  0  0  0  0  0  0  0  0
  -29.0651  -16.3575   19.8236 C   0  0  0  0  0  0  0  0  0  0  0  0
  -28.9077  -14.4430   18.2241 C   0  0  0  0  0  0  0  0  0  0  0  0
  -23.0608  -30.3442   22.0078 C   0  0  0  0  0  0  0  0  0  0  0  0
  -21.1535  -27.9274   20.9860 C   0  0  0  0  0  0  0  0  0  0  0  0
  -20.9070  -24.8303   19.5740 C   0  0  0  0  0  0  0  0  0  0  0  0
  -26.6260  -20.9474   23.0672 C   0  0  0  0  0  0  0  0  0  0  0  0
  -22.5341  -35.2871   23.1688 C   0  0  0  0  0  0  0  0  0  0  0  0
  -23.9273  -29.9734   19.6695 C   0  0  0  0  0  0  0  0  0  0  0  0
  -23.6215  -27.4279   21.1432 C   0  0  0  0  0  0  0  0  0  0  0  0
  -21.6172  -34.0668   23.1479 C   0  0  0  0  0  0  0  0  0  0  0  0
  -29.5842  -18.8673   23.8567 C   0  0  0  0  0  0  0  0  0  0  0  0
  -22.2734  -32.8935   23.8687 C   0  0  0  0  0  0  0  0  0  0  0  0
  -29.3801  -17.6450   22.9632 C   0  0  0  0  0  0  0  0  0  0  0  0
  -28.2582  -19.5163   24.2416 C   0  0  0  0  0  0  0  0  0  0  0  0
  -27.1963  -18.6478   22.1844 C   0  0  0  0  0  0  0  0  0  0  0  0
  -23.5772  -32.4797   23.1756 C   0  0  1  0  0  0  0  0  0  0  0  0
  -22.7855  -29.7487   20.6560 C   0  0  1  0  0  0  0  0  0  0  0  0
  -28.5154  -17.9977   21.7404 C   0  0  2  0  0  0  0  0  0  0  0  0
  -19.2176  -23.1008   18.9012 C   0  0  0  0  0  0  0  0  0  0  0  0
  -30.9203  -25.2534   18.1237 C   0  0  0  0  0  0  0  0  0  0  0  0
  -31.1372  -25.0964   20.5947 C   0  0  0  0  0  0  0  0  0  0  0  0
  -20.8071  -27.1314   23.9111 C   0  0  0  0  0  0  0  0  0  0  0  0
  -19.9373  -24.9164   23.1329 C   0  0  0  0  0  0  0  0  0  0  0  0
  -18.7173  -27.0106   22.5426 C   0  0  0  0  0  0  0  0  0  0  0  0
  -27.7532  -24.8865   17.5174 C   0  0  0  0  0  0  0  0  0  0  0  0
  -25.5587  -22.7621   21.7837 C   0  0  0  0  0  0  0  0  0  0  0  0
  -21.7127  -24.9817   16.7303 C   0  0  0  0  0  0  0  0  0  0  0  0
  -27.1265  -21.2642   20.6072 C   0  0  0  0  0  0  0  0  0  0  0  0
  -29.4507  -26.6663   19.5856 C   0  0  0  0  0  0  0  0  0  1  0  0
  -20.9192  -26.4978   21.4107 C   0  0  1  0  0  0  0  0  0  0  0  0
  -20.0337  -24.3022   18.4501 C   0  0  2  0  0  0  0  0  0  0  0  0
  -30.1171  -25.2732   19.4464 C   0  0  0  0  0  0  0  0  0  0  0  0
  -20.1210  -26.3982   22.7413 C   0  0  0  0  0  0  0  0  0  0  0  0
  -27.1792  -16.0448   21.0455 N   0  0  0  0  0  0  0  0  0  0  0  0
  -27.2090  -23.0025   18.9113 N   0  0  0  0  0  0  0  0  0  0  0  0
  -28.0259  -24.0382   18.6543 N   0  0  0  0  0  0  0  0  0  0  0  0
  -28.2765  -16.7948   20.8468 N   0  0  0  0  0  0  0  0  0  0  0  0
  -22.4913  -28.3298   20.8663 N   0  0  0  0  0  0  0  0  0  0  0  0
  -27.4380  -19.8014   23.0638 N   0  0  0  0  0  0  0  0  0  0  0  0
  -30.2065  -16.9957   19.4884 N   0  0  0  0  0  0  0  0  0  0  0  0
  -28.4976  -14.7795   16.9268 N   0  0  0  0  0  0  0  0  0  0  0  0
  -23.2936  -31.7061   21.9858 N   0  0  0  0  0  0  0  0  0  0  0  0
  -20.2795  -25.8355   20.2791 N   0  0  0  0  0  0  0  0  0  0  0  0
  -26.3852  -21.5643   21.8302 N   0  0  0  0  0  0  0  0  0  0  0  0
  -20.8745  -23.8906   17.2906 N   0  3  0  0  0  0  0  0  0  0  0  0
  -29.6531  -13.4484   18.3937 O   0  0  0  0  0  0  0  0  0  0  0  0
  -23.0604  -29.6218   22.9976 O   0  0  0  0  0  0  0  0  0  0  0  0
  -20.1853  -28.6581   20.7616 O   0  0  0  0  0  0  0  0  0  0  0  0
  -22.0316  -24.3921   19.8057 O   0  0  0  0  0  0  0  0  0  0  0  0
  -26.1515  -21.3993   24.1173 O   0  0  0  0  0  0  0  0  0  0  0  0
  -23.3625  -11.1384   19.6648 O   0  0  0  0  0  0  0  0  0  0  0  0
  -28.4148  -26.6343   20.5665 O   0  0  0  0  0  0  0  0  0  1  0  0
  -23.3332   -7.1168   23.4370 F   0  0  0  0  0  0  0  0  0  0  0  0
  -23.0332  -11.7136   22.3487 F   0  0  0  0  0  0  0  0  0  0  0  0
  1  2  1  0  0  0  0
  1  5  2  0  0  0  0
  2  6  2  0  0  0  0
  3  8  2  0  0  0  0
  3 16  1  0  0  0  0
  4  9  1  0  0  0  0
  4 16  2  0  0  0  0
  5 18  1  0  0  0  0
  6 20  1  0  0  0  0
  7 10  2  0  0  0  0
  7 19  1  0  0  0  0
  8 22  1  0  0  0  0
  9 22  2  0  0  0  0
 10 23  1  0  0  0  0
 11 12  2  0  0  0  0
 11 24  1  0  0  0  0
 12 25  1  0  0  0  0
 13 21  1  0  0  0  0
 13 23  2  0  0  0  0
 14 25  2  0  0  0  0
 14 26  1  0  0  0  0
 15 28  1  0  0  0  0
 15 29  2  0  0  0  0
 16 27  1  0  0  0  0
 17 27  1  0  0  0  0
 17 30  2  0  0  0  0
 17 31  1  0  0  0  0
 18 20  2  0  0  0  0
 18 36  1  0  0  0  0
 19 21  2  0  0  0  0
 19 37  1  0  0  0  0
 20 45  1  0  0  0  0
 21 38  1  0  0  0  0
 22 80  1  0  0  0  0
 23 81  1  0  0  0  0
 24 26  2  0  0  0  0
 24 80  1  0  0  0  0
 25 82  1  0  0  0  0
 26 83  1  0  0  0  0
 27 63  2  0  0  0  0
 28 57  1  0  0  0  0
 28 64  2  0  0  0  0
 29 61  1  0  0  0  0
 29 65  1  0  0  0  0
 30 66  1  0  0  0  0
 30 69  1  0  0  0  0
 31 70  1  0  0  0  0
 31 75  2  0  0  0  0
 32 46  1  0  0  0  0
 32 71  1  0  0  0  0
 32 76  2  0  0  0  0
 33 59  1  0  0  0  0
 33 67  1  0  0  0  0
 33 77  2  0  0  0  0
 34 60  1  0  0  0  0
 34 72  1  0  0  0  0
 34 78  2  0  0  0  0
 35 68  1  0  0  0  0
 35 73  1  0  0  0  0
 35 79  2  0  0  0  0
 36 39  1  0  0  0  0
 37 46  1  0  0  0  0
 38 67  1  0  0  0  0
 39 41  1  0  0  0  0
 40 42  1  0  0  0  0
 40 43  1  0  0  0  0
 41 45  1  0  0  0  0
 42 47  1  0  0  0  0
 43 68  1  0  0  0  0
 44 47  1  0  0  0  0
 44 68  1  0  0  0  0
 45 71  1  0  0  0  0
 46 67  1  0  0  0  0
 47 66  1  0  0  0  0
 48 60  1  0  0  0  0
 49 61  1  0  0  0  0
 50 61  1  0  0  0  0
 51 62  1  0  0  0  0
 52 62  1  0  0  0  0
 53 62  1  0  0  0  0
 54 65  1  0  0  0  0
 55 73  1  0  0  0  0
 56 74  1  0  0  0  0
 57 73  1  0  0  0  0
 58 61  1  0  0  0  0
 58 81  1  0  0  0  0
 59 62  1  0  0  0  0
 59 72  1  0  0  0  0
 60 74  1  0  0  0  0
 63 66  1  0  0  0  0
 64 65  1  0  0  0  0
M  CHG  1  74   1
M  ISO  4  35 100  58 101  73 100  81 101
M  END
> <Batch ID>
0060

> <Smiles>
CNC(C)C(=O)NC(C(=O)N1Cc2cc([101O:1][101CH2:1]C(C)(C)c3cc(C[100N:0](C)[100C:0](=O)N4CCCC(n5nc(-c6ccc(Oc7ccc(F)cc7F)cc6)c(C(N)=O)c5N)C4)nn3C)ccc2CC1C(=O)NC1CCCc2ccccc21)C(C)(C)C

> <Shape>
0.286

> <Color>
0.078

> <Negative vol penalty>
0.000

$$$$

  -OEChem-04052317553D

 80 88  0     1  0  0  0  0  0999 V2000
  -19.6508  -31.2551   20.6105 C   0  0  0  0  0  0  0  0  0  0  0  0
  -20.9667  -30.8145   20.7081 C   0  0  0  0  0  0  0  0  0  0  0  0
  -26.6949  -12.1811   21.6459 C   0  0  0  0  0  0  0  0  0  0  0  0
  -25.7598  -13.2975   19.7181 C   0  0  0  0  0  0  0  0  0  0  0  0
  -18.6257  -30.5234   21.2087 C   0  0  0  0  0  0  0  0  0  0  0  0
  -21.2586  -29.6425   21.4049 C   0  0  0  0  0  0  0  0  0  0  0  0
  -24.5156  -26.6651   18.9206 C   0  0  0  0  0  0  0  0  0  0  0  0
  -25.5761  -11.3505   21.7076 C   0  0  0  0  0  0  0  0  0  0  0  0
  -24.6409  -12.4668   19.7798 C   0  0  0  0  0  0  0  0  0  0  0  0
  -25.8634  -27.0189   18.9657 C   0  0  0  0  0  0  0  0  0  0  0  0
  -21.3736  -10.8803   19.6470 C   0  0  0  0  0  0  0  0  0  0  0  0
  -20.1185  -11.4713   19.5018 C   0  0  0  0  0  0  0  0  0  0  0  0
  -26.2339  -25.3652   20.6824 C   0  0  0  0  0  0  0  0  0  0  0  0
  -20.5388  -12.8414   21.4469 C   0  0  0  0  0  0  0  0  0  0  0  0
  -29.9999  -24.2732   18.0705 C   0  0  0  0  0  0  0  0  0  0  0  0
  -26.7867  -13.1547   20.6512 C   0  0  0  0  0  0  0  0  0  0  0  0
  -29.1342  -13.7829   19.8751 C   0  0  0  0  0  0  0  0  0  0  0  0
  -18.9040  -29.3367   21.9050 C   0  0  0  0  0  0  0  0  0  0  0  0
  -24.0138  -25.6645   19.7652 C   0  0  0  0  0  0  0  0  0  0  0  0
  -20.2364  -28.8950   22.0141 C   0  0  0  0  0  0  0  0  0  0  0  0
  -24.8799  -24.9987   20.6443 C   0  0  0  0  0  0  0  0  0  0  0  0
  -24.5491  -11.4932   20.7746 C   0  0  0  0  0  0  0  0  0  0  0  0
  -26.7222  -26.3710   19.8487 C   0  0  0  0  0  0  0  0  0  0  0  0
  -22.2113  -11.2698   20.6921 C   0  0  0  0  0  0  0  0  0  0  0  0
  -19.7011  -12.4519   20.4018 C   0  0  0  0  0  0  0  0  0  0  0  0
  -21.7939  -12.2504   21.5921 C   0  0  0  0  0  0  0  0  0  0  0  0
  -27.9419  -14.0135   20.5872 C   0  0  0  0  0  0  0  0  0  0  0  0
  -29.9093  -14.8862   20.1369 C   0  0  0  0  0  0  0  0  0  0  0  0
  -31.0388  -23.4002   19.6566 C   0  0  0  0  0  0  0  0  0  0  0  0
  -29.5076  -12.6710   19.0506 C   0  0  0  0  0  0  0  0  0  0  0  0
  -21.8412  -25.5674   22.0835 C   0  0  0  0  0  0  0  0  0  0  0  0
  -22.4269  -22.3790   21.9664 C   0  0  0  0  0  0  0  0  0  0  0  0
  -24.5764  -19.8561   21.1532 C   0  0  0  0  0  0  0  0  0  0  0  0
  -30.4805  -20.3148   20.5241 C   0  0  0  0  0  0  0  0  0  0  0  0
  -17.7683  -28.6049   22.5753 C   0  0  0  0  0  0  0  0  0  0  0  0
  -22.5629  -25.2760   19.6855 C   0  0  0  0  0  0  0  0  0  0  0  0
  -24.3950  -23.9037   21.5576 C   0  0  0  0  0  0  0  0  0  0  0  0
  -18.1181  -27.1743   22.9767 C   0  0  0  0  0  0  0  0  0  0  0  0
  -29.2988  -18.6198   23.4953 C   0  0  0  0  0  0  0  0  0  0  0  0
  -19.4740  -27.1319   23.6742 C   0  0  0  0  0  0  0  0  0  0  0  0
  -28.9377  -17.2424   22.9363 C   0  0  0  0  0  0  0  0  0  0  0  0
  -28.9541  -19.7267   22.5032 C   0  0  0  0  0  0  0  0  0  0  0  0
  -29.2129  -18.1864   20.5968 C   0  0  0  0  0  0  0  0  0  0  0  0
  -20.5901  -27.6153   22.7404 C   0  0  1  0  0  0  0  0  0  0  0  0
  -22.0550  -24.5989   20.9548 C   0  0  1  0  0  0  0  0  0  0  0  0
  -29.5580  -17.0226   21.5437 C   0  0  2  0  0  0  0  0  0  0  0  0
  -24.7911  -17.3565   21.2086 C   0  0  0  0  0  0  0  0  0  0  0  0
  -30.7844  -27.3774   17.3948 C   0  0  0  0  0  0  0  0  0  0  0  0
  -22.9625  -22.4940   24.9680 C   0  0  0  0  0  0  0  0  0  0  0  0
  -24.0683  -20.2552   24.7859 C   0  0  0  0  0  0  0  0  0  0  0  0
  -21.6517  -20.5006   24.2178 C   0  0  0  0  0  0  0  0  0  0  0  0
  -24.8331  -19.6968   18.2092 C   0  0  0  0  0  0  0  0  0  0  0  0
  -31.6856  -22.4829   20.5907 C   0  0  0  0  0  0  0  0  0  0  0  0
  -28.6264  -27.1968   18.6878 C   0  0  0  0  0  0  0  0  0  1  0  0
  -23.3957  -21.4442   22.6493 C   0  0  1  0  0  0  0  0  0  0  0  0
  -24.3678  -18.5632   20.3856 C   0  0  2  0  0  0  0  0  0  0  0  0
  -30.1177  -26.8349   18.6620 C   0  0  1  0  0  0  0  0  0  0  0  0
  -23.0286  -21.1954   24.1396 C   0  0  0  0  0  0  0  0  0  0  0  0
  -30.4053  -23.0635   18.5571 N   0  0  0  0  0  0  0  0  0  0  0  0
  -27.9540  -15.1721   21.2517 N   0  0  0  0  0  0  0  0  0  0  0  0
  -31.0060  -24.7514   19.8081 N   0  0  0  0  0  0  0  0  0  0  0  0
  -30.3427  -25.3373   18.7997 N   0  0  0  0  0  0  0  0  0  0  0  0
  -29.1634  -15.6794   20.9582 N   0  0  0  0  0  0  0  0  0  0  0  0
  -22.9668  -23.5641   21.4469 N   0  0  0  0  0  0  0  0  0  0  0  0
  -29.5903  -19.4671   21.2040 N   0  0  0  0  0  0  0  0  0  0  0  0
  -31.1494  -15.2454   19.7425 N   0  0  0  0  0  0  0  0  0  0  0  0
  -28.5921  -11.6223   18.8884 N   0  0  0  0  0  0  0  0  0  0  0  0
  -20.9434  -26.5776   21.7956 N   0  0  0  0  0  0  0  0  0  0  0  0
  -23.4391  -20.2347   21.8347 N   0  0  0  0  0  0  0  0  0  0  0  0
  -30.7808  -21.5113   21.1637 N   0  0  0  0  0  0  0  0  0  0  0  0
  -25.1631  -18.5749   19.1253 N   0  3  0  0  0  0  0  0  0  0  0  0
  -30.6267  -12.6015   18.4880 O   0  0  0  0  0  0  0  0  0  0  0  0
  -22.4449  -25.4089   23.1381 O   0  0  0  0  0  0  0  0  0  0  0  0
  -21.2362  -22.0658   21.8901 O   0  0  0  0  0  0  0  0  0  0  0  0
  -25.6429  -20.4670   21.1517 O   0  0  0  0  0  0  0  0  0  0  0  0
  -30.9758  -20.0246   19.4298 O   0  0  0  0  0  0  0  0  0  0  0  0
  -23.4574  -10.6827   20.8344 O   0  0  0  0  0  0  0  0  0  0  0  0
  -28.0381  -26.7148   19.8952 O   0  0  0  0  0  0  0  0  0  1  0  0
  -18.4964  -13.0204   20.2614 F   0  0  0  0  0  0  0  0  0  0  0  0
  -22.5947  -12.6295   22.5974 F   0  0  0  0  0  0  0  0  0  0  0  0
  1  2  1  0  0  0  0
  1  5  2  0  0  0  0
  2  6  2  0  0  0  0
  3  8  2  0  0  0  0
  3 16  1  0  0  0  0
  4  9  1  0  0  0  0
  4 16  2  0  0  0  0
  5 18  1  0  0  0  0
  6 20  1  0  0  0  0
  7 10  2  0  0  0  0
  7 19  1  0  0  0  0
  8 22  1  0  0  0  0
  9 22  2  0  0  0  0
 10 23  1  0  0  0  0
 11 12  2  0  0  0  0
 11 24  1  0  0  0  0
 12 25  1  0  0  0  0
 13 21  1  0  0  0  0
 13 23  2  0  0  0  0
 14 25  2  0  0  0  0
 14 26  1  0  0  0  0
 15 59  2  0  0  0  0
 15 62  1  0  0  0  0
 16 27  1  0  0  0  0
 17 27  1  0  0  0  0
 17 28  2  0  0  0  0
 17 30  1  0  0  0  0
 18 20  2  0  0  0  0
 18 35  1  0  0  0  0
 19 21  2  0  0  0  0
 19 36  1  0  0  0  0
 20 44  1  0  0  0  0
 21 37  1  0  0  0  0
 22 77  1  0  0  0  0
 23 78  1  0  0  0  0
 24 26  2  0  0  0  0
 24 77  1  0  0  0  0
 25 79  1  0  0  0  0
 26 80  1  0  0  0  0
 27 60  2  0  0  0  0
 28 63  1  0  0  0  0
 28 66  1  0  0  0  0
 29 53  1  0  0  0  0
 29 59  1  0  0  0  0
 29 61  2  0  0  0  0
 30 67  1  0  0  0  0
 30 72  2  0  0  0  0
 31 45  1  0  0  0  0
 31 68  1  0  0  0  0
 31 73  2  0  0  0  0
 32 55  1  0  0  0  0
 32 64  1  0  0  0  0
 32 74  2  0  0  0  0
 33 56  1  0  0  0  0
 33 69  1  0  0  0  0
 33 75  2  0  0  0  0
 34 65  1  0  0  0  0
 34 70  1  0  0  0  0
 34 76  2  0  0  0  0
 35 38  1  0  0  0  0
 36 45  1  0  0  0  0
 37 64  1  0  0  0  0
 38 40  1  0  0  0  0
 39 41  1  0  0  0  0
 39 42  1  0  0  0  0
 40 44  1  0  0  0  0
 41 46  1  0  0  0  0
 42 65  1  0  0  0  0
 43 46  1  0  0  0  0
 43 65  1  0  0  0  0
 44 68  1  0  0  0  0
 45 64  1  0  0  0  0
 46 63  1  0  0  0  0
 47 56  1  0  0  0  0
 48 57  1  0  0  0  0
 49 58  1  0  0  0  0
 50 58  1  0  0  0  0
 51 58  1  0  0  0  0
 52 71  1  0  0  0  0
 53 70  1  0  0  0  0
 54 57  1  0  0  0  0
 54 78  1  0  0  0  0
 55 58  1  0  0  0  0
 55 69  1  0  0  0  0
 56 71  1  0  0  0  0
 57 62  1  0  0  0  0
 60 63  1  0  0  0  0
 61 62  1  0  0  0  0
M  CHG  1  71   1
M  ISO  4  34 100  54 101  70 100  78 101
M  END
> <Batch ID>
0060

> <Smiles>
CNC(C)C(=O)NC(C(=O)N1Cc2cc([101O:1][101CH2:1]C(C)n3cnc(C[100NH:0][100C:0](=O)N4CCCC(n5nc(-c6ccc(Oc7ccc(F)cc7F)cc6)c(C(N)=O)c5N)C4)n3)ccc2CC1C(=O)NC1CCCc2ccccc21)C(C)(C)C

> <Shape>
0.239

> <Color>
0.069

> <Negative vol penalty>
0.000

$$$$

  -OEChem-04052317553D

 87 95  0     1  0  0  0  0  0999 V2000
  -34.7239  -16.2715   20.5802 C   0  0  0  0  0  0  0  0  0  0  0  0
  -34.0893  -16.7964   21.7014 C   0  0  0  0  0  0  0  0  0  0  0  0
  -25.0965  -30.9931   21.2141 C   0  0  0  0  0  0  0  0  0  0  0  0
  -24.5362  -29.2110   22.7462 C   0  0  0  0  0  0  0  0  0  0  0  0
  -34.0542  -16.2279   19.3581 C   0  0  0  0  0  0  0  0  0  0  0  0
  -32.7849  -17.2792   21.6009 C   0  0  0  0  0  0  0  0  0  0  0  0
  -26.7463  -17.8824   25.4071 C   0  0  0  0  0  0  0  0  0  0  0  0
  -24.3708  -31.8926   21.9949 C   0  0  0  0  0  0  0  0  0  0  0  0
  -23.8105  -30.1106   23.5271 C   0  0  0  0  0  0  0  0  0  0  0  0
  -25.8098  -18.8389   25.7968 C   0  0  0  0  0  0  0  0  0  0  0  0
  -24.8138  -33.6172   24.8694 C   0  0  0  0  0  0  0  0  0  0  0  0
  -25.3977  -34.8533   25.1460 C   0  0  0  0  0  0  0  0  0  0  0  0
  -24.7232  -18.6399   23.6523 C   0  0  0  0  0  0  0  0  0  0  0  0
  -23.5515  -35.9690   24.0579 C   0  0  0  0  0  0  0  0  0  0  0  0
  -25.1792  -29.6522   21.5897 C   0  0  0  0  0  0  0  0  0  0  0  0
  -27.2926  -28.3982   20.9054 C   0  0  0  0  0  0  0  0  0  0  0  0
  -32.7376  -16.7015   19.2447 C   0  0  0  0  0  0  0  0  0  0  0  0
  -26.6847  -17.3045   24.1309 C   0  0  0  0  0  0  0  0  0  0  0  0
  -32.0975  -17.2431   20.3757 C   0  0  0  0  0  0  0  0  0  0  0  0
  -25.6586  -17.6745   23.2497 C   0  0  0  0  0  0  0  0  0  0  0  0
  -23.7278  -31.4514   23.1514 C   0  0  0  0  0  0  0  0  0  0  0  0
  -24.7997  -19.2199   24.9183 C   0  0  0  0  0  0  0  0  0  0  0  0
  -23.5987  -33.5569   24.1870 C   0  0  0  0  0  0  0  0  0  0  0  0
  -24.7666  -36.0292   24.7403 C   0  0  0  0  0  0  0  0  0  0  0  0
  -22.9675  -34.7328   23.7813 C   0  0  0  0  0  0  0  0  0  0  0  0
  -25.9282  -28.7224   20.7831 C   0  0  0  0  0  0  0  0  0  0  0  0
  -26.7922  -22.8509   20.0489 C   0  0  0  0  0  0  0  0  0  0  0  0
  -27.9656  -22.9734   20.8062 C   0  0  0  0  0  0  0  0  0  0  0  0
  -27.5162  -27.4743   19.9139 C   0  0  0  0  0  0  0  0  0  0  0  0
  -28.2705  -28.8882   21.8323 C   0  0  0  0  0  0  0  0  0  0  0  0
  -28.6131  -17.2337   21.6051 C   0  0  0  0  0  0  0  0  0  0  0  0
  -26.3921  -15.1675   20.4560 C   0  0  0  0  0  0  0  0  0  0  0  0
  -23.1710  -14.0422   20.5265 C   0  0  0  0  0  0  0  0  0  0  0  0
  -24.3922  -23.0827   17.4568 C   0  0  0  0  0  0  0  0  0  0  0  0
  -32.0714  -16.6770   17.8918 C   0  0  0  0  0  0  0  0  0  0  0  0
  -27.6866  -16.2546   23.7356 C   0  0  0  0  0  0  0  0  0  0  0  0
  -25.5364  -17.0692   21.8760 C   0  0  0  0  0  0  0  0  0  0  0  0
  -30.5577  -16.8648   17.9549 C   0  0  0  0  0  0  0  0  0  0  0  0
  -25.2472  -26.2324   15.7104 C   0  0  0  0  0  0  0  0  0  0  0  0
  -30.2018  -18.0251   18.8789 C   0  0  0  0  0  0  0  0  0  0  0  0
  -25.5653  -27.1787   16.8668 C   0  0  0  0  0  0  0  0  0  0  0  0
  -24.2505  -25.1521   16.1193 C   0  0  0  0  0  0  0  0  0  0  0  0
  -24.9817  -25.3205   18.4753 C   0  0  0  0  0  0  0  0  0  0  0  0
  -30.6744  -17.7538   20.3123 C   0  0  1  0  0  0  0  0  0  0  0  0
  -27.8337  -16.1081   22.2242 C   0  0  1  0  0  0  0  0  0  0  0  0
  -26.0187  -26.3931   18.1097 C   0  0  2  0  0  0  0  0  0  0  0  0
  -21.6449  -12.3686   19.4460 C   0  0  0  0  0  0  0  0  0  0  0  0
  -26.2098  -16.9375   17.9773 C   0  0  0  0  0  0  0  0  0  0  0  0
  -24.0608  -15.7896   17.4010 C   0  0  0  0  0  0  0  0  0  0  0  0
  -26.1818  -14.4810   17.5093 C   0  0  0  0  0  0  0  0  0  0  0  0
  -24.9532  -22.0991   26.2109 C   0  0  0  0  0  0  0  0  0  0  0  0
  -22.8750  -22.2700   24.8175 C   0  0  0  0  0  0  0  0  0  0  0  0
  -25.0421  -20.8765   18.3456 C   0  0  0  0  0  0  0  0  0  0  0  0
  -22.6685  -12.6666   23.0983 C   0  0  0  0  0  0  0  0  0  0  0  0
  -26.6289  -22.7492   18.5921 C   0  0  0  0  0  0  0  0  0  0  0  0
  -25.0207  -21.5706   23.7136 C   0  0  0  0  0  0  0  0  0  0  0  0
  -25.5025  -22.9754   23.3247 C   0  0  0  0  0  0  0  0  0  0  0  0
  -25.1212  -15.3021   19.6525 C   0  0  1  0  0  0  0  0  0  0  0  0
  -22.5954  -12.6395   20.6018 C   0  0  2  0  0  0  0  0  0  0  0  0
  -29.3638  -23.0342   20.3569 C   0  0  0  0  0  0  0  0  0  0  0  0
  -25.3966  -15.6406   18.1601 C   0  0  0  0  0  0  0  0  0  0  0  0
  -24.1953  -21.5180   25.0153 C   0  0  0  0  0  0  0  0  0  1  0  0
  -25.3273  -28.0586   19.7921 N   0  0  0  0  0  0  0  0  0  0  0  0
  -25.7300  -22.8334   20.8589 N   0  0  0  0  0  0  0  0  0  0  0  0
  -27.6616  -23.0365   22.1055 N   0  0  0  0  0  0  0  0  0  0  0  0
  -26.3188  -27.3081   19.2825 N   0  0  0  0  0  0  0  0  0  0  0  0
  -26.3227  -22.9473   22.0584 N   0  0  0  0  0  0  0  0  0  0  0  0
  -26.5437  -16.0515   21.5336 N   0  0  0  0  0  0  0  0  0  0  0  0
  -24.6848  -24.4503   17.3276 N   0  0  0  0  0  0  0  0  0  0  0  0
  -28.6183  -26.7962   19.5293 N   0  0  0  0  0  0  0  0  0  0  0  0
  -27.8718  -29.8346   22.7861 N   0  0  0  0  0  0  0  0  0  0  0  0
  -29.7758  -16.8330   20.9750 N   0  0  0  0  0  0  0  0  0  0  0  0
  -24.3761  -14.0645   19.8568 N   0  0  0  0  0  0  0  0  0  0  0  0
  -25.2961  -22.3021   18.1933 N   0  0  0  0  0  0  0  0  0  0  0  0
  -21.8485  -12.4539   21.8779 N   0  3  0  0  0  0  0  0  0  0  0  0
  -29.4665  -28.5107   21.8048 O   0  0  0  0  0  0  0  0  0  0  0  0
  -28.1900  -18.3806   21.6912 O   0  0  0  0  0  0  0  0  0  0  0  0
  -27.2166  -14.3049   20.1435 O   0  0  0  0  0  0  0  0  0  0  0  0
  -22.6061  -15.0208   21.0099 O   0  0  0  0  0  0  0  0  0  0  0  0
  -23.3859  -22.5857   16.9351 O   0  0  0  0  0  0  0  0  0  0  0  0
  -23.0198  -32.3289   23.9138 O   0  0  0  0  0  0  0  0  0  0  0  0
  -23.8847  -20.1538   25.2959 O   0  0  0  0  0  0  0  0  0  1  0  0
  -25.3267  -37.2163   25.0074 F   0  0  0  0  0  0  0  0  0  0  0  0
  -21.7995  -34.6813   23.1264 F   0  0  0  0  0  0  0  0  0  0  0  0
  -29.5274  -22.9588   18.9940 F   0  0  0  0  0  0  0  0  0  0  0  0
  -30.0251  -24.1860   20.7116 F   0  0  0  0  0  0  0  0  0  0  0  0
  -30.1430  -22.0194   20.8560 F   0  0  0  0  0  0  0  0  0  0  0  0
  1  2  1  0  0  0  0
  1  5  2  0  0  0  0
  2  6  2  0  0  0  0
  3  8  2  0  0  0  0
  3 15  1  0  0  0  0
  4  9  1  0  0  0  0
  4 15  2  0  0  0  0
  5 17  1  0  0  0  0
  6 19  1  0  0  0  0
  7 10  2  0  0  0  0
  7 18  1  0  0  0  0
  8 21  1  0  0  0  0
  9 21  2  0  0  0  0
 10 22  1  0  0  0  0
 11 12  2  0  0  0  0
 11 23  1  0  0  0  0
 12 24  1  0  0  0  0
 13 20  1  0  0  0  0
 13 22  2  0  0  0  0
 14 24  2  0  0  0  0
 14 25  1  0  0  0  0
 15 26  1  0  0  0  0
 16 26  1  0  0  0  0
 16 29  2  0  0  0  0
 16 30  1  0  0  0  0
 17 19  2  0  0  0  0
 17 35  1  0  0  0  0
 18 20  2  0  0  0  0
 18 36  1  0  0  0  0
 19 44  1  0  0  0  0
 20 37  1  0  0  0  0
 21 81  1  0  0  0  0
 22 82  1  0  0  0  0
 23 25  2  0  0  0  0
 23 81  1  0  0  0  0
 24 83  1  0  0  0  0
 25 84  1  0  0  0  0
 26 63  2  0  0  0  0
 27 28  1  0  0  0  0
 27 55  1  0  0  0  0
 27 64  2  0  0  0  0
 28 60  1  0  0  0  0
 28 65  2  0  0  0  0
 29 66  1  0  0  0  0
 29 70  1  0  0  0  0
 30 71  1  0  0  0  0
 30 76  2  0  0  0  0
 31 45  1  0  0  0  0
 31 72  1  0  0  0  0
 31 77  2  0  0  0  0
 32 58  1  0  0  0  0
 32 68  1  0  0  0  0
 32 78  2  0  0  0  0
 33 59  1  0  0  0  0
 33 73  1  0  0  0  0
 33 79  2  0  0  0  0
 34 69  1  0  0  0  0
 34 74  1  0  0  0  0
 34 80  2  0  0  0  0
 35 38  1  0  0  0  0
 36 45  1  0  0  0  0
 37 68  1  0  0  0  0
 38 40  1  0  0  0  0
 39 41  1  0  0  0  0
 39 42  1  0  0  0  0
 40 44  1  0  0  0  0
 41 46  1  0  0  0  0
 42 69  1  0  0  0  0
 43 46  1  0  0  0  0
 43 69  1  0  0  0  0
 44 72  1  0  0  0  0
 45 68  1  0  0  0  0
 46 66  1  0  0  0  0
 47 59  1  0  0  0  0
 48 61  1  0  0  0  0
 49 61  1  0  0  0  0
 50 61  1  0  0  0  0
 51 62  1  0  0  0  0
 52 62  1  0  0  0  0
 53 74  1  0  0  0  0
 54 75  1  0  0  0  0
 55 74  1  0  0  0  0
 56 57  1  0  0  0  0
 56 62  1  0  0  0  0
 57 67  1  0  0  0  0
 58 61  1  0  0  0  0
 58 73  1  0  0  0  0
 59 75  1  0  0  0  0
 60 85  1  0  0  0  0
 60 86  1  0  0  0  0
 60 87  1  0  0  0  0
 62 82  1  0  0  0  0
 63 66  1  0  0  0  0
 64 67  1  0  0  0  0
 65 67  1  0  0  0  0
M  CHG  1  75   1
M  ISO  4  34 100  62 101  74 100  82 101
M  END
> <Batch ID>
0060

> <Smiles>
CNC(C)C(=O)NC(C(=O)N1Cc2cc([101O:1][101C:1](C)(C)CCn3nc(C[100N:0](C)[100C:0](=O)N4CCCC(n5nc(-c6ccc(Oc7ccc(F)cc7F)cc6)c(C(N)=O)c5N)C4)c(C(F)(F)F)n3)ccc2CC1C(=O)NC1CCCc2ccccc21)C(C)(C)C

> <Shape>
0.205

> <Color>
0.077

> <Negative vol penalty>
0.000

$$$$

  -OEChem-04052317553D

 83 91  0     1  0  0  0  0  0999 V2000
  -22.0640  -12.3535   19.2523 C   0  0  0  0  0  0  0  0  0  0  0  0
  -21.9183  -13.7283   19.4078 C   0  0  0  0  0  0  0  0  0  0  0  0
  -29.1645  -27.4485   21.2558 C   0  0  0  0  0  0  0  0  0  0  0  0
  -28.0307  -25.3344   20.9693 C   0  0  0  0  0  0  0  0  0  0  0  0
  -23.2248  -11.7221   19.6971 C   0  0  0  0  0  0  0  0  0  0  0  0
  -22.9328  -14.4723   20.0090 C   0  0  0  0  0  0  0  0  0  0  0  0
  -23.9430  -18.7578   17.5072 C   0  0  0  0  0  0  0  0  0  0  0  0
  -30.3031  -26.7775   21.7017 C   0  0  0  0  0  0  0  0  0  0  0  0
  -29.1693  -24.6634   21.4152 C   0  0  0  0  0  0  0  0  0  0  0  0
  -23.0631  -19.8239   17.6893 C   0  0  0  0  0  0  0  0  0  0  0  0
  -33.3865  -25.6388   23.2572 C   0  0  0  0  0  0  0  0  0  0  0  0
  -34.0334  -26.1368   24.3881 C   0  0  0  0  0  0  0  0  0  0  0  0
  -24.5998  -20.8154   19.2624 C   0  0  0  0  0  0  0  0  0  0  0  0
  -32.0216  -25.8062   25.6844 C   0  0  0  0  0  0  0  0  0  0  0  0
  -21.4958  -24.9301   18.8664 C   0  0  0  0  0  0  0  0  0  0  0  0
  -28.0282  -26.7270   20.8897 C   0  0  0  0  0  0  0  0  0  0  0  0
  -26.5349  -27.7690   19.1031 C   0  0  0  0  0  0  0  0  0  0  0  0
  -24.2582  -12.4601   20.2954 C   0  0  0  0  0  0  0  0  0  0  0  0
  -25.1549  -18.7070   18.2107 C   0  0  0  0  0  0  0  0  0  0  0  0
  -24.1080  -13.8499   20.4634 C   0  0  0  0  0  0  0  0  0  0  0  0
  -25.4944  -19.7489   19.0855 C   0  0  0  0  0  0  0  0  0  0  0  0
  -30.3055  -25.3849   21.7814 C   0  0  0  0  0  0  0  0  0  0  0  0
  -23.3902  -20.8515   18.5692 C   0  0  0  0  0  0  0  0  0  0  0  0
  -32.0571  -25.2246   23.3397 C   0  0  0  0  0  0  0  0  0  0  0  0
  -33.3510  -26.2205   25.6018 C   0  0  0  0  0  0  0  0  0  0  0  0
  -31.3747  -25.3083   24.5534 C   0  0  0  0  0  0  0  0  0  0  0  0
  -26.8515  -27.4197   20.4295 C   0  0  0  0  0  0  0  0  0  0  0  0
  -21.8495  -23.9474   19.7474 C   0  0  0  0  0  0  0  0  0  0  0  0
  -25.3217  -28.4061   19.1960 C   0  0  0  0  0  0  0  0  0  0  0  0
  -20.1421  -25.0591   20.6133 C   0  0  0  0  0  0  0  0  0  0  0  0
  -27.2716  -27.5382   17.8949 C   0  0  0  0  0  0  0  0  0  0  0  0
  -26.4336  -16.7184   20.3354 C   0  0  0  0  0  0  0  0  0  0  0  0
  -29.0404  -18.6116   19.9577 C   0  0  0  0  0  0  0  0  0  0  0  0
  -30.3076  -21.6543   19.0730 C   0  0  0  0  0  0  0  0  0  0  0  0
  -20.8708  -28.1373   23.1920 C   0  0  0  0  0  0  0  0  0  0  0  0
  -25.4743  -11.7266   20.8031 C   0  0  0  0  0  0  0  0  0  0  0  0
  -26.1052  -17.5635   17.9830 C   0  0  0  0  0  0  0  0  0  0  0  0
  -26.7924  -19.7518   19.8495 C   0  0  0  0  0  0  0  0  0  0  0  0
  -26.6617  -12.6417   21.0908 C   0  0  0  0  0  0  0  0  0  0  0  0
  -22.6933  -31.0337   22.2091 C   0  0  0  0  0  0  0  0  0  0  0  0
  -26.2128  -13.8656   21.8829 C   0  0  0  0  0  0  0  0  0  0  0  0
  -23.9371  -30.4674   21.5219 C   0  0  0  0  0  0  0  0  0  0  0  0
  -22.2646  -30.1749   23.3969 C   0  0  0  0  0  0  0  0  0  0  0  0
  -23.3143  -28.1792   22.4024 C   0  0  0  0  0  0  0  0  0  0  0  0
  -25.1968  -14.6949   21.0883 C   0  0  1  0  0  0  0  0  0  0  0  0
  -27.0795  -17.3571   19.1386 C   0  0  1  0  0  0  0  0  0  0  0  0
  -23.7522  -28.9804   21.1643 C   0  0  2  0  0  0  0  0  0  0  0  0
  -20.3842  -21.8433   21.7326 C   0  0  0  0  0  0  0  0  0  0  0  0
  -32.4718  -22.9133   18.9042 C   0  0  0  0  0  0  0  0  0  0  0  0
  -17.9577  -24.4379   21.8539 C   0  0  0  0  0  0  0  0  0  0  0  0
  -18.2654  -26.7023   20.8875 C   0  0  0  0  0  0  0  0  0  0  0  0
  -29.0707  -18.9610   22.9886 C   0  0  0  0  0  0  0  0  0  0  0  0
  -30.5970  -20.9211   22.6775 C   0  0  0  0  0  0  0  0  0  0  0  0
  -31.3250  -18.6481   21.9520 C   0  0  0  0  0  0  0  0  0  0  0  0
  -29.9907  -22.0384   16.1557 C   0  0  0  0  0  0  0  0  0  0  0  0
  -22.9316  -22.9113   19.6660 C   0  0  0  0  0  0  0  0  0  1  0  0
  -21.0103  -23.2021   21.9959 C   0  0  0  0  0  0  0  0  0  0  0  0
  -19.5985  -26.0256   22.9072 C   0  0  0  0  0  0  0  0  0  0  0  0
  -29.5551  -19.8667   20.6199 C   0  0  1  0  0  0  0  0  0  0  0  0
  -31.4663  -22.0393   18.1709 C   0  0  2  0  0  0  0  0  0  0  0  0
  -19.0586  -25.5096   21.5217 C   0  0  0  0  0  0  0  0  0  0  0  0
  -30.1116  -19.5985   22.0467 C   0  0  0  0  0  0  0  0  0  0  0  0
  -25.9151  -27.8032   21.3013 N   0  0  0  0  0  0  0  0  0  0  0  0
  -20.9957  -24.0508   20.8191 N   0  0  0  0  0  0  0  0  0  0  0  0
  -24.9981  -28.4002   20.5210 N   0  0  0  0  0  0  0  0  0  0  0  0
  -20.4368  -25.6020   19.4276 N   0  3  0  0  0  0  0  0  0  0  0  0
  -27.6854  -18.6087   19.5975 N   0  0  0  0  0  0  0  0  0  0  0  0
  -22.1051  -28.7766   22.9902 N   0  0  0  0  0  0  0  0  0  0  0  0
  -24.5108  -28.9653   18.2729 N   0  0  0  0  0  0  0  0  0  0  0  0
  -28.5001  -26.8688   17.9789 N   0  0  0  0  0  0  0  0  0  0  0  0
  -25.8684  -15.4840   20.0780 N   0  0  0  0  0  0  0  0  0  0  0  0
  -30.5271  -20.4452   19.6985 N   0  0  0  0  0  0  0  0  0  0  0  0
  -20.8028  -26.8144   22.7725 N   0  0  0  0  0  0  0  0  0  0  0  0
  -30.9704  -22.7892   16.9824 N   0  3  0  0  0  0  0  0  0  0  0  0
  -26.8606  -27.9289   16.7760 O   0  0  0  0  0  0  0  0  0  0  0  0
  -26.4482  -17.3016   21.4131 O   0  0  0  0  0  0  0  0  0  0  0  0
  -29.8138  -17.6710   19.7605 O   0  0  0  0  0  0  0  0  0  0  0  0
  -29.3094  -22.3578   19.2121 O   0  0  0  0  0  0  0  0  0  0  0  0
  -19.8995  -28.7051   23.7030 O   0  0  0  0  0  0  0  0  0  0  0  0
  -31.4165  -24.7298   22.2162 O   0  0  0  0  0  0  0  0  0  0  0  0
  -22.5329  -21.8929   18.7493 O   0  0  0  0  0  0  0  0  0  1  0  0
  -33.9728  -26.6972   26.6882 F   0  0  0  0  0  0  0  0  0  0  0  0
  -30.0978  -24.9108   24.6392 F   0  0  0  0  0  0  0  0  0  0  0  0
  1  2  1  0  0  0  0
  1  5  2  0  0  0  0
  2  6  2  0  0  0  0
  3  8  2  0  0  0  0
  3 16  1  0  0  0  0
  4  9  1  0  0  0  0
  4 16  2  0  0  0  0
  5 18  1  0  0  0  0
  6 20  1  0  0  0  0
  7 10  2  0  0  0  0
  7 19  1  0  0  0  0
  8 22  1  0  0  0  0
  9 22  2  0  0  0  0
 10 23  1  0  0  0  0
 11 12  2  0  0  0  0
 11 24  1  0  0  0  0
 12 25  1  0  0  0  0
 13 21  1  0  0  0  0
 13 23  2  0  0  0  0
 14 25  2  0  0  0  0
 14 26  1  0  0  0  0
 15 28  2  0  0  0  0
 15 66  1  0  0  0  0
 16 27  1  0  0  0  0
 17 27  1  0  0  0  0
 17 29  2  0  0  0  0
 17 31  1  0  0  0  0
 18 20  2  0  0  0  0
 18 36  1  0  0  0  0
 19 21  2  0  0  0  0
 19 37  1  0  0  0  0
 20 45  1  0  0  0  0
 21 38  1  0  0  0  0
 22 80  1  0  0  0  0
 23 81  1  0  0  0  0
 24 26  2  0  0  0  0
 24 80  1  0  0  0  0
 25 82  1  0  0  0  0
 26 83  1  0  0  0  0
 27 63  2  0  0  0  0
 28 56  1  0  0  0  0
 28 64  1  0  0  0  0
 29 65  1  0  0  0  0
 29 69  1  0  0  0  0
 30 61  1  0  0  0  0
 30 64  1  0  0  0  0
 30 66  2  0  0  0  0
 31 70  1  0  0  0  0
 31 75  2  0  0  0  0
 32 46  1  0  0  0  0
 32 71  1  0  0  0  0
 32 76  2  0  0  0  0
 33 59  1  0  0  0  0
 33 67  1  0  0  0  0
 33 77  2  0  0  0  0
 34 60  1  0  0  0  0
 34 72  1  0  0  0  0
 34 78  2  0  0  0  0
 35 68  1  0  0  0  0
 35 73  1  0  0  0  0
 35 79  2  0  0  0  0
 36 39  1  0  0  0  0
 37 46  1  0  0  0  0
 38 67  1  0  0  0  0
 39 41  1  0  0  0  0
 40 42  1  0  0  0  0
 40 43  1  0  0  0  0
 41 45  1  0  0  0  0
 42 47  1  0  0  0  0
 43 68  1  0  0  0  0
 44 47  1  0  0  0  0
 44 68  1  0  0  0  0
 45 71  1  0  0  0  0
 46 67  1  0  0  0  0
 47 65  1  0  0  0  0
 48 57  1  0  0  0  0
 49 60  1  0  0  0  0
 50 61  1  0  0  0  0
 51 61  1  0  0  0  0
 52 62  1  0  0  0  0
 53 62  1  0  0  0  0
 54 62  1  0  0  0  0
 55 74  1  0  0  0  0
 56 81  1  0  0  0  0
 57 64  1  0  0  0  0
 58 61  1  0  0  0  0
 58 73  1  0  0  0  0
 59 62  1  0  0  0  0
 59 72  1  0  0  0  0
 60 74  1  0  0  0  0
 63 65  1  0  0  0  0
M  CHG  2  66   1  74   1
M  ISO  4  35 100  56 101  73 100  81 101
M  END
> <Batch ID>
0060

> <Smiles>
CCn1c([101CH2:1][101O:1]c2ccc3c(c2)CN(C(=O)C(NC(=O)C(C)NC)C(C)(C)C)C(C(=O)NC2CCCc4ccccc42)C3)cnc1C(C)(C)C[100NH:0][100C:0](=O)N1CCCC(n2nc(-c3ccc(Oc4ccc(F)cc4F)cc3)c(C(N)=O)c2N)C1

> <Shape>
0.214

> <Color>
0.066

> <Negative vol penalty>
0.000

$$$$

  -OEChem-04052317553D

 84 92  0     1  0  0  0  0  0999 V2000
  -26.4564  -26.6269   12.8577 C   0  0  0  0  0  0  0  0  0  0  0  0
  -25.7499  -26.2631   13.9996 C   0  0  0  0  0  0  0  0  0  0  0  0
  -29.2589  -18.2890   21.5915 C   0  0  0  0  0  0  0  0  0  0  0  0
  -28.0843  -17.7702   19.5449 C   0  0  0  0  0  0  0  0  0  0  0  0
  -27.8107  -26.9454   12.9492 C   0  0  0  0  0  0  0  0  0  0  0  0
  -26.3976  -26.2164   15.2336 C   0  0  0  0  0  0  0  0  0  0  0  0
  -23.6882  -28.3663   18.9325 C   0  0  0  0  0  0  0  0  0  0  0  0
  -30.0288  -17.1356   21.4420 C   0  0  0  0  0  0  0  0  0  0  0  0
  -28.8543  -16.6167   19.3954 C   0  0  0  0  0  0  0  0  0  0  0  0
  -22.6356  -27.6232   19.4650 C   0  0  0  0  0  0  0  0  0  0  0  0
  -28.9284  -13.4877   20.6741 C   0  0  0  0  0  0  0  0  0  0  0  0
  -28.2696  -12.3100   20.3211 C   0  0  0  0  0  0  0  0  0  0  0  0
  -24.0237  -27.0127   21.3411 C   0  0  0  0  0  0  0  0  0  0  0  0
  -29.6026  -12.1668   18.3112 C   0  0  0  0  0  0  0  0  0  0  0  0
  -20.1552  -23.7788   22.1258 C   0  0  0  0  0  0  0  0  0  0  0  0
  -19.1323  -24.2184   24.0277 C   0  0  0  0  0  0  0  0  0  0  0  0
  -28.2866  -18.6063   20.6429 C   0  0  0  0  0  0  0  0  0  0  0  0
  -27.7809  -21.0836   20.3041 C   0  0  0  0  0  0  0  0  0  0  0  0
  -28.4730  -26.9120   14.1865 C   0  0  0  0  0  0  0  0  0  0  0  0
  -24.9221  -28.4294   19.5958 C   0  0  0  0  0  0  0  0  0  0  0  0
  -27.7624  -26.5334   15.3415 C   0  0  0  0  0  0  0  0  0  0  0  0
  -25.0896  -27.7594   20.8161 C   0  0  0  0  0  0  0  0  0  0  0  0
  -29.8266  -16.2994   20.3440 C   0  0  0  0  0  0  0  0  0  0  0  0
  -22.8042  -26.9440   20.6681 C   0  0  0  0  0  0  0  0  0  0  0  0
  -29.9242  -14.0050   19.8455 C   0  0  0  0  0  0  0  0  0  0  0  0
  -28.6067  -11.6495   19.1397 C   0  0  0  0  0  0  0  0  0  0  0  0
  -30.2613  -13.3445   18.6642 C   0  0  0  0  0  0  0  0  0  0  0  0
  -27.4905  -19.7974   20.7971 C   0  0  0  0  0  0  0  0  0  0  0  0
  -20.7899  -24.7833   22.8178 C   0  0  0  0  0  0  0  0  0  0  0  0
  -26.7220  -21.8559   20.7150 C   0  0  0  0  0  0  0  0  0  0  0  0
  -28.9070  -21.5395   19.5428 C   0  0  0  0  0  0  0  0  0  0  0  0
  -27.8958  -27.5568   18.8894 C   0  0  0  0  0  0  0  0  0  0  0  0
  -28.5833  -29.0502   21.6858 C   0  0  0  0  0  0  0  0  0  0  0  0
  -27.5016  -30.1230   24.7396 C   0  0  0  0  0  0  0  0  0  0  0  0
  -21.1674  -20.7071   21.9125 C   0  0  0  0  0  0  0  0  0  0  0  0
  -29.9491  -27.2187   14.2282 C   0  0  0  0  0  0  0  0  0  0  0  0
  -26.0391  -29.2571   19.0217 C   0  0  0  0  0  0  0  0  0  0  0  0
  -26.3879  -27.8117   21.5778 C   0  0  0  0  0  0  0  0  0  0  0  0
  -30.4717  -27.5077   15.6330 C   0  0  0  0  0  0  0  0  0  0  0  0
  -23.4405  -22.1954   24.1686 C   0  0  0  0  0  0  0  0  0  0  0  0
  -29.9549  -26.4655   16.6198 C   0  0  0  0  0  0  0  0  0  0  0  0
  -24.7796  -21.8647   23.5112 C   0  0  0  0  0  0  0  0  0  0  0  0
  -22.4524  -21.0311   24.0771 C   0  0  0  0  0  0  0  0  0  0  0  0
  -23.5871  -20.1965   22.0427 C   0  0  0  0  0  0  0  0  0  0  0  0
  -28.4240  -26.4951   16.7020 C   0  0  1  0  0  0  0  0  0  0  0  0
  -27.4160  -28.8322   19.5226 C   0  0  1  0  0  0  0  0  0  0  0  0
  -24.5771  -21.3712   22.0681 C   0  0  2  0  0  0  0  0  0  0  0  0
  -28.3022  -31.2769   26.8192 C   0  0  0  0  0  0  0  0  0  0  0  0
  -29.9850  -26.4868   22.5656 C   0  0  0  0  0  0  0  0  0  0  0  0
  -29.9176  -27.3400   24.9184 C   0  0  0  0  0  0  0  0  0  0  0  0
  -31.1859  -28.5943   23.1746 C   0  0  0  0  0  0  0  0  0  0  0  0
  -16.1781  -24.0776   22.7835 C   0  0  0  0  0  0  0  0  0  0  0  0
  -15.7361  -21.8796   21.6944 C   0  0  0  0  0  0  0  0  0  0  0  0
  -17.1505  -23.5954   20.5498 C   0  0  0  0  0  0  0  0  0  0  0  0
  -19.6842  -19.9956   23.8356 C   0  0  0  0  0  0  0  0  0  0  0  0
  -25.5926  -32.3550   24.3755 C   0  0  0  0  0  0  0  0  0  0  0  0
  -22.0208  -25.5466   22.4258 C   0  0  0  0  0  0  0  0  0  1  0  0
  -18.7523  -21.2024   21.8962 C   0  0  0  0  0  0  0  0  0  0  0  0
  -28.6583  -28.6277   23.1331 C   0  0  1  0  0  0  0  0  0  0  0  0
  -27.6578  -31.4538   25.4531 C   0  0  2  0  0  0  0  0  0  0  0  0
  -18.1136  -22.4114   22.6210 C   0  0  2  0  0  0  0  0  0  0  0  0
  -29.9127  -27.7595   23.4328 C   0  0  0  0  0  0  0  0  0  0  0  0
  -16.8094  -22.9614   21.9177 C   0  0  0  0  0  0  0  0  0  0  0  0
  -20.1484  -25.0520   24.0009 N   0  0  0  0  0  0  0  0  0  0  0  0
  -26.3376  -19.7512   21.4699 N   0  0  0  0  0  0  0  0  0  0  0  0
  -19.0956  -23.4268   22.9136 N   0  0  0  0  0  0  0  0  0  0  0  0
  -25.8942  -21.0180   21.4027 N   0  0  0  0  0  0  0  0  0  0  0  0
  -27.4522  -28.6291   20.9723 N   0  0  0  0  0  0  0  0  0  0  0  0
  -22.3248  -20.5603   22.6911 N   0  0  0  0  0  0  0  0  0  0  0  0
  -26.4277  -23.1632   20.5517 N   0  0  0  0  0  0  0  0  0  0  0  0
  -29.9044  -20.6143   19.2058 N   0  0  0  0  0  0  0  0  0  0  0  0
  -27.9828  -27.6108   17.5114 N   0  0  0  0  0  0  0  0  0  0  0  0
  -28.5777  -29.8531   23.9207 N   0  0  0  0  0  0  0  0  0  0  0  0
  -19.9366  -20.7100   22.5857 N   0  0  0  0  0  0  0  0  0  0  0  0
  -26.3282  -32.1001   25.6408 N   0  3  0  0  0  0  0  0  0  0  0  0
  -29.0334  -22.7356   19.1863 O   0  0  0  0  0  0  0  0  0  0  0  0
  -28.1685  -26.5954   19.5987 O   0  0  0  0  0  0  0  0  0  0  0  0
  -29.4913  -29.7348   21.2078 O   0  0  0  0  0  0  0  0  0  0  0  0
  -26.5246  -29.3940   24.8960 O   0  0  0  0  0  0  0  0  0  0  0  0
  -21.2284  -20.8214   20.6815 O   0  0  0  0  0  0  0  0  0  0  0  0
  -30.5779  -15.1740   20.1977 O   0  0  0  0  0  0  0  0  0  0  0  0
  -21.7786  -26.2174   21.1898 O   0  0  0  0  0  0  0  0  0  1  0  0
  -27.9751  -10.5177   18.8017 F   0  0  0  0  0  0  0  0  0  0  0  0
  -31.2180  -13.8360   17.8648 F   0  0  0  0  0  0  0  0  0  0  0  0
  1  2  1  0  0  0  0
  1  5  2  0  0  0  0
  2  6  2  0  0  0  0
  3  8  2  0  0  0  0
  3 17  1  0  0  0  0
  4  9  1  0  0  0  0
  4 17  2  0  0  0  0
  5 19  1  0  0  0  0
  6 21  1  0  0  0  0
  7 10  2  0  0  0  0
  7 20  1  0  0  0  0
  8 23  1  0  0  0  0
  9 23  2  0  0  0  0
 10 24  1  0  0  0  0
 11 12  2  0  0  0  0
 11 25  1  0  0  0  0
 12 26  1  0  0  0  0
 13 22  1  0  0  0  0
 13 24  2  0  0  0  0
 14 26  2  0  0  0  0
 14 27  1  0  0  0  0
 15 29  2  0  0  0  0
 15 66  1  0  0  0  0
 16 64  2  0  0  0  0
 16 66  1  0  0  0  0
 17 28  1  0  0  0  0
 18 28  1  0  0  0  0
 18 30  2  0  0  0  0
 18 31  1  0  0  0  0
 19 21  2  0  0  0  0
 19 36  1  0  0  0  0
 20 22  2  0  0  0  0
 20 37  1  0  0  0  0
 21 45  1  0  0  0  0
 22 38  1  0  0  0  0
 23 81  1  0  0  0  0
 24 82  1  0  0  0  0
 25 27  2  0  0  0  0
 25 81  1  0  0  0  0
 26 83  1  0  0  0  0
 27 84  1  0  0  0  0
 28 65  2  0  0  0  0
 29 57  1  0  0  0  0
 29 64  1  0  0  0  0
 30 67  1  0  0  0  0
 30 70  1  0  0  0  0
 31 71  1  0  0  0  0
 31 76  2  0  0  0  0
 32 46  1  0  0  0  0
 32 72  1  0  0  0  0
 32 77  2  0  0  0  0
 33 59  1  0  0  0  0
 33 68  1  0  0  0  0
 33 78  2  0  0  0  0
 34 60  1  0  0  0  0
 34 73  1  0  0  0  0
 34 79  2  0  0  0  0
 35 69  1  0  0  0  0
 35 74  1  0  0  0  0
 35 80  2  0  0  0  0
 36 39  1  0  0  0  0
 37 46  1  0  0  0  0
 38 68  1  0  0  0  0
 39 41  1  0  0  0  0
 40 42  1  0  0  0  0
 40 43  1  0  0  0  0
 41 45  1  0  0  0  0
 42 47  1  0  0  0  0
 43 69  1  0  0  0  0
 44 47  1  0  0  0  0
 44 69  1  0  0  0  0
 45 72  1  0  0  0  0
 46 68  1  0  0  0  0
 47 67  1  0  0  0  0
 48 60  1  0  0  0  0
 49 62  1  0  0  0  0
 50 62  1  0  0  0  0
 51 62  1  0  0  0  0
 52 63  1  0  0  0  0
 53 63  1  0  0  0  0
 54 63  1  0  0  0  0
 55 74  1  0  0  0  0
 56 75  1  0  0  0  0
 57 82  1  0  0  0  0
 58 61  1  0  0  0  0
 58 74  1  0  0  0  0
 59 62  1  0  0  0  0
 59 73  1  0  0  0  0
 60 75  1  0  0  0  0
 61 63  1  0  0  0  0
 61 66  1  0  0  0  0
 65 67  1  0  0  0  0
M  CHG  1  75   1
M  ISO  4  35 100  57 101  74 100  82 101
M  END
> <Batch ID>
0060

> <Smiles>
CNC(C)C(=O)NC(C(=O)N1Cc2cc([101O:1][101CH2:1]c3cn(C(C[100N:0](C)[100C:0](=O)N4CCCC(n5nc(-c6ccc(Oc7ccc(F)cc7F)cc6)c(C(N)=O)c5N)C4)C(C)(C)C)cn3)ccc2CC1C(=O)NC1CCCc2ccccc21)C(C)(C)C

> <Shape>
0.197

> <Color>
0.070

> <Negative vol penalty>
0.000

$$$$

  -OEChem-04052317553D

 83 91  0     1  0  0  0  0  0999 V2000
  -30.9489  -22.9476   17.5539 C   0  0  0  0  0  0  0  0  0  0  0  0
  -29.6002  -23.0159   17.8881 C   0  0  0  0  0  0  0  0  0  0  0  0
  -23.9515   -9.8770   22.3345 C   0  0  0  0  0  0  0  0  0  0  0  0
  -23.1141  -10.0414   20.0742 C   0  0  0  0  0  0  0  0  0  0  0  0
  -31.8891  -23.6488   18.3076 C   0  0  0  0  0  0  0  0  0  0  0  0
  -29.1911  -23.7848   18.9771 C   0  0  0  0  0  0  0  0  0  0  0  0
  -25.1070  -26.5958   17.9458 C   0  0  0  0  0  0  0  0  0  0  0  0
  -22.9722   -8.9282   22.6283 C   0  0  0  0  0  0  0  0  0  0  0  0
  -22.1348   -9.0925   20.3680 C   0  0  0  0  0  0  0  0  0  0  0  0
  -23.8719  -25.9491   17.9476 C   0  0  0  0  0  0  0  0  0  0  0  0
  -22.4627   -5.6278   22.0981 C   0  0  0  0  0  0  0  0  0  0  0  0
  -22.8539   -4.4891   22.8022 C   0  0  0  0  0  0  0  0  0  0  0  0
  -23.4383  -26.7961   20.1642 C   0  0  0  0  0  0  0  0  0  0  0  0
  -21.3120   -5.0550   24.5741 C   0  0  0  0  0  0  0  0  0  0  0  0
  -22.4252  -20.6622   19.4213 C   0  0  0  0  0  0  0  0  0  0  0  0
  -24.0225  -10.4336   21.0574 C   0  0  0  0  0  0  0  0  0  0  0  0
  -26.3284  -11.1740   20.2560 C   0  0  0  0  0  0  0  0  0  0  0  0
  -31.4903  -24.4343   19.4006 C   0  0  0  0  0  0  0  0  0  0  0  0
  -25.5225  -27.3399   19.0594 C   0  0  0  0  0  0  0  0  0  0  0  0
  -30.1270  -24.4961   19.7471 C   0  0  0  0  0  0  0  0  0  0  0  0
  -24.6781  -27.4535   20.1731 C   0  0  0  0  0  0  0  0  0  0  0  0
  -22.0639   -8.5359   21.6451 C   0  0  0  0  0  0  0  0  0  0  0  0
  -23.0386  -26.0468   19.0580 C   0  0  0  0  0  0  0  0  0  0  0  0
  -21.4962   -6.4802   22.6320 C   0  0  0  0  0  0  0  0  0  0  0  0
  -22.2785   -4.2026   24.0402 C   0  0  0  0  0  0  0  0  0  0  0  0
  -20.9208   -6.1938   23.8700 C   0  0  0  0  0  0  0  0  0  0  0  0
  -25.0335  -11.4142   20.7534 C   0  0  0  0  0  0  0  0  0  0  0  0
  -21.7109  -21.0707   18.3231 C   0  0  0  0  0  0  0  0  0  0  0  0
  -26.8882  -12.4227   20.1386 C   0  0  0  0  0  0  0  0  0  0  0  0
  -26.9680   -9.9331   19.9293 C   0  0  0  0  0  0  0  0  0  0  0  0
  -27.9417  -27.1446   21.1120 C   0  0  0  0  0  0  0  0  0  0  0  0
  -24.3845  -17.7571   19.3961 C   0  0  0  0  0  0  0  0  0  0  0  0
  -26.7466  -29.9619   22.1874 C   0  0  0  0  0  0  0  0  0  0  0  0
  -24.0613  -32.0482   22.4766 C   0  0  0  0  0  0  0  0  0  0  0  0
  -32.5482  -25.1367   20.2143 C   0  0  0  0  0  0  0  0  0  0  0  0
  -26.8462  -28.0536   19.0312 C   0  0  0  0  0  0  0  0  0  0  0  0
  -25.0687  -28.2568   21.3857 C   0  0  0  0  0  0  0  0  0  0  0  0
  -31.9916  -26.2280   21.1250 C   0  0  0  0  0  0  0  0  0  0  0  0
  -26.7096  -16.8076   22.0266 C   0  0  0  0  0  0  0  0  0  0  0  0
  -30.7650  -25.7214   21.8772 C   0  0  0  0  0  0  0  0  0  0  0  0
  -26.6342  -15.2826   21.9653 C   0  0  0  0  0  0  0  0  0  0  0  0
  -25.3579  -17.4490   21.7241 C   0  0  0  0  0  0  0  0  0  0  0  0
  -24.6905  -15.4975   20.3563 C   0  0  0  0  0  0  0  0  0  0  0  0
  -29.6414  -25.3391   20.9062 C   0  0  1  0  0  0  0  0  0  0  0  0
  -27.3893  -28.3605   20.4234 C   0  0  1  0  0  0  0  0  0  0  0  0
  -26.0409  -14.8127   20.6256 C   0  0  2  0  0  0  0  0  0  0  0  0
  -26.1564  -21.1831   19.4725 C   0  0  0  0  0  0  0  0  0  0  0  0
  -23.3826  -34.2633   23.4410 C   0  0  0  0  0  0  0  0  0  0  0  0
  -19.9249  -22.1893   16.8234 C   0  0  0  0  0  0  0  0  0  0  0  0
  -19.3076  -21.2066   19.0138 C   0  0  0  0  0  0  0  0  0  0  0  0
  -26.6724  -28.7229   24.9748 C   0  0  0  0  0  0  0  0  0  0  0  0
  -25.1444  -30.5759   25.6818 C   0  0  0  0  0  0  0  0  0  0  0  0
  -27.4583  -31.0962   24.9086 C   0  0  0  0  0  0  0  0  0  0  0  0
  -23.3655  -33.1269   19.8100 C   0  0  0  0  0  0  0  0  0  0  0  0
  -25.9077  -19.7087   19.1821 C   0  0  0  0  0  0  0  0  0  0  0  0
  -20.6715  -23.3197   18.9534 C   0  0  0  0  0  0  0  0  0  0  0  0
  -21.7261  -24.2132   18.3021 C   0  0  0  0  0  0  0  0  0  1  0  0
  -24.4984  -19.2483   19.5892 C   0  0  1  0  0  0  0  0  0  0  0  0
  -25.7232  -30.3638   23.2219 C   0  0  1  0  0  0  0  0  0  0  0  0
  -23.9083  -33.5354   22.2136 C   0  0  2  0  0  0  0  0  0  0  0  0
  -20.4437  -21.9425   18.2604 C   0  0  0  0  0  0  0  0  0  0  0  0
  -26.2428  -30.1729   24.6749 C   0  0  0  0  0  0  0  0  0  0  0  0
  -24.7853  -12.7133   20.9394 N   0  0  0  0  0  0  0  0  0  0  0  0
  -22.2953  -20.5826   17.1874 N   0  0  0  0  0  0  0  0  0  0  0  0
  -23.3607  -19.8755   17.5480 N   0  0  0  0  0  0  0  0  0  0  0  0
  -23.4366  -19.9243   18.8878 N   0  0  0  0  0  0  0  0  0  0  0  0
  -25.9319  -13.3007   20.5568 N   0  0  0  0  0  0  0  0  0  0  0  0
  -26.3754  -28.9310   21.3125 N   0  0  0  0  0  0  0  0  0  0  0  0
  -24.8139  -16.9548   20.4536 N   0  0  0  0  0  0  0  0  0  0  0  0
  -28.1002  -12.8444   19.7195 N   0  0  0  0  0  0  0  0  0  0  0  0
  -26.2495   -8.7433   20.1098 N   0  0  0  0  0  0  0  0  0  0  0  0
  -28.9662  -26.5244   20.4227 N   0  0  0  0  0  0  0  0  0  0  0  0
  -25.3347  -31.7330   22.9013 N   0  0  0  0  0  0  0  0  0  0  0  0
  -22.9599  -33.7673   21.0876 N   0  3  0  0  0  0  0  0  0  0  0  0
  -28.1475   -9.8798   19.5059 O   0  0  0  0  0  0  0  0  0  0  0  0
  -27.4740  -26.7958   22.1896 O   0  0  0  0  0  0  0  0  0  0  0  0
  -23.9299  -17.3204   18.3356 O   0  0  0  0  0  0  0  0  0  0  0  0
  -27.8324  -30.5461   22.1521 O   0  0  0  0  0  0  0  0  0  0  0  0
  -23.1420  -31.2467   22.3245 O   0  0  0  0  0  0  0  0  0  0  0  0
  -21.1083   -7.6100   21.9314 O   0  0  0  0  0  0  0  0  0  0  0  0
  -21.8328  -25.4160   19.0626 O   0  0  0  0  0  0  0  0  0  1  0  0
  -22.6532   -3.1082   24.7155 F   0  0  0  0  0  0  0  0  0  0  0  0
  -19.9909   -7.0082   24.3874 F   0  0  0  0  0  0  0  0  0  0  0  0
  1  2  1  0  0  0  0
  1  5  2  0  0  0  0
  2  6  2  0  0  0  0
  3  8  2  0  0  0  0
  3 16  1  0  0  0  0
  4  9  1  0  0  0  0
  4 16  2  0  0  0  0
  5 18  1  0  0  0  0
  6 20  1  0  0  0  0
  7 10  2  0  0  0  0
  7 19  1  0  0  0  0
  8 22  1  0  0  0  0
  9 22  2  0  0  0  0
 10 23  1  0  0  0  0
 11 12  2  0  0  0  0
 11 24  1  0  0  0  0
 12 25  1  0  0  0  0
 13 21  1  0  0  0  0
 13 23  2  0  0  0  0
 14 25  2  0  0  0  0
 14 26  1  0  0  0  0
 15 28  2  0  0  0  0
 15 66  1  0  0  0  0
 16 27  1  0  0  0  0
 17 27  1  0  0  0  0
 17 29  2  0  0  0  0
 17 30  1  0  0  0  0
 18 20  2  0  0  0  0
 18 35  1  0  0  0  0
 19 21  2  0  0  0  0
 19 36  1  0  0  0  0
 20 44  1  0  0  0  0
 21 37  1  0  0  0  0
 22 80  1  0  0  0  0
 23 81  1  0  0  0  0
 24 26  2  0  0  0  0
 24 80  1  0  0  0  0
 25 82  1  0  0  0  0
 26 83  1  0  0  0  0
 27 63  2  0  0  0  0
 28 61  1  0  0  0  0
 28 64  1  0  0  0  0
 29 67  1  0  0  0  0
 29 70  1  0  0  0  0
 30 71  1  0  0  0  0
 30 75  2  0  0  0  0
 31 45  1  0  0  0  0
 31 72  1  0  0  0  0
 31 76  2  0  0  0  0
 32 58  1  0  0  0  0
 32 69  1  0  0  0  0
 32 77  2  0  0  0  0
 33 59  1  0  0  0  0
 33 68  1  0  0  0  0
 33 78  2  0  0  0  0
 34 60  1  0  0  0  0
 34 73  1  0  0  0  0
 34 79  2  0  0  0  0
 35 38  1  0  0  0  0
 36 45  1  0  0  0  0
 37 68  1  0  0  0  0
 38 40  1  0  0  0  0
 39 41  1  0  0  0  0
 39 42  1  0  0  0  0
 40 44  1  0  0  0  0
 41 46  1  0  0  0  0
 42 69  1  0  0  0  0
 43 46  1  0  0  0  0
 43 69  1  0  0  0  0
 44 72  1  0  0  0  0
 45 68  1  0  0  0  0
 46 67  1  0  0  0  0
 47 55  1  0  0  0  0
 48 60  1  0  0  0  0
 49 61  1  0  0  0  0
 50 61  1  0  0  0  0
 51 62  1  0  0  0  0
 52 62  1  0  0  0  0
 53 62  1  0  0  0  0
 54 74  1  0  0  0  0
 55 58  1  0  0  0  0
 56 57  1  0  0  0  0
 56 61  1  0  0  0  0
 57 81  1  0  0  0  0
 58 66  1  0  0  0  0
 59 62  1  0  0  0  0
 59 73  1  0  0  0  0
 60 74  1  0  0  0  0
 63 67  1  0  0  0  0
 64 65  2  0  0  0  0
 65 66  1  0  0  0  0
M  CHG  1  74   1
M  ISO  4  32 100  57 101  58 100  81 101
M  END
> <Batch ID>
0060

> <Smiles>
CC[100CH:0]([100C:0](=O)N1CCCC(n2nc(-c3ccc(Oc4ccc(F)cc4F)cc3)c(C(N)=O)c2N)C1)n1cc(C(C)(C)C[101CH2:1][101O:1]c2ccc3c(c2)CN(C(=O)C(NC(=O)C(C)NC)C(C)(C)C)C(C(=O)NC2CCCc4ccccc42)C3)nn1

> <Shape>
0.266

> <Color>
0.074

> <Negative vol penalty>
0.000

$$$$

  -OEChem-04052317553D

 80 88  0     1  0  0  0  0  0999 V2000
  -21.3463  -35.3885   23.4597 C   0  0  0  0  0  0  0  0  0  0  0  0
  -22.5429  -34.7330   23.1878 C   0  0  0  0  0  0  0  0  0  0  0  0
  -27.6114  -13.2400   21.7240 C   0  0  0  0  0  0  0  0  0  0  0  0
  -27.0630  -13.8738   19.4580 C   0  0  0  0  0  0  0  0  0  0  0  0
  -20.2229  -34.6563   23.8414 C   0  0  0  0  0  0  0  0  0  0  0  0
  -22.6171  -33.3450   23.2985 C   0  0  0  0  0  0  0  0  0  0  0  0
  -25.9506  -29.5485   19.8373 C   0  0  0  0  0  0  0  0  0  0  0  0
  -26.7502  -12.1471   21.6268 C   0  0  0  0  0  0  0  0  0  0  0  0
  -26.2017  -12.7808   19.3608 C   0  0  0  0  0  0  0  0  0  0  0  0
  -27.1892  -28.9405   20.0375 C   0  0  0  0  0  0  0  0  0  0  0  0
  -24.4214   -9.3942   22.0976 C   0  0  0  0  0  0  0  0  0  0  0  0
  -23.5616   -9.1468   23.1678 C   0  0  0  0  0  0  0  0  0  0  0  0
  -26.0778  -26.9510   20.8288 C   0  0  0  0  0  0  0  0  0  0  0  0
  -22.5617  -11.3257   22.8680 C   0  0  0  0  0  0  0  0  0  0  0  0
  -29.5525  -23.9305   19.8237 C   0  0  0  0  0  0  0  0  0  0  0  0
  -29.6146  -24.8593   17.8262 C   0  0  0  0  0  0  0  0  0  0  0  0
  -27.7677  -14.1034   20.6396 C   0  0  0  0  0  0  0  0  0  0  0  0
  -30.0268  -15.2675   20.4176 C   0  0  0  0  0  0  0  0  0  0  0  0
  -20.2807  -33.2577   23.9475 C   0  0  0  0  0  0  0  0  0  0  0  0
  -24.7647  -28.8652   20.1422 C   0  0  0  0  0  0  0  0  0  0  0  0
  -21.4937  -32.5935   23.6833 C   0  0  0  0  0  0  0  0  0  0  0  0
  -24.8254  -27.5517   20.6292 C   0  0  0  0  0  0  0  0  0  0  0  0
  -26.0454  -11.9175   20.4452 C   0  0  0  0  0  0  0  0  0  0  0  0
  -27.2530  -27.6426   20.5360 C   0  0  0  0  0  0  0  0  0  0  0  0
  -24.3514  -10.6073   21.4127 C   0  0  0  0  0  0  0  0  0  0  0  0
  -22.6318  -10.1126   23.5529 C   0  0  0  0  0  0  0  0  0  0  0  0
  -23.4215  -11.5730   21.7978 C   0  0  0  0  0  0  0  0  0  0  0  0
  -28.6568  -15.2329   20.7396 C   0  0  0  0  0  0  0  0  0  0  0  0
  -29.0403  -23.0912   18.8626 C   0  0  0  0  0  0  0  0  0  0  0  0
  -30.4099  -16.5590   20.6852 C   0  0  0  0  0  0  0  0  0  0  0  0
  -30.8770  -14.2253   19.9208 C   0  0  0  0  0  0  0  0  0  0  0  0
  -22.3613  -29.3371   22.1682 C   0  0  0  0  0  0  0  0  0  0  0  0
  -21.0785  -26.7843   20.6320 C   0  0  0  0  0  0  0  0  0  0  0  0
  -21.5844  -23.9668   18.7739 C   0  0  0  0  0  0  0  0  0  0  0  0
  -26.9130  -21.5800   21.0002 C   0  0  0  0  0  0  0  0  0  0  0  0
  -19.0529  -32.5134   24.4094 C   0  0  0  0  0  0  0  0  0  0  0  0
  -23.4359  -29.5253   19.8954 C   0  0  0  0  0  0  0  0  0  0  0  0
  -23.5809  -26.7676   20.9530 C   0  0  0  0  0  0  0  0  0  0  0  0
  -19.1135  -31.0121   24.1400 C   0  0  0  0  0  0  0  0  0  0  0  0
  -29.3467  -20.2912   23.4736 C   0  0  0  0  0  0  0  0  0  0  0  0
  -20.4647  -30.4472   24.5667 C   0  0  0  0  0  0  0  0  0  0  0  0
  -29.5004  -18.8289   23.0589 C   0  0  0  0  0  0  0  0  0  0  0  0
  -27.9738  -20.8444   23.1038 C   0  0  0  0  0  0  0  0  0  0  0  0
  -27.7791  -19.2179   21.2516 C   0  0  0  0  0  0  0  0  0  0  0  0
  -21.6070  -31.0869   23.7682 C   0  0  1  0  0  0  0  0  0  0  0  0
  -22.3061  -28.9229   20.7249 C   0  0  1  0  0  0  0  0  0  0  0  0
  -29.1682  -18.6436   21.5680 C   0  0  2  0  0  0  0  0  0  0  0  0
  -20.3462  -22.0660   17.7008 C   0  0  0  0  0  0  0  0  0  0  0  0
  -20.7201  -25.4776   23.3658 C   0  0  0  0  0  0  0  0  0  0  0  0
  -20.3907  -23.2874   22.1984 C   0  0  0  0  0  0  0  0  0  0  0  0
  -18.7961  -25.1637   21.7993 C   0  0  0  0  0  0  0  0  0  0  0  0
  -26.0846  -22.1590   18.7512 C   0  0  0  0  0  0  0  0  0  0  0  0
  -22.5219  -24.7287   16.0721 C   0  0  0  0  0  0  0  0  0  0  0  0
  -28.4982  -21.7347   19.0341 C   0  0  0  0  0  0  0  0  0  0  0  0
  -30.5322  -26.3016   19.7406 C   0  0  0  0  0  0  0  0  0  0  0  0
  -29.5275  -27.4411   19.8711 C   0  0  0  0  0  0  0  0  0  1  0  0
  -21.1249  -25.2875   20.8230 C   0  0  1  0  0  0  0  0  0  0  0  0
  -20.9171  -23.4622   17.5071 C   0  0  2  0  0  0  0  0  0  0  0  0
  -20.2816  -24.8193   22.0424 C   0  0  0  0  0  0  0  0  0  0  0  0
  -29.0821  -23.6751   17.6213 N   0  0  0  0  0  0  0  0  0  0  0  0
  -28.2004  -16.4089   21.1785 N   0  0  0  0  0  0  0  0  0  0  0  0
  -29.9166  -25.0590   19.1446 N   0  0  0  0  0  0  0  0  0  0  0  0
  -29.2898  -17.1946   21.1341 N   0  0  0  0  0  0  0  0  0  0  0  0
  -22.3058  -27.4588   20.7006 N   0  0  0  0  0  0  0  0  0  0  0  0
  -27.6656  -20.6165   21.6916 N   0  0  0  0  0  0  0  0  0  0  0  0
  -31.5923  -17.2016   20.5780 N   0  0  0  0  0  0  0  0  0  0  0  0
  -30.3215  -12.9574   19.7014 N   0  0  0  0  0  0  0  0  0  0  0  0
  -21.6831  -30.5091   22.4435 N   0  0  0  0  0  0  0  0  0  0  0  0
  -20.7143  -24.7008   19.5519 N   0  0  0  0  0  0  0  0  0  0  0  0
  -27.1626  -21.7218   19.6268 N   0  0  0  0  0  0  0  0  0  0  0  0
  -21.8990  -23.4173   16.3870 N   0  3  0  0  0  0  0  0  0  0  0  0
  -32.0971  -14.4086   19.6942 O   0  0  0  0  0  0  0  0  0  0  0  0
  -22.9726  -28.6437   22.9728 O   0  0  0  0  0  0  0  0  0  0  0  0
  -19.9942  -27.3338   20.4223 O   0  0  0  0  0  0  0  0  0  0  0  0
  -22.7589  -23.7300   19.0477 O   0  0  0  0  0  0  0  0  0  0  0  0
  -26.0729  -22.2805   21.5795 O   0  0  0  0  0  0  0  0  0  0  0  0
  -25.2051  -10.8510   20.3499 O   0  0  0  0  0  0  0  0  0  0  0  0
  -28.4606  -27.0470   20.7329 O   0  0  0  0  0  0  0  0  0  1  0  0
  -21.8052   -9.8743   24.5796 F   0  0  0  0  0  0  0  0  0  0  0  0
  -23.3487  -12.7399   21.1428 F   0  0  0  0  0  0  0  0  0  0  0  0
  1  2  1  0  0  0  0
  1  5  2  0  0  0  0
  2  6  2  0  0  0  0
  3  8  2  0  0  0  0
  3 17  1  0  0  0  0
  4  9  1  0  0  0  0
  4 17  2  0  0  0  0
  5 19  1  0  0  0  0
  6 21  1  0  0  0  0
  7 10  2  0  0  0  0
  7 20  1  0  0  0  0
  8 23  1  0  0  0  0
  9 23  2  0  0  0  0
 10 24  1  0  0  0  0
 11 12  2  0  0  0  0
 11 25  1  0  0  0  0
 12 26  1  0  0  0  0
 13 22  1  0  0  0  0
 13 24  2  0  0  0  0
 14 26  2  0  0  0  0
 14 27  1  0  0  0  0
 15 29  2  0  0  0  0
 15 62  1  0  0  0  0
 16 60  2  0  0  0  0
 16 62  1  0  0  0  0
 17 28  1  0  0  0  0
 18 28  1  0  0  0  0
 18 30  2  0  0  0  0
 18 31  1  0  0  0  0
 19 21  2  0  0  0  0
 19 36  1  0  0  0  0
 20 22  2  0  0  0  0
 20 37  1  0  0  0  0
 21 45  1  0  0  0  0
 22 38  1  0  0  0  0
 23 77  1  0  0  0  0
 24 78  1  0  0  0  0
 25 27  2  0  0  0  0
 25 77  1  0  0  0  0
 26 79  1  0  0  0  0
 27 80  1  0  0  0  0
 28 61  2  0  0  0  0
 29 54  1  0  0  0  0
 29 60  1  0  0  0  0
 30 63  1  0  0  0  0
 30 66  1  0  0  0  0
 31 67  1  0  0  0  0
 31 72  2  0  0  0  0
 32 46  1  0  0  0  0
 32 68  1  0  0  0  0
 32 73  2  0  0  0  0
 33 57  1  0  0  0  0
 33 64  1  0  0  0  0
 33 74  2  0  0  0  0
 34 58  1  0  0  0  0
 34 69  1  0  0  0  0
 34 75  2  0  0  0  0
 35 65  1  0  0  0  0
 35 70  1  0  0  0  0
 35 76  2  0  0  0  0
 36 39  1  0  0  0  0
 37 46  1  0  0  0  0
 38 64  1  0  0  0  0
 39 41  1  0  0  0  0
 40 42  1  0  0  0  0
 40 43  1  0  0  0  0
 41 45  1  0  0  0  0
 42 47  1  0  0  0  0
 43 65  1  0  0  0  0
 44 47  1  0  0  0  0
 44 65  1  0  0  0  0
 45 68  1  0  0  0  0
 46 64  1  0  0  0  0
 47 63  1  0  0  0  0
 48 58  1  0  0  0  0
 49 59  1  0  0  0  0
 50 59  1  0  0  0  0
 51 59  1  0  0  0  0
 52 70  1  0  0  0  0
 53 71  1  0  0  0  0
 54 70  1  0  0  0  0
 55 56  1  0  0  0  0
 55 62  1  0  0  0  0
 56 78  1  0  0  0  0
 57 59  1  0  0  0  0
 57 69  1  0  0  0  0
 58 71  1  0  0  0  0
 61 63  1  0  0  0  0
M  CHG  1  71   1
M  ISO  4  35 100  56 101  70 100  78 101
M  END
> <Batch ID>
0060

> <Smiles>
CNC(C)C(=O)NC(C(=O)N1Cc2cc([101O:1][101CH2:1]Cn3cnc(C[100N:0](C)[100C:0](=O)N4CCCC(n5nc(-c6ccc(Oc7ccc(F)cc7F)cc6)c(C(N)=O)c5N)C4)c3)ccc2CC1C(=O)NC1CCCc2ccccc21)C(C)(C)C

> <Shape>
0.270

> <Color>
0.075

> <Negative vol penalty>
0.000

$$$$

  -OEChem-04052317553D

 87 95  0     1  0  0  0  0  0999 V2000
  -32.2155  -33.0095   22.5308 C   0  0  0  0  0  0  0  0  0  0  0  0
  -31.7176  -31.8549   21.9355 C   0  0  0  0  0  0  0  0  0  0  0  0
  -24.6146   -9.2161   21.6104 C   0  0  0  0  0  0  0  0  0  0  0  0
  -23.0284  -10.2675   20.1219 C   0  0  0  0  0  0  0  0  0  0  0  0
  -31.5765  -33.5483   23.6468 C   0  0  0  0  0  0  0  0  0  0  0  0
  -30.5809  -31.2377   22.4565 C   0  0  0  0  0  0  0  0  0  0  0  0
  -26.2101  -28.3175   19.3143 C   0  0  0  0  0  0  0  0  0  0  0  0
  -23.6854   -8.2150   21.8935 C   0  0  0  0  0  0  0  0  0  0  0  0
  -22.0992   -9.2664   20.4050 C   0  0  0  0  0  0  0  0  0  0  0  0
  -25.9834  -26.9660   19.0575 C   0  0  0  0  0  0  0  0  0  0  0  0
  -22.5253   -5.4033   20.4166 C   0  0  0  0  0  0  0  0  0  0  0  0
  -22.9754   -4.0831   20.4194 C   0  0  0  0  0  0  0  0  0  0  0  0
  -24.4519  -26.8753   20.9191 C   0  0  0  0  0  0  0  0  0  0  0  0
  -22.3109   -3.8616   22.7317 C   0  0  0  0  0  0  0  0  0  0  0  0
  -23.8607  -22.5797   18.1680 C   0  0  0  0  0  0  0  0  0  0  0  0
  -24.2860  -10.2423   20.7247 C   0  0  0  0  0  0  0  0  0  0  0  0
  -26.2086  -11.2777   19.4058 C   0  0  0  0  0  0  0  0  0  0  0  0
  -30.4258  -32.9428   24.1759 C   0  0  0  0  0  0  0  0  0  0  0  0
  -25.5666  -28.9564   20.3840 C   0  0  0  0  0  0  0  0  0  0  0  0
  -29.9267  -31.7681   23.5814 C   0  0  0  0  0  0  0  0  0  0  0  0
  -24.6702  -28.2356   21.1858 C   0  0  0  0  0  0  0  0  0  0  0  0
  -22.4277   -8.2401   21.2908 C   0  0  0  0  0  0  0  0  0  0  0  0
  -25.1064  -26.2440   19.8617 C   0  0  0  0  0  0  0  0  0  0  0  0
  -21.9681   -5.9527   21.5713 C   0  0  0  0  0  0  0  0  0  0  0  0
  -22.8682   -3.3122   21.5770 C   0  0  0  0  0  0  0  0  0  0  0  0
  -21.8608   -5.1818   22.7288 C   0  0  0  0  0  0  0  0  0  0  0  0
  -25.2452  -11.2770   20.4323 C   0  0  0  0  0  0  0  0  0  0  0  0
  -23.5846  -21.2317   18.0625 C   0  0  0  0  0  0  0  0  0  0  0  0
  -25.1844  -22.9027   18.3864 C   0  0  0  0  0  0  0  0  0  0  0  0
  -26.8646  -12.4755   19.5514 C   0  0  0  0  0  0  0  0  0  0  0  0
  -25.7744  -20.7075   18.3741 C   0  0  0  0  0  0  0  0  0  0  0  0
  -26.4856  -10.2844   18.4097 C   0  0  0  0  0  0  0  0  0  0  0  0
  -26.5354  -30.4034   23.0432 C   0  0  0  0  0  0  0  0  0  0  0  0
  -23.3874  -31.1315   23.3297 C   0  0  0  0  0  0  0  0  0  0  0  0
  -25.0967  -17.6170   21.9420 C   0  0  0  0  0  0  0  0  0  0  0  0
  -20.1540  -30.3657   22.5515 C   0  0  0  0  0  0  0  0  0  0  0  0
  -29.7969  -33.5353   25.4121 C   0  0  0  0  0  0  0  0  0  0  0  0
  -25.8014  -30.4213   20.6313 C   0  0  0  0  0  0  0  0  0  0  0  0
  -23.9388  -28.8799   22.3340 C   0  0  0  0  0  0  0  0  0  0  0  0
  -28.3801  -33.0317   25.6758 C   0  0  0  0  0  0  0  0  0  0  0  0
  -28.0651  -15.7201   22.8461 C   0  0  0  0  0  0  0  0  0  0  0  0
  -28.3166  -31.5148   25.5280 C   0  0  0  0  0  0  0  0  0  0  0  0
  -27.7441  -14.3490   22.2527 C   0  0  0  0  0  0  0  0  0  0  0  0
  -26.8111  -16.4089   23.3783 C   0  0  0  0  0  0  0  0  0  0  0  0
  -25.3962  -15.1669   21.7720 C   0  0  0  0  0  0  0  0  0  0  0  0
  -28.6816  -31.0837   24.1024 C   0  0  1  0  0  0  0  0  0  0  0  0
  -25.4854  -30.8438   22.0628 C   0  0  1  0  0  0  0  0  0  0  0  0
  -26.6300  -14.4519   21.1964 C   0  0  2  0  0  0  0  0  0  0  0  0
  -21.4206  -20.5456   19.1269 C   0  0  0  0  0  0  0  0  0  0  0  0
  -17.7968  -31.1213   22.9634 C   0  0  0  0  0  0  0  0  0  0  0  0
  -25.2393  -18.7815   24.1236 C   0  0  0  0  0  0  0  0  0  0  0  0
  -24.6148  -20.0226   22.0425 C   0  0  0  0  0  0  0  0  0  0  0  0
  -23.4899  -29.9183   26.1275 C   0  0  0  0  0  0  0  0  0  0  0  0
  -20.9878  -29.8315   26.1058 C   0  0  0  0  0  0  0  0  0  0  0  0
  -22.1592  -32.0287   25.9536 C   0  0  0  0  0  0  0  0  0  0  0  0
  -19.6910  -30.8742   19.6730 C   0  0  0  0  0  0  0  0  0  0  0  0
  -28.4574  -20.5437   20.8029 C   0  0  0  0  0  0  0  0  0  0  0  0
  -22.1809  -20.7851   17.8253 C   0  0  0  0  0  0  0  0  0  0  0  0
  -25.5823  -24.3438   18.5131 C   0  0  0  0  0  0  0  0  0  1  0  0
  -26.8382  -19.6684   18.4850 C   0  0  0  0  0  0  0  0  0  0  0  0
  -26.8465  -18.9197   19.8187 C   0  0  0  0  0  0  0  0  0  0  0  0
  -26.9664  -19.2126   22.2886 C   0  0  0  0  0  0  0  0  0  0  0  0
  -22.1900  -30.4673   23.9654 C   0  0  1  0  0  0  0  0  0  0  0  0
  -19.0080  -31.2255   22.0497 C   0  0  2  0  0  0  0  0  0  0  0  0
  -25.4969  -18.9045   22.6173 C   0  0  0  0  0  0  0  0  0  0  0  0
  -22.2218  -30.5486   25.5177 C   0  0  0  0  0  0  0  0  0  0  0  0
  -25.2826  -12.3864   21.1752 N   0  0  0  0  0  0  0  0  0  0  0  0
  -24.5205  -20.2649   18.1609 N   0  0  0  0  0  0  0  0  0  0  0  0
  -26.1709  -21.9888   18.4952 N   0  0  0  0  0  0  0  0  0  0  0  0
  -26.2774  -13.0953   20.6150 N   0  0  0  0  0  0  0  0  0  0  0  0
  -24.2066  -30.3129   22.5395 N   0  0  0  0  0  0  0  0  0  0  0  0
  -25.7642  -16.4623   22.3508 N   0  0  0  0  0  0  0  0  0  0  0  0
  -27.8808  -13.0486   18.8721 N   0  0  0  0  0  0  0  0  0  0  0  0
  -25.7167   -9.1126   18.4026 N   0  0  0  0  0  0  0  0  0  0  0  0
  -27.5678  -31.3074   23.2059 N   0  0  0  0  0  0  0  0  0  0  0  0
  -21.0133  -31.0805   23.3589 N   0  0  0  0  0  0  0  0  0  0  0  0
  -18.6019  -30.7996   20.6805 N   0  3  0  0  0  0  0  0  0  0  0  0
  -27.1185  -19.8599   20.9339 N   0  3  1  0  0  0  0  0  0  0  0  0
  -27.3991  -10.4243   17.5615 O   0  0  0  0  0  0  0  0  0  0  0  0
  -26.4170  -29.3240   23.6111 O   0  0  0  0  0  0  0  0  0  0  0  0
  -23.5845  -32.3341   23.5213 O   0  0  0  0  0  0  0  0  0  0  0  0
  -24.2188  -17.6394   21.0754 O   0  0  0  0  0  0  0  0  0  0  0  0
  -20.2729  -29.1777   22.2597 O   0  0  0  0  0  0  0  0  0  0  0  0
  -21.5209   -7.2633   21.5666 O   0  0  0  0  0  0  0  0  0  0  0  0
  -24.8838  -24.9246   19.6136 O   0  0  0  0  0  0  0  0  0  1  0  0
  -23.2991   -2.0439   21.5791 F   0  0  0  0  0  0  0  0  0  0  0  0
  -21.3253   -5.7037   23.8409 F   0  0  0  0  0  0  0  0  0  0  0  0
  1  2  1  0  0  0  0
  1  5  2  0  0  0  0
  2  6  2  0  0  0  0
  3  8  2  0  0  0  0
  3 16  1  0  0  0  0
  4  9  1  0  0  0  0
  4 16  2  0  0  0  0
  5 18  1  0  0  0  0
  6 20  1  0  0  0  0
  7 10  2  0  0  0  0
  7 19  1  0  0  0  0
  8 22  1  0  0  0  0
  9 22  2  0  0  0  0
 10 23  1  0  0  0  0
 11 12  2  0  0  0  0
 11 24  1  0  0  0  0
 12 25  1  0  0  0  0
 13 21  1  0  0  0  0
 13 23  2  0  0  0  0
 14 25  2  0  0  0  0
 14 26  1  0  0  0  0
 15 28  1  0  0  0  0
 15 29  2  0  0  0  0
 16 27  1  0  0  0  0
 17 27  1  0  0  0  0
 17 30  2  0  0  0  0
 17 32  1  0  0  0  0
 18 20  2  0  0  0  0
 18 37  1  0  0  0  0
 19 21  2  0  0  0  0
 19 38  1  0  0  0  0
 20 46  1  0  0  0  0
 21 39  1  0  0  0  0
 22 84  1  0  0  0  0
 23 85  1  0  0  0  0
 24 26  2  0  0  0  0
 24 84  1  0  0  0  0
 25 86  1  0  0  0  0
 26 87  1  0  0  0  0
 27 67  2  0  0  0  0
 28 58  1  0  0  0  0
 28 68  2  0  0  0  0
 29 59  1  0  0  0  0
 29 69  1  0  0  0  0
 30 70  1  0  0  0  0
 30 73  1  0  0  0  0
 31 60  1  0  0  0  0
 31 68  1  0  0  0  0
 31 69  2  0  0  0  0
 32 74  1  0  0  0  0
 32 79  2  0  0  0  0
 33 47  1  0  0  0  0
 33 75  1  0  0  0  0
 33 80  2  0  0  0  0
 34 63  1  0  0  0  0
 34 71  1  0  0  0  0
 34 81  2  0  0  0  0
 35 65  1  0  0  0  0
 35 72  1  0  0  0  0
 35 82  2  0  0  0  0
 36 64  1  0  0  0  0
 36 76  1  0  0  0  0
 36 83  2  0  0  0  0
 37 40  1  0  0  0  0
 38 47  1  0  0  0  0
 39 71  1  0  0  0  0
 40 42  1  0  0  0  0
 41 43  1  0  0  0  0
 41 44  1  0  0  0  0
 42 46  1  0  0  0  0
 43 48  1  0  0  0  0
 44 72  1  0  0  0  0
 45 48  1  0  0  0  0
 45 72  1  0  0  0  0
 46 75  1  0  0  0  0
 47 71  1  0  0  0  0
 48 70  1  0  0  0  0
 49 58  1  0  0  0  0
 50 64  1  0  0  0  0
 51 65  1  0  0  0  0
 52 65  1  0  0  0  0
 53 66  1  0  0  0  0
 54 66  1  0  0  0  0
 55 66  1  0  0  0  0
 56 77  1  0  0  0  0
 57 78  1  0  0  0  0
 59 85  1  0  0  0  0
 60 61  1  0  0  0  0
 61 78  1  0  0  0  0
 62 65  1  0  0  0  0
 62 78  1  0  0  0  0
 63 66  1  0  0  0  0
 63 76  1  0  0  0  0
 64 77  1  0  0  0  0
 67 70  1  0  0  0  0
M  CHG  2  77   1  78   1
M  ISO  4  35 100  59 101  65 100  85 101
M  END
> <Batch ID>
0060

> <Smiles>
CCc1cc([101CH2:1][101O:1]c2ccc3c(c2)CN(C(=O)C(NC(=O)C(C)NC)C(C)(C)C)C(C(=O)NC2CCCc4ccccc42)C3)nc(CCN(C)C[100C:0](C)(C)[100C:0](=O)N2CCCC(n3nc(-c4ccc(Oc5ccc(F)cc5F)cc4)c(C(N)=O)c3N)C2)n1

> <Shape>
0.227

> <Color>
0.079

> <Negative vol penalty>
0.000

$$$$

  -OEChem-04052317553D

 86 94  0     1  0  0  0  0  0999 V2000
  -17.9887  -26.7637   22.7103 C   0  0  0  0  0  0  0  0  0  0  0  0
  -19.1513  -26.0005   22.7430 C   0  0  0  0  0  0  0  0  0  0  0  0
  -28.2192  -12.5371   21.6439 C   0  0  0  0  0  0  0  0  0  0  0  0
  -26.4823  -13.3237   20.1601 C   0  0  0  0  0  0  0  0  0  0  0  0
  -18.0659  -28.1415   22.5111 C   0  0  0  0  0  0  0  0  0  0  0  0
  -20.3920  -26.6146   22.5754 C   0  0  0  0  0  0  0  0  0  0  0  0
  -25.6681  -25.0472   25.2609 C   0  0  0  0  0  0  0  0  0  0  0  0
  -27.6526  -11.2626   21.6315 C   0  0  0  0  0  0  0  0  0  0  0  0
  -25.9157  -12.0491   20.1477 C   0  0  0  0  0  0  0  0  0  0  0  0
  -26.7551  -24.2917   24.8234 C   0  0  0  0  0  0  0  0  0  0  0  0
  -23.9608  -10.1720   22.1691 C   0  0  0  0  0  0  0  0  0  0  0  0
  -22.5773  -10.0764   22.3179 C   0  0  0  0  0  0  0  0  0  0  0  0
  -27.8955  -26.3171   24.1780 C   0  0  0  0  0  0  0  0  0  0  0  0
  -22.4200   -8.9965   20.1624 C   0  0  0  0  0  0  0  0  0  0  0  0
  -28.7404  -23.8861   19.2478 C   0  0  0  0  0  0  0  0  0  0  0  0
  -27.6340  -13.5677   20.9082 C   0  0  0  0  0  0  0  0  0  0  0  0
  -29.1966  -15.3891   20.0432 C   0  0  0  0  0  0  0  0  0  0  0  0
  -19.3088  -28.7741   22.3506 C   0  0  0  0  0  0  0  0  0  0  0  0
  -25.6822  -26.4451   25.1500 C   0  0  0  0  0  0  0  0  0  0  0  0
  -20.4859  -28.0019   22.3725 C   0  0  0  0  0  0  0  0  0  0  0  0
  -26.8085  -27.0882   24.6172 C   0  0  0  0  0  0  0  0  0  0  0  0
  -26.5009  -11.0185   20.8834 C   0  0  0  0  0  0  0  0  0  0  0  0
  -27.8678  -24.9264   24.2792 C   0  0  0  0  0  0  0  0  0  0  0  0
  -24.5741   -9.6800   21.0169 C   0  0  0  0  0  0  0  0  0  0  0  0
  -21.8069   -9.4886   21.3146 C   0  0  0  0  0  0  0  0  0  0  0  0
  -23.8036   -9.0922   20.0135 C   0  0  0  0  0  0  0  0  0  0  0  0
  -28.2185  -14.8846   20.9210 C   0  0  0  0  0  0  0  0  0  0  0  0
  -26.6150  -23.9911   19.2930 C   0  0  0  0  0  0  0  0  0  0  0  0
  -26.9737  -23.3128   20.4339 C   0  0  0  0  0  0  0  0  0  0  0  0
  -29.4118  -16.6761   20.4721 C   0  0  0  0  0  0  0  0  0  0  0  0
  -29.8519  -14.7515   18.9388 C   0  0  0  0  0  0  0  0  0  0  0  0
  -23.9206  -28.5902   23.6012 C   0  0  0  0  0  0  0  0  0  0  0  0
  -25.7401  -30.7045   25.2569 C   0  0  0  0  0  0  0  0  0  0  0  0
  -28.6602  -31.3485   26.9018 C   0  0  0  0  0  0  0  0  0  0  0  0
  -25.6955  -20.2628   23.7680 C   0  0  0  0  0  0  0  0  0  0  0  0
  -19.3392  -30.2594   22.0907 C   0  0  0  0  0  0  0  0  0  0  0  0
  -24.5128  -27.2474   25.6511 C   0  0  0  0  0  0  0  0  0  0  0  0
  -26.8817  -28.5876   24.4948 C   0  0  0  0  0  0  0  0  0  0  0  0
  -20.7162  -30.8856   22.2957 C   0  0  0  0  0  0  0  0  0  0  0  0
  -29.2430  -19.4078   24.3893 C   0  0  0  0  0  0  0  0  0  0  0  0
  -21.7919  -30.0437   21.6168 C   0  0  0  0  0  0  0  0  0  0  0  0
  -29.4349  -18.1489   23.5453 C   0  0  0  0  0  0  0  0  0  0  0  0
  -27.7984  -19.5638   24.8546 C   0  0  0  0  0  0  0  0  0  0  0  0
  -26.9945  -18.2726   22.9051 C   0  0  0  0  0  0  0  0  0  0  0  0
  -21.8519  -28.6349   22.2194 C   0  0  1  0  0  0  0  0  0  0  0  0
  -24.4224  -28.6320   25.0168 C   0  0  1  0  0  0  0  0  0  0  0  0
  -28.4294  -18.1101   22.3813 C   0  0  2  0  0  0  0  0  0  0  0  0
  -29.8753  -33.1783   28.1154 C   0  0  0  0  0  0  0  0  0  0  0  0
  -26.4106  -32.0253   22.5893 C   0  0  0  0  0  0  0  0  0  0  0  0
  -28.3131  -33.1917   23.7244 C   0  0  0  0  0  0  0  0  0  0  0  0
  -25.9695  -33.6225   24.4625 C   0  0  0  0  0  0  0  0  0  0  0  0
  -23.7427  -20.9093   22.4085 C   0  0  0  0  0  0  0  0  0  0  0  0
  -28.7336  -29.7902   29.4168 C   0  0  0  0  0  0  0  0  0  0  0  0
  -26.1721  -22.7350   21.5273 C   0  0  0  0  0  0  0  0  0  0  0  0
  -30.2987  -23.5690   21.9812 C   0  0  0  0  0  0  0  0  0  0  0  0
  -29.2495  -22.6138   21.4081 C   0  0  0  0  0  0  0  0  0  0  0  0
  -25.9915  -21.2076   21.4394 C   0  0  0  0  0  0  0  0  0  0  0  0
  -29.6960  -24.7246   22.7716 C   0  0  0  0  0  0  0  0  0  1  0  0
  -27.0543  -31.4058   25.0117 C   0  0  1  0  0  0  0  0  0  0  0  0
  -28.9367  -31.9893   28.2499 C   0  0  2  0  0  0  0  0  0  0  0  0
  -25.2657  -24.3446   18.8241 C   0  0  0  0  0  0  0  0  0  0  0  0
  -26.9350  -32.5330   23.9474 C   0  0  0  0  0  0  0  0  0  0  0  0
  -27.7193  -24.3449   18.5588 N   0  0  0  0  0  0  0  0  0  0  0  0
  -27.8388  -15.7781   21.8384 N   0  0  0  0  0  0  0  0  0  0  0  0
  -28.3382  -23.2529   20.3909 N   0  0  0  0  0  0  0  0  0  0  0  0
  -28.5822  -16.8570   21.5394 N   0  0  0  0  0  0  0  0  0  0  0  0
  -25.7106  -29.3279   24.9929 N   0  0  0  0  0  0  0  0  0  0  0  0
  -26.8612  -19.4800   23.7340 N   0  0  0  0  0  0  0  0  0  0  0  0
  -30.2280  -17.6592   20.0367 N   0  0  0  0  0  0  0  0  0  0  0  0
  -29.5122  -13.4261   18.6350 N   0  0  0  0  0  0  0  0  0  0  0  0
  -22.5450  -28.6577   23.4897 N   0  0  0  0  0  0  0  0  0  0  0  0
  -27.5228  -31.8625   26.3157 N   0  0  0  0  0  0  0  0  0  0  0  0
  -25.1765  -20.6909   22.5367 N   0  0  0  0  0  0  0  0  0  0  0  0
  -29.5598  -31.0009   29.1751 N   0  3  0  0  0  0  0  0  0  0  0  0
  -30.7250  -15.3343   18.2522 O   0  0  0  0  0  0  0  0  0  0  0  0
  -24.7223  -28.5047   22.6783 O   0  0  0  0  0  0  0  0  0  0  0  0
  -24.7773  -31.3529   25.6743 O   0  0  0  0  0  0  0  0  0  0  0  0
  -29.3830  -30.4816   26.4155 O   0  0  0  0  0  0  0  0  0  0  0  0
  -25.1551  -20.5698   24.8383 O   0  0  0  0  0  0  0  0  0  0  0  0
  -25.9479   -9.7749   20.8710 O   0  0  0  0  0  0  0  0  0  0  0  0
  -28.9299  -24.1912   23.8509 O   0  0  0  0  0  0  0  0  0  1  0  0
  -20.4784   -9.3955   21.4584 F   0  0  0  0  0  0  0  0  0  0  0  0
  -24.3872   -8.6166   18.9049 F   0  0  0  0  0  0  0  0  0  0  0  0
  -24.2506  -23.9311   19.6527 F   0  0  0  0  0  0  0  0  0  0  0  0
  -25.0525  -25.6938   18.6762 F   0  0  0  0  0  0  0  0  0  0  0  0
  -24.9561  -23.8070   17.5996 F   0  0  0  0  0  0  0  0  0  0  0  0
  1  2  1  0  0  0  0
  1  5  2  0  0  0  0
  2  6  2  0  0  0  0
  3  8  2  0  0  0  0
  3 16  1  0  0  0  0
  4  9  1  0  0  0  0
  4 16  2  0  0  0  0
  5 18  1  0  0  0  0
  6 20  1  0  0  0  0
  7 10  2  0  0  0  0
  7 19  1  0  0  0  0
  8 22  1  0  0  0  0
  9 22  2  0  0  0  0
 10 23  1  0  0  0  0
 11 12  2  0  0  0  0
 11 24  1  0  0  0  0
 12 25  1  0  0  0  0
 13 21  1  0  0  0  0
 13 23  2  0  0  0  0
 14 25  2  0  0  0  0
 14 26  1  0  0  0  0
 15 63  2  0  0  0  0
 15 65  1  0  0  0  0
 16 27  1  0  0  0  0
 17 27  1  0  0  0  0
 17 30  2  0  0  0  0
 17 31  1  0  0  0  0
 18 20  2  0  0  0  0
 18 36  1  0  0  0  0
 19 21  2  0  0  0  0
 19 37  1  0  0  0  0
 20 45  1  0  0  0  0
 21 38  1  0  0  0  0
 22 80  1  0  0  0  0
 23 81  1  0  0  0  0
 24 26  2  0  0  0  0
 24 80  1  0  0  0  0
 25 82  1  0  0  0  0
 26 83  1  0  0  0  0
 27 64  2  0  0  0  0
 28 29  2  0  0  0  0
 28 61  1  0  0  0  0
 28 63  1  0  0  0  0
 29 54  1  0  0  0  0
 29 65  1  0  0  0  0
 30 66  1  0  0  0  0
 30 69  1  0  0  0  0
 31 70  1  0  0  0  0
 31 75  2  0  0  0  0
 32 46  1  0  0  0  0
 32 71  1  0  0  0  0
 32 76  2  0  0  0  0
 33 59  1  0  0  0  0
 33 67  1  0  0  0  0
 33 77  2  0  0  0  0
 34 60  1  0  0  0  0
 34 72  1  0  0  0  0
 34 78  2  0  0  0  0
 35 68  1  0  0  0  0
 35 73  1  0  0  0  0
 35 79  2  0  0  0  0
 36 39  1  0  0  0  0
 37 46  1  0  0  0  0
 38 67  1  0  0  0  0
 39 41  1  0  0  0  0
 40 42  1  0  0  0  0
 40 43  1  0  0  0  0
 41 45  1  0  0  0  0
 42 47  1  0  0  0  0
 43 68  1  0  0  0  0
 44 47  1  0  0  0  0
 44 68  1  0  0  0  0
 45 71  1  0  0  0  0
 46 67  1  0  0  0  0
 47 66  1  0  0  0  0
 48 60  1  0  0  0  0
 49 62  1  0  0  0  0
 50 62  1  0  0  0  0
 51 62  1  0  0  0  0
 52 73  1  0  0  0  0
 53 74  1  0  0  0  0
 54 57  1  0  0  0  0
 55 56  1  0  0  0  0
 55 58  1  0  0  0  0
 56 65  1  0  0  0  0
 57 73  1  0  0  0  0
 58 81  1  0  0  0  0
 59 62  1  0  0  0  0
 59 72  1  0  0  0  0
 60 74  1  0  0  0  0
 61 84  1  0  0  0  0
 61 85  1  0  0  0  0
 61 86  1  0  0  0  0
 64 66  1  0  0  0  0
M  CHG  1  74   1
M  ISO  4  35 100  58 101  73 100  81 101
M  END
> <Batch ID>
0060

> <Smiles>
CNC(C)C(=O)NC(C(=O)N1Cc2cc([101O:1][101CH2:1]CCn3cnc(C(F)(F)F)c3CC[100N:0](C)[100C:0](=O)N3CCCC(n4nc(-c5ccc(Oc6ccc(F)cc6F)cc5)c(C(N)=O)c4N)C3)ccc2CC1C(=O)NC1CCCc2ccccc21)C(C)(C)C

> <Shape>
0.234

> <Color>
0.059

> <Negative vol penalty>
0.000

$$$$

  -OEChem-04052317553D

 79 87  0     1  0  0  0  0  0999 V2000
  -29.7346  -12.3219   19.5535 C   0  0  0  0  0  0  0  0  0  0  0  0
  -29.6422  -13.6576   19.1756 C   0  0  0  0  0  0  0  0  0  0  0  0
  -22.1456  -27.4330   23.1832 C   0  0  0  0  0  0  0  0  0  0  0  0
  -22.8163  -28.9493   21.4259 C   0  0  0  0  0  0  0  0  0  0  0  0
  -28.5864  -11.6216   19.9211 C   0  0  0  0  0  0  0  0  0  0  0  0
  -28.4013  -14.2935   19.1641 C   0  0  0  0  0  0  0  0  0  0  0  0
  -28.5619  -18.9047   21.2514 C   0  0  0  0  0  0  0  0  0  0  0  0
  -21.2169  -28.3697   23.6369 C   0  0  0  0  0  0  0  0  0  0  0  0
  -21.8876  -29.8860   21.8796 C   0  0  0  0  0  0  0  0  0  0  0  0
  -29.0897  -19.9364   20.4763 C   0  0  0  0  0  0  0  0  0  0  0  0
  -18.4172  -30.2176   25.0375 C   0  0  0  0  0  0  0  0  0  0  0  0
  -17.1387  -29.7608   25.3574 C   0  0  0  0  0  0  0  0  0  0  0  0
  -26.8546  -20.6643   19.9341 C   0  0  0  0  0  0  0  0  0  0  0  0
  -16.8494  -28.9820   23.0887 C   0  0  0  0  0  0  0  0  0  0  0  0
  -28.8286  -25.0258   18.2237 C   0  0  0  0  0  0  0  0  0  0  0  0
  -22.9454  -27.7229   22.0777 C   0  0  0  0  0  0  0  0  0  0  0  0
  -23.6948  -25.7431   20.6542 C   0  0  0  0  0  0  0  0  0  0  0  0
  -27.3321  -12.2520   19.9234 C   0  0  0  0  0  0  0  0  0  0  0  0
  -27.1742  -18.7381   21.3650 C   0  0  0  0  0  0  0  0  0  0  0  0
  -27.2350  -13.6006   19.5309 C   0  0  0  0  0  0  0  0  0  0  0  0
  -26.3118  -19.6312   20.7133 C   0  0  0  0  0  0  0  0  0  0  0  0
  -21.0879  -29.5961   22.9851 C   0  0  0  0  0  0  0  0  0  0  0  0
  -28.2361  -20.8146   19.8152 C   0  0  0  0  0  0  0  0  0  0  0  0
  -18.9118  -30.0568   23.7432 C   0  0  0  0  0  0  0  0  0  0  0  0
  -16.3548  -29.1430   24.3830 C   0  0  0  0  0  0  0  0  0  0  0  0
  -18.1279  -29.4389   22.7688 C   0  0  0  0  0  0  0  0  0  0  0  0
  -23.9053  -26.7560   21.6089 C   0  0  0  0  0  0  0  0  0  0  0  0
  -30.0463  -24.3939   18.5123 C   0  0  0  0  0  0  0  0  0  0  0  0
  -24.9057  -25.1015   20.5617 C   0  0  0  0  0  0  0  0  0  0  0  0
  -22.5105  -25.4118   19.9170 C   0  0  0  0  0  0  0  0  0  0  0  0
  -25.1202  -16.4384   20.5927 C   0  0  0  0  0  0  0  0  0  0  0  0
  -30.5111  -26.9215   21.7356 C   0  0  0  0  0  0  0  0  0  0  0  0
  -23.0016  -18.3488   22.1368 C   0  0  0  0  0  0  0  0  0  0  0  0
  -22.1657  -21.4822   23.1996 C   0  0  0  0  0  0  0  0  0  0  0  0
  -26.1126  -11.4407   20.2832 C   0  0  0  0  0  0  0  0  0  0  0  0
  -26.6206  -17.6364   22.2266 C   0  0  0  0  0  0  0  0  0  0  0  0
  -24.8144  -19.5079   20.8194 C   0  0  0  0  0  0  0  0  0  0  0  0
  -24.8873  -12.2927   20.6043 C   0  0  0  0  0  0  0  0  0  0  0  0
  -28.8151  -24.0796   23.1093 C   0  0  0  0  0  0  0  0  0  0  0  0
  -24.7056  -13.3837   19.5539 C   0  0  0  0  0  0  0  0  0  0  0  0
  -27.3423  -24.3655   22.8187 C   0  0  0  0  0  0  0  0  0  0  0  0
  -29.5830  -25.3618   23.4149 C   0  0  0  0  0  0  0  0  0  0  0  0
  -27.9983  -26.6931   22.0593 C   0  0  0  0  0  0  0  0  0  0  0  0
  -25.9103  -14.3322   19.5295 C   0  0  1  0  0  0  0  0  0  0  0  0
  -25.1925  -17.2485   21.8561 C   0  0  1  0  0  0  0  0  0  0  0  0
  -27.1927  -25.4278   21.7153 C   0  0  2  0  0  0  0  0  0  0  0  0
  -31.6216  -28.0156   19.8004 C   0  0  0  0  0  0  0  0  0  0  0  0
  -20.3551  -22.7370   24.4016 C   0  0  0  0  0  0  0  0  0  0  0  0
  -21.2606  -18.2293   19.6338 C   0  0  0  0  0  0  0  0  0  0  0  0
  -19.9917  -20.2031   20.5068 C   0  0  0  0  0  0  0  0  0  0  0  0
  -20.0023  -18.0632   21.7887 C   0  0  0  0  0  0  0  0  0  0  0  0
  -24.0129  -22.3111   25.3583 C   0  0  0  0  0  0  0  0  0  0  0  0
  -30.5600  -23.0548   18.0419 C   0  0  0  0  0  0  0  0  0  0  0  0
  -30.1703  -21.9208   18.9838 C   0  0  0  0  0  0  0  0  0  1  0  0
  -30.3456  -27.3400   20.2963 C   0  0  1  0  0  0  0  0  0  0  0  0
  -22.0928  -19.4840   21.7313 C   0  0  1  0  0  0  0  0  0  0  0  0
  -21.6739  -21.9928   24.5420 C   0  0  2  0  0  0  0  0  0  0  0  0
  -20.8650  -18.9963   20.9114 C   0  0  0  0  0  0  0  0  0  0  0  0
  -28.7717  -26.2061   18.8468 N   0  0  0  0  0  0  0  0  0  0  0  0
  -25.1518  -26.7614   22.0886 N   0  0  0  0  0  0  0  0  0  0  0  0
  -30.7770  -25.1666   19.3210 N   0  0  0  0  0  0  0  0  0  0  0  0
  -25.7354  -25.7439   21.4328 N   0  0  0  0  0  0  0  0  0  0  0  0
  -29.9585  -26.2197   19.4750 N   0  0  0  0  0  0  0  0  0  0  0  0
  -24.3217  -18.4107   21.6685 N   0  0  0  0  0  0  0  0  0  0  0  0
  -29.3972  -26.3536   22.3542 N   0  0  0  0  0  0  0  0  0  0  0  0
  -25.3309  -24.0560   19.8209 N   0  0  0  0  0  0  0  0  0  0  0  0
  -21.3539  -26.1731   20.1334 N   0  0  0  0  0  0  0  0  0  0  0  0
  -25.8440  -15.2621   20.6364 N   0  0  0  0  0  0  0  0  0  0  0  0
  -21.7482  -20.1900   22.9605 N   0  0  0  0  0  0  0  0  0  0  0  0
  -22.6749  -22.9194   25.1421 N   0  3  0  0  0  0  0  0  0  0  0  0
  -22.4744  -24.4581   19.1028 O   0  0  0  0  0  0  0  0  0  0  0  0
  -24.4558  -16.8495   19.6486 O   0  0  0  0  0  0  0  0  0  0  0  0
  -31.5996  -27.0923   22.2908 O   0  0  0  0  0  0  0  0  0  0  0  0
  -22.5585  -17.4442   22.8488 O   0  0  0  0  0  0  0  0  0  0  0  0
  -22.8486  -22.1630   22.4376 O   0  0  0  0  0  0  0  0  0  0  0  0
  -20.1816  -30.5102   23.4274 O   0  0  0  0  0  0  0  0  0  0  0  0
  -28.7486  -21.8221   19.0574 O   0  0  0  0  0  0  0  0  0  1  0  0
  -15.1277  -28.7029   24.6907 F   0  0  0  0  0  0  0  0  0  0  0  0
  -18.5981  -29.2805   21.5240 F   0  0  0  0  0  0  0  0  0  0  0  0
  1  2  1  0  0  0  0
  1  5  2  0  0  0  0
  2  6  2  0  0  0  0
  3  8  2  0  0  0  0
  3 16  1  0  0  0  0
  4  9  1  0  0  0  0
  4 16  2  0  0  0  0
  5 18  1  0  0  0  0
  6 20  1  0  0  0  0
  7 10  2  0  0  0  0
  7 19  1  0  0  0  0
  8 22  1  0  0  0  0
  9 22  2  0  0  0  0
 10 23  1  0  0  0  0
 11 12  2  0  0  0  0
 11 24  1  0  0  0  0
 12 25  1  0  0  0  0
 13 21  1  0  0  0  0
 13 23  2  0  0  0  0
 14 25  2  0  0  0  0
 14 26  1  0  0  0  0
 15 28  1  0  0  0  0
 15 59  2  0  0  0  0
 16 27  1  0  0  0  0
 17 27  1  0  0  0  0
 17 29  2  0  0  0  0
 17 30  1  0  0  0  0
 18 20  2  0  0  0  0
 18 35  1  0  0  0  0
 19 21  2  0  0  0  0
 19 36  1  0  0  0  0
 20 44  1  0  0  0  0
 21 37  1  0  0  0  0
 22 76  1  0  0  0  0
 23 77  1  0  0  0  0
 24 26  2  0  0  0  0
 24 76  1  0  0  0  0
 25 78  1  0  0  0  0
 26 79  1  0  0  0  0
 27 60  2  0  0  0  0
 28 53  1  0  0  0  0
 28 61  2  0  0  0  0
 29 62  1  0  0  0  0
 29 66  1  0  0  0  0
 30 67  1  0  0  0  0
 30 71  2  0  0  0  0
 31 45  1  0  0  0  0
 31 68  1  0  0  0  0
 31 72  2  0  0  0  0
 32 55  1  0  0  0  0
 32 65  1  0  0  0  0
 32 73  2  0  0  0  0
 33 56  1  0  0  0  0
 33 64  1  0  0  0  0
 33 74  2  0  0  0  0
 34 57  1  0  0  0  0
 34 69  1  0  0  0  0
 34 75  2  0  0  0  0
 35 38  1  0  0  0  0
 36 45  1  0  0  0  0
 37 64  1  0  0  0  0
 38 40  1  0  0  0  0
 39 41  1  0  0  0  0
 39 42  1  0  0  0  0
 40 44  1  0  0  0  0
 41 46  1  0  0  0  0
 42 65  1  0  0  0  0
 43 46  1  0  0  0  0
 43 65  1  0  0  0  0
 44 68  1  0  0  0  0
 45 64  1  0  0  0  0
 46 62  1  0  0  0  0
 47 55  1  0  0  0  0
 48 57  1  0  0  0  0
 49 58  1  0  0  0  0
 50 58  1  0  0  0  0
 51 58  1  0  0  0  0
 52 70  1  0  0  0  0
 53 54  1  0  0  0  0
 54 77  1  0  0  0  0
 55 63  1  0  0  0  0
 56 58  1  0  0  0  0
 56 69  1  0  0  0  0
 57 70  1  0  0  0  0
 59 63  1  0  0  0  0
 60 62  1  0  0  0  0
 61 63  1  0  0  0  0
M  CHG  1  70   1
M  ISO  4  32 100  54 101  55 100  77 101
M  END
> <Batch ID>
0060

> <Smiles>
CNC(C)C(=O)NC(C(=O)N1Cc2cc([101O:1][101CH2:1]Cc3cnn([100CH:0](C)[100C:0](=O)N4CCCC(n5nc(-c6ccc(Oc7ccc(F)cc7F)cc6)c(C(N)=O)c5N)C4)n3)ccc2CC1C(=O)NC1CCCc2ccccc21)C(C)(C)C

> <Shape>
0.215

> <Color>
0.075

> <Negative vol penalty>
0.000

$$$$

  -OEChem-04052317553D

 86 94  0     1  0  0  0  0  0999 V2000
  -16.7116  -29.3456   24.1574 C   0  0  0  0  0  0  0  0  0  0  0  0
  -17.0438  -28.6345   23.0088 C   0  0  0  0  0  0  0  0  0  0  0  0
  -26.8612  -13.4224   22.5732 C   0  0  0  0  0  0  0  0  0  0  0  0
  -26.3549  -13.0468   20.2409 C   0  0  0  0  0  0  0  0  0  0  0  0
  -17.5759  -30.3257   24.6435 C   0  0  0  0  0  0  0  0  0  0  0  0
  -18.2400  -28.9040   22.3448 C   0  0  0  0  0  0  0  0  0  0  0  0
  -21.8054  -24.8847   19.4056 C   0  0  0  0  0  0  0  0  0  0  0  0
  -25.6742  -12.7846   22.9336 C   0  0  0  0  0  0  0  0  0  0  0  0
  -25.1679  -12.4090   20.6013 C   0  0  0  0  0  0  0  0  0  0  0  0
  -21.9322  -24.5541   18.0571 C   0  0  0  0  0  0  0  0  0  0  0  0
  -22.1796  -10.3629   20.9201 C   0  0  0  0  0  0  0  0  0  0  0  0
  -21.8640   -9.1665   20.2761 C   0  0  0  0  0  0  0  0  0  0  0  0
  -23.7974  -26.0720   17.8666 C   0  0  0  0  0  0  0  0  0  0  0  0
  -23.9045   -8.1786   21.1113 C   0  0  0  0  0  0  0  0  0  0  0  0
  -28.3369  -23.5546   13.8876 C   0  0  0  0  0  0  0  0  0  0  0  0
  -28.0362  -21.4341   14.3855 C   0  0  0  0  0  0  0  0  0  0  0  0
  -27.2016  -13.5535   21.2268 C   0  0  0  0  0  0  0  0  0  0  0  0
  -29.6913  -13.6193   20.6749 C   0  0  0  0  0  0  0  0  0  0  0  0
  -18.7879  -30.6006   23.9906 C   0  0  0  0  0  0  0  0  0  0  0  0
  -22.6682  -25.8211   19.9931 C   0  0  0  0  0  0  0  0  0  0  0  0
  -19.1207  -29.8896   22.8218 C   0  0  0  0  0  0  0  0  0  0  0  0
  -23.6811  -26.4108   19.2234 C   0  0  0  0  0  0  0  0  0  0  0  0
  -27.3598  -22.5424   13.9375 C   0  0  0  0  0  0  0  0  0  0  0  0
  -24.8276  -12.2779   21.9477 C   0  0  0  0  0  0  0  0  0  0  0  0
  -22.9265  -25.1499   17.2867 C   0  0  0  0  0  0  0  0  0  0  0  0
  -23.3578  -10.4671   21.6596 C   0  0  0  0  0  0  0  0  0  0  0  0
  -22.7264   -8.0744   20.3717 C   0  0  0  0  0  0  0  0  0  0  0  0
  -24.2201   -9.3750   21.7552 C   0  0  0  0  0  0  0  0  0  0  0  0
  -28.4273  -14.2127   20.8539 C   0  0  0  0  0  0  0  0  0  0  0  0
  -30.5143  -14.6625   20.3274 C   0  0  0  0  0  0  0  0  0  0  0  0
  -30.0861  -12.2477   20.8105 C   0  0  0  0  0  0  0  0  0  0  0  0
  -22.2920  -28.6552   21.3823 C   0  0  0  0  0  0  0  0  0  0  0  0
  -25.4568  -28.3298   22.0149 C   0  0  0  0  0  0  0  0  0  0  0  0
  -28.4457  -26.9066   21.1856 C   0  0  0  0  0  0  0  0  0  0  0  0
  -31.6585  -19.1105   17.5224 C   0  0  0  0  0  0  0  0  0  0  0  0
  -19.6677  -31.7020   24.5268 C   0  0  0  0  0  0  0  0  0  0  0  0
  -22.5353  -26.1469   21.4554 C   0  0  0  0  0  0  0  0  0  0  0  0
  -24.6457  -27.4069   19.8113 C   0  0  0  0  0  0  0  0  0  0  0  0
  -21.0912  -31.6667   23.9767 C   0  0  0  0  0  0  0  0  0  0  0  0
  -29.7539  -19.6524   20.4466 C   0  0  0  0  0  0  0  0  0  0  0  0
  -21.0743  -31.4711   22.4640 C   0  0  0  0  0  0  0  0  0  0  0  0
  -29.3294  -18.2277   20.7996 C   0  0  0  0  0  0  0  0  0  0  0  0
  -29.7096  -19.9084   18.9390 C   0  0  0  0  0  0  0  0  0  0  0  0
  -30.0505  -17.4980   18.4954 C   0  0  0  0  0  0  0  0  0  0  0  0
  -20.4209  -30.1359   22.0877 C   0  0  1  0  0  0  0  0  0  0  0  0
  -23.1416  -27.4974   21.8242 C   0  0  1  0  0  0  0  0  0  0  0  0
  -30.1438  -17.1966   19.9991 C   0  0  2  0  0  0  0  0  0  0  0  0
  -30.8615  -26.8615   21.8634 C   0  0  0  0  0  0  0  0  0  0  0  0
  -25.8690  -31.0609   20.7184 C   0  0  0  0  0  0  0  0  0  0  0  0
  -28.3133  -30.5411   20.5639 C   0  0  0  0  0  0  0  0  0  0  0  0
  -27.2080  -30.6796   22.7959 C   0  0  0  0  0  0  0  0  0  0  0  0
  -33.6945  -19.8314   15.4901 C   0  0  0  0  0  0  0  0  0  0  0  0
  -33.1220  -22.2200   15.9955 C   0  0  0  0  0  0  0  0  0  0  0  0
  -34.1119  -20.7662   17.7792 C   0  0  0  0  0  0  0  0  0  0  0  0
  -28.3475  -24.0071   21.7708 C   0  0  0  0  0  0  0  0  0  0  0  0
  -25.8982  -22.6489   13.5824 C   0  0  0  0  0  0  0  0  0  0  0  0
  -25.0023  -23.0473   14.7604 C   0  0  0  0  0  0  0  0  0  0  0  0
  -23.5163  -23.0750   14.3999 C   0  0  0  0  0  0  0  0  0  0  0  0
  -30.4196  -21.0142   15.0350 C   0  0  0  0  0  0  0  0  0  0  0  0
  -30.7541  -21.2446   16.5065 C   0  0  0  0  0  0  0  0  0  0  0  0
  -22.6622  -23.5128   15.5820 C   0  0  0  0  0  0  0  0  0  1  0  0
  -26.7336  -28.6983   21.2988 C   0  0  1  0  0  0  0  0  0  0  0  0
  -29.4978  -26.2092   22.0290 C   0  0  2  0  0  0  0  0  0  0  0  0
  -27.0117  -30.2277   21.3324 C   0  0  0  0  0  0  0  0  0  0  0  0
  -33.1794  -20.7969   16.5627 C   0  0  0  0  0  0  0  0  0  0  0  0
  -29.5422  -23.1274   14.2733 N   0  0  0  0  0  0  0  0  0  0  0  0
  -28.4413  -15.5308   20.6381 N   0  0  0  0  0  0  0  0  0  0  0  0
  -29.3269  -21.8344   14.5699 N   0  0  0  0  0  0  0  0  0  0  0  0
  -29.7241  -15.7742   20.3200 N   0  0  0  0  0  0  0  0  0  0  0  0
  -24.4711  -27.6974   21.2440 N   0  0  0  0  0  0  0  0  0  0  0  0
  -30.4589  -18.8757   18.2103 N   0  0  0  0  0  0  0  0  0  0  0  0
  -31.8296  -14.7283   20.0305 N   0  0  0  0  0  0  0  0  0  0  0  0
  -29.1143  -11.3054   21.1739 N   0  0  0  0  0  0  0  0  0  0  0  0
  -21.3425  -29.0421   22.3087 N   0  0  0  0  0  0  0  0  0  0  0  0
  -27.7869  -27.8861   21.8982 N   0  0  0  0  0  0  0  0  0  0  0  0
  -31.8429  -20.3869   16.9701 N   0  0  0  0  0  0  0  0  0  0  0  0
  -29.6112  -24.7764   21.6351 N   0  3  0  0  0  0  0  0  0  0  0  0
  -31.2692  -11.8714   20.6312 O   0  0  0  0  0  0  0  0  0  0  0  0
  -22.4846  -29.1611   20.2829 O   0  0  0  0  0  0  0  0  0  0  0  0
  -25.3412  -28.5868   23.2158 O   0  0  0  0  0  0  0  0  0  0  0  0
  -28.2325  -26.6144   20.0111 O   0  0  0  0  0  0  0  0  0  0  0  0
  -32.5159  -18.2260   17.4006 O   0  0  0  0  0  0  0  0  0  0  0  0
  -23.6694  -11.6553   22.2990 O   0  0  0  0  0  0  0  0  0  0  0  0
  -23.0521  -24.8295   15.9701 O   0  0  0  0  0  0  0  0  0  1  0  0
  -22.4223   -6.9251   19.7545 F   0  0  0  0  0  0  0  0  0  0  0  0
  -25.3528   -9.4688   22.4652 F   0  0  0  0  0  0  0  0  0  0  0  0
  1  2  1  0  0  0  0
  1  5  2  0  0  0  0
  2  6  2  0  0  0  0
  3  8  2  0  0  0  0
  3 17  1  0  0  0  0
  4  9  1  0  0  0  0
  4 17  2  0  0  0  0
  5 19  1  0  0  0  0
  6 21  1  0  0  0  0
  7 10  2  0  0  0  0
  7 20  1  0  0  0  0
  8 24  1  0  0  0  0
  9 24  2  0  0  0  0
 10 25  1  0  0  0  0
 11 12  2  0  0  0  0
 11 26  1  0  0  0  0
 12 27  1  0  0  0  0
 13 22  1  0  0  0  0
 13 25  2  0  0  0  0
 14 27  2  0  0  0  0
 14 28  1  0  0  0  0
 15 23  1  0  0  0  0
 15 66  2  0  0  0  0
 16 23  2  0  0  0  0
 16 68  1  0  0  0  0
 17 29  1  0  0  0  0
 18 29  1  0  0  0  0
 18 30  2  0  0  0  0
 18 31  1  0  0  0  0
 19 21  2  0  0  0  0
 19 36  1  0  0  0  0
 20 22  2  0  0  0  0
 20 37  1  0  0  0  0
 21 45  1  0  0  0  0
 22 38  1  0  0  0  0
 23 56  1  0  0  0  0
 24 83  1  0  0  0  0
 25 84  1  0  0  0  0
 26 28  2  0  0  0  0
 26 83  1  0  0  0  0
 27 85  1  0  0  0  0
 28 86  1  0  0  0  0
 29 67  2  0  0  0  0
 30 69  1  0  0  0  0
 30 72  1  0  0  0  0
 31 73  1  0  0  0  0
 31 78  2  0  0  0  0
 32 46  1  0  0  0  0
 32 74  1  0  0  0  0
 32 79  2  0  0  0  0
 33 62  1  0  0  0  0
 33 70  1  0  0  0  0
 33 80  2  0  0  0  0
 34 63  1  0  0  0  0
 34 75  1  0  0  0  0
 34 81  2  0  0  0  0
 35 71  1  0  0  0  0
 35 76  1  0  0  0  0
 35 82  2  0  0  0  0
 36 39  1  0  0  0  0
 37 46  1  0  0  0  0
 38 70  1  0  0  0  0
 39 41  1  0  0  0  0
 40 42  1  0  0  0  0
 40 43  1  0  0  0  0
 41 45  1  0  0  0  0
 42 47  1  0  0  0  0
 43 71  1  0  0  0  0
 44 47  1  0  0  0  0
 44 71  1  0  0  0  0
 45 74  1  0  0  0  0
 46 70  1  0  0  0  0
 47 69  1  0  0  0  0
 48 63  1  0  0  0  0
 49 64  1  0  0  0  0
 50 64  1  0  0  0  0
 51 64  1  0  0  0  0
 52 65  1  0  0  0  0
 53 65  1  0  0  0  0
 54 65  1  0  0  0  0
 55 77  1  0  0  0  0
 56 57  1  0  0  0  0
 57 58  1  0  0  0  0
 58 61  1  0  0  0  0
 59 60  1  0  0  0  0
 59 68  1  0  0  0  0
 60 76  1  0  0  0  0
 61 84  1  0  0  0  0
 62 64  1  0  0  0  0
 62 75  1  0  0  0  0
 63 77  1  0  0  0  0
 65 76  1  0  0  0  0
 66 68  1  0  0  0  0
 67 69  1  0  0  0  0
M  CHG  1  77   1
M  ISO  4  35 100  61 101  76 100  84 101
M  END
> <Batch ID>
0060

> <Smiles>
CNC(C)C(=O)NC(C(=O)N1Cc2cc([101O:1][101CH2:1]CCCc3cnn(CC[100N:0]([100C:0](=O)N4CCCC(n5nc(-c6ccc(Oc7ccc(F)cc7F)cc6)c(C(N)=O)c5N)C4)C(C)(C)C)c3)ccc2CC1C(=O)NC1CCCc2ccccc21)C(C)(C)C

> <Shape>
0.247

> <Color>
0.100

> <Negative vol penalty>
0.000

$$$$

  -OEChem-04052317553D

 82 90  0     1  0  0  0  0  0999 V2000
  -29.0269  -36.7486   24.3501 C   0  0  0  0  0  0  0  0  0  0  0  0
  -29.2664  -35.9604   23.2290 C   0  0  0  0  0  0  0  0  0  0  0  0
  -28.1282  -14.0798   22.3084 C   0  0  0  0  0  0  0  0  0  0  0  0
  -26.7919  -15.3746   20.7673 C   0  0  0  0  0  0  0  0  0  0  0  0
  -28.4033  -36.1969   25.4684 C   0  0  0  0  0  0  0  0  0  0  0  0
  -28.8834  -34.6196   23.2260 C   0  0  0  0  0  0  0  0  0  0  0  0
  -26.5128  -29.5006   18.8110 C   0  0  0  0  0  0  0  0  0  0  0  0
  -27.4364  -12.9263   21.9391 C   0  0  0  0  0  0  0  0  0  0  0  0
  -26.1001  -14.2210   20.3980 C   0  0  0  0  0  0  0  0  0  0  0  0
  -26.8021  -28.1926   18.4247 C   0  0  0  0  0  0  0  0  0  0  0  0
  -27.4541  -10.7254   19.3723 C   0  0  0  0  0  0  0  0  0  0  0  0
  -28.2004   -9.5735   19.1241 C   0  0  0  0  0  0  0  0  0  0  0  0
  -25.6607  -27.3681   20.3834 C   0  0  0  0  0  0  0  0  0  0  0  0
  -27.0145   -8.4250   20.8880 C   0  0  0  0  0  0  0  0  0  0  0  0
  -27.8059  -15.3040   21.7226 C   0  0  0  0  0  0  0  0  0  0  0  0
  -29.6924  -17.0089   21.5178 C   0  0  0  0  0  0  0  0  0  0  0  0
  -28.0037  -34.8512   25.4755 C   0  0  0  0  0  0  0  0  0  0  0  0
  -25.8035  -29.7530   19.9941 C   0  0  0  0  0  0  0  0  0  0  0  0
  -28.2550  -34.0490   24.3460 C   0  0  0  0  0  0  0  0  0  0  0  0
  -25.3615  -28.6800   20.7812 C   0  0  0  0  0  0  0  0  0  0  0  0
  -26.4224  -12.9969   20.9839 C   0  0  0  0  0  0  0  0  0  0  0  0
  -26.3785  -27.1262   19.2124 C   0  0  0  0  0  0  0  0  0  0  0  0
  -26.4880  -10.7272   20.3784 C   0  0  0  0  0  0  0  0  0  0  0  0
  -27.9806   -8.4233   19.8819 C   0  0  0  0  0  0  0  0  0  0  0  0
  -26.2682   -9.5770   21.1363 C   0  0  0  0  0  0  0  0  0  0  0  0
  -28.5198  -16.4961   22.1040 C   0  0  0  0  0  0  0  0  0  0  0  0
  -29.9657  -18.1474   22.2360 C   0  0  0  0  0  0  0  0  0  0  0  0
  -25.1748  -20.7073   20.5998 C   0  0  0  0  0  0  0  0  0  0  0  0
  -26.2774  -21.7320   22.0461 C   0  0  0  0  0  0  0  0  0  0  0  0
  -30.4655  -16.5017   20.4220 C   0  0  0  0  0  0  0  0  0  0  0  0
  -26.4409  -31.2768   22.7099 C   0  0  0  0  0  0  0  0  0  0  0  0
  -23.3166  -30.6652   23.3319 C   0  0  0  0  0  0  0  0  0  0  0  0
  -20.5699  -28.7282   22.7399 C   0  0  0  0  0  0  0  0  0  0  0  0
  -26.1249  -21.5525   25.5813 C   0  0  0  0  0  0  0  0  0  0  0  0
  -27.3755  -34.2870   26.7252 C   0  0  0  0  0  0  0  0  0  0  0  0
  -25.4763  -31.1686   20.3831 C   0  0  0  0  0  0  0  0  0  0  0  0
  -24.5792  -28.8967   22.0499 C   0  0  0  0  0  0  0  0  0  0  0  0
  -26.6629  -32.9557   26.5012 C   0  0  0  0  0  0  0  0  0  0  0  0
  -29.3808  -20.0903   26.5624 C   0  0  0  0  0  0  0  0  0  0  0  0
  -27.5387  -32.0127   25.6823 C   0  0  0  0  0  0  0  0  0  0  0  0
  -29.5848  -18.9979   25.5141 C   0  0  0  0  0  0  0  0  0  0  0  0
  -27.9014  -20.3643   26.8156 C   0  0  0  0  0  0  0  0  0  0  0  0
  -27.3329  -19.5925   24.5363 C   0  0  0  0  0  0  0  0  0  0  0  0
  -27.8319  -32.5970   24.2952 C   0  0  1  0  0  0  0  0  0  0  0  0
  -25.1936  -31.3286   21.8737 C   0  0  1  0  0  0  0  0  0  0  0  0
  -28.8128  -19.3247   24.2239 C   0  0  2  0  0  0  0  0  0  0  0  0
  -24.1323  -19.8683   19.9971 C   0  0  0  0  0  0  0  0  0  0  0  0
  -18.1718  -28.4487   23.4244 C   0  0  0  0  0  0  0  0  0  0  0  0
  -24.2164  -29.4017   25.9594 C   0  0  0  0  0  0  0  0  0  0  0  0
  -21.9629  -28.3246   26.1325 C   0  0  0  0  0  0  0  0  0  0  0  0
  -22.1579  -30.8115   26.1308 C   0  0  0  0  0  0  0  0  0  0  0  0
  -24.8133  -23.2523   24.3688 C   0  0  0  0  0  0  0  0  0  0  0  0
  -19.6060  -29.2091   19.9833 C   0  0  0  0  0  0  0  0  0  0  0  0
  -26.8242  -22.3301   23.2772 C   0  0  0  0  0  0  0  0  0  0  0  0
  -27.7872  -23.8080   19.4053 C   0  0  0  0  0  0  0  0  0  0  0  0
  -28.0520  -22.7266   20.4552 C   0  0  0  0  0  0  0  0  0  0  0  0
  -26.8207  -24.8868   19.8798 C   0  0  0  0  0  0  0  0  0  1  0  0
  -22.5578  -29.5354   23.9852 C   0  0  1  0  0  0  0  0  0  0  0  0
  -19.1284  -29.0914   22.4322 C   0  0  2  0  0  0  0  0  0  0  0  0
  -22.7402  -29.5140   25.5291 C   0  0  0  0  0  0  0  0  0  0  0  0
  -28.0786  -17.2469   23.1167 N   0  0  0  0  0  0  0  0  0  0  0  0
  -25.2193  -20.9620   21.9406 N   0  0  0  0  0  0  0  0  0  0  0  0
  -26.1388  -21.2713   19.8690 N   0  0  0  0  0  0  0  0  0  0  0  0
  -28.9788  -18.2432   23.1725 N   0  0  0  0  0  0  0  0  0  0  0  0
  -26.8302  -21.9208   20.8179 N   0  0  0  0  0  0  0  0  0  0  0  0
  -24.2897  -30.2993   22.3911 N   0  0  0  0  0  0  0  0  0  0  0  0
  -27.1833  -20.6292   25.5685 N   0  0  0  0  0  0  0  0  0  0  0  0
  -30.9516  -19.0657   22.1516 N   0  0  0  0  0  0  0  0  0  0  0  0
  -30.0434  -15.3205   19.7968 N   0  0  0  0  0  0  0  0  0  0  0  0
  -26.6868  -32.4331   23.4254 N   0  0  0  0  0  0  0  0  0  0  0  0
  -21.1720  -29.6684   23.5490 N   0  0  0  0  0  0  0  0  0  0  0  0
  -25.8920  -22.2749   24.4012 N   0  0  0  0  0  0  0  0  0  0  0  0
  -18.7605  -28.6356   21.0619 N   0  3  0  0  0  0  0  0  0  0  0  0
  -31.5091  -17.0700   20.0202 O   0  0  0  0  0  0  0  0  0  0  0  0
  -27.1284  -30.2624   22.7073 O   0  0  0  0  0  0  0  0  0  0  0  0
  -23.0505  -31.8298   23.6394 O   0  0  0  0  0  0  0  0  0  0  0  0
  -21.1068  -27.7101   22.3088 O   0  0  0  0  0  0  0  0  0  0  0  0
  -25.4339  -21.7284   26.5930 O   0  0  0  0  0  0  0  0  0  0  0  0
  -25.7473  -11.8714   20.6231 O   0  0  0  0  0  0  0  0  0  0  0  0
  -26.6601  -25.8486   18.8379 O   0  0  0  0  0  0  0  0  0  1  0  0
  -28.6963   -7.3166   19.6424 F   0  0  0  0  0  0  0  0  0  0  0  0
  -25.3406   -9.5723   22.1034 F   0  0  0  0  0  0  0  0  0  0  0  0
  1  2  1  0  0  0  0
  1  5  2  0  0  0  0
  2  6  2  0  0  0  0
  3  8  2  0  0  0  0
  3 15  1  0  0  0  0
  4  9  1  0  0  0  0
  4 15  2  0  0  0  0
  5 17  1  0  0  0  0
  6 19  1  0  0  0  0
  7 10  2  0  0  0  0
  7 18  1  0  0  0  0
  8 21  1  0  0  0  0
  9 21  2  0  0  0  0
 10 22  1  0  0  0  0
 11 12  2  0  0  0  0
 11 23  1  0  0  0  0
 12 24  1  0  0  0  0
 13 20  1  0  0  0  0
 13 22  2  0  0  0  0
 14 24  2  0  0  0  0
 14 25  1  0  0  0  0
 15 26  1  0  0  0  0
 16 26  1  0  0  0  0
 16 27  2  0  0  0  0
 16 30  1  0  0  0  0
 17 19  2  0  0  0  0
 17 35  1  0  0  0  0
 18 20  2  0  0  0  0
 18 36  1  0  0  0  0
 19 44  1  0  0  0  0
 20 37  1  0  0  0  0
 21 79  1  0  0  0  0
 22 80  1  0  0  0  0
 23 25  2  0  0  0  0
 23 79  1  0  0  0  0
 24 81  1  0  0  0  0
 25 82  1  0  0  0  0
 26 61  2  0  0  0  0
 27 64  1  0  0  0  0
 27 68  1  0  0  0  0
 28 47  1  0  0  0  0
 28 62  1  0  0  0  0
 28 63  2  0  0  0  0
 29 54  1  0  0  0  0
 29 62  2  0  0  0  0
 29 65  1  0  0  0  0
 30 69  1  0  0  0  0
 30 74  2  0  0  0  0
 31 45  1  0  0  0  0
 31 70  1  0  0  0  0
 31 75  2  0  0  0  0
 32 58  1  0  0  0  0
 32 66  1  0  0  0  0
 32 76  2  0  0  0  0
 33 59  1  0  0  0  0
 33 71  1  0  0  0  0
 33 77  2  0  0  0  0
 34 67  1  0  0  0  0
 34 72  1  0  0  0  0
 34 78  2  0  0  0  0
 35 38  1  0  0  0  0
 36 45  1  0  0  0  0
 37 66  1  0  0  0  0
 38 40  1  0  0  0  0
 39 41  1  0  0  0  0
 39 42  1  0  0  0  0
 40 44  1  0  0  0  0
 41 46  1  0  0  0  0
 42 67  1  0  0  0  0
 43 46  1  0  0  0  0
 43 67  1  0  0  0  0
 44 70  1  0  0  0  0
 45 66  1  0  0  0  0
 46 64  1  0  0  0  0
 48 59  1  0  0  0  0
 49 60  1  0  0  0  0
 50 60  1  0  0  0  0
 51 60  1  0  0  0  0
 52 72  1  0  0  0  0
 53 73  1  0  0  0  0
 54 72  1  0  0  0  0
 55 56  1  0  0  0  0
 55 57  1  0  0  0  0
 56 65  1  0  0  0  0
 57 80  1  0  0  0  0
 58 60  1  0  0  0  0
 58 71  1  0  0  0  0
 59 73  1  0  0  0  0
 61 64  1  0  0  0  0
 63 65  1  0  0  0  0
M  CHG  1  73   1
M  ISO  4  34 100  57 101  72 100  80 101
M  END
> <Batch ID>
0060

> <Smiles>
CNC(C)C(=O)NC(C(=O)N1Cc2cc([101O:1][101CH2:1]CCn3nc(C)nc3C[100N:0](C)[100C:0](=O)N3CCCC(n4nc(-c5ccc(Oc6ccc(F)cc6F)cc5)c(C(N)=O)c4N)C3)ccc2CC1C(=O)NC1CCCc2ccccc21)C(C)(C)C

> <Shape>
0.220

> <Color>
0.070

> <Negative vol penalty>
0.000

$$$$

  -OEChem-04052317553D

 83 91  0     1  0  0  0  0  0999 V2000
  -26.3865  -31.8069   28.7773 C   0  0  0  0  0  0  0  0  0  0  0  0
  -27.3913  -30.8448   28.7862 C   0  0  0  0  0  0  0  0  0  0  0  0
  -23.1523   -9.8380   19.9232 C   0  0  0  0  0  0  0  0  0  0  0  0
  -23.8714   -9.8833   22.2292 C   0  0  0  0  0  0  0  0  0  0  0  0
  -25.0793  -31.4451   28.4547 C   0  0  0  0  0  0  0  0  0  0  0  0
  -27.0892  -29.5199   28.4736 C   0  0  0  0  0  0  0  0  0  0  0  0
  -30.3474  -26.1672   22.9931 C   0  0  0  0  0  0  0  0  0  0  0  0
  -22.4490   -8.6581   20.1657 C   0  0  0  0  0  0  0  0  0  0  0  0
  -23.1681   -8.7034   22.4718 C   0  0  0  0  0  0  0  0  0  0  0  0
  -31.0794  -25.3913   22.0941 C   0  0  0  0  0  0  0  0  0  0  0  0
  -19.9630   -7.7844   23.0224 C   0  0  0  0  0  0  0  0  0  0  0  0
  -19.1879   -7.7200   24.1803 C   0  0  0  0  0  0  0  0  0  0  0  0
  -29.6692  -23.4862   22.5734 C   0  0  0  0  0  0  0  0  0  0  0  0
  -20.4898   -5.8347   24.9470 C   0  0  0  0  0  0  0  0  0  0  0  0
  -23.8635  -10.4506   20.9550 C   0  0  0  0  0  0  0  0  0  0  0  0
  -24.1102  -12.9865   20.8291 C   0  0  0  0  0  0  0  0  0  0  0  0
  -24.7628  -30.1169   28.1285 C   0  0  0  0  0  0  0  0  0  0  0  0
  -29.2625  -25.6091   23.6750 C   0  0  0  0  0  0  0  0  0  0  0  0
  -25.7762  -29.1396   28.1476 C   0  0  0  0  0  0  0  0  0  0  0  0
  -28.9244  -24.2620   23.4658 C   0  0  0  0  0  0  0  0  0  0  0  0
  -22.4569   -8.0908   21.4400 C   0  0  0  0  0  0  0  0  0  0  0  0
  -30.7413  -24.0541   21.8850 C   0  0  0  0  0  0  0  0  0  0  0  0
  -21.0015   -6.8739   22.8267 C   0  0  0  0  0  0  0  0  0  0  0  0
  -19.4514   -6.7452   25.1426 C   0  0  0  0  0  0  0  0  0  0  0  0
  -21.2649   -5.8991   23.7890 C   0  0  0  0  0  0  0  0  0  0  0  0
  -24.5907  -11.6691   20.7050 C   0  0  0  0  0  0  0  0  0  0  0  0
  -25.1789  -13.7760   20.4812 C   0  0  0  0  0  0  0  0  0  0  0  0
  -30.8202  -19.5616   18.7782 C   0  0  0  0  0  0  0  0  0  0  0  0
  -30.2521  -17.7584   19.8435 C   0  0  0  0  0  0  0  0  0  0  0  0
  -22.8138  -13.4547   21.2237 C   0  0  0  0  0  0  0  0  0  0  0  0
  -26.4730  -26.1231   26.1308 C   0  0  0  0  0  0  0  0  0  0  0  0
  -25.3553  -24.3850   23.8636 C   0  0  0  0  0  0  0  0  0  0  0  0
  -24.3970  -22.8451   20.9744 C   0  0  0  0  0  0  0  0  0  0  0  0
  -30.7418  -14.7064   21.1922 C   0  0  0  0  0  0  0  0  0  0  0  0
  -23.3265  -29.7646   27.8325 C   0  0  0  0  0  0  0  0  0  0  0  0
  -28.4840  -26.3903   24.6985 C   0  0  0  0  0  0  0  0  0  0  0  0
  -27.7711  -23.6944   24.2473 C   0  0  0  0  0  0  0  0  0  0  0  0
  -23.1601  -28.4103   27.1480 C   0  0  0  0  0  0  0  0  0  0  0  0
  -29.6103  -12.6030   18.3643 C   0  0  0  0  0  0  0  0  0  0  0  0
  -24.0003  -27.3495   27.8522 C   0  0  0  0  0  0  0  0  0  0  0  0
  -28.1878  -12.2281   18.7763 C   0  0  0  0  0  0  0  0  0  0  0  0
  -30.5031  -12.8572   19.5750 C   0  0  0  0  0  0  0  0  0  0  0  0
  -28.5379  -13.4943   20.9337 C   0  0  0  0  0  0  0  0  0  0  0  0
  -25.4926  -27.6968   27.7899 C   0  0  1  0  0  0  0  0  0  0  0  0
  -26.9883  -26.0276   24.7248 C   0  0  1  0  0  0  0  0  0  0  0  0
  -27.6004  -13.2770   19.7366 C   0  0  2  0  0  0  0  0  0  0  0  0
  -27.4391  -18.8842   18.6729 C   0  0  0  0  0  0  0  0  0  0  0  0
  -22.4064  -21.7847   19.8741 C   0  0  0  0  0  0  0  0  0  0  0  0
  -25.7102  -21.9119   25.6134 C   0  0  0  0  0  0  0  0  0  0  0  0
  -24.4220  -20.6077   23.9082 C   0  0  0  0  0  0  0  0  0  0  0  0
  -23.3325  -22.5023   25.1108 C   0  0  0  0  0  0  0  0  0  0  0  0
  -30.6973  -16.6510   22.7074 C   0  0  0  0  0  0  0  0  0  0  0  0
  -24.4314  -24.8063   18.7582 C   0  0  0  0  0  0  0  0  0  0  0  0
  -30.7278  -20.9297   18.1511 C   0  0  0  0  0  0  0  0  0  0  0  0
  -29.4343  -16.7881   20.5928 C   0  0  0  0  0  0  0  0  0  0  0  0
  -31.4065  -22.0298   18.9700 C   0  0  0  0  0  0  0  0  0  0  0  0
  -28.4541  -19.4995   19.6208 C   0  0  0  0  0  0  0  0  0  0  0  0
  -30.7638  -22.2506   20.3344 C   0  0  0  0  0  0  0  0  0  1  0  0
  -25.0832  -22.9923   23.3538 C   0  0  1  0  0  0  0  0  0  0  0  0
  -23.2033  -23.0661   20.0629 C   0  0  2  0  0  0  0  0  0  0  0  0
  -24.6605  -22.0178   24.4892 C   0  0  0  0  0  0  0  0  0  0  0  0
  -25.8654  -11.6204   20.3089 N   0  0  0  0  0  0  0  0  0  0  0  0
  -31.8683  -18.7696   18.8005 N   0  0  0  0  0  0  0  0  0  0  0  0
  -31.5069  -17.6224   19.4782 N   0  0  0  0  0  0  0  0  0  0  0  0
  -26.1949  -12.9170   20.1812 N   0  0  0  0  0  0  0  0  0  0  0  0
  -29.7799  -18.9648   19.4235 N   0  0  0  0  0  0  0  0  0  0  0  0
  -26.6629  -24.6615   24.2811 N   0  0  0  0  0  0  0  0  0  0  0  0
  -29.9011  -13.8253   20.4923 N   0  0  0  0  0  0  0  0  0  0  0  0
  -25.3393  -15.1143   20.4056 N   0  0  0  0  0  0  0  0  0  0  0  0
  -21.8318  -12.5087   21.5478 N   0  0  0  0  0  0  0  0  0  0  0  0
  -26.0303  -27.3837   26.4833 N   0  0  0  0  0  0  0  0  0  0  0  0
  -24.0961  -23.1331   22.2888 N   0  0  0  0  0  0  0  0  0  0  0  0
  -30.2204  -15.9689   21.5127 N   0  0  0  0  0  0  0  0  0  0  0  0
  -23.6547  -23.5404   18.7241 N   0  3  0  0  0  0  0  0  0  0  0  0
  -22.5295  -14.6756   21.2713 O   0  0  0  0  0  0  0  0  0  0  0  0
  -26.4750  -25.1265   26.8439 O   0  0  0  0  0  0  0  0  0  0  0  0
  -24.4341  -25.2057   23.8971 O   0  0  0  0  0  0  0  0  0  0  0  0
  -25.4862  -22.4524   20.5621 O   0  0  0  0  0  0  0  0  0  0  0  0
  -31.8961  -14.3864   21.5039 O   0  0  0  0  0  0  0  0  0  0  0  0
  -21.7705   -6.9396   21.6770 O   0  0  0  0  0  0  0  0  0  0  0  0
  -31.4574  -23.3036   21.0026 O   0  0  0  0  0  0  0  0  0  1  0  0
  -18.7080   -6.6845   26.2552 F   0  0  0  0  0  0  0  0  0  0  0  0
  -22.2619   -5.0224   23.6072 F   0  0  0  0  0  0  0  0  0  0  0  0
  1  2  1  0  0  0  0
  1  5  2  0  0  0  0
  2  6  2  0  0  0  0
  3  8  2  0  0  0  0
  3 15  1  0  0  0  0
  4  9  1  0  0  0  0
  4 15  2  0  0  0  0
  5 17  1  0  0  0  0
  6 19  1  0  0  0  0
  7 10  2  0  0  0  0
  7 18  1  0  0  0  0
  8 21  1  0  0  0  0
  9 21  2  0  0  0  0
 10 22  1  0  0  0  0
 11 12  2  0  0  0  0
 11 23  1  0  0  0  0
 12 24  1  0  0  0  0
 13 20  1  0  0  0  0
 13 22  2  0  0  0  0
 14 24  2  0  0  0  0
 14 25  1  0  0  0  0
 15 26  1  0  0  0  0
 16 26  1  0  0  0  0
 16 27  2  0  0  0  0
 16 30  1  0  0  0  0
 17 19  2  0  0  0  0
 17 35  1  0  0  0  0
 18 20  2  0  0  0  0
 18 36  1  0  0  0  0
 19 44  1  0  0  0  0
 20 37  1  0  0  0  0
 21 80  1  0  0  0  0
 22 81  1  0  0  0  0
 23 25  2  0  0  0  0
 23 80  1  0  0  0  0
 24 82  1  0  0  0  0
 25 83  1  0  0  0  0
 26 62  2  0  0  0  0
 27 65  1  0  0  0  0
 27 69  1  0  0  0  0
 28 54  1  0  0  0  0
 28 63  2  0  0  0  0
 28 66  1  0  0  0  0
 29 55  1  0  0  0  0
 29 64  2  0  0  0  0
 29 66  1  0  0  0  0
 30 70  1  0  0  0  0
 30 75  2  0  0  0  0
 31 45  1  0  0  0  0
 31 71  1  0  0  0  0
 31 76  2  0  0  0  0
 32 59  1  0  0  0  0
 32 67  1  0  0  0  0
 32 77  2  0  0  0  0
 33 60  1  0  0  0  0
 33 72  1  0  0  0  0
 33 78  2  0  0  0  0
 34 68  1  0  0  0  0
 34 73  1  0  0  0  0
 34 79  2  0  0  0  0
 35 38  1  0  0  0  0
 36 45  1  0  0  0  0
 37 67  1  0  0  0  0
 38 40  1  0  0  0  0
 39 41  1  0  0  0  0
 39 42  1  0  0  0  0
 40 44  1  0  0  0  0
 41 46  1  0  0  0  0
 42 68  1  0  0  0  0
 43 46  1  0  0  0  0
 43 68  1  0  0  0  0
 44 71  1  0  0  0  0
 45 67  1  0  0  0  0
 46 65  1  0  0  0  0
 47 57  1  0  0  0  0
 48 60  1  0  0  0  0
 49 61  1  0  0  0  0
 50 61  1  0  0  0  0
 51 61  1  0  0  0  0
 52 73  1  0  0  0  0
 53 74  1  0  0  0  0
 54 56  1  0  0  0  0
 55 73  1  0  0  0  0
 56 58  1  0  0  0  0
 57 66  1  0  0  0  0
 58 81  1  0  0  0  0
 59 61  1  0  0  0  0
 59 72  1  0  0  0  0
 60 74  1  0  0  0  0
 62 65  1  0  0  0  0
 63 64  1  0  0  0  0
M  CHG  1  74   1
M  ISO  4  34 100  58 101  73 100  81 101
M  END
> <Batch ID>
0060

> <Smiles>
CCn1c(CC[101CH2:1][101O:1]c2ccc3c(c2)CN(C(=O)C(NC(=O)C(C)NC)C(C)(C)C)C(C(=O)NC2CCCc4ccccc42)C3)nnc1C[100N:0](C)[100C:0](=O)N1CCCC(n2nc(-c3ccc(Oc4ccc(F)cc4F)cc3)c(C(N)=O)c2N)C1

> <Shape>
0.214

> <Color>
0.180

> <Negative vol penalty>
0.000

$$$$

  -OEChem-04052317552D

  0  0  0     0  0  0  0  0  0999 V2000
M  END
$$$$

  -OEChem-04052317553D

 81 89  0     1  0  0  0  0  0999 V2000
  -29.1025  -11.4125   19.1410 C   0  0  0  0  0  0  0  0  0  0  0  0
  -29.1483  -12.7971   19.0138 C   0  0  0  0  0  0  0  0  0  0  0  0
  -20.4421  -24.8611   23.5674 C   0  0  0  0  0  0  0  0  0  0  0  0
  -20.6329  -26.3929   21.7089 C   0  0  0  0  0  0  0  0  0  0  0  0
  -27.9429  -10.7943   19.6067 C   0  0  0  0  0  0  0  0  0  0  0  0
  -28.0339  -13.5643   19.3512 C   0  0  0  0  0  0  0  0  0  0  0  0
  -29.2432  -17.6445   22.0962 C   0  0  0  0  0  0  0  0  0  0  0  0
  -19.2380  -25.4600   23.9375 C   0  0  0  0  0  0  0  0  0  0  0  0
  -19.4288  -26.9918   22.0789 C   0  0  0  0  0  0  0  0  0  0  0  0
  -29.7785  -18.7356   21.4131 C   0  0  0  0  0  0  0  0  0  0  0  0
  -18.3601  -29.2196   24.3867 C   0  0  0  0  0  0  0  0  0  0  0  0
  -18.3055  -30.6133   24.3962 C   0  0  0  0  0  0  0  0  0  0  0  0
  -27.6187  -19.8095   21.4481 C   0  0  0  0  0  0  0  0  0  0  0  0
  -16.5331  -30.5550   22.7553 C   0  0  0  0  0  0  0  0  0  0  0  0
  -30.6889  -24.9031   18.0056 C   0  0  0  0  0  0  0  0  0  0  0  0
  -21.1396  -25.3276   22.4531 C   0  0  0  0  0  0  0  0  0  0  0  0
  -22.5589  -23.6232   21.1928 C   0  0  0  0  0  0  0  0  0  0  0  0
  -26.8170  -11.5550   19.9592 C   0  0  0  0  0  0  0  0  0  0  0  0
  -27.8868  -17.6228   22.4513 C   0  0  0  0  0  0  0  0  0  0  0  0
  -26.8576  -12.9556   19.8208 C   0  0  0  0  0  0  0  0  0  0  0  0
  -27.0692  -18.7180   22.1379 C   0  0  0  0  0  0  0  0  0  0  0  0
  -18.7313  -26.5253   23.1932 C   0  0  0  0  0  0  0  0  0  0  0  0
  -28.9656  -19.8170   21.0864 C   0  0  0  0  0  0  0  0  0  0  0  0
  -17.5013  -28.4935   23.5615 C   0  0  0  0  0  0  0  0  0  0  0  0
  -17.3920  -31.2810   23.5805 C   0  0  0  0  0  0  0  0  0  0  0  0
  -16.5878  -29.1612   22.7458 C   0  0  0  0  0  0  0  0  0  0  0  0
  -22.3839  -24.7097   22.0707 C   0  0  0  0  0  0  0  0  0  0  0  0
  -29.7960  -24.0513   17.3881 C   0  0  0  0  0  0  0  0  0  0  0  0
  -30.8454  -24.7211   19.3645 C   0  0  0  0  0  0  0  0  0  0  0  0
  -23.9171  -23.4204   21.1640 C   0  0  0  0  0  0  0  0  0  0  0  0
  -29.3440  -23.0144   19.3598 C   0  0  0  0  0  0  0  0  0  0  0  0
  -21.5813  -22.8650   20.4682 C   0  0  0  0  0  0  0  0  0  0  0  0
  -25.4085  -15.7678   21.7299 C   0  0  0  0  0  0  0  0  0  0  0  0
  -23.8993  -17.5848   23.9532 C   0  0  0  0  0  0  0  0  0  0  0  0
  -23.7398  -20.5354   25.6607 C   0  0  0  0  0  0  0  0  0  0  0  0
  -28.7574  -26.4175   21.1909 C   0  0  0  0  0  0  0  0  0  0  0  0
  -25.5698  -10.8386   20.4131 C   0  0  0  0  0  0  0  0  0  0  0  0
  -27.3308  -16.4501   23.2115 C   0  0  0  0  0  0  0  0  0  0  0  0
  -25.6113  -18.7527   22.5145 C   0  0  0  0  0  0  0  0  0  0  0  0
  -24.5604  -11.7514   21.1045 C   0  0  0  0  0  0  0  0  0  0  0  0
  -27.6831  -24.6133   24.1385 C   0  0  0  0  0  0  0  0  0  0  0  0
  -24.3665  -13.0356   20.3046 C   0  0  0  0  0  0  0  0  0  0  0  0
  -26.2121  -24.3478   23.8133 C   0  0  0  0  0  0  0  0  0  0  0  0
  -28.1199  -25.9879   23.6408 C   0  0  0  0  0  0  0  0  0  0  0  0
  -26.4163  -25.9553   21.8603 C   0  0  0  0  0  0  0  0  0  0  0  0
  -25.6777  -13.8240   20.2003 C   0  0  1  0  0  0  0  0  0  0  0  0
  -25.8183  -16.3092   23.0703 C   0  0  1  0  0  0  0  0  0  0  0  0
  -25.9195  -24.5718   22.3178 C   0  0  2  0  0  0  0  0  0  0  0  0
  -29.5605  -24.1715   15.9197 C   0  0  0  0  0  0  0  0  0  0  0  0
  -22.3730  -21.7423   27.3848 C   0  0  0  0  0  0  0  0  0  0  0  0
  -21.7551  -18.1470   21.8565 C   0  0  0  0  0  0  0  0  0  0  0  0
  -20.9670  -20.0538   23.2746 C   0  0  0  0  0  0  0  0  0  0  0  0
  -20.8766  -17.7232   24.1593 C   0  0  0  0  0  0  0  0  0  0  0  0
  -26.0347  -20.7177   27.5206 C   0  0  0  0  0  0  0  0  0  0  0  0
  -31.7914  -25.5942   20.1189 C   0  0  0  0  0  0  0  0  0  0  0  0
  -28.5955  -21.9567   20.1164 C   0  0  0  0  0  0  0  0  0  1  0  0
  -31.1419  -26.8677   20.6729 C   0  0  0  0  0  0  0  0  0  0  0  0
  -23.1153  -18.8747   23.9268 C   0  0  1  0  0  0  0  0  0  0  0  0
  -23.5691  -20.8359   27.1389 C   0  0  2  0  0  0  0  0  0  0  0  0
  -21.7055  -18.6985   23.2954 C   0  0  0  0  0  0  0  0  0  0  0  0
  -23.5385  -25.1652   22.5640 N   0  0  0  0  0  0  0  0  0  0  0  0
  -29.1039  -23.0920   18.0370 N   0  0  0  0  0  0  0  0  0  0  0  0
  -30.1864  -23.7831   20.0760 N   0  0  0  0  0  0  0  0  0  0  0  0
  -24.4521  -24.3609   21.9943 N   0  0  0  0  0  0  0  0  0  0  0  0
  -25.1130  -17.5797   23.2514 N   0  0  0  0  0  0  0  0  0  0  0  0
  -27.8308  -26.1297   22.2068 N   0  0  0  0  0  0  0  0  0  0  0  0
  -24.6939  -22.5311   20.5098 N   0  0  0  0  0  0  0  0  0  0  0  0
  -20.2297  -23.2068   20.6121 N   0  0  0  0  0  0  0  0  0  0  0  0
  -25.9437  -14.5281   21.4363 N   0  0  0  0  0  0  0  0  0  0  0  0
  -23.0979  -19.3700   25.2989 N   0  0  0  0  0  0  0  0  0  0  0  0
  -30.0748  -26.5748   21.6037 N   0  0  0  0  0  0  0  0  0  0  0  0
  -24.7864  -21.5082   27.6747 N   0  3  0  0  0  0  0  0  0  0  0  0
  -21.8956  -21.9023   19.7281 O   0  0  0  0  0  0  0  0  0  0  0  0
  -24.6607  -16.4254   21.0156 O   0  0  0  0  0  0  0  0  0  0  0  0
  -23.4546  -16.6197   24.5797 O   0  0  0  0  0  0  0  0  0  0  0  0
  -24.3757  -21.2638   24.9020 O   0  0  0  0  0  0  0  0  0  0  0  0
  -28.4353  -26.5214   20.0024 O   0  0  0  0  0  0  0  0  0  0  0  0
  -17.5562  -27.1098   23.5539 O   0  0  0  0  0  0  0  0  0  0  0  0
  -29.4855  -20.8831   20.4191 O   0  0  0  0  0  0  0  0  0  1  0  0
  -17.3386  -32.6194   23.5908 F   0  0  0  0  0  0  0  0  0  0  0  0
  -15.7594  -28.4691   21.9518 F   0  0  0  0  0  0  0  0  0  0  0  0
  1  2  1  0  0  0  0
  1  5  2  0  0  0  0
  2  6  2  0  0  0  0
  3  8  2  0  0  0  0
  3 16  1  0  0  0  0
  4  9  1  0  0  0  0
  4 16  2  0  0  0  0
  5 18  1  0  0  0  0
  6 20  1  0  0  0  0
  7 10  2  0  0  0  0
  7 19  1  0  0  0  0
  8 22  1  0  0  0  0
  9 22  2  0  0  0  0
 10 23  1  0  0  0  0
 11 12  2  0  0  0  0
 11 24  1  0  0  0  0
 12 25  1  0  0  0  0
 13 21  1  0  0  0  0
 13 23  2  0  0  0  0
 14 25  2  0  0  0  0
 14 26  1  0  0  0  0
 15 28  1  0  0  0  0
 15 29  2  0  0  0  0
 16 27  1  0  0  0  0
 17 27  1  0  0  0  0
 17 30  2  0  0  0  0
 17 32  1  0  0  0  0
 18 20  2  0  0  0  0
 18 37  1  0  0  0  0
 19 21  2  0  0  0  0
 19 38  1  0  0  0  0
 20 46  1  0  0  0  0
 21 39  1  0  0  0  0
 22 78  1  0  0  0  0
 23 79  1  0  0  0  0
 24 26  2  0  0  0  0
 24 78  1  0  0  0  0
 25 80  1  0  0  0  0
 26 81  1  0  0  0  0
 27 61  2  0  0  0  0
 28 49  1  0  0  0  0
 28 62  2  0  0  0  0
 29 55  1  0  0  0  0
 29 63  1  0  0  0  0
 30 64  1  0  0  0  0
 30 67  1  0  0  0  0
 31 56  1  0  0  0  0
 31 62  1  0  0  0  0
 31 63  2  0  0  0  0
 32 68  1  0  0  0  0
 32 73  2  0  0  0  0
 33 47  1  0  0  0  0
 33 69  1  0  0  0  0
 33 74  2  0  0  0  0
 34 58  1  0  0  0  0
 34 65  1  0  0  0  0
 34 75  2  0  0  0  0
 35 59  1  0  0  0  0
 35 70  1  0  0  0  0
 35 76  2  0  0  0  0
 36 66  1  0  0  0  0
 36 71  1  0  0  0  0
 36 77  2  0  0  0  0
 37 40  1  0  0  0  0
 38 47  1  0  0  0  0
 39 65  1  0  0  0  0
 40 42  1  0  0  0  0
 41 43  1  0  0  0  0
 41 44  1  0  0  0  0
 42 46  1  0  0  0  0
 43 48  1  0  0  0  0
 44 66  1  0  0  0  0
 45 48  1  0  0  0  0
 45 66  1  0  0  0  0
 46 69  1  0  0  0  0
 47 65  1  0  0  0  0
 48 64  1  0  0  0  0
 50 59  1  0  0  0  0
 51 60  1  0  0  0  0
 52 60  1  0  0  0  0
 53 60  1  0  0  0  0
 54 72  1  0  0  0  0
 55 57  1  0  0  0  0
 56 79  1  0  0  0  0
 57 71  1  0  0  0  0
 58 60  1  0  0  0  0
 58 70  1  0  0  0  0
 59 72  1  0  0  0  0
 61 64  1  0  0  0  0
M  CHG  1  72   1
M  ISO  4  36 100  56 101  71 100  79 101
M  END
> <Batch ID>
0060

> <Smiles>
CNC(C)C(=O)NC(C(=O)N1Cc2cc([101O:1][101CH2:1]c3nc(C)cc(CC[100NH:0][100C:0](=O)N4CCCC(n5nc(-c6ccc(Oc7ccc(F)cc7F)cc6)c(C(N)=O)c5N)C4)n3)ccc2CC1C(=O)NC1CCCc2ccccc21)C(C)(C)C

> <Shape>
0.214

> <Color>
0.078

> <Negative vol penalty>
0.000

$$$$

  -OEChem-04052317553D

 86 94  0     1  0  0  0  0  0999 V2000
  -21.9713  -11.5929   19.5209 C   0  0  0  0  0  0  0  0  0  0  0  0
  -21.6763  -12.9426   19.6846 C   0  0  0  0  0  0  0  0  0  0  0  0
  -29.3931  -24.1968   24.2576 C   0  0  0  0  0  0  0  0  0  0  0  0
  -27.4992  -23.4390   22.9631 C   0  0  0  0  0  0  0  0  0  0  0  0
  -23.2211  -11.1029   19.8974 C   0  0  0  0  0  0  0  0  0  0  0  0
  -22.6308  -13.8029   20.2261 C   0  0  0  0  0  0  0  0  0  0  0  0
  -23.5465  -19.6776   18.7580 C   0  0  0  0  0  0  0  0  0  0  0  0
  -29.2902  -23.0672   25.0694 C   0  0  0  0  0  0  0  0  0  0  0  0
  -27.3963  -22.3093   23.7748 C   0  0  0  0  0  0  0  0  0  0  0  0
  -23.1372  -20.8687   19.3561 C   0  0  0  0  0  0  0  0  0  0  0  0
  -29.3014  -20.5618   27.7050 C   0  0  0  0  0  0  0  0  0  0  0  0
  -29.4007  -20.7415   29.0846 C   0  0  0  0  0  0  0  0  0  0  0  0
  -25.2549  -21.0138   20.5021 C   0  0  0  0  0  0  0  0  0  0  0  0
  -27.4750  -22.1997   29.0331 C   0  0  0  0  0  0  0  0  0  0  0  0
  -28.4975  -24.3827   23.2045 C   0  0  0  0  0  0  0  0  0  0  0  0
  -29.3570  -25.6824   21.1846 C   0  0  0  0  0  0  0  0  0  0  0  0
  -24.1948  -11.9596   20.4348 C   0  0  0  0  0  0  0  0  0  0  0  0
  -24.8110  -19.1391   19.0364 C   0  0  0  0  0  0  0  0  0  0  0  0
  -23.8944  -13.3237   20.6114 C   0  0  0  0  0  0  0  0  0  0  0  0
  -25.6788  -19.8171   19.9043 C   0  0  0  0  0  0  0  0  0  0  0  0
  -28.2919  -22.1234   24.8280 C   0  0  0  0  0  0  0  0  0  0  0  0
  -23.9904  -21.5355   20.2305 C   0  0  0  0  0  0  0  0  0  0  0  0
  -28.2890  -21.2010   26.9894 C   0  0  0  0  0  0  0  0  0  0  0  0
  -28.4874  -21.5604   29.7487 C   0  0  0  0  0  0  0  0  0  0  0  0
  -27.3758  -22.0199   27.6534 C   0  0  0  0  0  0  0  0  0  0  0  0
  -28.6029  -25.5497   22.3659 C   0  0  0  0  0  0  0  0  0  0  0  0
  -22.7482  -26.6569   23.6836 C   0  0  0  0  0  0  0  0  0  0  0  0
  -22.9055  -26.3990   22.3460 C   0  0  0  0  0  0  0  0  0  0  0  0
  -29.1231  -26.9710   20.7708 C   0  0  0  0  0  0  0  0  0  0  0  0
  -23.3819  -28.5814   22.0139 C   0  0  0  0  0  0  0  0  0  0  0  0
  -30.1940  -24.7262   20.5206 C   0  0  0  0  0  0  0  0  0  0  0  0
  -25.8606  -16.4411   20.3490 C   0  0  0  0  0  0  0  0  0  0  0  0
  -28.7595  -17.5943   19.4609 C   0  0  0  0  0  0  0  0  0  0  0  0
  -24.5614  -30.7474   21.7911 C   0  0  0  0  0  0  0  0  0  0  0  0
  -30.6848  -20.3011   18.6779 C   0  0  0  0  0  0  0  0  0  0  0  0
  -25.5149  -11.3750   20.8711 C   0  0  0  0  0  0  0  0  0  0  0  0
  -25.2478  -17.8674   18.3625 C   0  0  0  0  0  0  0  0  0  0  0  0
  -27.0544  -19.2915   20.2206 C   0  0  0  0  0  0  0  0  0  0  0  0
  -26.6028  -12.4233   21.0894 C   0  0  0  0  0  0  0  0  0  0  0  0
  -28.0390  -31.3113   22.4455 C   0  0  0  0  0  0  0  0  0  0  0  0
  -26.0615  -13.5922   21.9064 C   0  0  0  0  0  0  0  0  0  0  0  0
  -28.6413  -29.9071   22.4201 C   0  0  0  0  0  0  0  0  0  0  0  0
  -26.6291  -31.3036   23.0279 C   0  0  0  0  0  0  0  0  0  0  0  0
  -26.2931  -28.9587   22.3137 C   0  0  0  0  0  0  0  0  0  0  0  0
  -24.9122  -14.2932   21.1721 C   0  0  1  0  0  0  0  0  0  0  0  0
  -26.3581  -17.1423   19.1167 C   0  0  1  0  0  0  0  0  0  0  0  0
  -27.7056  -28.9171   21.7041 C   0  0  2  0  0  0  0  0  0  0  0  0
  -33.0258  -20.9326   18.0313 C   0  0  0  0  0  0  0  0  0  0  0  0
  -22.4694  -30.3917   20.5365 C   0  0  0  0  0  0  0  0  0  0  0  0
  -24.6140  -29.3071   19.8593 C   0  0  0  0  0  0  0  0  0  0  0  0
  -29.6596  -17.2064   22.3504 C   0  0  0  0  0  0  0  0  0  0  0  0
  -31.6118  -18.6982   21.8693 C   0  0  0  0  0  0  0  0  0  0  0  0
  -31.3535  -16.5472   20.6327 C   0  0  0  0  0  0  0  0  0  0  0  0
  -29.7908  -21.4252   16.0902 C   0  0  0  0  0  0  0  0  0  0  0  0
  -22.6811  -23.5155   20.0840 C   0  0  0  0  0  0  0  0  0  1  0  0
  -22.9185  -24.9688   20.4460 C   0  0  0  0  0  0  0  0  0  0  0  0
  -29.8035  -18.4737   20.1056 C   0  0  1  0  0  0  0  0  0  0  0  0
  -31.6408  -20.5582   17.5271 C   0  0  2  0  0  0  0  0  0  0  0  0
  -22.3847  -25.5881   24.6532 C   0  0  0  0  0  0  0  0  0  0  0  0
  -23.7416  -29.6936   21.0902 C   0  0  0  0  0  0  0  0  0  0  0  0
  -30.5805  -17.7405   21.2352 C   0  0  0  0  0  0  0  0  0  0  0  0
  -27.9397  -26.6651   22.6823 N   0  0  0  0  0  0  0  0  0  0  0  0
  -22.9145  -27.9000   24.1703 N   0  0  0  0  0  0  0  0  0  0  0  0
  -23.2291  -27.3640   21.4718 N   0  0  0  0  0  0  0  0  0  0  0  0
  -23.2401  -28.8934   23.3172 N   0  0  0  0  0  0  0  0  0  0  0  0
  -28.2764  -27.5109   21.6937 N   0  0  0  0  0  0  0  0  0  0  0  0
  -27.4331  -18.0413   19.5416 N   0  0  0  0  0  0  0  0  0  0  0  0
  -25.7776  -30.3346   22.3356 N   0  0  0  0  0  0  0  0  0  0  0  0
  -29.5613  -27.6836   19.7113 N   0  0  0  0  0  0  0  0  0  0  0  0
  -30.3232  -23.4482   21.0812 N   0  0  0  0  0  0  0  0  0  0  0  0
  -25.4283  -15.1480   20.1246 N   0  0  0  0  0  0  0  0  0  0  0  0
  -30.6475  -18.9665   19.0225 N   0  0  0  0  0  0  0  0  0  0  0  0
  -31.1356  -21.6696   16.6724 N   0  3  0  0  0  0  0  0  0  0  0  0
  -30.8222  -25.0024   19.4705 O   0  0  0  0  0  0  0  0  0  0  0  0
  -25.8696  -17.0293   21.4240 O   0  0  0  0  0  0  0  0  0  0  0  0
  -29.1089  -16.5527   18.8998 O   0  0  0  0  0  0  0  0  0  0  0  0
  -24.1333  -31.9031   21.8493 O   0  0  0  0  0  0  0  0  0  0  0  0
  -30.0387  -21.1954   19.2196 O   0  0  0  0  0  0  0  0  0  0  0  0
  -28.1914  -21.0209   25.6198 O   0  0  0  0  0  0  0  0  0  0  0  0
  -23.5932  -22.6979   20.8161 O   0  0  0  0  0  0  0  0  0  1  0  0
  -22.7333  -25.1349   21.8465 O   0  0  0  0  0  0  0  0  0  0  0  0
  -28.5819  -21.7317   31.0738 F   0  0  0  0  0  0  0  0  0  0  0  0
  -26.4003  -22.6358   26.9715 F   0  0  0  0  0  0  0  0  0  0  0  0
  -22.2289  -24.3558   24.0817 F   0  0  0  0  0  0  0  0  0  0  0  0
  -23.3110  -25.4041   25.6418 F   0  0  0  0  0  0  0  0  0  0  0  0
  -21.2080  -25.8396   25.3002 F   0  0  0  0  0  0  0  0  0  0  0  0
  1  2  1  0  0  0  0
  1  5  2  0  0  0  0
  2  6  2  0  0  0  0
  3  8  2  0  0  0  0
  3 15  1  0  0  0  0
  4  9  1  0  0  0  0
  4 15  2  0  0  0  0
  5 17  1  0  0  0  0
  6 19  1  0  0  0  0
  7 10  2  0  0  0  0
  7 18  1  0  0  0  0
  8 21  1  0  0  0  0
  9 21  2  0  0  0  0
 10 22  1  0  0  0  0
 11 12  2  0  0  0  0
 11 23  1  0  0  0  0
 12 24  1  0  0  0  0
 13 20  1  0  0  0  0
 13 22  2  0  0  0  0
 14 24  2  0  0  0  0
 14 25  1  0  0  0  0
 15 26  1  0  0  0  0
 16 26  1  0  0  0  0
 16 29  2  0  0  0  0
 16 31  1  0  0  0  0
 17 19  2  0  0  0  0
 17 36  1  0  0  0  0
 18 20  2  0  0  0  0
 18 37  1  0  0  0  0
 19 45  1  0  0  0  0
 20 38  1  0  0  0  0
 21 79  1  0  0  0  0
 22 80  1  0  0  0  0
 23 25  2  0  0  0  0
 23 79  1  0  0  0  0
 24 82  1  0  0  0  0
 25 83  1  0  0  0  0
 26 62  2  0  0  0  0
 27 28  2  0  0  0  0
 27 59  1  0  0  0  0
 27 63  1  0  0  0  0
 28 64  1  0  0  0  0
 28 81  1  0  0  0  0
 29 66  1  0  0  0  0
 29 69  1  0  0  0  0
 30 60  1  0  0  0  0
 30 64  2  0  0  0  0
 30 65  1  0  0  0  0
 31 70  1  0  0  0  0
 31 74  2  0  0  0  0
 32 46  1  0  0  0  0
 32 71  1  0  0  0  0
 32 75  2  0  0  0  0
 33 57  1  0  0  0  0
 33 67  1  0  0  0  0
 33 76  2  0  0  0  0
 34 60  1  0  0  0  0
 34 68  1  0  0  0  0
 34 77  2  0  0  0  0
 35 58  1  0  0  0  0
 35 72  1  0  0  0  0
 35 78  2  0  0  0  0
 36 39  1  0  0  0  0
 37 46  1  0  0  0  0
 38 67  1  0  0  0  0
 39 41  1  0  0  0  0
 40 42  1  0  0  0  0
 40 43  1  0  0  0  0
 41 45  1  0  0  0  0
 42 47  1  0  0  0  0
 43 68  1  0  0  0  0
 44 47  1  0  0  0  0
 44 68  1  0  0  0  0
 45 71  1  0  0  0  0
 46 67  1  0  0  0  0
 47 66  1  0  0  0  0
 48 58  1  0  0  0  0
 49 60  1  0  0  0  0
 50 60  1  0  0  0  0
 51 61  1  0  0  0  0
 52 61  1  0  0  0  0
 53 61  1  0  0  0  0
 54 73  1  0  0  0  0
 55 56  1  0  0  0  0
 55 80  1  0  0  0  0
 56 81  1  0  0  0  0
 57 61  1  0  0  0  0
 57 72  1  0  0  0  0
 58 73  1  0  0  0  0
 59 84  1  0  0  0  0
 59 85  1  0  0  0  0
 59 86  1  0  0  0  0
 62 66  1  0  0  0  0
 63 65  2  0  0  0  0
M  CHG  1  73   1
M  ISO  4  34 100  55 101  60 100  80 101
M  END
> <Batch ID>
0060

> <Smiles>
CNC(C)C(=O)NC(C(=O)N1Cc2cc([101O:1][101CH2:1]COc3nc([100C:0](C)(C)[100C:0](=O)N4CCCC(n5nc(-c6ccc(Oc7ccc(F)cc7F)cc6)c(C(N)=O)c5N)C4)nnc3C(F)(F)F)ccc2CC1C(=O)NC1CCCc2ccccc21)C(C)(C)C

> <Shape>
0.195

> <Color>
0.077

> <Negative vol penalty>
0.000

$$$$

  -OEChem-04052317553D

 80 88  0     1  0  0  0  0  0999 V2000
  -19.0388  -28.1391   26.5630 C   0  0  0  0  0  0  0  0  0  0  0  0
  -19.9642  -27.1940   26.1321 C   0  0  0  0  0  0  0  0  0  0  0  0
  -23.8402   -9.9911   22.4720 C   0  0  0  0  0  0  0  0  0  0  0  0
  -24.4709  -11.7036   24.0552 C   0  0  0  0  0  0  0  0  0  0  0  0
  -18.5079  -29.0566   25.6573 C   0  0  0  0  0  0  0  0  0  0  0  0
  -20.3584  -27.1651   24.7949 C   0  0  0  0  0  0  0  0  0  0  0  0
  -25.9026  -25.7354   22.6214 C   0  0  0  0  0  0  0  0  0  0  0  0
  -23.3883   -9.1889   23.5197 C   0  0  0  0  0  0  0  0  0  0  0  0
  -24.0189  -10.9014   25.1030 C   0  0  0  0  0  0  0  0  0  0  0  0
  -26.4250  -24.5596   22.0845 C   0  0  0  0  0  0  0  0  0  0  0  0
  -21.0573  -10.0696   26.5022 C   0  0  0  0  0  0  0  0  0  0  0  0
  -20.2805  -10.6740   27.4906 C   0  0  0  0  0  0  0  0  0  0  0  0
  -25.9647  -25.3771   19.8621 C   0  0  0  0  0  0  0  0  0  0  0  0
  -21.9206  -10.0604   29.1550 C   0  0  0  0  0  0  0  0  0  0  0  0
  -27.1539  -20.1815   19.7287 C   0  0  0  0  0  0  0  0  0  0  0  0
  -24.3816  -11.2485   22.7397 C   0  0  0  0  0  0  0  0  0  0  0  0
  -24.1049  -13.0248   20.9299 C   0  0  0  0  0  0  0  0  0  0  0  0
  -18.9031  -29.0451   24.3104 C   0  0  0  0  0  0  0  0  0  0  0  0
  -25.3965  -26.7380   21.7817 C   0  0  0  0  0  0  0  0  0  0  0  0
  -19.8313  -28.0824   23.8701 C   0  0  0  0  0  0  0  0  0  0  0  0
  -25.4387  -26.5658   20.3908 C   0  0  0  0  0  0  0  0  0  0  0  0
  -23.4775   -9.6440   24.8352 C   0  0  0  0  0  0  0  0  0  0  0  0
  -26.4535  -24.3790   20.7048 C   0  0  0  0  0  0  0  0  0  0  0  0
  -22.2658   -9.4605   26.8403 C   0  0  0  0  0  0  0  0  0  0  0  0
  -20.7121  -10.6694   28.8169 C   0  0  0  0  0  0  0  0  0  0  0  0
  -22.6975   -9.4559   28.1667 C   0  0  0  0  0  0  0  0  0  0  0  0
  -24.8493  -12.0774   21.6579 C   0  0  0  0  0  0  0  0  0  0  0  0
  -27.9915  -21.0867   20.3283 C   0  0  0  0  0  0  0  0  0  0  0  0
  -24.9976  -13.5378   20.0208 C   0  0  0  0  0  0  0  0  0  0  0  0
  -28.9612  -19.0484   18.9873 C   0  0  0  0  0  0  0  0  0  0  0  0
  -22.7295  -13.4071   21.0635 C   0  0  0  0  0  0  0  0  0  0  0  0
  -22.5509  -28.0930   21.3687 C   0  0  0  0  0  0  0  0  0  0  0  0
  -24.2007  -30.0352   19.3617 C   0  0  0  0  0  0  0  0  0  0  0  0
  -26.9248  -30.4876   17.3563 C   0  0  0  0  0  0  0  0  0  0  0  0
  -30.0551  -15.5314   18.7591 C   0  0  0  0  0  0  0  0  0  0  0  0
  -18.2661  -30.0265   23.3586 C   0  0  0  0  0  0  0  0  0  0  0  0
  -24.8608  -28.0118   22.3756 C   0  0  0  0  0  0  0  0  0  0  0  0
  -24.9264  -27.6202   19.4452 C   0  0  0  0  0  0  0  0  0  0  0  0
  -19.0178  -30.1693   22.0377 C   0  0  0  0  0  0  0  0  0  0  0  0
  -29.6403  -11.9953   18.7353 C   0  0  0  0  0  0  0  0  0  0  0  0
  -19.3768  -28.7971   21.4766 C   0  0  0  0  0  0  0  0  0  0  0  0
  -28.2991  -11.7796   19.4387 C   0  0  0  0  0  0  0  0  0  0  0  0
  -30.4209  -13.1541   19.3517 C   0  0  0  0  0  0  0  0  0  0  0  0
  -28.3377  -14.2103   20.1380 C   0  0  0  0  0  0  0  0  0  0  0  0
  -20.3025  -28.0351   22.4327 C   0  0  1  0  0  0  0  0  0  0  0  0
  -23.9012  -28.7475   21.4454 C   0  0  1  0  0  0  0  0  0  0  0  0
  -27.4895  -13.0880   19.5156 C   0  0  2  0  0  0  0  0  0  0  0  0
  -29.1333  -17.8930   16.7519 C   0  0  0  0  0  0  0  0  0  0  0  0
  -27.9801  -32.1640   15.8157 C   0  0  0  0  0  0  0  0  0  0  0  0
  -22.1513  -29.3438   17.2095 C   0  0  0  0  0  0  0  0  0  0  0  0
  -23.7446  -30.2449   15.5013 C   0  0  0  0  0  0  0  0  0  0  0  0
  -22.8309  -31.7499   17.2685 C   0  0  0  0  0  0  0  0  0  0  0  0
  -29.3573  -30.6696   19.0322 C   0  0  0  0  0  0  0  0  0  0  0  0
  -27.4498  -22.2556   21.0974 C   0  0  0  0  0  0  0  0  0  1  0  0
  -29.5404  -17.9015   18.2332 C   0  0  2  0  0  0  0  0  0  0  0  0
  -24.5513  -30.0059   17.8936 C   0  0  1  0  0  0  0  0  0  0  0  0
  -27.9105  -31.6362   17.2402 C   0  0  2  0  0  0  0  0  0  0  0  0
  -23.3275  -30.3152   16.9858 C   0  0  0  0  0  0  0  0  0  0  0  0
  -27.6234  -19.1315   19.0380 N   0  0  0  0  0  0  0  0  0  0  0  0
  -26.1171  -11.9913   21.2467 N   0  0  0  0  0  0  0  0  0  0  0  0
  -29.3273  -20.9515   20.2430 N   0  0  0  0  0  0  0  0  0  0  0  0
  -29.8317  -19.9061   19.5551 N   0  0  0  0  0  0  0  0  0  0  0  0
  -26.1763  -12.8913   20.2503 N   0  0  0  0  0  0  0  0  0  0  0  0
  -24.4067  -28.8455   20.0746 N   0  0  0  0  0  0  0  0  0  0  0  0
  -29.5974  -14.3649   19.3937 N   0  0  0  0  0  0  0  0  0  0  0  0
  -24.8813  -14.4741   19.0553 N   0  0  0  0  0  0  0  0  0  0  0  0
  -21.9545  -12.7805   22.0489 N   0  0  0  0  0  0  0  0  0  0  0  0
  -21.6577  -28.5320   22.3273 N   0  0  0  0  0  0  0  0  0  0  0  0
  -25.6700  -30.9265   17.7226 N   0  0  0  0  0  0  0  0  0  0  0  0
  -29.2107  -16.6318   18.8414 N   0  0  0  0  0  0  0  0  0  0  0  0
  -29.2744  -31.1911   17.6436 N   0  3  0  0  0  0  0  0  0  0  0  0
  -22.1990  -14.2669   20.3199 O   0  0  0  0  0  0  0  0  0  0  0  0
  -22.3350  -27.2529   20.5031 O   0  0  0  0  0  0  0  0  0  0  0  0
  -23.7672  -31.0773   19.8592 O   0  0  0  0  0  0  0  0  0  0  0  0
  -27.2358  -29.3185   17.1397 O   0  0  0  0  0  0  0  0  0  0  0  0
  -31.1338  -15.5864   18.1587 O   0  0  0  0  0  0  0  0  0  0  0  0
  -23.0363   -8.8616   25.8578 O   0  0  0  0  0  0  0  0  0  0  0  0
  -26.9622  -23.2320   20.1781 O   0  0  0  0  0  0  0  0  0  1  0  0
  -19.9668  -11.2512   29.7657 F   0  0  0  0  0  0  0  0  0  0  0  0
  -23.8582   -8.8734   28.4973 F   0  0  0  0  0  0  0  0  0  0  0  0
  1  2  1  0  0  0  0
  1  5  2  0  0  0  0
  2  6  2  0  0  0  0
  3  8  2  0  0  0  0
  3 16  1  0  0  0  0
  4  9  1  0  0  0  0
  4 16  2  0  0  0  0
  5 18  1  0  0  0  0
  6 20  1  0  0  0  0
  7 10  2  0  0  0  0
  7 19  1  0  0  0  0
  8 22  1  0  0  0  0
  9 22  2  0  0  0  0
 10 23  1  0  0  0  0
 11 12  2  0  0  0  0
 11 24  1  0  0  0  0
 12 25  1  0  0  0  0
 13 21  1  0  0  0  0
 13 23  2  0  0  0  0
 14 25  2  0  0  0  0
 14 26  1  0  0  0  0
 15 28  1  0  0  0  0
 15 59  2  0  0  0  0
 16 27  1  0  0  0  0
 17 27  1  0  0  0  0
 17 29  2  0  0  0  0
 17 31  1  0  0  0  0
 18 20  2  0  0  0  0
 18 36  1  0  0  0  0
 19 21  2  0  0  0  0
 19 37  1  0  0  0  0
 20 45  1  0  0  0  0
 21 38  1  0  0  0  0
 22 77  1  0  0  0  0
 23 78  1  0  0  0  0
 24 26  2  0  0  0  0
 24 77  1  0  0  0  0
 25 79  1  0  0  0  0
 26 80  1  0  0  0  0
 27 60  2  0  0  0  0
 28 54  1  0  0  0  0
 28 61  2  0  0  0  0
 29 63  1  0  0  0  0
 29 66  1  0  0  0  0
 30 55  1  0  0  0  0
 30 59  1  0  0  0  0
 30 62  2  0  0  0  0
 31 67  1  0  0  0  0
 31 72  2  0  0  0  0
 32 46  1  0  0  0  0
 32 68  1  0  0  0  0
 32 73  2  0  0  0  0
 33 56  1  0  0  0  0
 33 64  1  0  0  0  0
 33 74  2  0  0  0  0
 34 57  1  0  0  0  0
 34 69  1  0  0  0  0
 34 75  2  0  0  0  0
 35 65  1  0  0  0  0
 35 70  1  0  0  0  0
 35 76  2  0  0  0  0
 36 39  1  0  0  0  0
 37 46  1  0  0  0  0
 38 64  1  0  0  0  0
 39 41  1  0  0  0  0
 40 42  1  0  0  0  0
 40 43  1  0  0  0  0
 41 45  1  0  0  0  0
 42 47  1  0  0  0  0
 43 65  1  0  0  0  0
 44 47  1  0  0  0  0
 44 65  1  0  0  0  0
 45 68  1  0  0  0  0
 46 64  1  0  0  0  0
 47 63  1  0  0  0  0
 48 55  1  0  0  0  0
 49 57  1  0  0  0  0
 50 58  1  0  0  0  0
 51 58  1  0  0  0  0
 52 58  1  0  0  0  0
 53 71  1  0  0  0  0
 54 78  1  0  0  0  0
 55 70  1  0  0  0  0
 56 58  1  0  0  0  0
 56 69  1  0  0  0  0
 57 71  1  0  0  0  0
 60 63  1  0  0  0  0
 61 62  1  0  0  0  0
M  CHG  1  71   1
M  ISO  4  35 100  54 101  70 100  78 101
M  END
> <Batch ID>
0060

> <Smiles>
CNC(C)C(=O)NC(C(=O)N1Cc2cc([101O:1][101CH2:1]c3cnc(C(C)[100NH:0][100C:0](=O)N4CCCC(n5nc(-c6ccc(Oc7ccc(F)cc7F)cc6)c(C(N)=O)c5N)C4)nn3)ccc2CC1C(=O)NC1CCCc2ccccc21)C(C)(C)C

> <Shape>
0.211

> <Color>
0.124

> <Negative vol penalty>
0.000

$$$$

  -OEChem-04052317553D

 82 90  0     1  0  0  0  0  0999 V2000
  -18.3942  -26.6264   21.9781 C   0  0  0  0  0  0  0  0  0  0  0  0
  -19.4259  -27.0908   21.1686 C   0  0  0  0  0  0  0  0  0  0  0  0
  -27.9828  -17.3066   20.9315 C   0  0  0  0  0  0  0  0  0  0  0  0
  -27.6922  -17.7638   18.5770 C   0  0  0  0  0  0  0  0  0  0  0  0
  -18.2910  -27.0686   23.2963 C   0  0  0  0  0  0  0  0  0  0  0  0
  -20.3544  -27.9986   21.6766 C   0  0  0  0  0  0  0  0  0  0  0  0
  -25.1178  -26.8002   20.4441 C   0  0  0  0  0  0  0  0  0  0  0  0
  -26.8966  -16.4322   20.8958 C   0  0  0  0  0  0  0  0  0  0  0  0
  -26.6060  -16.8894   18.5413 C   0  0  0  0  0  0  0  0  0  0  0  0
  -25.5370  -27.1065   19.1502 C   0  0  0  0  0  0  0  0  0  0  0  0
  -26.2836  -13.2609   19.8959 C   0  0  0  0  0  0  0  0  0  0  0  0
  -26.4224  -12.0284   20.5341 C   0  0  0  0  0  0  0  0  0  0  0  0
  -26.6413  -29.0832   19.9824 C   0  0  0  0  0  0  0  0  0  0  0  0
  -24.5647  -12.5685   21.9813 C   0  0  0  0  0  0  0  0  0  0  0  0
  -27.2398  -25.7521   14.0221 C   0  0  0  0  0  0  0  0  0  0  0  0
  -28.3805  -17.9725   19.7721 C   0  0  0  0  0  0  0  0  0  0  0  0
  -30.8552  -18.5616   19.5802 C   0  0  0  0  0  0  0  0  0  0  0  0
  -19.2244  -27.9749   23.8236 C   0  0  0  0  0  0  0  0  0  0  0  0
  -25.4486  -27.6403   21.5171 C   0  0  0  0  0  0  0  0  0  0  0  0
  -20.2629  -28.4544   23.0027 C   0  0  0  0  0  0  0  0  0  0  0  0
  -26.2273  -28.7839   21.2893 C   0  0  0  0  0  0  0  0  0  0  0  0
  -26.2082  -16.2236   19.7007 C   0  0  0  0  0  0  0  0  0  0  0  0
  -26.2964  -28.2497   18.9187 C   0  0  0  0  0  0  0  0  0  0  0  0
  -25.2854  -14.1473   20.3005 C   0  0  0  0  0  0  0  0  0  0  0  0
  -25.5629  -11.6822   21.5767 C   0  0  0  0  0  0  0  0  0  0  0  0
  -24.4260  -13.8011   21.3432 C   0  0  0  0  0  0  0  0  0  0  0  0
  -29.5021  -18.8762   19.8085 C   0  0  0  0  0  0  0  0  0  0  0  0
  -31.5155  -19.7566   19.7299 C   0  0  0  0  0  0  0  0  0  0  0  0
  -28.6605  -25.6273   15.6577 C   0  0  0  0  0  0  0  0  0  0  0  0
  -31.4609  -17.3018   19.2613 C   0  0  0  0  0  0  0  0  0  0  0  0
  -23.7906  -29.3770   23.5999 C   0  0  0  0  0  0  0  0  0  0  0  0
  -26.7105  -29.8626   24.9268 C   0  0  0  0  0  0  0  0  0  0  0  0
  -30.0983  -29.9472   24.5235 C   0  0  0  0  0  0  0  0  0  0  0  0
  -29.7996  -25.4638   19.1514 C   0  0  0  0  0  0  0  0  0  0  0  0
  -19.0443  -28.4606   25.2401 C   0  0  0  0  0  0  0  0  0  0  0  0
  -25.0113  -27.2816   22.9108 C   0  0  0  0  0  0  0  0  0  0  0  0
  -26.6263  -29.7077   22.4100 C   0  0  0  0  0  0  0  0  0  0  0  0
  -20.2869  -29.1353   25.8153 C   0  0  0  0  0  0  0  0  0  0  0  0
  -31.2165  -23.9364   22.0386 C   0  0  0  0  0  0  0  0  0  0  0  0
  -20.8673  -30.1283   24.8134 C   0  0  0  0  0  0  0  0  0  0  0  0
  -31.0599  -22.4380   21.7739 C   0  0  0  0  0  0  0  0  0  0  0  0
  -30.0257  -24.7310   21.5069 C   0  0  0  0  0  0  0  0  0  0  0  0
  -29.5521  -22.9967   19.8212 C   0  0  0  0  0  0  0  0  0  0  0  0
  -21.3040  -29.4206   23.5249 C   0  0  1  0  0  0  0  0  0  0  0  0
  -24.9707  -28.4817   23.8518 C   0  0  1  0  0  0  0  0  0  0  0  0
  -30.7547  -22.1597   20.2898 C   0  0  2  0  0  0  0  0  0  0  0  0
  -31.6730  -25.1337   15.5776 C   0  0  0  0  0  0  0  0  0  0  0  0
  -32.5161  -30.1329   25.1692 C   0  0  0  0  0  0  0  0  0  0  0  0
  -26.1497  -32.8573   24.7602 C   0  0  0  0  0  0  0  0  0  0  0  0
  -28.5945  -33.2641   25.1153 C   0  0  0  0  0  0  0  0  0  0  0  0
  -27.2533  -32.1189   26.8795 C   0  0  0  0  0  0  0  0  0  0  0  0
  -30.2942  -27.0459   25.0739 C   0  0  0  0  0  0  0  0  0  0  0  0
  -31.0118  -26.3193   16.2698 C   0  0  0  0  0  0  0  0  0  0  0  0
  -26.4938  -28.5751   15.2669 C   0  0  0  0  0  0  0  0  0  0  0  0
  -27.8983  -28.0114   15.0403 C   0  0  0  0  0  0  0  0  0  0  0  0
  -25.8681  -28.1270   16.5826 C   0  0  0  0  0  0  0  0  0  1  0  0
  -29.5602  -26.0406   16.7495 C   0  0  2  0  0  0  0  0  0  0  0  0
  -27.8107  -30.8806   24.7469 C   0  0  1  0  0  0  0  0  0  0  0  0
  -31.2257  -29.3476   25.3445 C   0  0  2  0  0  0  0  0  0  0  0  0
  -27.4431  -32.2640   25.3538 C   0  0  0  0  0  0  0  0  0  0  0  0
  -27.5193  -24.4815   14.2061 N   0  0  0  0  0  0  0  0  0  0  0  0
  -29.3126  -20.1697   20.0825 N   0  0  0  0  0  0  0  0  0  0  0  0
  -28.4232  -24.4021   15.2466 N   0  0  0  0  0  0  0  0  0  0  0  0
  -27.9363  -26.5093   14.9145 N   0  0  0  0  0  0  0  0  0  0  0  0
  -30.5553  -20.6784   20.0275 N   0  0  0  0  0  0  0  0  0  0  0  0
  -26.1692  -29.3174   23.7540 N   0  0  0  0  0  0  0  0  0  0  0  0
  -29.7907  -24.4226   20.0942 N   0  0  0  0  0  0  0  0  0  0  0  0
  -32.8181  -20.0983   19.6347 N   0  0  0  0  0  0  0  0  0  0  0  0
  -30.6364  -16.1744   19.1449 N   0  0  0  0  0  0  0  0  0  0  0  0
  -22.5682  -28.7446   23.7231 N   0  0  0  0  0  0  0  0  0  0  0  0
  -29.0164  -30.2824   25.3098 N   0  0  0  0  0  0  0  0  0  0  0  0
  -29.5747  -25.0841   17.8338 N   0  0  0  0  0  0  0  0  0  0  0  0
  -31.4740  -27.9374   24.9313 N   0  3  0  0  0  0  0  0  0  0  0  0
  -32.6987  -17.1764   19.1009 O   0  0  0  0  0  0  0  0  0  0  0  0
  -23.9754  -30.5548   23.3164 O   0  0  0  0  0  0  0  0  0  0  0  0
  -26.3498  -29.5570   26.0662 O   0  0  0  0  0  0  0  0  0  0  0  0
  -30.1716  -30.1059   23.3070 O   0  0  0  0  0  0  0  0  0  0  0  0
  -29.9990  -26.6436   19.4602 O   0  0  0  0  0  0  0  0  0  0  0  0
  -25.1484  -15.3703   19.6655 O   0  0  0  0  0  0  0  0  0  0  0  0
  -26.7063  -28.5514   17.6566 O   0  0  0  0  0  0  0  0  0  1  0  0
  -25.6953  -10.4979   22.1884 F   0  0  0  0  0  0  0  0  0  0  0  0
  -23.4644  -14.6480   21.7355 F   0  0  0  0  0  0  0  0  0  0  0  0
  1  2  1  0  0  0  0
  1  5  2  0  0  0  0
  2  6  2  0  0  0  0
  3  8  2  0  0  0  0
  3 16  1  0  0  0  0
  4  9  1  0  0  0  0
  4 16  2  0  0  0  0
  5 18  1  0  0  0  0
  6 20  1  0  0  0  0
  7 10  2  0  0  0  0
  7 19  1  0  0  0  0
  8 22  1  0  0  0  0
  9 22  2  0  0  0  0
 10 23  1  0  0  0  0
 11 12  2  0  0  0  0
 11 24  1  0  0  0  0
 12 25  1  0  0  0  0
 13 21  1  0  0  0  0
 13 23  2  0  0  0  0
 14 25  2  0  0  0  0
 14 26  1  0  0  0  0
 15 61  2  0  0  0  0
 15 64  1  0  0  0  0
 16 27  1  0  0  0  0
 17 27  1  0  0  0  0
 17 28  2  0  0  0  0
 17 30  1  0  0  0  0
 18 20  2  0  0  0  0
 18 35  1  0  0  0  0
 19 21  2  0  0  0  0
 19 36  1  0  0  0  0
 20 44  1  0  0  0  0
 21 37  1  0  0  0  0
 22 79  1  0  0  0  0
 23 80  1  0  0  0  0
 24 26  2  0  0  0  0
 24 79  1  0  0  0  0
 25 81  1  0  0  0  0
 26 82  1  0  0  0  0
 27 62  2  0  0  0  0
 28 65  1  0  0  0  0
 28 68  1  0  0  0  0
 29 57  1  0  0  0  0
 29 63  2  0  0  0  0
 29 64  1  0  0  0  0
 30 69  1  0  0  0  0
 30 74  2  0  0  0  0
 31 45  1  0  0  0  0
 31 70  1  0  0  0  0
 31 75  2  0  0  0  0
 32 58  1  0  0  0  0
 32 66  1  0  0  0  0
 32 76  2  0  0  0  0
 33 59  1  0  0  0  0
 33 71  1  0  0  0  0
 33 77  2  0  0  0  0
 34 67  1  0  0  0  0
 34 72  1  0  0  0  0
 34 78  2  0  0  0  0
 35 38  1  0  0  0  0
 36 45  1  0  0  0  0
 37 66  1  0  0  0  0
 38 40  1  0  0  0  0
 39 41  1  0  0  0  0
 39 42  1  0  0  0  0
 40 44  1  0  0  0  0
 41 46  1  0  0  0  0
 42 67  1  0  0  0  0
 43 46  1  0  0  0  0
 43 67  1  0  0  0  0
 44 70  1  0  0  0  0
 45 66  1  0  0  0  0
 46 65  1  0  0  0  0
 47 53  1  0  0  0  0
 48 59  1  0  0  0  0
 49 60  1  0  0  0  0
 50 60  1  0  0  0  0
 51 60  1  0  0  0  0
 52 73  1  0  0  0  0
 53 57  1  0  0  0  0
 54 55  1  0  0  0  0
 54 56  1  0  0  0  0
 55 64  1  0  0  0  0
 56 80  1  0  0  0  0
 57 72  1  0  0  0  0
 58 60  1  0  0  0  0
 58 71  1  0  0  0  0
 59 73  1  0  0  0  0
 61 63  1  0  0  0  0
 62 65  1  0  0  0  0
M  CHG  1  73   1
M  ISO  4  34 100  56 101  72 100  80 101
M  END
> <Batch ID>
0060

> <Smiles>
CCC([100NH:0][100C:0](=O)N1CCCC(n2nc(-c3ccc(Oc4ccc(F)cc4F)cc3)c(C(N)=O)c2N)C1)c1nncn1CC[101CH2:1][101O:1]c1ccc2c(c1)CN(C(=O)C(NC(=O)C(C)NC)C(C)(C)C)C(C(=O)NC1CCCc3ccccc31)C2

> <Shape>
0.260

> <Color>
0.086

> <Negative vol penalty>
0.000

$$$$

  -OEChem-04052317553D

 85 93  0     1  0  0  0  0  0999 V2000
  -19.2936  -23.9163   24.1612 C   0  0  0  0  0  0  0  0  0  0  0  0
  -20.6724  -24.0350   24.0193 C   0  0  0  0  0  0  0  0  0  0  0  0
  -28.1791  -12.5739   21.8204 C   0  0  0  0  0  0  0  0  0  0  0  0
  -26.5988  -13.2797   20.1347 C   0  0  0  0  0  0  0  0  0  0  0  0
  -18.4599  -24.9571   23.7541 C   0  0  0  0  0  0  0  0  0  0  0  0
  -21.2183  -25.1942   23.4691 C   0  0  0  0  0  0  0  0  0  0  0  0
  -25.2250  -26.8779   26.0684 C   0  0  0  0  0  0  0  0  0  0  0  0
  -27.5632  -11.3236   21.8744 C   0  0  0  0  0  0  0  0  0  0  0  0
  -25.9829  -12.0294   20.1886 C   0  0  0  0  0  0  0  0  0  0  0  0
  -26.4374  -26.2197   25.8664 C   0  0  0  0  0  0  0  0  0  0  0  0
  -23.7987  -10.4128   22.2002 C   0  0  0  0  0  0  0  0  0  0  0  0
  -22.4049  -10.3783   22.2423 C   0  0  0  0  0  0  0  0  0  0  0  0
  -27.1355  -27.9777   24.3694 C   0  0  0  0  0  0  0  0  0  0  0  0
  -22.3741   -9.1114   20.1853 C   0  0  0  0  0  0  0  0  0  0  0  0
  -28.3740  -24.4959   20.5232 C   0  0  0  0  0  0  0  0  0  0  0  0
  -27.6969  -13.5520   20.9506 C   0  0  0  0  0  0  0  0  0  0  0  0
  -29.3968  -15.2325   20.0595 C   0  0  0  0  0  0  0  0  0  0  0  0
  -18.9964  -26.1335   23.2075 C   0  0  0  0  0  0  0  0  0  0  0  0
  -24.9540  -28.0875   25.4128 C   0  0  0  0  0  0  0  0  0  0  0  0
  -20.3910  -26.2511   23.0530 C   0  0  0  0  0  0  0  0  0  0  0  0
  -25.9200  -28.6505   24.5667 C   0  0  0  0  0  0  0  0  0  0  0  0
  -26.4651  -11.0513   21.0584 C   0  0  0  0  0  0  0  0  0  0  0  0
  -27.3917  -26.7681   25.0146 C   0  0  0  0  0  0  0  0  0  0  0  0
  -24.4802   -9.7967   21.1506 C   0  0  0  0  0  0  0  0  0  0  0  0
  -21.6926   -9.7275   21.2349 C   0  0  0  0  0  0  0  0  0  0  0  0
  -23.7679   -9.1460   20.1432 C   0  0  0  0  0  0  0  0  0  0  0  0
  -28.3324  -14.8440   20.8949 C   0  0  0  0  0  0  0  0  0  0  0  0
  -29.8929  -25.4276   21.6874 C   0  0  0  0  0  0  0  0  0  0  0  0
  -29.3131  -24.4969   22.5169 C   0  0  0  0  0  0  0  0  0  0  0  0
  -29.6303  -16.5453   20.3890 C   0  0  0  0  0  0  0  0  0  0  0  0
  -30.1105  -14.4745   19.0737 C   0  0  0  0  0  0  0  0  0  0  0  0
  -22.7756  -29.0616   23.3129 C   0  0  0  0  0  0  0  0  0  0  0  0
  -27.6793  -21.5950   21.3746 C   0  0  0  0  0  0  0  0  0  0  0  0
  -24.1480  -31.9567   23.8200 C   0  0  0  0  0  0  0  0  0  0  0  0
  -26.8961  -33.7291   24.7963 C   0  0  0  0  0  0  0  0  0  0  0  0
  -18.0526  -27.2122   22.7382 C   0  0  0  0  0  0  0  0  0  0  0  0
  -23.6522  -28.7985   25.6620 C   0  0  0  0  0  0  0  0  0  0  0  0
  -25.6861  -29.9571   23.8548 C   0  0  0  0  0  0  0  0  0  0  0  0
  -18.7326  -28.5598   22.5105 C   0  0  0  0  0  0  0  0  0  0  0  0
  -27.9070  -19.3449   24.2228 C   0  0  0  0  0  0  0  0  0  0  0  0
  -20.0235  -28.3793   21.7183 C   0  0  0  0  0  0  0  0  0  0  0  0
  -28.0966  -17.9953   23.5316 C   0  0  0  0  0  0  0  0  0  0  0  0
  -26.9836  -20.2602   23.4230 C   0  0  0  0  0  0  0  0  0  0  0  0
  -27.6107  -19.1225   21.3167 C   0  0  0  0  0  0  0  0  0  0  0  0
  -21.0225  -27.5029   22.4836 C   0  0  1  0  0  0  0  0  0  0  0  0
  -23.2753  -29.7647   24.5432 C   0  0  1  0  0  0  0  0  0  0  0  0
  -28.5600  -18.1808   22.0762 C   0  0  2  0  0  0  0  0  0  0  0  0
  -27.7292  -36.0806   25.0683 C   0  0  0  0  0  0  0  0  0  0  0  0
  -32.5783  -25.4399   20.1979 C   0  0  0  0  0  0  0  0  0  0  0  0
  -33.4994  -26.8134   22.0764 C   0  0  0  0  0  0  0  0  0  0  0  0
  -24.5048  -32.1772   20.7977 C   0  0  0  0  0  0  0  0  0  0  0  0
  -26.1446  -34.0267   21.1963 C   0  0  0  0  0  0  0  0  0  0  0  0
  -23.7713  -34.2892   21.9184 C   0  0  0  0  0  0  0  0  0  0  0  0
  -27.3140  -33.3682   27.7039 C   0  0  0  0  0  0  0  0  0  0  0  0
  -30.9977  -26.3540   21.9817 C   0  0  0  0  0  0  0  0  0  0  0  0
  -29.5905  -24.1139   23.9503 C   0  0  0  0  0  0  0  0  0  0  0  0
  -28.5688  -24.7040   24.9163 C   0  0  0  0  0  0  0  0  0  1  0  0
  -27.4399  -22.8569   22.1647 C   0  0  2  0  0  0  0  0  0  0  0  0
  -25.2896  -32.7226   23.1962 C   0  0  1  0  0  0  0  0  0  0  0  0
  -27.0530  -34.9007   25.7489 C   0  0  2  0  0  0  0  0  0  0  0  0
  -32.4215  -25.8027   21.6768 C   0  0  0  0  0  0  0  0  0  0  0  0
  -25.9779  -23.2774   22.0741 C   0  0  0  0  0  0  0  0  0  0  0  0
  -24.9315  -33.2783   21.7889 C   0  0  0  0  0  0  0  0  0  0  0  0
  -29.3037  -25.4222   20.4479 N   0  0  0  0  0  0  0  0  0  0  0  0
  -27.9185  -15.8301   21.6951 N   0  0  0  0  0  0  0  0  0  0  0  0
  -28.3415  -23.9084   21.7573 N   0  0  0  0  0  0  0  0  0  0  0  0
  -28.7271  -16.8513   21.3640 N   0  0  0  0  0  0  0  0  0  0  0  0
  -24.3952  -30.6110   24.1261 N   0  0  0  0  0  0  0  0  0  0  0  0
  -27.4439  -20.3891   22.0353 N   0  0  0  0  0  0  0  0  0  0  0  0
  -30.5183  -17.4561   19.9370 N   0  0  0  0  0  0  0  0  0  0  0  0
  -29.7415  -13.1392   18.8616 N   0  0  0  0  0  0  0  0  0  0  0  0
  -21.6664  -28.2668   23.5306 N   0  0  0  0  0  0  0  0  0  0  0  0
  -25.6712  -33.7460   24.1633 N   0  0  0  0  0  0  0  0  0  0  0  0
  -27.8745  -34.5038   26.9272 N   0  3  0  0  0  0  0  0  0  0  0  0
  -31.0585  -14.9619   18.4125 O   0  0  0  0  0  0  0  0  0  0  0  0
  -23.3527  -29.2290   22.2449 O   0  0  0  0  0  0  0  0  0  0  0  0
  -28.0665  -21.6806   20.2063 O   0  0  0  0  0  0  0  0  0  0  0  0
  -23.0787  -32.5332   24.0344 O   0  0  0  0  0  0  0  0  0  0  0  0
  -27.7739  -32.8856   24.6277 O   0  0  0  0  0  0  0  0  0  0  0  0
  -25.8640   -9.8313   21.1106 O   0  0  0  0  0  0  0  0  0  0  0  0
  -28.5756  -26.1274   24.8152 O   0  0  0  0  0  0  0  0  0  1  0  0
  -20.3542   -9.6931   21.2763 F   0  0  0  0  0  0  0  0  0  0  0  0
  -24.4172   -8.5513   19.1329 F   0  0  0  0  0  0  0  0  0  0  0  0
  -25.7589  -24.4353   22.7442 F   0  0  0  0  0  0  0  0  0  0  0  0
  -25.6533  -23.5127   20.7766 F   0  0  0  0  0  0  0  0  0  0  0  0
  1  2  1  0  0  0  0
  1  5  2  0  0  0  0
  2  6  2  0  0  0  0
  3  8  2  0  0  0  0
  3 16  1  0  0  0  0
  4  9  1  0  0  0  0
  4 16  2  0  0  0  0
  5 18  1  0  0  0  0
  6 20  1  0  0  0  0
  7 10  2  0  0  0  0
  7 19  1  0  0  0  0
  8 22  1  0  0  0  0
  9 22  2  0  0  0  0
 10 23  1  0  0  0  0
 11 12  2  0  0  0  0
 11 24  1  0  0  0  0
 12 25  1  0  0  0  0
 13 21  1  0  0  0  0
 13 23  2  0  0  0  0
 14 25  2  0  0  0  0
 14 26  1  0  0  0  0
 15 64  2  0  0  0  0
 15 66  1  0  0  0  0
 16 27  1  0  0  0  0
 17 27  1  0  0  0  0
 17 30  2  0  0  0  0
 17 31  1  0  0  0  0
 18 20  2  0  0  0  0
 18 36  1  0  0  0  0
 19 21  2  0  0  0  0
 19 37  1  0  0  0  0
 20 45  1  0  0  0  0
 21 38  1  0  0  0  0
 22 80  1  0  0  0  0
 23 81  1  0  0  0  0
 24 26  2  0  0  0  0
 24 80  1  0  0  0  0
 25 82  1  0  0  0  0
 26 83  1  0  0  0  0
 27 65  2  0  0  0  0
 28 29  2  0  0  0  0
 28 55  1  0  0  0  0
 28 64  1  0  0  0  0
 29 56  1  0  0  0  0
 29 66  1  0  0  0  0
 30 67  1  0  0  0  0
 30 70  1  0  0  0  0
 31 71  1  0  0  0  0
 31 75  2  0  0  0  0
 32 46  1  0  0  0  0
 32 72  1  0  0  0  0
 32 76  2  0  0  0  0
 33 58  1  0  0  0  0
 33 69  1  0  0  0  0
 33 77  2  0  0  0  0
 34 59  1  0  0  0  0
 34 68  1  0  0  0  0
 34 78  2  0  0  0  0
 35 60  1  0  0  0  0
 35 73  1  0  0  0  0
 35 79  2  0  0  0  0
 36 39  1  0  0  0  0
 37 46  1  0  0  0  0
 38 68  1  0  0  0  0
 39 41  1  0  0  0  0
 40 42  1  0  0  0  0
 40 43  1  0  0  0  0
 41 45  1  0  0  0  0
 42 47  1  0  0  0  0
 43 69  1  0  0  0  0
 44 47  1  0  0  0  0
 44 69  1  0  0  0  0
 45 72  1  0  0  0  0
 46 68  1  0  0  0  0
 47 67  1  0  0  0  0
 48 60  1  0  0  0  0
 49 61  1  0  0  0  0
 50 61  1  0  0  0  0
 51 63  1  0  0  0  0
 52 63  1  0  0  0  0
 53 63  1  0  0  0  0
 54 74  1  0  0  0  0
 55 61  1  0  0  0  0
 56 57  1  0  0  0  0
 57 81  1  0  0  0  0
 58 62  1  0  0  0  0
 58 66  1  0  0  0  0
 59 63  1  0  0  0  0
 59 73  1  0  0  0  0
 60 74  1  0  0  0  0
 62 84  1  0  0  0  0
 62 85  1  0  0  0  0
 65 67  1  0  0  0  0
M  CHG  1  74   1
M  ISO  4  33 100  57 101  58 100  81 101
M  END
> <Batch ID>
0060

> <Smiles>
CNC(C)C(=O)NC(C(=O)N1Cc2cc([101O:1][101CH2:1]Cc3c(CC(C)C)ncn3[100CH:0](C(F)F)[100C:0](=O)N3CCCC(n4nc(-c5ccc(Oc6ccc(F)cc6F)cc5)c(C(N)=O)c4N)C3)ccc2CC1C(=O)NC1CCCc2ccccc21)C(C)(C)C

> <Shape>
0.240

> <Color>
0.093

> <Negative vol penalty>
0.000

$$$$

  -OEChem-04052317553D

 83 91  0     1  0  0  0  0  0999 V2000
  -23.7997  -33.4402   22.6694 C   0  0  0  0  0  0  0  0  0  0  0  0
  -24.4543  -32.2146   22.5992 C   0  0  0  0  0  0  0  0  0  0  0  0
  -23.3434   -9.7855   20.8667 C   0  0  0  0  0  0  0  0  0  0  0  0
  -23.8258  -10.5235   23.1161 C   0  0  0  0  0  0  0  0  0  0  0  0
  -22.4758  -33.4982   23.1029 C   0  0  0  0  0  0  0  0  0  0  0  0
  -23.7856  -31.0464   22.9634 C   0  0  0  0  0  0  0  0  0  0  0  0
  -24.4529  -25.4927   20.4701 C   0  0  0  0  0  0  0  0  0  0  0  0
  -22.6378   -8.6952   21.3757 C   0  0  0  0  0  0  0  0  0  0  0  0
  -23.1202   -9.4333   23.6251 C   0  0  0  0  0  0  0  0  0  0  0  0
  -25.1876  -24.3728   20.8573 C   0  0  0  0  0  0  0  0  0  0  0  0
  -19.8907   -8.5708   24.1220 C   0  0  0  0  0  0  0  0  0  0  0  0
  -19.0040   -8.8078   25.1723 C   0  0  0  0  0  0  0  0  0  0  0  0
  -23.2242  -23.4598   21.9206 C   0  0  0  0  0  0  0  0  0  0  0  0
  -20.2514   -7.2819   26.5697 C   0  0  0  0  0  0  0  0  0  0  0  0
  -28.6215  -18.8267   23.4362 C   0  0  0  0  0  0  0  0  0  0  0  0
  -27.4714  -17.9628   21.5958 C   0  0  0  0  0  0  0  0  0  0  0  0
  -23.9375  -10.6996   21.7369 C   0  0  0  0  0  0  0  0  0  0  0  0
  -24.1558  -13.1006   20.9032 C   0  0  0  0  0  0  0  0  0  0  0  0
  -21.7875  -32.3291   23.4634 C   0  0  0  0  0  0  0  0  0  0  0  0
  -23.0988  -25.6098   20.8152 C   0  0  0  0  0  0  0  0  0  0  0  0
  -22.4517  -31.0891   23.4033 C   0  0  0  0  0  0  0  0  0  0  0  0
  -22.4739  -24.5810   21.5344 C   0  0  0  0  0  0  0  0  0  0  0  0
  -22.5262   -8.5191   22.7549 C   0  0  0  0  0  0  0  0  0  0  0  0
  -24.5740  -23.3575   21.5851 C   0  0  0  0  0  0  0  0  0  0  0  0
  -20.9577   -7.6892   24.2955 C   0  0  0  0  0  0  0  0  0  0  0  0
  -27.5364  -18.9189   22.5887 C   0  0  0  0  0  0  0  0  0  0  0  0
  -19.1844   -8.1634   26.3962 C   0  0  0  0  0  0  0  0  0  0  0  0
  -21.1381   -7.0448   25.5193 C   0  0  0  0  0  0  0  0  0  0  0  0
  -24.6669  -11.8257   21.2117 C   0  0  0  0  0  0  0  0  0  0  0  0
  -25.2417  -13.8032   20.4407 C   0  0  0  0  0  0  0  0  0  0  0  0
  -29.3997  -17.0038   22.3232 C   0  0  0  0  0  0  0  0  0  0  0  0
  -22.8191  -13.6048   21.0240 C   0  0  0  0  0  0  0  0  0  0  0  0
  -21.3972  -27.6493   22.5613 C   0  0  0  0  0  0  0  0  0  0  0  0
  -18.8940  -25.9235   21.4309 C   0  0  0  0  0  0  0  0  0  0  0  0
  -17.7519  -22.9739   20.1494 C   0  0  0  0  0  0  0  0  0  0  0  0
  -31.1866  -12.7337   21.4667 C   0  0  0  0  0  0  0  0  0  0  0  0
  -20.3722  -32.4472   23.9709 C   0  0  0  0  0  0  0  0  0  0  0  0
  -22.3134  -26.8117   20.3670 C   0  0  0  0  0  0  0  0  0  0  0  0
  -21.0175  -24.6491   21.9125 C   0  0  0  0  0  0  0  0  0  0  0  0
  -19.6163  -31.1210   23.9816 C   0  0  0  0  0  0  0  0  0  0  0  0
  -29.4401  -13.2076   18.2376 C   0  0  0  0  0  0  0  0  0  0  0  0
  -20.4786  -30.0199   24.5907 C   0  0  0  0  0  0  0  0  0  0  0  0
  -27.9813  -12.9420   18.6058 C   0  0  0  0  0  0  0  0  0  0  0  0
  -30.4017  -12.4456   19.1445 C   0  0  0  0  0  0  0  0  0  0  0  0
  -28.7274  -12.4293   20.9640 C   0  0  0  0  0  0  0  0  0  0  0  0
  -21.7523  -29.7971   23.7662 C   0  0  1  0  0  0  0  0  0  0  0  0
  -21.0715  -27.0646   21.2161 C   0  0  1  0  0  0  0  0  0  0  0  0
  -27.7333  -13.2186   20.0989 C   0  0  2  0  0  0  0  0  0  0  0  0
  -15.6513  -21.8516   19.3587 C   0  0  0  0  0  0  0  0  0  0  0  0
  -18.0103  -25.5431   24.3265 C   0  0  0  0  0  0  0  0  0  0  0  0
  -16.5219  -23.6836   23.5548 C   0  0  0  0  0  0  0  0  0  0  0  0
  -16.1500  -26.0047   22.7201 C   0  0  0  0  0  0  0  0  0  0  0  0
  -32.1306  -13.6515   23.5514 C   0  0  0  0  0  0  0  0  0  0  0  0
  -18.8385  -22.6035   17.4215 C   0  0  0  0  0  0  0  0  0  0  0  0
  -30.4343  -15.9403   22.1759 C   0  0  0  0  0  0  0  0  0  0  0  0
  -29.9978  -14.5776   22.7273 C   0  0  0  0  0  0  0  0  0  0  0  0
  -24.5763  -21.0339   22.0919 C   0  0  0  0  0  0  0  0  0  1  0  0
  -25.5157  -19.8833   21.7869 C   0  0  0  0  0  0  0  0  0  0  0  0
  -18.1475  -24.6949   21.8918 C   0  0  1  0  0  0  0  0  0  0  0  0
  -16.8670  -22.6706   18.9537 C   0  0  2  0  0  0  0  0  0  0  0  0
  -17.2354  -24.9809   23.1180 C   0  0  0  0  0  0  0  0  0  0  0  0
  -29.5756  -17.8785   23.3320 N   0  0  0  0  0  0  0  0  0  0  0  0
  -28.3892  -16.9873   21.4332 N   0  0  0  0  0  0  0  0  0  0  0  0
  -25.9756  -11.7215   20.9658 N   0  0  0  0  0  0  0  0  0  0  0  0
  -26.2960  -12.9399   20.4978 N   0  0  0  0  0  0  0  0  0  0  0  0
  -20.2938  -25.8473   21.4566 N   0  0  0  0  0  0  0  0  0  0  0  0
  -30.1161  -12.6926   20.5582 N   0  0  0  0  0  0  0  0  0  0  0  0
  -25.3879  -15.0689   19.9948 N   0  0  0  0  0  0  0  0  0  0  0  0
  -21.8244  -12.7494   21.5171 N   0  0  0  0  0  0  0  0  0  0  0  0
  -21.4557  -29.0298   22.5755 N   0  0  0  0  0  0  0  0  0  0  0  0
  -17.4364  -24.1872   20.7235 N   0  0  0  0  0  0  0  0  0  0  0  0
  -31.0432  -13.5663   22.5869 N   0  0  0  0  0  0  0  0  0  0  0  0
  -17.6286  -21.9049   17.9267 N   0  3  0  0  0  0  0  0  0  0  0  0
  -22.5124  -14.7740   20.6886 O   0  0  0  0  0  0  0  0  0  0  0  0
  -21.5805  -26.9032   23.5161 O   0  0  0  0  0  0  0  0  0  0  0  0
  -18.2585  -26.9117   21.0551 O   0  0  0  0  0  0  0  0  0  0  0  0
  -18.6323  -22.2092   20.5376 O   0  0  0  0  0  0  0  0  0  0  0  0
  -32.2158  -12.0716   21.2818 O   0  0  0  0  0  0  0  0  0  0  0  0
  -21.8376   -7.4555   23.2520 O   0  0  0  0  0  0  0  0  0  0  0  0
  -25.2889  -22.2636   21.9649 O   0  0  0  0  0  0  0  0  0  1  0  0
  -26.5856  -19.8961   22.7241 O   0  0  0  0  0  0  0  0  0  0  0  0
  -18.3337   -8.3923   27.4052 F   0  0  0  0  0  0  0  0  0  0  0  0
  -22.1620   -6.1978   25.6924 F   0  0  0  0  0  0  0  0  0  0  0  0
  1  2  1  0  0  0  0
  1  5  2  0  0  0  0
  2  6  2  0  0  0  0
  3  8  2  0  0  0  0
  3 17  1  0  0  0  0
  4  9  1  0  0  0  0
  4 17  2  0  0  0  0
  5 19  1  0  0  0  0
  6 21  1  0  0  0  0
  7 10  2  0  0  0  0
  7 20  1  0  0  0  0
  8 23  1  0  0  0  0
  9 23  2  0  0  0  0
 10 24  1  0  0  0  0
 11 12  2  0  0  0  0
 11 25  1  0  0  0  0
 12 27  1  0  0  0  0
 13 22  1  0  0  0  0
 13 24  2  0  0  0  0
 14 27  2  0  0  0  0
 14 28  1  0  0  0  0
 15 26  1  0  0  0  0
 15 62  2  0  0  0  0
 16 26  2  0  0  0  0
 16 63  1  0  0  0  0
 17 29  1  0  0  0  0
 18 29  1  0  0  0  0
 18 30  2  0  0  0  0
 18 32  1  0  0  0  0
 19 21  2  0  0  0  0
 19 37  1  0  0  0  0
 20 22  2  0  0  0  0
 20 38  1  0  0  0  0
 21 46  1  0  0  0  0
 22 39  1  0  0  0  0
 23 79  1  0  0  0  0
 24 80  1  0  0  0  0
 25 28  2  0  0  0  0
 25 79  1  0  0  0  0
 26 81  1  0  0  0  0
 27 82  1  0  0  0  0
 28 83  1  0  0  0  0
 29 64  2  0  0  0  0
 30 65  1  0  0  0  0
 30 68  1  0  0  0  0
 31 55  1  0  0  0  0
 31 62  1  0  0  0  0
 31 63  2  0  0  0  0
 32 69  1  0  0  0  0
 32 74  2  0  0  0  0
 33 47  1  0  0  0  0
 33 70  1  0  0  0  0
 33 75  2  0  0  0  0
 34 59  1  0  0  0  0
 34 66  1  0  0  0  0
 34 76  2  0  0  0  0
 35 60  1  0  0  0  0
 35 71  1  0  0  0  0
 35 77  2  0  0  0  0
 36 67  1  0  0  0  0
 36 72  1  0  0  0  0
 36 78  2  0  0  0  0
 37 40  1  0  0  0  0
 38 47  1  0  0  0  0
 39 66  1  0  0  0  0
 40 42  1  0  0  0  0
 41 43  1  0  0  0  0
 41 44  1  0  0  0  0
 42 46  1  0  0  0  0
 43 48  1  0  0  0  0
 44 67  1  0  0  0  0
 45 48  1  0  0  0  0
 45 67  1  0  0  0  0
 46 70  1  0  0  0  0
 47 66  1  0  0  0  0
 48 65  1  0  0  0  0
 49 60  1  0  0  0  0
 50 61  1  0  0  0  0
 51 61  1  0  0  0  0
 52 61  1  0  0  0  0
 53 72  1  0  0  0  0
 54 73  1  0  0  0  0
 55 56  1  0  0  0  0
 56 72  1  0  0  0  0
 57 58  1  0  0  0  0
 57 80  1  0  0  0  0
 58 81  1  0  0  0  0
 59 61  1  0  0  0  0
 59 71  1  0  0  0  0
 60 73  1  0  0  0  0
 64 65  1  0  0  0  0
M  CHG  1  73   1
M  ISO  4  36 100  57 101  72 100  80 101
M  END
> <Batch ID>
0060

> <Smiles>
CNC(C)C(=O)NC(C(=O)N1Cc2cc([101O:1][101CH2:1]COc3cnc(CC[100N:0](C)[100C:0](=O)N4CCCC(n5nc(-c6ccc(Oc7ccc(F)cc7F)cc6)c(C(N)=O)c5N)C4)nc3)ccc2CC1C(=O)NC1CCCc2ccccc21)C(C)(C)C

> <Shape>
0.230

> <Color>
0.151

> <Negative vol penalty>
0.000

$$$$

  -OEChem-04052317553D

 82 90  0     1  0  0  0  0  0999 V2000
  -21.9341  -10.7145   24.4573 C   0  0  0  0  0  0  0  0  0  0  0  0
  -23.0678  -11.4891   24.6813 C   0  0  0  0  0  0  0  0  0  0  0  0
  -22.2160  -27.9956   20.9832 C   0  0  0  0  0  0  0  0  0  0  0  0
  -23.4550  -27.4422   22.9820 C   0  0  0  0  0  0  0  0  0  0  0  0
  -21.3678  -10.6614   23.1844 C   0  0  0  0  0  0  0  0  0  0  0  0
  -23.6365  -12.2102   23.6320 C   0  0  0  0  0  0  0  0  0  0  0  0
  -27.1542  -18.3092   22.3110 C   0  0  0  0  0  0  0  0  0  0  0  0
  -21.0214  -27.8987   21.6968 C   0  0  0  0  0  0  0  0  0  0  0  0
  -22.2605  -27.3453   23.6957 C   0  0  0  0  0  0  0  0  0  0  0  0
  -28.3139  -18.7708   21.6900 C   0  0  0  0  0  0  0  0  0  0  0  0
  -19.2518  -29.7999   23.8616 C   0  0  0  0  0  0  0  0  0  0  0  0
  -18.3018  -30.8040   23.6747 C   0  0  0  0  0  0  0  0  0  0  0  0
  -27.2032  -18.6660   19.5512 C   0  0  0  0  0  0  0  0  0  0  0  0
  -16.7164  -29.1580   22.8907 C   0  0  0  0  0  0  0  0  0  0  0  0
  -32.4437  -19.3195   18.9007 C   0  0  0  0  0  0  0  0  0  0  0  0
  -23.4328  -27.7673   21.6258 C   0  0  0  0  0  0  0  0  0  0  0  0
  -25.4625  -29.0150   20.7141 C   0  0  0  0  0  0  0  0  0  0  0  0
  -21.9242  -11.3898   22.1212 C   0  0  0  0  0  0  0  0  0  0  0  0
  -26.0118  -18.0116   21.5542 C   0  0  0  0  0  0  0  0  0  0  0  0
  -23.0779  -12.1657   22.3433 C   0  0  0  0  0  0  0  0  0  0  0  0
  -26.0294  -18.2032   20.1652 C   0  0  0  0  0  0  0  0  0  0  0  0
  -21.0436  -27.5736   23.0530 C   0  0  0  0  0  0  0  0  0  0  0  0
  -28.3395  -18.9466   20.3096 C   0  0  0  0  0  0  0  0  0  0  0  0
  -18.9342  -28.4749   23.5629 C   0  0  0  0  0  0  0  0  0  0  0  0
  -17.0341  -30.4830   23.1893 C   0  0  0  0  0  0  0  0  0  0  0  0
  -17.6665  -28.1540   23.0775 C   0  0  0  0  0  0  0  0  0  0  0  0
  -24.6671  -27.8668   20.8890 C   0  0  0  0  0  0  0  0  0  0  0  0
  -31.7229  -20.1780   19.6904 C   0  0  0  0  0  0  0  0  0  0  0  0
  -26.5165  -28.5884   19.9437 C   0  0  0  0  0  0  0  0  0  0  0  0
  -33.0153  -21.8812   18.9633 C   0  0  0  0  0  0  0  0  0  0  0  0
  -25.2663  -30.3480   21.2043 C   0  0  0  0  0  0  0  0  0  0  0  0
  -24.3013  -15.3880   21.0116 C   0  0  0  0  0  0  0  0  0  0  0  0
  -22.3470  -17.4549   19.4524 C   0  0  0  0  0  0  0  0  0  0  0  0
  -21.9865  -20.4320   17.8233 C   0  0  0  0  0  0  0  0  0  0  0  0
  -30.4662  -24.9530   18.8801 C   0  0  0  0  0  0  0  0  0  0  0  0
  -21.3046  -11.2636   20.7519 C   0  0  0  0  0  0  0  0  0  0  0  0
  -24.7602  -17.5399   22.2422 C   0  0  0  0  0  0  0  0  0  0  0  0
  -24.8231  -17.9175   19.3099 C   0  0  0  0  0  0  0  0  0  0  0  0
  -21.7485  -12.3536   19.7797 C   0  0  0  0  0  0  0  0  0  0  0  0
  -27.2222  -24.2511   17.4373 C   0  0  0  0  0  0  0  0  0  0  0  0
  -23.2616  -12.5375   19.8386 C   0  0  0  0  0  0  0  0  0  0  0  0
  -26.3312  -25.2330   18.2003 C   0  0  0  0  0  0  0  0  0  0  0  0
  -28.3071  -23.6724   18.3408 C   0  0  0  0  0  0  0  0  0  0  0  0
  -28.2711  -25.6761   19.7751 C   0  0  0  0  0  0  0  0  0  0  0  0
  -23.7094  -12.9817   21.2363 C   0  0  1  0  0  0  0  0  0  0  0  0
  -23.8188  -16.7785   21.3140 C   0  0  1  0  0  0  0  0  0  0  0  0
  -27.1680  -26.3134   18.9108 C   0  0  2  0  0  0  0  0  0  0  0  0
  -20.2790  -21.8288   16.6272 C   0  0  0  0  0  0  0  0  0  0  0  0
  -22.5510  -15.6198   17.0233 C   0  0  0  0  0  0  0  0  0  0  0  0
  -21.6515  -17.4897   15.6223 C   0  0  0  0  0  0  0  0  0  0  0  0
  -20.2610  -16.5270   17.4560 C   0  0  0  0  0  0  0  0  0  0  0  0
  -22.2754  -22.6512   19.7600 C   0  0  0  0  0  0  0  0  0  0  0  0
  -30.5940  -19.6688   20.5375 C   0  0  0  0  0  0  0  0  0  1  0  0
  -32.5897  -24.1091   17.9129 C   0  0  0  0  0  0  0  0  0  0  0  0
  -22.2503  -17.9746   18.0384 C   0  0  1  0  0  0  0  0  0  0  0  0
  -20.9528  -21.5355   17.9586 C   0  0  2  0  0  0  0  0  0  0  0  0
  -33.3652  -23.3292   18.9815 C   0  0  0  0  0  0  0  0  0  0  0  0
  -21.7020  -16.9064   17.0506 C   0  0  0  0  0  0  0  0  0  0  0  0
  -33.4589  -19.7693   18.1412 N   0  0  0  0  0  0  0  0  0  0  0  0
  -25.1724  -26.7915   20.2787 N   0  0  0  0  0  0  0  0  0  0  0  0
  -31.9942  -21.4910   19.7406 N   0  0  0  0  0  0  0  0  0  0  0  0
  -33.7576  -21.0849   18.1691 N   0  0  0  0  0  0  0  0  0  0  0  0
  -26.2967  -27.2623   19.7127 N   0  0  0  0  0  0  0  0  0  0  0  0
  -23.6253  -17.4523   20.0285 N   0  0  0  0  0  0  0  0  0  0  0  0
  -29.0789  -24.7523   18.9718 N   0  0  0  0  0  0  0  0  0  0  0  0
  -27.6006  -29.2220   19.4480 N   0  0  0  0  0  0  0  0  0  0  0  0
  -24.1304  -30.6138   21.9811 N   0  0  0  0  0  0  0  0  0  0  0  0
  -23.4407  -14.3906   21.4290 N   0  0  0  0  0  0  0  0  0  0  0  0
  -21.4507  -19.1931   18.1051 N   0  0  0  0  0  0  0  0  0  0  0  0
  -31.1589  -24.0301   18.1060 N   0  0  0  0  0  0  0  0  0  0  0  0
  -21.5942  -22.7890   18.4469 N   0  3  0  0  0  0  0  0  0  0  0  0
  -26.0658  -31.2797   20.9469 O   0  0  0  0  0  0  0  0  0  0  0  0
  -25.3741  -15.2315   20.4403 O   0  0  0  0  0  0  0  0  0  0  0  0
  -21.3249  -17.0722   20.0273 O   0  0  0  0  0  0  0  0  0  0  0  0
  -23.1516  -20.6470   17.4965 O   0  0  0  0  0  0  0  0  0  0  0  0
  -31.0447  -25.8892   19.4423 O   0  0  0  0  0  0  0  0  0  0  0  0
  -19.8782  -27.4791   23.7497 O   0  0  0  0  0  0  0  0  0  0  0  0
  -29.4704  -19.3964   19.7009 O   0  0  0  0  0  0  0  0  0  1  0  0
  -16.1214  -31.4471   23.0114 F   0  0  0  0  0  0  0  0  0  0  0  0
  -17.3552  -26.8827   22.7899 F   0  0  0  0  0  0  0  0  0  0  0  0
  -33.1088  -23.9235   20.1923 F   0  0  0  0  0  0  0  0  0  0  0  0
  -34.7024  -23.5558   18.7674 F   0  0  0  0  0  0  0  0  0  0  0  0
  1  2  1  0  0  0  0
  1  5  2  0  0  0  0
  2  6  2  0  0  0  0
  3  8  2  0  0  0  0
  3 16  1  0  0  0  0
  4  9  1  0  0  0  0
  4 16  2  0  0  0  0
  5 18  1  0  0  0  0
  6 20  1  0  0  0  0
  7 10  2  0  0  0  0
  7 19  1  0  0  0  0
  8 22  1  0  0  0  0
  9 22  2  0  0  0  0
 10 23  1  0  0  0  0
 11 12  2  0  0  0  0
 11 24  1  0  0  0  0
 12 25  1  0  0  0  0
 13 21  1  0  0  0  0
 13 23  2  0  0  0  0
 14 25  2  0  0  0  0
 14 26  1  0  0  0  0
 15 28  1  0  0  0  0
 15 59  2  0  0  0  0
 16 27  1  0  0  0  0
 17 27  1  0  0  0  0
 17 29  2  0  0  0  0
 17 31  1  0  0  0  0
 18 20  2  0  0  0  0
 18 36  1  0  0  0  0
 19 21  2  0  0  0  0
 19 37  1  0  0  0  0
 20 45  1  0  0  0  0
 21 38  1  0  0  0  0
 22 77  1  0  0  0  0
 23 78  1  0  0  0  0
 24 26  2  0  0  0  0
 24 77  1  0  0  0  0
 25 79  1  0  0  0  0
 26 80  1  0  0  0  0
 27 60  2  0  0  0  0
 28 53  1  0  0  0  0
 28 61  2  0  0  0  0
 29 63  1  0  0  0  0
 29 66  1  0  0  0  0
 30 57  1  0  0  0  0
 30 61  1  0  0  0  0
 30 62  2  0  0  0  0
 31 67  1  0  0  0  0
 31 72  2  0  0  0  0
 32 46  1  0  0  0  0
 32 68  1  0  0  0  0
 32 73  2  0  0  0  0
 33 55  1  0  0  0  0
 33 64  1  0  0  0  0
 33 74  2  0  0  0  0
 34 56  1  0  0  0  0
 34 69  1  0  0  0  0
 34 75  2  0  0  0  0
 35 65  1  0  0  0  0
 35 70  1  0  0  0  0
 35 76  2  0  0  0  0
 36 39  1  0  0  0  0
 37 46  1  0  0  0  0
 38 64  1  0  0  0  0
 39 41  1  0  0  0  0
 40 42  1  0  0  0  0
 40 43  1  0  0  0  0
 41 45  1  0  0  0  0
 42 47  1  0  0  0  0
 43 65  1  0  0  0  0
 44 47  1  0  0  0  0
 44 65  1  0  0  0  0
 45 68  1  0  0  0  0
 46 64  1  0  0  0  0
 47 63  1  0  0  0  0
 48 56  1  0  0  0  0
 49 58  1  0  0  0  0
 50 58  1  0  0  0  0
 51 58  1  0  0  0  0
 52 71  1  0  0  0  0
 53 78  1  0  0  0  0
 54 57  1  0  0  0  0
 54 70  1  0  0  0  0
 55 58  1  0  0  0  0
 55 69  1  0  0  0  0
 56 71  1  0  0  0  0
 57 81  1  0  0  0  0
 57 82  1  0  0  0  0
 59 62  1  0  0  0  0
 60 63  1  0  0  0  0
M  CHG  1  71   1
M  ISO  4  35 100  53 101  70 100  78 101
M  END
> <Batch ID>
0060

> <Smiles>
CNC(C)C(=O)NC(C(=O)N1Cc2cc([101O:1][101CH2:1]c3cnnc(C(F)(F)C[100NH:0][100C:0](=O)N4CCCC(n5nc(-c6ccc(Oc7ccc(F)cc7F)cc6)c(C(N)=O)c5N)C4)n3)ccc2CC1C(=O)NC1CCCc2ccccc21)C(C)(C)C

> <Shape>
0.209

> <Color>
0.069

> <Negative vol penalty>
0.000

$$$$

  -OEChem-04052317553D

 83 91  0     1  0  0  0  0  0999 V2000
  -22.0623  -12.3295   19.2542 C   0  0  0  0  0  0  0  0  0  0  0  0
  -21.9147  -13.7032   19.4179 C   0  0  0  0  0  0  0  0  0  0  0  0
  -29.1742  -27.4927   21.2600 C   0  0  0  0  0  0  0  0  0  0  0  0
  -28.0502  -25.3738   20.9704 C   0  0  0  0  0  0  0  0  0  0  0  0
  -23.2263  -11.6978   19.6900 C   0  0  0  0  0  0  0  0  0  0  0  0
  -22.9307  -14.4458   20.0186 C   0  0  0  0  0  0  0  0  0  0  0  0
  -23.9211  -18.7469   17.5357 C   0  0  0  0  0  0  0  0  0  0  0  0
  -30.3143  -26.8265   21.7095 C   0  0  0  0  0  0  0  0  0  0  0  0
  -29.1903  -24.7075   21.4199 C   0  0  0  0  0  0  0  0  0  0  0  0
  -23.0401  -19.8103   17.7279 C   0  0  0  0  0  0  0  0  0  0  0  0
  -31.3803  -25.3618   24.5630 C   0  0  0  0  0  0  0  0  0  0  0  0
  -32.0184  -25.8636   25.6973 C   0  0  0  0  0  0  0  0  0  0  0  0
  -24.5823  -20.7961   19.2992 C   0  0  0  0  0  0  0  0  0  0  0  0
  -34.0354  -26.2045   24.4118 C   0  0  0  0  0  0  0  0  0  0  0  0
  -28.0421  -26.7663   20.8905 C   0  0  0  0  0  0  0  0  0  0  0  0
  -26.5499  -27.8017   19.0992 C   0  0  0  0  0  0  0  0  0  0  0  0
  -24.2612  -12.4345   20.2876 C   0  0  0  0  0  0  0  0  0  0  0  0
  -25.1364  -18.6945   18.2333 C   0  0  0  0  0  0  0  0  0  0  0  0
  -24.1091  -13.8231   20.4640 C   0  0  0  0  0  0  0  0  0  0  0  0
  -25.4780  -19.7322   19.1123 C   0  0  0  0  0  0  0  0  0  0  0  0
  -30.3223  -25.4339   21.7894 C   0  0  0  0  0  0  0  0  0  0  0  0
  -23.3693  -20.8336   18.6119 C   0  0  0  0  0  0  0  0  0  0  0  0
  -32.0698  -25.2812   23.3531 C   0  0  0  0  0  0  0  0  0  0  0  0
  -33.3459  -26.2850   25.6217 C   0  0  0  0  0  0  0  0  0  0  0  0
  -33.3974  -25.7026   23.2776 C   0  0  0  0  0  0  0  0  0  0  0  0
  -26.8640  -27.4539   20.4267 C   0  0  0  0  0  0  0  0  0  0  0  0
  -25.3338  -28.4338   19.1884 C   0  0  0  0  0  0  0  0  0  0  0  0
  -21.8284  -23.9201   19.8144 C   0  0  0  0  0  0  0  0  0  0  0  0
  -20.1547  -25.0639   20.5888 C   0  0  0  0  0  0  0  0  0  0  0  0
  -27.2912  -27.5738   17.8933 C   0  0  0  0  0  0  0  0  0  0  0  0
  -26.4287  -16.6966   20.3410 C   0  0  0  0  0  0  0  0  0  0  0  0
  -29.0302  -18.5968   19.9615 C   0  0  0  0  0  0  0  0  0  0  0  0
  -30.2876  -21.6468   19.0878 C   0  0  0  0  0  0  0  0  0  0  0  0
  -20.8718  -28.1469   23.1709 C   0  0  0  0  0  0  0  0  0  0  0  0
  -25.4809  -11.7005   20.7856 C   0  0  0  0  0  0  0  0  0  0  0  0
  -26.0877  -17.5541   17.9948 C   0  0  0  0  0  0  0  0  0  0  0  0
  -26.7796  -19.7334   19.8702 C   0  0  0  0  0  0  0  0  0  0  0  0
  -26.6680  -12.6163   21.0727 C   0  0  0  0  0  0  0  0  0  0  0  0
  -22.6852  -31.0507   22.1930 C   0  0  0  0  0  0  0  0  0  0  0  0
  -26.2206  -13.8349   21.8737 C   0  0  0  0  0  0  0  0  0  0  0  0
  -23.9335  -30.4896   21.5097 C   0  0  0  0  0  0  0  0  0  0  0  0
  -22.2565  -30.1904   23.3796 C   0  0  0  0  0  0  0  0  0  0  0  0
  -23.3176  -28.1990   22.3886 C   0  0  0  0  0  0  0  0  0  0  0  0
  -25.1993  -14.6667   21.0884 C   0  0  1  0  0  0  0  0  0  0  0  0
  -27.0679  -17.3432   19.1447 C   0  0  1  0  0  0  0  0  0  0  0  0
  -23.7559  -29.0018   21.1518 C   0  0  2  0  0  0  0  0  0  0  0  0
  -20.3268  -21.8402   21.8062 C   0  0  0  0  0  0  0  0  0  0  0  0
  -32.4486  -22.9108   18.9158 C   0  0  0  0  0  0  0  0  0  0  0  0
  -17.9677  -24.4452   21.8261 C   0  0  0  0  0  0  0  0  0  0  0  0
  -18.2799  -26.7096   20.8614 C   0  0  0  0  0  0  0  0  0  0  0  0
  -29.0741  -18.9296   22.9942 C   0  0  0  0  0  0  0  0  0  0  0  0
  -30.5952  -20.8942   22.6868 C   0  0  0  0  0  0  0  0  0  0  0  0
  -31.3241  -18.6267   21.9453 C   0  0  0  0  0  0  0  0  0  0  0  0
  -29.9562  -22.0463   16.1741 C   0  0  0  0  0  0  0  0  0  0  0  0
  -22.9121  -22.8865   19.7222 C   0  0  0  0  0  0  0  0  0  1  0  0
  -20.9654  -23.1950   22.0597 C   0  0  0  0  0  0  0  0  0  0  0  0
  -19.6094  -26.0298   22.8825 C   0  0  0  0  0  0  0  0  0  0  0  0
  -29.5457  -19.8493   20.6282 C   0  0  1  0  0  0  0  0  0  0  0  0
  -31.4413  -22.0389   18.1824 C   0  0  2  0  0  0  0  0  0  0  0  0
  -19.0781  -25.5123   21.4897 C   0  0  0  0  0  0  0  0  0  0  0  0
  -30.1093  -19.5742   22.0510 C   0  0  0  0  0  0  0  0  0  0  0  0
  -25.9232  -27.8337   21.2955 N   0  0  0  0  0  0  0  0  0  0  0  0
  -21.5386  -24.8453   18.9276 N   0  0  0  0  0  0  0  0  0  0  0  0
  -20.4737  -25.5730   19.4202 N   0  0  0  0  0  0  0  0  0  0  0  0
  -25.0062  -28.4267   20.5123 N   0  0  0  0  0  0  0  0  0  0  0  0
  -20.9820  -24.0210   20.8765 N   0  0  0  0  0  0  0  0  0  0  0  0
  -27.6735  -18.5934   19.6077 N   0  0  0  0  0  0  0  0  0  0  0  0
  -22.1041  -28.7914   22.9727 N   0  0  0  0  0  0  0  0  0  0  0  0
  -24.5233  -28.9894   18.2627 N   0  0  0  0  0  0  0  0  0  0  0  0
  -28.5223  -26.9096   17.9812 N   0  0  0  0  0  0  0  0  0  0  0  0
  -25.8646  -15.4626   20.0793 N   0  0  0  0  0  0  0  0  0  0  0  0
  -30.5123  -20.4347   19.7055 N   0  0  0  0  0  0  0  0  0  0  0  0
  -20.8107  -26.8237   22.7513 N   0  0  0  0  0  0  0  0  0  0  0  0
  -30.9384  -22.7944   17.0004 N   0  3  0  0  0  0  0  0  0  0  0  0
  -26.8820  -27.9626   16.7731 O   0  0  0  0  0  0  0  0  0  0  0  0
  -26.4473  -17.2739   21.4218 O   0  0  0  0  0  0  0  0  0  0  0  0
  -29.8045  -17.6588   19.7556 O   0  0  0  0  0  0  0  0  0  0  0  0
  -29.2887  -22.3476   19.2354 O   0  0  0  0  0  0  0  0  0  0  0  0
  -19.8966  -28.7108   23.6788 O   0  0  0  0  0  0  0  0  0  0  0  0
  -31.4347  -24.7835   22.2277 O   0  0  0  0  0  0  0  0  0  0  0  0
  -22.5110  -21.8724   18.8017 O   0  0  0  0  0  0  0  0  0  1  0  0
  -33.9580  -26.7684   26.7107 F   0  0  0  0  0  0  0  0  0  0  0  0
  -34.0646  -25.6288   22.1177 F   0  0  0  0  0  0  0  0  0  0  0  0
  1  2  1  0  0  0  0
  1  5  2  0  0  0  0
  2  6  2  0  0  0  0
  3  8  2  0  0  0  0
  3 15  1  0  0  0  0
  4  9  1  0  0  0  0
  4 15  2  0  0  0  0
  5 17  1  0  0  0  0
  6 19  1  0  0  0  0
  7 10  2  0  0  0  0
  7 18  1  0  0  0  0
  8 21  1  0  0  0  0
  9 21  2  0  0  0  0
 10 22  1  0  0  0  0
 11 12  2  0  0  0  0
 11 23  1  0  0  0  0
 12 24  1  0  0  0  0
 13 20  1  0  0  0  0
 13 22  2  0  0  0  0
 14 24  2  0  0  0  0
 14 25  1  0  0  0  0
 15 26  1  0  0  0  0
 16 26  1  0  0  0  0
 16 27  2  0  0  0  0
 16 30  1  0  0  0  0
 17 19  2  0  0  0  0
 17 35  1  0  0  0  0
 18 20  2  0  0  0  0
 18 36  1  0  0  0  0
 19 44  1  0  0  0  0
 20 37  1  0  0  0  0
 21 80  1  0  0  0  0
 22 81  1  0  0  0  0
 23 25  2  0  0  0  0
 23 80  1  0  0  0  0
 24 82  1  0  0  0  0
 25 83  1  0  0  0  0
 26 62  2  0  0  0  0
 27 65  1  0  0  0  0
 27 69  1  0  0  0  0
 28 55  1  0  0  0  0
 28 63  2  0  0  0  0
 28 66  1  0  0  0  0
 29 60  1  0  0  0  0
 29 64  2  0  0  0  0
 29 66  1  0  0  0  0
 30 70  1  0  0  0  0
 30 75  2  0  0  0  0
 31 45  1  0  0  0  0
 31 71  1  0  0  0  0
 31 76  2  0  0  0  0
 32 58  1  0  0  0  0
 32 67  1  0  0  0  0
 32 77  2  0  0  0  0
 33 59  1  0  0  0  0
 33 72  1  0  0  0  0
 33 78  2  0  0  0  0
 34 68  1  0  0  0  0
 34 73  1  0  0  0  0
 34 79  2  0  0  0  0
 35 38  1  0  0  0  0
 36 45  1  0  0  0  0
 37 67  1  0  0  0  0
 38 40  1  0  0  0  0
 39 41  1  0  0  0  0
 39 42  1  0  0  0  0
 40 44  1  0  0  0  0
 41 46  1  0  0  0  0
 42 68  1  0  0  0  0
 43 46  1  0  0  0  0
 43 68  1  0  0  0  0
 44 71  1  0  0  0  0
 45 67  1  0  0  0  0
 46 65  1  0  0  0  0
 47 56  1  0  0  0  0
 48 59  1  0  0  0  0
 49 60  1  0  0  0  0
 50 60  1  0  0  0  0
 51 61  1  0  0  0  0
 52 61  1  0  0  0  0
 53 61  1  0  0  0  0
 54 74  1  0  0  0  0
 55 81  1  0  0  0  0
 56 66  1  0  0  0  0
 57 60  1  0  0  0  0
 57 73  1  0  0  0  0
 58 61  1  0  0  0  0
 58 72  1  0  0  0  0
 59 74  1  0  0  0  0
 62 65  1  0  0  0  0
 63 64  1  0  0  0  0
M  CHG  1  74   1
M  ISO  4  34 100  55 101  73 100  81 101
M  END
> <Batch ID>
0060

> <Smiles>
CCn1c(C(C)(C)C[100NH:0][100C:0](=O)N2CCCC(n3nc(-c4ccc(Oc5ccc(F)cc5F)cc4)c(C(N)=O)c3N)C2)nnc1[101CH2:1][101O:1]c1ccc2c(c1)CN(C(=O)C(NC(=O)C(C)NC)C(C)(C)C)C(C(=O)NC1CCCc3ccccc31)C2

> <Shape>
0.215

> <Color>
0.066

> <Negative vol penalty>
0.000

$$$$

  -OEChem-04052317553D

 86 94  0     1  0  0  0  0  0999 V2000
  -17.1405  -28.4313   24.7807 C   0  0  0  0  0  0  0  0  0  0  0  0
  -18.1814  -27.5199   24.6341 C   0  0  0  0  0  0  0  0  0  0  0  0
  -23.3818   -9.6967   20.1064 C   0  0  0  0  0  0  0  0  0  0  0  0
  -23.5854  -10.2437   22.4508 C   0  0  0  0  0  0  0  0  0  0  0  0
  -17.0815  -29.5580   23.9616 C   0  0  0  0  0  0  0  0  0  0  0  0
  -19.1633  -27.7343   23.6675 C   0  0  0  0  0  0  0  0  0  0  0  0
  -25.1067  -26.3160   24.0794 C   0  0  0  0  0  0  0  0  0  0  0  0
  -22.6322   -8.5672   20.4349 C   0  0  0  0  0  0  0  0  0  0  0  0
  -22.8358   -9.1142   22.7794 C   0  0  0  0  0  0  0  0  0  0  0  0
  -25.8486  -25.2362   23.6026 C   0  0  0  0  0  0  0  0  0  0  0  0
  -19.5794   -8.2113   22.8136 C   0  0  0  0  0  0  0  0  0  0  0  0
  -18.5716   -8.3589   23.7666 C   0  0  0  0  0  0  0  0  0  0  0  0
  -26.4785  -26.5314   21.6674 C   0  0  0  0  0  0  0  0  0  0  0  0
  -19.6600   -6.7217   25.1710 C   0  0  0  0  0  0  0  0  0  0  0  0
  -30.1169  -20.9315   21.9683 C   0  0  0  0  0  0  0  0  0  0  0  0
  -27.6938  -21.3981   20.9492 C   0  0  0  0  0  0  0  0  0  0  0  0
  -23.8584  -10.5349   21.1143 C   0  0  0  0  0  0  0  0  0  0  0  0
  -24.1491  -12.9976   20.5155 C   0  0  0  0  0  0  0  0  0  0  0  0
  -18.0684  -29.7913   22.9909 C   0  0  0  0  0  0  0  0  0  0  0  0
  -25.0362  -27.5099   23.3473 C   0  0  0  0  0  0  0  0  0  0  0  0
  -19.1166  -28.8645   22.8337 C   0  0  0  0  0  0  0  0  0  0  0  0
  -25.7371  -27.6257   22.1384 C   0  0  0  0  0  0  0  0  0  0  0  0
  -22.3592   -8.2760   21.7715 C   0  0  0  0  0  0  0  0  0  0  0  0
  -26.5323  -25.3428   22.3949 C   0  0  0  0  0  0  0  0  0  0  0  0
  -20.6274   -7.3188   23.0392 C   0  0  0  0  0  0  0  0  0  0  0  0
  -18.6119   -7.6141   24.9453 C   0  0  0  0  0  0  0  0  0  0  0  0
  -20.6677   -6.5741   24.2179 C   0  0  0  0  0  0  0  0  0  0  0  0
  -24.6333  -11.7015   20.7756 C   0  0  0  0  0  0  0  0  0  0  0  0
  -29.6689  -20.2491   20.8587 C   0  0  0  0  0  0  0  0  0  0  0  0
  -28.1413  -22.0801   22.0592 C   0  0  0  0  0  0  0  0  0  0  0  0
  -25.2747  -13.7370   20.2461 C   0  0  0  0  0  0  0  0  0  0  0  0
  -22.8022  -13.4891   20.5173 C   0  0  0  0  0  0  0  0  0  0  0  0
  -22.6962  -29.1591   21.9659 C   0  0  0  0  0  0  0  0  0  0  0  0
  -25.0547  -31.3257   21.4507 C   0  0  0  0  0  0  0  0  0  0  0  0
  -30.4074  -15.1995   21.5858 C   0  0  0  0  0  0  0  0  0  0  0  0
  -28.3926  -31.9482   21.1076 C   0  0  0  0  0  0  0  0  0  0  0  0
  -17.9363  -30.9988   22.0970 C   0  0  0  0  0  0  0  0  0  0  0  0
  -24.2533  -28.6746   23.8885 C   0  0  0  0  0  0  0  0  0  0  0  0
  -25.7101  -28.8926   21.3243 C   0  0  0  0  0  0  0  0  0  0  0  0
  -19.2211  -31.3467   21.3495 C   0  0  0  0  0  0  0  0  0  0  0  0
  -30.0457  -12.3050   19.4136 C   0  0  0  0  0  0  0  0  0  0  0  0
  -19.8352  -30.0943   20.7320 C   0  0  0  0  0  0  0  0  0  0  0  0
  -28.5618  -11.9808   19.5810 C   0  0  0  0  0  0  0  0  0  0  0  0
  -30.6565  -12.8254   20.7122 C   0  0  0  0  0  0  0  0  0  0  0  0
  -28.4565  -13.6837   21.4524 C   0  0  0  0  0  0  0  0  0  0  0  0
  -20.2141  -29.0751   21.8133 C   0  0  1  0  0  0  0  0  0  0  0  0
  -23.8329  -29.6659   22.8078 C   0  0  1  0  0  0  0  0  0  0  0  0
  -27.7955  -13.1845   20.1567 C   0  0  2  0  0  0  0  0  0  0  0  0
  -30.0128  -33.8102   20.6549 C   0  0  0  0  0  0  0  0  0  0  0  0
  -24.2880  -31.2716   18.4979 C   0  0  0  0  0  0  0  0  0  0  0  0
  -26.4793  -32.3665   17.9806 C   0  0  0  0  0  0  0  0  0  0  0  0
  -24.8019  -33.5465   19.4007 C   0  0  0  0  0  0  0  0  0  0  0  0
  -34.0229  -16.4331   20.8305 C   0  0  0  0  0  0  0  0  0  0  0  0
  -33.3035  -14.7305   22.5183 C   0  0  0  0  0  0  0  0  0  0  0  0
  -32.5215  -17.0982   22.7028 C   0  0  0  0  0  0  0  0  0  0  0  0
  -29.7342  -31.5715   23.7186 C   0  0  0  0  0  0  0  0  0  0  0  0
  -30.5992  -16.4469   18.6742 C   0  0  0  0  0  0  0  0  0  0  0  0
  -30.5311  -19.2307   20.1986 C   0  0  0  0  0  0  0  0  0  0  0  0
  -27.2725  -23.1068   22.7243 C   0  0  0  0  0  0  0  0  0  1  0  0
  -30.3581  -17.8111   20.7437 C   0  0  0  0  0  0  0  0  0  0  0  0
  -26.0602  -31.5705   20.3516 C   0  0  1  0  0  0  0  0  0  0  0  0
  -31.6140  -15.6618   20.8084 C   0  0  2  0  0  0  0  0  0  0  0  0
  -29.2883  -33.0075   21.7241 C   0  0  2  0  0  0  0  0  0  0  0  0
  -25.4065  -32.1641   19.0719 C   0  0  0  0  0  0  0  0  0  0  0  0
  -32.8450  -15.9604   21.7106 C   0  0  0  0  0  0  0  0  0  0  0  0
  -28.4495  -20.4704   20.3291 N   0  0  0  0  0  0  0  0  0  0  0  0
  -29.3609  -21.8591   22.5887 N   0  0  0  0  0  0  0  0  0  0  0  0
  -25.9630  -11.6190   20.6799 N   0  0  0  0  0  0  0  0  0  0  0  0
  -26.3239  -12.8725   20.3565 N   0  0  0  0  0  0  0  0  0  0  0  0
  -24.9256  -30.0013   21.8925 N   0  0  0  0  0  0  0  0  0  0  0  0
  -29.8818  -13.9536   21.2426 N   0  0  0  0  0  0  0  0  0  0  0  0
  -25.4596  -15.0358   19.9278 N   0  0  0  0  0  0  0  0  0  0  0  0
  -21.7650  -12.5948   20.8152 N   0  0  0  0  0  0  0  0  0  0  0  0
  -21.4451  -29.4653   22.4665 N   0  0  0  0  0  0  0  0  0  0  0  0
  -27.1043  -32.4075   20.9325 N   0  0  0  0  0  0  0  0  0  0  0  0
  -30.3076  -32.3738   22.6075 N   0  3  0  0  0  0  0  0  0  0  0  0
  -31.2139  -16.8635   19.9879 N   0  3  1  0  0  0  0  0  0  0  0  0
  -22.5253  -14.6821   20.2462 O   0  0  0  0  0  0  0  0  0  0  0  0
  -22.9363  -28.5376   20.9374 O   0  0  0  0  0  0  0  0  0  0  0  0
  -24.4128  -32.2758   21.9057 O   0  0  0  0  0  0  0  0  0  0  0  0
  -29.9457  -15.9265   22.4691 O   0  0  0  0  0  0  0  0  0  0  0  0
  -28.7963  -30.8268   20.8076 O   0  0  0  0  0  0  0  0  0  0  0  0
  -21.6276   -7.1740   22.0924 O   0  0  0  0  0  0  0  0  0  0  0  0
  -27.2567  -24.2901   21.9269 O   0  0  0  0  0  0  0  0  0  1  0  0
  -17.6449   -7.7571   25.8611 F   0  0  0  0  0  0  0  0  0  0  0  0
  -21.6727   -5.7161   24.4408 F   0  0  0  0  0  0  0  0  0  0  0  0
  1  2  1  0  0  0  0
  1  5  2  0  0  0  0
  2  6  2  0  0  0  0
  3  8  2  0  0  0  0
  3 17  1  0  0  0  0
  4  9  1  0  0  0  0
  4 17  2  0  0  0  0
  5 19  1  0  0  0  0
  6 21  1  0  0  0  0
  7 10  2  0  0  0  0
  7 20  1  0  0  0  0
  8 23  1  0  0  0  0
  9 23  2  0  0  0  0
 10 24  1  0  0  0  0
 11 12  2  0  0  0  0
 11 25  1  0  0  0  0
 12 26  1  0  0  0  0
 13 22  1  0  0  0  0
 13 24  2  0  0  0  0
 14 26  2  0  0  0  0
 14 27  1  0  0  0  0
 15 29  2  0  0  0  0
 15 67  1  0  0  0  0
 16 30  1  0  0  0  0
 16 66  2  0  0  0  0
 17 28  1  0  0  0  0
 18 28  1  0  0  0  0
 18 31  2  0  0  0  0
 18 32  1  0  0  0  0
 19 21  2  0  0  0  0
 19 37  1  0  0  0  0
 20 22  2  0  0  0  0
 20 38  1  0  0  0  0
 21 46  1  0  0  0  0
 22 39  1  0  0  0  0
 23 83  1  0  0  0  0
 24 84  1  0  0  0  0
 25 27  2  0  0  0  0
 25 83  1  0  0  0  0
 26 85  1  0  0  0  0
 27 86  1  0  0  0  0
 28 68  2  0  0  0  0
 29 58  1  0  0  0  0
 29 66  1  0  0  0  0
 30 59  1  0  0  0  0
 30 67  2  0  0  0  0
 31 69  1  0  0  0  0
 31 72  1  0  0  0  0
 32 73  1  0  0  0  0
 32 78  2  0  0  0  0
 33 47  1  0  0  0  0
 33 74  1  0  0  0  0
 33 79  2  0  0  0  0
 34 61  1  0  0  0  0
 34 70  1  0  0  0  0
 34 80  2  0  0  0  0
 35 62  1  0  0  0  0
 35 71  1  0  0  0  0
 35 81  2  0  0  0  0
 36 63  1  0  0  0  0
 36 75  1  0  0  0  0
 36 82  2  0  0  0  0
 37 40  1  0  0  0  0
 38 47  1  0  0  0  0
 39 70  1  0  0  0  0
 40 42  1  0  0  0  0
 41 43  1  0  0  0  0
 41 44  1  0  0  0  0
 42 46  1  0  0  0  0
 43 48  1  0  0  0  0
 44 71  1  0  0  0  0
 45 48  1  0  0  0  0
 45 71  1  0  0  0  0
 46 74  1  0  0  0  0
 47 70  1  0  0  0  0
 48 69  1  0  0  0  0
 49 63  1  0  0  0  0
 50 64  1  0  0  0  0
 51 64  1  0  0  0  0
 52 64  1  0  0  0  0
 53 65  1  0  0  0  0
 54 65  1  0  0  0  0
 55 65  1  0  0  0  0
 56 76  1  0  0  0  0
 57 77  1  0  0  0  0
 58 60  1  0  0  0  0
 59 84  1  0  0  0  0
 60 77  1  0  0  0  0
 61 64  1  0  0  0  0
 61 75  1  0  0  0  0
 62 65  1  0  0  0  0
 62 77  1  0  0  0  0
 63 76  1  0  0  0  0
 68 69  1  0  0  0  0
M  CHG  2  76   1  77   1
M  ISO  4  35 100  59 101  62 100  84 101
M  END
> <Batch ID>
0060

> <Smiles>
CNC(C)C(=O)NC(C(=O)N1Cc2cc([101O:1][101CH2:1]c3cnc(CCN(C)[100CH:0]([100C:0](=O)N4CCCC(n5nc(-c6ccc(Oc7ccc(F)cc7F)cc6)c(C(N)=O)c5N)C4)C(C)(C)C)cn3)ccc2CC1C(=O)NC1CCCc2ccccc21)C(C)(C)C

> <Shape>
0.287

> <Color>
0.169

> <Negative vol penalty>
0.000

$$$$

  -OEChem-04052317553D

 83 91  0     1  0  0  0  0  0999 V2000
  -26.9815  -33.8092   26.4532 C   0  0  0  0  0  0  0  0  0  0  0  0
  -27.3631  -32.6725   25.7477 C   0  0  0  0  0  0  0  0  0  0  0  0
  -25.4926  -13.1577   21.4671 C   0  0  0  0  0  0  0  0  0  0  0  0
  -25.6542  -13.1375   19.0566 C   0  0  0  0  0  0  0  0  0  0  0  0
  -25.6381  -34.0181   26.7624 C   0  0  0  0  0  0  0  0  0  0  0  0
  -26.4015  -31.7435   25.3519 C   0  0  0  0  0  0  0  0  0  0  0  0
  -27.0320  -30.2143   20.5655 C   0  0  0  0  0  0  0  0  0  0  0  0
  -25.2562  -11.7831   21.4628 C   0  0  0  0  0  0  0  0  0  0  0  0
  -25.4179  -11.7628   19.0523 C   0  0  0  0  0  0  0  0  0  0  0  0
  -28.0310  -29.2722   20.3244 C   0  0  0  0  0  0  0  0  0  0  0  0
  -22.6603   -9.7044   20.8585 C   0  0  0  0  0  0  0  0  0  0  0  0
  -21.6325   -9.2218   21.6686 C   0  0  0  0  0  0  0  0  0  0  0  0
  -26.3654  -27.5280   20.2725 C   0  0  0  0  0  0  0  0  0  0  0  0
  -23.2219   -7.8574   22.8724 C   0  0  0  0  0  0  0  0  0  0  0  0
  -25.6915  -13.8350   20.2640 C   0  0  0  0  0  0  0  0  0  0  0  0
  -27.1824  -15.9034   20.3458 C   0  0  0  0  0  0  0  0  0  0  0  0
  -24.6584  -33.0960   26.3618 C   0  0  0  0  0  0  0  0  0  0  0  0
  -25.6911  -29.8182   20.6729 C   0  0  0  0  0  0  0  0  0  0  0  0
  -25.0439  -31.9395   25.6572 C   0  0  0  0  0  0  0  0  0  0  0  0
  -25.3509  -28.4674   20.5124 C   0  0  0  0  0  0  0  0  0  0  0  0
  -25.2188  -11.0856   20.2554 C   0  0  0  0  0  0  0  0  0  0  0  0
  -27.6982  -27.9285   20.1808 C   0  0  0  0  0  0  0  0  0  0  0  0
  -23.9690   -9.2635   21.0553 C   0  0  0  0  0  0  0  0  0  0  0  0
  -21.9133   -8.2983   22.6755 C   0  0  0  0  0  0  0  0  0  0  0  0
  -24.2498   -8.3400   22.0623 C   0  0  0  0  0  0  0  0  0  0  0  0
  -25.9352  -15.2551   20.2677 C   0  0  0  0  0  0  0  0  0  0  0  0
  -26.8761  -17.2419   20.3132 C   0  0  0  0  0  0  0  0  0  0  0  0
  -27.0669  -21.8102   21.9411 C   0  0  0  0  0  0  0  0  0  0  0  0
  -28.5535  -22.6588   20.6073 C   0  0  0  0  0  0  0  0  0  0  0  0
  -28.4998  -15.3456   20.4392 C   0  0  0  0  0  0  0  0  0  0  0  0
  -23.4944  -29.9352   22.9674 C   0  0  0  0  0  0  0  0  0  0  0  0
  -21.5454  -28.8342   20.6198 C   0  0  0  0  0  0  0  0  0  0  0  0
  -21.2329  -27.1727   17.6553 C   0  0  0  0  0  0  0  0  0  0  0  0
  -23.8440  -21.2906   17.7186 C   0  0  0  0  0  0  0  0  0  0  0  0
  -23.2246  -33.3411   26.7602 C   0  0  0  0  0  0  0  0  0  0  0  0
  -24.6222  -30.8503   20.9067 C   0  0  0  0  0  0  0  0  0  0  0  0
  -23.9240  -27.9933   20.5987 C   0  0  0  0  0  0  0  0  0  0  0  0
  -22.2222  -32.4957   25.9786 C   0  0  0  0  0  0  0  0  0  0  0  0
  -22.4491  -19.6357   20.7214 C   0  0  0  0  0  0  0  0  0  0  0  0
  -22.6829  -31.0429   25.9164 C   0  0  0  0  0  0  0  0  0  0  0  0
  -23.2948  -18.3677   20.8261 C   0  0  0  0  0  0  0  0  0  0  0  0
  -22.3317  -20.1218   19.2801 C   0  0  0  0  0  0  0  0  0  0  0  0
  -24.4876  -19.0546   18.7081 C   0  0  0  0  0  0  0  0  0  0  0  0
  -24.0273  -30.9211   25.1889 C   0  0  1  0  0  0  0  0  0  0  0  0
  -23.3484  -30.2654   21.5089 C   0  0  1  0  0  0  0  0  0  0  0  0
  -24.6644  -18.5646   20.1531 C   0  0  2  0  0  0  0  0  0  0  0  0
  -25.7651  -21.3498   22.4561 C   0  0  0  0  0  0  0  0  0  0  0  0
  -19.5099  -26.3971   16.0039 C   0  0  0  0  0  0  0  0  0  0  0  0
  -20.7616  -26.5674   22.5058 C   0  0  0  0  0  0  0  0  0  0  0  0
  -19.8229  -25.3442   20.5332 C   0  0  0  0  0  0  0  0  0  0  0  0
  -18.8628  -27.5462   21.2055 C   0  0  0  0  0  0  0  0  0  0  0  0
  -25.3892  -22.9085   16.6821 C   0  0  0  0  0  0  0  0  0  0  0  0
  -22.4079  -28.8073   15.4860 C   0  0  0  0  0  0  0  0  0  0  0  0
  -29.1671  -23.2998   19.3882 C   0  0  0  0  0  0  0  0  0  0  0  0
  -29.4925  -24.7839   19.5705 C   0  0  0  0  0  0  0  0  0  0  0  0
  -26.2010  -22.6178   19.7252 C   0  0  0  0  0  0  0  0  0  0  0  0
  -26.1972  -21.5853   18.6009 C   0  0  0  0  0  0  0  0  0  0  0  0
  -28.2593  -25.6475   19.8092 C   0  0  0  0  0  0  0  0  0  1  0  0
  -21.1433  -27.4689   20.1167 C   0  0  1  0  0  0  0  0  0  0  0  0
  -20.4718  -27.5112   16.3862 C   0  0  2  0  0  0  0  0  0  0  0  0
  -20.1749  -26.7400   21.0906 C   0  0  0  0  0  0  0  0  0  0  0  0
  -24.9129  -16.1112   20.1915 N   0  0  0  0  0  0  0  0  0  0  0  0
  -28.2270  -21.7525   22.5552 N   0  0  0  0  0  0  0  0  0  0  0  0
  -29.1728  -22.2924   21.7066 N   0  0  0  0  0  0  0  0  0  0  0  0
  -25.5171  -17.3113   20.2215 N   0  0  0  0  0  0  0  0  0  0  0  0
  -27.2258  -22.3738   20.7115 N   0  0  0  0  0  0  0  0  0  0  0  0
  -22.9156  -29.0396   20.8349 N   0  0  0  0  0  0  0  0  0  0  0  0
  -23.6456  -20.2589   18.6509 N   0  0  0  0  0  0  0  0  0  0  0  0
  -27.6395  -18.3546   20.3543 N   0  0  0  0  0  0  0  0  0  0  0  0
  -28.6348  -13.9507   20.4607 N   0  0  0  0  0  0  0  0  0  0  0  0
  -23.8377  -31.0158   23.7573 N   0  0  0  0  0  0  0  0  0  0  0  0
  -20.6033  -27.6704   18.7765 N   0  0  0  0  0  0  0  0  0  0  0  0
  -25.1364  -21.8291   17.6259 N   0  0  0  0  0  0  0  0  0  0  0  0
  -21.4189  -27.7231   15.2552 N   0  3  0  0  0  0  0  0  0  0  0  0
  -29.5258  -16.0629   20.5184 O   0  0  0  0  0  0  0  0  0  0  0  0
  -23.3080  -28.7854   23.3482 O   0  0  0  0  0  0  0  0  0  0  0  0
  -20.6765  -29.6894   20.8080 O   0  0  0  0  0  0  0  0  0  0  0  0
  -22.2791  -26.5277   17.6526 O   0  0  0  0  0  0  0  0  0  0  0  0
  -22.9166  -21.7132   17.0164 O   0  0  0  0  0  0  0  0  0  0  0  0
  -24.9885   -9.7442   20.2508 O   0  0  0  0  0  0  0  0  0  0  0  0
  -28.6715  -27.0068   19.9460 O   0  0  0  0  0  0  0  0  0  1  0  0
  -20.9264   -7.8361   23.4543 F   0  0  0  0  0  0  0  0  0  0  0  0
  -25.5052   -7.9136   22.2569 F   0  0  0  0  0  0  0  0  0  0  0  0
  1  2  1  0  0  0  0
  1  5  2  0  0  0  0
  2  6  2  0  0  0  0
  3  8  2  0  0  0  0
  3 15  1  0  0  0  0
  4  9  1  0  0  0  0
  4 15  2  0  0  0  0
  5 17  1  0  0  0  0
  6 19  1  0  0  0  0
  7 10  2  0  0  0  0
  7 18  1  0  0  0  0
  8 21  1  0  0  0  0
  9 21  2  0  0  0  0
 10 22  1  0  0  0  0
 11 12  2  0  0  0  0
 11 23  1  0  0  0  0
 12 24  1  0  0  0  0
 13 20  1  0  0  0  0
 13 22  2  0  0  0  0
 14 24  2  0  0  0  0
 14 25  1  0  0  0  0
 15 26  1  0  0  0  0
 16 26  1  0  0  0  0
 16 27  2  0  0  0  0
 16 30  1  0  0  0  0
 17 19  2  0  0  0  0
 17 35  1  0  0  0  0
 18 20  2  0  0  0  0
 18 36  1  0  0  0  0
 19 44  1  0  0  0  0
 20 37  1  0  0  0  0
 21 80  1  0  0  0  0
 22 81  1  0  0  0  0
 23 25  2  0  0  0  0
 23 80  1  0  0  0  0
 24 82  1  0  0  0  0
 25 83  1  0  0  0  0
 26 62  2  0  0  0  0
 27 65  1  0  0  0  0
 27 69  1  0  0  0  0
 28 47  1  0  0  0  0
 28 63  2  0  0  0  0
 28 66  1  0  0  0  0
 29 54  1  0  0  0  0
 29 64  2  0  0  0  0
 29 66  1  0  0  0  0
 30 70  1  0  0  0  0
 30 75  2  0  0  0  0
 31 45  1  0  0  0  0
 31 71  1  0  0  0  0
 31 76  2  0  0  0  0
 32 59  1  0  0  0  0
 32 67  1  0  0  0  0
 32 77  2  0  0  0  0
 33 60  1  0  0  0  0
 33 72  1  0  0  0  0
 33 78  2  0  0  0  0
 34 68  1  0  0  0  0
 34 73  1  0  0  0  0
 34 79  2  0  0  0  0
 35 38  1  0  0  0  0
 36 45  1  0  0  0  0
 37 67  1  0  0  0  0
 38 40  1  0  0  0  0
 39 41  1  0  0  0  0
 39 42  1  0  0  0  0
 40 44  1  0  0  0  0
 41 46  1  0  0  0  0
 42 68  1  0  0  0  0
 43 46  1  0  0  0  0
 43 68  1  0  0  0  0
 44 71  1  0  0  0  0
 45 67  1  0  0  0  0
 46 65  1  0  0  0  0
 48 60  1  0  0  0  0
 49 61  1  0  0  0  0
 50 61  1  0  0  0  0
 51 61  1  0  0  0  0
 52 73  1  0  0  0  0
 53 74  1  0  0  0  0
 54 55  1  0  0  0  0
 55 58  1  0  0  0  0
 56 57  1  0  0  0  0
 56 66  1  0  0  0  0
 57 73  1  0  0  0  0
 58 81  1  0  0  0  0
 59 61  1  0  0  0  0
 59 72  1  0  0  0  0
 60 74  1  0  0  0  0
 62 65  1  0  0  0  0
 63 64  1  0  0  0  0
M  CHG  1  74   1
M  ISO  4  34 100  58 101  73 100  81 101
M  END
> <Batch ID>
0060

> <Smiles>
CNC(C)C(=O)NC(C(=O)N1Cc2cc([101O:1][101CH2:1]CCc3nnc(C)n3CC[100N:0](C)[100C:0](=O)N3CCCC(n4nc(-c5ccc(Oc6ccc(F)cc6F)cc5)c(C(N)=O)c4N)C3)ccc2CC1C(=O)NC1CCCc2ccccc21)C(C)(C)C

> <Shape>
0.267

> <Color>
0.086

> <Negative vol penalty>
0.000

$$$$

  -OEChem-04052317553D

 83 91  0     1  0  0  0  0  0999 V2000
  -32.2808  -27.8336   15.4097 C   0  0  0  0  0  0  0  0  0  0  0  0
  -31.3892  -26.9995   16.0765 C   0  0  0  0  0  0  0  0  0  0  0  0
  -26.6388  -12.0905   21.5050 C   0  0  0  0  0  0  0  0  0  0  0  0
  -25.6670  -13.6609   19.9473 C   0  0  0  0  0  0  0  0  0  0  0  0
  -32.7241  -29.0071   16.0183 C   0  0  0  0  0  0  0  0  0  0  0  0
  -30.9412  -27.3378   17.3529 C   0  0  0  0  0  0  0  0  0  0  0  0
  -25.9484  -26.6875   17.8951 C   0  0  0  0  0  0  0  0  0  0  0  0
  -25.4117  -11.4357   21.6105 C   0  0  0  0  0  0  0  0  0  0  0  0
  -24.4399  -13.0061   20.0528 C   0  0  0  0  0  0  0  0  0  0  0  0
  -25.4934  -25.3840   18.0888 C   0  0  0  0  0  0  0  0  0  0  0  0
  -20.9597  -11.9668   20.1872 C   0  0  0  0  0  0  0  0  0  0  0  0
  -19.8165  -12.7520   20.3354 C   0  0  0  0  0  0  0  0  0  0  0  0
  -25.3226  -25.8021   20.4584 C   0  0  0  0  0  0  0  0  0  0  0  0
  -20.7140  -13.6724   22.3810 C   0  0  0  0  0  0  0  0  0  0  0  0
  -24.3278  -19.3875   19.7882 C   0  0  0  0  0  0  0  0  0  0  0  0
  -26.7664  -13.2031   20.6735 C   0  0  0  0  0  0  0  0  0  0  0  0
  -29.2539  -13.3346   20.1230 C   0  0  0  0  0  0  0  0  0  0  0  0
  -32.2738  -29.3648   17.2989 C   0  0  0  0  0  0  0  0  0  0  0  0
  -26.1045  -27.5562   18.9848 C   0  0  0  0  0  0  0  0  0  0  0  0
  -31.3799  -28.5164   17.9798 C   0  0  0  0  0  0  0  0  0  0  0  0
  -25.7773  -27.1169   20.2756 C   0  0  0  0  0  0  0  0  0  0  0  0
  -24.9123  -20.5917   19.4527 C   0  0  0  0  0  0  0  0  0  0  0  0
  -24.3123  -11.8935   20.8844 C   0  0  0  0  0  0  0  0  0  0  0  0
  -25.1831  -24.9401   19.3709 C   0  0  0  0  0  0  0  0  0  0  0  0
  -21.9801  -12.0343   21.1359 C   0  0  0  0  0  0  0  0  0  0  0  0
  -19.6936  -13.6049   21.4323 C   0  0  0  0  0  0  0  0  0  0  0  0
  -21.8572  -12.8871   22.2328 C   0  0  0  0  0  0  0  0  0  0  0  0
  -28.0336  -13.8803   20.5645 C   0  0  0  0  0  0  0  0  0  0  0  0
  -24.0887  -21.4987   18.8177 C   0  0  0  0  0  0  0  0  0  0  0  0
  -30.1454  -14.3762   20.2050 C   0  0  0  0  0  0  0  0  0  0  0  0
  -22.3401  -20.0491   18.9058 C   0  0  0  0  0  0  0  0  0  0  0  0
  -29.5546  -12.0051   19.6783 C   0  0  0  0  0  0  0  0  0  0  0  0
  -28.5608  -29.0866   20.2994 C   0  0  0  0  0  0  0  0  0  0  0  0
  -26.2425  -30.4313   22.1269 C   0  0  0  0  0  0  0  0  0  0  0  0
  -23.1028  -30.2136   23.4467 C   0  0  0  0  0  0  0  0  0  0  0  0
  -29.6455  -20.2410   20.0284 C   0  0  0  0  0  0  0  0  0  0  0  0
  -32.8176  -30.6193   17.9354 C   0  0  0  0  0  0  0  0  0  0  0  0
  -26.5710  -28.9677   18.7559 C   0  0  0  0  0  0  0  0  0  0  0  0
  -25.9082  -28.0166   21.4764 C   0  0  0  0  0  0  0  0  0  0  0  0
  -32.0046  -31.0943   19.1369 C   0  0  0  0  0  0  0  0  0  0  0  0
  -31.0068  -18.3983   22.6317 C   0  0  0  0  0  0  0  0  0  0  0  0
  -31.6951  -29.9261   20.0677 C   0  0  0  0  0  0  0  0  0  0  0  0
  -30.5212  -16.9739   22.3670 C   0  0  0  0  0  0  0  0  0  0  0  0
  -29.9045  -19.4112   22.3459 C   0  0  0  0  0  0  0  0  0  0  0  0
  -28.8696  -17.9110   20.6726 C   0  0  0  0  0  0  0  0  0  0  0  0
  -30.8519  -28.8616   19.3554 C   0  0  1  0  0  0  0  0  0  0  0  0
  -27.1823  -29.6042   20.0003 C   0  0  1  0  0  0  0  0  0  0  0  0
  -29.9480  -16.8423   20.9450 C   0  0  2  0  0  0  0  0  0  0  0  0
  -20.9112  -19.7481   18.6027 C   0  0  0  0  0  0  0  0  0  0  0  0
  -26.6103  -20.8702   21.2866 C   0  0  0  0  0  0  0  0  0  0  0  0
  -21.5002  -31.4482   24.9315 C   0  0  0  0  0  0  0  0  0  0  0  0
  -27.8359  -29.5501   24.5753 C   0  0  0  0  0  0  0  0  0  0  0  0
  -25.7884  -29.9414   25.9621 C   0  0  0  0  0  0  0  0  0  0  0  0
  -26.8486  -31.8417   24.7425 C   0  0  0  0  0  0  0  0  0  0  0  0
  -28.9114  -21.4575   18.0137 C   0  0  0  0  0  0  0  0  0  0  0  0
  -21.1067  -30.4675   21.2764 C   0  0  0  0  0  0  0  0  0  0  0  0
  -24.6153  -22.8420   18.4058 C   0  0  0  0  0  0  0  0  0  1  0  0
  -27.3266  -19.8933   19.0760 C   0  0  0  0  0  0  0  0  0  0  0  0
  -26.3375  -20.8682   19.7655 C   0  0  1  0  0  0  0  0  0  0  0  0
  -25.5803  -30.0857   23.4388 C   0  0  1  0  0  0  0  0  0  0  0  0
  -21.9618  -31.2133   23.5016 C   0  0  2  0  0  0  0  0  0  0  0  0
  -26.5126  -30.3369   24.6575 C   0  0  0  0  0  0  0  0  0  0  0  0
  -23.0396  -19.0816   19.5289 N   0  0  0  0  0  0  0  0  0  0  0  0
  -28.1370  -15.1684   20.9022 N   0  0  0  0  0  0  0  0  0  0  0  0
  -22.7930  -21.2596   18.5275 N   0  0  0  0  0  0  0  0  0  0  0  0
  -29.4328  -15.4408   20.6728 N   0  0  0  0  0  0  0  0  0  0  0  0
  -26.3743  -29.3859   21.2019 N   0  0  0  0  0  0  0  0  0  0  0  0
  -29.3797  -19.2540   20.9891 N   0  0  0  0  0  0  0  0  0  0  0  0
  -31.4616  -14.4760   19.9220 N   0  0  0  0  0  0  0  0  0  0  0  0
  -29.4215  -11.7106   18.3145 N   0  0  0  0  0  0  0  0  0  0  0  0
  -29.4692  -29.2816   19.2765 N   0  0  0  0  0  0  0  0  0  0  0  0
  -24.3315  -30.8388   23.4765 N   0  0  0  0  0  0  0  0  0  0  0  0
  -28.6823  -20.4376   19.0273 N   0  0  0  0  0  0  0  0  0  0  0  0
  -20.8011  -30.7187   22.7084 N   0  3  0  0  0  0  0  0  0  0  0  0
  -29.9143  -11.1006   20.4695 O   0  0  0  0  0  0  0  0  0  0  0  0
  -28.7842  -28.5514   21.3789 O   0  0  0  0  0  0  0  0  0  0  0  0
  -26.6223  -31.5878   21.9274 O   0  0  0  0  0  0  0  0  0  0  0  0
  -22.9224  -28.9994   23.3873 O   0  0  0  0  0  0  0  0  0  0  0  0
  -30.6826  -20.9156   20.0662 O   0  0  0  0  0  0  0  0  0  0  0  0
  -23.1148  -11.2547   20.9869 O   0  0  0  0  0  0  0  0  0  0  0  0
  -24.7395  -23.6681   19.5628 O   0  0  0  0  0  0  0  0  0  1  0  0
  -18.5964  -14.3600   21.5737 F   0  0  0  0  0  0  0  0  0  0  0  0
  -22.8346  -12.9572   23.1468 F   0  0  0  0  0  0  0  0  0  0  0  0
  1  2  1  0  0  0  0
  1  5  2  0  0  0  0
  2  6  2  0  0  0  0
  3  8  2  0  0  0  0
  3 16  1  0  0  0  0
  4  9  1  0  0  0  0
  4 16  2  0  0  0  0
  5 18  1  0  0  0  0
  6 20  1  0  0  0  0
  7 10  2  0  0  0  0
  7 19  1  0  0  0  0
  8 23  1  0  0  0  0
  9 23  2  0  0  0  0
 10 24  1  0  0  0  0
 11 12  2  0  0  0  0
 11 25  1  0  0  0  0
 12 26  1  0  0  0  0
 13 21  1  0  0  0  0
 13 24  2  0  0  0  0
 14 26  2  0  0  0  0
 14 27  1  0  0  0  0
 15 22  1  0  0  0  0
 15 63  2  0  0  0  0
 16 28  1  0  0  0  0
 17 28  1  0  0  0  0
 17 30  2  0  0  0  0
 17 32  1  0  0  0  0
 18 20  2  0  0  0  0
 18 37  1  0  0  0  0
 19 21  2  0  0  0  0
 19 38  1  0  0  0  0
 20 46  1  0  0  0  0
 21 39  1  0  0  0  0
 22 29  2  0  0  0  0
 22 59  1  0  0  0  0
 23 80  1  0  0  0  0
 24 81  1  0  0  0  0
 25 27  2  0  0  0  0
 25 80  1  0  0  0  0
 26 82  1  0  0  0  0
 27 83  1  0  0  0  0
 28 64  2  0  0  0  0
 29 57  1  0  0  0  0
 29 65  1  0  0  0  0
 30 66  1  0  0  0  0
 30 69  1  0  0  0  0
 31 49  1  0  0  0  0
 31 63  1  0  0  0  0
 31 65  2  0  0  0  0
 32 70  1  0  0  0  0
 32 75  2  0  0  0  0
 33 47  1  0  0  0  0
 33 71  1  0  0  0  0
 33 76  2  0  0  0  0
 34 60  1  0  0  0  0
 34 67  1  0  0  0  0
 34 77  2  0  0  0  0
 35 61  1  0  0  0  0
 35 72  1  0  0  0  0
 35 78  2  0  0  0  0
 36 68  1  0  0  0  0
 36 73  1  0  0  0  0
 36 79  2  0  0  0  0
 37 40  1  0  0  0  0
 38 47  1  0  0  0  0
 39 67  1  0  0  0  0
 40 42  1  0  0  0  0
 41 43  1  0  0  0  0
 41 44  1  0  0  0  0
 42 46  1  0  0  0  0
 43 48  1  0  0  0  0
 44 68  1  0  0  0  0
 45 48  1  0  0  0  0
 45 68  1  0  0  0  0
 46 71  1  0  0  0  0
 47 67  1  0  0  0  0
 48 66  1  0  0  0  0
 50 59  1  0  0  0  0
 51 61  1  0  0  0  0
 52 62  1  0  0  0  0
 53 62  1  0  0  0  0
 54 62  1  0  0  0  0
 55 73  1  0  0  0  0
 56 74  1  0  0  0  0
 57 81  1  0  0  0  0
 58 59  1  0  0  0  0
 58 73  1  0  0  0  0
 60 62  1  0  0  0  0
 60 72  1  0  0  0  0
 61 74  1  0  0  0  0
 64 66  1  0  0  0  0
M  CHG  1  74   1
M  ISO  4  36 100  57 101  73 100  81 101
M  END
> <Batch ID>
0060

> <Smiles>
CNC(C)C(=O)NC(C(=O)N1Cc2cc([101O:1][101CH2:1]c3nc(C)ncc3C(C)C[100N:0](C)[100C:0](=O)N3CCCC(n4nc(-c5ccc(Oc6ccc(F)cc6F)cc5)c(C(N)=O)c4N)C3)ccc2CC1C(=O)NC1CCCc2ccccc21)C(C)(C)C

> <Shape>
0.258

> <Color>
0.076

> <Negative vol penalty>
0.000

$$$$

  -OEChem-04052317553D

 81 89  0     1  0  0  0  0  0999 V2000
  -28.8929  -11.3531   18.8405 C   0  0  0  0  0  0  0  0  0  0  0  0
  -28.9412  -12.7385   18.7235 C   0  0  0  0  0  0  0  0  0  0  0  0
  -20.4988  -24.7782   23.3699 C   0  0  0  0  0  0  0  0  0  0  0  0
  -20.6647  -26.3664   21.5568 C   0  0  0  0  0  0  0  0  0  0  0  0
  -27.7634  -10.7392   19.3800 C   0  0  0  0  0  0  0  0  0  0  0  0
  -27.8594  -13.5108   19.1450 C   0  0  0  0  0  0  0  0  0  0  0  0
  -29.2905  -17.5540   21.8375 C   0  0  0  0  0  0  0  0  0  0  0  0
  -19.3054  -25.3719   23.7808 C   0  0  0  0  0  0  0  0  0  0  0  0
  -19.4712  -26.9601   21.9677 C   0  0  0  0  0  0  0  0  0  0  0  0
  -29.7860  -18.6478   21.1292 C   0  0  0  0  0  0  0  0  0  0  0  0
  -18.4590  -29.1205   24.3634 C   0  0  0  0  0  0  0  0  0  0  0  0
  -18.4131  -30.5135   24.4173 C   0  0  0  0  0  0  0  0  0  0  0  0
  -27.6429  -19.7377   21.3246 C   0  0  0  0  0  0  0  0  0  0  0  0
  -16.6105  -30.5164   22.8086 C   0  0  0  0  0  0  0  0  0  0  0  0
  -30.4836  -24.8274   17.7131 C   0  0  0  0  0  0  0  0  0  0  0  0
  -28.9693  -23.1167   17.8124 C   0  0  0  0  0  0  0  0  0  0  0  0
  -21.1785  -25.2755   22.2579 C   0  0  0  0  0  0  0  0  0  0  0  0
  -22.5638  -23.6035   20.9189 C   0  0  0  0  0  0  0  0  0  0  0  0
  -26.6711  -11.5049   19.8172 C   0  0  0  0  0  0  0  0  0  0  0  0
  -27.9619  -17.5391   22.2861 C   0  0  0  0  0  0  0  0  0  0  0  0
  -26.7136  -12.9065   19.6896 C   0  0  0  0  0  0  0  0  0  0  0  0
  -27.1336  -18.6436   22.0407 C   0  0  0  0  0  0  0  0  0  0  0  0
  -18.7916  -26.4629   23.0797 C   0  0  0  0  0  0  0  0  0  0  0  0
  -28.9614  -19.7386   20.8701 C   0  0  0  0  0  0  0  0  0  0  0  0
  -17.5807  -28.4253   23.5320 C   0  0  0  0  0  0  0  0  0  0  0  0
  -17.4888  -31.2115   23.6399 C   0  0  0  0  0  0  0  0  0  0  0  0
  -16.6564  -29.1233   22.7547 C   0  0  0  0  0  0  0  0  0  0  0  0
  -22.4116  -24.6630   21.8333 C   0  0  0  0  0  0  0  0  0  0  0  0
  -30.7591  -24.6614   19.0525 C   0  0  0  0  0  0  0  0  0  0  0  0
  -29.2452  -22.9501   19.1517 C   0  0  0  0  0  0  0  0  0  0  0  0
  -23.9199  -23.3942   20.8585 C   0  0  0  0  0  0  0  0  0  0  0  0
  -21.5684  -22.8739   20.1892 C   0  0  0  0  0  0  0  0  0  0  0  0
  -25.4241  -15.7103   21.7214 C   0  0  0  0  0  0  0  0  0  0  0  0
  -24.0883  -17.5164   24.0615 C   0  0  0  0  0  0  0  0  0  0  0  0
  -24.0725  -20.4509   25.8038 C   0  0  0  0  0  0  0  0  0  0  0  0
  -28.7782  -26.3620   20.8888 C   0  0  0  0  0  0  0  0  0  0  0  0
  -25.4526  -10.7934   20.3500 C   0  0  0  0  0  0  0  0  0  0  0  0
  -27.4504  -16.3631   23.0720 C   0  0  0  0  0  0  0  0  0  0  0  0
  -25.7058  -18.6856   22.5181 C   0  0  0  0  0  0  0  0  0  0  0  0
  -24.5014  -11.7070   21.1186 C   0  0  0  0  0  0  0  0  0  0  0  0
  -27.7474  -24.4725   23.7981 C   0  0  0  0  0  0  0  0  0  0  0  0
  -24.2629  -13.0006   20.3463 C   0  0  0  0  0  0  0  0  0  0  0  0
  -26.2690  -24.2255   23.4922 C   0  0  0  0  0  0  0  0  0  0  0  0
  -28.1834  -25.8596   23.3355 C   0  0  0  0  0  0  0  0  0  0  0  0
  -26.4470  -25.8921   21.5868 C   0  0  0  0  0  0  0  0  0  0  0  0
  -25.5702  -13.7799   20.1584 C   0  0  1  0  0  0  0  0  0  0  0  0
  -25.9307  -16.2352   23.0351 C   0  0  1  0  0  0  0  0  0  0  0  0
  -25.9503  -24.4978   22.0102 C   0  0  2  0  0  0  0  0  0  0  0  0
  -22.8390  -21.6508   27.6302 C   0  0  0  0  0  0  0  0  0  0  0  0
  -32.2225  -27.6607   21.0286 C   0  0  0  0  0  0  0  0  0  0  0  0
  -21.8082  -18.1159   22.1245 C   0  0  0  0  0  0  0  0  0  0  0  0
  -21.1366  -20.0144   23.6121 C   0  0  0  0  0  0  0  0  0  0  0  0
  -21.0885  -17.6758   24.4789 C   0  0  0  0  0  0  0  0  0  0  0  0
  -26.4926  -20.5971   27.5010 C   0  0  0  0  0  0  0  0  0  0  0  0
  -31.7596  -25.5294   19.7319 C   0  0  0  0  0  0  0  0  0  0  0  0
  -28.5425  -21.8906   19.9486 C   0  0  0  0  0  0  0  0  0  1  0  0
  -23.3152  -18.8124   24.1019 C   0  0  1  0  0  0  0  0  0  0  0  0
  -24.0075  -20.7378   27.2930 C   0  0  2  0  0  0  0  0  0  0  0  0
  -31.1555  -26.8150   20.3407 C   0  0  1  0  0  0  0  0  0  0  0  0
  -21.8634  -18.6533   23.5685 C   0  0  0  0  0  0  0  0  0  0  0  0
  -29.5837  -24.0581   17.0690 N   0  0  0  0  0  0  0  0  0  0  0  0
  -23.5779  -25.0964   22.3190 N   0  0  0  0  0  0  0  0  0  0  0  0
  -30.1449  -23.7197   19.7958 N   0  0  0  0  0  0  0  0  0  0  0  0
  -24.4759  -24.3053   21.7076 N   0  0  0  0  0  0  0  0  0  0  0  0
  -25.2502  -17.5091   23.2769 N   0  0  0  0  0  0  0  0  0  0  0  0
  -27.8687  -26.0478   21.9122 N   0  0  0  0  0  0  0  0  0  0  0  0
  -24.6791  -22.5215   20.1625 N   0  0  0  0  0  0  0  0  0  0  0  0
  -20.2218  -23.2185   20.3689 N   0  0  0  0  0  0  0  0  0  0  0  0
  -25.9273  -14.4696   21.3796 N   0  0  0  0  0  0  0  0  0  0  0  0
  -23.3973  -19.2941   25.4766 N   0  0  0  0  0  0  0  0  0  0  0  0
  -30.1040  -26.4990   21.2816 N   0  0  0  0  0  0  0  0  0  0  0  0
  -25.2646  -21.3955   27.7492 N   0  3  0  0  0  0  0  0  0  0  0  0
  -21.8631  -21.9330   19.4138 O   0  0  0  0  0  0  0  0  0  0  0  0
  -24.6340  -16.3807   21.0672 O   0  0  0  0  0  0  0  0  0  0  0  0
  -23.6803  -16.5485   24.7082 O   0  0  0  0  0  0  0  0  0  0  0  0
  -24.6601  -21.1820   25.0096 O   0  0  0  0  0  0  0  0  0  0  0  0
  -28.4350  -26.5048   19.7102 O   0  0  0  0  0  0  0  0  0  0  0  0
  -17.6269  -27.0423   23.4802 O   0  0  0  0  0  0  0  0  0  0  0  0
  -29.4424  -20.8073   20.1784 O   0  0  0  0  0  0  0  0  0  1  0  0
  -17.4439  -32.5491   23.6930 F   0  0  0  0  0  0  0  0  0  0  0  0
  -15.8093  -28.4609   21.9551 F   0  0  0  0  0  0  0  0  0  0  0  0
  1  2  1  0  0  0  0
  1  5  2  0  0  0  0
  2  6  2  0  0  0  0
  3  8  2  0  0  0  0
  3 17  1  0  0  0  0
  4  9  1  0  0  0  0
  4 17  2  0  0  0  0
  5 19  1  0  0  0  0
  6 21  1  0  0  0  0
  7 10  2  0  0  0  0
  7 20  1  0  0  0  0
  8 23  1  0  0  0  0
  9 23  2  0  0  0  0
 10 24  1  0  0  0  0
 11 12  2  0  0  0  0
 11 25  1  0  0  0  0
 12 26  1  0  0  0  0
 13 22  1  0  0  0  0
 13 24  2  0  0  0  0
 14 26  2  0  0  0  0
 14 27  1  0  0  0  0
 15 29  2  0  0  0  0
 15 61  1  0  0  0  0
 16 30  1  0  0  0  0
 16 61  2  0  0  0  0
 17 28  1  0  0  0  0
 18 28  1  0  0  0  0
 18 31  2  0  0  0  0
 18 32  1  0  0  0  0
 19 21  2  0  0  0  0
 19 37  1  0  0  0  0
 20 22  2  0  0  0  0
 20 38  1  0  0  0  0
 21 46  1  0  0  0  0
 22 39  1  0  0  0  0
 23 78  1  0  0  0  0
 24 79  1  0  0  0  0
 25 27  2  0  0  0  0
 25 78  1  0  0  0  0
 26 80  1  0  0  0  0
 27 81  1  0  0  0  0
 28 62  2  0  0  0  0
 29 55  1  0  0  0  0
 29 63  1  0  0  0  0
 30 56  1  0  0  0  0
 30 63  2  0  0  0  0
 31 64  1  0  0  0  0
 31 67  1  0  0  0  0
 32 68  1  0  0  0  0
 32 73  2  0  0  0  0
 33 47  1  0  0  0  0
 33 69  1  0  0  0  0
 33 74  2  0  0  0  0
 34 57  1  0  0  0  0
 34 65  1  0  0  0  0
 34 75  2  0  0  0  0
 35 58  1  0  0  0  0
 35 70  1  0  0  0  0
 35 76  2  0  0  0  0
 36 66  1  0  0  0  0
 36 71  1  0  0  0  0
 36 77  2  0  0  0  0
 37 40  1  0  0  0  0
 38 47  1  0  0  0  0
 39 65  1  0  0  0  0
 40 42  1  0  0  0  0
 41 43  1  0  0  0  0
 41 44  1  0  0  0  0
 42 46  1  0  0  0  0
 43 48  1  0  0  0  0
 44 66  1  0  0  0  0
 45 48  1  0  0  0  0
 45 66  1  0  0  0  0
 46 69  1  0  0  0  0
 47 65  1  0  0  0  0
 48 64  1  0  0  0  0
 49 58  1  0  0  0  0
 50 59  1  0  0  0  0
 51 60  1  0  0  0  0
 52 60  1  0  0  0  0
 53 60  1  0  0  0  0
 54 72  1  0  0  0  0
 55 59  1  0  0  0  0
 56 79  1  0  0  0  0
 57 60  1  0  0  0  0
 57 70  1  0  0  0  0
 58 72  1  0  0  0  0
 59 71  1  0  0  0  0
 62 64  1  0  0  0  0
M  CHG  1  72   1
M  ISO  4  36 100  56 101  71 100  79 101
M  END
> <Batch ID>
0060

> <Smiles>
CNC(C)C(=O)NC(C(=O)N1Cc2cc([101O:1][101CH2:1]c3cncc(CC(C)[100NH:0][100C:0](=O)N4CCCC(n5nc(-c6ccc(Oc7ccc(F)cc7F)cc6)c(C(N)=O)c5N)C4)n3)ccc2CC1C(=O)NC1CCCc2ccccc21)C(C)(C)C

> <Shape>
0.219

> <Color>
0.070

> <Negative vol penalty>
0.000

$$$$

  -OEChem-04052317553D

 83 91  0     1  0  0  0  0  0999 V2000
  -28.4080  -16.2751   12.4201 C   0  0  0  0  0  0  0  0  0  0  0  0
  -28.3959  -17.0101   13.6012 C   0  0  0  0  0  0  0  0  0  0  0  0
  -23.2362   -9.8843   19.8307 C   0  0  0  0  0  0  0  0  0  0  0  0
  -23.7718   -9.8838   22.1866 C   0  0  0  0  0  0  0  0  0  0  0  0
  -29.3494  -16.5608   11.4322 C   0  0  0  0  0  0  0  0  0  0  0  0
  -29.3260  -18.0307   13.7955 C   0  0  0  0  0  0  0  0  0  0  0  0
  -27.2314  -22.2326   15.6933 C   0  0  0  0  0  0  0  0  0  0  0  0
  -22.5031   -8.7094   19.9971 C   0  0  0  0  0  0  0  0  0  0  0  0
  -23.0386   -8.7089   22.3530 C   0  0  0  0  0  0  0  0  0  0  0  0
  -26.9470  -22.2418   17.0582 C   0  0  0  0  0  0  0  0  0  0  0  0
  -20.1912   -5.9069   19.8697 C   0  0  0  0  0  0  0  0  0  0  0  0
  -18.9402   -5.8308   19.2575 C   0  0  0  0  0  0  0  0  0  0  0  0
  -28.9608  -23.5068   17.4631 C   0  0  0  0  0  0  0  0  0  0  0  0
  -18.1988   -7.7427   20.5351 C   0  0  0  0  0  0  0  0  0  0  0  0
  -23.8706  -10.4715   20.9254 C   0  0  0  0  0  0  0  0  0  0  0  0
  -24.1543  -13.0059   20.8623 C   0  0  0  0  0  0  0  0  0  0  0  0
  -30.2853  -17.5918   11.6104 C   0  0  0  0  0  0  0  0  0  0  0  0
  -28.3901  -22.8521   15.2035 C   0  0  0  0  0  0  0  0  0  0  0  0
  -30.2816  -18.3296   12.8095 C   0  0  0  0  0  0  0  0  0  0  0  0
  -29.2562  -23.5063   16.0913 C   0  0  0  0  0  0  0  0  0  0  0  0
  -22.4042   -8.1217   21.2583 C   0  0  0  0  0  0  0  0  0  0  0  0
  -27.8133  -22.8764   17.9436 C   0  0  0  0  0  0  0  0  0  0  0  0
  -20.4460   -6.9007   20.8147 C   0  0  0  0  0  0  0  0  0  0  0  0
  -17.9440   -6.7488   19.5902 C   0  0  0  0  0  0  0  0  0  0  0  0
  -19.4498   -7.8187   21.1474 C   0  0  0  0  0  0  0  0  0  0  0  0
  -24.6286  -11.6848   20.7540 C   0  0  0  0  0  0  0  0  0  0  0  0
  -25.2558  -13.7876   20.6129 C   0  0  0  0  0  0  0  0  0  0  0  0
  -30.2540  -18.9826   19.1149 C   0  0  0  0  0  0  0  0  0  0  0  0
  -29.1840  -20.0282   20.7878 C   0  0  0  0  0  0  0  0  0  0  0  0
  -29.3403  -17.7894   20.7819 C   0  0  0  0  0  0  0  0  0  0  0  0
  -22.8361  -13.4836   21.1617 C   0  0  0  0  0  0  0  0  0  0  0  0
  -30.9825  -21.8574   13.6562 C   0  0  0  0  0  0  0  0  0  0  0  0
  -31.6429  -25.0303   13.5204 C   0  0  0  0  0  0  0  0  0  0  0  0
  -31.1953  -28.1422   14.8481 C   0  0  0  0  0  0  0  0  0  0  0  0
  -30.7553  -14.6380   21.7747 C   0  0  0  0  0  0  0  0  0  0  0  0
  -31.3139  -17.8326   10.5340 C   0  0  0  0  0  0  0  0  0  0  0  0
  -28.6688  -22.8564   13.7254 C   0  0  0  0  0  0  0  0  0  0  0  0
  -30.5029  -24.2035   15.6138 C   0  0  0  0  0  0  0  0  0  0  0  0
  -32.0251  -19.1773   10.6609 C   0  0  0  0  0  0  0  0  0  0  0  0
  -29.8271  -12.5942   18.8313 C   0  0  0  0  0  0  0  0  0  0  0  0
  -32.4653  -19.4145   12.1020 C   0  0  0  0  0  0  0  0  0  0  0  0
  -28.3724  -12.2303   19.1238 C   0  0  0  0  0  0  0  0  0  0  0  0
  -30.6244  -12.8180   20.1127 C   0  0  0  0  0  0  0  0  0  0  0  0
  -28.5654  -13.4575   21.3233 C   0  0  0  0  0  0  0  0  0  0  0  0
  -31.2585  -19.4608   13.0470 C   0  0  1  0  0  0  0  0  0  0  0  0
  -30.1421  -23.0754   13.3958 C   0  0  1  0  0  0  0  0  0  0  0  0
  -27.7227  -13.2708   20.0526 C   0  0  2  0  0  0  0  0  0  0  0  0
  -31.0146  -19.0392   17.8340 C   0  0  0  0  0  0  0  0  0  0  0  0
  -31.8942  -30.5331   14.5434 C   0  0  0  0  0  0  0  0  0  0  0  0
  -34.3614  -24.3897   14.7489 C   0  0  0  0  0  0  0  0  0  0  0  0
  -34.6119  -26.8212   15.2904 C   0  0  0  0  0  0  0  0  0  0  0  0
  -34.4200  -26.0878   12.9138 C   0  0  0  0  0  0  0  0  0  0  0  0
  -31.0129  -16.8323   22.8692 C   0  0  0  0  0  0  0  0  0  0  0  0
  -28.4080  -29.0183   14.3765 C   0  0  0  0  0  0  0  0  0  0  0  0
  -28.7083  -21.3022   21.4392 C   0  0  0  0  0  0  0  0  0  0  0  0
  -29.0499  -16.4732   21.4189 C   0  0  0  0  0  0  0  0  0  0  0  0
  -27.2127  -21.5674   21.2540 C   0  0  0  0  0  0  0  0  0  0  0  0
  -26.8119  -21.7743   19.7980 C   0  0  0  0  0  0  0  0  0  1  0  0
  -32.3793  -26.0079   14.4042 C   0  0  1  0  0  0  0  0  0  0  0  0
  -30.8576  -29.4739   14.2022 C   0  0  2  0  0  0  0  0  0  0  0  0
  -33.9207  -25.8119   14.3489 C   0  0  0  0  0  0  0  0  0  0  0  0
  -25.9299  -11.6267   20.4587 N   0  0  0  0  0  0  0  0  0  0  0  0
  -29.8626  -20.1566   19.6364 N   0  0  0  0  0  0  0  0  0  0  0  0
  -30.0299  -17.7628   19.6300 N   0  0  0  0  0  0  0  0  0  0  0  0
  -28.8858  -18.8808   21.4183 N   0  0  0  0  0  0  0  0  0  0  0  0
  -26.2827  -12.9211   20.3791 N   0  0  0  0  0  0  0  0  0  0  0  0
  -30.7350  -24.1746   14.1602 N   0  0  0  0  0  0  0  0  0  0  0  0
  -29.9627  -13.7787   20.9961 N   0  0  0  0  0  0  0  0  0  0  0  0
  -25.4363  -15.1249   20.5728 N   0  0  0  0  0  0  0  0  0  0  0  0
  -21.8213  -12.5446   21.3914 N   0  0  0  0  0  0  0  0  0  0  0  0
  -30.5872  -20.7391   12.9472 N   0  0  0  0  0  0  0  0  0  0  0  0
  -31.9312  -27.3374   14.0043 N   0  0  0  0  0  0  0  0  0  0  0  0
  -30.2241  -15.9016   22.0746 N   0  0  0  0  0  0  0  0  0  0  0  0
  -29.5255  -29.9526   14.6683 N   0  3  0  0  0  0  0  0  0  0  0  0
  -22.5624  -14.7070   21.2074 O   0  0  0  0  0  0  0  0  0  0  0  0
  -31.9209  -21.9273   14.4412 O   0  0  0  0  0  0  0  0  0  0  0  0
  -31.8597  -25.0310   12.3061 O   0  0  0  0  0  0  0  0  0  0  0  0
  -30.8447  -27.8471   15.9885 O   0  0  0  0  0  0  0  0  0  0  0  0
  -31.8778  -14.2989   22.1706 O   0  0  0  0  0  0  0  0  0  0  0  0
  -21.6887   -6.9754   21.4211 O   0  0  0  0  0  0  0  0  0  0  0  0
  -27.5384  -22.8863   19.2764 O   0  0  0  0  0  0  0  0  0  1  0  0
  -16.7432   -6.6766   19.0010 F   0  0  0  0  0  0  0  0  0  0  0  0
  -19.6890   -8.7764   22.0536 F   0  0  0  0  0  0  0  0  0  0  0  0
  1  2  1  0  0  0  0
  1  5  2  0  0  0  0
  2  6  2  0  0  0  0
  3  8  2  0  0  0  0
  3 15  1  0  0  0  0
  4  9  1  0  0  0  0
  4 15  2  0  0  0  0
  5 17  1  0  0  0  0
  6 19  1  0  0  0  0
  7 10  2  0  0  0  0
  7 18  1  0  0  0  0
  8 21  1  0  0  0  0
  9 21  2  0  0  0  0
 10 22  1  0  0  0  0
 11 12  2  0  0  0  0
 11 23  1  0  0  0  0
 12 24  1  0  0  0  0
 13 20  1  0  0  0  0
 13 22  2  0  0  0  0
 14 24  2  0  0  0  0
 14 25  1  0  0  0  0
 15 26  1  0  0  0  0
 16 26  1  0  0  0  0
 16 27  2  0  0  0  0
 16 31  1  0  0  0  0
 17 19  2  0  0  0  0
 17 36  1  0  0  0  0
 18 20  2  0  0  0  0
 18 37  1  0  0  0  0
 19 45  1  0  0  0  0
 20 38  1  0  0  0  0
 21 80  1  0  0  0  0
 22 81  1  0  0  0  0
 23 25  2  0  0  0  0
 23 80  1  0  0  0  0
 24 82  1  0  0  0  0
 25 83  1  0  0  0  0
 26 62  2  0  0  0  0
 27 66  1  0  0  0  0
 27 69  1  0  0  0  0
 28 48  1  0  0  0  0
 28 63  2  0  0  0  0
 28 64  1  0  0  0  0
 29 55  1  0  0  0  0
 29 63  1  0  0  0  0
 29 65  2  0  0  0  0
 30 56  1  0  0  0  0
 30 64  2  0  0  0  0
 30 65  1  0  0  0  0
 31 70  1  0  0  0  0
 31 75  2  0  0  0  0
 32 46  1  0  0  0  0
 32 71  1  0  0  0  0
 32 76  2  0  0  0  0
 33 59  1  0  0  0  0
 33 67  1  0  0  0  0
 33 77  2  0  0  0  0
 34 60  1  0  0  0  0
 34 72  1  0  0  0  0
 34 78  2  0  0  0  0
 35 68  1  0  0  0  0
 35 73  1  0  0  0  0
 35 79  2  0  0  0  0
 36 39  1  0  0  0  0
 37 46  1  0  0  0  0
 38 67  1  0  0  0  0
 39 41  1  0  0  0  0
 40 42  1  0  0  0  0
 40 43  1  0  0  0  0
 41 45  1  0  0  0  0
 42 47  1  0  0  0  0
 43 68  1  0  0  0  0
 44 47  1  0  0  0  0
 44 68  1  0  0  0  0
 45 71  1  0  0  0  0
 46 67  1  0  0  0  0
 47 66  1  0  0  0  0
 49 60  1  0  0  0  0
 50 61  1  0  0  0  0
 51 61  1  0  0  0  0
 52 61  1  0  0  0  0
 53 73  1  0  0  0  0
 54 74  1  0  0  0  0
 55 57  1  0  0  0  0
 56 73  1  0  0  0  0
 57 58  1  0  0  0  0
 58 81  1  0  0  0  0
 59 61  1  0  0  0  0
 59 72  1  0  0  0  0
 60 74  1  0  0  0  0
 62 66  1  0  0  0  0
M  CHG  1  74   1
M  ISO  4  35 100  58 101  73 100  81 101
M  END
> <Batch ID>
0060

> <Smiles>
CNC(C)C(=O)NC(C(=O)N1Cc2cc([101O:1][101CH2:1]CCc3nc(C)nc(C[100N:0](C)[100C:0](=O)N4CCCC(n5nc(-c6ccc(Oc7ccc(F)cc7F)cc6)c(C(N)=O)c5N)C4)n3)ccc2CC1C(=O)NC1CCCc2ccccc21)C(C)(C)C

> <Shape>
0.195

> <Color>
0.205

> <Negative vol penalty>
0.000

$$$$

  -OEChem-04052317553D

 82 90  0     1  0  0  0  0  0999 V2000
  -30.6102  -33.1035   14.6440 C   0  0  0  0  0  0  0  0  0  0  0  0
  -30.4642  -31.7201   14.6539 C   0  0  0  0  0  0  0  0  0  0  0  0
  -22.8160  -10.0896   20.0233 C   0  0  0  0  0  0  0  0  0  0  0  0
  -23.3958  -10.1691   22.3673 C   0  0  0  0  0  0  0  0  0  0  0  0
  -30.5346  -33.8199   15.8378 C   0  0  0  0  0  0  0  0  0  0  0  0
  -30.2436  -31.0520   15.8578 C   0  0  0  0  0  0  0  0  0  0  0  0
  -26.8361  -25.3472   18.5337 C   0  0  0  0  0  0  0  0  0  0  0  0
  -22.7514   -8.6977   20.0864 C   0  0  0  0  0  0  0  0  0  0  0  0
  -23.3312   -8.7771   22.4305 C   0  0  0  0  0  0  0  0  0  0  0  0
  -27.0756  -24.2192   19.3173 C   0  0  0  0  0  0  0  0  0  0  0  0
  -20.9351   -6.4036   22.6442 C   0  0  0  0  0  0  0  0  0  0  0  0
  -20.2667   -5.8359   23.7289 C   0  0  0  0  0  0  0  0  0  0  0  0
  -26.8845  -25.5686   21.3077 C   0  0  0  0  0  0  0  0  0  0  0  0
  -22.2948   -4.6976   24.3830 C   0  0  0  0  0  0  0  0  0  0  0  0
  -28.9397  -20.7726   22.4992 C   0  0  0  0  0  0  0  0  0  0  0  0
  -26.7828  -19.9745   22.0909 C   0  0  0  0  0  0  0  0  0  0  0  0
  -23.1383  -10.8253   21.1637 C   0  0  0  0  0  0  0  0  0  0  0  0
  -22.1574  -13.1745   21.3277 C   0  0  0  0  0  0  0  0  0  0  0  0
  -30.3032  -33.1613   17.0557 C   0  0  0  0  0  0  0  0  0  0  0  0
  -26.6294  -26.5985   19.1319 C   0  0  0  0  0  0  0  0  0  0  0  0
  -30.1661  -31.7601   17.0692 C   0  0  0  0  0  0  0  0  0  0  0  0
  -26.6400  -26.7105   20.5296 C   0  0  0  0  0  0  0  0  0  0  0  0
  -27.7574  -20.9072   21.8005 C   0  0  0  0  0  0  0  0  0  0  0  0
  -23.0090   -8.0415   21.2900 C   0  0  0  0  0  0  0  0  0  0  0  0
  -27.1028  -24.3303   20.7044 C   0  0  0  0  0  0  0  0  0  0  0  0
  -22.2834   -6.1182   22.4289 C   0  0  0  0  0  0  0  0  0  0  0  0
  -20.9465   -4.9830   24.5983 C   0  0  0  0  0  0  0  0  0  0  0  0
  -22.9633   -5.2653   23.2983 C   0  0  0  0  0  0  0  0  0  0  0  0
  -23.2057  -12.2631   21.0990 C   0  0  0  0  0  0  0  0  0  0  0  0
  -22.7301  -14.4095   21.1450 C   0  0  0  0  0  0  0  0  0  0  0  0
  -28.1367  -18.9577   23.6075 C   0  0  0  0  0  0  0  0  0  0  0  0
  -20.7884  -12.9269   21.6743 C   0  0  0  0  0  0  0  0  0  0  0  0
  -28.1335  -29.3977   19.0543 C   0  0  0  0  0  0  0  0  0  0  0  0
  -25.5826  -30.3759   20.8032 C   0  0  0  0  0  0  0  0  0  0  0  0
  -23.0278  -29.5529   22.9109 C   0  0  0  0  0  0  0  0  0  0  0  0
  -28.3594  -16.3998   21.5920 C   0  0  0  0  0  0  0  0  0  0  0  0
  -30.2765  -33.9732   18.3264 C   0  0  0  0  0  0  0  0  0  0  0  0
  -26.3457  -27.8007   18.2736 C   0  0  0  0  0  0  0  0  0  0  0  0
  -26.4038  -28.0273   21.2215 C   0  0  0  0  0  0  0  0  0  0  0  0
  -29.6666  -33.2294   19.5117 C   0  0  0  0  0  0  0  0  0  0  0  0
  -26.2424  -16.5888   18.7356 C   0  0  0  0  0  0  0  0  0  0  0  0
  -30.2362  -31.8176   19.6064 C   0  0  0  0  0  0  0  0  0  0  0  0
  -25.1294  -15.5839   19.0381 C   0  0  0  0  0  0  0  0  0  0  0  0
  -27.5951  -16.1058   19.2541 C   0  0  0  0  0  0  0  0  0  0  0  0
  -26.5025  -14.7327   20.9846 C   0  0  0  0  0  0  0  0  0  0  0  0
  -29.9008  -31.0021   18.3518 C   0  0  1  0  0  0  0  0  0  0  0  0
  -26.6590  -29.1205   18.9716 C   0  0  1  0  0  0  0  0  0  0  0  0
  -25.1096  -15.2014   20.5303 C   0  0  2  0  0  0  0  0  0  0  0  0
  -21.1330  -30.5728   24.2020 C   0  0  0  0  0  0  0  0  0  0  0  0
  -27.0583  -17.3858   25.3576 C   0  0  0  0  0  0  0  0  0  0  0  0
  -29.3088  -18.3566   25.7435 C   0  0  0  0  0  0  0  0  0  0  0  0
  -27.5633  -31.4352   22.8684 C   0  0  0  0  0  0  0  0  0  0  0  0
  -25.6769  -31.5628   24.5096 C   0  0  0  0  0  0  0  0  0  0  0  0
  -25.6122  -32.9365   22.4283 C   0  0  0  0  0  0  0  0  0  0  0  0
  -21.0139  -27.9621   21.4368 C   0  0  0  0  0  0  0  0  0  0  0  0
  -27.5467  -21.9954   20.7891 C   0  0  0  0  0  0  0  0  0  1  0  0
  -29.0064  -16.5920   23.9803 C   0  0  0  0  0  0  0  0  0  0  0  0
  -25.2566  -30.4380   22.2759 C   0  0  1  0  0  0  0  0  0  0  0  0
  -21.5538  -29.9156   22.8967 C   0  0  2  0  0  0  0  0  0  0  0  0
  -28.3478  -17.8728   24.6084 C   0  0  0  0  0  0  0  0  0  0  0  0
  -26.0337  -31.5685   23.0077 C   0  0  0  0  0  0  0  0  0  0  0  0
  -29.1644  -19.8061   23.4133 N   0  0  0  0  0  0  0  0  0  0  0  0
  -26.9392  -18.9825   22.9919 N   0  0  0  0  0  0  0  0  0  0  0  0
  -24.3571  -12.8676   20.7943 N   0  0  0  0  0  0  0  0  0  0  0  0
  -24.0357  -14.1720   20.8300 N   0  0  0  0  0  0  0  0  0  0  0  0
  -26.1370  -29.1748   20.3386 N   0  0  0  0  0  0  0  0  0  0  0  0
  -27.5084  -15.7609   20.6752 N   0  0  0  0  0  0  0  0  0  0  0  0
  -22.2392  -15.6645   21.2247 N   0  0  0  0  0  0  0  0  0  0  0  0
  -20.3665  -11.5986   21.8228 N   0  0  0  0  0  0  0  0  0  0  0  0
  -28.5276  -30.5474   18.3968 N   0  0  0  0  0  0  0  0  0  0  0  0
  -23.8053  -30.5540   22.3682 N   0  0  0  0  0  0  0  0  0  0  0  0
  -28.2076  -16.0193   22.9198 N   0  0  0  0  0  0  0  0  0  0  0  0
  -20.7220  -28.6955   22.6954 N   0  3  0  0  0  0  0  0  0  0  0  0
  -19.9596  -13.8554   21.8310 O   0  0  0  0  0  0  0  0  0  0  0  0
  -28.8596  -28.6264   19.6704 O   0  0  0  0  0  0  0  0  0  0  0  0
  -25.3473  -31.3544   20.0900 O   0  0  0  0  0  0  0  0  0  0  0  0
  -23.4478  -28.4895   23.3618 O   0  0  0  0  0  0  0  0  0  0  0  0
  -29.1891  -17.2506   21.2532 O   0  0  0  0  0  0  0  0  0  0  0  0
  -22.9458   -6.6832   21.3520 O   0  0  0  0  0  0  0  0  0  0  0  0
  -27.3370  -23.2310   21.4715 O   0  0  0  0  0  0  0  0  0  1  0  0
  -20.3049   -4.4391   25.6407 F   0  0  0  0  0  0  0  0  0  0  0  0
  -24.2589   -4.9883   23.0972 F   0  0  0  0  0  0  0  0  0  0  0  0
  1  2  1  0  0  0  0
  1  5  2  0  0  0  0
  2  6  2  0  0  0  0
  3  8  2  0  0  0  0
  3 17  1  0  0  0  0
  4  9  1  0  0  0  0
  4 17  2  0  0  0  0
  5 19  1  0  0  0  0
  6 21  1  0  0  0  0
  7 10  2  0  0  0  0
  7 20  1  0  0  0  0
  8 24  1  0  0  0  0
  9 24  2  0  0  0  0
 10 25  1  0  0  0  0
 11 12  2  0  0  0  0
 11 26  1  0  0  0  0
 12 27  1  0  0  0  0
 13 22  1  0  0  0  0
 13 25  2  0  0  0  0
 14 27  2  0  0  0  0
 14 28  1  0  0  0  0
 15 23  1  0  0  0  0
 15 62  2  0  0  0  0
 16 23  2  0  0  0  0
 16 63  1  0  0  0  0
 17 29  1  0  0  0  0
 18 29  1  0  0  0  0
 18 30  2  0  0  0  0
 18 32  1  0  0  0  0
 19 21  2  0  0  0  0
 19 37  1  0  0  0  0
 20 22  2  0  0  0  0
 20 38  1  0  0  0  0
 21 46  1  0  0  0  0
 22 39  1  0  0  0  0
 23 56  1  0  0  0  0
 24 79  1  0  0  0  0
 25 80  1  0  0  0  0
 26 28  2  0  0  0  0
 26 79  1  0  0  0  0
 27 81  1  0  0  0  0
 28 82  1  0  0  0  0
 29 64  2  0  0  0  0
 30 65  1  0  0  0  0
 30 68  1  0  0  0  0
 31 60  1  0  0  0  0
 31 62  1  0  0  0  0
 31 63  2  0  0  0  0
 32 69  1  0  0  0  0
 32 74  2  0  0  0  0
 33 47  1  0  0  0  0
 33 70  1  0  0  0  0
 33 75  2  0  0  0  0
 34 58  1  0  0  0  0
 34 66  1  0  0  0  0
 34 76  2  0  0  0  0
 35 59  1  0  0  0  0
 35 71  1  0  0  0  0
 35 77  2  0  0  0  0
 36 67  1  0  0  0  0
 36 72  1  0  0  0  0
 36 78  2  0  0  0  0
 37 40  1  0  0  0  0
 38 47  1  0  0  0  0
 39 66  1  0  0  0  0
 40 42  1  0  0  0  0
 41 43  1  0  0  0  0
 41 44  1  0  0  0  0
 42 46  1  0  0  0  0
 43 48  1  0  0  0  0
 44 67  1  0  0  0  0
 45 48  1  0  0  0  0
 45 67  1  0  0  0  0
 46 70  1  0  0  0  0
 47 66  1  0  0  0  0
 48 65  1  0  0  0  0
 49 59  1  0  0  0  0
 50 60  1  0  0  0  0
 51 60  1  0  0  0  0
 52 61  1  0  0  0  0
 53 61  1  0  0  0  0
 54 61  1  0  0  0  0
 55 73  1  0  0  0  0
 56 80  1  0  0  0  0
 57 60  1  0  0  0  0
 57 72  1  0  0  0  0
 58 61  1  0  0  0  0
 58 71  1  0  0  0  0
 59 73  1  0  0  0  0
 64 65  1  0  0  0  0
M  CHG  1  73   1
M  ISO  4  36 100  56 101  72 100  80 101
M  END
> <Batch ID>
0060

> <Smiles>
CNC(C)C(=O)NC(C(=O)N1Cc2cc([101O:1][101CH2:1]c3cnc(C(C)(C)C[100NH:0][100C:0](=O)N4CCCC(n5nc(-c6ccc(Oc7ccc(F)cc7F)cc6)c(C(N)=O)c5N)C4)nc3)ccc2CC1C(=O)NC1CCCc2ccccc21)C(C)(C)C

> <Shape>
0.243

> <Color>
0.080

> <Negative vol penalty>
0.000

$$$$

  -OEChem-04052317553D

 83 91  0     1  0  0  0  0  0999 V2000
  -21.8932  -22.5934   25.4220 C   0  0  0  0  0  0  0  0  0  0  0  0
  -23.0464  -22.9990   24.7579 C   0  0  0  0  0  0  0  0  0  0  0  0
  -26.4430  -12.9523   20.6923 C   0  0  0  0  0  0  0  0  0  0  0  0
  -24.4028  -14.1415   20.1818 C   0  0  0  0  0  0  0  0  0  0  0  0
  -20.7815  -23.4340   25.4628 C   0  0  0  0  0  0  0  0  0  0  0  0
  -23.0883  -24.2450   24.1333 C   0  0  0  0  0  0  0  0  0  0  0  0
  -27.3925  -26.7435   25.0693 C   0  0  0  0  0  0  0  0  0  0  0  0
  -25.6960  -11.8823   21.1850 C   0  0  0  0  0  0  0  0  0  0  0  0
  -23.6558  -13.0714   20.6744 C   0  0  0  0  0  0  0  0  0  0  0  0
  -28.5234  -26.3543   24.3527 C   0  0  0  0  0  0  0  0  0  0  0  0
  -23.9575   -9.2695   19.9265 C   0  0  0  0  0  0  0  0  0  0  0  0
  -24.3363   -7.9833   19.5424 C   0  0  0  0  0  0  0  0  0  0  0  0
  -28.2040  -28.2143   22.8501 C   0  0  0  0  0  0  0  0  0  0  0  0
  -24.7007   -7.3990   21.8582 C   0  0  0  0  0  0  0  0  0  0  0  0
  -27.7093  -24.8041   20.3368 C   0  0  0  0  0  0  0  0  0  0  0  0
  -25.7964  -14.0820   20.1908 C   0  0  0  0  0  0  0  0  0  0  0  0
  -27.0096  -15.3790   18.3595 C   0  0  0  0  0  0  0  0  0  0  0  0
  -20.8132  -24.6950   24.8466 C   0  0  0  0  0  0  0  0  0  0  0  0
  -26.6514  -27.8666   24.6745 C   0  0  0  0  0  0  0  0  0  0  0  0
  -21.9756  -25.1027   24.1648 C   0  0  0  0  0  0  0  0  0  0  0  0
  -27.0656  -28.6171   23.5649 C   0  0  0  0  0  0  0  0  0  0  0  0
  -24.3025  -11.9418   21.1759 C   0  0  0  0  0  0  0  0  0  0  0  0
  -28.9276  -27.0880   23.2413 C   0  0  0  0  0  0  0  0  0  0  0  0
  -23.9503   -9.6206   21.2765 C   0  0  0  0  0  0  0  0  0  0  0  0
  -24.7079   -7.0480   20.5082 C   0  0  0  0  0  0  0  0  0  0  0  0
  -24.3219   -8.6853   22.2423 C   0  0  0  0  0  0  0  0  0  0  0  0
  -26.5674  -15.1879   19.6823 C   0  0  0  0  0  0  0  0  0  0  0  0
  -28.9613  -24.5213   19.8514 C   0  0  0  0  0  0  0  0  0  0  0  0
  -27.6937  -16.5695   18.3948 C   0  0  0  0  0  0  0  0  0  0  0  0
  -26.8189  -14.5542   17.2024 C   0  0  0  0  0  0  0  0  0  0  0  0
  -23.6681  -28.3529   23.6909 C   0  0  0  0  0  0  0  0  0  0  0  0
  -24.5383  -31.4738   23.8493 C   0  0  0  0  0  0  0  0  0  0  0  0
  -27.0459  -33.7882   23.8034 C   0  0  0  0  0  0  0  0  0  0  0  0
  -27.3851  -21.3444   21.9942 C   0  0  0  0  0  0  0  0  0  0  0  0
  -19.5706  -25.5492   24.8771 C   0  0  0  0  0  0  0  0  0  0  0  0
  -25.4493  -28.2888   25.4740 C   0  0  0  0  0  0  0  0  0  0  0  0
  -26.3162  -29.8425   23.1119 C   0  0  0  0  0  0  0  0  0  0  0  0
  -19.8257  -27.0088   24.5102 C   0  0  0  0  0  0  0  0  0  0  0  0
  -30.2507  -19.3328   21.3472 C   0  0  0  0  0  0  0  0  0  0  0  0
  -20.6966  -27.1010   23.2612 C   0  0  0  0  0  0  0  0  0  0  0  0
  -29.6715  -18.0596   20.7278 C   0  0  0  0  0  0  0  0  0  0  0  0
  -29.3422  -19.8926   22.4396 C   0  0  0  0  0  0  0  0  0  0  0  0
  -27.3649  -18.8439   21.4082 C   0  0  0  0  0  0  0  0  0  0  0  0
  -22.0683  -26.4572   23.4964 C   0  0  1  0  0  0  0  0  0  0  0  0
  -24.4742  -29.1499   24.6771 C   0  0  1  0  0  0  0  0  0  0  0  0
  -28.2185  -18.2731   20.2628 C   0  0  2  0  0  0  0  0  0  0  0  0
  -27.4444  -36.2633   23.9151 C   0  0  0  0  0  0  0  0  0  0  0  0
  -23.5977  -31.7531   20.9602 C   0  0  0  0  0  0  0  0  0  0  0  0
  -24.8662  -33.9076   20.8288 C   0  0  0  0  0  0  0  0  0  0  0  0
  -22.9831  -33.6677   22.4471 C   0  0  0  0  0  0  0  0  0  0  0  0
  -24.7220  -24.7979   20.2904 C   0  0  0  0  0  0  0  0  0  0  0  0
  -24.9818  -22.7013   18.9894 C   0  0  0  0  0  0  0  0  0  0  0  0
  -28.6606  -33.5341   26.2706 C   0  0  0  0  0  0  0  0  0  0  0  0
  -30.2298  -25.3279   19.9695 C   0  0  0  0  0  0  0  0  0  0  0  0
  -31.0577  -24.9952   21.2126 C   0  0  0  0  0  0  0  0  0  0  0  0
  -25.3534  -22.6714   21.4743 C   0  0  0  0  0  0  0  0  0  0  0  0
  -30.3415  -25.3174   22.5190 C   0  0  0  0  0  0  0  0  0  1  0  0
  -25.1597  -32.4604   22.8904 C   0  0  1  0  0  0  0  0  0  0  0  0
  -27.3425  -34.9701   24.7088 C   0  0  2  0  0  0  0  0  0  0  0  0
  -24.1649  -32.9230   21.7888 C   0  0  0  0  0  0  0  0  0  0  0  0
  -25.5630  -23.5025   20.1791 C   0  0  0  0  0  0  0  0  0  0  0  0
  -26.9395  -16.1776   20.4984 N   0  0  0  0  0  0  0  0  0  0  0  0
  -28.9390  -23.3231   19.1931 N   0  0  0  0  0  0  0  0  0  0  0  0
  -27.7001  -22.8471   19.2534 N   0  0  0  0  0  0  0  0  0  0  0  0
  -26.9643  -23.7367   19.9394 N   0  0  0  0  0  0  0  0  0  0  0  0
  -27.6227  -17.0021   19.6863 N   0  0  0  0  0  0  0  0  0  0  0  0
  -25.1438  -30.2113   23.9226 N   0  0  0  0  0  0  0  0  0  0  0  0
  -27.9795  -20.0732   21.9335 N   0  0  0  0  0  0  0  0  0  0  0  0
  -28.3430  -17.2779   17.4467 N   0  0  0  0  0  0  0  0  0  0  0  0
  -26.0914  -13.3645   17.3424 N   0  0  0  0  0  0  0  0  0  0  0  0
  -22.9178  -27.3433   24.2629 N   0  0  0  0  0  0  0  0  0  0  0  0
  -25.6921  -33.5447   23.7085 N   0  0  0  0  0  0  0  0  0  0  0  0
  -26.0942  -21.4297   21.4873 N   0  0  0  0  0  0  0  0  0  0  0  0
  -28.6290  -34.7593   25.4310 N   0  3  0  0  0  0  0  0  0  0  0  0
  -27.2941  -14.8548   16.0811 O   0  0  0  0  0  0  0  0  0  0  0  0
  -23.7218  -28.6339   22.4993 O   0  0  0  0  0  0  0  0  0  0  0  0
  -23.5564  -31.8132   24.5143 O   0  0  0  0  0  0  0  0  0  0  0  0
  -27.9269  -33.1476   23.2342 O   0  0  0  0  0  0  0  0  0  0  0  0
  -27.9642  -22.3315   22.4604 O   0  0  0  0  0  0  0  0  0  0  0  0
  -23.5733  -10.8978   21.6563 O   0  0  0  0  0  0  0  0  0  0  0  0
  -30.0307  -26.7100   22.5397 O   0  0  0  0  0  0  0  0  0  1  0  0
  -25.0701   -5.8123   20.1392 F   0  0  0  0  0  0  0  0  0  0  0  0
  -24.3159   -9.0163   23.5408 F   0  0  0  0  0  0  0  0  0  0  0  0
  1  2  1  0  0  0  0
  1  5  2  0  0  0  0
  2  6  2  0  0  0  0
  3  8  2  0  0  0  0
  3 16  1  0  0  0  0
  4  9  1  0  0  0  0
  4 16  2  0  0  0  0
  5 18  1  0  0  0  0
  6 20  1  0  0  0  0
  7 10  2  0  0  0  0
  7 19  1  0  0  0  0
  8 22  1  0  0  0  0
  9 22  2  0  0  0  0
 10 23  1  0  0  0  0
 11 12  2  0  0  0  0
 11 24  1  0  0  0  0
 12 25  1  0  0  0  0
 13 21  1  0  0  0  0
 13 23  2  0  0  0  0
 14 25  2  0  0  0  0
 14 26  1  0  0  0  0
 15 28  2  0  0  0  0
 15 65  1  0  0  0  0
 16 27  1  0  0  0  0
 17 27  1  0  0  0  0
 17 29  2  0  0  0  0
 17 30  1  0  0  0  0
 18 20  2  0  0  0  0
 18 35  1  0  0  0  0
 19 21  2  0  0  0  0
 19 36  1  0  0  0  0
 20 44  1  0  0  0  0
 21 37  1  0  0  0  0
 22 80  1  0  0  0  0
 23 81  1  0  0  0  0
 24 26  2  0  0  0  0
 24 80  1  0  0  0  0
 25 82  1  0  0  0  0
 26 83  1  0  0  0  0
 27 62  2  0  0  0  0
 28 54  1  0  0  0  0
 28 63  1  0  0  0  0
 29 66  1  0  0  0  0
 29 69  1  0  0  0  0
 30 70  1  0  0  0  0
 30 75  2  0  0  0  0
 31 45  1  0  0  0  0
 31 71  1  0  0  0  0
 31 76  2  0  0  0  0
 32 58  1  0  0  0  0
 32 67  1  0  0  0  0
 32 77  2  0  0  0  0
 33 59  1  0  0  0  0
 33 72  1  0  0  0  0
 33 78  2  0  0  0  0
 34 68  1  0  0  0  0
 34 73  1  0  0  0  0
 34 79  2  0  0  0  0
 35 38  1  0  0  0  0
 36 45  1  0  0  0  0
 37 67  1  0  0  0  0
 38 40  1  0  0  0  0
 39 41  1  0  0  0  0
 39 42  1  0  0  0  0
 40 44  1  0  0  0  0
 41 46  1  0  0  0  0
 42 68  1  0  0  0  0
 43 46  1  0  0  0  0
 43 68  1  0  0  0  0
 44 71  1  0  0  0  0
 45 67  1  0  0  0  0
 46 66  1  0  0  0  0
 47 59  1  0  0  0  0
 48 60  1  0  0  0  0
 49 60  1  0  0  0  0
 50 60  1  0  0  0  0
 51 61  1  0  0  0  0
 52 61  1  0  0  0  0
 53 74  1  0  0  0  0
 54 55  1  0  0  0  0
 55 57  1  0  0  0  0
 56 61  1  0  0  0  0
 56 73  1  0  0  0  0
 57 81  1  0  0  0  0
 58 60  1  0  0  0  0
 58 72  1  0  0  0  0
 59 74  1  0  0  0  0
 61 65  1  0  0  0  0
 62 66  1  0  0  0  0
 63 64  2  0  0  0  0
 64 65  1  0  0  0  0
M  CHG  1  74   1
M  ISO  4  34 100  57 101  73 100  81 101
M  END
> <Batch ID>
0060

> <Smiles>
CNC(C)C(=O)NC(C(=O)N1Cc2cc([101O:1][101CH2:1]CCc3cn(C(C)(C)C[100NH:0][100C:0](=O)N4CCCC(n5nc(-c6ccc(Oc7ccc(F)cc7F)cc6)c(C(N)=O)c5N)C4)nn3)ccc2CC1C(=O)NC1CCCc2ccccc21)C(C)(C)C

> <Shape>
0.205

> <Color>
0.067

> <Negative vol penalty>
0.000

$$$$

  -OEChem-04052317553D

 88 96  0     1  0  0  0  0  0999 V2000
  -28.2009  -36.2108   17.8023 C   0  0  0  0  0  0  0  0  0  0  0  0
  -28.6573  -34.9486   17.4362 C   0  0  0  0  0  0  0  0  0  0  0  0
  -25.5921  -14.9729   22.2243 C   0  0  0  0  0  0  0  0  0  0  0  0
  -24.7111  -16.2661   20.3835 C   0  0  0  0  0  0  0  0  0  0  0  0
  -27.6197  -36.4044   19.0548 C   0  0  0  0  0  0  0  0  0  0  0  0
  -28.5337  -33.8795   18.3228 C   0  0  0  0  0  0  0  0  0  0  0  0
  -27.4615  -26.7973   18.4135 C   0  0  0  0  0  0  0  0  0  0  0  0
  -26.1256  -14.0524   21.3223 C   0  0  0  0  0  0  0  0  0  0  0  0
  -25.2447  -15.3456   19.4815 C   0  0  0  0  0  0  0  0  0  0  0  0
  -28.0158  -25.6306   18.9383 C   0  0  0  0  0  0  0  0  0  0  0  0
  -28.8185  -13.8304   19.2897 C   0  0  0  0  0  0  0  0  0  0  0  0
  -30.1270  -13.3972   19.5033 C   0  0  0  0  0  0  0  0  0  0  0  0
  -26.9232  -26.0660   21.0444 C   0  0  0  0  0  0  0  0  0  0  0  0
  -29.3408  -11.1216   19.7046 C   0  0  0  0  0  0  0  0  0  0  0  0
  -30.5806  -22.2585   21.5966 C   0  0  0  0  0  0  0  0  0  0  0  0
  -24.8848  -16.0797   21.7549 C   0  0  0  0  0  0  0  0  0  0  0  0
  -23.3868  -16.7790   23.6978 C   0  0  0  0  0  0  0  0  0  0  0  0
  -27.4802  -35.3351   19.9534 C   0  0  0  0  0  0  0  0  0  0  0  0
  -26.6412  -27.6141   19.2049 C   0  0  0  0  0  0  0  0  0  0  0  0
  -27.9513  -34.0593   19.5890 C   0  0  0  0  0  0  0  0  0  0  0  0
  -26.3576  -27.2412   20.5265 C   0  0  0  0  0  0  0  0  0  0  0  0
  -25.9519  -14.2387   19.9509 C   0  0  0  0  0  0  0  0  0  0  0  0
  -27.7491  -25.2663   20.2548 C   0  0  0  0  0  0  0  0  0  0  0  0
  -27.7711  -12.9092   19.2835 C   0  0  0  0  0  0  0  0  0  0  0  0
  -30.3882  -12.0428   19.7108 C   0  0  0  0  0  0  0  0  0  0  0  0
  -28.0322  -11.5548   19.4909 C   0  0  0  0  0  0  0  0  0  0  0  0
  -24.3329  -17.0307   22.6862 C   0  0  0  0  0  0  0  0  0  0  0  0
  -30.9520  -21.0875   22.2251 C   0  0  0  0  0  0  0  0  0  0  0  0
  -29.5922  -22.1358   20.6414 C   0  0  0  0  0  0  0  0  0  0  0  0
  -23.1942  -17.9988   24.2989 C   0  0  0  0  0  0  0  0  0  0  0  0
  -29.4536  -19.8954   21.0001 C   0  0  0  0  0  0  0  0  0  0  0  0
  -22.7399  -15.5523   24.0615 C   0  0  0  0  0  0  0  0  0  0  0  0
  -26.8013  -30.6110   20.2521 C   0  0  0  0  0  0  0  0  0  0  0  0
  -23.8132  -29.9773   21.3440 C   0  0  0  0  0  0  0  0  0  0  0  0
  -21.5239  -27.6481   22.3342 C   0  0  0  0  0  0  0  0  0  0  0  0
  -26.6058  -22.8969   24.7687 C   0  0  0  0  0  0  0  0  0  0  0  0
  -26.8883  -35.6032   21.3145 C   0  0  0  0  0  0  0  0  0  0  0  0
  -26.0293  -28.8554   18.6157 C   0  0  0  0  0  0  0  0  0  0  0  0
  -25.4669  -28.0730   21.4115 C   0  0  0  0  0  0  0  0  0  0  0  0
  -26.4545  -34.3378   22.0500 C   0  0  0  0  0  0  0  0  0  0  0  0
  -23.3351  -22.6915   23.3771 C   0  0  0  0  0  0  0  0  0  0  0  0
  -27.5436  -33.2729   21.9683 C   0  0  0  0  0  0  0  0  0  0  0  0
  -23.1345  -21.1947   23.1335 C   0  0  0  0  0  0  0  0  0  0  0  0
  -24.7772  -23.1182   23.1123 C   0  0  0  0  0  0  0  0  0  0  0  0
  -25.5962  -20.8453   23.5991 C   0  0  0  0  0  0  0  0  0  0  0  0
  -27.8125  -32.8693   20.5135 C   0  0  1  0  0  0  0  0  0  0  0  0
  -25.6241  -29.8804   19.6705 C   0  0  1  0  0  0  0  0  0  0  0  0
  -24.1704  -20.3570   23.9071 C   0  0  2  0  0  0  0  0  0  0  0  0
  -19.1812  -27.4360   23.2083 C   0  0  0  0  0  0  0  0  0  0  0  0
  -24.7595  -30.8952   24.0958 C   0  0  0  0  0  0  0  0  0  0  0  0
  -22.7418  -29.7884   25.0818 C   0  0  0  0  0  0  0  0  0  0  0  0
  -22.4662  -31.6712   23.4688 C   0  0  0  0  0  0  0  0  0  0  0  0
  -20.6702  -26.0539   19.9914 C   0  0  0  0  0  0  0  0  0  0  0  0
  -32.7902  -22.0735   25.4388 C   0  0  0  0  0  0  0  0  0  0  0  0
  -32.0132  -21.1204   23.2735 C   0  0  0  0  0  0  0  0  0  0  0  0
  -29.1205  -23.3551   19.9051 C   0  0  0  0  0  0  0  0  0  1  0  0
  -29.7703  -22.8183   25.7698 C   0  0  0  0  0  0  0  0  0  0  0  0
  -28.4228  -22.5130   26.4150 C   0  0  0  0  0  0  0  0  0  0  0  0
  -30.3715  -21.5981   25.0839 C   0  0  0  0  0  0  0  0  0  0  0  0
  -23.2387  -29.4174   22.6229 C   0  0  1  0  0  0  0  0  0  0  0  0
  -20.0633  -27.4528   21.9696 C   0  0  2  0  0  0  0  0  0  0  0  0
  -28.8247  -18.5839   20.6709 C   0  0  0  0  0  0  0  0  0  0  0  0
  -23.3199  -30.4282   23.8015 C   0  0  0  0  0  0  0  0  0  0  0  0
  -24.7147  -18.3099   22.6439 N   0  0  0  0  0  0  0  0  0  0  0  0
  -30.4075  -19.8840   21.9506 N   0  0  0  0  0  0  0  0  0  0  0  0
  -29.0048  -20.9654   20.3166 N   0  0  0  0  0  0  0  0  0  0  0  0
  -24.0049  -18.8730   23.6365 N   0  0  0  0  0  0  0  0  0  0  0  0
  -24.8974  -29.2808   20.7915 N   0  0  0  0  0  0  0  0  0  0  0  0
  -25.7090  -22.2857   23.8770 N   0  0  0  0  0  0  0  0  0  0  0  0
  -22.4122  -18.3983   25.3243 N   0  0  0  0  0  0  0  0  0  0  0  0
  -21.5268  -15.2267   23.4396 N   0  0  0  0  0  0  0  0  0  0  0  0
  -26.7783  -31.9759   20.0375 N   0  0  0  0  0  0  0  0  0  0  0  0
  -21.8843  -28.9786   22.3042 N   0  0  0  0  0  0  0  0  0  0  0  0
  -27.4498  -22.0349   25.4582 N   0  0  0  0  0  0  0  0  0  0  0  0
  -19.8784  -26.1646   21.2435 N   0  3  0  0  0  0  0  0  0  0  0  0
  -31.6720  -21.9915   24.4317 N   0  3  1  0  0  0  0  0  0  0  0  0
  -23.2150  -14.7760   24.9248 O   0  0  0  0  0  0  0  0  0  0  0  0
  -27.6656  -29.9832   20.8524 O   0  0  0  0  0  0  0  0  0  0  0  0
  -23.3137  -30.9910   20.8496 O   0  0  0  0  0  0  0  0  0  0  0  0
  -22.2695  -26.7140   22.6209 O   0  0  0  0  0  0  0  0  0  0  0  0
  -26.6474  -24.1197   24.9418 O   0  0  0  0  0  0  0  0  0  0  0  0
  -26.4726  -13.3408   19.0705 O   0  0  0  0  0  0  0  0  0  0  0  0
  -28.2894  -24.1285   20.7697 O   0  0  0  0  0  0  0  0  0  1  0  0
  -31.6450  -11.6268   19.9144 F   0  0  0  0  0  0  0  0  0  0  0  0
  -27.0303  -10.6650   19.4850 F   0  0  0  0  0  0  0  0  0  0  0  0
  -29.3210  -17.5404   21.3995 F   0  0  0  0  0  0  0  0  0  0  0  0
  -27.4756  -18.5559   20.8827 F   0  0  0  0  0  0  0  0  0  0  0  0
  -28.9973  -18.2321   19.3634 F   0  0  0  0  0  0  0  0  0  0  0  0
  1  2  1  0  0  0  0
  1  5  2  0  0  0  0
  2  6  2  0  0  0  0
  3  8  2  0  0  0  0
  3 16  1  0  0  0  0
  4  9  1  0  0  0  0
  4 16  2  0  0  0  0
  5 18  1  0  0  0  0
  6 20  1  0  0  0  0
  7 10  2  0  0  0  0
  7 19  1  0  0  0  0
  8 22  1  0  0  0  0
  9 22  2  0  0  0  0
 10 23  1  0  0  0  0
 11 12  2  0  0  0  0
 11 24  1  0  0  0  0
 12 25  1  0  0  0  0
 13 21  1  0  0  0  0
 13 23  2  0  0  0  0
 14 25  2  0  0  0  0
 14 26  1  0  0  0  0
 15 28  2  0  0  0  0
 15 29  1  0  0  0  0
 16 27  1  0  0  0  0
 17 27  1  0  0  0  0
 17 30  2  0  0  0  0
 17 32  1  0  0  0  0
 18 20  2  0  0  0  0
 18 37  1  0  0  0  0
 19 21  2  0  0  0  0
 19 38  1  0  0  0  0
 20 46  1  0  0  0  0
 21 39  1  0  0  0  0
 22 82  1  0  0  0  0
 23 83  1  0  0  0  0
 24 26  2  0  0  0  0
 24 82  1  0  0  0  0
 25 84  1  0  0  0  0
 26 85  1  0  0  0  0
 27 64  2  0  0  0  0
 28 55  1  0  0  0  0
 28 65  1  0  0  0  0
 29 56  1  0  0  0  0
 29 66  2  0  0  0  0
 30 67  1  0  0  0  0
 30 70  1  0  0  0  0
 31 62  1  0  0  0  0
 31 65  2  0  0  0  0
 31 66  1  0  0  0  0
 32 71  1  0  0  0  0
 32 77  2  0  0  0  0
 33 47  1  0  0  0  0
 33 72  1  0  0  0  0
 33 78  2  0  0  0  0
 34 60  1  0  0  0  0
 34 68  1  0  0  0  0
 34 79  2  0  0  0  0
 35 61  1  0  0  0  0
 35 73  1  0  0  0  0
 35 80  2  0  0  0  0
 36 69  1  0  0  0  0
 36 74  1  0  0  0  0
 36 81  2  0  0  0  0
 37 40  1  0  0  0  0
 38 47  1  0  0  0  0
 39 68  1  0  0  0  0
 40 42  1  0  0  0  0
 41 43  1  0  0  0  0
 41 44  1  0  0  0  0
 42 46  1  0  0  0  0
 43 48  1  0  0  0  0
 44 69  1  0  0  0  0
 45 48  1  0  0  0  0
 45 69  1  0  0  0  0
 46 72  1  0  0  0  0
 47 68  1  0  0  0  0
 48 67  1  0  0  0  0
 49 61  1  0  0  0  0
 50 63  1  0  0  0  0
 51 63  1  0  0  0  0
 52 63  1  0  0  0  0
 53 75  1  0  0  0  0
 54 76  1  0  0  0  0
 55 76  1  0  0  0  0
 56 83  1  0  0  0  0
 57 58  1  0  0  0  0
 57 59  1  0  0  0  0
 58 74  1  0  0  0  0
 59 76  1  0  0  0  0
 60 63  1  0  0  0  0
 60 73  1  0  0  0  0
 61 75  1  0  0  0  0
 62 86  1  0  0  0  0
 62 87  1  0  0  0  0
 62 88  1  0  0  0  0
 64 67  1  0  0  0  0
M  CHG  2  75   1  76   1
M  ISO  4  36 100  56 101  74 100  83 101
M  END
> <Batch ID>
0060

> <Smiles>
CNC(C)C(=O)NC(C(=O)N1Cc2cc([101O:1][101CH2:1]c3cc(CN(C)CCC[100NH:0][100C:0](=O)N4CCCC(n5nc(-c6ccc(Oc7ccc(F)cc7F)cc6)c(C(N)=O)c5N)C4)nc(C(F)(F)F)n3)ccc2CC1C(=O)NC1CCCc2ccccc21)C(C)(C)C

> <Shape>
0.231

> <Color>
0.057

> <Negative vol penalty>
0.000

$$$$

  -OEChem-04052317553D

 81 89  0     1  0  0  0  0  0999 V2000
  -28.7003  -11.3731   18.7072 C   0  0  0  0  0  0  0  0  0  0  0  0
  -27.6149  -12.1745   19.0464 C   0  0  0  0  0  0  0  0  0  0  0  0
  -24.6089  -28.8757   21.6893 C   0  0  0  0  0  0  0  0  0  0  0  0
  -23.4912  -29.9906   19.8604 C   0  0  0  0  0  0  0  0  0  0  0  0
  -29.9857  -11.7370   19.1063 C   0  0  0  0  0  0  0  0  0  0  0  0
  -27.8142  -13.3398   19.7859 C   0  0  0  0  0  0  0  0  0  0  0  0
  -25.2118  -17.2760   17.9479 C   0  0  0  0  0  0  0  0  0  0  0  0
  -25.4663  -29.9668   21.8305 C   0  0  0  0  0  0  0  0  0  0  0  0
  -24.3486  -31.0818   20.0017 C   0  0  0  0  0  0  0  0  0  0  0  0
  -23.8498  -17.3316   18.2410 C   0  0  0  0  0  0  0  0  0  0  0  0
  -25.3577  -33.0604   23.1910 C   0  0  0  0  0  0  0  0  0  0  0  0
  -25.6005  -33.5312   24.4813 C   0  0  0  0  0  0  0  0  0  0  0  0
  -24.2988  -18.9227   19.9976 C   0  0  0  0  0  0  0  0  0  0  0  0
  -27.9582  -33.0840   24.2007 C   0  0  0  0  0  0  0  0  0  0  0  0
  -19.7524  -18.3401   15.2123 C   0  0  0  0  0  0  0  0  0  0  0  0
  -23.6213  -28.8876   20.7042 C   0  0  0  0  0  0  0  0  0  0  0  0
  -21.4962  -27.5647   21.1954 C   0  0  0  0  0  0  0  0  0  0  0  0
  -30.2020  -12.9124   19.8428 C   0  0  0  0  0  0  0  0  0  0  0  0
  -26.1302  -18.0364   18.6860 C   0  0  0  0  0  0  0  0  0  0  0  0
  -29.1035  -13.7190   20.1964 C   0  0  0  0  0  0  0  0  0  0  0  0
  -25.6716  -18.8770   19.7103 C   0  0  0  0  0  0  0  0  0  0  0  0
  -25.3361  -31.0699   20.9867 C   0  0  0  0  0  0  0  0  0  0  0  0
  -23.3935  -18.1528   19.2678 C   0  0  0  0  0  0  0  0  0  0  0  0
  -26.4151  -32.6012   22.4055 C   0  0  0  0  0  0  0  0  0  0  0  0
  -26.9008  -33.5431   24.9861 C   0  0  0  0  0  0  0  0  0  0  0  0
  -27.7153  -32.6131   22.9104 C   0  0  0  0  0  0  0  0  0  0  0  0
  -22.7357  -27.7605   20.5574 C   0  0  0  0  0  0  0  0  0  0  0  0
  -21.0554  -26.3521   20.7244 C   0  0  0  0  0  0  0  0  0  0  0  0
  -19.9308  -20.3210   14.5786 C   0  0  0  0  0  0  0  0  0  0  0  0
  -20.8049  -28.4039   22.1300 C   0  0  0  0  0  0  0  0  0  0  0  0
  -28.6051  -17.3618   20.5631 C   0  0  0  0  0  0  0  0  0  0  0  0
  -28.9881  -20.5829   20.5583 C   0  0  0  0  0  0  0  0  0  0  0  0
  -27.5828  -23.6670   20.1578 C   0  0  0  0  0  0  0  0  0  0  0  0
  -22.1650  -23.4415   15.7091 C   0  0  0  0  0  0  0  0  0  0  0  0
  -31.6039  -13.2398   20.2922 C   0  0  0  0  0  0  0  0  0  0  0  0
  -27.5931  -17.9856   18.3399 C   0  0  0  0  0  0  0  0  0  0  0  0
  -26.6145  -19.7286   20.5191 C   0  0  0  0  0  0  0  0  0  0  0  0
  -31.7741  -14.6854   20.7522 C   0  0  0  0  0  0  0  0  0  0  0  0
  -22.6764  -22.1684   19.0581 C   0  0  0  0  0  0  0  0  0  0  0  0
  -30.6379  -15.0850   21.6882 C   0  0  0  0  0  0  0  0  0  0  0  0
  -22.6298  -23.4557   19.8832 C   0  0  0  0  0  0  0  0  0  0  0  0
  -23.3722  -22.3949   17.7191 C   0  0  0  0  0  0  0  0  0  0  0  0
  -22.7353  -24.7757   17.7184 C   0  0  0  0  0  0  0  0  0  0  0  0
  -29.2821  -15.0035   20.9764 C   0  0  1  0  0  0  0  0  0  0  0  0
  -28.4953  -18.4118   19.4940 C   0  0  1  0  0  0  0  0  0  0  0  0
  -22.0238  -24.6180   19.0745 C   0  0  2  0  0  0  0  0  0  0  0  0
  -28.1383  -26.1124   20.2535 C   0  0  0  0  0  0  0  0  0  0  0  0
  -28.9799  -20.4630   23.6071 C   0  0  0  0  0  0  0  0  0  0  0  0
  -28.5797  -22.9343   23.6339 C   0  0  0  0  0  0  0  0  0  0  0  0
  -30.6729  -22.0223   22.6290 C   0  0  0  0  0  0  0  0  0  0  0  0
  -26.8712  -24.0587   17.3119 C   0  0  0  0  0  0  0  0  0  0  0  0
  -20.1773  -21.5513   13.8317 C   0  0  0  0  0  0  0  0  0  0  0  0
  -19.8727  -18.7629   18.7540 C   0  0  0  0  0  0  0  0  0  0  0  0
  -18.8262  -18.6163   17.6472 C   0  0  0  0  0  0  0  0  0  0  0  0
  -21.6611  -21.9810   13.7675 C   0  0  0  0  0  0  0  0  0  0  0  0
  -21.1563  -17.9886   18.4781 C   0  0  0  0  0  0  0  0  0  1  0  0
  -28.4790  -21.7214   21.4091 C   0  0  1  0  0  0  0  0  0  0  0  0
  -28.0297  -24.8825   19.3657 C   0  0  2  0  0  0  0  0  0  0  0  0
  -29.1601  -21.7678   22.8060 C   0  0  0  0  0  0  0  0  0  0  0  0
  -20.1334  -19.0992   14.1430 N   0  0  0  0  0  0  0  0  0  0  0  0
  -23.0616  -26.7530   19.7434 N   0  0  0  0  0  0  0  0  0  0  0  0
  -19.4509  -20.2797   15.8505 N   0  0  0  0  0  0  0  0  0  0  0  0
  -19.3267  -19.0154   16.2820 N   0  0  0  0  0  0  0  0  0  0  0  0
  -22.0203  -25.9123   19.8667 N   0  0  0  0  0  0  0  0  0  0  0  0
  -28.0360  -19.6395   20.1467 N   0  0  0  0  0  0  0  0  0  0  0  0
  -22.7357  -23.5019   16.9914 N   0  0  0  0  0  0  0  0  0  0  0  0
  -19.9405  -25.6298   20.9644 N   0  0  0  0  0  0  0  0  0  0  0  0
  -21.3995  -29.6159   22.5065 N   0  0  0  0  0  0  0  0  0  0  0  0
  -29.0945  -16.1502   20.1137 N   0  0  0  0  0  0  0  0  0  0  0  0
  -28.6564  -22.9338   20.6172 N   0  0  0  0  0  0  0  0  0  0  0  0
  -22.2126  -22.2004   15.0861 N   0  0  0  0  0  0  0  0  0  0  0  0
  -27.0584  -25.1751   18.2740 N   0  3  0  0  0  0  0  0  0  0  0  0
  -19.7005  -28.0807   22.6294 O   0  0  0  0  0  0  0  0  0  0  0  0
  -28.2719  -17.6314   21.7112 O   0  0  0  0  0  0  0  0  0  0  0  0
  -30.1850  -20.5365   20.2636 O   0  0  0  0  0  0  0  0  0  0  0  0
  -26.3997  -23.3973   20.3529 O   0  0  0  0  0  0  0  0  0  0  0  0
  -21.6462  -24.4204   15.1618 O   0  0  0  0  0  0  0  0  0  0  0  0
  -26.1724  -32.1348   21.1244 O   0  0  0  0  0  0  0  0  0  0  0  0
  -22.0648  -18.2084   19.5563 O   0  0  0  0  0  0  0  0  0  1  0  0
  -27.1341  -33.9967   26.2247 F   0  0  0  0  0  0  0  0  0  0  0  0
  -28.7353  -32.1744   22.1601 F   0  0  0  0  0  0  0  0  0  0  0  0
  1  2  1  0  0  0  0
  1  5  2  0  0  0  0
  2  6  2  0  0  0  0
  3  8  2  0  0  0  0
  3 16  1  0  0  0  0
  4  9  1  0  0  0  0
  4 16  2  0  0  0  0
  5 18  1  0  0  0  0
  6 20  1  0  0  0  0
  7 10  2  0  0  0  0
  7 19  1  0  0  0  0
  8 22  1  0  0  0  0
  9 22  2  0  0  0  0
 10 23  1  0  0  0  0
 11 12  2  0  0  0  0
 11 24  1  0  0  0  0
 12 25  1  0  0  0  0
 13 21  1  0  0  0  0
 13 23  2  0  0  0  0
 14 25  2  0  0  0  0
 14 26  1  0  0  0  0
 15 60  2  0  0  0  0
 15 63  1  0  0  0  0
 16 27  1  0  0  0  0
 17 27  1  0  0  0  0
 17 28  2  0  0  0  0
 17 30  1  0  0  0  0
 18 20  2  0  0  0  0
 18 35  1  0  0  0  0
 19 21  2  0  0  0  0
 19 36  1  0  0  0  0
 20 44  1  0  0  0  0
 21 37  1  0  0  0  0
 22 78  1  0  0  0  0
 23 79  1  0  0  0  0
 24 26  2  0  0  0  0
 24 78  1  0  0  0  0
 25 80  1  0  0  0  0
 26 81  1  0  0  0  0
 27 61  2  0  0  0  0
 28 64  1  0  0  0  0
 28 67  1  0  0  0  0
 29 52  1  0  0  0  0
 29 60  1  0  0  0  0
 29 62  2  0  0  0  0
 30 68  1  0  0  0  0
 30 73  2  0  0  0  0
 31 45  1  0  0  0  0
 31 69  1  0  0  0  0
 31 74  2  0  0  0  0
 32 57  1  0  0  0  0
 32 65  1  0  0  0  0
 32 75  2  0  0  0  0
 33 58  1  0  0  0  0
 33 70  1  0  0  0  0
 33 76  2  0  0  0  0
 34 66  1  0  0  0  0
 34 71  1  0  0  0  0
 34 77  2  0  0  0  0
 35 38  1  0  0  0  0
 36 45  1  0  0  0  0
 37 65  1  0  0  0  0
 38 40  1  0  0  0  0
 39 41  1  0  0  0  0
 39 42  1  0  0  0  0
 40 44  1  0  0  0  0
 41 46  1  0  0  0  0
 42 66  1  0  0  0  0
 43 46  1  0  0  0  0
 43 66  1  0  0  0  0
 44 69  1  0  0  0  0
 45 65  1  0  0  0  0
 46 64  1  0  0  0  0
 47 58  1  0  0  0  0
 48 59  1  0  0  0  0
 49 59  1  0  0  0  0
 50 59  1  0  0  0  0
 51 72  1  0  0  0  0
 52 55  1  0  0  0  0
 53 54  1  0  0  0  0
 53 56  1  0  0  0  0
 54 63  1  0  0  0  0
 55 71  1  0  0  0  0
 56 79  1  0  0  0  0
 57 59  1  0  0  0  0
 57 70  1  0  0  0  0
 58 72  1  0  0  0  0
 61 64  1  0  0  0  0
 62 63  1  0  0  0  0
M  CHG  1  72   1
M  ISO  4  34 100  56 101  71 100  79 101
M  END
> <Batch ID>
0060

> <Smiles>
CNC(C)C(=O)NC(C(=O)N1Cc2cc([101O:1][101CH2:1]CCn3cnc(CC[100NH:0][100C:0](=O)N4CCCC(n5nc(-c6ccc(Oc7ccc(F)cc7F)cc6)c(C(N)=O)c5N)C4)n3)ccc2CC1C(=O)NC1CCCc2ccccc21)C(C)(C)C

> <Shape>
0.223

> <Color>
0.060

> <Negative vol penalty>
0.000

$$$$

  -OEChem-04052317553D

 84 92  0     1  0  0  0  0  0999 V2000
  -29.7183  -24.1350   18.2926 C   0  0  0  0  0  0  0  0  0  0  0  0
  -28.4292  -24.2984   18.7894 C   0  0  0  0  0  0  0  0  0  0  0  0
  -27.0432  -15.2166   21.7024 C   0  0  0  0  0  0  0  0  0  0  0  0
  -26.3685  -15.2576   19.3829 C   0  0  0  0  0  0  0  0  0  0  0  0
  -30.7846  -24.8057   18.8901 C   0  0  0  0  0  0  0  0  0  0  0  0
  -28.2058  -25.1319   19.8849 C   0  0  0  0  0  0  0  0  0  0  0  0
  -24.1870  -28.1459   19.2451 C   0  0  0  0  0  0  0  0  0  0  0  0
  -26.6468  -13.8825   21.7941 C   0  0  0  0  0  0  0  0  0  0  0  0
  -25.9722  -13.9233   19.4746 C   0  0  0  0  0  0  0  0  0  0  0  0
  -22.9280  -27.5765   19.4308 C   0  0  0  0  0  0  0  0  0  0  0  0
  -27.4456  -10.8821   19.4566 C   0  0  0  0  0  0  0  0  0  0  0  0
  -27.8202  -10.0238   18.4229 C   0  0  0  0  0  0  0  0  0  0  0  0
  -22.8285  -28.5325   21.6434 C   0  0  0  0  0  0  0  0  0  0  0  0
  -25.4937   -9.5629   17.9624 C   0  0  0  0  0  0  0  0  0  0  0  0
  -26.9040  -15.9042   20.4967 C   0  0  0  0  0  0  0  0  0  0  0  0
  -28.5833  -17.7695   20.0403 C   0  0  0  0  0  0  0  0  0  0  0  0
  -30.5729  -25.6553   19.9874 C   0  0  0  0  0  0  0  0  0  0  0  0
  -24.7819  -28.9052   20.2630 C   0  0  0  0  0  0  0  0  0  0  0  0
  -29.2705  -25.8135   20.4985 C   0  0  0  0  0  0  0  0  0  0  0  0
  -24.0940  -29.1126   21.4672 C   0  0  0  0  0  0  0  0  0  0  0  0
  -26.1113  -13.2358   20.6803 C   0  0  0  0  0  0  0  0  0  0  0  0
  -22.2498  -27.7673   20.6311 C   0  0  0  0  0  0  0  0  0  0  0  0
  -26.0950  -11.0808   19.7433 C   0  0  0  0  0  0  0  0  0  0  0  0
  -26.8442   -9.3642   17.6758 C   0  0  0  0  0  0  0  0  0  0  0  0
  -25.1191  -10.4212   18.9962 C   0  0  0  0  0  0  0  0  0  0  0  0
  -27.3127  -17.2826   20.4015 C   0  0  0  0  0  0  0  0  0  0  0  0
  -20.6781  -22.8732   20.0747 C   0  0  0  0  0  0  0  0  0  0  0  0
  -19.9345  -24.0212   20.2152 C   0  0  0  0  0  0  0  0  0  0  0  0
  -28.4571  -19.1359   20.1003 C   0  0  0  0  0  0  0  0  0  0  0  0
  -21.1062  -23.5925   22.0318 C   0  0  0  0  0  0  0  0  0  0  0  0
  -29.7713  -17.0510   19.6825 C   0  0  0  0  0  0  0  0  0  0  0  0
  -27.4283  -28.6408   22.0037 C   0  0  0  0  0  0  0  0  0  0  0  0
  -26.5393  -31.5649   23.0906 C   0  0  0  0  0  0  0  0  0  0  0  0
  -24.0335  -33.8210   23.6179 C   0  0  0  0  0  0  0  0  0  0  0  0
  -23.9381  -22.8753   19.5786 C   0  0  0  0  0  0  0  0  0  0  0  0
  -31.7635  -26.3221   20.6296 C   0  0  0  0  0  0  0  0  0  0  0  0
  -26.1290  -29.5350   20.0370 C   0  0  0  0  0  0  0  0  0  0  0  0
  -24.6803  -29.9363   22.5836 C   0  0  0  0  0  0  0  0  0  0  0  0
  -31.3893  -27.4794   21.5520 C   0  0  0  0  0  0  0  0  0  0  0  0
  -26.0255  -22.5872   22.3328 C   0  0  0  0  0  0  0  0  0  0  0  0
  -30.2423  -27.0779   22.4740 C   0  0  0  0  0  0  0  0  0  0  0  0
  -26.7204  -21.2417   22.1282 C   0  0  0  0  0  0  0  0  0  0  0  0
  -24.5535  -22.5039   21.9471 C   0  0  0  0  0  0  0  0  0  0  0  0
  -25.0145  -20.6986   20.3194 C   0  0  0  0  0  0  0  0  0  0  0  0
  -28.9844  -26.7283   21.6696 C   0  0  1  0  0  0  0  0  0  0  0  0
  -26.8615  -29.8610   21.3349 C   0  0  1  0  0  0  0  0  0  0  0  0
  -26.5106  -20.7256   20.6938 C   0  0  2  0  0  0  0  0  0  0  0  0
  -19.0093  -24.7118   19.2989 C   0  0  0  0  0  0  0  0  0  0  0  0
  -21.6386  -23.7722   23.3983 C   0  0  0  0  0  0  0  0  0  0  0  0
  -24.3619  -22.3517   16.3665 C   0  0  0  0  0  0  0  0  0  0  0  0
  -23.6081  -36.1087   24.5575 C   0  0  0  0  0  0  0  0  0  0  0  0
  -26.7521  -30.4401   25.9189 C   0  0  0  0  0  0  0  0  0  0  0  0
  -25.4325  -32.4087   26.7262 C   0  0  0  0  0  0  0  0  0  0  0  0
  -27.6544  -32.7566   25.6469 C   0  0  0  0  0  0  0  0  0  0  0  0
  -23.0647  -34.8377   21.0127 C   0  0  0  0  0  0  0  0  0  0  0  0
  -20.7590  -21.9718   18.9145 C   0  0  0  0  0  0  0  0  0  0  0  0
  -19.6577  -25.7106   22.1262 C   0  0  0  0  0  0  0  0  0  0  0  0
  -23.2468  -22.9318   17.2129 C   0  0  0  0  0  0  0  0  0  0  0  0
  -22.1404  -21.3174   18.7150 C   0  0  0  0  0  0  0  0  0  0  0  0
  -20.6618  -26.8579   22.1501 C   0  0  0  0  0  0  0  0  0  1  0  0
  -25.6802  -32.0679   24.2255 C   0  0  1  0  0  0  0  0  0  0  0  0
  -23.9315  -35.3037   23.3085 C   0  0  2  0  0  0  0  0  0  0  0  0
  -26.3693  -31.9011   25.6093 C   0  0  0  0  0  0  0  0  0  0  0  0
  -26.4434  -18.2602   20.6711 N   0  0  0  0  0  0  0  0  0  0  0  0
  -21.4050  -22.6117   21.2091 N   0  0  0  0  0  0  0  0  0  0  0  0
  -20.2187  -24.4703   21.4740 N   0  0  0  0  0  0  0  0  0  0  0  0
  -27.1689  -19.3750   20.4793 N   0  0  0  0  0  0  0  0  0  0  0  0
  -26.0026  -30.5260   22.3169 N   0  0  0  0  0  0  0  0  0  0  0  0
  -24.3913  -22.0052   20.5812 N   0  0  0  0  0  0  0  0  0  0  0  0
  -29.3235  -20.1441   19.8653 N   0  0  0  0  0  0  0  0  0  0  0  0
  -29.7270  -15.6502   19.6715 N   0  0  0  0  0  0  0  0  0  0  0  0
  -28.3204  -27.9333   21.2207 N   0  0  0  0  0  0  0  0  0  0  0  0
  -25.3311  -33.4450   23.8939 N   0  0  0  0  0  0  0  0  0  0  0  0
  -23.1936  -22.3140   18.5302 N   0  0  0  0  0  0  0  0  0  0  0  0
  -22.8617  -35.5501   22.3005 N   0  3  0  0  0  0  0  0  0  0  0  0
  -30.8450  -17.6336   19.3975 O   0  0  0  0  0  0  0  0  0  0  0  0
  -27.0831  -28.3626   23.1461 O   0  0  0  0  0  0  0  0  0  0  0  0
  -27.6427  -32.0798   22.8932 O   0  0  0  0  0  0  0  0  0  0  0  0
  -23.0590  -33.0721   23.6185 O   0  0  0  0  0  0  0  0  0  0  0  0
  -24.1782  -24.0889   19.6206 O   0  0  0  0  0  0  0  0  0  0  0  0
  -25.7247  -11.9338   20.7694 O   0  0  0  0  0  0  0  0  0  0  0  0
  -21.0211  -27.2120   20.8152 O   0  0  0  0  0  0  0  0  0  1  0  0
  -27.2041   -8.5412   16.6821 F   0  0  0  0  0  0  0  0  0  0  0  0
  -23.8200  -10.6090   19.2662 F   0  0  0  0  0  0  0  0  0  0  0  0
  1  2  1  0  0  0  0
  1  5  2  0  0  0  0
  2  6  2  0  0  0  0
  3  8  2  0  0  0  0
  3 15  1  0  0  0  0
  4  9  1  0  0  0  0
  4 15  2  0  0  0  0
  5 17  1  0  0  0  0
  6 19  1  0  0  0  0
  7 10  2  0  0  0  0
  7 18  1  0  0  0  0
  8 21  1  0  0  0  0
  9 21  2  0  0  0  0
 10 22  1  0  0  0  0
 11 12  2  0  0  0  0
 11 23  1  0  0  0  0
 12 24  1  0  0  0  0
 13 20  1  0  0  0  0
 13 22  2  0  0  0  0
 14 24  2  0  0  0  0
 14 25  1  0  0  0  0
 15 26  1  0  0  0  0
 16 26  1  0  0  0  0
 16 29  2  0  0  0  0
 16 31  1  0  0  0  0
 17 19  2  0  0  0  0
 17 36  1  0  0  0  0
 18 20  2  0  0  0  0
 18 37  1  0  0  0  0
 19 45  1  0  0  0  0
 20 38  1  0  0  0  0
 21 81  1  0  0  0  0
 22 82  1  0  0  0  0
 23 25  2  0  0  0  0
 23 81  1  0  0  0  0
 24 83  1  0  0  0  0
 25 84  1  0  0  0  0
 26 64  2  0  0  0  0
 27 28  2  0  0  0  0
 27 56  1  0  0  0  0
 27 65  1  0  0  0  0
 28 48  1  0  0  0  0
 28 66  1  0  0  0  0
 29 67  1  0  0  0  0
 29 70  1  0  0  0  0
 30 49  1  0  0  0  0
 30 65  2  0  0  0  0
 30 66  1  0  0  0  0
 31 71  1  0  0  0  0
 31 76  2  0  0  0  0
 32 46  1  0  0  0  0
 32 72  1  0  0  0  0
 32 77  2  0  0  0  0
 33 61  1  0  0  0  0
 33 68  1  0  0  0  0
 33 78  2  0  0  0  0
 34 62  1  0  0  0  0
 34 73  1  0  0  0  0
 34 79  2  0  0  0  0
 35 69  1  0  0  0  0
 35 74  1  0  0  0  0
 35 80  2  0  0  0  0
 36 39  1  0  0  0  0
 37 46  1  0  0  0  0
 38 68  1  0  0  0  0
 39 41  1  0  0  0  0
 40 42  1  0  0  0  0
 40 43  1  0  0  0  0
 41 45  1  0  0  0  0
 42 47  1  0  0  0  0
 43 69  1  0  0  0  0
 44 47  1  0  0  0  0
 44 69  1  0  0  0  0
 45 72  1  0  0  0  0
 46 68  1  0  0  0  0
 47 67  1  0  0  0  0
 50 58  1  0  0  0  0
 51 62  1  0  0  0  0
 52 63  1  0  0  0  0
 53 63  1  0  0  0  0
 54 63  1  0  0  0  0
 55 75  1  0  0  0  0
 56 59  1  0  0  0  0
 57 60  1  0  0  0  0
 57 66  1  0  0  0  0
 58 74  1  0  0  0  0
 59 74  1  0  0  0  0
 60 82  1  0  0  0  0
 61 63  1  0  0  0  0
 61 73  1  0  0  0  0
 62 75  1  0  0  0  0
 64 67  1  0  0  0  0
M  CHG  1  75   1
M  ISO  4  35 100  60 101  74 100  82 101
M  END
> <Batch ID>
0060

> <Smiles>
CC[100N:0](CCc1nc(C)n(C[101CH2:1][101O:1]c2ccc3c(c2)CN(C(=O)C(NC(=O)C(C)NC)C(C)(C)C)C(C(=O)NC2CCCc4ccccc42)C3)c1C)[100C:0](=O)N1CCCC(n2nc(-c3ccc(Oc4ccc(F)cc4F)cc3)c(C(N)=O)c2N)C1

> <Shape>
0.261

> <Color>
0.088

> <Negative vol penalty>
0.000

$$$$

  -OEChem-04052317553D

 82 90  0     1  0  0  0  0  0999 V2000
  -17.6371  -25.8596   20.3507 C   0  0  0  0  0  0  0  0  0  0  0  0
  -18.8828  -26.0555   19.7632 C   0  0  0  0  0  0  0  0  0  0  0  0
  -26.5499  -12.6008   20.7156 C   0  0  0  0  0  0  0  0  0  0  0  0
  -24.6392  -13.8469   19.9197 C   0  0  0  0  0  0  0  0  0  0  0  0
  -17.3450  -26.4539   21.5776 C   0  0  0  0  0  0  0  0  0  0  0  0
  -19.8370  -26.8468   20.4019 C   0  0  0  0  0  0  0  0  0  0  0  0
  -24.4455  -24.7481   20.3586 C   0  0  0  0  0  0  0  0  0  0  0  0
  -25.6964  -11.6862   21.3327 C   0  0  0  0  0  0  0  0  0  0  0  0
  -23.7857  -12.9323   20.5367 C   0  0  0  0  0  0  0  0  0  0  0  0
  -25.1749  -24.8377   19.1738 C   0  0  0  0  0  0  0  0  0  0  0  0
  -23.7906   -9.0477   20.4166 C   0  0  0  0  0  0  0  0  0  0  0  0
  -24.0728   -7.6906   20.2609 C   0  0  0  0  0  0  0  0  0  0  0  0
  -26.4285  -26.6827   20.0922 C   0  0  0  0  0  0  0  0  0  0  0  0
  -24.2981   -7.4626   22.6555 C   0  0  0  0  0  0  0  0  0  0  0  0
  -31.5801  -23.1857   19.3093 C   0  0  0  0  0  0  0  0  0  0  0  0
  -26.0213  -13.6812   20.0092 C   0  0  0  0  0  0  0  0  0  0  0  0
  -27.4091  -14.5658   18.0601 C   0  0  0  0  0  0  0  0  0  0  0  0
  -18.2995  -27.2450   22.2363 C   0  0  0  0  0  0  0  0  0  0  0  0
  -24.6952  -25.6337   21.4168 C   0  0  0  0  0  0  0  0  0  0  0  0
  -19.5570  -27.4533   21.6382 C   0  0  0  0  0  0  0  0  0  0  0  0
  -25.7027  -26.6006   21.2903 C   0  0  0  0  0  0  0  0  0  0  0  0
  -24.3143  -11.8519   21.2432 C   0  0  0  0  0  0  0  0  0  0  0  0
  -26.1646  -25.8070   19.0393 C   0  0  0  0  0  0  0  0  0  0  0  0
  -23.7622   -9.6123   21.6919 C   0  0  0  0  0  0  0  0  0  0  0  0
  -24.3265   -6.8980   21.3803 C   0  0  0  0  0  0  0  0  0  0  0  0
  -24.0159   -8.8197   22.8113 C   0  0  0  0  0  0  0  0  0  0  0  0
  -26.9024  -14.6266   19.3721 C   0  0  0  0  0  0  0  0  0  0  0  0
  -28.1902  -15.6892   17.9413 C   0  0  0  0  0  0  0  0  0  0  0  0
  -29.7258  -23.6649   18.1395 C   0  0  0  0  0  0  0  0  0  0  0  0
  -29.5609  -22.6878   20.1532 C   0  0  0  0  0  0  0  0  0  0  0  0
  -27.1929  -13.5818   17.0399 C   0  0  0  0  0  0  0  0  0  0  0  0
  -22.9910  -27.8379   22.9467 C   0  0  0  0  0  0  0  0  0  0  0  0
  -27.9716  -20.9009   20.7813 C   0  0  0  0  0  0  0  0  0  0  0  0
  -25.6081  -27.9746   24.8585 C   0  0  0  0  0  0  0  0  0  0  0  0
  -28.9609  -27.4518   25.2219 C   0  0  0  0  0  0  0  0  0  0  0  0
  -17.9212  -27.9054   23.5384 C   0  0  0  0  0  0  0  0  0  0  0  0
  -23.9180  -25.5066   22.6983 C   0  0  0  0  0  0  0  0  0  0  0  0
  -26.0235  -27.5621   22.4043 C   0  0  0  0  0  0  0  0  0  0  0  0
  -19.1197  -28.4234   24.3294 C   0  0  0  0  0  0  0  0  0  0  0  0
  -30.8539  -18.6979   20.5252 C   0  0  0  0  0  0  0  0  0  0  0  0
  -20.0704  -29.1912   23.4164 C   0  0  0  0  0  0  0  0  0  0  0  0
  -30.1976  -17.3835   20.1047 C   0  0  0  0  0  0  0  0  0  0  0  0
  -29.9652  -19.4880   21.4822 C   0  0  0  0  0  0  0  0  0  0  0  0
  -27.9357  -18.4398   20.5298 C   0  0  0  0  0  0  0  0  0  0  0  0
  -20.6270  -28.2846   22.3120 C   0  0  1  0  0  0  0  0  0  0  0  0
  -23.9055  -26.7923   23.5195 C   0  0  1  0  0  0  0  0  0  0  0  0
  -28.7870  -17.6268   19.5403 C   0  0  2  0  0  0  0  0  0  0  0  0
  -31.1823  -27.3035   26.3798 C   0  0  0  0  0  0  0  0  0  0  0  0
  -25.6602  -30.9844   24.3605 C   0  0  0  0  0  0  0  0  0  0  0  0
  -28.0092  -31.0166   25.2264 C   0  0  0  0  0  0  0  0  0  0  0  0
  -26.1407  -30.3089   26.7200 C   0  0  0  0  0  0  0  0  0  0  0  0
  -28.4956  -24.6358   26.0044 C   0  0  0  0  0  0  0  0  0  0  0  0
  -29.0702  -24.2275   16.9037 C   0  0  0  0  0  0  0  0  0  0  0  0
  -29.0439  -25.7570   16.8623 C   0  0  0  0  0  0  0  0  0  0  0  0
  -27.7058  -23.1052   21.8574 C   0  0  0  0  0  0  0  0  0  0  0  0
  -28.2176  -26.3772   17.9830 C   0  0  0  0  0  0  0  0  0  1  0  0
  -28.7231  -22.1218   21.2488 C   0  0  2  0  0  0  0  0  0  0  0  0
  -26.8910  -28.7703   24.8594 C   0  0  1  0  0  0  0  0  0  0  0  0
  -29.7609  -26.7668   26.3152 C   0  0  2  0  0  0  0  0  0  0  0  0
  -26.6682  -30.2533   25.2696 C   0  0  0  0  0  0  0  0  0  0  0  0
  -31.0672  -23.7052   18.1822 N   0  0  0  0  0  0  0  0  0  0  0  0
  -30.8910  -22.6605   20.3353 N   0  0  0  0  0  0  0  0  0  0  0  0
  -27.3262  -15.7034   20.0391 N   0  0  0  0  0  0  0  0  0  0  0  0
  -28.9086  -23.1728   19.0844 N   0  0  0  0  0  0  0  0  0  0  0  0
  -28.1075  -16.3295   19.1427 N   0  0  0  0  0  0  0  0  0  0  0  0
  -25.2318  -27.4020   23.6352 N   0  0  0  0  0  0  0  0  0  0  0  0
  -28.6223  -19.6747   20.9197 N   0  0  0  0  0  0  0  0  0  0  0  0
  -28.9330  -16.1820   16.9274 N   0  0  0  0  0  0  0  0  0  0  0  0
  -26.3618  -12.4909   17.3292 N   0  0  0  0  0  0  0  0  0  0  0  0
  -21.6741  -27.4341   22.8361 N   0  0  0  0  0  0  0  0  0  0  0  0
  -27.8202  -28.0455   25.7194 N   0  0  0  0  0  0  0  0  0  0  0  0
  -28.4173  -24.2856   22.4096 N   0  3  0  0  0  0  0  0  0  0  0  0
  -29.8237  -25.2984   26.0684 N   0  3  0  0  0  0  0  0  0  0  0  0
  -27.7341  -13.6588   15.9109 O   0  0  0  0  0  0  0  0  0  0  0  0
  -23.4462  -28.9307   22.6301 O   0  0  0  0  0  0  0  0  0  0  0  0
  -26.8414  -21.0354   20.3052 O   0  0  0  0  0  0  0  0  0  0  0  0
  -24.9673  -27.8591   25.9062 O   0  0  0  0  0  0  0  0  0  0  0  0
  -29.3146  -27.4626   24.0449 O   0  0  0  0  0  0  0  0  0  0  0  0
  -23.4812  -10.9596   21.8449 O   0  0  0  0  0  0  0  0  0  0  0  0
  -26.8775  -25.8971   17.8837 O   0  0  0  0  0  0  0  0  0  1  0  0
  -24.5959   -5.5945   21.2306 F   0  0  0  0  0  0  0  0  0  0  0  0
  -23.9889   -9.3562   24.0390 F   0  0  0  0  0  0  0  0  0  0  0  0
  1  2  1  0  0  0  0
  1  5  2  0  0  0  0
  2  6  2  0  0  0  0
  3  8  2  0  0  0  0
  3 16  1  0  0  0  0
  4  9  1  0  0  0  0
  4 16  2  0  0  0  0
  5 18  1  0  0  0  0
  6 20  1  0  0  0  0
  7 10  2  0  0  0  0
  7 19  1  0  0  0  0
  8 22  1  0  0  0  0
  9 22  2  0  0  0  0
 10 23  1  0  0  0  0
 11 12  2  0  0  0  0
 11 24  1  0  0  0  0
 12 25  1  0  0  0  0
 13 21  1  0  0  0  0
 13 23  2  0  0  0  0
 14 25  2  0  0  0  0
 14 26  1  0  0  0  0
 15 61  2  0  0  0  0
 15 62  1  0  0  0  0
 16 27  1  0  0  0  0
 17 27  1  0  0  0  0
 17 28  2  0  0  0  0
 17 31  1  0  0  0  0
 18 20  2  0  0  0  0
 18 36  1  0  0  0  0
 19 21  2  0  0  0  0
 19 37  1  0  0  0  0
 20 45  1  0  0  0  0
 21 38  1  0  0  0  0
 22 79  1  0  0  0  0
 23 80  1  0  0  0  0
 24 26  2  0  0  0  0
 24 79  1  0  0  0  0
 25 81  1  0  0  0  0
 26 82  1  0  0  0  0
 27 63  2  0  0  0  0
 28 65  1  0  0  0  0
 28 68  1  0  0  0  0
 29 53  1  0  0  0  0
 29 61  1  0  0  0  0
 29 64  2  0  0  0  0
 30 57  1  0  0  0  0
 30 62  2  0  0  0  0
 30 64  1  0  0  0  0
 31 69  1  0  0  0  0
 31 74  2  0  0  0  0
 32 46  1  0  0  0  0
 32 70  1  0  0  0  0
 32 75  2  0  0  0  0
 33 57  1  0  0  0  0
 33 67  1  0  0  0  0
 33 76  2  0  0  0  0
 34 58  1  0  0  0  0
 34 66  1  0  0  0  0
 34 77  2  0  0  0  0
 35 59  1  0  0  0  0
 35 71  1  0  0  0  0
 35 78  2  0  0  0  0
 36 39  1  0  0  0  0
 37 46  1  0  0  0  0
 38 66  1  0  0  0  0
 39 41  1  0  0  0  0
 40 42  1  0  0  0  0
 40 43  1  0  0  0  0
 41 45  1  0  0  0  0
 42 47  1  0  0  0  0
 43 67  1  0  0  0  0
 44 47  1  0  0  0  0
 44 67  1  0  0  0  0
 45 70  1  0  0  0  0
 46 66  1  0  0  0  0
 47 65  1  0  0  0  0
 48 59  1  0  0  0  0
 49 60  1  0  0  0  0
 50 60  1  0  0  0  0
 51 60  1  0  0  0  0
 52 73  1  0  0  0  0
 53 54  1  0  0  0  0
 54 56  1  0  0  0  0
 55 57  1  0  0  0  0
 55 72  1  0  0  0  0
 56 80  1  0  0  0  0
 58 60  1  0  0  0  0
 58 71  1  0  0  0  0
 59 73  1  0  0  0  0
 63 65  1  0  0  0  0
M  CHG  2  72   1  73   1
M  ISO  4  33 100  56 101  57 100  80 101
M  END
> <Batch ID>
0060

> <Smiles>
CNC(C)C(=O)NC(C(=O)N1Cc2cc([101O:1][101CH2:1]CCc3ncnc([100CH:0](CN)[100C:0](=O)N4CCCC(n5nc(-c6ccc(Oc7ccc(F)cc7F)cc6)c(C(N)=O)c5N)C4)n3)ccc2CC1C(=O)NC1CCCc2ccccc21)C(C)(C)C

> <Shape>
0.270

> <Color>
0.075

> <Negative vol penalty>
0.000

$$$$

  -OEChem-04052317553D

 84 92  0     1  0  0  0  0  0999 V2000
  -24.0453  -23.5162   17.0697 C   0  0  0  0  0  0  0  0  0  0  0  0
  -25.0757  -22.8167   17.6895 C   0  0  0  0  0  0  0  0  0  0  0  0
  -25.5977  -27.7557   19.7549 C   0  0  0  0  0  0  0  0  0  0  0  0
  -26.9043  -28.7128   21.5476 C   0  0  0  0  0  0  0  0  0  0  0  0
  -22.7182  -23.2018   17.3591 C   0  0  0  0  0  0  0  0  0  0  0  0
  -24.7796  -21.8030   18.6002 C   0  0  0  0  0  0  0  0  0  0  0  0
  -27.5978  -17.6581   17.8776 C   0  0  0  0  0  0  0  0  0  0  0  0
  -24.5927  -28.6949   19.9858 C   0  0  0  0  0  0  0  0  0  0  0  0
  -25.8993  -29.6521   21.7785 C   0  0  0  0  0  0  0  0  0  0  0  0
  -28.9091  -17.6894   18.3500 C   0  0  0  0  0  0  0  0  0  0  0  0
  -22.0670  -29.1500   22.1854 C   0  0  0  0  0  0  0  0  0  0  0  0
  -20.7490  -28.6943   22.2128 C   0  0  0  0  0  0  0  0  0  0  0  0
  -28.2309  -16.4386   20.2980 C   0  0  0  0  0  0  0  0  0  0  0  0
  -20.2050  -30.1570   20.3684 C   0  0  0  0  0  0  0  0  0  0  0  0
  -26.7535  -27.7645   20.5358 C   0  0  0  0  0  0  0  0  0  0  0  0
  -28.8916  -26.9216   19.4288 C   0  0  0  0  0  0  0  0  0  0  0  0
  -22.4056  -22.1773   18.2665 C   0  0  0  0  0  0  0  0  0  0  0  0
  -26.5893  -17.0251   18.6184 C   0  0  0  0  0  0  0  0  0  0  0  0
  -23.4470  -21.4756   18.9031 C   0  0  0  0  0  0  0  0  0  0  0  0
  -26.9081  -16.3984   19.8316 C   0  0  0  0  0  0  0  0  0  0  0  0
  -24.7435  -29.6432   20.9976 C   0  0  0  0  0  0  0  0  0  0  0  0
  -29.2253  -17.0821   19.5617 C   0  0  0  0  0  0  0  0  0  0  0  0
  -22.4540  -30.1092   21.2495 C   0  0  0  0  0  0  0  0  0  0  0  0
  -19.8180  -29.1978   21.3043 C   0  0  0  0  0  0  0  0  0  0  0  0
  -21.5230  -30.6127   20.3410 C   0  0  0  0  0  0  0  0  0  0  0  0
  -27.7917  -26.7942   20.2981 C   0  0  0  0  0  0  0  0  0  0  0  0
  -29.5750  -25.7379   19.5638 C   0  0  0  0  0  0  0  0  0  0  0  0
  -33.1231  -21.3951   24.4841 C   0  0  0  0  0  0  0  0  0  0  0  0
  -29.2624  -28.0126   18.5755 C   0  0  0  0  0  0  0  0  0  0  0  0
  -23.8892  -17.9752   20.0007 C   0  0  0  0  0  0  0  0  0  0  0  0
  -23.5071  -14.8001   20.5438 C   0  0  0  0  0  0  0  0  0  0  0  0
  -24.9499  -11.7289   20.9081 C   0  0  0  0  0  0  0  0  0  0  0  0
  -29.9046  -21.7001   23.9727 C   0  0  0  0  0  0  0  0  0  0  0  0
  -20.9563  -21.9053   18.5832 C   0  0  0  0  0  0  0  0  0  0  0  0
  -25.1849  -16.9769   18.0821 C   0  0  0  0  0  0  0  0  0  0  0  0
  -25.8660  -15.6881   20.6551 C   0  0  0  0  0  0  0  0  0  0  0  0
  -20.7256  -20.5655   19.2773 C   0  0  0  0  0  0  0  0  0  0  0  0
  -28.8936  -21.1190   20.6087 C   0  0  0  0  0  0  0  0  0  0  0  0
  -21.7281  -20.3718   20.4106 C   0  0  0  0  0  0  0  0  0  0  0  0
  -28.5958  -22.5191   20.0692 C   0  0  0  0  0  0  0  0  0  0  0  0
  -28.4860  -20.9802   22.0738 C   0  0  0  0  0  0  0  0  0  0  0  0
  -28.7530  -23.4036   22.4338 C   0  0  0  0  0  0  0  0  0  0  0  0
  -23.1659  -20.3527   19.8779 C   0  0  1  0  0  0  0  0  0  0  0  0
  -24.1380  -16.7493   19.1683 C   0  0  1  0  0  0  0  0  0  0  0  0
  -29.1982  -23.6092   20.9758 C   0  0  2  0  0  0  0  0  0  0  0  0
  -24.3843   -9.3305   21.3829 C   0  0  0  0  0  0  0  0  0  0  0  0
  -33.2208  -23.9413   24.9358 C   0  0  0  0  0  0  0  0  0  0  0  0
  -33.6212  -22.3141   26.7655 C   0  0  0  0  0  0  0  0  0  0  0  0
  -23.1134  -15.4792   23.4923 C   0  0  0  0  0  0  0  0  0  0  0  0
  -23.5042  -13.0651   24.0287 C   0  0  0  0  0  0  0  0  0  0  0  0
  -21.5626  -13.7271   22.6093 C   0  0  0  0  0  0  0  0  0  0  0  0
  -26.0301  -10.8370   18.3010 C   0  0  0  0  0  0  0  0  0  0  0  0
  -33.2085  -19.6982   20.4360 C   0  0  0  0  0  0  0  0  0  0  0  0
  -32.3282  -18.4894   20.7574 C   0  0  0  0  0  0  0  0  0  0  0  0
  -34.2789  -19.9612   21.5013 C   0  0  0  0  0  0  0  0  0  0  0  0
  -31.3059  -22.5754   25.8245 C   0  0  0  0  0  0  0  0  0  0  0  0
  -31.3012  -18.2383   19.6615 C   0  0  0  0  0  0  0  0  0  1  0  0
  -23.8985  -13.8499   21.6497 C   0  0  1  0  0  0  0  0  0  0  0  0
  -24.6101  -10.3783   20.3040 C   0  0  2  0  0  0  0  0  0  0  0  0
  -32.8311  -22.4873   25.4161 C   0  0  0  0  0  0  0  0  0  0  0  0
  -23.0392  -14.0453   22.9307 C   0  0  0  0  0  0  0  0  0  0  0  0
  -27.7734  -25.6219   20.9380 N   0  0  0  0  0  0  0  0  0  0  0  0
  -32.8442  -20.0892   24.7583 N   0  0  0  0  0  0  0  0  0  0  0  0
  -33.6777  -21.5940   23.2857 N   0  0  0  0  0  0  0  0  0  0  0  0
  -33.2333  -19.4007   23.6924 N   0  0  0  0  0  0  0  0  0  0  0  0
  -28.8702  -25.0019   20.4703 N   0  0  0  0  0  0  0  0  0  0  0  0
  -33.7174  -20.3261   22.8525 N   0  0  0  0  0  0  0  0  0  0  0  0
  -24.5060  -15.6738   20.0914 N   0  0  0  0  0  0  0  0  0  0  0  0
  -29.0919  -22.0430   22.8796 N   0  0  0  0  0  0  0  0  0  0  0  0
  -30.7040  -25.2652   18.9943 N   0  0  0  0  0  0  0  0  0  0  0  0
  -28.4488  -29.1537   18.5582 N   0  0  0  0  0  0  0  0  0  0  0  0
  -23.4645  -19.0715   19.2747 N   0  0  0  0  0  0  0  0  0  0  0  0
  -23.8259  -12.5087   21.0803 N   0  0  0  0  0  0  0  0  0  0  0  0
  -30.4446  -22.7678   24.6791 N   0  0  0  0  0  0  0  0  0  0  0  0
  -25.7166   -9.9127   19.4210 N   0  3  0  0  0  0  0  0  0  0  0  0
  -30.2759  -27.9699   17.8376 O   0  0  0  0  0  0  0  0  0  0  0  0
  -24.0679  -17.9294   21.2122 O   0  0  0  0  0  0  0  0  0  0  0  0
  -22.3595  -14.7634   20.0929 O   0  0  0  0  0  0  0  0  0  0  0  0
  -26.0972  -12.0576   21.2016 O   0  0  0  0  0  0  0  0  0  0  0  0
  -30.1364  -20.5291   24.2920 O   0  0  0  0  0  0  0  0  0  0  0  0
  -23.7631  -30.5600   21.2231 O   0  0  0  0  0  0  0  0  0  0  0  0
  -30.5044  -17.1118   20.0254 O   0  0  0  0  0  0  0  0  0  1  0  0
  -18.5527  -28.7590   21.3297 F   0  0  0  0  0  0  0  0  0  0  0  0
  -21.8892  -31.5335   19.4388 F   0  0  0  0  0  0  0  0  0  0  0  0
  1  2  1  0  0  0  0
  1  5  2  0  0  0  0
  2  6  2  0  0  0  0
  3  8  2  0  0  0  0
  3 15  1  0  0  0  0
  4  9  1  0  0  0  0
  4 15  2  0  0  0  0
  5 17  1  0  0  0  0
  6 19  1  0  0  0  0
  7 10  2  0  0  0  0
  7 18  1  0  0  0  0
  8 21  1  0  0  0  0
  9 21  2  0  0  0  0
 10 22  1  0  0  0  0
 11 12  2  0  0  0  0
 11 23  1  0  0  0  0
 12 24  1  0  0  0  0
 13 20  1  0  0  0  0
 13 22  2  0  0  0  0
 14 24  2  0  0  0  0
 14 25  1  0  0  0  0
 15 26  1  0  0  0  0
 16 26  1  0  0  0  0
 16 27  2  0  0  0  0
 16 29  1  0  0  0  0
 17 19  2  0  0  0  0
 17 34  1  0  0  0  0
 18 20  2  0  0  0  0
 18 35  1  0  0  0  0
 19 43  1  0  0  0  0
 20 36  1  0  0  0  0
 21 81  1  0  0  0  0
 22 82  1  0  0  0  0
 23 25  2  0  0  0  0
 23 81  1  0  0  0  0
 24 83  1  0  0  0  0
 25 84  1  0  0  0  0
 26 62  2  0  0  0  0
 27 66  1  0  0  0  0
 27 70  1  0  0  0  0
 28 60  1  0  0  0  0
 28 63  1  0  0  0  0
 28 64  2  0  0  0  0
 29 71  1  0  0  0  0
 29 76  2  0  0  0  0
 30 44  1  0  0  0  0
 30 72  1  0  0  0  0
 30 77  2  0  0  0  0
 31 58  1  0  0  0  0
 31 68  1  0  0  0  0
 31 78  2  0  0  0  0
 32 59  1  0  0  0  0
 32 73  1  0  0  0  0
 32 79  2  0  0  0  0
 33 69  1  0  0  0  0
 33 74  1  0  0  0  0
 33 80  2  0  0  0  0
 34 37  1  0  0  0  0
 35 44  1  0  0  0  0
 36 68  1  0  0  0  0
 37 39  1  0  0  0  0
 38 40  1  0  0  0  0
 38 41  1  0  0  0  0
 39 43  1  0  0  0  0
 40 45  1  0  0  0  0
 41 69  1  0  0  0  0
 42 45  1  0  0  0  0
 42 69  1  0  0  0  0
 43 72  1  0  0  0  0
 44 68  1  0  0  0  0
 45 66  1  0  0  0  0
 46 59  1  0  0  0  0
 47 60  1  0  0  0  0
 48 60  1  0  0  0  0
 49 61  1  0  0  0  0
 50 61  1  0  0  0  0
 51 61  1  0  0  0  0
 52 75  1  0  0  0  0
 53 54  1  0  0  0  0
 53 55  1  0  0  0  0
 54 57  1  0  0  0  0
 55 67  1  0  0  0  0
 56 60  1  0  0  0  0
 56 74  1  0  0  0  0
 57 82  1  0  0  0  0
 58 61  1  0  0  0  0
 58 73  1  0  0  0  0
 59 75  1  0  0  0  0
 62 66  1  0  0  0  0
 63 65  2  0  0  0  0
 64 67  1  0  0  0  0
 65 67  1  0  0  0  0
M  CHG  1  75   1
M  ISO  4  33 100  57 101  74 100  82 101
M  END
> <Batch ID>
0060

> <Smiles>
CNC(C)C(=O)NC(C(=O)N1Cc2cc([101O:1][101CH2:1]CCCn3nnc(C(C)(C)C[100NH:0][100C:0](=O)N4CCCC(n5nc(-c6ccc(Oc7ccc(F)cc7F)cc6)c(C(N)=O)c5N)C4)n3)ccc2CC1C(=O)NC1CCCc2ccccc21)C(C)(C)C

> <Shape>
0.197

> <Color>
0.062

> <Negative vol penalty>
0.000

$$$$

  -OEChem-04052317553D

 85 93  0     1  0  0  0  0  0999 V2000
  -22.8833   -8.0950   20.6610 C   0  0  0  0  0  0  0  0  0  0  0  0
  -22.4130   -9.2151   19.9830 C   0  0  0  0  0  0  0  0  0  0  0  0
  -28.5375  -25.9724   19.7404 C   0  0  0  0  0  0  0  0  0  0  0  0
  -26.5797  -25.3720   18.4585 C   0  0  0  0  0  0  0  0  0  0  0  0
  -23.7768   -8.2470   21.7204 C   0  0  0  0  0  0  0  0  0  0  0  0
  -22.8353  -10.4880   20.3648 C   0  0  0  0  0  0  0  0  0  0  0  0
  -24.2758  -16.9479   17.6240 C   0  0  0  0  0  0  0  0  0  0  0  0
  -29.2010  -24.8456   19.2548 C   0  0  0  0  0  0  0  0  0  0  0  0
  -27.2432  -24.2452   17.9728 C   0  0  0  0  0  0  0  0  0  0  0  0
  -23.9528  -18.2918   17.8067 C   0  0  0  0  0  0  0  0  0  0  0  0
  -31.2858  -21.9319   18.6324 C   0  0  0  0  0  0  0  0  0  0  0  0
  -32.0045  -21.1578   19.5433 C   0  0  0  0  0  0  0  0  0  0  0  0
  -25.5600  -18.4280   19.6004 C   0  0  0  0  0  0  0  0  0  0  0  0
  -29.9785  -20.7488   20.7943 C   0  0  0  0  0  0  0  0  0  0  0  0
  -20.3742  -23.2803   21.5430 C   0  0  0  0  0  0  0  0  0  0  0  0
  -27.2268  -26.2355   19.3423 C   0  0  0  0  0  0  0  0  0  0  0  0
  -26.5197  -28.6856   19.2731 C   0  0  0  0  0  0  0  0  0  0  0  0
  -24.2177   -9.5218   22.1092 C   0  0  0  0  0  0  0  0  0  0  0  0
  -25.2371  -16.3301   18.4368 C   0  0  0  0  0  0  0  0  0  0  0  0
  -23.7345  -10.6573   21.4313 C   0  0  0  0  0  0  0  0  0  0  0  0
  -25.8952  -17.0768   19.4244 C   0  0  0  0  0  0  0  0  0  0  0  0
  -20.7221  -23.5368   20.2325 C   0  0  0  0  0  0  0  0  0  0  0  0
  -28.5539  -23.9821   18.3710 C   0  0  0  0  0  0  0  0  0  0  0  0
  -24.5929  -19.0313   18.7969 C   0  0  0  0  0  0  0  0  0  0  0  0
  -29.9134  -22.1145   18.8024 C   0  0  0  0  0  0  0  0  0  0  0  0
  -31.3509  -20.5663   20.6243 C   0  0  0  0  0  0  0  0  0  0  0  0
  -29.2598  -21.5229   19.8834 C   0  0  0  0  0  0  0  0  0  0  0  0
  -26.5407  -27.3990   19.8440 C   0  0  0  0  0  0  0  0  0  0  0  0
  -20.6597  -24.8601   19.8463 C   0  0  0  0  0  0  0  0  0  0  0  0
  -25.7350  -29.4258   20.1233 C   0  0  0  0  0  0  0  0  0  0  0  0
  -19.9730  -25.4855   21.9210 C   0  0  0  0  0  0  0  0  0  0  0  0
  -27.1529  -29.1685   18.0808 C   0  0  0  0  0  0  0  0  0  0  0  0
  -25.2096  -13.9158   20.5042 C   0  0  0  0  0  0  0  0  0  0  0  0
  -28.4131  -14.4243   20.5437 C   0  0  0  0  0  0  0  0  0  0  0  0
  -31.0107  -16.5807   20.0443 C   0  0  0  0  0  0  0  0  0  0  0  0
  -21.5040  -27.4494   24.0896 C   0  0  0  0  0  0  0  0  0  0  0  0
  -25.1475   -9.6393   23.2909 C   0  0  0  0  0  0  0  0  0  0  0  0
  -25.5934  -14.8865   18.2094 C   0  0  0  0  0  0  0  0  0  0  0  0
  -26.9492  -16.4658   20.3100 C   0  0  0  0  0  0  0  0  0  0  0  0
  -25.8363  -10.9979   23.3913 C   0  0  0  0  0  0  0  0  0  0  0  0
  -24.3770  -29.7032   24.6965 C   0  0  0  0  0  0  0  0  0  0  0  0
  -24.8269  -12.1241   23.1923 C   0  0  0  0  0  0  0  0  0  0  0  0
  -25.2841  -29.4157   23.5013 C   0  0  0  0  0  0  0  0  0  0  0  0
  -23.5178  -28.4959   25.0597 C   0  0  0  0  0  0  0  0  0  0  0  0
  -23.6233  -27.6762   22.7293 C   0  0  0  0  0  0  0  0  0  0  0  0
  -24.1885  -12.0531   21.7998 C   0  0  1  0  0  0  0  0  0  0  0  0
  -26.2180  -14.2252   19.4341 C   0  0  1  0  0  0  0  0  0  0  0  0
  -24.4687  -28.8875   22.3082 C   0  0  2  0  0  0  0  0  0  0  0  0
  -21.1911  -26.7650   18.3050 C   0  0  0  0  0  0  0  0  0  0  0  0
  -19.3652  -29.7066   22.8454 C   0  0  0  0  0  0  0  0  0  0  0  0
  -33.5117  -16.7204   20.1946 C   0  0  0  0  0  0  0  0  0  0  0  0
  -28.2165  -14.6322   23.5815 C   0  0  0  0  0  0  0  0  0  0  0  0
  -30.4855  -15.6904   23.5862 C   0  0  0  0  0  0  0  0  0  0  0  0
  -30.2008  -13.3578   22.7493 C   0  0  0  0  0  0  0  0  0  0  0  0
  -31.2686  -17.1526   17.1520 C   0  0  0  0  0  0  0  0  0  0  0  0
  -21.1392  -22.4248   19.3034 C   0  0  0  0  0  0  0  0  0  0  0  0
  -21.0141  -25.2565   18.4510 C   0  0  0  0  0  0  0  0  0  0  0  0
  -19.5577  -26.5681   22.8589 C   0  0  0  0  0  0  0  0  0  0  0  0
  -22.5641  -21.9222   19.5450 C   0  0  0  0  0  0  0  0  0  0  0  0
  -20.4175  -28.7971   22.2441 C   0  0  0  0  0  0  0  0  0  0  0  0
  -22.9464  -20.7419   18.6595 C   0  0  0  0  0  0  0  0  0  1  0  0
  -29.3487  -15.2873   21.3555 C   0  0  1  0  0  0  0  0  0  0  0  0
  -32.3218  -16.4221   19.2958 C   0  0  2  0  0  0  0  0  0  0  0  0
  -29.5417  -14.7532   22.8029 C   0  0  0  0  0  0  0  0  0  0  0  0
  -19.9935  -24.2341   22.4179 N   0  0  0  0  0  0  0  0  0  0  0  0
  -25.8263  -27.3228   20.9700 N   0  0  0  0  0  0  0  0  0  0  0  0
  -20.2878  -25.8640   20.6675 N   0  0  0  0  0  0  0  0  0  0  0  0
  -25.3490  -28.5709   21.1135 N   0  0  0  0  0  0  0  0  0  0  0  0
  -27.2581  -15.0495   20.0529 N   0  0  0  0  0  0  0  0  0  0  0  0
  -22.7871  -27.9878   23.8982 N   0  0  0  0  0  0  0  0  0  0  0  0
  -25.3446  -30.7180   20.1132 N   0  0  0  0  0  0  0  0  0  0  0  0
  -27.9231  -28.2747   17.3244 N   0  0  0  0  0  0  0  0  0  0  0  0
  -25.0978  -12.5706   20.8000 N   0  0  0  0  0  0  0  0  0  0  0  0
  -30.5839  -15.3865   20.5855 N   0  0  0  0  0  0  0  0  0  0  0  0
  -20.5920  -27.5783   23.0312 N   0  0  0  0  0  0  0  0  0  0  0  0
  -32.3686  -17.3502   18.1307 N   0  3  0  0  0  0  0  0  0  0  0  0
  -27.0524  -30.3615   17.7063 O   0  0  0  0  0  0  0  0  0  0  0  0
  -24.5808  -14.8300   21.0243 O   0  0  0  0  0  0  0  0  0  0  0  0
  -28.7002  -13.2410   20.3461 O   0  0  0  0  0  0  0  0  0  0  0  0
  -30.4256  -17.6571   20.1424 O   0  0  0  0  0  0  0  0  0  0  0  0
  -21.1886  -26.8941   25.1498 O   0  0  0  0  0  0  0  0  0  0  0  0
  -29.2011  -22.8826   17.8968 O   0  0  0  0  0  0  0  0  0  0  0  0
  -24.2790  -20.3431   18.9777 O   0  0  0  0  0  0  0  0  0  1  0  0
  -32.0410  -19.8217   21.4981 F   0  0  0  0  0  0  0  0  0  0  0  0
  -27.9413  -21.6938   20.0513 F   0  0  0  0  0  0  0  0  0  0  0  0
  1  2  1  0  0  0  0
  1  5  2  0  0  0  0
  2  6  2  0  0  0  0
  3  8  2  0  0  0  0
  3 16  1  0  0  0  0
  4  9  1  0  0  0  0
  4 16  2  0  0  0  0
  5 18  1  0  0  0  0
  6 20  1  0  0  0  0
  7 10  2  0  0  0  0
  7 19  1  0  0  0  0
  8 23  1  0  0  0  0
  9 23  2  0  0  0  0
 10 24  1  0  0  0  0
 11 12  2  0  0  0  0
 11 25  1  0  0  0  0
 12 26  1  0  0  0  0
 13 21  1  0  0  0  0
 13 24  2  0  0  0  0
 14 26  2  0  0  0  0
 14 27  1  0  0  0  0
 15 22  1  0  0  0  0
 15 65  2  0  0  0  0
 16 28  1  0  0  0  0
 17 28  1  0  0  0  0
 17 30  2  0  0  0  0
 17 32  1  0  0  0  0
 18 20  2  0  0  0  0
 18 37  1  0  0  0  0
 19 21  2  0  0  0  0
 19 38  1  0  0  0  0
 20 46  1  0  0  0  0
 21 39  1  0  0  0  0
 22 29  2  0  0  0  0
 22 56  1  0  0  0  0
 23 82  1  0  0  0  0
 24 83  1  0  0  0  0
 25 27  2  0  0  0  0
 25 82  1  0  0  0  0
 26 84  1  0  0  0  0
 27 85  1  0  0  0  0
 28 66  2  0  0  0  0
 29 57  1  0  0  0  0
 29 67  1  0  0  0  0
 30 68  1  0  0  0  0
 30 71  1  0  0  0  0
 31 58  1  0  0  0  0
 31 65  1  0  0  0  0
 31 67  2  0  0  0  0
 32 72  1  0  0  0  0
 32 77  2  0  0  0  0
 33 47  1  0  0  0  0
 33 73  1  0  0  0  0
 33 78  2  0  0  0  0
 34 62  1  0  0  0  0
 34 69  1  0  0  0  0
 34 79  2  0  0  0  0
 35 63  1  0  0  0  0
 35 74  1  0  0  0  0
 35 80  2  0  0  0  0
 36 70  1  0  0  0  0
 36 75  1  0  0  0  0
 36 81  2  0  0  0  0
 37 40  1  0  0  0  0
 38 47  1  0  0  0  0
 39 69  1  0  0  0  0
 40 42  1  0  0  0  0
 41 43  1  0  0  0  0
 41 44  1  0  0  0  0
 42 46  1  0  0  0  0
 43 48  1  0  0  0  0
 44 70  1  0  0  0  0
 45 48  1  0  0  0  0
 45 70  1  0  0  0  0
 46 73  1  0  0  0  0
 47 69  1  0  0  0  0
 48 68  1  0  0  0  0
 49 57  1  0  0  0  0
 50 60  1  0  0  0  0
 51 63  1  0  0  0  0
 52 64  1  0  0  0  0
 53 64  1  0  0  0  0
 54 64  1  0  0  0  0
 55 76  1  0  0  0  0
 56 59  1  0  0  0  0
 58 75  1  0  0  0  0
 59 61  1  0  0  0  0
 60 75  1  0  0  0  0
 61 83  1  0  0  0  0
 62 64  1  0  0  0  0
 62 74  1  0  0  0  0
 63 76  1  0  0  0  0
 66 68  1  0  0  0  0
M  CHG  1  76   1
M  ISO  4  36 100  61 101  75 100  83 101
M  END
> <Batch ID>
0060

> <Smiles>
CCc1nc(C[100N:0](CC)[100C:0](=O)N2CCCC(n3nc(-c4ccc(Oc5ccc(F)cc5F)cc4)c(C(N)=O)c3N)C2)ncc1CC[101CH2:1][101O:1]c1ccc2c(c1)CN(C(=O)C(NC(=O)C(C)NC)C(C)(C)C)C(C(=O)NC1CCCc3ccccc31)C2

> <Shape>
0.240

> <Color>
0.068

> <Negative vol penalty>
0.000

$$$$

  -OEChem-04052317553D

 81 89  0     1  0  0  0  0  0999 V2000
  -19.0929  -24.1832   21.8645 C   0  0  0  0  0  0  0  0  0  0  0  0
  -20.4628  -24.3480   21.6867 C   0  0  0  0  0  0  0  0  0  0  0  0
  -27.2440  -14.6755   21.6999 C   0  0  0  0  0  0  0  0  0  0  0  0
  -26.4767  -14.7967   19.4122 C   0  0  0  0  0  0  0  0  0  0  0  0
  -18.2993  -25.2766   22.2086 C   0  0  0  0  0  0  0  0  0  0  0  0
  -21.0397  -25.6068   21.8517 C   0  0  0  0  0  0  0  0  0  0  0  0
  -25.3197  -25.4432   24.5535 C   0  0  0  0  0  0  0  0  0  0  0  0
  -26.9768  -13.3066   21.7171 C   0  0  0  0  0  0  0  0  0  0  0  0
  -26.2096  -13.4277   19.4293 C   0  0  0  0  0  0  0  0  0  0  0  0
  -26.4708  -25.0097   23.8972 C   0  0  0  0  0  0  0  0  0  0  0  0
  -23.7927  -11.3756   20.6033 C   0  0  0  0  0  0  0  0  0  0  0  0
  -22.5794  -10.9454   20.0664 C   0  0  0  0  0  0  0  0  0  0  0  0
  -27.1690  -27.3021   23.6204 C   0  0  0  0  0  0  0  0  0  0  0  0
  -23.7710   -9.6027   18.4495 C   0  0  0  0  0  0  0  0  0  0  0  0
  -27.5041  -24.8082   19.6754 C   0  0  0  0  0  0  0  0  0  0  0  0
  -26.9939  -15.4206   20.5475 C   0  0  0  0  0  0  0  0  0  0  0  0
  -28.4738  -17.4617   20.1584 C   0  0  0  0  0  0  0  0  0  0  0  0
  -18.8681  -26.5475   22.3874 C   0  0  0  0  0  0  0  0  0  0  0  0
  -25.0789  -26.8122   24.7389 C   0  0  0  0  0  0  0  0  0  0  0  0
  -20.2527  -26.7185   22.1971 C   0  0  0  0  0  0  0  0  0  0  0  0
  -26.0154  -27.7503   24.2817 C   0  0  0  0  0  0  0  0  0  0  0  0
  -26.4596  -12.6827   20.5817 C   0  0  0  0  0  0  0  0  0  0  0  0
  -27.3943  -25.9393   23.4280 C   0  0  0  0  0  0  0  0  0  0  0  0
  -24.9952  -10.9194   20.0633 C   0  0  0  0  0  0  0  0  0  0  0  0
  -22.5685  -10.0589   18.9895 C   0  0  0  0  0  0  0  0  0  0  0  0
  -24.9843  -10.0330   18.9865 C   0  0  0  0  0  0  0  0  0  0  0  0
  -27.2692  -16.8348   20.5294 C   0  0  0  0  0  0  0  0  0  0  0  0
  -28.8285  -24.6265   19.9854 C   0  0  0  0  0  0  0  0  0  0  0  0
  -28.2242  -18.8035   20.3123 C   0  0  0  0  0  0  0  0  0  0  0  0
  -29.7081  -16.8828   19.7143 C   0  0  0  0  0  0  0  0  0  0  0  0
  -22.8214  -28.8408   23.7942 C   0  0  0  0  0  0  0  0  0  0  0  0
  -24.8427  -23.1957   19.5618 C   0  0  0  0  0  0  0  0  0  0  0  0
  -24.4055  -30.8998   25.7367 C   0  0  0  0  0  0  0  0  0  0  0  0
  -27.3221  -31.7572   27.2875 C   0  0  0  0  0  0  0  0  0  0  0  0
  -17.9627  -27.7088   22.7129 C   0  0  0  0  0  0  0  0  0  0  0  0
  -23.8454  -27.2625   25.4725 C   0  0  0  0  0  0  0  0  0  0  0  0
  -25.8136  -29.2305   24.4734 C   0  0  0  0  0  0  0  0  0  0  0  0
  -18.7078  -28.9342   23.2359 C   0  0  0  0  0  0  0  0  0  0  0  0
  -24.3666  -21.2129   22.5082 C   0  0  0  0  0  0  0  0  0  0  0  0
  -19.9250  -29.2305   22.3655 C   0  0  0  0  0  0  0  0  0  0  0  0
  -25.1531  -19.9365   22.2129 C   0  0  0  0  0  0  0  0  0  0  0  0
  -23.7203  -21.7752   21.2459 C   0  0  0  0  0  0  0  0  0  0  0  0
  -25.4696  -20.7451   19.8315 C   0  0  0  0  0  0  0  0  0  0  0  0
  -20.9191  -28.0632   22.3915 C   0  0  1  0  0  0  0  0  0  0  0  0
  -23.4509  -28.7008   25.1514 C   0  0  1  0  0  0  0  0  0  0  0  0
  -26.1641  -20.1611   21.0745 C   0  0  2  0  0  0  0  0  0  0  0  0
  -25.4183  -24.2798   17.4010 C   0  0  0  0  0  0  0  0  0  0  0  0
  -28.3184  -33.5131   28.7780 C   0  0  0  0  0  0  0  0  0  0  0  0
  -30.4866  -26.4898   19.7256 C   0  0  0  0  0  0  0  0  0  0  0  0
  -24.5585  -32.8189   23.3695 C   0  0  0  0  0  0  0  0  0  0  0  0
  -26.3353  -34.0836   24.5991 C   0  0  0  0  0  0  0  0  0  0  0  0
  -24.0409  -33.9056   25.5617 C   0  0  0  0  0  0  0  0  0  0  0  0
  -27.9233  -29.7817   29.4076 C   0  0  0  0  0  0  0  0  0  0  0  0
  -29.0651  -26.3891   21.7964 C   0  0  0  0  0  0  0  0  0  1  0  0
  -25.8848  -23.3025   18.4770 C   0  0  1  0  0  0  0  0  0  0  0  0
  -25.5453  -31.8737   25.5601 C   0  0  1  0  0  0  0  0  0  0  0  0
  -27.6198  -32.1635   28.7196 C   0  0  2  0  0  0  0  0  0  0  0  0
  -29.7777  -25.5626   20.7174 C   0  0  1  0  0  0  0  0  0  0  0  0
  -25.1231  -33.1427   24.7671 C   0  0  0  0  0  0  0  0  0  0  0  0
  -26.3245  -17.7067   20.8919 N   0  0  0  0  0  0  0  0  0  0  0  0
  -29.2436  -23.4057   19.5306 N   0  0  0  0  0  0  0  0  0  0  0  0
  -28.2092  -22.8166   18.9406 N   0  0  0  0  0  0  0  0  0  0  0  0
  -27.1673  -23.6592   19.0284 N   0  0  0  0  0  0  0  0  0  0  0  0
  -26.9355  -18.8952   20.7495 N   0  0  0  0  0  0  0  0  0  0  0  0
  -24.5890  -29.6214   25.1911 N   0  0  0  0  0  0  0  0  0  0  0  0
  -24.7093  -21.9530   20.1813 N   0  0  0  0  0  0  0  0  0  0  0  0
  -28.9835  -19.9021   20.1151 N   0  0  0  0  0  0  0  0  0  0  0  0
  -29.7933  -15.4876   19.6126 N   0  0  0  0  0  0  0  0  0  0  0  0
  -21.6829  -28.0771   23.6207 N   0  0  0  0  0  0  0  0  0  0  0  0
  -26.0586  -32.1483   26.8978 N   0  0  0  0  0  0  0  0  0  0  0  0
  -28.4970  -31.1516   29.3734 N   0  3  0  0  0  0  0  0  0  0  0  0
  -30.7111  -17.5813   19.4322 O   0  0  0  0  0  0  0  0  0  0  0  0
  -23.3300  -29.5875   22.9664 O   0  0  0  0  0  0  0  0  0  0  0  0
  -24.1704  -24.1891   19.8505 O   0  0  0  0  0  0  0  0  0  0  0  0
  -23.3925  -31.2579   26.3429 O   0  0  0  0  0  0  0  0  0  0  0  0
  -28.1309  -31.1564   26.5837 O   0  0  0  0  0  0  0  0  0  0  0  0
  -26.1990  -11.3469   20.5980 O   0  0  0  0  0  0  0  0  0  0  0  0
  -28.5184  -25.5189   22.7864 O   0  0  0  0  0  0  0  0  0  1  0  0
  -21.4032   -9.6446   18.4750 F   0  0  0  0  0  0  0  0  0  0  0  0
  -26.1363   -9.5903   18.4642 F   0  0  0  0  0  0  0  0  0  0  0  0
  -30.7776  -24.8758   21.3628 F   0  0  0  0  0  0  0  0  0  0  0  0
  1  2  1  0  0  0  0
  1  5  2  0  0  0  0
  2  6  2  0  0  0  0
  3  8  2  0  0  0  0
  3 16  1  0  0  0  0
  4  9  1  0  0  0  0
  4 16  2  0  0  0  0
  5 18  1  0  0  0  0
  6 20  1  0  0  0  0
  7 10  2  0  0  0  0
  7 19  1  0  0  0  0
  8 22  1  0  0  0  0
  9 22  2  0  0  0  0
 10 23  1  0  0  0  0
 11 12  2  0  0  0  0
 11 24  1  0  0  0  0
 12 25  1  0  0  0  0
 13 21  1  0  0  0  0
 13 23  2  0  0  0  0
 14 25  2  0  0  0  0
 14 26  1  0  0  0  0
 15 28  2  0  0  0  0
 15 63  1  0  0  0  0
 16 27  1  0  0  0  0
 17 27  1  0  0  0  0
 17 29  2  0  0  0  0
 17 30  1  0  0  0  0
 18 20  2  0  0  0  0
 18 35  1  0  0  0  0
 19 21  2  0  0  0  0
 19 36  1  0  0  0  0
 20 44  1  0  0  0  0
 21 37  1  0  0  0  0
 22 77  1  0  0  0  0
 23 78  1  0  0  0  0
 24 26  2  0  0  0  0
 24 77  1  0  0  0  0
 25 79  1  0  0  0  0
 26 80  1  0  0  0  0
 27 60  2  0  0  0  0
 28 58  1  0  0  0  0
 28 61  1  0  0  0  0
 29 64  1  0  0  0  0
 29 67  1  0  0  0  0
 30 68  1  0  0  0  0
 30 72  2  0  0  0  0
 31 45  1  0  0  0  0
 31 69  1  0  0  0  0
 31 73  2  0  0  0  0
 32 55  1  0  0  0  0
 32 66  1  0  0  0  0
 32 74  2  0  0  0  0
 33 56  1  0  0  0  0
 33 65  1  0  0  0  0
 33 75  2  0  0  0  0
 34 57  1  0  0  0  0
 34 70  1  0  0  0  0
 34 76  2  0  0  0  0
 35 38  1  0  0  0  0
 36 45  1  0  0  0  0
 37 65  1  0  0  0  0
 38 40  1  0  0  0  0
 39 41  1  0  0  0  0
 39 42  1  0  0  0  0
 40 44  1  0  0  0  0
 41 46  1  0  0  0  0
 42 66  1  0  0  0  0
 43 46  1  0  0  0  0
 43 66  1  0  0  0  0
 44 69  1  0  0  0  0
 45 65  1  0  0  0  0
 46 64  1  0  0  0  0
 47 55  1  0  0  0  0
 48 57  1  0  0  0  0
 49 58  1  0  0  0  0
 50 59  1  0  0  0  0
 51 59  1  0  0  0  0
 52 59  1  0  0  0  0
 53 71  1  0  0  0  0
 54 58  1  0  0  0  0
 54 78  1  0  0  0  0
 55 63  1  0  0  0  0
 56 59  1  0  0  0  0
 56 70  1  0  0  0  0
 57 71  1  0  0  0  0
 58 81  1  0  0  0  0
 60 64  1  0  0  0  0
 61 62  2  0  0  0  0
 62 63  1  0  0  0  0
M  CHG  1  71   1
M  ISO  4  32 100  54 101  55 100  78 101
M  END
> <Batch ID>
0060

> <Smiles>
CNC(C)C(=O)NC(C(=O)N1Cc2cc([101O:1][101CH2:1]C(C)(F)c3cn([100CH:0](C)[100C:0](=O)N4CCCC(n5nc(-c6ccc(Oc7ccc(F)cc7F)cc6)c(C(N)=O)c5N)C4)nn3)ccc2CC1C(=O)NC1CCCc2ccccc21)C(C)(C)C

> <Shape>
0.232

> <Color>
0.092

> <Negative vol penalty>
0.000

$$$$

  -OEChem-04052317553D

 79 87  0     1  0  0  0  0  0999 V2000
  -21.8208  -12.1784   19.3499 C   0  0  0  0  0  0  0  0  0  0  0  0
  -21.7321  -13.5096   19.7442 C   0  0  0  0  0  0  0  0  0  0  0  0
  -27.1689  -25.3825   18.9820 C   0  0  0  0  0  0  0  0  0  0  0  0
  -27.5738  -27.0988   17.3305 C   0  0  0  0  0  0  0  0  0  0  0  0
  -23.0044  -11.4699   19.5527 C   0  0  0  0  0  0  0  0  0  0  0  0
  -22.8266  -14.1328   20.3426 C   0  0  0  0  0  0  0  0  0  0  0  0
  -23.6822  -18.7642   18.4816 C   0  0  0  0  0  0  0  0  0  0  0  0
  -27.7232  -24.4295   18.1276 C   0  0  0  0  0  0  0  0  0  0  0  0
  -28.1281  -26.1457   16.4760 C   0  0  0  0  0  0  0  0  0  0  0  0
  -22.8581  -19.7941   18.9332 C   0  0  0  0  0  0  0  0  0  0  0  0
  -27.0209  -23.7471   14.3662 C   0  0  0  0  0  0  0  0  0  0  0  0
  -26.6356  -23.7760   13.0259 C   0  0  0  0  0  0  0  0  0  0  0  0
  -24.5837  -20.4943   20.4666 C   0  0  0  0  0  0  0  0  0  0  0  0
  -28.9341  -24.1330   12.3727 C   0  0  0  0  0  0  0  0  0  0  0  0
  -27.0941  -26.7172   18.5834 C   0  0  0  0  0  0  0  0  0  0  0  0
  -27.1952  -28.4729   20.4314 C   0  0  0  0  0  0  0  0  0  0  0  0
  -24.1171  -12.0875   20.1451 C   0  0  0  0  0  0  0  0  0  0  0  0
  -24.9612  -18.5846   19.0278 C   0  0  0  0  0  0  0  0  0  0  0  0
  -24.0257  -13.4315   20.5548 C   0  0  0  0  0  0  0  0  0  0  0  0
  -25.4230  -19.4629   20.0184 C   0  0  0  0  0  0  0  0  0  0  0  0
  -28.2028  -24.8111   16.8746 C   0  0  0  0  0  0  0  0  0  0  0  0
  -23.3077  -20.6575   19.9279 C   0  0  0  0  0  0  0  0  0  0  0  0
  -28.3629  -23.9112   14.7097 C   0  0  0  0  0  0  0  0  0  0  0  0
  -27.5921  -23.9689   12.0292 C   0  0  0  0  0  0  0  0  0  0  0  0
  -29.3194  -24.1041   13.7130 C   0  0  0  0  0  0  0  0  0  0  0  0
  -26.5211  -27.7021   19.4654 C   0  0  0  0  0  0  0  0  0  0  0  0
  -26.2137  -29.2497   20.9968 C   0  0  0  0  0  0  0  0  0  0  0  0
  -20.3048  -27.0822   21.8105 C   0  0  0  0  0  0  0  0  0  0  0  0
  -20.5610  -25.0249   21.5676 C   0  0  0  0  0  0  0  0  0  0  0  0
  -28.5844  -28.4857   20.7859 C   0  0  0  0  0  0  0  0  0  0  0  0
  -20.2974  -28.5205   21.5138 C   0  0  0  0  0  0  0  0  0  0  0  0
  -26.4049  -16.2573   20.6412 C   0  0  0  0  0  0  0  0  0  0  0  0
  -29.0086  -18.1600   20.2913 C   0  0  0  0  0  0  0  0  0  0  0  0
  -30.2591  -21.2944   19.7826 C   0  0  0  0  0  0  0  0  0  0  0  0
  -25.3595  -11.2673   20.3868 C   0  0  0  0  0  0  0  0  0  0  0  0
  -25.8482  -17.4852   18.5109 C   0  0  0  0  0  0  0  0  0  0  0  0
  -26.7956  -19.3254   20.6230 C   0  0  0  0  0  0  0  0  0  0  0  0
  -26.5967  -12.1096   20.6867 C   0  0  0  0  0  0  0  0  0  0  0  0
  -21.9925  -31.2759   20.0051 C   0  0  0  0  0  0  0  0  0  0  0  0
  -26.2714  -13.1892   21.7141 C   0  0  0  0  0  0  0  0  0  0  0  0
  -23.4052  -30.7394   19.7673 C   0  0  0  0  0  0  0  0  0  0  0  0
  -20.9370  -30.1908   19.8076 C   0  0  0  0  0  0  0  0  0  0  0  0
  -22.5736  -28.4274   20.3703 C   0  0  0  0  0  0  0  0  0  0  0  0
  -25.1995  -14.1495   21.1847 C   0  0  1  0  0  0  0  0  0  0  0  0
  -26.9356  -17.0795   19.5010 C   0  0  1  0  0  0  0  0  0  0  0  0
  -23.6715  -29.4771   20.6088 C   0  0  1  0  0  0  0  0  0  0  0  0
  -31.9754  -23.0777   19.3682 C   0  0  0  0  0  0  0  0  0  0  0  0
  -29.3767  -18.0001   23.3160 C   0  0  0  0  0  0  0  0  0  0  0  0
  -30.9158  -19.9688   23.1628 C   0  0  0  0  0  0  0  0  0  0  0  0
  -31.4957  -17.8409   21.9973 C   0  0  0  0  0  0  0  0  0  0  0  0
  -19.7649  -24.3584   23.8646 C   0  0  0  0  0  0  0  0  0  0  0  0
  -30.0713  -20.9559   16.8485 C   0  0  0  0  0  0  0  0  0  0  0  0
  -21.5754  -22.2114   19.4374 C   0  0  0  0  0  0  0  0  0  1  0  0
  -21.3384  -23.6710   19.7735 C   0  0  0  0  0  0  0  0  0  0  0  0
  -29.6276  -19.2822   21.0891 C   0  0  1  0  0  0  0  0  0  0  0  0
  -31.3239  -21.8122   18.8326 C   0  0  2  0  0  0  0  0  0  0  0  0
  -30.3273  -18.7747   22.3815 C   0  0  0  0  0  0  0  0  0  0  0  0
  -25.2125  -27.9651   19.4172 N   0  0  0  0  0  0  0  0  0  0  0  0
  -20.7165  -26.1471   20.9044 N   0  0  0  0  0  0  0  0  0  0  0  0
  -19.9044  -26.6091   22.9925 N   0  0  0  0  0  0  0  0  0  0  0  0
  -25.0564  -28.9099   20.3601 N   0  0  0  0  0  0  0  0  0  0  0  0
  -20.0782  -25.2910   22.8110 N   0  0  0  0  0  0  0  0  0  0  0  0
  -21.2482  -29.0129   20.6166 N   0  0  0  0  0  0  0  0  0  0  0  0
  -27.6230  -18.2311   20.0888 N   0  0  0  0  0  0  0  0  0  0  0  0
  -26.2363  -30.1834   21.9715 N   0  0  0  0  0  0  0  0  0  0  0  0
  -29.4556  -27.6241   20.1053 N   0  0  0  0  0  0  0  0  0  0  0  0
  -25.7801  -15.0888   20.2491 N   0  0  0  0  0  0  0  0  0  0  0  0
  -30.5103  -19.9959   20.1726 N   0  0  0  0  0  0  0  0  0  0  0  0
  -30.7264  -22.1181   17.5020 N   0  3  0  0  0  0  0  0  0  0  0  0
  -29.0369  -29.2270   21.6910 O   0  0  0  0  0  0  0  0  0  0  0  0
  -19.4478  -29.1915   22.0978 O   0  0  0  0  0  0  0  0  0  0  0  0
  -26.5527  -16.6529   21.7915 O   0  0  0  0  0  0  0  0  0  0  0  0
  -29.7290  -17.2575   19.8575 O   0  0  0  0  0  0  0  0  0  0  0  0
  -29.3024  -21.9751   20.1457 O   0  0  0  0  0  0  0  0  0  0  0  0
  -28.7440  -23.8814   16.0407 O   0  0  0  0  0  0  0  0  0  0  0  0
  -22.5051  -21.6632   20.3709 O   0  0  0  0  0  0  0  0  0  1  0  0
  -20.8367  -23.7665   21.1011 O   0  0  0  0  0  0  0  0  0  0  0  0
  -27.2221  -23.9951   10.7421 F   0  0  0  0  0  0  0  0  0  0  0  0
  -30.6103  -24.2611   14.0368 F   0  0  0  0  0  0  0  0  0  0  0  0
  1  2  1  0  0  0  0
  1  5  2  0  0  0  0
  2  6  2  0  0  0  0
  3  8  2  0  0  0  0
  3 15  1  0  0  0  0
  4  9  1  0  0  0  0
  4 15  2  0  0  0  0
  5 17  1  0  0  0  0
  6 19  1  0  0  0  0
  7 10  2  0  0  0  0
  7 18  1  0  0  0  0
  8 21  1  0  0  0  0
  9 21  2  0  0  0  0
 10 22  1  0  0  0  0
 11 12  2  0  0  0  0
 11 23  1  0  0  0  0
 12 24  1  0  0  0  0
 13 20  1  0  0  0  0
 13 22  2  0  0  0  0
 14 24  2  0  0  0  0
 14 25  1  0  0  0  0
 15 26  1  0  0  0  0
 16 26  1  0  0  0  0
 16 27  2  0  0  0  0
 16 30  1  0  0  0  0
 17 19  2  0  0  0  0
 17 35  1  0  0  0  0
 18 20  2  0  0  0  0
 18 36  1  0  0  0  0
 19 44  1  0  0  0  0
 20 37  1  0  0  0  0
 21 75  1  0  0  0  0
 22 76  1  0  0  0  0
 23 25  2  0  0  0  0
 23 75  1  0  0  0  0
 24 78  1  0  0  0  0
 25 79  1  0  0  0  0
 26 58  2  0  0  0  0
 27 61  1  0  0  0  0
 27 65  1  0  0  0  0
 28 31  1  0  0  0  0
 28 59  1  0  0  0  0
 28 60  2  0  0  0  0
 29 59  2  0  0  0  0
 29 62  1  0  0  0  0
 29 77  1  0  0  0  0
 30 66  1  0  0  0  0
 30 70  2  0  0  0  0
 31 63  1  0  0  0  0
 31 71  2  0  0  0  0
 32 45  1  0  0  0  0
 32 67  1  0  0  0  0
 32 72  2  0  0  0  0
 33 55  1  0  0  0  0
 33 64  1  0  0  0  0
 33 73  2  0  0  0  0
 34 56  1  0  0  0  0
 34 68  1  0  0  0  0
 34 74  2  0  0  0  0
 35 38  1  0  0  0  0
 36 45  1  0  0  0  0
 37 64  1  0  0  0  0
 38 40  1  0  0  0  0
 39 41  1  0  0  0  0
 39 42  1  0  0  0  0
 40 44  1  0  0  0  0
 41 46  1  0  0  0  0
 42 63  1  0  0  0  0
 43 46  1  0  0  0  0
 43 63  1  0  0  0  0
 44 67  1  0  0  0  0
 45 64  1  0  0  0  0
 46 61  1  0  0  0  0
 47 56  1  0  0  0  0
 48 57  1  0  0  0  0
 49 57  1  0  0  0  0
 50 57  1  0  0  0  0
 51 62  1  0  0  0  0
 52 69  1  0  0  0  0
 53 54  1  0  0  0  0
 53 76  1  0  0  0  0
 54 77  1  0  0  0  0
 55 57  1  0  0  0  0
 55 68  1  0  0  0  0
 56 69  1  0  0  0  0
 58 61  1  0  0  0  0
 60 62  1  0  0  0  0
M  CHG  1  69   1
M  ISO  4  28 100  31 100  53 101  76 101
M  END
> <Batch ID>
0060

> <Smiles>
CNC(C)C(=O)NC(C(=O)N1Cc2cc([101O:1][101CH2:1]COc3n[100c:0]([100C:0](=O)N4CCCC(n5nc(-c6ccc(Oc7ccc(F)cc7F)cc6)c(C(N)=O)c5N)C4)nn3C)ccc2CC1C(=O)NC1CCCc2ccccc21)C(C)(C)C

> <Shape>
0.216

> <Color>
0.067

> <Negative vol penalty>
0.000

$$$$

  -OEChem-04052317553D

 82 90  0     1  0  0  0  0  0999 V2000
  -31.0041  -22.9340   15.2328 C   0  0  0  0  0  0  0  0  0  0  0  0
  -30.5430  -22.7454   16.5317 C   0  0  0  0  0  0  0  0  0  0  0  0
  -26.4496  -13.0502   19.1535 C   0  0  0  0  0  0  0  0  0  0  0  0
  -26.1872  -12.8357   21.5456 C   0  0  0  0  0  0  0  0  0  0  0  0
  -31.2271  -24.2243   14.7539 C   0  0  0  0  0  0  0  0  0  0  0  0
  -30.3057  -23.8471   17.3529 C   0  0  0  0  0  0  0  0  0  0  0  0
  -25.9255  -23.4870   19.8688 C   0  0  0  0  0  0  0  0  0  0  0  0
  -25.9854  -11.7456   18.9855 C   0  0  0  0  0  0  0  0  0  0  0  0
  -25.7229  -11.5311   21.3777 C   0  0  0  0  0  0  0  0  0  0  0  0
  -25.9006  -22.6563   20.9882 C   0  0  0  0  0  0  0  0  0  0  0  0
  -22.8430  -10.0107   20.4752 C   0  0  0  0  0  0  0  0  0  0  0  0
  -21.7137   -9.6281   21.1990 C   0  0  0  0  0  0  0  0  0  0  0  0
  -26.1370  -24.5853   22.4174 C   0  0  0  0  0  0  0  0  0  0  0  0
  -22.9952   -7.8874   22.2783 C   0  0  0  0  0  0  0  0  0  0  0  0
  -28.7002  -15.1869   25.9261 C   0  0  0  0  0  0  0  0  0  0  0  0
  -26.5505  -13.5953   20.4335 C   0  0  0  0  0  0  0  0  0  0  0  0
  -26.2627  -16.1224   20.6294 C   0  0  0  0  0  0  0  0  0  0  0  0
  -30.9832  -25.3428   15.5664 C   0  0  0  0  0  0  0  0  0  0  0  0
  -26.0675  -24.8744   20.0150 C   0  0  0  0  0  0  0  0  0  0  0  0
  -30.5269  -25.1535   16.8849 C   0  0  0  0  0  0  0  0  0  0  0  0
  -26.1608  -25.4316   21.2984 C   0  0  0  0  0  0  0  0  0  0  0  0
  -25.6221  -10.9861   20.0976 C   0  0  0  0  0  0  0  0  0  0  0  0
  -26.0093  -23.2051   22.2626 C   0  0  0  0  0  0  0  0  0  0  0  0
  -24.0484   -9.3316   20.6529 C   0  0  0  0  0  0  0  0  0  0  0  0
  -21.7898   -8.5664   22.1006 C   0  0  0  0  0  0  0  0  0  0  0  0
  -24.1245   -8.2700   21.5544 C   0  0  0  0  0  0  0  0  0  0  0  0
  -27.0305  -14.9426   20.6076 C   0  0  0  0  0  0  0  0  0  0  0  0
  -27.1807  -17.1260   20.8209 C   0  0  0  0  0  0  0  0  0  0  0  0
  -29.8530  -16.7708   25.2053 C   0  0  0  0  0  0  0  0  0  0  0  0
  -24.8464  -16.2956   20.4891 C   0  0  0  0  0  0  0  0  0  0  0  0
  -28.2300  -27.0168   19.0997 C   0  0  0  0  0  0  0  0  0  0  0  0
  -26.0823  -29.1254   20.3094 C   0  0  0  0  0  0  0  0  0  0  0  0
  -23.4865  -29.7129   22.4456 C   0  0  0  0  0  0  0  0  0  0  0  0
  -32.7981  -16.7376   23.2359 C   0  0  0  0  0  0  0  0  0  0  0  0
  -31.2840  -26.7161   15.0205 C   0  0  0  0  0  0  0  0  0  0  0  0
  -26.0657  -25.7593   18.7987 C   0  0  0  0  0  0  0  0  0  0  0  0
  -26.2946  -26.9168   21.5103 C   0  0  0  0  0  0  0  0  0  0  0  0
  -30.6509  -27.8453   15.8295 C   0  0  0  0  0  0  0  0  0  0  0  0
  -31.7585  -18.2336   20.0136 C   0  0  0  0  0  0  0  0  0  0  0  0
  -30.8842  -27.6289   17.3213 C   0  0  0  0  0  0  0  0  0  0  0  0
  -30.3904  -17.5964   19.7766 C   0  0  0  0  0  0  0  0  0  0  0  0
  -32.6675  -17.3327   20.8442 C   0  0  0  0  0  0  0  0  0  0  0  0
  -30.7029  -16.2666   21.9013 C   0  0  0  0  0  0  0  0  0  0  0  0
  -30.2341  -26.3244   17.7979 C   0  0  1  0  0  0  0  0  0  0  0  0
  -26.7315  -27.1103   19.0417 C   0  0  1  0  0  0  0  0  0  0  0  0
  -29.7465  -17.1687   21.1069 C   0  0  2  0  0  0  0  0  0  0  0  0
  -21.9654  -31.5436   23.2409 C   0  0  0  0  0  0  0  0  0  0  0  0
  -28.3464  -30.2654   22.0077 C   0  0  0  0  0  0  0  0  0  0  0  0
  -26.6201  -31.3964   23.4252 C   0  0  0  0  0  0  0  0  0  0  0  0
  -26.8257  -31.9814   21.0089 C   0  0  0  0  0  0  0  0  0  0  0  0
  -32.9524  -16.8304   25.6950 C   0  0  0  0  0  0  0  0  0  0  0  0
  -21.0782  -28.2911   21.4772 C   0  0  0  0  0  0  0  0  0  0  0  0
  -30.8860  -17.6457   24.6222 C   0  0  0  0  0  0  0  0  0  0  0  0
  -27.6394  -19.1883   24.4263 C   0  0  0  0  0  0  0  0  0  0  0  0
  -27.0592  -20.5996   24.5313 C   0  0  0  0  0  0  0  0  0  0  0  0
  -28.1842  -18.6629   25.7593 C   0  0  0  0  0  0  0  0  0  0  0  0
  -26.4967  -21.0736   23.1979 C   0  0  0  0  0  0  0  0  0  1  0  0
  -25.8406  -29.7469   21.6638 C   0  0  1  0  0  0  0  0  0  0  0  0
  -22.1538  -30.4112   22.2434 C   0  0  2  0  0  0  0  0  0  0  0  0
  -26.9076  -30.8193   22.0227 C   0  0  0  0  0  0  0  0  0  0  0  0
  -29.8998  -15.4654   25.3360 N   0  0  0  0  0  0  0  0  0  0  0  0
  -27.9141  -16.2379   26.1686 N   0  0  0  0  0  0  0  0  0  0  0  0
  -28.3357  -15.1737   20.7720 N   0  0  0  0  0  0  0  0  0  0  0  0
  -28.3952  -16.5103   20.8989 N   0  0  0  0  0  0  0  0  0  0  0  0
  -28.6747  -17.2382   25.6982 N   0  0  0  0  0  0  0  0  0  0  0  0
  -26.2943  -27.7396   20.2894 N   0  0  0  0  0  0  0  0  0  0  0  0
  -32.0147  -16.9060   22.0823 N   0  0  0  0  0  0  0  0  0  0  0  0
  -27.0594  -18.4662   20.9285 N   0  0  0  0  0  0  0  0  0  0  0  0
  -24.0498  -15.1583   20.2989 N   0  0  0  0  0  0  0  0  0  0  0  0
  -28.8062  -26.4993   17.9553 N   0  0  0  0  0  0  0  0  0  0  0  0
  -24.4713  -30.2498   21.6436 N   0  0  0  0  0  0  0  0  0  0  0  0
  -32.1782  -16.9804   24.4710 N   0  0  0  0  0  0  0  0  0  0  0  0
  -21.0318  -29.4449   22.4119 N   0  3  0  0  0  0  0  0  0  0  0  0
  -24.3052  -17.4270   20.5146 O   0  0  0  0  0  0  0  0  0  0  0  0
  -28.8199  -27.3881   20.1076 O   0  0  0  0  0  0  0  0  0  0  0  0
  -26.0759  -29.8420   19.3054 O   0  0  0  0  0  0  0  0  0  0  0  0
  -23.6394  -28.7865   23.2386 O   0  0  0  0  0  0  0  0  0  0  0  0
  -33.9866  -16.3993   23.1654 O   0  0  0  0  0  0  0  0  0  0  0  0
  -25.1688   -9.7132   19.9341 O   0  0  0  0  0  0  0  0  0  0  0  0
  -25.9860  -22.3965   23.3569 O   0  0  0  0  0  0  0  0  0  1  0  0
  -20.7056   -8.2001   22.7967 F   0  0  0  0  0  0  0  0  0  0  0  0
  -25.2800   -7.6145   21.7303 F   0  0  0  0  0  0  0  0  0  0  0  0
  1  2  1  0  0  0  0
  1  5  2  0  0  0  0
  2  6  2  0  0  0  0
  3  8  2  0  0  0  0
  3 16  1  0  0  0  0
  4  9  1  0  0  0  0
  4 16  2  0  0  0  0
  5 18  1  0  0  0  0
  6 20  1  0  0  0  0
  7 10  2  0  0  0  0
  7 19  1  0  0  0  0
  8 22  1  0  0  0  0
  9 22  2  0  0  0  0
 10 23  1  0  0  0  0
 11 12  2  0  0  0  0
 11 24  1  0  0  0  0
 12 25  1  0  0  0  0
 13 21  1  0  0  0  0
 13 23  2  0  0  0  0
 14 25  2  0  0  0  0
 14 26  1  0  0  0  0
 15 61  1  0  0  0  0
 15 62  2  0  0  0  0
 16 27  1  0  0  0  0
 17 27  1  0  0  0  0
 17 28  2  0  0  0  0
 17 30  1  0  0  0  0
 18 20  2  0  0  0  0
 18 35  1  0  0  0  0
 19 21  2  0  0  0  0
 19 36  1  0  0  0  0
 20 44  1  0  0  0  0
 21 37  1  0  0  0  0
 22 79  1  0  0  0  0
 23 80  1  0  0  0  0
 24 26  2  0  0  0  0
 24 79  1  0  0  0  0
 25 81  1  0  0  0  0
 26 82  1  0  0  0  0
 27 63  2  0  0  0  0
 28 64  1  0  0  0  0
 28 68  1  0  0  0  0
 29 53  1  0  0  0  0
 29 61  2  0  0  0  0
 29 65  1  0  0  0  0
 30 69  1  0  0  0  0
 30 74  2  0  0  0  0
 31 45  1  0  0  0  0
 31 70  1  0  0  0  0
 31 75  2  0  0  0  0
 32 58  1  0  0  0  0
 32 66  1  0  0  0  0
 32 76  2  0  0  0  0
 33 59  1  0  0  0  0
 33 71  1  0  0  0  0
 33 77  2  0  0  0  0
 34 67  1  0  0  0  0
 34 72  1  0  0  0  0
 34 78  2  0  0  0  0
 35 38  1  0  0  0  0
 36 45  1  0  0  0  0
 37 66  1  0  0  0  0
 38 40  1  0  0  0  0
 39 41  1  0  0  0  0
 39 42  1  0  0  0  0
 40 44  1  0  0  0  0
 41 46  1  0  0  0  0
 42 67  1  0  0  0  0
 43 46  1  0  0  0  0
 43 67  1  0  0  0  0
 44 70  1  0  0  0  0
 45 66  1  0  0  0  0
 46 64  1  0  0  0  0
 47 59  1  0  0  0  0
 48 60  1  0  0  0  0
 49 60  1  0  0  0  0
 50 60  1  0  0  0  0
 51 72  1  0  0  0  0
 52 73  1  0  0  0  0
 53 72  1  0  0  0  0
 54 55  1  0  0  0  0
 54 56  1  0  0  0  0
 55 57  1  0  0  0  0
 56 65  1  0  0  0  0
 57 80  1  0  0  0  0
 58 60  1  0  0  0  0
 58 71  1  0  0  0  0
 59 73  1  0  0  0  0
 62 65  1  0  0  0  0
 63 64  1  0  0  0  0
M  CHG  1  73   1
M  ISO  4  34 100  57 101  72 100  80 101
M  END
> <Batch ID>
0060

> <Smiles>
CNC(C)C(=O)NC(C(=O)N1Cc2cc([101O:1][101CH2:1]CCCn3ncnc3C[100N:0](C)[100C:0](=O)N3CCCC(n4nc(-c5ccc(Oc6ccc(F)cc6F)cc5)c(C(N)=O)c4N)C3)ccc2CC1C(=O)NC1CCCc2ccccc21)C(C)(C)C

> <Shape>
0.229

> <Color>
0.073

> <Negative vol penalty>
0.000

$$$$

  -OEChem-04052317553D

 81 89  0     1  0  0  0  0  0999 V2000
  -25.9830  -29.7244   19.3701 C   0  0  0  0  0  0  0  0  0  0  0  0
  -25.3985  -28.5459   18.9174 C   0  0  0  0  0  0  0  0  0  0  0  0
  -30.3380  -19.6122   18.9602 C   0  0  0  0  0  0  0  0  0  0  0  0
  -28.8533  -19.8086   20.8560 C   0  0  0  0  0  0  0  0  0  0  0  0
  -26.8405  -29.6984   20.4692 C   0  0  0  0  0  0  0  0  0  0  0  0
  -25.6719  -27.3405   19.5629 C   0  0  0  0  0  0  0  0  0  0  0  0
  -22.6165  -21.0771   21.2213 C   0  0  0  0  0  0  0  0  0  0  0  0
  -29.9916  -20.9012   18.5554 C   0  0  0  0  0  0  0  0  0  0  0  0
  -28.5069  -21.0977   20.4512 C   0  0  0  0  0  0  0  0  0  0  0  0
  -22.8428  -19.7058   21.1117 C   0  0  0  0  0  0  0  0  0  0  0  0
  -29.7714  -24.2761   17.2224 C   0  0  0  0  0  0  0  0  0  0  0  0
  -30.8007  -25.1298   16.8258 C   0  0  0  0  0  0  0  0  0  0  0  0
  -24.2773  -19.7938   23.0492 C   0  0  0  0  0  0  0  0  0  0  0  0
  -31.8079  -24.9314   19.0128 C   0  0  0  0  0  0  0  0  0  0  0  0
  -23.6052  -13.4985   20.8058 C   0  0  0  0  0  0  0  0  0  0  0  0
  -29.7688  -19.0658   20.1105 C   0  0  0  0  0  0  0  0  0  0  0  0
  -31.1768  -17.3666   21.3904 C   0  0  0  0  0  0  0  0  0  0  0  0
  -27.1170  -28.4936   21.1345 C   0  0  0  0  0  0  0  0  0  0  0  0
  -23.2285  -21.8203   22.2409 C   0  0  0  0  0  0  0  0  0  0  0  0
  -26.5349  -27.2982   20.6711 C   0  0  0  0  0  0  0  0  0  0  0  0
  -24.0550  -21.1740   23.1711 C   0  0  0  0  0  0  0  0  0  0  0  0
  -29.0761  -21.6440   19.3009 C   0  0  0  0  0  0  0  0  0  0  0  0
  -23.6756  -19.0645   22.0239 C   0  0  0  0  0  0  0  0  0  0  0  0
  -29.7603  -23.7501   18.5143 C   0  0  0  0  0  0  0  0  0  0  0  0
  -31.8190  -25.4574   17.7210 C   0  0  0  0  0  0  0  0  0  0  0  0
  -30.7786  -24.0777   19.4095 C   0  0  0  0  0  0  0  0  0  0  0  0
  -30.1257  -17.7340   20.5289 C   0  0  0  0  0  0  0  0  0  0  0  0
  -31.0941  -15.9979   21.4686 C   0  0  0  0  0  0  0  0  0  0  0  0
  -23.5930  -15.5827   20.9205 C   0  0  0  0  0  0  0  0  0  0  0  0
  -32.1415  -18.1891   22.0601 C   0  0  0  0  0  0  0  0  0  0  0  0
  -25.2903  -24.2380   22.3261 C   0  0  0  0  0  0  0  0  0  0  0  0
  -26.5141  -12.1999   20.6260 C   0  0  0  0  0  0  0  0  0  0  0  0
  -24.6822  -24.1339   25.5107 C   0  0  0  0  0  0  0  0  0  0  0  0
  -23.6463  -22.3125   28.2044 C   0  0  0  0  0  0  0  0  0  0  0  0
  -28.0874  -28.5080   22.2889 C   0  0  0  0  0  0  0  0  0  0  0  0
  -22.9529  -23.2940   22.3615 C   0  0  0  0  0  0  0  0  0  0  0  0
  -24.7198  -21.9229   24.2961 C   0  0  0  0  0  0  0  0  0  0  0  0
  -28.0308  -27.2473   23.1479 C   0  0  0  0  0  0  0  0  0  0  0  0
  -29.6923  -12.1747   18.9713 C   0  0  0  0  0  0  0  0  0  0  0  0
  -28.0232  -26.0015   22.2678 C   0  0  0  0  0  0  0  0  0  0  0  0
  -30.2467  -13.5736   19.2374 C   0  0  0  0  0  0  0  0  0  0  0  0
  -28.1771  -12.1985   18.7961 C   0  0  0  0  0  0  0  0  0  0  0  0
  -27.9960  -14.2242   20.2051 C   0  0  0  0  0  0  0  0  0  0  0  0
  -26.7875  -25.9748   21.3602 C   0  0  1  0  0  0  0  0  0  0  0  0
  -24.0364  -24.0435   23.1308 C   0  0  1  0  0  0  0  0  0  0  0  0
  -29.5200  -14.2407   20.4187 C   0  0  2  0  0  0  0  0  0  0  0  0
  -23.2919  -22.4881   30.6825 C   0  0  0  0  0  0  0  0  0  0  0  0
  -27.6951  -23.9412   25.9528 C   0  0  0  0  0  0  0  0  0  0  0  0
  -27.2327  -23.1747   28.2909 C   0  0  0  0  0  0  0  0  0  0  0  0
  -26.4995  -25.4429   27.5558 C   0  0  0  0  0  0  0  0  0  0  0  0
  -20.7537  -21.7410   27.9484 C   0  0  0  0  0  0  0  0  0  0  0  0
  -23.2475  -17.0411   20.8498 C   0  0  0  0  0  0  0  0  0  1  0  0
  -25.8933  -12.9436   21.7817 C   0  0  2  0  0  0  0  0  0  0  0  0
  -25.2796  -23.4048   26.6899 C   0  0  1  0  0  0  0  0  0  0  0  0
  -22.6529  -22.6241   29.3093 C   0  0  2  0  0  0  0  0  0  0  0  0
  -26.6659  -23.9769   27.1001 C   0  0  0  0  0  0  0  0  0  0  0  0
  -25.5013  -11.9717   22.8840 C   0  0  0  0  0  0  0  0  0  0  0  0
  -22.8315  -14.5885   20.5267 N   0  0  0  0  0  0  0  0  0  0  0  0
  -29.4268  -16.6834   20.0911 N   0  0  0  0  0  0  0  0  0  0  0  0
  -24.7646  -15.0956   21.4103 N   0  0  0  0  0  0  0  0  0  0  0  0
  -24.7976  -13.7557   21.3477 N   0  0  0  0  0  0  0  0  0  0  0  0
  -30.0399  -15.6424   20.6797 N   0  0  0  0  0  0  0  0  0  0  0  0
  -24.4242  -23.3633   24.3681 N   0  0  0  0  0  0  0  0  0  0  0  0
  -27.5255  -12.8600   19.9280 N   0  0  0  0  0  0  0  0  0  0  0  0
  -31.8212  -15.0757   22.1345 N   0  0  0  0  0  0  0  0  0  0  0  0
  -32.0836  -19.5765   21.8701 N   0  0  0  0  0  0  0  0  0  0  0  0
  -25.6195  -25.5623   22.1086 N   0  0  0  0  0  0  0  0  0  0  0  0
  -24.2771  -23.4508   27.7488 N   0  0  0  0  0  0  0  0  0  0  0  0
  -21.4902  -21.6946   29.2377 N   0  3  0  0  0  0  0  0  0  0  0  0
  -33.0388  -17.7067   22.7920 O   0  0  0  0  0  0  0  0  0  0  0  0
  -25.9139  -23.2591   21.9330 O   0  0  0  0  0  0  0  0  0  0  0  0
  -26.1127  -11.0651   20.3552 O   0  0  0  0  0  0  0  0  0  0  0  0
  -24.4464  -25.3412   25.6025 O   0  0  0  0  0  0  0  0  0  0  0  0
  -23.8456  -21.1728   27.7899 O   0  0  0  0  0  0  0  0  0  0  0  0
  -28.7381  -22.9020   18.9062 O   0  0  0  0  0  0  0  0  0  0  0  0
  -23.8988  -17.7262   21.9188 O   0  0  0  0  0  0  0  0  0  1  0  0
  -32.8082  -26.2761   17.3395 F   0  0  0  0  0  0  0  0  0  0  0  0
  -30.7739  -23.5746   20.6515 F   0  0  0  0  0  0  0  0  0  0  0  0
  -25.0435  -12.5985   23.9879 F   0  0  0  0  0  0  0  0  0  0  0  0
  -26.5527  -11.2044   23.2512 F   0  0  0  0  0  0  0  0  0  0  0  0
  -24.5280  -11.1339   22.4574 F   0  0  0  0  0  0  0  0  0  0  0  0
  1  2  1  0  0  0  0
  1  5  2  0  0  0  0
  2  6  2  0  0  0  0
  3  8  2  0  0  0  0
  3 16  1  0  0  0  0
  4  9  1  0  0  0  0
  4 16  2  0  0  0  0
  5 18  1  0  0  0  0
  6 20  1  0  0  0  0
  7 10  2  0  0  0  0
  7 19  1  0  0  0  0
  8 22  1  0  0  0  0
  9 22  2  0  0  0  0
 10 23  1  0  0  0  0
 11 12  2  0  0  0  0
 11 24  1  0  0  0  0
 12 25  1  0  0  0  0
 13 21  1  0  0  0  0
 13 23  2  0  0  0  0
 14 25  2  0  0  0  0
 14 26  1  0  0  0  0
 15 58  2  0  0  0  0
 15 61  1  0  0  0  0
 16 27  1  0  0  0  0
 17 27  1  0  0  0  0
 17 28  2  0  0  0  0
 17 30  1  0  0  0  0
 18 20  2  0  0  0  0
 18 35  1  0  0  0  0
 19 21  2  0  0  0  0
 19 36  1  0  0  0  0
 20 44  1  0  0  0  0
 21 37  1  0  0  0  0
 22 75  1  0  0  0  0
 23 76  1  0  0  0  0
 24 26  2  0  0  0  0
 24 75  1  0  0  0  0
 25 77  1  0  0  0  0
 26 78  1  0  0  0  0
 27 59  2  0  0  0  0
 28 62  1  0  0  0  0
 28 65  1  0  0  0  0
 29 52  1  0  0  0  0
 29 58  1  0  0  0  0
 29 60  2  0  0  0  0
 30 66  1  0  0  0  0
 30 70  2  0  0  0  0
 31 45  1  0  0  0  0
 31 67  1  0  0  0  0
 31 71  2  0  0  0  0
 32 53  1  0  0  0  0
 32 64  1  0  0  0  0
 32 72  2  0  0  0  0
 33 54  1  0  0  0  0
 33 63  1  0  0  0  0
 33 73  2  0  0  0  0
 34 55  1  0  0  0  0
 34 68  1  0  0  0  0
 34 74  2  0  0  0  0
 35 38  1  0  0  0  0
 36 45  1  0  0  0  0
 37 63  1  0  0  0  0
 38 40  1  0  0  0  0
 39 41  1  0  0  0  0
 39 42  1  0  0  0  0
 40 44  1  0  0  0  0
 41 46  1  0  0  0  0
 42 64  1  0  0  0  0
 43 46  1  0  0  0  0
 43 64  1  0  0  0  0
 44 67  1  0  0  0  0
 45 63  1  0  0  0  0
 46 62  1  0  0  0  0
 47 55  1  0  0  0  0
 48 56  1  0  0  0  0
 49 56  1  0  0  0  0
 50 56  1  0  0  0  0
 51 69  1  0  0  0  0
 52 76  1  0  0  0  0
 53 57  1  0  0  0  0
 53 61  1  0  0  0  0
 54 56  1  0  0  0  0
 54 68  1  0  0  0  0
 55 69  1  0  0  0  0
 57 79  1  0  0  0  0
 57 80  1  0  0  0  0
 57 81  1  0  0  0  0
 59 62  1  0  0  0  0
 60 61  1  0  0  0  0
M  CHG  1  69   1
M  ISO  4  32 100  52 101  53 100  76 101
M  END
> <Batch ID>
0060

> <Smiles>
CNC(C)C(=O)NC(C(=O)N1Cc2cc([101O:1][101CH2:1]c3ncn([100CH:0]([100C:0](=O)N4CCCC(n5nc(-c6ccc(Oc7ccc(F)cc7F)cc6)c(C(N)=O)c5N)C4)C(F)(F)F)n3)ccc2CC1C(=O)NC1CCCc2ccccc21)C(C)(C)C

> <Shape>
0.200

> <Color>
0.088

> <Negative vol penalty>
0.000

$$$$

  -OEChem-04052317553D

 84 92  0     1  0  0  0  0  0999 V2000
  -17.6797  -30.4107   22.7754 C   0  0  0  0  0  0  0  0  0  0  0  0
  -18.9928  -29.9525   22.7392 C   0  0  0  0  0  0  0  0  0  0  0  0
  -25.5297  -14.4246   20.8480 C   0  0  0  0  0  0  0  0  0  0  0  0
  -25.6878  -14.3400   18.4387 C   0  0  0  0  0  0  0  0  0  0  0  0
  -16.6879  -29.6342   23.3731 C   0  0  0  0  0  0  0  0  0  0  0  0
  -19.3150  -28.7179   23.3018 C   0  0  0  0  0  0  0  0  0  0  0  0
  -22.3498  -25.9613   20.3293 C   0  0  0  0  0  0  0  0  0  0  0  0
  -24.6142  -13.3726   20.8249 C   0  0  0  0  0  0  0  0  0  0  0  0
  -24.7723  -13.2879   18.4156 C   0  0  0  0  0  0  0  0  0  0  0  0
  -23.7025  -26.2987   20.3127 C   0  0  0  0  0  0  0  0  0  0  0  0
  -24.6939  -10.0080   20.4991 C   0  0  0  0  0  0  0  0  0  0  0  0
  -24.8689   -8.9760   21.4210 C   0  0  0  0  0  0  0  0  0  0  0  0
  -24.1665  -24.4882   21.8379 C   0  0  0  0  0  0  0  0  0  0  0  0
  -22.6862   -9.4352   22.3494 C   0  0  0  0  0  0  0  0  0  0  0  0
  -26.0665  -14.9084   19.6549 C   0  0  0  0  0  0  0  0  0  0  0  0
  -28.4132  -15.9017   19.7731 C   0  0  0  0  0  0  0  0  0  0  0  0
  -16.9963  -28.3852   23.9347 C   0  0  0  0  0  0  0  0  0  0  0  0
  -21.8930  -24.8898   21.1101 C   0  0  0  0  0  0  0  0  0  0  0  0
  -18.3266  -27.9246   23.9088 C   0  0  0  0  0  0  0  0  0  0  0  0
  -22.8080  -24.1377   21.8606 C   0  0  0  0  0  0  0  0  0  0  0  0
  -24.2356  -12.8041   19.6087 C   0  0  0  0  0  0  0  0  0  0  0  0
  -24.6107  -25.5639   21.0693 C   0  0  0  0  0  0  0  0  0  0  0  0
  -23.5150  -10.7536   20.5023 C   0  0  0  0  0  0  0  0  0  0  0  0
  -23.8651   -8.6896   22.3461 C   0  0  0  0  0  0  0  0  0  0  0  0
  -22.5112  -10.4672   21.4274 C   0  0  0  0  0  0  0  0  0  0  0  0
  -27.0118  -15.9956   19.6781 C   0  0  0  0  0  0  0  0  0  0  0  0
  -28.8467  -17.2049   19.7550 C   0  0  0  0  0  0  0  0  0  0  0  0
  -29.5760  -28.4541   20.8647 C   0  0  0  0  0  0  0  0  0  0  0  0
  -27.8035  -27.1820   20.3384 C   0  0  0  0  0  0  0  0  0  0  0  0
  -29.8817  -26.3838   20.0539 C   0  0  0  0  0  0  0  0  0  0  0  0
  -29.2485  -14.7403   19.8692 C   0  0  0  0  0  0  0  0  0  0  0  0
  -19.8842  -24.5926   23.5555 C   0  0  0  0  0  0  0  0  0  0  0  0
  -20.4143  -21.4248   23.1013 C   0  0  0  0  0  0  0  0  0  0  0  0
  -22.4661  -18.9725   21.9084 C   0  0  0  0  0  0  0  0  0  0  0  0
  -28.3896  -22.2570   17.1891 C   0  0  0  0  0  0  0  0  0  0  0  0
  -15.8990  -27.6027   24.6117 C   0  0  0  0  0  0  0  0  0  0  0  0
  -20.4346  -24.5220   21.0962 C   0  0  0  0  0  0  0  0  0  0  0  0
  -22.3714  -22.9655   22.6997 C   0  0  0  0  0  0  0  0  0  0  0  0
  -16.2550  -26.1379   24.8527 C   0  0  0  0  0  0  0  0  0  0  0  0
  -26.3005  -21.5462   20.1610 C   0  0  0  0  0  0  0  0  0  0  0  0
  -17.6550  -26.0195   25.4467 C   0  0  0  0  0  0  0  0  0  0  0  0
  -26.3638  -20.0227   20.2559 C   0  0  0  0  0  0  0  0  0  0  0  0
  -26.4706  -22.0325   18.7249 C   0  0  0  0  0  0  0  0  0  0  0  0
  -27.7665  -20.0051   18.1553 C   0  0  0  0  0  0  0  0  0  0  0  0
  -18.7110  -26.5797   24.4862 C   0  0  1  0  0  0  0  0  0  0  0  0
  -20.0057  -23.7328   22.3293 C   0  0  1  0  0  0  0  0  0  0  0  0
  -27.6450  -19.4846   19.5954 C   0  0  2  0  0  0  0  0  0  0  0  0
  -30.1386  -29.7355   21.3789 C   0  0  0  0  0  0  0  0  0  0  0  0
  -22.6480  -16.4771   21.7157 C   0  0  0  0  0  0  0  0  0  0  0  0
  -21.1571  -21.2532   26.0558 C   0  0  0  0  0  0  0  0  0  0  0  0
  -22.2153  -19.0327   25.5891 C   0  0  0  0  0  0  0  0  0  0  0  0
  -19.7691  -19.3495   25.2167 C   0  0  0  0  0  0  0  0  0  0  0  0
  -30.4599  -22.2868   15.8503 C   0  0  0  0  0  0  0  0  0  0  0  0
  -22.5171  -19.0884   18.9516 C   0  0  0  0  0  0  0  0  0  0  0  0
  -26.3172  -26.9997   20.2434 C   0  0  0  0  0  0  0  0  0  1  0  0
  -31.2000  -23.1933   18.7864 C   0  0  0  0  0  0  0  0  0  0  0  0
  -30.6422  -21.8718   18.2752 C   0  0  0  0  0  0  0  0  0  0  0  0
  -30.1110  -24.1803   19.1892 C   0  0  0  0  0  0  0  0  0  0  0  0
  -21.4144  -20.4224   23.6248 C   0  0  1  0  0  0  0  0  0  0  0  0
  -22.1865  -17.7591   21.0402 C   0  0  2  0  0  0  0  0  0  0  0  0
  -21.1472  -20.0377   25.1074 C   0  0  0  0  0  0  0  0  0  0  0  0
  -26.5834  -17.2586   19.6051 N   0  0  0  0  0  0  0  0  0  0  0  0
  -28.2373  -28.3622   20.8093 N   0  0  0  0  0  0  0  0  0  0  0  0
  -30.4593  -27.5088   20.5052 N   0  0  0  0  0  0  0  0  0  0  0  0
  -28.5643  -26.1489   19.9425 N   0  0  0  0  0  0  0  0  0  0  0  0
  -27.7223  -17.9703   19.6544 N   0  0  0  0  0  0  0  0  0  0  0  0
  -20.9342  -22.6492   22.6580 N   0  0  0  0  0  0  0  0  0  0  0  0
  -27.6727  -21.4719   18.1070 N   0  0  0  0  0  0  0  0  0  0  0  0
  -30.0761  -17.7592   19.8155 N   0  0  0  0  0  0  0  0  0  0  0  0
  -28.6396  -13.4780   19.8743 N   0  0  0  0  0  0  0  0  0  0  0  0
  -18.9833  -25.6325   23.4264 N   0  0  0  0  0  0  0  0  0  0  0  0
  -21.3840  -19.2945   22.7000 N   0  0  0  0  0  0  0  0  0  0  0  0
  -29.7747  -22.0469   17.1124 N   0  0  0  0  0  0  0  0  0  0  0  0
  -22.8931  -17.8828   19.7340 N   0  3  0  0  0  0  0  0  0  0  0  0
  -30.4967  -14.8202   19.9646 O   0  0  0  0  0  0  0  0  0  0  0  0
  -20.5567  -24.3311   24.5459 O   0  0  0  0  0  0  0  0  0  0  0  0
  -19.2168  -21.1296   23.0797 O   0  0  0  0  0  0  0  0  0  0  0  0
  -23.5387  -19.5724   21.8892 O   0  0  0  0  0  0  0  0  0  0  0  0
  -27.8251  -23.1045   16.4855 O   0  0  0  0  0  0  0  0  0  0  0  0
  -23.3424  -11.7773   19.5858 O   0  0  0  0  0  0  0  0  0  0  0  0
  -25.9314  -25.8915   21.0555 O   0  0  0  0  0  0  0  0  0  1  0  0
  -30.7250  -25.3690   19.6661 O   0  0  0  0  0  0  0  0  0  0  0  0
  -24.0327   -7.6975   23.2304 F   0  0  0  0  0  0  0  0  0  0  0  0
  -21.3759  -11.1793   21.4346 F   0  0  0  0  0  0  0  0  0  0  0  0
  1  2  1  0  0  0  0
  1  5  2  0  0  0  0
  2  6  2  0  0  0  0
  3  8  2  0  0  0  0
  3 15  1  0  0  0  0
  4  9  1  0  0  0  0
  4 15  2  0  0  0  0
  5 17  1  0  0  0  0
  6 19  1  0  0  0  0
  7 10  2  0  0  0  0
  7 18  1  0  0  0  0
  8 21  1  0  0  0  0
  9 21  2  0  0  0  0
 10 22  1  0  0  0  0
 11 12  2  0  0  0  0
 11 23  1  0  0  0  0
 12 24  1  0  0  0  0
 13 20  1  0  0  0  0
 13 22  2  0  0  0  0
 14 24  2  0  0  0  0
 14 25  1  0  0  0  0
 15 26  1  0  0  0  0
 16 26  1  0  0  0  0
 16 27  2  0  0  0  0
 16 31  1  0  0  0  0
 17 19  2  0  0  0  0
 17 36  1  0  0  0  0
 18 20  2  0  0  0  0
 18 37  1  0  0  0  0
 19 45  1  0  0  0  0
 20 38  1  0  0  0  0
 21 80  1  0  0  0  0
 22 81  1  0  0  0  0
 23 25  2  0  0  0  0
 23 80  1  0  0  0  0
 24 83  1  0  0  0  0
 25 84  1  0  0  0  0
 26 62  2  0  0  0  0
 27 66  1  0  0  0  0
 27 69  1  0  0  0  0
 28 48  1  0  0  0  0
 28 63  2  0  0  0  0
 28 64  1  0  0  0  0
 29 55  1  0  0  0  0
 29 63  1  0  0  0  0
 29 65  2  0  0  0  0
 30 64  2  0  0  0  0
 30 65  1  0  0  0  0
 30 82  1  0  0  0  0
 31 70  1  0  0  0  0
 31 75  2  0  0  0  0
 32 46  1  0  0  0  0
 32 71  1  0  0  0  0
 32 76  2  0  0  0  0
 33 59  1  0  0  0  0
 33 67  1  0  0  0  0
 33 77  2  0  0  0  0
 34 60  1  0  0  0  0
 34 72  1  0  0  0  0
 34 78  2  0  0  0  0
 35 68  1  0  0  0  0
 35 73  1  0  0  0  0
 35 79  2  0  0  0  0
 36 39  1  0  0  0  0
 37 46  1  0  0  0  0
 38 67  1  0  0  0  0
 39 41  1  0  0  0  0
 40 42  1  0  0  0  0
 40 43  1  0  0  0  0
 41 45  1  0  0  0  0
 42 47  1  0  0  0  0
 43 68  1  0  0  0  0
 44 47  1  0  0  0  0
 44 68  1  0  0  0  0
 45 71  1  0  0  0  0
 46 67  1  0  0  0  0
 47 66  1  0  0  0  0
 49 60  1  0  0  0  0
 50 61  1  0  0  0  0
 51 61  1  0  0  0  0
 52 61  1  0  0  0  0
 53 73  1  0  0  0  0
 54 74  1  0  0  0  0
 55 81  1  0  0  0  0
 56 57  1  0  0  0  0
 56 58  1  0  0  0  0
 57 73  1  0  0  0  0
 58 82  1  0  0  0  0
 59 61  1  0  0  0  0
 59 72  1  0  0  0  0
 60 74  1  0  0  0  0
 62 66  1  0  0  0  0
M  CHG  1  74   1
M  ISO  4  35 100  55 101  73 100  81 101
M  END
> <Batch ID>
0060

> <Smiles>
CNC(C)C(=O)NC(C(=O)N1Cc2cc([101O:1][101CH2:1]c3nc(C)nc(OCCC[100N:0](C)[100C:0](=O)N4CCCC(n5nc(-c6ccc(Oc7ccc(F)cc7F)cc6)c(C(N)=O)c5N)C4)n3)ccc2CC1C(=O)NC1CCCc2ccccc21)C(C)(C)C

> <Shape>
0.206

> <Color>
0.082

> <Negative vol penalty>
0.000

$$$$

  -OEChem-04052317553D

 81 89  0     1  0  0  0  0  0999 V2000
  -27.6520  -11.0773   22.7493 C   0  0  0  0  0  0  0  0  0  0  0  0
  -28.1378  -12.3649   22.5517 C   0  0  0  0  0  0  0  0  0  0  0  0
  -22.5160  -29.8027   21.2862 C   0  0  0  0  0  0  0  0  0  0  0  0
  -23.7756  -28.8851   23.1325 C   0  0  0  0  0  0  0  0  0  0  0  0
  -26.4701  -10.6795   22.1278 C   0  0  0  0  0  0  0  0  0  0  0  0
  -27.4359  -13.2588   21.7424 C   0  0  0  0  0  0  0  0  0  0  0  0
  -28.8186  -18.9219   19.9689 C   0  0  0  0  0  0  0  0  0  0  0  0
  -21.4378  -30.0386   22.1391 C   0  0  0  0  0  0  0  0  0  0  0  0
  -22.6974  -29.1211   23.9854 C   0  0  0  0  0  0  0  0  0  0  0  0
  -29.4660  -19.5355   18.8974 C   0  0  0  0  0  0  0  0  0  0  0  0
  -18.2219  -30.5521   23.7572 C   0  0  0  0  0  0  0  0  0  0  0  0
  -16.9489  -30.2008   23.3082 C   0  0  0  0  0  0  0  0  0  0  0  0
  -27.3340  -19.9170   17.8354 C   0  0  0  0  0  0  0  0  0  0  0  0
  -17.6590  -27.9015   23.0940 C   0  0  0  0  0  0  0  0  0  0  0  0
  -30.6348  -23.3829   15.5778 C   0  0  0  0  0  0  0  0  0  0  0  0
  -29.1279  -24.8316   14.8802 C   0  0  0  0  0  0  0  0  0  0  0  0
  -23.6849  -29.2259   21.7829 C   0  0  0  0  0  0  0  0  0  0  0  0
  -25.8619  -29.8576   20.6127 C   0  0  0  0  0  0  0  0  0  0  0  0
  -25.7605  -11.5656   21.3007 C   0  0  0  0  0  0  0  0  0  0  0  0
  -27.4224  -18.7913   19.9766 C   0  0  0  0  0  0  0  0  0  0  0  0
  -26.2286  -12.8838   21.1257 C   0  0  0  0  0  0  0  0  0  0  0  0
  -26.6710  -19.3037   18.9094 C   0  0  0  0  0  0  0  0  0  0  0  0
  -21.5285  -29.6979   23.4887 C   0  0  0  0  0  0  0  0  0  0  0  0
  -28.7240  -20.0306   17.8291 C   0  0  0  0  0  0  0  0  0  0  0  0
  -19.2135  -29.5781   23.8746 C   0  0  0  0  0  0  0  0  0  0  0  0
  -16.6674  -28.8755   22.9766 C   0  0  0  0  0  0  0  0  0  0  0  0
  -18.9320  -28.2528   23.5429 C   0  0  0  0  0  0  0  0  0  0  0  0
  -24.7988  -28.9813   20.9023 C   0  0  0  0  0  0  0  0  0  0  0  0
  -29.6567  -22.7705   14.8303 C   0  0  0  0  0  0  0  0  0  0  0  0
  -26.6502  -29.1610   19.7297 C   0  0  0  0  0  0  0  0  0  0  0  0
  -26.1142  -31.1827   21.0986 C   0  0  0  0  0  0  0  0  0  0  0  0
  -25.3989  -16.3402   20.0177 C   0  0  0  0  0  0  0  0  0  0  0  0
  -23.1780  -18.6827   20.3382 C   0  0  0  0  0  0  0  0  0  0  0  0
  -22.3260  -21.9524   19.8593 C   0  0  0  0  0  0  0  0  0  0  0  0
  -29.1686  -24.1873   18.6174 C   0  0  0  0  0  0  0  0  0  0  0  0
  -24.4828  -11.0852   20.6590 C   0  0  0  0  0  0  0  0  0  0  0  0
  -26.7371  -18.1507   21.1524 C   0  0  0  0  0  0  0  0  0  0  0  0
  -25.1683  -19.2067   18.8789 C   0  0  0  0  0  0  0  0  0  0  0  0
  -24.0506  -11.9467   19.4769 C   0  0  0  0  0  0  0  0  0  0  0  0
  -25.8075  -24.8610   17.2208 C   0  0  0  0  0  0  0  0  0  0  0  0
  -24.0747  -13.4166   19.8688 C   0  0  0  0  0  0  0  0  0  0  0  0
  -25.3139  -26.0201   18.0850 C   0  0  0  0  0  0  0  0  0  0  0  0
  -26.7959  -23.9743   17.9721 C   0  0  0  0  0  0  0  0  0  0  0  0
  -27.4591  -25.8730   19.4105 C   0  0  0  0  0  0  0  0  0  0  0  0
  -25.4981  -13.8636   20.2252 C   0  0  1  0  0  0  0  0  0  0  0  0
  -25.3499  -17.6128   20.8151 C   0  0  1  0  0  0  0  0  0  0  0  0
  -26.4971  -26.8124   18.6679 C   0  0  2  0  0  0  0  0  0  0  0  0
  -20.4294  -23.5625   20.1884 C   0  0  0  0  0  0  0  0  0  0  0  0
  -21.7369  -17.4724   17.9364 C   0  0  0  0  0  0  0  0  0  0  0  0
  -20.4396  -19.6036   17.7290 C   0  0  0  0  0  0  0  0  0  0  0  0
  -20.2319  -18.2147   19.7906 C   0  0  0  0  0  0  0  0  0  0  0  0
  -31.5058  -24.7087   19.2050 C   0  0  0  0  0  0  0  0  0  0  0  0
  -23.9354  -23.6598   21.6631 C   0  0  0  0  0  0  0  0  0  0  0  0
  -29.5325  -21.3097   14.4715 C   0  0  0  0  0  0  0  0  0  0  0  0
  -30.9942  -25.7656   16.2681 C   0  0  0  0  0  0  0  0  0  0  0  0
  -30.3517  -26.1746   17.5910 C   0  0  0  0  0  0  0  0  0  0  0  0
  -28.7286  -20.5255   15.5030 C   0  0  0  0  0  0  0  0  0  1  0  0
  -22.3597  -19.5180   19.3834 C   0  0  1  0  0  0  0  0  0  0  0  0
  -21.6981  -22.9762   20.7879 C   0  0  2  0  0  0  0  0  0  0  0  0
  -21.2205  -18.7024   18.7092 C   0  0  0  0  0  0  0  0  0  0  0  0
  -28.7218  -23.6778   14.3988 N   0  0  0  0  0  0  0  0  0  0  0  0
  -24.8995  -27.8170   20.2555 N   0  0  0  0  0  0  0  0  0  0  0  0
  -30.2827  -24.7030   15.6006 N   0  0  0  0  0  0  0  0  0  0  0  0
  -26.0352  -27.9569   19.5508 N   0  0  0  0  0  0  0  0  0  0  0  0
  -24.5449  -18.5662   20.0488 N   0  0  0  0  0  0  0  0  0  0  0  0
  -27.8869  -24.7580   18.5523 N   0  0  0  0  0  0  0  0  0  0  0  0
  -27.8026  -29.4671   19.0966 N   0  0  0  0  0  0  0  0  0  0  0  0
  -25.2028  -31.7485   22.0006 N   0  0  0  0  0  0  0  0  0  0  0  0
  -25.4478  -15.1946   20.7888 N   0  0  0  0  0  0  0  0  0  0  0  0
  -21.8975  -20.6733   20.1448 N   0  0  0  0  0  0  0  0  0  0  0  0
  -30.2630  -25.0614   18.5335 N   0  0  0  0  0  0  0  0  0  0  0  0
  -22.6520  -24.0905   21.0512 N   0  3  0  0  0  0  0  0  0  0  0  0
  -27.1095  -31.8517   20.7306 O   0  0  0  0  0  0  0  0  0  0  0  0
  -25.3914  -16.3938   18.7934 O   0  0  0  0  0  0  0  0  0  0  0  0
  -22.6260  -18.1589   21.3091 O   0  0  0  0  0  0  0  0  0  0  0  0
  -23.1145  -22.2574   18.9673 O   0  0  0  0  0  0  0  0  0  0  0  0
  -29.3258  -22.9651   18.7338 O   0  0  0  0  0  0  0  0  0  0  0  0
  -20.4767  -29.9283   24.3212 O   0  0  0  0  0  0  0  0  0  0  0  0
  -29.3535  -20.6294   16.7817 O   0  0  0  0  0  0  0  0  0  1  0  0
  -15.4445  -28.5381   22.5469 F   0  0  0  0  0  0  0  0  0  0  0  0
  -19.8802  -27.3124   23.6547 F   0  0  0  0  0  0  0  0  0  0  0  0
  1  2  1  0  0  0  0
  1  5  2  0  0  0  0
  2  6  2  0  0  0  0
  3  8  2  0  0  0  0
  3 17  1  0  0  0  0
  4  9  1  0  0  0  0
  4 17  2  0  0  0  0
  5 19  1  0  0  0  0
  6 21  1  0  0  0  0
  7 10  2  0  0  0  0
  7 20  1  0  0  0  0
  8 23  1  0  0  0  0
  9 23  2  0  0  0  0
 10 24  1  0  0  0  0
 11 12  2  0  0  0  0
 11 25  1  0  0  0  0
 12 26  1  0  0  0  0
 13 22  1  0  0  0  0
 13 24  2  0  0  0  0
 14 26  2  0  0  0  0
 14 27  1  0  0  0  0
 15 29  2  0  0  0  0
 15 63  1  0  0  0  0
 16 61  2  0  0  0  0
 16 63  1  0  0  0  0
 17 28  1  0  0  0  0
 18 28  1  0  0  0  0
 18 30  2  0  0  0  0
 18 31  1  0  0  0  0
 19 21  2  0  0  0  0
 19 36  1  0  0  0  0
 20 22  2  0  0  0  0
 20 37  1  0  0  0  0
 21 45  1  0  0  0  0
 22 38  1  0  0  0  0
 23 78  1  0  0  0  0
 24 79  1  0  0  0  0
 25 27  2  0  0  0  0
 25 78  1  0  0  0  0
 26 80  1  0  0  0  0
 27 81  1  0  0  0  0
 28 62  2  0  0  0  0
 29 54  1  0  0  0  0
 29 61  1  0  0  0  0
 30 64  1  0  0  0  0
 30 67  1  0  0  0  0
 31 68  1  0  0  0  0
 31 73  2  0  0  0  0
 32 46  1  0  0  0  0
 32 69  1  0  0  0  0
 32 74  2  0  0  0  0
 33 58  1  0  0  0  0
 33 65  1  0  0  0  0
 33 75  2  0  0  0  0
 34 59  1  0  0  0  0
 34 70  1  0  0  0  0
 34 76  2  0  0  0  0
 35 66  1  0  0  0  0
 35 71  1  0  0  0  0
 35 77  2  0  0  0  0
 36 39  1  0  0  0  0
 37 46  1  0  0  0  0
 38 65  1  0  0  0  0
 39 41  1  0  0  0  0
 40 42  1  0  0  0  0
 40 43  1  0  0  0  0
 41 45  1  0  0  0  0
 42 47  1  0  0  0  0
 43 66  1  0  0  0  0
 44 47  1  0  0  0  0
 44 66  1  0  0  0  0
 45 69  1  0  0  0  0
 46 65  1  0  0  0  0
 47 64  1  0  0  0  0
 48 59  1  0  0  0  0
 49 60  1  0  0  0  0
 50 60  1  0  0  0  0
 51 60  1  0  0  0  0
 52 71  1  0  0  0  0
 53 72  1  0  0  0  0
 54 57  1  0  0  0  0
 55 56  1  0  0  0  0
 55 63  1  0  0  0  0
 56 71  1  0  0  0  0
 57 79  1  0  0  0  0
 58 60  1  0  0  0  0
 58 70  1  0  0  0  0
 59 72  1  0  0  0  0
 62 64  1  0  0  0  0
M  CHG  1  72   1
M  ISO  4  35 100  57 101  71 100  79 101
M  END
> <Batch ID>
0060

> <Smiles>
CNC(C)C(=O)NC(C(=O)N1Cc2cc([101O:1][101CH2:1]Cc3cn(CC[100N:0](C)[100C:0](=O)N4CCCC(n5nc(-c6ccc(Oc7ccc(F)cc7F)cc6)c(C(N)=O)c5N)C4)cn3)ccc2CC1C(=O)NC1CCCc2ccccc21)C(C)(C)C

> <Shape>
0.232

> <Color>
0.085

> <Negative vol penalty>
0.000

$$$$
