
  -OEChem-04052317583D

 82 90  0     1  0  0  0  0  0999 V2000
  -21.8097  -12.3663   19.3080 C   0  0  0  0  0  0  0  0  0  0  0  0
  -21.7462  -13.7000   19.6988 C   0  0  0  0  0  0  0  0  0  0  0  0
  -28.7061  -26.2070   21.1356 C   0  0  0  0  0  0  0  0  0  0  0  0
  -29.1291  -28.5181   21.6983 C   0  0  0  0  0  0  0  0  0  0  0  0
  -22.9752  -11.6324   19.5245 C   0  0  0  0  0  0  0  0  0  0  0  0
  -22.8479  -14.3003   20.3072 C   0  0  0  0  0  0  0  0  0  0  0  0
  -23.8241  -18.9076   18.4459 C   0  0  0  0  0  0  0  0  0  0  0  0
  -29.9184  -25.8424   21.7213 C   0  0  0  0  0  0  0  0  0  0  0  0
  -30.3414  -28.1536   22.2841 C   0  0  0  0  0  0  0  0  0  0  0  0
  -23.0183  -19.9564   18.8870 C   0  0  0  0  0  0  0  0  0  0  0  0
  -31.1245  -25.3310   24.8385 C   0  0  0  0  0  0  0  0  0  0  0  0
  -31.1305  -24.2149   25.6750 C   0  0  0  0  0  0  0  0  0  0  0  0
  -24.7430  -20.6220   20.4367 C   0  0  0  0  0  0  0  0  0  0  0  0
  -32.7384  -23.1390   24.2278 C   0  0  0  0  0  0  0  0  0  0  0  0
  -22.2543  -25.0811   21.6468 C   0  0  0  0  0  0  0  0  0  0  0  0
  -28.3115  -27.5449   21.1240 C   0  0  0  0  0  0  0  0  0  0  0  0
  -26.6725  -27.7335   19.1783 C   0  0  0  0  0  0  0  0  0  0  0  0
  -24.0952  -12.2267   20.1271 C   0  0  0  0  0  0  0  0  0  0  0  0
  -25.0932  -18.7013   19.0056 C   0  0  0  0  0  0  0  0  0  0  0  0
  -24.0291  -13.5733   20.5331 C   0  0  0  0  0  0  0  0  0  0  0  0
  -25.5640  -19.5714   19.9992 C   0  0  0  0  0  0  0  0  0  0  0  0
  -30.7360  -26.8157   22.2956 C   0  0  0  0  0  0  0  0  0  0  0  0
  -23.4765  -20.8120   19.8845 C   0  0  0  0  0  0  0  0  0  0  0  0
  -31.9254  -25.3511   23.6966 C   0  0  0  0  0  0  0  0  0  0  0  0
  -31.9375  -23.1189   25.3697 C   0  0  0  0  0  0  0  0  0  0  0  0
  -32.7324  -24.2551   23.3913 C   0  0  0  0  0  0  0  0  0  0  0  0
  -27.0596  -27.9222   20.5186 C   0  0  0  0  0  0  0  0  0  0  0  0
  -22.2062  -23.7167   21.7000 C   0  0  0  0  0  0  0  0  0  0  0  0
  -25.4055  -28.2592   19.1096 C   0  0  0  0  0  0  0  0  0  0  0  0
  -20.2617  -24.4973   22.4145 C   0  0  0  0  0  0  0  0  0  0  0  0
  -27.3937  -27.1363   18.0925 C   0  0  0  0  0  0  0  0  0  0  0  0
  -26.4688  -16.3464   20.6384 C   0  0  0  0  0  0  0  0  0  0  0  0
  -21.1847  -29.1176   23.3000 C   0  0  0  0  0  0  0  0  0  0  0  0
  -29.1171  -18.1907   20.3116 C   0  0  0  0  0  0  0  0  0  0  0  0
  -30.4414  -21.2958   19.8096 C   0  0  0  0  0  0  0  0  0  0  0  0
  -25.3167  -11.3800   20.3832 C   0  0  0  0  0  0  0  0  0  0  0  0
  -25.9611  -17.5815   18.5001 C   0  0  0  0  0  0  0  0  0  0  0  0
  -26.9270  -19.4051   20.6182 C   0  0  0  0  0  0  0  0  0  0  0  0
  -26.5690  -12.1956   20.6941 C   0  0  0  0  0  0  0  0  0  0  0  0
  -22.6041  -31.5719   21.1087 C   0  0  0  0  0  0  0  0  0  0  0  0
  -26.2569  -13.2843   21.7160 C   0  0  0  0  0  0  0  0  0  0  0  0
  -23.8869  -30.9083   20.6094 C   0  0  0  0  0  0  0  0  0  0  0  0
  -22.3058  -31.1921   22.5557 C   0  0  0  0  0  0  0  0  0  0  0  0
  -23.5218  -29.0529   22.2974 C   0  0  0  0  0  0  0  0  0  0  0  0
  -25.2119  -14.2668   21.1736 C   0  0  1  0  0  0  0  0  0  0  0  0
  -27.0291  -17.1542   19.5022 C   0  0  1  0  0  0  0  0  0  0  0  0
  -23.8435  -29.3858   20.8297 C   0  0  2  0  0  0  0  0  0  0  0  0
  -17.8592  -25.1959   20.7003 C   0  0  0  0  0  0  0  0  0  0  0  0
  -20.4719  -27.2280   24.6964 C   0  0  0  0  0  0  0  0  0  0  0  0
  -32.6385  -22.4947   19.6296 C   0  0  0  0  0  0  0  0  0  0  0  0
  -29.4506  -18.0294   23.3402 C   0  0  0  0  0  0  0  0  0  0  0  0
  -31.0340  -19.9636   23.1990 C   0  0  0  0  0  0  0  0  0  0  0  0
  -31.5790  -17.8209   22.0438 C   0  0  0  0  0  0  0  0  0  0  0  0
  -29.8693  -22.1703   17.0407 C   0  0  0  0  0  0  0  0  0  0  0  0
  -23.2242  -22.6741   21.3421 C   0  0  0  0  0  0  0  0  0  1  0  0
  -18.8736  -24.5477   22.9374 C   0  0  0  0  0  0  0  0  0  0  0  0
  -17.8294  -24.2109   21.8582 C   0  0  0  0  0  0  0  0  0  0  0  0
  -20.6590  -26.9328   22.2000 C   0  0  0  0  0  0  0  0  0  0  0  0
  -21.2462  -27.6175   23.4413 C   0  0  1  0  0  0  0  0  0  0  0  0
  -29.7525  -19.3008   21.1135 C   0  0  1  0  0  0  0  0  0  0  0  0
  -31.5270  -21.7879   18.8695 C   0  0  2  0  0  0  0  0  0  0  0  0
  -30.4275  -18.7809   22.4140 C   0  0  0  0  0  0  0  0  0  0  0  0
  -26.1151  -28.5212   21.2486 N   0  0  0  0  0  0  0  0  0  0  0  0
  -21.0379  -25.5377   22.0940 N   0  0  0  0  0  0  0  0  0  0  0  0
  -25.1219  -28.7135   20.3639 N   0  0  0  0  0  0  0  0  0  0  0  0
  -20.9622  -23.3831   22.1788 N   0  3  0  0  0  0  0  0  0  0  0  0
  -27.7356  -18.2917   20.0947 N   0  0  0  0  0  0  0  0  0  0  0  0
  -22.2954  -29.7384   22.7282 N   0  0  0  0  0  0  0  0  0  0  0  0
  -24.5175  -28.3727   18.0991 N   0  0  0  0  0  0  0  0  0  0  0  0
  -28.2022  -27.9579   17.2953 N   0  0  0  0  0  0  0  0  0  0  0  0
  -25.8225  -15.1910   20.2423 N   0  0  0  0  0  0  0  0  0  0  0  0
  -30.6600  -19.9930   20.2048 N   0  0  0  0  0  0  0  0  0  0  0  0
  -30.9580  -22.7409   17.8750 N   0  3  0  0  0  0  0  0  0  0  0  0
  -27.3105  -25.9132   17.8268 O   0  0  0  0  0  0  0  0  0  0  0  0
  -26.6135  -16.7412   21.7894 O   0  0  0  0  0  0  0  0  0  0  0  0
  -20.1775  -29.7177   23.6842 O   0  0  0  0  0  0  0  0  0  0  0  0
  -29.8219  -17.2717   19.8870 O   0  0  0  0  0  0  0  0  0  0  0  0
  -29.4961  -21.9981   20.1614 O   0  0  0  0  0  0  0  0  0  0  0  0
  -31.9189  -26.4603   22.8675 O   0  0  0  0  0  0  0  0  0  0  0  0
  -22.6917  -21.8360   20.3172 O   0  0  0  0  0  0  0  0  0  1  0  0
  -31.9443  -22.0477   26.1739 F   0  0  0  0  0  0  0  0  0  0  0  0
  -33.5048  -24.2692   22.2964 F   0  0  0  0  0  0  0  0  0  0  0  0
  1  2  1  0  0  0  0
  1  5  2  0  0  0  0
  2  6  2  0  0  0  0
  3  8  2  0  0  0  0
  3 16  1  0  0  0  0
  4  9  1  0  0  0  0
  4 16  2  0  0  0  0
  5 18  1  0  0  0  0
  6 20  1  0  0  0  0
  7 10  2  0  0  0  0
  7 19  1  0  0  0  0
  8 22  1  0  0  0  0
  9 22  2  0  0  0  0
 10 23  1  0  0  0  0
 11 12  2  0  0  0  0
 11 24  1  0  0  0  0
 12 25  1  0  0  0  0
 13 21  1  0  0  0  0
 13 23  2  0  0  0  0
 14 25  2  0  0  0  0
 14 26  1  0  0  0  0
 15 28  2  0  0  0  0
 15 64  1  0  0  0  0
 16 27  1  0  0  0  0
 17 27  1  0  0  0  0
 17 29  2  0  0  0  0
 17 31  1  0  0  0  0
 18 20  2  0  0  0  0
 18 36  1  0  0  0  0
 19 21  2  0  0  0  0
 19 37  1  0  0  0  0
 20 45  1  0  0  0  0
 21 38  1  0  0  0  0
 22 79  1  0  0  0  0
 23 80  1  0  0  0  0
 24 26  2  0  0  0  0
 24 79  1  0  0  0  0
 25 81  1  0  0  0  0
 26 82  1  0  0  0  0
 27 63  2  0  0  0  0
 28 55  1  0  0  0  0
 28 66  1  0  0  0  0
 29 65  1  0  0  0  0
 29 69  1  0  0  0  0
 30 56  1  0  0  0  0
 30 64  1  0  0  0  0
 30 66  2  0  0  0  0
 31 70  1  0  0  0  0
 31 74  2  0  0  0  0
 32 46  1  0  0  0  0
 32 71  1  0  0  0  0
 32 75  2  0  0  0  0
 33 59  1  0  0  0  0
 33 68  1  0  0  0  0
 33 76  2  0  0  0  0
 34 60  1  0  0  0  0
 34 67  1  0  0  0  0
 34 77  2  0  0  0  0
 35 61  1  0  0  0  0
 35 72  1  0  0  0  0
 35 78  2  0  0  0  0
 36 39  1  0  0  0  0
 37 46  1  0  0  0  0
 38 67  1  0  0  0  0
 39 41  1  0  0  0  0
 40 42  1  0  0  0  0
 40 43  1  0  0  0  0
 41 45  1  0  0  0  0
 42 47  1  0  0  0  0
 43 68  1  0  0  0  0
 44 47  1  0  0  0  0
 44 68  1  0  0  0  0
 45 71  1  0  0  0  0
 46 67  1  0  0  0  0
 47 65  1  0  0  0  0
 48 57  1  0  0  0  0
 49 59  1  0  0  0  0
 50 61  1  0  0  0  0
 51 62  1  0  0  0  0
 52 62  1  0  0  0  0
 53 62  1  0  0  0  0
 54 73  1  0  0  0  0
 55 80  1  0  0  0  0
 56 57  1  0  0  0  0
 58 59  1  0  0  0  0
 58 64  1  0  0  0  0
 60 62  1  0  0  0  0
 60 72  1  0  0  0  0
 61 73  1  0  0  0  0
 63 65  1  0  0  0  0
M  CHG  2  66   1  73   1
M  ISO  4  33 100  55 101  59 100  80 101
M  END
> <Batch ID>
0061

> <Smiles>
CCCc1nc([101CH2:1][101O:1]c2ccc3c(c2)CN(C(=O)C(NC(=O)C(C)NC)C(C)(C)C)C(C(=O)NC2CCCc4ccccc42)C3)cn1C[100CH:0](C)[100C:0](=O)N1CCCC(n2nc(-c3ccc(Oc4ccc(F)cc4F)cc3)c(C(N)=O)c2N)C1

> <Shape>
0.219

> <Color>
0.067

> <Negative vol penalty>
0.000

$$$$

  -OEChem-04052317583D

 87 95  0     1  0  0  0  0  0999 V2000
  -29.7277  -34.2729   23.1582 C   0  0  0  0  0  0  0  0  0  0  0  0
  -30.0058  -32.9172   23.0166 C   0  0  0  0  0  0  0  0  0  0  0  0
  -24.2696  -10.8285   23.3344 C   0  0  0  0  0  0  0  0  0  0  0  0
  -24.6673  -12.9630   24.3941 C   0  0  0  0  0  0  0  0  0  0  0  0
  -28.4157  -34.6963   23.3657 C   0  0  0  0  0  0  0  0  0  0  0  0
  -28.9719  -31.9839   23.0836 C   0  0  0  0  0  0  0  0  0  0  0  0
  -28.5275  -26.7496   19.9355 C   0  0  0  0  0  0  0  0  0  0  0  0
  -23.8983  -10.2867   24.5649 C   0  0  0  0  0  0  0  0  0  0  0  0
  -24.2959  -12.4212   25.6247 C   0  0  0  0  0  0  0  0  0  0  0  0
  -28.8164  -25.4271   20.2689 C   0  0  0  0  0  0  0  0  0  0  0  0
  -21.1794  -10.3024   26.5749 C   0  0  0  0  0  0  0  0  0  0  0  0
  -20.0325   -9.5096   26.6146 C   0  0  0  0  0  0  0  0  0  0  0  0
  -26.4992  -25.0704   20.8368 C   0  0  0  0  0  0  0  0  0  0  0  0
  -21.3491   -7.6443   27.4046 C   0  0  0  0  0  0  0  0  0  0  0  0
  -28.9313  -16.6190   22.6695 C   0  0  0  0  0  0  0  0  0  0  0  0
  -24.6542  -12.1666   23.2490 C   0  0  0  0  0  0  0  0  0  0  0  0
  -24.1995  -13.3511   21.0359 C   0  0  0  0  0  0  0  0  0  0  0  0
  -27.3639  -33.7685   23.4257 C   0  0  0  0  0  0  0  0  0  0  0  0
  -27.2221  -27.2464   20.0607 C   0  0  0  0  0  0  0  0  0  0  0  0
  -27.6447  -32.3952   23.2935 C   0  0  0  0  0  0  0  0  0  0  0  0
  -26.1958  -26.3988   20.5018 C   0  0  0  0  0  0  0  0  0  0  0  0
  -23.9114  -11.0831   25.7101 C   0  0  0  0  0  0  0  0  0  0  0  0
  -27.8028  -24.5880   20.7224 C   0  0  0  0  0  0  0  0  0  0  0  0
  -22.4112   -9.7662   26.9501 C   0  0  0  0  0  0  0  0  0  0  0  0
  -20.1173   -8.1806   27.0294 C   0  0  0  0  0  0  0  0  0  0  0  0
  -22.4961   -8.4372   27.3649 C   0  0  0  0  0  0  0  0  0  0  0  0
  -25.0385  -12.7267   21.9783 C   0  0  0  0  0  0  0  0  0  0  0  0
  -27.9176  -17.3407   23.3278 C   0  0  0  0  0  0  0  0  0  0  0  0
  -28.7942  -16.9631   21.3469 C   0  0  0  0  0  0  0  0  0  0  0  0
  -25.0403  -13.7052   20.0091 C   0  0  0  0  0  0  0  0  0  0  0  0
  -22.7866  -13.5898   21.0843 C   0  0  0  0  0  0  0  0  0  0  0  0
  -25.8508  -29.5413   21.7801 C   0  0  0  0  0  0  0  0  0  0  0  0
  -23.2484  -28.7837   19.9980 C   0  0  0  0  0  0  0  0  0  0  0  0
  -21.6027  -26.4614   18.1150 C   0  0  0  0  0  0  0  0  0  0  0  0
  -31.1066  -14.5480   20.1741 C   0  0  0  0  0  0  0  0  0  0  0  0
  -25.9681  -34.2701   23.6990 C   0  0  0  0  0  0  0  0  0  0  0  0
  -26.9217  -28.6679   19.6715 C   0  0  0  0  0  0  0  0  0  0  0  0
  -24.7740  -26.8777   20.6346 C   0  0  0  0  0  0  0  0  0  0  0  0
  -24.8803  -33.2467   23.3832 C   0  0  0  0  0  0  0  0  0  0  0  0
  -29.1233  -12.4205   17.8847 C   0  0  0  0  0  0  0  0  0  0  0  0
  -25.2484  -31.8822   23.9572 C   0  0  0  0  0  0  0  0  0  0  0  0
  -27.8049  -12.2580   18.6393 C   0  0  0  0  0  0  0  0  0  0  0  0
  -30.2970  -12.6399   18.8343 C   0  0  0  0  0  0  0  0  0  0  0  0
  -28.7857  -13.6114   20.5332 C   0  0  0  0  0  0  0  0  0  0  0  0
  -26.5470  -31.3543   23.3355 C   0  0  1  0  0  0  0  0  0  0  0  0
  -25.6562  -29.2121   20.3270 C   0  0  1  0  0  0  0  0  0  0  0  0
  -27.5758  -13.4351   19.6032 C   0  0  2  0  0  0  0  0  0  0  0  0
  -19.4792  -26.1197   16.8221 C   0  0  0  0  0  0  0  0  0  0  0  0
  -26.1410  -17.6215   19.3821 C   0  0  0  0  0  0  0  0  0  0  0  0
  -21.7163  -28.4294   22.6128 C   0  0  0  0  0  0  0  0  0  0  0  0
  -19.9521  -27.1991   21.3313 C   0  0  0  0  0  0  0  0  0  0  0  0
  -20.4372  -29.5883   20.8030 C   0  0  0  0  0  0  0  0  0  0  0  0
  -31.8941  -16.7697   20.8978 C   0  0  0  0  0  0  0  0  0  0  0  0
  -23.0761  -26.0268   15.5854 C   0  0  0  0  0  0  0  0  0  0  0  0
  -29.5528  -16.5450   20.1538 C   0  0  0  0  0  0  0  0  0  0  0  0
  -27.6609  -20.9831   20.5710 C   0  0  0  0  0  0  0  0  0  0  0  0
  -26.5910  -19.9106   20.3496 C   0  0  0  0  0  0  0  0  0  0  0  0
  -27.0384  -22.3407   20.8685 C   0  0  0  0  0  0  0  0  0  1  0  0
  -22.1046  -27.8083   20.1370 C   0  0  1  0  0  0  0  0  0  0  0  0
  -20.9341  -26.5573   16.7555 C   0  0  2  0  0  0  0  0  0  0  0  0
  -27.1866  -18.5166   20.0586 C   0  0  1  0  0  0  0  0  0  0  0  0
  -27.6072  -17.3421   24.7673 C   0  0  0  0  0  0  0  0  0  0  0  0
  -21.0796  -28.2475   21.2205 C   0  0  0  0  0  0  0  0  0  0  0  0
  -26.3142  -12.6848   21.5851 N   0  0  0  0  0  0  0  0  0  0  0  0
  -27.1904  -18.0871   22.4923 N   0  0  0  0  0  0  0  0  0  0  0  0
  -27.7478  -17.8363   21.2955 N   0  0  0  0  0  0  0  0  0  0  0  0
  -26.2832  -13.2873   20.3842 N   0  0  0  0  0  0  0  0  0  0  0  0
  -24.5318  -28.2774   20.2478 N   0  0  0  0  0  0  0  0  0  0  0  0
  -30.0351  -13.7360   19.7676 N   0  0  0  0  0  0  0  0  0  0  0  0
  -24.8302  -14.3300   18.8311 N   0  0  0  0  0  0  0  0  0  0  0  0
  -22.0749  -13.1611   22.2131 N   0  0  0  0  0  0  0  0  0  0  0  0
  -26.2960  -30.8290   22.0106 N   0  0  0  0  0  0  0  0  0  0  0  0
  -21.5348  -27.6546   18.8028 N   0  0  0  0  0  0  0  0  0  0  0  0
  -30.8146  -15.8853   20.4826 N   0  0  0  0  0  0  0  0  0  0  0  0
  -21.6404  -25.6921   15.7688 N   0  3  0  0  0  0  0  0  0  0  0  0
  -22.1706  -14.1514   20.1470 O   0  0  0  0  0  0  0  0  0  0  0  0
  -25.6130  -28.6905   22.6294 O   0  0  0  0  0  0  0  0  0  0  0  0
  -23.0125  -29.9499   19.6726 O   0  0  0  0  0  0  0  0  0  0  0  0
  -22.1290  -25.4301   18.5272 O   0  0  0  0  0  0  0  0  0  0  0  0
  -32.2602  -14.1056   20.2474 O   0  0  0  0  0  0  0  0  0  0  0  0
  -23.5489  -10.5548   26.9109 O   0  0  0  0  0  0  0  0  0  0  0  0
  -28.0822  -23.2969   21.0492 O   0  0  0  0  0  0  0  0  0  1  0  0
  -19.0155   -7.4198   27.0689 F   0  0  0  0  0  0  0  0  0  0  0  0
  -23.6765   -7.9167   27.7276 F   0  0  0  0  0  0  0  0  0  0  0  0
  -28.4217  -16.5343   25.5230 F   0  0  0  0  0  0  0  0  0  0  0  0
  -27.7036  -18.5748   25.3655 F   0  0  0  0  0  0  0  0  0  0  0  0
  -26.3338  -16.9156   25.0496 F   0  0  0  0  0  0  0  0  0  0  0  0
  1  2  1  0  0  0  0
  1  5  2  0  0  0  0
  2  6  2  0  0  0  0
  3  8  2  0  0  0  0
  3 16  1  0  0  0  0
  4  9  1  0  0  0  0
  4 16  2  0  0  0  0
  5 18  1  0  0  0  0
  6 20  1  0  0  0  0
  7 10  2  0  0  0  0
  7 19  1  0  0  0  0
  8 22  1  0  0  0  0
  9 22  2  0  0  0  0
 10 23  1  0  0  0  0
 11 12  2  0  0  0  0
 11 24  1  0  0  0  0
 12 25  1  0  0  0  0
 13 21  1  0  0  0  0
 13 23  2  0  0  0  0
 14 25  2  0  0  0  0
 14 26  1  0  0  0  0
 15 28  1  0  0  0  0
 15 29  2  0  0  0  0
 16 27  1  0  0  0  0
 17 27  1  0  0  0  0
 17 30  2  0  0  0  0
 17 31  1  0  0  0  0
 18 20  2  0  0  0  0
 18 36  1  0  0  0  0
 19 21  2  0  0  0  0
 19 37  1  0  0  0  0
 20 45  1  0  0  0  0
 21 38  1  0  0  0  0
 22 81  1  0  0  0  0
 23 82  1  0  0  0  0
 24 26  2  0  0  0  0
 24 81  1  0  0  0  0
 25 83  1  0  0  0  0
 26 84  1  0  0  0  0
 27 64  2  0  0  0  0
 28 62  1  0  0  0  0
 28 65  2  0  0  0  0
 29 55  1  0  0  0  0
 29 66  1  0  0  0  0
 30 67  1  0  0  0  0
 30 70  1  0  0  0  0
 31 71  1  0  0  0  0
 31 76  2  0  0  0  0
 32 46  1  0  0  0  0
 32 72  1  0  0  0  0
 32 77  2  0  0  0  0
 33 59  1  0  0  0  0
 33 68  1  0  0  0  0
 33 78  2  0  0  0  0
 34 60  1  0  0  0  0
 34 73  1  0  0  0  0
 34 79  2  0  0  0  0
 35 69  1  0  0  0  0
 35 74  1  0  0  0  0
 35 80  2  0  0  0  0
 36 39  1  0  0  0  0
 37 46  1  0  0  0  0
 38 68  1  0  0  0  0
 39 41  1  0  0  0  0
 40 42  1  0  0  0  0
 40 43  1  0  0  0  0
 41 45  1  0  0  0  0
 42 47  1  0  0  0  0
 43 69  1  0  0  0  0
 44 47  1  0  0  0  0
 44 69  1  0  0  0  0
 45 72  1  0  0  0  0
 46 68  1  0  0  0  0
 47 67  1  0  0  0  0
 48 60  1  0  0  0  0
 49 61  1  0  0  0  0
 50 63  1  0  0  0  0
 51 63  1  0  0  0  0
 52 63  1  0  0  0  0
 53 74  1  0  0  0  0
 54 75  1  0  0  0  0
 55 74  1  0  0  0  0
 56 57  1  0  0  0  0
 56 58  1  0  0  0  0
 57 61  1  0  0  0  0
 58 82  1  0  0  0  0
 59 63  1  0  0  0  0
 59 73  1  0  0  0  0
 60 75  1  0  0  0  0
 61 66  1  0  0  0  0
 62 85  1  0  0  0  0
 62 86  1  0  0  0  0
 62 87  1  0  0  0  0
 64 67  1  0  0  0  0
 65 66  1  0  0  0  0
M  CHG  1  75   1
M  ISO  4  35 100  58 101  74 100  82 101
M  END
> <Batch ID>
0061

> <Smiles>
CNC(C)C(=O)NC(C(=O)N1Cc2cc([101O:1][101CH2:1]CCC(C)n3nc(C(F)(F)F)cc3C[100N:0](C)[100C:0](=O)N3CCCC(n4nc(-c5ccc(Oc6ccc(F)cc6F)cc5)c(C(N)=O)c4N)C3)ccc2CC1C(=O)NC1CCCc2ccccc21)C(C)(C)C

> <Shape>
0.248

> <Color>
0.090

> <Negative vol penalty>
0.000

$$$$

  -OEChem-04052317583D

 84 92  0     1  0  0  0  0  0999 V2000
  -31.5219  -25.2825   16.8012 C   0  0  0  0  0  0  0  0  0  0  0  0
  -31.4818  -24.6633   18.0463 C   0  0  0  0  0  0  0  0  0  0  0  0
  -23.2094   -9.8007   19.9337 C   0  0  0  0  0  0  0  0  0  0  0  0
  -23.5554  -10.0122   22.3154 C   0  0  0  0  0  0  0  0  0  0  0  0
  -31.1402  -26.6176   16.6753 C   0  0  0  0  0  0  0  0  0  0  0  0
  -31.0611  -25.3791   19.1666 C   0  0  0  0  0  0  0  0  0  0  0  0
  -27.8399  -22.7484   22.0559 C   0  0  0  0  0  0  0  0  0  0  0  0
  -22.4476   -8.6518   20.1464 C   0  0  0  0  0  0  0  0  0  0  0  0
  -22.7935   -8.8633   22.5281 C   0  0  0  0  0  0  0  0  0  0  0  0
  -28.3841  -21.7743   22.8917 C   0  0  0  0  0  0  0  0  0  0  0  0
  -23.2188   -5.5163   22.3100 C   0  0  0  0  0  0  0  0  0  0  0  0
  -23.7115   -4.5688   23.2072 C   0  0  0  0  0  0  0  0  0  0  0  0
  -28.2328  -23.2979   24.7559 C   0  0  0  0  0  0  0  0  0  0  0  0
  -21.7353   -4.8332   24.5717 C   0  0  0  0  0  0  0  0  0  0  0  0
  -30.8231  -16.0719   22.7958 C   0  0  0  0  0  0  0  0  0  0  0  0
  -23.7634  -10.4809   21.0183 C   0  0  0  0  0  0  0  0  0  0  0  0
  -24.0896  -12.9965   20.7484 C   0  0  0  0  0  0  0  0  0  0  0  0
  -30.7053  -27.3474   17.7929 C   0  0  0  0  0  0  0  0  0  0  0  0
  -27.4975  -24.0105   22.5624 C   0  0  0  0  0  0  0  0  0  0  0  0
  -30.6745  -26.7256   19.0558 C   0  0  0  0  0  0  0  0  0  0  0  0
  -27.6820  -24.2854   23.9250 C   0  0  0  0  0  0  0  0  0  0  0  0
  -22.2396   -8.1831   21.4436 C   0  0  0  0  0  0  0  0  0  0  0  0
  -28.5834  -22.0499   24.2413 C   0  0  0  0  0  0  0  0  0  0  0  0
  -21.9843   -6.1223   22.5436 C   0  0  0  0  0  0  0  0  0  0  0  0
  -22.9698   -4.2273   24.3381 C   0  0  0  0  0  0  0  0  0  0  0  0
  -21.2426   -5.7807   23.6744 C   0  0  0  0  0  0  0  0  0  0  0  0
  -24.5509  -11.6674   20.7992 C   0  0  0  0  0  0  0  0  0  0  0  0
  -30.4088  -15.1094   23.6900 C   0  0  0  0  0  0  0  0  0  0  0  0
  -31.0429  -16.4523   25.4291 C   0  0  0  0  0  0  0  0  0  0  0  0
  -31.4579  -17.4144   24.5348 C   0  0  0  0  0  0  0  0  0  0  0  0
  -25.2192  -13.7435   20.5188 C   0  0  0  0  0  0  0  0  0  0  0  0
  -22.7591  -13.5100   20.8956 C   0  0  0  0  0  0  0  0  0  0  0  0
  -28.4502  -26.9893   21.9944 C   0  0  0  0  0  0  0  0  0  0  0  0
  -26.0335  -27.7352   24.0257 C   0  0  0  0  0  0  0  0  0  0  0  0
  -23.9855  -26.7579   26.5746 C   0  0  0  0  0  0  0  0  0  0  0  0
  -31.0569  -12.2623   21.6439 C   0  0  0  0  0  0  0  0  0  0  0  0
  -30.3477  -28.8018   17.6159 C   0  0  0  0  0  0  0  0  0  0  0  0
  -26.8866  -25.0413   21.6532 C   0  0  0  0  0  0  0  0  0  0  0  0
  -27.3122  -25.6177   24.5223 C   0  0  0  0  0  0  0  0  0  0  0  0
  -29.5575  -29.3816   18.7862 C   0  0  0  0  0  0  0  0  0  0  0  0
  -29.5423  -13.4921   18.4982 C   0  0  0  0  0  0  0  0  0  0  0  0
  -30.1988  -28.9847   20.1121 C   0  0  0  0  0  0  0  0  0  0  0  0
  -28.0566  -13.2054   18.7095 C   0  0  0  0  0  0  0  0  0  0  0  0
  -30.4239  -12.5165   19.2719 C   0  0  0  0  0  0  0  0  0  0  0  0
  -28.6310  -12.1638   20.9379 C   0  0  0  0  0  0  0  0  0  0  0  0
  -30.2003  -27.4616   20.2901 C   0  0  1  0  0  0  0  0  0  0  0  0
  -27.0523  -26.4671   22.1700 C   0  0  1  0  0  0  0  0  0  0  0  0
  -27.7148  -13.1582   20.2089 C   0  0  2  0  0  0  0  0  0  0  0  0
  -31.1613  -16.6566   26.9009 C   0  0  0  0  0  0  0  0  0  0  0  0
  -28.7926  -13.2346   24.1744 C   0  0  0  0  0  0  0  0  0  0  0  0
  -22.1368  -27.5983   28.0489 C   0  0  0  0  0  0  0  0  0  0  0  0
  -28.0598  -29.3382   25.6487 C   0  0  0  0  0  0  0  0  0  0  0  0
  -26.4277  -29.3469   27.5472 C   0  0  0  0  0  0  0  0  0  0  0  0
  -25.8294  -30.4384   25.3855 C   0  0  0  0  0  0  0  0  0  0  0  0
  -31.8783  -12.6684   23.9330 C   0  0  0  0  0  0  0  0  0  0  0  0
  -22.1042  -24.6979   25.5866 C   0  0  0  0  0  0  0  0  0  0  0  0
  -32.0513  -18.7192   25.0028 C   0  0  0  0  0  0  0  0  0  0  0  0
  -31.0145  -19.7132   25.5305 C   0  0  0  0  0  0  0  0  0  0  0  0
  -30.0190  -20.1677   24.4694 C   0  0  0  0  0  0  0  0  0  1  0  0
  -29.8265  -13.8283   23.2048 C   0  0  2  0  0  0  0  0  0  0  0  0
  -25.9095  -27.9150   25.5194 C   0  0  1  0  0  0  0  0  0  0  0  0
  -22.4829  -26.8705   26.7592 C   0  0  2  0  0  0  0  0  0  0  0  0
  -26.5655  -29.2351   26.0139 C   0  0  0  0  0  0  0  0  0  0  0  0
  -31.3551  -17.2416   23.2022 N   0  0  0  0  0  0  0  0  0  0  0  0
  -25.8706  -11.5723   20.6164 N   0  0  0  0  0  0  0  0  0  0  0  0
  -30.5112  -15.2824   25.0227 N   0  0  0  0  0  0  0  0  0  0  0  0
  -26.2482  -12.8511   20.4485 N   0  0  0  0  0  0  0  0  0  0  0  0
  -26.7241  -26.5949   23.5913 N   0  0  0  0  0  0  0  0  0  0  0  0
  -30.0493  -12.4591   20.6853 N   0  0  0  0  0  0  0  0  0  0  0  0
  -25.4226  -15.0699   20.3722 N   0  0  0  0  0  0  0  0  0  0  0  0
  -21.7151  -12.6040   21.1269 N   0  0  0  0  0  0  0  0  0  0  0  0
  -28.8873  -26.9973   20.6836 N   0  0  0  0  0  0  0  0  0  0  0  0
  -24.4880  -27.8022   25.8275 N   0  0  0  0  0  0  0  0  0  0  0  0
  -30.8567  -12.8350   22.9090 N   0  0  0  0  0  0  0  0  0  0  0  0
  -21.8635  -25.5158   26.8032 N   0  3  0  0  0  0  0  0  0  0  0  0
  -22.5012  -14.7345   20.8077 O   0  0  0  0  0  0  0  0  0  0  0  0
  -29.0846  -27.3590   22.9755 O   0  0  0  0  0  0  0  0  0  0  0  0
  -25.5299  -28.5718   23.2720 O   0  0  0  0  0  0  0  0  0  0  0  0
  -24.6478  -25.8377   27.0492 O   0  0  0  0  0  0  0  0  0  0  0  0
  -32.0816  -11.6199   21.3808 O   0  0  0  0  0  0  0  0  0  0  0  0
  -21.4961   -7.0622   21.6515 O   0  0  0  0  0  0  0  0  0  0  0  0
  -29.1150  -21.1011   25.0592 O   0  0  0  0  0  0  0  0  0  1  0  0
  -23.4424   -3.3163   25.1988 F   0  0  0  0  0  0  0  0  0  0  0  0
  -20.0554   -6.3586   23.9036 F   0  0  0  0  0  0  0  0  0  0  0  0
  1  2  1  0  0  0  0
  1  5  2  0  0  0  0
  2  6  2  0  0  0  0
  3  8  2  0  0  0  0
  3 16  1  0  0  0  0
  4  9  1  0  0  0  0
  4 16  2  0  0  0  0
  5 18  1  0  0  0  0
  6 20  1  0  0  0  0
  7 10  2  0  0  0  0
  7 19  1  0  0  0  0
  8 22  1  0  0  0  0
  9 22  2  0  0  0  0
 10 23  1  0  0  0  0
 11 12  2  0  0  0  0
 11 24  1  0  0  0  0
 12 25  1  0  0  0  0
 13 21  1  0  0  0  0
 13 23  2  0  0  0  0
 14 25  2  0  0  0  0
 14 26  1  0  0  0  0
 15 28  1  0  0  0  0
 15 64  2  0  0  0  0
 16 27  1  0  0  0  0
 17 27  1  0  0  0  0
 17 31  2  0  0  0  0
 17 32  1  0  0  0  0
 18 20  2  0  0  0  0
 18 37  1  0  0  0  0
 19 21  2  0  0  0  0
 19 38  1  0  0  0  0
 20 46  1  0  0  0  0
 21 39  1  0  0  0  0
 22 81  1  0  0  0  0
 23 82  1  0  0  0  0
 24 26  2  0  0  0  0
 24 81  1  0  0  0  0
 25 83  1  0  0  0  0
 26 84  1  0  0  0  0
 27 65  2  0  0  0  0
 28 60  1  0  0  0  0
 28 66  2  0  0  0  0
 29 30  2  0  0  0  0
 29 49  1  0  0  0  0
 29 66  1  0  0  0  0
 30 57  1  0  0  0  0
 30 64  1  0  0  0  0
 31 67  1  0  0  0  0
 31 70  1  0  0  0  0
 32 71  1  0  0  0  0
 32 76  2  0  0  0  0
 33 47  1  0  0  0  0
 33 72  1  0  0  0  0
 33 77  2  0  0  0  0
 34 61  1  0  0  0  0
 34 68  1  0  0  0  0
 34 78  2  0  0  0  0
 35 62  1  0  0  0  0
 35 73  1  0  0  0  0
 35 79  2  0  0  0  0
 36 69  1  0  0  0  0
 36 74  1  0  0  0  0
 36 80  2  0  0  0  0
 37 40  1  0  0  0  0
 38 47  1  0  0  0  0
 39 68  1  0  0  0  0
 40 42  1  0  0  0  0
 41 43  1  0  0  0  0
 41 44  1  0  0  0  0
 42 46  1  0  0  0  0
 43 48  1  0  0  0  0
 44 69  1  0  0  0  0
 45 48  1  0  0  0  0
 45 69  1  0  0  0  0
 46 72  1  0  0  0  0
 47 68  1  0  0  0  0
 48 67  1  0  0  0  0
 50 60  1  0  0  0  0
 51 62  1  0  0  0  0
 52 63  1  0  0  0  0
 53 63  1  0  0  0  0
 54 63  1  0  0  0  0
 55 74  1  0  0  0  0
 56 75  1  0  0  0  0
 57 58  1  0  0  0  0
 58 59  1  0  0  0  0
 59 82  1  0  0  0  0
 60 74  1  0  0  0  0
 61 63  1  0  0  0  0
 61 73  1  0  0  0  0
 62 75  1  0  0  0  0
 65 67  1  0  0  0  0
M  CHG  1  75   1
M  ISO  4  36 100  59 101  74 100  82 101
M  END
> <Batch ID>
0061

> <Smiles>
CNC(C)C(=O)NC(C(=O)N1Cc2cc([101O:1][101CH2:1]CCc3ncc(C(C)[100N:0](C)[100C:0](=O)N4CCCC(n5nc(-c6ccc(Oc7ccc(F)cc7F)cc6)c(C(N)=O)c5N)C4)nc3C)ccc2CC1C(=O)NC1CCCc2ccccc21)C(C)(C)C

> <Shape>
0.222

> <Color>
0.186

> <Negative vol penalty>
0.000

$$$$

  -OEChem-04052317583D

 81 89  0     1  0  0  0  0  0999 V2000
  -22.4654  -10.8931   19.5348 C   0  0  0  0  0  0  0  0  0  0  0  0
  -21.9156  -12.0984   19.9594 C   0  0  0  0  0  0  0  0  0  0  0  0
  -29.6884  -28.4031   20.5973 C   0  0  0  0  0  0  0  0  0  0  0  0
  -28.5776  -26.8656   22.0938 C   0  0  0  0  0  0  0  0  0  0  0  0
  -23.8372  -10.6739   19.6528 C   0  0  0  0  0  0  0  0  0  0  0  0
  -22.7374  -13.0850   20.5035 C   0  0  0  0  0  0  0  0  0  0  0  0
  -22.0888  -19.1473   19.9262 C   0  0  0  0  0  0  0  0  0  0  0  0
  -30.9153  -28.0816   21.1777 C   0  0  0  0  0  0  0  0  0  0  0  0
  -29.8046  -26.5441   22.6742 C   0  0  0  0  0  0  0  0  0  0  0  0
  -21.5373  -20.1156   20.7641 C   0  0  0  0  0  0  0  0  0  0  0  0
  -32.4726  -24.6037   21.9414 C   0  0  0  0  0  0  0  0  0  0  0  0
  -32.7466  -23.2551   22.1691 C   0  0  0  0  0  0  0  0  0  0  0  0
  -23.7354  -20.6156   21.6230 C   0  0  0  0  0  0  0  0  0  0  0  0
  -32.9621  -23.6983   24.5343 C   0  0  0  0  0  0  0  0  0  0  0  0
  -21.7289  -23.1952   25.4537 C   0  0  0  0  0  0  0  0  0  0  0  0
  -28.5195  -27.7951   21.0553 C   0  0  0  0  0  0  0  0  0  0  0  0
  -26.8798  -27.9651   19.1085 C   0  0  0  0  0  0  0  0  0  0  0  0
  -24.6775  -11.6620   20.1897 C   0  0  0  0  0  0  0  0  0  0  0  0
  -23.4687  -18.8978   19.9384 C   0  0  0  0  0  0  0  0  0  0  0  0
  -24.1216  -12.8783   20.6301 C   0  0  0  0  0  0  0  0  0  0  0  0
  -24.3022  -19.6453   20.7825 C   0  0  0  0  0  0  0  0  0  0  0  0
  -30.9734  -27.1521   22.2161 C   0  0  0  0  0  0  0  0  0  0  0  0
  -22.3603  -20.8479   21.6147 C   0  0  0  0  0  0  0  0  0  0  0  0
  -32.4435  -25.4996   23.0102 C   0  0  0  0  0  0  0  0  0  0  0  0
  -32.9913  -22.8024   23.4656 C   0  0  0  0  0  0  0  0  0  0  0  0
  -32.6882  -25.0469   24.3066 C   0  0  0  0  0  0  0  0  0  0  0  0
  -27.2517  -28.1272   20.4566 C   0  0  0  0  0  0  0  0  0  0  0  0
  -21.0047  -24.1404   26.1512 C   0  0  0  0  0  0  0  0  0  0  0  0
  -21.9467  -23.4746   24.1200 C   0  0  0  0  0  0  0  0  0  0  0  0
  -25.5872  -28.4260   19.0512 C   0  0  0  0  0  0  0  0  0  0  0  0
  -20.8043  -25.4323   24.2916 C   0  0  0  0  0  0  0  0  0  0  0  0
  -27.6352  -27.4445   18.0067 C   0  0  0  0  0  0  0  0  0  0  0  0
  -25.2877  -16.3844   20.6293 C   0  0  0  0  0  0  0  0  0  0  0  0
  -27.6723  -18.3085   19.5644 C   0  0  0  0  0  0  0  0  0  0  0  0
  -28.8004  -21.4782   18.9922 C   0  0  0  0  0  0  0  0  0  0  0  0
  -21.2465  -28.9129   23.1466 C   0  0  0  0  0  0  0  0  0  0  0  0
  -26.1476  -11.3610   20.3409 C   0  0  0  0  0  0  0  0  0  0  0  0
  -24.0513  -17.8685   19.0092 C   0  0  0  0  0  0  0  0  0  0  0  0
  -25.7924  -19.4300   20.8189 C   0  0  0  0  0  0  0  0  0  0  0  0
  -27.0019  -12.6027   20.5827 C   0  0  0  0  0  0  0  0  0  0  0  0
  -22.6215  -31.5302   21.1629 C   0  0  0  0  0  0  0  0  0  0  0  0
  -26.3655  -13.4893   21.6485 C   0  0  0  0  0  0  0  0  0  0  0  0
  -23.9306  -30.9403   20.6353 C   0  0  0  0  0  0  0  0  0  0  0  0
  -22.3295  -31.0699   22.5893 C   0  0  0  0  0  0  0  0  0  0  0  0
  -23.6532  -29.0180   22.2560 C   0  0  0  0  0  0  0  0  0  0  0  0
  -24.9836  -13.9824   21.2027 C   0  0  1  0  0  0  0  0  0  0  0  0
  -25.4043  -17.3401   19.4757 C   0  0  1  0  0  0  0  0  0  0  0  0
  -23.9623  -29.4090   20.8007 C   0  0  2  0  0  0  0  0  0  0  0  0
  -20.7191  -23.9260   27.5998 C   0  0  0  0  0  0  0  0  0  0  0  0
  -19.3255  -26.3939   22.4888 C   0  0  0  0  0  0  0  0  0  0  0  0
  -30.3306  -23.2941   18.1810 C   0  0  0  0  0  0  0  0  0  0  0  0
  -29.1116  -17.7739   22.2012 C   0  0  0  0  0  0  0  0  0  0  0  0
  -30.5815  -19.7421   21.7175 C   0  0  0  0  0  0  0  0  0  0  0  0
  -30.5922  -17.7734   20.1856 C   0  0  0  0  0  0  0  0  0  0  0  0
  -27.5376  -21.5063   16.3157 C   0  0  0  0  0  0  0  0  0  0  0  0
  -22.7261  -22.5062   23.2797 C   0  0  0  0  0  0  0  0  0  1  0  0
  -20.2942  -26.6763   23.6465 C   0  0  2  0  0  0  0  0  0  0  0  0
  -28.5934  -19.3214   20.2005 C   0  0  1  0  0  0  0  0  0  0  0  0
  -29.4682  -22.1066   17.7824 C   0  0  2  0  0  0  0  0  0  0  0  0
  -29.6914  -18.6556   21.0771 C   0  0  0  0  0  0  0  0  0  0  0  0
  -26.2745  -28.6503   21.2018 N   0  0  0  0  0  0  0  0  0  0  0  0
  -20.5254  -25.2746   25.5996 N   0  0  0  0  0  0  0  0  0  0  0  0
  -21.4971  -24.5876   23.5041 N   0  0  0  0  0  0  0  0  0  0  0  0
  -25.2757  -28.8210   20.3189 N   0  0  0  0  0  0  0  0  0  0  0  0
  -26.3137  -18.4080   19.8962 N   0  0  0  0  0  0  0  0  0  0  0  0
  -22.3732  -29.6084   22.6778 N   0  0  0  0  0  0  0  0  0  0  0  0
  -24.6981  -28.5279   18.0405 N   0  0  0  0  0  0  0  0  0  0  0  0
  -27.5721  -26.0692   17.7439 N   0  0  0  0  0  0  0  0  0  0  0  0
  -25.1160  -15.0661   20.2526 N   0  0  0  0  0  0  0  0  0  0  0  0
  -29.1137  -20.1407   19.1112 N   0  0  0  0  0  0  0  0  0  0  0  0
  -21.3698  -27.5296   23.1929 N   0  0  0  0  0  0  0  0  0  0  0  0
  -28.4415  -22.5768   16.8099 N   0  3  0  0  0  0  0  0  0  0  0  0
  -28.3579  -28.1745   17.2869 O   0  0  0  0  0  0  0  0  0  0  0  0
  -25.3505  -16.8113   21.7763 O   0  0  0  0  0  0  0  0  0  0  0  0
  -28.1399  -17.4647   18.7957 O   0  0  0  0  0  0  0  0  0  0  0  0
  -28.0764  -22.1114   19.7573 O   0  0  0  0  0  0  0  0  0  0  0  0
  -20.2058  -29.4821   23.4929 O   0  0  0  0  0  0  0  0  0  0  0  0
  -32.1705  -26.8380   22.7825 O   0  0  0  0  0  0  0  0  0  0  0  0
  -21.8245  -21.7932   22.4340 O   0  0  0  0  0  0  0  0  0  1  0  0
  -33.2528  -21.5070   23.6843 F   0  0  0  0  0  0  0  0  0  0  0  0
  -32.6603  -25.9027   25.3375 F   0  0  0  0  0  0  0  0  0  0  0  0
  1  2  1  0  0  0  0
  1  5  2  0  0  0  0
  2  6  2  0  0  0  0
  3  8  2  0  0  0  0
  3 16  1  0  0  0  0
  4  9  1  0  0  0  0
  4 16  2  0  0  0  0
  5 18  1  0  0  0  0
  6 20  1  0  0  0  0
  7 10  2  0  0  0  0
  7 19  1  0  0  0  0
  8 22  1  0  0  0  0
  9 22  2  0  0  0  0
 10 23  1  0  0  0  0
 11 12  2  0  0  0  0
 11 24  1  0  0  0  0
 12 25  1  0  0  0  0
 13 21  1  0  0  0  0
 13 23  2  0  0  0  0
 14 25  2  0  0  0  0
 14 26  1  0  0  0  0
 15 28  2  0  0  0  0
 15 29  1  0  0  0  0
 16 27  1  0  0  0  0
 17 27  1  0  0  0  0
 17 30  2  0  0  0  0
 17 32  1  0  0  0  0
 18 20  2  0  0  0  0
 18 37  1  0  0  0  0
 19 21  2  0  0  0  0
 19 38  1  0  0  0  0
 20 46  1  0  0  0  0
 21 39  1  0  0  0  0
 22 78  1  0  0  0  0
 23 79  1  0  0  0  0
 24 26  2  0  0  0  0
 24 78  1  0  0  0  0
 25 80  1  0  0  0  0
 26 81  1  0  0  0  0
 27 61  2  0  0  0  0
 28 49  1  0  0  0  0
 28 62  1  0  0  0  0
 29 56  1  0  0  0  0
 29 63  2  0  0  0  0
 30 64  1  0  0  0  0
 30 67  1  0  0  0  0
 31 57  1  0  0  0  0
 31 62  2  0  0  0  0
 31 63  1  0  0  0  0
 32 68  1  0  0  0  0
 32 73  2  0  0  0  0
 33 47  1  0  0  0  0
 33 69  1  0  0  0  0
 33 74  2  0  0  0  0
 34 58  1  0  0  0  0
 34 65  1  0  0  0  0
 34 75  2  0  0  0  0
 35 59  1  0  0  0  0
 35 70  1  0  0  0  0
 35 76  2  0  0  0  0
 36 66  1  0  0  0  0
 36 71  1  0  0  0  0
 36 77  2  0  0  0  0
 37 40  1  0  0  0  0
 38 47  1  0  0  0  0
 39 65  1  0  0  0  0
 40 42  1  0  0  0  0
 41 43  1  0  0  0  0
 41 44  1  0  0  0  0
 42 46  1  0  0  0  0
 43 48  1  0  0  0  0
 44 66  1  0  0  0  0
 45 48  1  0  0  0  0
 45 66  1  0  0  0  0
 46 69  1  0  0  0  0
 47 65  1  0  0  0  0
 48 64  1  0  0  0  0
 50 57  1  0  0  0  0
 51 59  1  0  0  0  0
 52 60  1  0  0  0  0
 53 60  1  0  0  0  0
 54 60  1  0  0  0  0
 55 72  1  0  0  0  0
 56 79  1  0  0  0  0
 57 71  1  0  0  0  0
 58 60  1  0  0  0  0
 58 70  1  0  0  0  0
 59 72  1  0  0  0  0
 61 64  1  0  0  0  0
M  CHG  1  72   1
M  ISO  4  36 100  56 101  71 100  79 101
M  END
> <Batch ID>
0061

> <Smiles>
CNC(C)C(=O)NC(C(=O)N1Cc2cc([101O:1][101CH2:1]c3cc(C)nc(C(C)[100NH:0][100C:0](=O)N4CCCC(n5nc(-c6ccc(Oc7ccc(F)cc7F)cc6)c(C(N)=O)c5N)C4)n3)ccc2CC1C(=O)NC1CCCc2ccccc21)C(C)(C)C

> <Shape>
0.226

> <Color>
0.055

> <Negative vol penalty>
0.000

$$$$

  -OEChem-04052317583D

 81 89  0     1  0  0  0  0  0999 V2000
  -29.2632  -34.3983   24.2145 C   0  0  0  0  0  0  0  0  0  0  0  0
  -29.8805  -33.3855   23.4874 C   0  0  0  0  0  0  0  0  0  0  0  0
  -23.2858  -10.1448   22.2710 C   0  0  0  0  0  0  0  0  0  0  0  0
  -23.9267   -9.5899   20.0086 C   0  0  0  0  0  0  0  0  0  0  0  0
  -28.0433  -34.1579   24.8454 C   0  0  0  0  0  0  0  0  0  0  0  0
  -29.2787  -32.1313   23.3918 C   0  0  0  0  0  0  0  0  0  0  0  0
  -28.5495  -26.6187   18.8756 C   0  0  0  0  0  0  0  0  0  0  0  0
  -22.4851   -9.0039   22.3240 C   0  0  0  0  0  0  0  0  0  0  0  0
  -23.1260   -8.4489   20.0617 C   0  0  0  0  0  0  0  0  0  0  0  0
  -28.7097  -25.2345   18.8309 C   0  0  0  0  0  0  0  0  0  0  0  0
  -20.5547   -6.0455   23.1823 C   0  0  0  0  0  0  0  0  0  0  0  0
  -20.6260   -5.2559   24.3299 C   0  0  0  0  0  0  0  0  0  0  0  0
  -26.5632  -24.9577   19.8964 C   0  0  0  0  0  0  0  0  0  0  0  0
  -22.9809   -4.8907   23.9321 C   0  0  0  0  0  0  0  0  0  0  0  0
  -24.0066  -10.4378   21.1133 C   0  0  0  0  0  0  0  0  0  0  0  0
  -26.1908  -11.7204   21.4165 C   0  0  0  0  0  0  0  0  0  0  0  0
  -27.4216  -32.9029   24.7495 C   0  0  0  0  0  0  0  0  0  0  0  0
  -27.3979  -27.1841   19.4418 C   0  0  0  0  0  0  0  0  0  0  0  0
  -28.0501  -31.8734   24.0232 C   0  0  0  0  0  0  0  0  0  0  0  0
  -26.3897  -26.3493   19.9447 C   0  0  0  0  0  0  0  0  0  0  0  0
  -22.4052   -8.1560   21.2194 C   0  0  0  0  0  0  0  0  0  0  0  0
  -27.7178  -24.4038   19.3440 C   0  0  0  0  0  0  0  0  0  0  0  0
  -21.6964   -6.2577   22.4095 C   0  0  0  0  0  0  0  0  0  0  0  0
  -21.8392   -4.6785   24.7048 C   0  0  0  0  0  0  0  0  0  0  0  0
  -22.9095   -5.6803   22.7844 C   0  0  0  0  0  0  0  0  0  0  0  0
  -24.8335  -11.6165   21.0577 C   0  0  0  0  0  0  0  0  0  0  0  0
  -26.5079  -13.0362   21.1827 C   0  0  0  0  0  0  0  0  0  0  0  0
  -29.0438  -21.0537   18.7396 C   0  0  0  0  0  0  0  0  0  0  0  0
  -28.8644  -19.0846   18.0705 C   0  0  0  0  0  0  0  0  0  0  0  0
  -27.0849  -10.7173   21.9163 C   0  0  0  0  0  0  0  0  0  0  0  0
  -26.8218  -29.1024   21.9100 C   0  0  0  0  0  0  0  0  0  0  0  0
  -23.7920  -29.0376   20.7531 C   0  0  0  0  0  0  0  0  0  0  0  0
  -21.4265  -27.4015   18.9161 C   0  0  0  0  0  0  0  0  0  0  0  0
  -26.3027  -17.5951   17.9703 C   0  0  0  0  0  0  0  0  0  0  0  0
  -26.1263  -32.6761   25.4880 C   0  0  0  0  0  0  0  0  0  0  0  0
  -27.2282  -28.6785   19.4582 C   0  0  0  0  0  0  0  0  0  0  0  0
  -25.1253  -26.9059   20.5448 C   0  0  0  0  0  0  0  0  0  0  0  0
  -25.3717  -31.4321   25.0263 C   0  0  0  0  0  0  0  0  0  0  0  0
  -23.5455  -17.0024   20.1436 C   0  0  0  0  0  0  0  0  0  0  0  0
  -26.3204  -30.2428   24.9150 C   0  0  0  0  0  0  0  0  0  0  0  0
  -23.7435  -15.5556   20.5994 C   0  0  0  0  0  0  0  0  0  0  0  0
  -23.9654  -17.1981   18.6885 C   0  0  0  0  0  0  0  0  0  0  0  0
  -25.5317  -15.3005   18.8285 C   0  0  0  0  0  0  0  0  0  0  0  0
  -27.4166  -30.5070   23.8757 C   0  0  1  0  0  0  0  0  0  0  0  0
  -26.2460  -29.1567   20.5232 C   0  0  1  0  0  0  0  0  0  0  0  0
  -25.1745  -15.0662   20.3063 C   0  0  2  0  0  0  0  0  0  0  0  0
  -19.0329  -27.5762   18.1830 C   0  0  0  0  0  0  0  0  0  0  0  0
  -29.8905  -16.8486   17.2855 C   0  0  0  0  0  0  0  0  0  0  0  0
  -28.3687  -18.1483   15.8016 C   0  0  0  0  0  0  0  0  0  0  0  0
  -22.8795  -28.1934   23.5397 C   0  0  0  0  0  0  0  0  0  0  0  0
  -20.7024  -27.4754   22.5332 C   0  0  0  0  0  0  0  0  0  0  0  0
  -21.3980  -29.8683   22.4196 C   0  0  0  0  0  0  0  0  0  0  0  0
  -29.2738  -17.9828   20.3026 C   0  0  0  0  0  0  0  0  0  0  0  0
  -22.1860  -27.4683   16.0564 C   0  0  0  0  0  0  0  0  0  0  0  0
  -29.0749  -22.5536   18.7186 C   0  0  0  0  0  0  0  0  0  1  0  0
  -22.5812  -28.1637   20.9753 C   0  0  1  0  0  0  0  0  0  0  0  0
  -20.4800  -27.8856   17.8324 C   0  0  2  0  0  0  0  0  0  0  0  0
  -28.6798  -17.8413   17.3007 C   0  0  0  0  0  0  0  0  0  0  0  0
  -21.9149  -28.4144   22.3575 C   0  0  0  0  0  0  0  0  0  0  0  0
  -24.3234  -12.7740   20.6287 N   0  0  0  0  0  0  0  0  0  0  0  0
  -28.8066  -20.3148   17.6160 N   0  0  0  0  0  0  0  0  0  0  0  0
  -29.2448  -20.3579   19.8608 N   0  0  0  0  0  0  0  0  0  0  0  0
  -25.3657  -13.6178   20.7166 N   0  0  0  0  0  0  0  0  0  0  0  0
  -29.1248  -19.1016   19.4053 N   0  0  0  0  0  0  0  0  0  0  0  0
  -25.0089  -28.3735   20.5435 N   0  0  0  0  0  0  0  0  0  0  0  0
  -25.3324  -16.7154   18.4777 N   0  0  0  0  0  0  0  0  0  0  0  0
  -27.6496  -13.7408   21.3325 N   0  0  0  0  0  0  0  0  0  0  0  0
  -26.5956   -9.4165   22.0976 N   0  0  0  0  0  0  0  0  0  0  0  0
  -26.8963  -30.3317   22.5367 N   0  0  0  0  0  0  0  0  0  0  0  0
  -21.6986  -28.3917   19.8362 N   0  0  0  0  0  0  0  0  0  0  0  0
  -27.5741  -17.0589   17.8068 N   0  0  0  0  0  0  0  0  0  0  0  0
  -20.7998  -27.2282   16.5338 N   0  3  0  0  0  0  0  0  0  0  0  0
  -28.2779  -10.9708   22.2095 O   0  0  0  0  0  0  0  0  0  0  0  0
  -27.1711  -28.0248   22.3774 O   0  0  0  0  0  0  0  0  0  0  0  0
  -23.6615  -30.2642   20.7581 O   0  0  0  0  0  0  0  0  0  0  0  0
  -21.8764  -26.2581   18.9456 O   0  0  0  0  0  0  0  0  0  0  0  0
  -26.0558  -18.7728   17.6893 O   0  0  0  0  0  0  0  0  0  0  0  0
  -21.6241   -7.0425   21.2709 O   0  0  0  0  0  0  0  0  0  0  0  0
  -27.8720  -23.0524   19.3022 O   0  0  0  0  0  0  0  0  0  1  0  0
  -21.9079   -3.9215   25.8077 F   0  0  0  0  0  0  0  0  0  0  0  0
  -24.0100   -5.8814   22.0467 F   0  0  0  0  0  0  0  0  0  0  0  0
  1  2  1  0  0  0  0
  1  5  2  0  0  0  0
  2  6  2  0  0  0  0
  3  8  2  0  0  0  0
  3 15  1  0  0  0  0
  4  9  1  0  0  0  0
  4 15  2  0  0  0  0
  5 17  1  0  0  0  0
  6 19  1  0  0  0  0
  7 10  2  0  0  0  0
  7 18  1  0  0  0  0
  8 21  1  0  0  0  0
  9 21  2  0  0  0  0
 10 22  1  0  0  0  0
 11 12  2  0  0  0  0
 11 23  1  0  0  0  0
 12 24  1  0  0  0  0
 13 20  1  0  0  0  0
 13 22  2  0  0  0  0
 14 24  2  0  0  0  0
 14 25  1  0  0  0  0
 15 26  1  0  0  0  0
 16 26  1  0  0  0  0
 16 27  2  0  0  0  0
 16 30  1  0  0  0  0
 17 19  2  0  0  0  0
 17 35  1  0  0  0  0
 18 20  2  0  0  0  0
 18 36  1  0  0  0  0
 19 44  1  0  0  0  0
 20 37  1  0  0  0  0
 21 78  1  0  0  0  0
 22 79  1  0  0  0  0
 23 25  2  0  0  0  0
 23 78  1  0  0  0  0
 24 80  1  0  0  0  0
 25 81  1  0  0  0  0
 26 60  2  0  0  0  0
 27 63  1  0  0  0  0
 27 67  1  0  0  0  0
 28 55  1  0  0  0  0
 28 61  1  0  0  0  0
 28 62  2  0  0  0  0
 29 58  1  0  0  0  0
 29 61  2  0  0  0  0
 29 64  1  0  0  0  0
 30 68  1  0  0  0  0
 30 73  2  0  0  0  0
 31 45  1  0  0  0  0
 31 69  1  0  0  0  0
 31 74  2  0  0  0  0
 32 56  1  0  0  0  0
 32 65  1  0  0  0  0
 32 75  2  0  0  0  0
 33 57  1  0  0  0  0
 33 70  1  0  0  0  0
 33 76  2  0  0  0  0
 34 66  1  0  0  0  0
 34 71  1  0  0  0  0
 34 77  2  0  0  0  0
 35 38  1  0  0  0  0
 36 45  1  0  0  0  0
 37 65  1  0  0  0  0
 38 40  1  0  0  0  0
 39 41  1  0  0  0  0
 39 42  1  0  0  0  0
 40 44  1  0  0  0  0
 41 46  1  0  0  0  0
 42 66  1  0  0  0  0
 43 46  1  0  0  0  0
 43 66  1  0  0  0  0
 44 69  1  0  0  0  0
 45 65  1  0  0  0  0
 46 63  1  0  0  0  0
 47 57  1  0  0  0  0
 48 58  1  0  0  0  0
 49 58  1  0  0  0  0
 50 59  1  0  0  0  0
 51 59  1  0  0  0  0
 52 59  1  0  0  0  0
 53 64  1  0  0  0  0
 54 72  1  0  0  0  0
 55 79  1  0  0  0  0
 56 59  1  0  0  0  0
 56 70  1  0  0  0  0
 57 72  1  0  0  0  0
 58 71  1  0  0  0  0
 60 63  1  0  0  0  0
 62 64  1  0  0  0  0
M  CHG  1  72   1
M  ISO  4  34 100  55 101  71 100  79 101
M  END
> <Batch ID>
0061

> <Smiles>
CNC(C)C(=O)NC(C(=O)N1Cc2cc([101O:1][101CH2:1]c3nc(C(C)(C)[100NH:0][100C:0](=O)N4CCCC(n5nc(-c6ccc(Oc7ccc(F)cc7F)cc6)c(C(N)=O)c5N)C4)n(C)n3)ccc2CC1C(=O)NC1CCCc2ccccc21)C(C)(C)C

> <Shape>
0.296

> <Color>
0.112

> <Negative vol penalty>
0.000

$$$$

  -OEChem-04052317583D

 88 96  0     1  0  0  0  0  0999 V2000
  -28.9808  -34.0686   25.8912 C   0  0  0  0  0  0  0  0  0  0  0  0
  -29.0386  -32.7732   25.3872 C   0  0  0  0  0  0  0  0  0  0  0  0
  -21.9704  -10.7952   21.4308 C   0  0  0  0  0  0  0  0  0  0  0  0
  -23.7883   -9.8970   22.7444 C   0  0  0  0  0  0  0  0  0  0  0  0
  -27.7463  -34.6921   26.0681 C   0  0  0  0  0  0  0  0  0  0  0  0
  -27.8618  -32.1001   25.0609 C   0  0  0  0  0  0  0  0  0  0  0  0
  -27.0470  -28.1197   20.4785 C   0  0  0  0  0  0  0  0  0  0  0  0
  -21.5506   -9.5004   21.1264 C   0  0  0  0  0  0  0  0  0  0  0  0
  -23.3684   -8.6021   22.4400 C   0  0  0  0  0  0  0  0  0  0  0  0
  -27.0417  -26.7262   20.4363 C   0  0  0  0  0  0  0  0  0  0  0  0
  -22.5622   -5.0596   22.3043 C   0  0  0  0  0  0  0  0  0  0  0  0
  -22.5133   -4.1315   23.3444 C   0  0  0  0  0  0  0  0  0  0  0  0
  -24.6359  -26.7360   20.6135 C   0  0  0  0  0  0  0  0  0  0  0  0
  -20.9218   -5.5244   24.5124 C   0  0  0  0  0  0  0  0  0  0  0  0
  -27.8422  -20.5443   19.6668 C   0  0  0  0  0  0  0  0  0  0  0  0
  -23.0893  -10.9936   22.2398 C   0  0  0  0  0  0  0  0  0  0  0  0
  -23.1228  -13.1198   23.6489 C   0  0  0  0  0  0  0  0  0  0  0  0
  -26.5543  -34.0299   25.7346 C   0  0  0  0  0  0  0  0  0  0  0  0
  -25.8456  -28.8327   20.5996 C   0  0  0  0  0  0  0  0  0  0  0  0
  -26.6101  -32.7149   25.2347 C   0  0  0  0  0  0  0  0  0  0  0  0
  -24.6285  -28.1386   20.6544 C   0  0  0  0  0  0  0  0  0  0  0  0
  -22.2495   -8.4038   21.6310 C   0  0  0  0  0  0  0  0  0  0  0  0
  -25.8363  -26.0340   20.5067 C   0  0  0  0  0  0  0  0  0  0  0  0
  -21.7909   -6.2201   22.3682 C   0  0  0  0  0  0  0  0  0  0  0  0
  -21.6931   -4.3639   24.4485 C   0  0  0  0  0  0  0  0  0  0  0  0
  -20.9708   -6.4525   23.4723 C   0  0  0  0  0  0  0  0  0  0  0  0
  -23.5238  -12.3309   22.5541 C   0  0  0  0  0  0  0  0  0  0  0  0
  -23.8153  -14.2961   23.4965 C   0  0  0  0  0  0  0  0  0  0  0  0
  -29.0243  -20.0406   19.2023 C   0  0  0  0  0  0  0  0  0  0  0  0
  -28.6419  -21.9565   18.1613 C   0  0  0  0  0  0  0  0  0  0  0  0
  -22.2063  -12.8164   24.7090 C   0  0  0  0  0  0  0  0  0  0  0  0
  -24.6262  -30.8230   22.7573 C   0  0  0  0  0  0  0  0  0  0  0  0
  -22.2669  -31.1455   20.5545 C   0  0  0  0  0  0  0  0  0  0  0  0
  -28.9441  -15.4649   20.7390 C   0  0  0  0  0  0  0  0  0  0  0  0
  -20.5810  -29.8201   17.8998 C   0  0  0  0  0  0  0  0  0  0  0  0
  -25.2412  -34.7273   25.9877 C   0  0  0  0  0  0  0  0  0  0  0  0
  -25.8663  -30.3366   20.6168 C   0  0  0  0  0  0  0  0  0  0  0  0
  -23.3097  -28.8577   20.7645 C   0  0  0  0  0  0  0  0  0  0  0  0
  -24.0605  -34.0834   25.2655 C   0  0  0  0  0  0  0  0  0  0  0  0
  -25.7513  -17.1042   20.1513 C   0  0  0  0  0  0  0  0  0  0  0  0
  -24.0845  -32.5692   25.4479 C   0  0  0  0  0  0  0  0  0  0  0  0
  -24.7769  -16.1111   20.7832 C   0  0  0  0  0  0  0  0  0  0  0  0
  -26.9310  -16.3924   19.4944 C   0  0  0  0  0  0  0  0  0  0  0  0
  -26.6957  -14.4795   21.0468 C   0  0  0  0  0  0  0  0  0  0  0  0
  -25.3569  -31.9611   24.8458 C   0  0  1  0  0  0  0  0  0  0  0  0
  -24.6231  -30.9439   21.2596 C   0  0  1  0  0  0  0  0  0  0  0  0
  -25.5068  -15.1589   21.7468 C   0  0  2  0  0  0  0  0  0  0  0  0
  -18.6770  -30.2999   16.3371 C   0  0  0  0  0  0  0  0  0  0  0  0
  -28.1371  -24.4049   17.8510 C   0  0  0  0  0  0  0  0  0  0  0  0
  -28.1500  -22.8618   15.8623 C   0  0  0  0  0  0  0  0  0  0  0  0
  -30.2838  -23.5376   16.9447 C   0  0  0  0  0  0  0  0  0  0  0  0
  -29.7050  -16.2658   18.5211 C   0  0  0  0  0  0  0  0  0  0  0  0
  -31.2514  -16.2759   20.4894 C   0  0  0  0  0  0  0  0  0  0  0  0
  -20.2812  -30.4420   22.7618 C   0  0  0  0  0  0  0  0  0  0  0  0
  -18.5695  -30.0070   20.9873 C   0  0  0  0  0  0  0  0  0  0  0  0
  -19.5440  -32.2888   21.2451 C   0  0  0  0  0  0  0  0  0  0  0  0
  -25.5810  -22.8741   17.9242 C   0  0  0  0  0  0  0  0  0  0  0  0
  -25.4687  -22.0205   20.2558 C   0  0  0  0  0  0  0  0  0  0  0  0
  -22.3584  -29.7723   15.5339 C   0  0  0  0  0  0  0  0  0  0  0  0
  -29.3403  -17.8990   20.4430 C   0  0  0  0  0  0  0  0  0  0  0  0
  -26.8739  -24.0397   19.7308 C   0  0  0  0  0  0  0  0  0  1  0  0
  -20.9641  -30.4372   20.2719 C   0  0  1  0  0  0  0  0  0  0  0  0
  -20.1762  -30.4170   16.5640 C   0  0  2  0  0  0  0  0  0  0  0  0
  -28.8045  -23.1221   17.2577 C   0  0  0  0  0  0  0  0  0  0  0  0
  -29.8002  -16.4877   20.0354 C   0  0  0  0  0  0  0  0  0  0  0  0
  -19.8645  -30.7798   21.3164 C   0  0  0  0  0  0  0  0  0  0  0  0
  -26.4146  -22.6536   19.2094 C   0  0  0  0  0  0  0  0  0  0  0  0
  -24.4028  -12.9536   21.7644 N   0  0  0  0  0  0  0  0  0  0  0  0
  -27.6305  -21.7303   19.0060 N   0  0  0  0  0  0  0  0  0  0  0  0
  -24.5597  -14.1463   22.3636 N   0  0  0  0  0  0  0  0  0  0  0  0
  -29.4968  -20.9346   18.2720 N   0  3  0  0  0  0  0  0  0  0  0  0
  -23.3827  -30.3281   20.7840 N   0  0  0  0  0  0  0  0  0  0  0  0
  -27.5822  -15.4745   20.4366 N   0  0  0  0  0  0  0  0  0  0  0  0
  -23.8538  -15.4337   24.2223 N   0  0  0  0  0  0  0  0  0  0  0  0
  -21.5819  -11.5616   24.7137 N   0  0  0  0  0  0  0  0  0  0  0  0
  -29.7508  -18.8989   19.4828 N   0  0  0  0  0  0  0  0  0  0  0  0
  -25.2436  -31.8757   23.4055 N   0  0  0  0  0  0  0  0  0  0  0  0
  -20.6075  -30.7717   18.8973 N   0  0  0  0  0  0  0  0  0  0  0  0
  -20.8762  -29.7166   15.4502 N   0  3  0  0  0  0  0  0  0  0  0  0
  -21.9362  -13.6399   25.6158 O   0  0  0  0  0  0  0  0  0  0  0  0
  -24.1055  -29.8476   23.2858 O   0  0  0  0  0  0  0  0  0  0  0  0
  -22.2952  -32.3787   20.5640 O   0  0  0  0  0  0  0  0  0  0  0  0
  -29.4714  -14.6837   21.5351 O   0  0  0  0  0  0  0  0  0  0  0  0
  -20.8435  -28.6282   18.0446 O   0  0  0  0  0  0  0  0  0  0  0  0
  -21.8400   -7.1402   21.3344 O   0  0  0  0  0  0  0  0  0  0  0  0
  -25.8284  -24.6738   20.4664 O   0  0  0  0  0  0  0  0  0  1  0  0
  -21.6451   -3.4719   25.4466 F   0  0  0  0  0  0  0  0  0  0  0  0
  -20.2267   -7.5651   23.5388 F   0  0  0  0  0  0  0  0  0  0  0  0
  1  2  1  0  0  0  0
  1  5  2  0  0  0  0
  2  6  2  0  0  0  0
  3  8  2  0  0  0  0
  3 16  1  0  0  0  0
  4  9  1  0  0  0  0
  4 16  2  0  0  0  0
  5 18  1  0  0  0  0
  6 20  1  0  0  0  0
  7 10  2  0  0  0  0
  7 19  1  0  0  0  0
  8 22  1  0  0  0  0
  9 22  2  0  0  0  0
 10 23  1  0  0  0  0
 11 12  2  0  0  0  0
 11 24  1  0  0  0  0
 12 25  1  0  0  0  0
 13 21  1  0  0  0  0
 13 23  2  0  0  0  0
 14 25  2  0  0  0  0
 14 26  1  0  0  0  0
 15 29  2  0  0  0  0
 15 69  1  0  0  0  0
 16 27  1  0  0  0  0
 17 27  1  0  0  0  0
 17 28  2  0  0  0  0
 17 31  1  0  0  0  0
 18 20  2  0  0  0  0
 18 36  1  0  0  0  0
 19 21  2  0  0  0  0
 19 37  1  0  0  0  0
 20 45  1  0  0  0  0
 21 38  1  0  0  0  0
 22 85  1  0  0  0  0
 23 86  1  0  0  0  0
 24 26  2  0  0  0  0
 24 85  1  0  0  0  0
 25 87  1  0  0  0  0
 26 88  1  0  0  0  0
 27 68  2  0  0  0  0
 28 70  1  0  0  0  0
 28 74  1  0  0  0  0
 29 71  1  0  0  0  0
 29 76  1  0  0  0  0
 30 64  1  0  0  0  0
 30 69  1  0  0  0  0
 30 71  2  0  0  0  0
 31 75  1  0  0  0  0
 31 80  2  0  0  0  0
 32 46  1  0  0  0  0
 32 77  1  0  0  0  0
 32 81  2  0  0  0  0
 33 62  1  0  0  0  0
 33 72  1  0  0  0  0
 33 82  2  0  0  0  0
 34 65  1  0  0  0  0
 34 73  1  0  0  0  0
 34 83  2  0  0  0  0
 35 63  1  0  0  0  0
 35 78  1  0  0  0  0
 35 84  2  0  0  0  0
 36 39  1  0  0  0  0
 37 46  1  0  0  0  0
 38 72  1  0  0  0  0
 39 41  1  0  0  0  0
 40 42  1  0  0  0  0
 40 43  1  0  0  0  0
 41 45  1  0  0  0  0
 42 47  1  0  0  0  0
 43 73  1  0  0  0  0
 44 47  1  0  0  0  0
 44 73  1  0  0  0  0
 45 77  1  0  0  0  0
 46 72  1  0  0  0  0
 47 70  1  0  0  0  0
 48 63  1  0  0  0  0
 49 64  1  0  0  0  0
 50 64  1  0  0  0  0
 51 64  1  0  0  0  0
 52 65  1  0  0  0  0
 53 65  1  0  0  0  0
 54 66  1  0  0  0  0
 55 66  1  0  0  0  0
 56 66  1  0  0  0  0
 57 67  1  0  0  0  0
 58 67  1  0  0  0  0
 59 79  1  0  0  0  0
 60 65  1  0  0  0  0
 60 76  1  0  0  0  0
 61 67  1  0  0  0  0
 61 86  1  0  0  0  0
 62 66  1  0  0  0  0
 62 78  1  0  0  0  0
 63 79  1  0  0  0  0
 67 69  1  0  0  0  0
 68 70  1  0  0  0  0
M  CHG  2  71   1  79   1
M  ISO  4  34 100  61 101  65 100  86 101
M  END
> <Batch ID>
0061

> <Smiles>
CNC(C)C(=O)NC(C(=O)N1Cc2cc([101O:1][101CH2:1]C(C)(C)n3cc(NC[100C:0](C)(C)[100C:0](=O)N4CCCC(n5nc(-c6ccc(Oc7ccc(F)cc7F)cc6)c(C(N)=O)c5N)C4)nc3C(C)(C)C)ccc2CC1C(=O)NC1CCCc2ccccc21)C(C)(C)C

> <Shape>
0.282

> <Color>
0.064

> <Negative vol penalty>
0.000

$$$$

  -OEChem-04052317583D

 85 93  0     1  0  0  0  0  0999 V2000
  -16.7988  -28.7530   19.7654 C   0  0  0  0  0  0  0  0  0  0  0  0
  -18.0808  -28.9580   19.2654 C   0  0  0  0  0  0  0  0  0  0  0  0
  -27.1979  -11.8345   20.4347 C   0  0  0  0  0  0  0  0  0  0  0  0
  -26.5222  -12.5850   18.2399 C   0  0  0  0  0  0  0  0  0  0  0  0
  -16.5494  -28.9127   21.1278 C   0  0  0  0  0  0  0  0  0  0  0  0
  -19.1139  -29.3238   20.1276 C   0  0  0  0  0  0  0  0  0  0  0  0
  -25.0023  -27.6910   19.7188 C   0  0  0  0  0  0  0  0  0  0  0  0
  -26.3128  -10.7607   20.3400 C   0  0  0  0  0  0  0  0  0  0  0  0
  -25.6371  -11.5111   18.1452 C   0  0  0  0  0  0  0  0  0  0  0  0
  -26.1236  -28.3443   19.2091 C   0  0  0  0  0  0  0  0  0  0  0  0
  -23.9683   -8.0235   20.8250 C   0  0  0  0  0  0  0  0  0  0  0  0
  -23.1719   -7.7379   21.9340 C   0  0  0  0  0  0  0  0  0  0  0  0
  -26.6785  -29.1104   21.4282 C   0  0  0  0  0  0  0  0  0  0  0  0
  -22.1948   -9.9434   21.8004 C   0  0  0  0  0  0  0  0  0  0  0  0
  -30.4154  -26.6913   20.8407 C   0  0  0  0  0  0  0  0  0  0  0  0
  -31.3676  -26.5592   18.8577 C   0  0  0  0  0  0  0  0  0  0  0  0
  -27.3026  -12.7468   19.3846 C   0  0  0  0  0  0  0  0  0  0  0  0
  -29.5642  -13.8861   19.0769 C   0  0  0  0  0  0  0  0  0  0  0  0
  -17.5820  -29.2713   22.0086 C   0  0  0  0  0  0  0  0  0  0  0  0
  -24.7041  -27.7518   21.0877 C   0  0  0  0  0  0  0  0  0  0  0  0
  -18.8777  -29.4897   21.5029 C   0  0  0  0  0  0  0  0  0  0  0  0
  -25.5542  -28.4550   21.9531 C   0  0  0  0  0  0  0  0  0  0  0  0
  -25.5324  -10.5989   19.1953 C   0  0  0  0  0  0  0  0  0  0  0  0
  -26.9603  -29.0565   20.0634 C   0  0  0  0  0  0  0  0  0  0  0  0
  -23.8780   -9.2692   20.2038 C   0  0  0  0  0  0  0  0  0  0  0  0
  -22.2852   -8.6978   22.4217 C   0  0  0  0  0  0  0  0  0  0  0  0
  -22.9912  -10.2291   20.6915 C   0  0  0  0  0  0  0  0  0  0  0  0
  -28.2163  -13.8566   19.4820 C   0  0  0  0  0  0  0  0  0  0  0  0
  -30.6378  -25.3845   20.4757 C   0  0  0  0  0  0  0  0  0  0  0  0
  -29.9863  -15.1573   19.3807 C   0  0  0  0  0  0  0  0  0  0  0  0
  -30.3632  -12.8565   18.4794 C   0  0  0  0  0  0  0  0  0  0  0  0
  -22.2803  -28.8791   22.8076 C   0  0  0  0  0  0  0  0  0  0  0  0
  -23.8917  -27.5023   25.2633 C   0  0  0  0  0  0  0  0  0  0  0  0
  -26.8647  -26.3878   26.5146 C   0  0  0  0  0  0  0  0  0  0  0  0
  -27.2795  -20.2638   19.8326 C   0  0  0  0  0  0  0  0  0  0  0  0
  -17.2539  -29.4782   23.4660 C   0  0  0  0  0  0  0  0  0  0  0  0
  -23.5056  -27.0195   21.6258 C   0  0  0  0  0  0  0  0  0  0  0  0
  -25.2895  -28.5340   23.4337 C   0  0  0  0  0  0  0  0  0  0  0  0
  -18.4839  -29.5019   24.3698 C   0  0  0  0  0  0  0  0  0  0  0  0
  -29.1712  -18.7604   22.4081 C   0  0  0  0  0  0  0  0  0  0  0  0
  -19.5680  -30.3936   23.7728 C   0  0  0  0  0  0  0  0  0  0  0  0
  -29.2668  -17.3186   21.9111 C   0  0  0  0  0  0  0  0  0  0  0  0
  -27.7902  -19.3664   22.1511 C   0  0  0  0  0  0  0  0  0  0  0  0
  -27.4431  -17.8275   20.2448 C   0  0  0  0  0  0  0  0  0  0  0  0
  -20.0299  -29.8632   22.4101 C   0  0  1  0  0  0  0  0  0  0  0  0
  -23.0137  -27.5763   22.9582 C   0  0  1  0  0  0  0  0  0  0  0  0
  -28.8391  -17.2153   20.4368 C   0  0  2  0  0  0  0  0  0  0  0  0
  -27.8737  -25.3472   28.5632 C   0  0  0  0  0  0  0  0  0  0  0  0
  -23.7706  -30.1972   26.6890 C   0  0  0  0  0  0  0  0  0  0  0  0
  -25.5636  -29.3817   28.2344 C   0  0  0  0  0  0  0  0  0  0  0  0
  -23.3581  -28.2184   28.1616 C   0  0  0  0  0  0  0  0  0  0  0  0
  -26.0560  -21.6897   21.5281 C   0  0  0  0  0  0  0  0  0  0  0  0
  -27.7220  -23.9855   25.0136 C   0  0  0  0  0  0  0  0  0  0  0  0
  -28.0146  -23.7222   20.2007 C   0  0  0  0  0  0  0  0  0  0  0  0
  -29.4047  -23.1475   20.4959 C   0  0  0  0  0  0  0  0  0  0  0  0
  -30.1604  -29.4603   18.4421 C   0  0  0  0  0  0  0  0  0  0  0  0
  -30.8775  -28.9362   19.6882 C   0  0  0  0  0  0  0  0  0  0  0  0
  -27.0945  -22.7040   19.5334 C   0  0  0  0  0  0  0  0  0  0  0  0
  -28.6735  -29.1260   18.4153 C   0  0  0  0  0  0  0  0  0  1  0  0
  -30.3232  -24.1623   21.2311 C   0  0  1  0  0  0  0  0  0  0  0  0
  -24.9630  -27.9545   26.2260 C   0  0  1  0  0  0  0  0  0  0  0  0
  -27.2445  -25.0892   27.2029 C   0  0  2  0  0  0  0  0  0  0  0  0
  -24.4180  -28.9383   27.2996 C   0  0  0  0  0  0  0  0  0  0  0  0
  -31.2311  -25.3090   19.2404 N   0  0  0  0  0  0  0  0  0  0  0  0
  -27.8091  -15.0169   20.0036 N   0  0  0  0  0  0  0  0  0  0  0  0
  -30.8884  -27.4321   19.7945 N   0  0  0  0  0  0  0  0  0  0  0  0
  -28.9076  -15.7873   19.9283 N   0  0  0  0  0  0  0  0  0  0  0  0
  -24.1018  -27.8065   23.9108 N   0  0  0  0  0  0  0  0  0  0  0  0
  -27.4009  -19.2042   20.7436 N   0  0  0  0  0  0  0  0  0  0  0  0
  -31.1711  -15.7865   19.2303 N   0  0  0  0  0  0  0  0  0  0  0  0
  -29.7725  -11.6091   18.2356 N   0  0  0  0  0  0  0  0  0  0  0  0
  -20.9243  -28.7385   22.5823 N   0  0  0  0  0  0  0  0  0  0  0  0
  -25.5574  -26.7405   26.7749 N   0  0  0  0  0  0  0  0  0  0  0  0
  -26.8980  -21.5122   20.3467 N   0  0  0  0  0  0  0  0  0  0  0  0
  -28.2190  -24.3278   26.3711 N   0  3  0  0  0  0  0  0  0  0  0  0
  -31.5701  -13.0321   18.1858 O   0  0  0  0  0  0  0  0  0  0  0  0
  -22.8987  -29.9337   22.8912 O   0  0  0  0  0  0  0  0  0  0  0  0
  -22.9084  -26.8951   25.6944 O   0  0  0  0  0  0  0  0  0  0  0  0
  -27.6505  -27.0275   25.8190 O   0  0  0  0  0  0  0  0  0  0  0  0
  -27.4922  -20.1028   18.6239 O   0  0  0  0  0  0  0  0  0  0  0  0
  -31.5461  -23.4757   21.5651 O   0  0  0  0  0  0  0  0  0  0  0  0
  -24.6687   -9.5510   19.1025 O   0  0  0  0  0  0  0  0  0  0  0  0
  -28.0550  -29.6955   19.5684 O   0  0  0  0  0  0  0  0  0  1  0  0
  -21.5193   -8.4227   23.4856 F   0  0  0  0  0  0  0  0  0  0  0  0
  -22.8991  -11.4271   20.0981 F   0  0  0  0  0  0  0  0  0  0  0  0
  1  2  1  0  0  0  0
  1  5  2  0  0  0  0
  2  6  2  0  0  0  0
  3  8  2  0  0  0  0
  3 17  1  0  0  0  0
  4  9  1  0  0  0  0
  4 17  2  0  0  0  0
  5 19  1  0  0  0  0
  6 21  1  0  0  0  0
  7 10  2  0  0  0  0
  7 20  1  0  0  0  0
  8 23  1  0  0  0  0
  9 23  2  0  0  0  0
 10 24  1  0  0  0  0
 11 12  2  0  0  0  0
 11 25  1  0  0  0  0
 12 26  1  0  0  0  0
 13 22  1  0  0  0  0
 13 24  2  0  0  0  0
 14 26  2  0  0  0  0
 14 27  1  0  0  0  0
 15 29  2  0  0  0  0
 15 66  1  0  0  0  0
 16 64  2  0  0  0  0
 16 66  1  0  0  0  0
 17 28  1  0  0  0  0
 18 28  1  0  0  0  0
 18 30  2  0  0  0  0
 18 31  1  0  0  0  0
 19 21  2  0  0  0  0
 19 36  1  0  0  0  0
 20 22  2  0  0  0  0
 20 37  1  0  0  0  0
 21 45  1  0  0  0  0
 22 38  1  0  0  0  0
 23 82  1  0  0  0  0
 24 83  1  0  0  0  0
 25 27  2  0  0  0  0
 25 82  1  0  0  0  0
 26 84  1  0  0  0  0
 27 85  1  0  0  0  0
 28 65  2  0  0  0  0
 29 60  1  0  0  0  0
 29 64  1  0  0  0  0
 30 67  1  0  0  0  0
 30 70  1  0  0  0  0
 31 71  1  0  0  0  0
 31 76  2  0  0  0  0
 32 46  1  0  0  0  0
 32 72  1  0  0  0  0
 32 77  2  0  0  0  0
 33 61  1  0  0  0  0
 33 68  1  0  0  0  0
 33 78  2  0  0  0  0
 34 62  1  0  0  0  0
 34 73  1  0  0  0  0
 34 79  2  0  0  0  0
 35 69  1  0  0  0  0
 35 74  1  0  0  0  0
 35 80  2  0  0  0  0
 36 39  1  0  0  0  0
 37 46  1  0  0  0  0
 38 68  1  0  0  0  0
 39 41  1  0  0  0  0
 40 42  1  0  0  0  0
 40 43  1  0  0  0  0
 41 45  1  0  0  0  0
 42 47  1  0  0  0  0
 43 69  1  0  0  0  0
 44 47  1  0  0  0  0
 44 69  1  0  0  0  0
 45 72  1  0  0  0  0
 46 68  1  0  0  0  0
 47 67  1  0  0  0  0
 48 62  1  0  0  0  0
 49 63  1  0  0  0  0
 50 63  1  0  0  0  0
 51 63  1  0  0  0  0
 52 74  1  0  0  0  0
 53 75  1  0  0  0  0
 54 55  1  0  0  0  0
 54 58  1  0  0  0  0
 55 60  1  0  0  0  0
 56 57  1  0  0  0  0
 56 59  1  0  0  0  0
 57 66  1  0  0  0  0
 58 74  1  0  0  0  0
 59 83  1  0  0  0  0
 60 81  1  0  0  0  0
 61 63  1  0  0  0  0
 61 73  1  0  0  0  0
 62 75  1  0  0  0  0
 65 67  1  0  0  0  0
M  CHG  1  75   1
M  ISO  4  35 100  59 101  74 100  83 101
M  END
> <Batch ID>
0061

> <Smiles>
CNC(C)C(=O)NC(C(=O)N1Cc2cc([101O:1][101CH2:1]CCn3cnc(C(O)CCC[100N:0](C)[100C:0](=O)N4CCCC(n5nc(-c6ccc(Oc7ccc(F)cc7F)cc6)c(C(N)=O)c5N)C4)c3)ccc2CC1C(=O)NC1CCCc2ccccc21)C(C)(C)C

> <Shape>
0.249

> <Color>
0.070

> <Negative vol penalty>
0.000

$$$$

  -OEChem-04052317583D

 80 88  0     1  0  0  0  0  0999 V2000
  -18.2341  -25.4486   24.0779 C   0  0  0  0  0  0  0  0  0  0  0  0
  -19.6101  -25.6540   24.0851 C   0  0  0  0  0  0  0  0  0  0  0  0
  -24.0735  -13.8462   20.8269 C   0  0  0  0  0  0  0  0  0  0  0  0
  -26.3704  -13.6550   20.1024 C   0  0  0  0  0  0  0  0  0  0  0  0
  -17.5918  -25.0784   22.8971 C   0  0  0  0  0  0  0  0  0  0  0  0
  -20.3447  -25.4882   22.9115 C   0  0  0  0  0  0  0  0  0  0  0  0
  -25.2682  -28.6856   21.1675 C   0  0  0  0  0  0  0  0  0  0  0  0
  -23.8591  -12.5071   20.5009 C   0  0  0  0  0  0  0  0  0  0  0  0
  -26.1560  -12.3158   19.7763 C   0  0  0  0  0  0  0  0  0  0  0  0
  -26.6347  -28.4198   21.2442 C   0  0  0  0  0  0  0  0  0  0  0  0
  -22.8054   -9.0413   20.1965 C   0  0  0  0  0  0  0  0  0  0  0  0
  -22.1095   -8.2539   21.1137 C   0  0  0  0  0  0  0  0  0  0  0  0
  -26.5947  -27.5925   18.9785 C   0  0  0  0  0  0  0  0  0  0  0  0
  -23.8074   -8.6899   22.7762 C   0  0  0  0  0  0  0  0  0  0  0  0
  -29.1744  -24.1133   21.0098 C   0  0  0  0  0  0  0  0  0  0  0  0
  -25.3291  -14.4202   20.6276 C   0  0  0  0  0  0  0  0  0  0  0  0
  -25.9841  -16.3193   22.2000 C   0  0  0  0  0  0  0  0  0  0  0  0
  -18.3176  -24.9174   21.7063 C   0  0  0  0  0  0  0  0  0  0  0  0
  -24.5514  -28.3962   19.9976 C   0  0  0  0  0  0  0  0  0  0  0  0
  -19.7117  -25.1142   21.7140 C   0  0  0  0  0  0  0  0  0  0  0  0
  -25.2198  -27.8579   18.8887 C   0  0  0  0  0  0  0  0  0  0  0  0
  -24.9004  -11.7419   19.9756 C   0  0  0  0  0  0  0  0  0  0  0  0
  -27.2976  -27.8705   20.1506 C   0  0  0  0  0  0  0  0  0  0  0  0
  -24.0023   -9.6530   20.5691 C   0  0  0  0  0  0  0  0  0  0  0  0
  -22.6104   -8.0782   22.4036 C   0  0  0  0  0  0  0  0  0  0  0  0
  -24.5033   -9.4773   21.8590 C   0  0  0  0  0  0  0  0  0  0  0  0
  -25.5510  -15.8037   20.9637 C   0  0  0  0  0  0  0  0  0  0  0  0
  -30.0824  -25.0782   20.6528 C   0  0  0  0  0  0  0  0  0  0  0  0
  -26.0369  -17.6779   22.0058 C   0  0  0  0  0  0  0  0  0  0  0  0
  -26.3097  -15.6315   23.4151 C   0  0  0  0  0  0  0  0  0  0  0  0
  -22.1267  -26.4738   19.2701 C   0  0  0  0  0  0  0  0  0  0  0  0
  -27.5068  -22.0409   18.8288 C   0  0  0  0  0  0  0  0  0  0  0  0
  -22.3246  -27.9555   16.3913 C   0  0  0  0  0  0  0  0  0  0  0  0
  -24.2272  -29.6868   14.1487 C   0  0  0  0  0  0  0  0  0  0  0  0
  -17.5863  -24.4703   20.4653 C   0  0  0  0  0  0  0  0  0  0  0  0
  -23.0831  -28.7136   19.9217 C   0  0  0  0  0  0  0  0  0  0  0  0
  -24.4999  -27.5478   17.6026 C   0  0  0  0  0  0  0  0  0  0  0  0
  -18.3827  -24.6804   19.1801 C   0  0  0  0  0  0  0  0  0  0  0  0
  -24.3098  -20.5412   18.2207 C   0  0  0  0  0  0  0  0  0  0  0  0
  -19.8154  -24.1861   19.3531 C   0  0  0  0  0  0  0  0  0  0  0  0
  -24.3946  -19.2044   18.9563 C   0  0  0  0  0  0  0  0  0  0  0  0
  -25.6557  -20.9340   17.6195 C   0  0  0  0  0  0  0  0  0  0  0  0
  -26.8621  -19.6349   19.3454 C   0  0  0  0  0  0  0  0  0  0  0  0
  -20.5395  -24.9683   20.4556 C   0  0  1  0  0  0  0  0  0  0  0  0
  -22.3504  -27.9014   18.8583 C   0  0  1  0  0  0  0  0  0  0  0  0
  -25.5310  -19.2157   19.9941 C   0  0  2  0  0  0  0  0  0  0  0  0
  -24.1242  -30.7291   11.8683 C   0  0  0  0  0  0  0  0  0  0  0  0
  -31.5164  -27.2283   20.6481 C   0  0  0  0  0  0  0  0  0  0  0  0
  -30.9652  -26.0804   22.7826 C   0  0  0  0  0  0  0  0  0  0  0  0
  -22.5147  -25.1881   15.1204 C   0  0  0  0  0  0  0  0  0  0  0  0
  -23.3498  -26.2823   13.0292 C   0  0  0  0  0  0  0  0  0  0  0  0
  -21.0653  -26.8071   13.8826 C   0  0  0  0  0  0  0  0  0  0  0  0
  -24.8057  -32.3815   15.2270 C   0  0  0  0  0  0  0  0  0  0  0  0
  -28.5719  -21.9425   19.8918 C   0  0  0  0  0  0  0  0  0  0  0  0
  -29.1600  -27.2809   21.5070 C   0  0  0  0  0  0  0  0  0  1  0  0
  -23.0841  -27.7063   15.1106 C   0  0  1  0  0  0  0  0  0  0  0  0
  -23.9522  -30.9558   13.3622 C   0  0  2  0  0  0  0  0  0  0  0  0
  -30.4270  -26.3979   21.3685 C   0  0  0  0  0  0  0  0  0  0  0  0
  -22.5169  -26.4999   14.3105 C   0  0  0  0  0  0  0  0  0  0  0  0
  -25.3432  -16.7571   20.0517 N   0  0  0  0  0  0  0  0  0  0  0  0
  -30.7090  -24.7132   19.4937 N   0  0  0  0  0  0  0  0  0  0  0  0
  -30.2138  -23.5403   19.1139 N   0  0  0  0  0  0  0  0  0  0  0  0
  -29.2937  -23.1825   20.0242 N   0  0  0  0  0  0  0  0  0  0  0  0
  -25.6470  -17.8855   20.7154 N   0  0  0  0  0  0  0  0  0  0  0  0
  -23.0636  -27.8702   17.5798 N   0  0  0  0  0  0  0  0  0  0  0  0
  -26.7127  -20.9110   18.6322 N   0  0  0  0  0  0  0  0  0  0  0  0
  -26.3782  -18.7034   22.8148 N   0  0  0  0  0  0  0  0  0  0  0  0
  -26.2011  -14.2344   23.4419 N   0  0  0  0  0  0  0  0  0  0  0  0
  -20.9515  -26.2667   19.9668 N   0  0  0  0  0  0  0  0  0  0  0  0
  -23.0732  -28.9677   14.3776 N   0  0  0  0  0  0  0  0  0  0  0  0
  -24.8851  -32.0388   13.7837 N   0  3  0  0  0  0  0  0  0  0  0  0
  -26.6701  -16.2392   24.4517 O   0  0  0  0  0  0  0  0  0  0  0  0
  -22.9581  -25.6228   18.9763 O   0  0  0  0  0  0  0  0  0  0  0  0
  -27.3839  -23.0925   18.1953 O   0  0  0  0  0  0  0  0  0  0  0  0
  -21.1216  -28.2232   16.3387 O   0  0  0  0  0  0  0  0  0  0  0  0
  -25.3536  -29.3638   14.5194 O   0  0  0  0  0  0  0  0  0  0  0  0
  -24.6916  -10.4350   19.6576 O   0  0  0  0  0  0  0  0  0  0  0  0
  -28.6312  -27.6095   20.2230 O   0  0  0  0  0  0  0  0  0  1  0  0
  -21.9413   -7.3233   23.2848 F   0  0  0  0  0  0  0  0  0  0  0  0
  -25.6521  -10.0634   22.2231 F   0  0  0  0  0  0  0  0  0  0  0  0
  1  2  1  0  0  0  0
  1  5  2  0  0  0  0
  2  6  2  0  0  0  0
  3  8  2  0  0  0  0
  3 16  1  0  0  0  0
  4  9  1  0  0  0  0
  4 16  2  0  0  0  0
  5 18  1  0  0  0  0
  6 20  1  0  0  0  0
  7 10  2  0  0  0  0
  7 19  1  0  0  0  0
  8 22  1  0  0  0  0
  9 22  2  0  0  0  0
 10 23  1  0  0  0  0
 11 12  2  0  0  0  0
 11 24  1  0  0  0  0
 12 25  1  0  0  0  0
 13 21  1  0  0  0  0
 13 23  2  0  0  0  0
 14 25  2  0  0  0  0
 14 26  1  0  0  0  0
 15 28  2  0  0  0  0
 15 63  1  0  0  0  0
 16 27  1  0  0  0  0
 17 27  1  0  0  0  0
 17 29  2  0  0  0  0
 17 30  1  0  0  0  0
 18 20  2  0  0  0  0
 18 35  1  0  0  0  0
 19 21  2  0  0  0  0
 19 36  1  0  0  0  0
 20 44  1  0  0  0  0
 21 37  1  0  0  0  0
 22 77  1  0  0  0  0
 23 78  1  0  0  0  0
 24 26  2  0  0  0  0
 24 77  1  0  0  0  0
 25 79  1  0  0  0  0
 26 80  1  0  0  0  0
 27 60  2  0  0  0  0
 28 58  1  0  0  0  0
 28 61  1  0  0  0  0
 29 64  1  0  0  0  0
 29 67  1  0  0  0  0
 30 68  1  0  0  0  0
 30 72  2  0  0  0  0
 31 45  1  0  0  0  0
 31 69  1  0  0  0  0
 31 73  2  0  0  0  0
 32 54  1  0  0  0  0
 32 66  1  0  0  0  0
 32 74  2  0  0  0  0
 33 56  1  0  0  0  0
 33 65  1  0  0  0  0
 33 75  2  0  0  0  0
 34 57  1  0  0  0  0
 34 70  1  0  0  0  0
 34 76  2  0  0  0  0
 35 38  1  0  0  0  0
 36 45  1  0  0  0  0
 37 65  1  0  0  0  0
 38 40  1  0  0  0  0
 39 41  1  0  0  0  0
 39 42  1  0  0  0  0
 40 44  1  0  0  0  0
 41 46  1  0  0  0  0
 42 66  1  0  0  0  0
 43 46  1  0  0  0  0
 43 66  1  0  0  0  0
 44 69  1  0  0  0  0
 45 65  1  0  0  0  0
 46 64  1  0  0  0  0
 47 57  1  0  0  0  0
 48 58  1  0  0  0  0
 49 58  1  0  0  0  0
 50 59  1  0  0  0  0
 51 59  1  0  0  0  0
 52 59  1  0  0  0  0
 53 71  1  0  0  0  0
 54 63  1  0  0  0  0
 55 58  1  0  0  0  0
 55 78  1  0  0  0  0
 56 59  1  0  0  0  0
 56 70  1  0  0  0  0
 57 71  1  0  0  0  0
 60 64  1  0  0  0  0
 61 62  2  0  0  0  0
 62 63  1  0  0  0  0
M  CHG  1  71   1
M  ISO  4  32 100  54 100  55 101  78 101
M  END
> <Batch ID>
0061

> <Smiles>
CNC(C)C(=O)NC(C(=O)N1Cc2cc([101O:1][101CH2:1]C(C)(C)c3cn([100CH2:0][100C:0](=O)N4CCCC(n5nc(-c6ccc(Oc7ccc(F)cc7F)cc6)c(C(N)=O)c5N)C4)nn3)ccc2CC1C(=O)NC1CCCc2ccccc21)C(C)(C)C

> <Shape>
0.196

> <Color>
0.075

> <Negative vol penalty>
0.000

$$$$

  -OEChem-04052317583D

 82 90  0     1  0  0  0  0  0999 V2000
  -31.5328  -12.8031   22.4350 C   0  0  0  0  0  0  0  0  0  0  0  0
  -30.9300  -13.9999   22.8086 C   0  0  0  0  0  0  0  0  0  0  0  0
  -24.9057  -30.7038   21.0644 C   0  0  0  0  0  0  0  0  0  0  0  0
  -24.9500  -29.2368   22.9835 C   0  0  0  0  0  0  0  0  0  0  0  0
  -31.0288  -12.0767   21.3569 C   0  0  0  0  0  0  0  0  0  0  0  0
  -29.8233  -14.4717   22.1035 C   0  0  0  0  0  0  0  0  0  0  0  0
  -26.1424  -16.1398   25.1553 C   0  0  0  0  0  0  0  0  0  0  0  0
  -24.3290  -31.7064   21.8441 C   0  0  0  0  0  0  0  0  0  0  0  0
  -24.3733  -30.2393   23.7632 C   0  0  0  0  0  0  0  0  0  0  0  0
  -26.3095  -17.4020   25.7235 C   0  0  0  0  0  0  0  0  0  0  0  0
  -25.3485  -33.9840   24.1258 C   0  0  0  0  0  0  0  0  0  0  0  0
  -25.8609  -35.2755   24.0038 C   0  0  0  0  0  0  0  0  0  0  0  0
  -24.8437  -18.3410   24.0536 C   0  0  0  0  0  0  0  0  0  0  0  0
  -23.6918  -36.0691   23.2949 C   0  0  0  0  0  0  0  0  0  0  0  0
  -28.3838  -23.1549   22.6000 C   0  0  0  0  0  0  0  0  0  0  0  0
  -25.2162  -29.4690   21.6341 C   0  0  0  0  0  0  0  0  0  0  0  0
  -27.1843  -28.2012   20.6207 C   0  0  0  0  0  0  0  0  0  0  0  0
  -29.9094  -12.5350   20.6443 C   0  0  0  0  0  0  0  0  0  0  0  0
  -25.3320  -15.9703   24.0236 C   0  0  0  0  0  0  0  0  0  0  0  0
  -29.3046  -13.7515   21.0141 C   0  0  0  0  0  0  0  0  0  0  0  0
  -24.6659  -17.0753   23.4745 C   0  0  0  0  0  0  0  0  0  0  0  0
  -24.0628  -31.4742   23.1935 C   0  0  0  0  0  0  0  0  0  0  0  0
  -25.6624  -18.5033   25.1709 C   0  0  0  0  0  0  0  0  0  0  0  0
  -24.0077  -33.7349   23.8323 C   0  0  0  0  0  0  0  0  0  0  0  0
  -25.0326  -36.3181   23.5883 C   0  0  0  0  0  0  0  0  0  0  0  0
  -23.1794  -34.7775   23.4168 C   0  0  0  0  0  0  0  0  0  0  0  0
  -25.8114  -28.4328   20.8291 C   0  0  0  0  0  0  0  0  0  0  0  0
  -27.1256  -23.0354   23.1194 C   0  0  0  0  0  0  0  0  0  0  0  0
  -27.2258  -27.1105   19.7869 C   0  0  0  0  0  0  0  0  0  0  0  0
  -27.0211  -22.5606   20.9598 C   0  0  0  0  0  0  0  0  0  0  0  0
  -28.3204  -28.9088   21.1348 C   0  0  0  0  0  0  0  0  0  0  0  0
  -25.8211  -14.9834   21.0419 C   0  0  0  0  0  0  0  0  0  0  0  0
  -22.5924  -15.2264   20.8457 C   0  0  0  0  0  0  0  0  0  0  0  0
  -19.7162  -16.6360   22.0236 C   0  0  0  0  0  0  0  0  0  0  0  0
  -24.0073  -22.1827   19.1226 C   0  0  0  0  0  0  0  0  0  0  0  0
  -29.4294  -11.7393   19.4564 C   0  0  0  0  0  0  0  0  0  0  0  0
  -25.1409  -14.5978   23.4387 C   0  0  0  0  0  0  0  0  0  0  0  0
  -23.7687  -16.9432   22.2720 C   0  0  0  0  0  0  0  0  0  0  0  0
  -28.0243  -12.1191   18.9964 C   0  0  0  0  0  0  0  0  0  0  0  0
  -24.0546  -24.9599   16.6758 C   0  0  0  0  0  0  0  0  0  0  0  0
  -27.8809  -13.6356   18.9152 C   0  0  0  0  0  0  0  0  0  0  0  0
  -24.5742  -26.1297   17.5098 C   0  0  0  0  0  0  0  0  0  0  0  0
  -23.3132  -23.9379   17.5323 C   0  0  0  0  0  0  0  0  0  0  0  0
  -24.6239  -24.6022   19.5210 C   0  0  0  0  0  0  0  0  0  0  0  0
  -28.0872  -14.2837   20.2895 C   0  0  1  0  0  0  0  0  0  0  0  0
  -24.7013  -14.6267   21.9781 C   0  0  1  0  0  0  0  0  0  0  0  0
  -25.4162  -25.6270   18.6954 C   0  0  2  0  0  0  0  0  0  0  0  0
  -17.2367  -16.6681   21.6382 C   0  0  0  0  0  0  0  0  0  0  0  0
  -22.9996  -16.9897   18.3891 C   0  0  0  0  0  0  0  0  0  0  0  0
  -20.6242  -17.7452   18.6238 C   0  0  0  0  0  0  0  0  0  0  0  0
  -21.1296  -15.3410   18.1914 C   0  0  0  0  0  0  0  0  0  0  0  0
  -29.3976  -22.8580   20.3277 C   0  0  0  0  0  0  0  0  0  0  0  0
  -25.0829  -20.2278   20.1718 C   0  0  0  0  0  0  0  0  0  0  0  0
  -19.1630  -15.6092   24.7437 C   0  0  0  0  0  0  0  0  0  0  0  0
  -26.6027  -23.2356   24.5195 C   0  0  0  0  0  0  0  0  0  0  0  0
  -26.4867  -22.1821   19.6279 C   0  0  0  0  0  0  0  0  0  0  0  0
  -26.6345  -21.9679   25.3759 C   0  0  0  0  0  0  0  0  0  0  0  0
  -25.7345  -20.8580   24.8454 C   0  0  0  0  0  0  0  0  0  1  0  0
  -21.6236  -16.3212   20.4689 C   0  0  1  0  0  0  0  0  0  0  0  0
  -18.3802  -16.0268   22.4088 C   0  0  2  0  0  0  0  0  0  0  0  0
  -21.6126  -16.6024   18.9398 C   0  0  0  0  0  0  0  0  0  0  0  0
  -25.0368  -27.5595   20.1799 N   0  0  0  0  0  0  0  0  0  0  0  0
  -28.2897  -22.8549   21.2624 N   0  0  0  0  0  0  0  0  0  0  0  0
  -25.9259  -26.7686   19.5554 N   0  0  0  0  0  0  0  0  0  0  0  0
  -26.3029  -22.6671   22.0824 N   0  3  0  0  0  0  0  0  0  0  0  0
  -23.6188  -15.5816   21.7324 N   0  0  0  0  0  0  0  0  0  0  0  0
  -24.1195  -23.5096   18.6758 N   0  0  0  0  0  0  0  0  0  0  0  0
  -28.2471  -26.4202   19.2366 N   0  0  0  0  0  0  0  0  0  0  0  0
  -28.0986  -30.0062   21.9779 N   0  0  0  0  0  0  0  0  0  0  0  0
  -26.9027  -14.1257   21.1058 N   0  0  0  0  0  0  0  0  0  0  0  0
  -20.3290  -15.9257   21.0131 N   0  0  0  0  0  0  0  0  0  0  0  0
  -25.1463  -21.6050   19.7037 N   0  0  0  0  0  0  0  0  0  0  0  0
  -18.1272  -16.2120   23.8657 N   0  3  0  0  0  0  0  0  0  0  0  0
  -29.4970  -28.5877   20.8417 O   0  0  0  0  0  0  0  0  0  0  0  0
  -25.7114  -15.9633   20.3143 O   0  0  0  0  0  0  0  0  0  0  0  0
  -22.4397  -14.0959   20.3764 O   0  0  0  0  0  0  0  0  0  0  0  0
  -20.1690  -17.6435   22.5626 O   0  0  0  0  0  0  0  0  0  0  0  0
  -22.9522  -21.5474   19.0000 O   0  0  0  0  0  0  0  0  0  0  0  0
  -23.5003  -32.4523   23.9547 O   0  0  0  0  0  0  0  0  0  0  0  0
  -25.8242  -19.7365   25.7231 O   0  0  0  0  0  0  0  0  0  1  0  0
  -25.5244  -37.5586   23.4727 F   0  0  0  0  0  0  0  0  0  0  0  0
  -21.8902  -34.5446   23.1346 F   0  0  0  0  0  0  0  0  0  0  0  0
  1  2  1  0  0  0  0
  1  5  2  0  0  0  0
  2  6  2  0  0  0  0
  3  8  2  0  0  0  0
  3 16  1  0  0  0  0
  4  9  1  0  0  0  0
  4 16  2  0  0  0  0
  5 18  1  0  0  0  0
  6 20  1  0  0  0  0
  7 10  2  0  0  0  0
  7 19  1  0  0  0  0
  8 22  1  0  0  0  0
  9 22  2  0  0  0  0
 10 23  1  0  0  0  0
 11 12  2  0  0  0  0
 11 24  1  0  0  0  0
 12 25  1  0  0  0  0
 13 21  1  0  0  0  0
 13 23  2  0  0  0  0
 14 25  2  0  0  0  0
 14 26  1  0  0  0  0
 15 28  2  0  0  0  0
 15 63  1  0  0  0  0
 16 27  1  0  0  0  0
 17 27  1  0  0  0  0
 17 29  2  0  0  0  0
 17 31  1  0  0  0  0
 18 20  2  0  0  0  0
 18 36  1  0  0  0  0
 19 21  2  0  0  0  0
 19 37  1  0  0  0  0
 20 45  1  0  0  0  0
 21 38  1  0  0  0  0
 22 79  1  0  0  0  0
 23 80  1  0  0  0  0
 24 26  2  0  0  0  0
 24 79  1  0  0  0  0
 25 81  1  0  0  0  0
 26 82  1  0  0  0  0
 27 62  2  0  0  0  0
 28 55  1  0  0  0  0
 28 65  1  0  0  0  0
 29 64  1  0  0  0  0
 29 68  1  0  0  0  0
 30 56  1  0  0  0  0
 30 63  1  0  0  0  0
 30 65  2  0  0  0  0
 31 69  1  0  0  0  0
 31 74  2  0  0  0  0
 32 46  1  0  0  0  0
 32 70  1  0  0  0  0
 32 75  2  0  0  0  0
 33 59  1  0  0  0  0
 33 66  1  0  0  0  0
 33 76  2  0  0  0  0
 34 60  1  0  0  0  0
 34 71  1  0  0  0  0
 34 77  2  0  0  0  0
 35 67  1  0  0  0  0
 35 72  1  0  0  0  0
 35 78  2  0  0  0  0
 36 39  1  0  0  0  0
 37 46  1  0  0  0  0
 38 66  1  0  0  0  0
 39 41  1  0  0  0  0
 40 42  1  0  0  0  0
 40 43  1  0  0  0  0
 41 45  1  0  0  0  0
 42 47  1  0  0  0  0
 43 67  1  0  0  0  0
 44 47  1  0  0  0  0
 44 67  1  0  0  0  0
 45 70  1  0  0  0  0
 46 66  1  0  0  0  0
 47 64  1  0  0  0  0
 48 60  1  0  0  0  0
 49 61  1  0  0  0  0
 50 61  1  0  0  0  0
 51 61  1  0  0  0  0
 52 63  1  0  0  0  0
 53 72  1  0  0  0  0
 54 73  1  0  0  0  0
 55 57  1  0  0  0  0
 56 72  1  0  0  0  0
 57 58  1  0  0  0  0
 58 80  1  0  0  0  0
 59 61  1  0  0  0  0
 59 71  1  0  0  0  0
 60 73  1  0  0  0  0
 62 64  1  0  0  0  0
M  CHG  2  65   1  73   1
M  ISO  4  35 100  58 101  72 100  80 101
M  END
> <Batch ID>
0061

> <Smiles>
CNC(C)C(=O)NC(C(=O)N1Cc2cc([101O:1][101CH2:1]CCc3cn(C)c(C[100N:0](C)[100C:0](=O)N4CCCC(n5nc(-c6ccc(Oc7ccc(F)cc7F)cc6)c(C(N)=O)c5N)C4)n3)ccc2CC1C(=O)NC1CCCc2ccccc21)C(C)(C)C

> <Shape>
0.195

> <Color>
0.082

> <Negative vol penalty>
0.000

$$$$

  -OEChem-04052317583D

 83 91  0     1  0  0  0  0  0999 V2000
  -17.0270  -29.0978   24.5714 C   0  0  0  0  0  0  0  0  0  0  0  0
  -17.5529  -27.9164   24.0586 C   0  0  0  0  0  0  0  0  0  0  0  0
  -26.5352  -12.6073   20.9809 C   0  0  0  0  0  0  0  0  0  0  0  0
  -25.0421  -14.5066   20.9560 C   0  0  0  0  0  0  0  0  0  0  0  0
  -17.4822  -30.3266   24.0953 C   0  0  0  0  0  0  0  0  0  0  0  0
  -18.5337  -27.9631   23.0684 C   0  0  0  0  0  0  0  0  0  0  0  0
  -23.2173  -24.0852   22.3398 C   0  0  0  0  0  0  0  0  0  0  0  0
  -25.5029  -11.8021   21.4623 C   0  0  0  0  0  0  0  0  0  0  0  0
  -24.0098  -13.7014   21.4373 C   0  0  0  0  0  0  0  0  0  0  0  0
  -23.4027  -22.9848   21.5040 C   0  0  0  0  0  0  0  0  0  0  0  0
  -23.1643   -9.1662   22.3554 C   0  0  0  0  0  0  0  0  0  0  0  0
  -22.9933   -7.9119   21.7698 C   0  0  0  0  0  0  0  0  0  0  0  0
  -24.5570  -24.3906   19.9195 C   0  0  0  0  0  0  0  0  0  0  0  0
  -22.6175   -8.9635   19.6273 C   0  0  0  0  0  0  0  0  0  0  0  0
  -27.1016  -21.1904   18.0281 C   0  0  0  0  0  0  0  0  0  0  0  0
  -26.3048  -13.9596   20.7279 C   0  0  0  0  0  0  0  0  0  0  0  0
  -27.7026  -15.0353   18.8849 C   0  0  0  0  0  0  0  0  0  0  0  0
  -18.4759  -30.3886   23.1058 C   0  0  0  0  0  0  0  0  0  0  0  0
  -23.6916  -25.3508   21.9661 C   0  0  0  0  0  0  0  0  0  0  0  0
  -19.0016  -29.1940   22.5777 C   0  0  0  0  0  0  0  0  0  0  0  0
  -24.3786  -25.5048   20.7535 C   0  0  0  0  0  0  0  0  0  0  0  0
  -24.2402  -12.3492   21.6905 C   0  0  0  0  0  0  0  0  0  0  0  0
  -24.0701  -23.1380   20.2923 C   0  0  0  0  0  0  0  0  0  0  0  0
  -23.0618  -10.3192   21.5771 C   0  0  0  0  0  0  0  0  0  0  0  0
  -22.7199   -7.8105   20.4057 C   0  0  0  0  0  0  0  0  0  0  0  0
  -22.7884  -10.2178   20.2131 C   0  0  0  0  0  0  0  0  0  0  0  0
  -27.3709  -14.7920   20.2312 C   0  0  0  0  0  0  0  0  0  0  0  0
  -26.5979  -20.3728   19.0001 C   0  0  0  0  0  0  0  0  0  0  0  0
  -28.7805  -15.8845   18.9449 C   0  0  0  0  0  0  0  0  0  0  0  0
  -28.7582  -20.6523   19.3943 C   0  0  0  0  0  0  0  0  0  0  0  0
  -27.0910  -14.5383   17.6871 C   0  0  0  0  0  0  0  0  0  0  0  0
  -22.3423  -28.1680   21.3775 C   0  0  0  0  0  0  0  0  0  0  0  0
  -25.4230  -29.1611   21.1652 C   0  0  0  0  0  0  0  0  0  0  0  0
  -28.6902  -28.3647   20.5840 C   0  0  0  0  0  0  0  0  0  0  0  0
  -30.4671  -20.3171   22.4933 C   0  0  0  0  0  0  0  0  0  0  0  0
  -18.9024  -31.7397   22.5888 C   0  0  0  0  0  0  0  0  0  0  0  0
  -23.5070  -26.5224   22.8912 C   0  0  0  0  0  0  0  0  0  0  0  0
  -24.9250  -26.8383   20.3155 C   0  0  0  0  0  0  0  0  0  0  0  0
  -20.2122  -31.7066   21.8056 C   0  0  0  0  0  0  0  0  0  0  0  0
  -32.1527  -17.0241   22.3639 C   0  0  0  0  0  0  0  0  0  0  0  0
  -20.2073  -30.5548   20.8056 C   0  0  0  0  0  0  0  0  0  0  0  0
  -31.0849  -16.1276   21.7393 C   0  0  0  0  0  0  0  0  0  0  0  0
  -31.5365  -18.1873   23.1352 C   0  0  0  0  0  0  0  0  0  0  0  0
  -29.5179  -18.1086   21.7092 C   0  0  0  0  0  0  0  0  0  0  0  0
  -20.0845  -29.2038   21.5206 C   0  0  1  0  0  0  0  0  0  0  0  0
  -23.5801  -27.8670   22.1744 C   0  0  1  0  0  0  0  0  0  0  0  0
  -30.1063  -16.9530   20.8858 C   0  0  2  0  0  0  0  0  0  0  0  0
  -30.9740  -29.3952   20.4429 C   0  0  0  0  0  0  0  0  0  0  0  0
  -31.2339  -21.3772   19.2753 C   0  0  0  0  0  0  0  0  0  0  0  0
  -30.6052  -19.0964   20.0562 C   0  0  0  0  0  0  0  0  0  0  0  0
  -24.7323  -30.3106   18.4245 C   0  0  0  0  0  0  0  0  0  0  0  0
  -27.1853  -30.4601   17.9462 C   0  0  0  0  0  0  0  0  0  0  0  0
  -26.2011  -31.7695   19.8276 C   0  0  0  0  0  0  0  0  0  0  0  0
  -27.5644  -19.2040   21.0039 C   0  0  0  0  0  0  0  0  0  0  0  0
  -29.9909  -22.5250   21.5044 C   0  0  0  0  0  0  0  0  0  0  0  0
  -29.7056  -26.7011   22.8112 C   0  0  0  0  0  0  0  0  0  0  0  0
  -25.1956  -19.8579   19.2159 C   0  0  0  0  0  0  0  0  0  0  0  0
  -24.3660  -20.7864   20.0960 C   0  0  0  0  0  0  0  0  0  1  0  0
  -26.4393  -29.2626   20.0535 C   0  0  1  0  0  0  0  0  0  0  0  0
  -29.9603  -28.7053   21.3424 C   0  0  2  0  0  0  0  0  0  0  0  0
  -30.1101  -20.5725   20.0013 C   0  0  0  0  0  0  0  0  0  0  0  0
  -26.1276  -30.4258   19.0700 C   0  0  0  0  0  0  0  0  0  0  0  0
  -28.1732  -15.4345   21.0841 N   0  0  0  0  0  0  0  0  0  0  0  0
  -27.6448  -20.0549   19.8313 N   0  0  0  0  0  0  0  0  0  0  0  0
  -29.0197  -16.0899   20.2718 N   0  0  0  0  0  0  0  0  0  0  0  0
  -28.4400  -21.3465   18.2969 N   0  3  0  0  0  0  0  0  0  0  0  0
  -24.7137  -27.9548   21.2516 N   0  0  0  0  0  0  0  0  0  0  0  0
  -30.5784  -18.9284   22.3142 N   0  0  0  0  0  0  0  0  0  0  0  0
  -29.5375  -16.4680   17.9915 N   0  0  0  0  0  0  0  0  0  0  0  0
  -25.9928  -13.6756   17.8060 N   0  0  0  0  0  0  0  0  0  0  0  0
  -21.3560  -28.8183   22.0944 N   0  0  0  0  0  0  0  0  0  0  0  0
  -27.7434  -29.3602   20.7003 N   0  0  0  0  0  0  0  0  0  0  0  0
  -30.1078  -21.0798   21.3717 N   0  0  0  0  0  0  0  0  0  0  0  0
  -30.5840  -27.4677   21.8905 N   0  3  0  0  0  0  0  0  0  0  0  0
  -27.5163  -14.8369   16.5454 O   0  0  0  0  0  0  0  0  0  0  0  0
  -22.2867  -27.8362   20.1992 O   0  0  0  0  0  0  0  0  0  0  0  0
  -25.2694  -30.1142   21.9330 O   0  0  0  0  0  0  0  0  0  0  0  0
  -28.5533  -27.3216   19.9486 O   0  0  0  0  0  0  0  0  0  0  0  0
  -30.6864  -20.8460   23.5905 O   0  0  0  0  0  0  0  0  0  0  0  0
  -23.2327  -11.5637   22.1599 O   0  0  0  0  0  0  0  0  0  0  0  0
  -24.2518  -22.0657   19.4743 O   0  0  0  0  0  0  0  0  0  1  0  0
  -22.5572   -6.6059   19.8431 F   0  0  0  0  0  0  0  0  0  0  0  0
  -22.6900  -11.3219   19.4600 F   0  0  0  0  0  0  0  0  0  0  0  0
  1  2  1  0  0  0  0
  1  5  2  0  0  0  0
  2  6  2  0  0  0  0
  3  8  2  0  0  0  0
  3 16  1  0  0  0  0
  4  9  1  0  0  0  0
  4 16  2  0  0  0  0
  5 18  1  0  0  0  0
  6 20  1  0  0  0  0
  7 10  2  0  0  0  0
  7 19  1  0  0  0  0
  8 22  1  0  0  0  0
  9 22  2  0  0  0  0
 10 23  1  0  0  0  0
 11 12  2  0  0  0  0
 11 24  1  0  0  0  0
 12 25  1  0  0  0  0
 13 21  1  0  0  0  0
 13 23  2  0  0  0  0
 14 25  2  0  0  0  0
 14 26  1  0  0  0  0
 15 28  2  0  0  0  0
 15 66  1  0  0  0  0
 16 27  1  0  0  0  0
 17 27  1  0  0  0  0
 17 29  2  0  0  0  0
 17 31  1  0  0  0  0
 18 20  2  0  0  0  0
 18 36  1  0  0  0  0
 19 21  2  0  0  0  0
 19 37  1  0  0  0  0
 20 45  1  0  0  0  0
 21 38  1  0  0  0  0
 22 80  1  0  0  0  0
 23 81  1  0  0  0  0
 24 26  2  0  0  0  0
 24 80  1  0  0  0  0
 25 82  1  0  0  0  0
 26 83  1  0  0  0  0
 27 63  2  0  0  0  0
 28 57  1  0  0  0  0
 28 64  1  0  0  0  0
 29 65  1  0  0  0  0
 29 69  1  0  0  0  0
 30 61  1  0  0  0  0
 30 64  1  0  0  0  0
 30 66  2  0  0  0  0
 31 70  1  0  0  0  0
 31 75  2  0  0  0  0
 32 46  1  0  0  0  0
 32 71  1  0  0  0  0
 32 76  2  0  0  0  0
 33 59  1  0  0  0  0
 33 67  1  0  0  0  0
 33 77  2  0  0  0  0
 34 60  1  0  0  0  0
 34 72  1  0  0  0  0
 34 78  2  0  0  0  0
 35 68  1  0  0  0  0
 35 73  1  0  0  0  0
 35 79  2  0  0  0  0
 36 39  1  0  0  0  0
 37 46  1  0  0  0  0
 38 67  1  0  0  0  0
 39 41  1  0  0  0  0
 40 42  1  0  0  0  0
 40 43  1  0  0  0  0
 41 45  1  0  0  0  0
 42 47  1  0  0  0  0
 43 68  1  0  0  0  0
 44 47  1  0  0  0  0
 44 68  1  0  0  0  0
 45 71  1  0  0  0  0
 46 67  1  0  0  0  0
 47 65  1  0  0  0  0
 48 60  1  0  0  0  0
 49 61  1  0  0  0  0
 50 61  1  0  0  0  0
 51 62  1  0  0  0  0
 52 62  1  0  0  0  0
 53 62  1  0  0  0  0
 54 64  1  0  0  0  0
 55 73  1  0  0  0  0
 56 74  1  0  0  0  0
 57 58  1  0  0  0  0
 58 81  1  0  0  0  0
 59 62  1  0  0  0  0
 59 72  1  0  0  0  0
 60 74  1  0  0  0  0
 61 73  1  0  0  0  0
 63 65  1  0  0  0  0
M  CHG  2  66   1  74   1
M  ISO  4  35 100  58 101  73 100  81 101
M  END
> <Batch ID>
0061

> <Smiles>
CNC(C)C(=O)NC(C(=O)N1Cc2cc([101O:1][101CH2:1]Cc3cnc(C(C)(C)[100N:0](C)[100C:0](=O)N4CCCC(n5nc(-c6ccc(Oc7ccc(F)cc7F)cc6)c(C(N)=O)c5N)C4)n3C)ccc2CC1C(=O)NC1CCCc2ccccc21)C(C)(C)C

> <Shape>
0.256

> <Color>
0.071

> <Negative vol penalty>
0.000

$$$$

  -OEChem-04052317583D

 83 91  0     1  0  0  0  0  0999 V2000
  -25.5097   -3.5318   28.1810 C   0  0  0  0  0  0  0  0  0  0  0  0
  -26.4593   -4.5301   27.9882 C   0  0  0  0  0  0  0  0  0  0  0  0
  -23.1889   -9.8184   19.9312 C   0  0  0  0  0  0  0  0  0  0  0  0
  -23.5613   -9.9998   22.3114 C   0  0  0  0  0  0  0  0  0  0  0  0
  -24.1861   -3.8738   28.4548 C   0  0  0  0  0  0  0  0  0  0  0  0
  -26.0855   -5.8711   28.0682 C   0  0  0  0  0  0  0  0  0  0  0  0
  -29.4566  -10.5106   30.2168 C   0  0  0  0  0  0  0  0  0  0  0  0
  -22.4206   -8.6729   20.1387 C   0  0  0  0  0  0  0  0  0  0  0  0
  -22.7930   -8.8543   22.5189 C   0  0  0  0  0  0  0  0  0  0  0  0
  -30.2326  -11.4791   29.5815 C   0  0  0  0  0  0  0  0  0  0  0  0
  -23.1905   -5.5069   22.2580 C   0  0  0  0  0  0  0  0  0  0  0  0
  -23.6854   -4.5455   23.1391 C   0  0  0  0  0  0  0  0  0  0  0  0
  -28.3789  -13.0198   29.6793 C   0  0  0  0  0  0  0  0  0  0  0  0
  -21.7255   -4.8089   24.5272 C   0  0  0  0  0  0  0  0  0  0  0  0
  -33.2791  -14.1153   24.9297 C   0  0  0  0  0  0  0  0  0  0  0  0
  -23.7593  -10.4819   21.0176 C   0  0  0  0  0  0  0  0  0  0  0  0
  -24.1018  -12.9979   20.7731 C   0  0  0  0  0  0  0  0  0  0  0  0
  -23.7979   -5.2197   28.5477 C   0  0  0  0  0  0  0  0  0  0  0  0
  -28.1302  -10.7863   30.5789 C   0  0  0  0  0  0  0  0  0  0  0  0
  -24.7552   -6.2315   28.3422 C   0  0  0  0  0  0  0  0  0  0  0  0
  -27.5890  -12.0539   30.3213 C   0  0  0  0  0  0  0  0  0  0  0  0
  -30.6173  -14.4670   24.8978 C   0  0  0  0  0  0  0  0  0  0  0  0
  -22.2226   -8.1908   21.4325 C   0  0  0  0  0  0  0  0  0  0  0  0
  -29.6929  -12.7330   29.3100 C   0  0  0  0  0  0  0  0  0  0  0  0
  -21.9631   -6.1194   22.5115 C   0  0  0  0  0  0  0  0  0  0  0  0
  -22.9529   -4.1964   24.2737 C   0  0  0  0  0  0  0  0  0  0  0  0
  -21.2307   -5.7703   23.6461 C   0  0  0  0  0  0  0  0  0  0  0  0
  -24.5535  -11.6649   20.8038 C   0  0  0  0  0  0  0  0  0  0  0  0
  -31.4011  -14.8839   25.9543 C   0  0  0  0  0  0  0  0  0  0  0  0
  -31.2906  -13.8577   23.8588 C   0  0  0  0  0  0  0  0  0  0  0  0
  -25.2345  -13.7390   20.5403 C   0  0  0  0  0  0  0  0  0  0  0  0
  -22.7768  -13.5196   20.9402 C   0  0  0  0  0  0  0  0  0  0  0  0
  -25.2939   -9.5889   29.7879 C   0  0  0  0  0  0  0  0  0  0  0  0
  -24.2346  -11.6003   32.1019 C   0  0  0  0  0  0  0  0  0  0  0  0
  -24.7527  -14.4257   33.9446 C   0  0  0  0  0  0  0  0  0  0  0  0
  -31.0351  -12.7717   21.6002 C   0  0  0  0  0  0  0  0  0  0  0  0
  -22.3458   -5.5407   28.7990 C   0  0  0  0  0  0  0  0  0  0  0  0
  -27.3148   -9.7396   31.2875 C   0  0  0  0  0  0  0  0  0  0  0  0
  -26.1768  -12.4068   30.7080 C   0  0  0  0  0  0  0  0  0  0  0  0
  -22.1080   -6.9833   29.2378 C   0  0  0  0  0  0  0  0  0  0  0  0
  -29.5316  -13.4532   18.4455 C   0  0  0  0  0  0  0  0  0  0  0  0
  -22.8839   -7.9473   28.3459 C   0  0  0  0  0  0  0  0  0  0  0  0
  -28.0425  -13.1992   18.6911 C   0  0  0  0  0  0  0  0  0  0  0  0
  -30.4095  -12.4675   19.2145 C   0  0  0  0  0  0  0  0  0  0  0  0
  -28.6449  -12.1294   20.9001 C   0  0  0  0  0  0  0  0  0  0  0  0
  -24.3936   -7.6973   28.4455 C   0  0  1  0  0  0  0  0  0  0  0  0
  -25.8114   -9.9585   31.1492 C   0  0  1  0  0  0  0  0  0  0  0  0
  -27.7221  -13.1386   20.1975 C   0  0  2  0  0  0  0  0  0  0  0  0
  -28.7139  -15.8266   23.9948 C   0  0  0  0  0  0  0  0  0  0  0  0
  -23.6934  -15.8343   35.7310 C   0  0  0  0  0  0  0  0  0  0  0  0
  -30.0194  -16.8886   26.8209 C   0  0  0  0  0  0  0  0  0  0  0  0
  -31.8759  -15.9498   28.1810 C   0  0  0  0  0  0  0  0  0  0  0  0
  -22.2880  -12.7387   30.0465 C   0  0  0  0  0  0  0  0  0  0  0  0
  -21.9549  -14.7083   31.5559 C   0  0  0  0  0  0  0  0  0  0  0  0
  -21.3246  -12.4231   32.3327 C   0  0  0  0  0  0  0  0  0  0  0  0
  -27.0189  -13.9869   35.7968 C   0  0  0  0  0  0  0  0  0  0  0  0
  -29.1416  -14.6652   24.8900 C   0  0  0  0  0  0  0  0  0  0  0  0
  -29.7603  -14.6250   27.8707 C   0  0  0  0  0  0  0  0  0  1  0  0
  -23.7698  -13.0361   32.1398 C   0  0  1  0  0  0  0  0  0  0  0  0
  -24.6491  -14.6886   35.4361 C   0  0  2  0  0  0  0  0  0  0  0  0
  -30.7643  -15.5784   27.1726 C   0  0  0  0  0  0  0  0  0  0  0  0
  -22.3603  -13.2196   31.5096 C   0  0  0  0  0  0  0  0  0  0  0  0
  -32.7399  -14.7235   26.0034 N   0  0  0  0  0  0  0  0  0  0  0  0
  -32.6259  -13.6650   23.8415 N   0  0  0  0  0  0  0  0  0  0  0  0
  -25.8704  -11.5621   20.6061 N   0  0  0  0  0  0  0  0  0  0  0  0
  -26.2560  -12.8398   20.4489 N   0  0  0  0  0  0  0  0  0  0  0  0
  -25.4176  -11.3476   31.3931 N   0  0  0  0  0  0  0  0  0  0  0  0
  -30.0521  -12.4674   20.6348 N   0  0  0  0  0  0  0  0  0  0  0  0
  -25.4465  -15.0655   20.4067 N   0  0  0  0  0  0  0  0  0  0  0  0
  -21.7284  -12.6189   21.1721 N   0  0  0  0  0  0  0  0  0  0  0  0
  -30.5455  -13.4062   22.7414 N   0  0  0  0  0  0  0  0  0  0  0  0
  -24.9201   -8.2640   29.6686 N   0  0  0  0  0  0  0  0  0  0  0  0
  -23.8607  -13.4579   33.5334 N   0  0  0  0  0  0  0  0  0  0  0  0
  -25.9862  -15.0363   35.9949 N   0  3  0  0  0  0  0  0  0  0  0  0
  -22.5273  -14.7469   20.8692 O   0  0  0  0  0  0  0  0  0  0  0  0
  -25.2365  -10.4431   28.9110 O   0  0  0  0  0  0  0  0  0  0  0  0
  -23.5762  -10.7359   32.6858 O   0  0  0  0  0  0  0  0  0  0  0  0
  -25.5431  -15.0220   33.2164 O   0  0  0  0  0  0  0  0  0  0  0  0
  -32.2274  -12.5146   21.4155 O   0  0  0  0  0  0  0  0  0  0  0  0
  -21.4728   -7.0731   21.6354 O   0  0  0  0  0  0  0  0  0  0  0  0
  -30.4479  -13.6799   28.6895 O   0  0  0  0  0  0  0  0  0  1  0  0
  -23.4275   -3.2720   25.1189 F   0  0  0  0  0  0  0  0  0  0  0  0
  -20.0504   -6.3544   23.8944 F   0  0  0  0  0  0  0  0  0  0  0  0
  1  2  1  0  0  0  0
  1  5  2  0  0  0  0
  2  6  2  0  0  0  0
  3  8  2  0  0  0  0
  3 16  1  0  0  0  0
  4  9  1  0  0  0  0
  4 16  2  0  0  0  0
  5 18  1  0  0  0  0
  6 20  1  0  0  0  0
  7 10  2  0  0  0  0
  7 19  1  0  0  0  0
  8 23  1  0  0  0  0
  9 23  2  0  0  0  0
 10 24  1  0  0  0  0
 11 12  2  0  0  0  0
 11 25  1  0  0  0  0
 12 26  1  0  0  0  0
 13 21  1  0  0  0  0
 13 24  2  0  0  0  0
 14 26  2  0  0  0  0
 14 27  1  0  0  0  0
 15 63  2  0  0  0  0
 15 64  1  0  0  0  0
 16 28  1  0  0  0  0
 17 28  1  0  0  0  0
 17 31  2  0  0  0  0
 17 32  1  0  0  0  0
 18 20  2  0  0  0  0
 18 37  1  0  0  0  0
 19 21  2  0  0  0  0
 19 38  1  0  0  0  0
 20 46  1  0  0  0  0
 21 39  1  0  0  0  0
 22 29  2  0  0  0  0
 22 30  1  0  0  0  0
 22 57  1  0  0  0  0
 23 80  1  0  0  0  0
 24 81  1  0  0  0  0
 25 27  2  0  0  0  0
 25 80  1  0  0  0  0
 26 82  1  0  0  0  0
 27 83  1  0  0  0  0
 28 65  2  0  0  0  0
 29 61  1  0  0  0  0
 29 63  1  0  0  0  0
 30 64  2  0  0  0  0
 30 71  1  0  0  0  0
 31 66  1  0  0  0  0
 31 69  1  0  0  0  0
 32 70  1  0  0  0  0
 32 75  2  0  0  0  0
 33 47  1  0  0  0  0
 33 72  1  0  0  0  0
 33 76  2  0  0  0  0
 34 59  1  0  0  0  0
 34 67  1  0  0  0  0
 34 77  2  0  0  0  0
 35 60  1  0  0  0  0
 35 73  1  0  0  0  0
 35 78  2  0  0  0  0
 36 68  1  0  0  0  0
 36 71  1  0  0  0  0
 36 79  2  0  0  0  0
 37 40  1  0  0  0  0
 38 47  1  0  0  0  0
 39 67  1  0  0  0  0
 40 42  1  0  0  0  0
 41 43  1  0  0  0  0
 41 44  1  0  0  0  0
 42 46  1  0  0  0  0
 43 48  1  0  0  0  0
 44 68  1  0  0  0  0
 45 48  1  0  0  0  0
 45 68  1  0  0  0  0
 46 72  1  0  0  0  0
 47 67  1  0  0  0  0
 48 66  1  0  0  0  0
 49 57  1  0  0  0  0
 50 60  1  0  0  0  0
 51 61  1  0  0  0  0
 52 61  1  0  0  0  0
 53 62  1  0  0  0  0
 54 62  1  0  0  0  0
 55 62  1  0  0  0  0
 56 74  1  0  0  0  0
 58 61  1  0  0  0  0
 58 81  1  0  0  0  0
 59 62  1  0  0  0  0
 59 73  1  0  0  0  0
 60 74  1  0  0  0  0
 65 66  1  0  0  0  0
M  CHG  1  74   1
M  ISO  4  36 100  58 101  71 100  81 101
M  END
> <Batch ID>
0061

> <Smiles>
CCc1c([100NH:0][100C:0](=O)N2CCCC(n3nc(-c4ccc(Oc5ccc(F)cc5F)cc4)c(C(N)=O)c3N)C2)ncnc1C(C)(C)[101CH2:1][101O:1]c1ccc2c(c1)CN(C(=O)C(NC(=O)C(C)NC)C(C)(C)C)C(C(=O)NC1CCCc3ccccc31)C2

> <Shape>
0.141

> <Color>
0.174

> <Negative vol penalty>
0.000

$$$$

  -OEChem-04052317583D

 82 90  0     1  0  0  0  0  0999 V2000
  -18.2563  -28.5506   23.8764 C   0  0  0  0  0  0  0  0  0  0  0  0
  -18.9708  -27.3644   23.7426 C   0  0  0  0  0  0  0  0  0  0  0  0
  -23.1394   -9.8454   19.9217 C   0  0  0  0  0  0  0  0  0  0  0  0
  -23.9151   -9.8485   22.2097 C   0  0  0  0  0  0  0  0  0  0  0  0
  -18.3277  -29.5224   22.8792 C   0  0  0  0  0  0  0  0  0  0  0  0
  -19.7563  -27.1489   22.6108 C   0  0  0  0  0  0  0  0  0  0  0  0
  -25.0784  -24.1306   22.3437 C   0  0  0  0  0  0  0  0  0  0  0  0
  -22.4200   -8.6758   20.1671 C   0  0  0  0  0  0  0  0  0  0  0  0
  -23.1957   -8.6790   22.4552 C   0  0  0  0  0  0  0  0  0  0  0  0
  -25.3995  -22.8268   21.9684 C   0  0  0  0  0  0  0  0  0  0  0  0
  -19.9881   -7.8129   23.0732 C   0  0  0  0  0  0  0  0  0  0  0  0
  -19.2403   -7.7485   24.2489 C   0  0  0  0  0  0  0  0  0  0  0  0
  -25.9376  -23.6046   19.7492 C   0  0  0  0  0  0  0  0  0  0  0  0
  -20.5246   -5.8299   24.9607 C   0  0  0  0  0  0  0  0  0  0  0  0
  -23.8870  -10.4317   20.9430 C   0  0  0  0  0  0  0  0  0  0  0  0
  -24.1783  -12.9640   20.8416 C   0  0  0  0  0  0  0  0  0  0  0  0
  -19.1221  -29.3227   21.7392 C   0  0  0  0  0  0  0  0  0  0  0  0
  -25.1742  -25.1812   21.4199 C   0  0  0  0  0  0  0  0  0  0  0  0
  -19.8374  -28.1184   21.5968 C   0  0  0  0  0  0  0  0  0  0  0  0
  -25.6196  -24.9212   20.1160 C   0  0  0  0  0  0  0  0  0  0  0  0
  -22.4482   -8.0926   21.4339 C   0  0  0  0  0  0  0  0  0  0  0  0
  -25.8264  -22.5632   20.6702 C   0  0  0  0  0  0  0  0  0  0  0  0
  -21.0041   -6.8858   22.8412 C   0  0  0  0  0  0  0  0  0  0  0  0
  -19.5086   -6.7570   25.1926 C   0  0  0  0  0  0  0  0  0  0  0  0
  -21.2724   -5.8943   23.7849 C   0  0  0  0  0  0  0  0  0  0  0  0
  -24.6307  -11.6396   20.6899 C   0  0  0  0  0  0  0  0  0  0  0  0
  -25.2530  -13.7378   20.4771 C   0  0  0  0  0  0  0  0  0  0  0  0
  -26.2297  -17.6532   17.8727 C   0  0  0  0  0  0  0  0  0  0  0  0
  -28.1410  -17.8301   19.0357 C   0  0  0  0  0  0  0  0  0  0  0  0
  -26.8383  -19.6331   18.7369 C   0  0  0  0  0  0  0  0  0  0  0  0
  -22.9010  -13.4513   21.2735 C   0  0  0  0  0  0  0  0  0  0  0  0
  -23.1151  -27.2354   20.1375 C   0  0  0  0  0  0  0  0  0  0  0  0
  -25.8012  -28.5288   18.8590 C   0  0  0  0  0  0  0  0  0  0  0  0
  -29.0434  -28.0986   17.8845 C   0  0  0  0  0  0  0  0  0  0  0  0
  -30.8481  -14.5556   21.0626 C   0  0  0  0  0  0  0  0  0  0  0  0
  -19.1306  -30.3821   20.6657 C   0  0  0  0  0  0  0  0  0  0  0  0
  -24.8497  -26.5862   21.8480 C   0  0  0  0  0  0  0  0  0  0  0  0
  -25.7589  -26.0170   19.0922 C   0  0  0  0  0  0  0  0  0  0  0  0
  -20.2814  -30.2347   19.6736 C   0  0  0  0  0  0  0  0  0  0  0  0
  -29.6088  -12.5091   18.2382 C   0  0  0  0  0  0  0  0  0  0  0  0
  -20.4083  -28.7856   19.2146 C   0  0  0  0  0  0  0  0  0  0  0  0
  -28.1898  -12.1556   18.6804 C   0  0  0  0  0  0  0  0  0  0  0  0
  -30.5353  -12.7316   19.4296 C   0  0  0  0  0  0  0  0  0  0  0  0
  -28.6161  -13.3881   20.8437 C   0  0  0  0  0  0  0  0  0  0  0  0
  -20.7201  -27.8582   20.3954 C   0  0  1  0  0  0  0  0  0  0  0  0
  -24.4915  -27.4992   20.6795 C   0  0  1  0  0  0  0  0  0  0  0  0
  -27.6458  -13.2032   19.6674 C   0  0  2  0  0  0  0  0  0  0  0  0
  -25.2633  -16.8260   17.0952 C   0  0  0  0  0  0  0  0  0  0  0  0
  -30.9660  -29.3273   16.8399 C   0  0  0  0  0  0  0  0  0  0  0  0
  -24.4621  -28.2968   16.1272 C   0  0  0  0  0  0  0  0  0  0  0  0
  -26.7102  -28.6241   15.0749 C   0  0  0  0  0  0  0  0  0  0  0  0
  -25.7246  -30.4244   16.4927 C   0  0  0  0  0  0  0  0  0  0  0  0
  -31.2309  -16.7515   22.1167 C   0  0  0  0  0  0  0  0  0  0  0  0
  -30.7429  -27.7084   20.2758 C   0  0  0  0  0  0  0  0  0  0  0  0
  -29.3736  -17.2066   19.5965 C   0  0  0  0  0  0  0  0  0  0  0  0
  -26.5704  -21.0932   18.9551 C   0  0  0  0  0  0  0  0  0  1  0  0
  -29.1266  -16.4009   20.8778 C   0  0  0  0  0  0  0  0  0  0  0  0
  -26.5899  -28.3171   17.5894 C   0  0  1  0  0  0  0  0  0  0  0  0
  -30.2906  -28.9248   18.1417 C   0  0  2  0  0  0  0  0  0  0  0  0
  -25.8673  -28.8944   16.3395 C   0  0  0  0  0  0  0  0  0  0  0  0
  -25.8942  -11.5721   20.2622 N   0  0  0  0  0  0  0  0  0  0  0  0
  -27.3172  -17.0240   18.3471 N   0  0  0  0  0  0  0  0  0  0  0  0
  -25.9242  -18.9516   18.0275 N   0  0  0  0  0  0  0  0  0  0  0  0
  -27.9677  -19.1408   19.2707 N   0  0  0  0  0  0  0  0  0  0  0  0
  -26.2450  -12.8638   20.1419 N   0  0  0  0  0  0  0  0  0  0  0  0
  -25.4237  -27.3731   19.5573 N   0  0  0  0  0  0  0  0  0  0  0  0
  -29.9742  -13.6992   20.3730 N   0  0  0  0  0  0  0  0  0  0  0  0
  -25.4367  -15.0737   20.4137 N   0  0  0  0  0  0  0  0  0  0  0  0
  -21.9095  -12.5197   21.6101 N   0  0  0  0  0  0  0  0  0  0  0  0
  -22.1166  -27.9584   20.7617 N   0  0  0  0  0  0  0  0  0  0  0  0
  -27.9120  -28.8848   17.8306 N   0  0  0  0  0  0  0  0  0  0  0  0
  -30.3586  -15.8236   21.4110 N   0  0  0  0  0  0  0  0  0  0  0  0
  -31.2670  -28.1487   18.9574 N   0  3  0  0  0  0  0  0  0  0  0  0
  -22.6410  -14.6765   21.3427 O   0  0  0  0  0  0  0  0  0  0  0  0
  -22.9701  -26.4362   19.2199 O   0  0  0  0  0  0  0  0  0  0  0  0
  -25.5361  -29.6777   19.2218 O   0  0  0  0  0  0  0  0  0  0  0  0
  -29.0706  -26.8782   17.7417 O   0  0  0  0  0  0  0  0  0  0  0  0
  -32.0034  -14.2104   21.3420 O   0  0  0  0  0  0  0  0  0  0  0  0
  -21.7462   -6.9515   21.6738 O   0  0  0  0  0  0  0  0  0  0  0  0
  -26.1398  -21.2914   20.3011 O   0  0  0  0  0  0  0  0  0  1  0  0
  -18.7914   -6.6963   26.3223 F   0  0  0  0  0  0  0  0  0  0  0  0
  -22.2480   -5.0015   23.5681 F   0  0  0  0  0  0  0  0  0  0  0  0
  1  2  1  0  0  0  0
  1  5  2  0  0  0  0
  2  6  2  0  0  0  0
  3  8  2  0  0  0  0
  3 15  1  0  0  0  0
  4  9  1  0  0  0  0
  4 15  2  0  0  0  0
  5 17  1  0  0  0  0
  6 19  1  0  0  0  0
  7 10  2  0  0  0  0
  7 18  1  0  0  0  0
  8 21  1  0  0  0  0
  9 21  2  0  0  0  0
 10 22  1  0  0  0  0
 11 12  2  0  0  0  0
 11 23  1  0  0  0  0
 12 24  1  0  0  0  0
 13 20  1  0  0  0  0
 13 22  2  0  0  0  0
 14 24  2  0  0  0  0
 14 25  1  0  0  0  0
 15 26  1  0  0  0  0
 16 26  1  0  0  0  0
 16 27  2  0  0  0  0
 16 31  1  0  0  0  0
 17 19  2  0  0  0  0
 17 36  1  0  0  0  0
 18 20  2  0  0  0  0
 18 37  1  0  0  0  0
 19 45  1  0  0  0  0
 20 38  1  0  0  0  0
 21 79  1  0  0  0  0
 22 80  1  0  0  0  0
 23 25  2  0  0  0  0
 23 79  1  0  0  0  0
 24 81  1  0  0  0  0
 25 82  1  0  0  0  0
 26 61  2  0  0  0  0
 27 65  1  0  0  0  0
 27 68  1  0  0  0  0
 28 48  1  0  0  0  0
 28 62  1  0  0  0  0
 28 63  2  0  0  0  0
 29 55  1  0  0  0  0
 29 62  2  0  0  0  0
 29 64  1  0  0  0  0
 30 56  1  0  0  0  0
 30 63  1  0  0  0  0
 30 64  2  0  0  0  0
 31 69  1  0  0  0  0
 31 74  2  0  0  0  0
 32 46  1  0  0  0  0
 32 70  1  0  0  0  0
 32 75  2  0  0  0  0
 33 58  1  0  0  0  0
 33 66  1  0  0  0  0
 33 76  2  0  0  0  0
 34 59  1  0  0  0  0
 34 71  1  0  0  0  0
 34 77  2  0  0  0  0
 35 67  1  0  0  0  0
 35 72  1  0  0  0  0
 35 78  2  0  0  0  0
 36 39  1  0  0  0  0
 37 46  1  0  0  0  0
 38 66  1  0  0  0  0
 39 41  1  0  0  0  0
 40 42  1  0  0  0  0
 40 43  1  0  0  0  0
 41 45  1  0  0  0  0
 42 47  1  0  0  0  0
 43 67  1  0  0  0  0
 44 47  1  0  0  0  0
 44 67  1  0  0  0  0
 45 70  1  0  0  0  0
 46 66  1  0  0  0  0
 47 65  1  0  0  0  0
 49 59  1  0  0  0  0
 50 60  1  0  0  0  0
 51 60  1  0  0  0  0
 52 60  1  0  0  0  0
 53 72  1  0  0  0  0
 54 73  1  0  0  0  0
 55 57  1  0  0  0  0
 56 80  1  0  0  0  0
 57 72  1  0  0  0  0
 58 60  1  0  0  0  0
 58 71  1  0  0  0  0
 59 73  1  0  0  0  0
 61 65  1  0  0  0  0
M  CHG  1  73   1
M  ISO  4  35 100  56 101  72 100  80 101
M  END
> <Batch ID>
0061

> <Smiles>
CNC(C)C(=O)NC(C(=O)N1Cc2cc([101O:1][101CH2:1]c3nc(C)nc(CC[100N:0](C)[100C:0](=O)N4CCCC(n5nc(-c6ccc(Oc7ccc(F)cc7F)cc6)c(C(N)=O)c5N)C4)n3)ccc2CC1C(=O)NC1CCCc2ccccc21)C(C)(C)C

> <Shape>
0.281

> <Color>
0.188

> <Negative vol penalty>
0.000

$$$$

  -OEChem-04052317583D

 80 88  0     1  0  0  0  0  0999 V2000
  -28.0997  -10.3762   19.1379 C   0  0  0  0  0  0  0  0  0  0  0  0
  -28.5541  -11.6393   18.7724 C   0  0  0  0  0  0  0  0  0  0  0  0
  -23.0026  -29.6070   21.5555 C   0  0  0  0  0  0  0  0  0  0  0  0
  -22.4576  -28.6070   19.4247 C   0  0  0  0  0  0  0  0  0  0  0  0
  -26.8977  -10.2428   19.8316 C   0  0  0  0  0  0  0  0  0  0  0  0
  -27.8060  -12.7697   19.0994 C   0  0  0  0  0  0  0  0  0  0  0  0
  -29.9603  -18.3025   20.6003 C   0  0  0  0  0  0  0  0  0  0  0  0
  -21.6768  -30.0141   21.7036 C   0  0  0  0  0  0  0  0  0  0  0  0
  -21.1317  -29.0141   19.5729 C   0  0  0  0  0  0  0  0  0  0  0  0
  -30.1292  -19.4746   19.8644 C   0  0  0  0  0  0  0  0  0  0  0  0
  -18.3581  -31.0024   22.8101 C   0  0  0  0  0  0  0  0  0  0  0  0
  -17.7527  -30.8016   24.0506 C   0  0  0  0  0  0  0  0  0  0  0  0
  -28.0054  -20.2822   20.6748 C   0  0  0  0  0  0  0  0  0  0  0  0
  -18.1233  -28.4229   23.8463 C   0  0  0  0  0  0  0  0  0  0  0  0
  -28.1256  -24.1159   17.1671 C   0  0  0  0  0  0  0  0  0  0  0  0
  -23.3931  -28.9035   20.4160 C   0  0  0  0  0  0  0  0  0  0  0  0
  -25.3316  -27.2675   20.6869 C   0  0  0  0  0  0  0  0  0  0  0  0
  -26.1393  -11.3729   20.1757 C   0  0  0  0  0  0  0  0  0  0  0  0
  -28.8057  -18.1065   21.3716 C   0  0  0  0  0  0  0  0  0  0  0  0
  -26.5920  -12.6512   19.7972 C   0  0  0  0  0  0  0  0  0  0  0  0
  -27.8255  -19.1079   21.4215 C   0  0  0  0  0  0  0  0  0  0  0  0
  -20.7413  -29.7177   20.7123 C   0  0  0  0  0  0  0  0  0  0  0  0
  -29.1504  -20.4634   19.8993 C   0  0  0  0  0  0  0  0  0  0  0  0
  -18.8460  -29.9135   22.0877 C   0  0  0  0  0  0  0  0  0  0  0  0
  -17.6353  -29.5118   24.5687 C   0  0  0  0  0  0  0  0  0  0  0  0
  -18.7286  -28.6237   22.6058 C   0  0  0  0  0  0  0  0  0  0  0  0
  -24.7626  -28.4831   20.2622 C   0  0  0  0  0  0  0  0  0  0  0  0
  -28.6181  -23.7461   18.3868 C   0  0  0  0  0  0  0  0  0  0  0  0
  -26.6490  -27.3542   20.3083 C   0  0  0  0  0  0  0  0  0  0  0  0
  -29.6598  -25.5968   17.7620 C   0  0  0  0  0  0  0  0  0  0  0  0
  -24.7236  -26.1590   21.3631 C   0  0  0  0  0  0  0  0  0  0  0  0
  -26.4264  -15.9989   21.3524 C   0  0  0  0  0  0  0  0  0  0  0  0
  -25.5595  -17.5382   24.0729 C   0  0  0  0  0  0  0  0  0  0  0  0
  -25.6771  -20.3821   25.9557 C   0  0  0  0  0  0  0  0  0  0  0  0
  -30.2352  -28.6809   16.1015 C   0  0  0  0  0  0  0  0  0  0  0  0
  -24.8228  -11.1752   20.8845 C   0  0  0  0  0  0  0  0  0  0  0  0
  -28.6509  -16.8480   22.1807 C   0  0  0  0  0  0  0  0  0  0  0  0
  -26.5770  -18.9549   22.2500 C   0  0  0  0  0  0  0  0  0  0  0  0
  -24.2763  -12.4505   21.5212 C   0  0  0  0  0  0  0  0  0  0  0  0
  -29.3526  -31.2628   18.6028 C   0  0  0  0  0  0  0  0  0  0  0  0
  -24.3649  -13.6165   20.5417 C   0  0  0  0  0  0  0  0  0  0  0  0
  -28.0849  -30.6928   19.2368 C   0  0  0  0  0  0  0  0  0  0  0  0
  -29.5260  -30.7941   17.1614 C   0  0  0  0  0  0  0  0  0  0  0  0
  -28.2257  -28.7449   17.6349 C   0  0  0  0  0  0  0  0  0  0  0  0
  -25.8210  -13.9031   20.1555 C   0  0  1  0  0  0  0  0  0  0  0  0
  -27.1983  -16.5340   22.5251 C   0  0  1  0  0  0  0  0  0  0  0  0
  -28.0455  -29.1606   19.1026 C   0  0  2  0  0  0  0  0  0  0  0  0
  -24.8407  -21.3519   28.1138 C   0  0  0  0  0  0  0  0  0  0  0  0
  -22.7999  -17.9207   22.8286 C   0  0  0  0  0  0  0  0  0  0  0  0
  -22.3363  -19.6653   24.5634 C   0  0  0  0  0  0  0  0  0  0  0  0
  -22.7752  -17.3086   25.2533 C   0  0  0  0  0  0  0  0  0  0  0  0
  -30.3483  -24.6793   19.9524 C   0  0  0  0  0  0  0  0  0  0  0  0
  -31.4921  -26.6611   15.4534 C   0  0  0  0  0  0  0  0  0  0  0  0
  -28.4259  -20.7652   26.9834 C   0  0  0  0  0  0  0  0  0  0  0  0
  -28.2699  -22.5792   19.2634 C   0  0  0  0  0  0  0  0  0  1  0  0
  -30.5605  -26.7758   17.7348 C   0  0  0  0  0  0  0  0  0  0  0  0
  -24.6859  -18.7259   24.3973 C   0  0  1  0  0  0  0  0  0  0  0  0
  -25.9734  -20.6040   27.4279 C   0  0  2  0  0  0  0  0  0  0  0  0
  -23.1719  -18.4075   24.2434 C   0  0  0  0  0  0  0  0  0  0  0  0
  -25.6463  -29.2835   19.6600 N   0  0  0  0  0  0  0  0  0  0  0  0
  -29.5659  -24.6798   18.7304 N   0  0  0  0  0  0  0  0  0  0  0  0
  -26.7839  -28.5693   19.7036 N   0  0  0  0  0  0  0  0  0  0  0  0
  -28.7877  -25.2641   16.8048 N   0  3  0  0  0  0  0  0  0  0  0  0
  -26.4688  -17.7038   23.0186 N   0  0  0  0  0  0  0  0  0  0  0  0
  -29.4413  -29.3370   17.0566 N   0  0  0  0  0  0  0  0  0  0  0  0
  -27.6937  -26.5089   20.4369 N   0  0  0  0  0  0  0  0  0  0  0  0
  -23.3598  -26.2346   21.6774 N   0  0  0  0  0  0  0  0  0  0  0  0
  -26.4921  -14.6254   21.2149 N   0  0  0  0  0  0  0  0  0  0  0  0
  -25.0717  -19.1632   25.7345 N   0  0  0  0  0  0  0  0  0  0  0  0
  -30.6577  -27.3783   16.4070 N   0  0  0  0  0  0  0  0  0  0  0  0
  -27.2256  -21.3954   27.5908 N   0  3  0  0  0  0  0  0  0  0  0  0
  -25.3742  -25.1389   21.6939 O   0  0  0  0  0  0  0  0  0  0  0  0
  -25.8151  -16.7744   20.6267 O   0  0  0  0  0  0  0  0  0  0  0  0
  -25.4445  -16.5040   24.7354 O   0  0  0  0  0  0  0  0  0  0  0  0
  -25.9517  -21.2092   25.0890 O   0  0  0  0  0  0  0  0  0  0  0  0
  -30.5564  -29.2318   15.0408 O   0  0  0  0  0  0  0  0  0  0  0  0
  -19.4474  -30.1146   20.8566 O   0  0  0  0  0  0  0  0  0  0  0  0
  -29.3124  -21.6082   19.1815 O   0  0  0  0  0  0  0  0  0  1  0  0
  -17.0554  -29.3193   25.7607 F   0  0  0  0  0  0  0  0  0  0  0  0
  -19.1965  -27.5738   21.9169 F   0  0  0  0  0  0  0  0  0  0  0  0
  1  2  1  0  0  0  0
  1  5  2  0  0  0  0
  2  6  2  0  0  0  0
  3  8  2  0  0  0  0
  3 16  1  0  0  0  0
  4  9  1  0  0  0  0
  4 16  2  0  0  0  0
  5 18  1  0  0  0  0
  6 20  1  0  0  0  0
  7 10  2  0  0  0  0
  7 19  1  0  0  0  0
  8 22  1  0  0  0  0
  9 22  2  0  0  0  0
 10 23  1  0  0  0  0
 11 12  2  0  0  0  0
 11 24  1  0  0  0  0
 12 25  1  0  0  0  0
 13 21  1  0  0  0  0
 13 23  2  0  0  0  0
 14 25  2  0  0  0  0
 14 26  1  0  0  0  0
 15 28  2  0  0  0  0
 15 63  1  0  0  0  0
 16 27  1  0  0  0  0
 17 27  1  0  0  0  0
 17 29  2  0  0  0  0
 17 31  1  0  0  0  0
 18 20  2  0  0  0  0
 18 36  1  0  0  0  0
 19 21  2  0  0  0  0
 19 37  1  0  0  0  0
 20 45  1  0  0  0  0
 21 38  1  0  0  0  0
 22 77  1  0  0  0  0
 23 78  1  0  0  0  0
 24 26  2  0  0  0  0
 24 77  1  0  0  0  0
 25 79  1  0  0  0  0
 26 80  1  0  0  0  0
 27 60  2  0  0  0  0
 28 55  1  0  0  0  0
 28 61  1  0  0  0  0
 29 62  1  0  0  0  0
 29 66  1  0  0  0  0
 30 56  1  0  0  0  0
 30 61  1  0  0  0  0
 30 63  2  0  0  0  0
 31 67  1  0  0  0  0
 31 72  2  0  0  0  0
 32 46  1  0  0  0  0
 32 68  1  0  0  0  0
 32 73  2  0  0  0  0
 33 57  1  0  0  0  0
 33 64  1  0  0  0  0
 33 74  2  0  0  0  0
 34 58  1  0  0  0  0
 34 69  1  0  0  0  0
 34 75  2  0  0  0  0
 35 65  1  0  0  0  0
 35 70  1  0  0  0  0
 35 76  2  0  0  0  0
 36 39  1  0  0  0  0
 37 46  1  0  0  0  0
 38 64  1  0  0  0  0
 39 41  1  0  0  0  0
 40 42  1  0  0  0  0
 40 43  1  0  0  0  0
 41 45  1  0  0  0  0
 42 47  1  0  0  0  0
 43 65  1  0  0  0  0
 44 47  1  0  0  0  0
 44 65  1  0  0  0  0
 45 68  1  0  0  0  0
 46 64  1  0  0  0  0
 47 62  1  0  0  0  0
 48 58  1  0  0  0  0
 49 59  1  0  0  0  0
 50 59  1  0  0  0  0
 51 59  1  0  0  0  0
 52 61  1  0  0  0  0
 53 70  1  0  0  0  0
 54 71  1  0  0  0  0
 55 78  1  0  0  0  0
 56 70  1  0  0  0  0
 57 59  1  0  0  0  0
 57 69  1  0  0  0  0
 58 71  1  0  0  0  0
 60 62  1  0  0  0  0
M  CHG  2  63   1  71   1
M  ISO  4  35 100  55 101  70 100  78 101
M  END
> <Batch ID>
0061

> <Smiles>
CNC(C)C(=O)NC(C(=O)N1Cc2cc([101O:1][101CH2:1]c3cnc(C[100N:0](C)[100C:0](=O)N4CCCC(n5nc(-c6ccc(Oc7ccc(F)cc7F)cc6)c(C(N)=O)c5N)C4)n3C)ccc2CC1C(=O)NC1CCCc2ccccc21)C(C)(C)C

> <Shape>
0.219

> <Color>
0.070

> <Negative vol penalty>
0.000

$$$$

  -OEChem-04052317583D

 80 88  0     1  0  0  0  0  0999 V2000
  -27.5793  -33.7766   20.9286 C   0  0  0  0  0  0  0  0  0  0  0  0
  -27.7732  -32.4006   20.9951 C   0  0  0  0  0  0  0  0  0  0  0  0
  -26.1724  -11.6909   21.0847 C   0  0  0  0  0  0  0  0  0  0  0  0
  -25.5819  -13.6687   19.8292 C   0  0  0  0  0  0  0  0  0  0  0  0
  -26.4600  -34.3515   21.5291 C   0  0  0  0  0  0  0  0  0  0  0  0
  -26.8485  -31.5988   21.6632 C   0  0  0  0  0  0  0  0  0  0  0  0
  -25.6695  -27.4149   19.0651 C   0  0  0  0  0  0  0  0  0  0  0  0
  -24.8205  -11.3804   21.2316 C   0  0  0  0  0  0  0  0  0  0  0  0
  -24.2299  -13.3583   19.9760 C   0  0  0  0  0  0  0  0  0  0  0  0
  -26.5886  -26.3670   19.0945 C   0  0  0  0  0  0  0  0  0  0  0  0
  -21.9924  -11.2526   18.5689 C   0  0  0  0  0  0  0  0  0  0  0  0
  -21.1781  -11.3606   17.4416 C   0  0  0  0  0  0  0  0  0  0  0  0
  -25.2577  -25.2549   20.7712 C   0  0  0  0  0  0  0  0  0  0  0  0
  -19.8192  -13.0019   18.5805 C   0  0  0  0  0  0  0  0  0  0  0  0
  -29.1585  -21.9089   21.6422 C   0  0  0  0  0  0  0  0  0  0  0  0
  -26.5531  -12.8351   20.3835 C   0  0  0  0  0  0  0  0  0  0  0  0
  -28.8068  -12.7521   19.1912 C   0  0  0  0  0  0  0  0  0  0  0  0
  -25.5161  -33.5553   22.1967 C   0  0  0  0  0  0  0  0  0  0  0  0
  -24.5414  -27.3959   19.8978 C   0  0  0  0  0  0  0  0  0  0  0  0
  -25.7162  -32.1637   22.2744 C   0  0  0  0  0  0  0  0  0  0  0  0
  -24.3245  -26.3026   20.7485 C   0  0  0  0  0  0  0  0  0  0  0  0
  -23.8493  -12.2141   20.6772 C   0  0  0  0  0  0  0  0  0  0  0  0
  -26.3843  -25.2881   19.9497 C   0  0  0  0  0  0  0  0  0  0  0  0
  -21.7201  -12.0192   19.7021 C   0  0  0  0  0  0  0  0  0  0  0  0
  -20.0915  -12.2352   17.4474 C   0  0  0  0  0  0  0  0  0  0  0  0
  -20.6336  -12.8938   19.7078 C   0  0  0  0  0  0  0  0  0  0  0  0
  -27.9494  -13.1566   20.2320 C   0  0  0  0  0  0  0  0  0  0  0  0
  -29.8604  -20.8625   21.0142 C   0  0  0  0  0  0  0  0  0  0  0  0
  -28.1168  -22.1834   20.7901 C   0  0  0  0  0  0  0  0  0  0  0  0
  -30.0191  -13.3153   19.5066 C   0  0  0  0  0  0  0  0  0  0  0  0
  -28.5319  -11.9400   18.0420 C   0  0  0  0  0  0  0  0  0  0  0  0
  -23.4581  -29.2392   22.2499 C   0  0  0  0  0  0  0  0  0  0  0  0
  -20.8703  -27.2926   22.0589 C   0  0  0  0  0  0  0  0  0  0  0  0
  -19.5847  -24.2620   21.1591 C   0  0  0  0  0  0  0  0  0  0  0  0
  -31.5707  -18.1002   22.7545 C   0  0  0  0  0  0  0  0  0  0  0  0
  -24.3465  -34.2274   22.8712 C   0  0  0  0  0  0  0  0  0  0  0  0
  -23.5455  -28.5213   19.8347 C   0  0  0  0  0  0  0  0  0  0  0  0
  -23.1187  -26.2245   21.6477 C   0  0  0  0  0  0  0  0  0  0  0  0
  -23.2195  -33.2652   23.2378 C   0  0  0  0  0  0  0  0  0  0  0  0
  -32.6245  -14.7370   23.2592 C   0  0  0  0  0  0  0  0  0  0  0  0
  -23.7811  -32.0172   23.9114 C   0  0  0  0  0  0  0  0  0  0  0  0
  -31.6232  -13.9141   22.4467 C   0  0  0  0  0  0  0  0  0  0  0  0
  -31.9611  -15.9464   23.9143 C   0  0  0  0  0  0  0  0  0  0  0  0
  -30.2139  -15.9973   22.1769 C   0  0  0  0  0  0  0  0  0  0  0  0
  -24.7227  -31.2578   22.9688 C   0  0  1  0  0  0  0  0  0  0  0  0
  -22.6995  -28.6421   21.0985 C   0  0  1  0  0  0  0  0  0  0  0  0
  -30.8477  -14.7980   21.4514 C   0  0  2  0  0  0  0  0  0  0  0  0
  -32.2752  -20.3131   20.5367 C   0  0  0  0  0  0  0  0  0  0  0  0
  -17.4450  -22.9509   21.1606 C   0  0  0  0  0  0  0  0  0  0  0  0
  -21.1815  -26.7929   25.0528 C   0  0  0  0  0  0  0  0  0  0  0  0
  -19.6763  -24.8074   24.8071 C   0  0  0  0  0  0  0  0  0  0  0  0
  -18.8202  -27.0915   24.2848 C   0  0  0  0  0  0  0  0  0  0  0  0
  -27.3957  -21.2154   18.5862 C   0  0  0  0  0  0  0  0  0  0  0  0
  -19.5879  -24.0321   18.2085 C   0  0  0  0  0  0  0  0  0  0  0  0
  -27.0084  -23.1907   20.8809 C   0  0  0  0  0  0  0  0  0  1  0  0
  -31.0735  -20.1803   21.4954 C   0  0  2  0  0  0  0  0  0  0  0  0
  -20.4608  -25.9919   22.7065 C   0  0  1  0  0  0  0  0  0  0  0  0
  -18.3432  -23.8889   20.3693 C   0  0  2  0  0  0  0  0  0  0  0  0
  -20.0585  -26.1730   24.1974 C   0  0  0  0  0  0  0  0  0  0  0  0
  -28.5650  -13.9178   21.1407 N   0  0  0  0  0  0  0  0  0  0  0  0
  -29.3109  -20.4971   19.8530 N   0  0  0  0  0  0  0  0  0  0  0  0
  -28.2526  -21.3183   19.7445 N   0  0  0  0  0  0  0  0  0  0  0  0
  -29.8220  -13.9961   20.6719 N   0  0  0  0  0  0  0  0  0  0  0  0
  -22.1771  -27.3523   21.5543 N   0  0  0  0  0  0  0  0  0  0  0  0
  -31.2440  -16.7437   22.9163 N   0  0  0  0  0  0  0  0  0  0  0  0
  -31.2239  -13.2897   18.8981 N   0  0  0  0  0  0  0  0  0  0  0  0
  -27.2328  -11.4425   17.8708 N   0  0  0  0  0  0  0  0  0  0  0  0
  -23.9627  -30.5006   21.9975 N   0  0  0  0  0  0  0  0  0  0  0  0
  -19.4072  -25.4318   21.8671 N   0  0  0  0  0  0  0  0  0  0  0  0
  -30.8476  -18.7813   21.7828 N   0  0  0  0  0  0  0  0  0  0  0  0
  -18.7227  -23.2133   19.0963 N   0  3  0  0  0  0  0  0  0  0  0  0
  -29.4161  -11.6501   17.2009 O   0  0  0  0  0  0  0  0  0  0  0  0
  -23.5756  -28.6032   23.2907 O   0  0  0  0  0  0  0  0  0  0  0  0
  -20.0582  -28.2190   21.9964 O   0  0  0  0  0  0  0  0  0  0  0  0
  -20.6082  -23.5816   21.1519 O   0  0  0  0  0  0  0  0  0  0  0  0
  -32.4457  -18.6614   23.4225 O   0  0  0  0  0  0  0  0  0  0  0  0
  -22.5300  -11.9114   20.8201 O   0  0  0  0  0  0  0  0  0  0  0  0
  -27.2801  -24.2642   19.9809 O   0  0  0  0  0  0  0  0  0  1  0  0
  -19.3105  -12.3400   16.3642 F   0  0  0  0  0  0  0  0  0  0  0  0
  -20.3677  -13.6337   20.7930 F   0  0  0  0  0  0  0  0  0  0  0  0
  1  2  1  0  0  0  0
  1  5  2  0  0  0  0
  2  6  2  0  0  0  0
  3  8  2  0  0  0  0
  3 16  1  0  0  0  0
  4  9  1  0  0  0  0
  4 16  2  0  0  0  0
  5 18  1  0  0  0  0
  6 20  1  0  0  0  0
  7 10  2  0  0  0  0
  7 19  1  0  0  0  0
  8 22  1  0  0  0  0
  9 22  2  0  0  0  0
 10 23  1  0  0  0  0
 11 12  2  0  0  0  0
 11 24  1  0  0  0  0
 12 25  1  0  0  0  0
 13 21  1  0  0  0  0
 13 23  2  0  0  0  0
 14 25  2  0  0  0  0
 14 26  1  0  0  0  0
 15 28  1  0  0  0  0
 15 29  2  0  0  0  0
 16 27  1  0  0  0  0
 17 27  1  0  0  0  0
 17 30  2  0  0  0  0
 17 31  1  0  0  0  0
 18 20  2  0  0  0  0
 18 36  1  0  0  0  0
 19 21  2  0  0  0  0
 19 37  1  0  0  0  0
 20 45  1  0  0  0  0
 21 38  1  0  0  0  0
 22 77  1  0  0  0  0
 23 78  1  0  0  0  0
 24 26  2  0  0  0  0
 24 77  1  0  0  0  0
 25 79  1  0  0  0  0
 26 80  1  0  0  0  0
 27 60  2  0  0  0  0
 28 56  1  0  0  0  0
 28 61  2  0  0  0  0
 29 55  1  0  0  0  0
 29 62  1  0  0  0  0
 30 63  1  0  0  0  0
 30 66  1  0  0  0  0
 31 67  1  0  0  0  0
 31 72  2  0  0  0  0
 32 46  1  0  0  0  0
 32 68  1  0  0  0  0
 32 73  2  0  0  0  0
 33 57  1  0  0  0  0
 33 64  1  0  0  0  0
 33 74  2  0  0  0  0
 34 58  1  0  0  0  0
 34 69  1  0  0  0  0
 34 75  2  0  0  0  0
 35 65  1  0  0  0  0
 35 70  1  0  0  0  0
 35 76  2  0  0  0  0
 36 39  1  0  0  0  0
 37 46  1  0  0  0  0
 38 64  1  0  0  0  0
 39 41  1  0  0  0  0
 40 42  1  0  0  0  0
 40 43  1  0  0  0  0
 41 45  1  0  0  0  0
 42 47  1  0  0  0  0
 43 65  1  0  0  0  0
 44 47  1  0  0  0  0
 44 65  1  0  0  0  0
 45 68  1  0  0  0  0
 46 64  1  0  0  0  0
 47 63  1  0  0  0  0
 48 56  1  0  0  0  0
 49 58  1  0  0  0  0
 50 59  1  0  0  0  0
 51 59  1  0  0  0  0
 52 59  1  0  0  0  0
 53 62  1  0  0  0  0
 54 71  1  0  0  0  0
 55 78  1  0  0  0  0
 56 70  1  0  0  0  0
 57 59  1  0  0  0  0
 57 69  1  0  0  0  0
 58 71  1  0  0  0  0
 60 63  1  0  0  0  0
 61 62  1  0  0  0  0
M  CHG  1  71   1
M  ISO  4  35 100  55 101  70 100  78 101
M  END
> <Batch ID>
0061

> <Smiles>
CNC(C)C(=O)NC(C(=O)N1Cc2cc([101O:1][101CH2:1]c3cc(C(C)[100NH:0][100C:0](=O)N4CCCC(n5nc(-c6ccc(Oc7ccc(F)cc7F)cc6)c(C(N)=O)c5N)C4)nn3C)ccc2CC1C(=O)NC1CCCc2ccccc21)C(C)(C)C

> <Shape>
0.265

> <Color>
0.066

> <Negative vol penalty>
0.000

$$$$

  -OEChem-04052317583D

 81 89  0     1  0  0  0  0  0999 V2000
  -18.1964  -30.2902   25.2469 C   0  0  0  0  0  0  0  0  0  0  0  0
  -19.1137  -29.2714   25.4836 C   0  0  0  0  0  0  0  0  0  0  0  0
  -23.8339   -9.9177   22.4094 C   0  0  0  0  0  0  0  0  0  0  0  0
  -24.5190  -11.6028   23.9993 C   0  0  0  0  0  0  0  0  0  0  0  0
  -17.9318  -30.6987   23.9404 C   0  0  0  0  0  0  0  0  0  0  0  0
  -19.7662  -28.6598   24.4137 C   0  0  0  0  0  0  0  0  0  0  0  0
  -26.0234  -25.6308   22.6847 C   0  0  0  0  0  0  0  0  0  0  0  0
  -23.3884   -9.1109   23.4564 C   0  0  0  0  0  0  0  0  0  0  0  0
  -24.0734  -10.7961   25.0464 C   0  0  0  0  0  0  0  0  0  0  0  0
  -26.5359  -24.4586   22.1308 C   0  0  0  0  0  0  0  0  0  0  0  0
  -20.6925   -8.9312   25.4893 C   0  0  0  0  0  0  0  0  0  0  0  0
  -19.4472   -8.3184   25.3507 C   0  0  0  0  0  0  0  0  0  0  0  0
  -26.0581  -25.3009   19.9214 C   0  0  0  0  0  0  0  0  0  0  0  0
  -20.4924   -6.1494   25.5509 C   0  0  0  0  0  0  0  0  0  0  0  0
  -29.8762  -19.8368   19.5334 C   0  0  0  0  0  0  0  0  0  0  0  0
  -24.3993  -11.1636   22.6808 C   0  0  0  0  0  0  0  0  0  0  0  0
  -24.1176  -12.9638   20.8955 C   0  0  0  0  0  0  0  0  0  0  0  0
  -18.5884  -30.0984   22.8545 C   0  0  0  0  0  0  0  0  0  0  0  0
  -25.5135  -26.6440   21.8602 C   0  0  0  0  0  0  0  0  0  0  0  0
  -19.5091  -29.0597   23.0913 C   0  0  0  0  0  0  0  0  0  0  0  0
  -25.5420  -26.4861   20.4672 C   0  0  0  0  0  0  0  0  0  0  0  0
  -23.5081   -9.5501   24.7749 C   0  0  0  0  0  0  0  0  0  0  0  0
  -26.5507  -24.2922   20.7490 C   0  0  0  0  0  0  0  0  0  0  0  0
  -21.8378   -8.1532   25.6586 C   0  0  0  0  0  0  0  0  0  0  0  0
  -19.3472   -6.9274   25.3816 C   0  0  0  0  0  0  0  0  0  0  0  0
  -21.7378   -6.7623   25.6894 C   0  0  0  0  0  0  0  0  0  0  0  0
  -24.8602  -11.9972   21.5997 C   0  0  0  0  0  0  0  0  0  0  0  0
  -29.0302  -18.9338   18.9284 C   0  0  0  0  0  0  0  0  0  0  0  0
  -27.2255  -20.0952   19.7184 C   0  0  0  0  0  0  0  0  0  0  0  0
  -28.0717  -20.9978   20.3241 C   0  0  0  0  0  0  0  0  0  0  0  0
  -25.0017  -13.4732   19.9760 C   0  0  0  0  0  0  0  0  0  0  0  0
  -22.7509  -13.3655   21.0580 C   0  0  0  0  0  0  0  0  0  0  0  0
  -22.6698  -28.0146   21.4880 C   0  0  0  0  0  0  0  0  0  0  0  0
  -24.3087  -29.9709   19.4857 C   0  0  0  0  0  0  0  0  0  0  0  0
  -27.0156  -30.4332   17.4595 C   0  0  0  0  0  0  0  0  0  0  0  0
  -30.0660  -15.4035   18.6449 C   0  0  0  0  0  0  0  0  0  0  0  0
  -18.2345  -30.5414   21.4570 C   0  0  0  0  0  0  0  0  0  0  0  0
  -24.9886  -27.9138   22.4722 C   0  0  0  0  0  0  0  0  0  0  0  0
  -25.0252  -27.5524   19.5375 C   0  0  0  0  0  0  0  0  0  0  0  0
  -19.2459  -30.0983   20.4030 C   0  0  0  0  0  0  0  0  0  0  0  0
  -29.5964  -11.8746   18.5906 C   0  0  0  0  0  0  0  0  0  0  0  0
  -19.6034  -28.6274   20.5913 C   0  0  0  0  0  0  0  0  0  0  0  0
  -28.2649  -11.6716   19.3157 C   0  0  0  0  0  0  0  0  0  0  0  0
  -30.4057  -13.0145   19.2052 C   0  0  0  0  0  0  0  0  0  0  0  0
  -28.3533  -14.0935   20.0403 C   0  0  0  0  0  0  0  0  0  0  0  0
  -20.2554  -28.3888   21.9586 C   0  0  1  0  0  0  0  0  0  0  0  0
  -24.0234  -28.6629   21.5587 C   0  0  1  0  0  0  0  0  0  0  0  0
  -27.4770  -12.9912   19.4212 C   0  0  2  0  0  0  0  0  0  0  0  0
  -25.7445  -20.2321   19.8160 C   0  0  0  0  0  0  0  0  0  0  0  0
  -29.1469  -17.7985   16.6791 C   0  0  0  0  0  0  0  0  0  0  0  0
  -28.0633  -32.1213   15.9264 C   0  0  0  0  0  0  0  0  0  0  0  0
  -22.2363  -29.3101   17.3459 C   0  0  0  0  0  0  0  0  0  0  0  0
  -23.8172  -30.2224   15.6321 C   0  0  0  0  0  0  0  0  0  0  0  0
  -22.9263  -31.7127   17.4233 C   0  0  0  0  0  0  0  0  0  0  0  0
  -29.4644  -30.5881   19.1142 C   0  0  0  0  0  0  0  0  0  0  0  0
  -27.5420  -22.1608   21.1103 C   0  0  0  0  0  0  0  0  0  1  0  0
  -29.5785  -17.7869   18.1539 C   0  0  2  0  0  0  0  0  0  0  0  0
  -24.6453  -29.9554   18.0141 C   0  0  1  0  0  0  0  0  0  0  0  0
  -28.0049  -31.5790   17.3461 C   0  0  2  0  0  0  0  0  0  0  0  0
  -23.4143  -30.2790   17.1212 C   0  0  0  0  0  0  0  0  0  0  0  0
  -29.4122  -20.8850   20.2422 N   0  0  0  0  0  0  0  0  0  0  0  0
  -26.1190  -11.8965   21.1648 N   0  0  0  0  0  0  0  0  0  0  0  0
  -27.6896  -19.0468   19.0100 N   0  0  0  0  0  0  0  0  0  0  0  0
  -26.1743  -12.8064   20.1773 N   0  0  0  0  0  0  0  0  0  0  0  0
  -24.5164  -28.7731   20.1843 N   0  0  0  0  0  0  0  0  0  0  0  0
  -29.6018  -14.2372   19.2751 N   0  0  0  0  0  0  0  0  0  0  0  0
  -24.8826  -14.4218   19.0229 N   0  0  0  0  0  0  0  0  0  0  0  0
  -21.9841  -12.7399   22.0504 N   0  0  0  0  0  0  0  0  0  0  0  0
  -21.6382  -28.8151   21.9405 N   0  0  0  0  0  0  0  0  0  0  0  0
  -25.7661  -30.8733   17.8421 N   0  0  0  0  0  0  0  0  0  0  0  0
  -29.2403  -16.5157   18.7542 N   0  0  0  0  0  0  0  0  0  0  0  0
  -29.3706  -31.1243   17.7320 N   0  3  0  0  0  0  0  0  0  0  0  0
  -22.2205  -14.2414   20.3334 O   0  0  0  0  0  0  0  0  0  0  0  0
  -22.5685  -26.8732   21.0537 O   0  0  0  0  0  0  0  0  0  0  0  0
  -23.8840  -31.0096   19.9980 O   0  0  0  0  0  0  0  0  0  0  0  0
  -27.3198  -29.2652   17.2279 O   0  0  0  0  0  0  0  0  0  0  0  0
  -31.1345  -15.4488   18.0258 O   0  0  0  0  0  0  0  0  0  0  0  0
  -23.0733   -8.7632   25.7968 O   0  0  0  0  0  0  0  0  0  0  0  0
  -27.0498  -23.1487   20.2058 O   0  0  0  0  0  0  0  0  0  1  0  0
  -18.1510   -6.3390   25.2501 F   0  0  0  0  0  0  0  0  0  0  0  0
  -22.8344   -6.0096   25.8530 F   0  0  0  0  0  0  0  0  0  0  0  0
  1  2  1  0  0  0  0
  1  5  2  0  0  0  0
  2  6  2  0  0  0  0
  3  8  2  0  0  0  0
  3 16  1  0  0  0  0
  4  9  1  0  0  0  0
  4 16  2  0  0  0  0
  5 18  1  0  0  0  0
  6 20  1  0  0  0  0
  7 10  2  0  0  0  0
  7 19  1  0  0  0  0
  8 22  1  0  0  0  0
  9 22  2  0  0  0  0
 10 23  1  0  0  0  0
 11 12  2  0  0  0  0
 11 24  1  0  0  0  0
 12 25  1  0  0  0  0
 13 21  1  0  0  0  0
 13 23  2  0  0  0  0
 14 25  2  0  0  0  0
 14 26  1  0  0  0  0
 15 28  1  0  0  0  0
 15 61  2  0  0  0  0
 16 27  1  0  0  0  0
 17 27  1  0  0  0  0
 17 31  2  0  0  0  0
 17 32  1  0  0  0  0
 18 20  2  0  0  0  0
 18 37  1  0  0  0  0
 19 21  2  0  0  0  0
 19 38  1  0  0  0  0
 20 46  1  0  0  0  0
 21 39  1  0  0  0  0
 22 78  1  0  0  0  0
 23 79  1  0  0  0  0
 24 26  2  0  0  0  0
 24 78  1  0  0  0  0
 25 80  1  0  0  0  0
 26 81  1  0  0  0  0
 27 62  2  0  0  0  0
 28 57  1  0  0  0  0
 28 63  2  0  0  0  0
 29 30  2  0  0  0  0
 29 49  1  0  0  0  0
 29 63  1  0  0  0  0
 30 56  1  0  0  0  0
 30 61  1  0  0  0  0
 31 64  1  0  0  0  0
 31 67  1  0  0  0  0
 32 68  1  0  0  0  0
 32 73  2  0  0  0  0
 33 47  1  0  0  0  0
 33 69  1  0  0  0  0
 33 74  2  0  0  0  0
 34 58  1  0  0  0  0
 34 65  1  0  0  0  0
 34 75  2  0  0  0  0
 35 59  1  0  0  0  0
 35 70  1  0  0  0  0
 35 76  2  0  0  0  0
 36 66  1  0  0  0  0
 36 71  1  0  0  0  0
 36 77  2  0  0  0  0
 37 40  1  0  0  0  0
 38 47  1  0  0  0  0
 39 65  1  0  0  0  0
 40 42  1  0  0  0  0
 41 43  1  0  0  0  0
 41 44  1  0  0  0  0
 42 46  1  0  0  0  0
 43 48  1  0  0  0  0
 44 66  1  0  0  0  0
 45 48  1  0  0  0  0
 45 66  1  0  0  0  0
 46 69  1  0  0  0  0
 47 65  1  0  0  0  0
 48 64  1  0  0  0  0
 50 57  1  0  0  0  0
 51 59  1  0  0  0  0
 52 60  1  0  0  0  0
 53 60  1  0  0  0  0
 54 60  1  0  0  0  0
 55 72  1  0  0  0  0
 56 79  1  0  0  0  0
 57 71  1  0  0  0  0
 58 60  1  0  0  0  0
 58 70  1  0  0  0  0
 59 72  1  0  0  0  0
 62 64  1  0  0  0  0
M  CHG  1  72   1
M  ISO  4  36 100  56 101  71 100  79 101
M  END
> <Batch ID>
0061

> <Smiles>
CNC(C)C(=O)NC(C(=O)N1Cc2cc([101O:1][101CH2:1]c3ncc(C(C)[100NH:0][100C:0](=O)N4CCCC(n5nc(-c6ccc(Oc7ccc(F)cc7F)cc6)c(C(N)=O)c5N)C4)nc3C)ccc2CC1C(=O)NC1CCCc2ccccc21)C(C)(C)C

> <Shape>
0.228

> <Color>
0.122

> <Negative vol penalty>
0.000

$$$$

  -OEChem-04052317583D

 83 91  0     1  0  0  0  0  0999 V2000
  -21.4327  -14.3493   19.4740 C   0  0  0  0  0  0  0  0  0  0  0  0
  -21.7612  -15.6663   19.1691 C   0  0  0  0  0  0  0  0  0  0  0  0
  -28.3626  -17.4202   21.0309 C   0  0  0  0  0  0  0  0  0  0  0  0
  -30.6735  -17.9443   21.5020 C   0  0  0  0  0  0  0  0  0  0  0  0
  -20.9334  -14.0309   20.7363 C   0  0  0  0  0  0  0  0  0  0  0  0
  -21.5894  -16.6660   20.1260 C   0  0  0  0  0  0  0  0  0  0  0  0
  -25.1024  -21.6139   20.9521 C   0  0  0  0  0  0  0  0  0  0  0  0
  -28.6496  -16.0593   21.1368 C   0  0  0  0  0  0  0  0  0  0  0  0
  -30.9606  -16.5833   21.6079 C   0  0  0  0  0  0  0  0  0  0  0  0
  -24.9661  -22.9399   20.5435 C   0  0  0  0  0  0  0  0  0  0  0  0
  -30.0525  -13.6536   19.2213 C   0  0  0  0  0  0  0  0  0  0  0  0
  -29.5315  -12.8043   18.2452 C   0  0  0  0  0  0  0  0  0  0  0  0
  -23.9991  -23.4935   22.6830 C   0  0  0  0  0  0  0  0  0  0  0  0
  -28.3282  -11.5847   19.9487 C   0  0  0  0  0  0  0  0  0  0  0  0
  -29.3746  -18.3627   21.2135 C   0  0  0  0  0  0  0  0  0  0  0  0
  -28.6721  -20.6349   22.1361 C   0  0  0  0  0  0  0  0  0  0  0  0
  -20.7645  -15.0257   21.7123 C   0  0  0  0  0  0  0  0  0  0  0  0
  -24.6774  -21.2148   22.2274 C   0  0  0  0  0  0  0  0  0  0  0  0
  -21.0861  -16.3608   21.4020 C   0  0  0  0  0  0  0  0  0  0  0  0
  -24.1335  -22.1624   23.1063 C   0  0  0  0  0  0  0  0  0  0  0  0
  -29.9486  -15.6409   21.4253 C   0  0  0  0  0  0  0  0  0  0  0  0
  -24.4117  -23.8793   21.4079 C   0  0  0  0  0  0  0  0  0  0  0  0
  -29.7115  -13.4685   20.5611 C   0  0  0  0  0  0  0  0  0  0  0  0
  -28.6693  -11.7699   18.6089 C   0  0  0  0  0  0  0  0  0  0  0  0
  -28.8493  -12.4341   20.9248 C   0  0  0  0  0  0  0  0  0  0  0  0
  -29.0788  -19.7686   21.1037 C   0  0  0  0  0  0  0  0  0  0  0  0
  -28.5217  -21.8542   21.5219 C   0  0  0  0  0  0  0  0  0  0  0  0
  -25.9667  -29.3672   21.0249 C   0  0  0  0  0  0  0  0  0  0  0  0
  -27.2685  -28.1716   19.6420 C   0  0  0  0  0  0  0  0  0  0  0  0
  -25.0757  -27.7175   19.7914 C   0  0  0  0  0  0  0  0  0  0  0  0
  -28.4503  -20.3619   23.5260 C   0  0  0  0  0  0  0  0  0  0  0  0
  -22.5028  -19.1759   23.3310 C   0  0  0  0  0  0  0  0  0  0  0  0
  -23.8142  -19.9351   26.1992 C   0  0  0  0  0  0  0  0  0  0  0  0
  -25.5668  -22.1791   28.0806 C   0  0  0  0  0  0  0  0  0  0  0  0
  -30.8516  -25.6233   17.9607 C   0  0  0  0  0  0  0  0  0  0  0  0
  -20.1770  -14.6408   23.0470 C   0  0  0  0  0  0  0  0  0  0  0  0
  -24.8559  -19.7862   22.6628 C   0  0  0  0  0  0  0  0  0  0  0  0
  -23.6803  -21.7892   24.4933 C   0  0  0  0  0  0  0  0  0  0  0  0
  -20.3775  -15.6991   24.1287 C   0  0  0  0  0  0  0  0  0  0  0  0
  -28.4760  -23.1144   16.6327 C   0  0  0  0  0  0  0  0  0  0  0  0
  -20.0260  -17.0834   23.5929 C   0  0  0  0  0  0  0  0  0  0  0  0
  -28.4503  -22.0615   17.7393 C   0  0  0  0  0  0  0  0  0  0  0  0
  -29.8076  -23.8579   16.5879 C   0  0  0  0  0  0  0  0  0  0  0  0
  -30.1740  -23.4170   18.9932 C   0  0  0  0  0  0  0  0  0  0  0  0
  -20.9373  -17.4693   22.4215 C   0  0  1  0  0  0  0  0  0  0  0  0
  -23.9163  -19.3850   23.7958 C   0  0  1  0  0  0  0  0  0  0  0  0
  -28.8293  -22.6816   19.0955 C   0  0  2  0  0  0  0  0  0  0  0  0
  -25.8091  -30.4584   22.0284 C   0  0  0  0  0  0  0  0  0  0  0  0
  -26.4516  -22.5383   30.4012 C   0  0  0  0  0  0  0  0  0  0  0  0
  -21.0014  -20.6200   27.1630 C   0  0  0  0  0  0  0  0  0  0  0  0
  -22.0341  -21.8403   29.0898 C   0  0  0  0  0  0  0  0  0  0  0  0
  -22.4031  -19.3873   28.8273 C   0  0  0  0  0  0  0  0  0  0  0  0
  -31.6800  -27.3149   19.5519 C   0  0  0  0  0  0  0  0  0  0  0  0
  -28.3646  -22.2897   27.1218 C   0  0  0  0  0  0  0  0  0  0  0  0
  -28.6087  -27.8871   19.0542 C   0  0  0  0  0  0  0  0  0  0  0  0
  -23.8783  -26.9006   19.3705 C   0  0  0  0  0  0  0  0  0  0  0  0
  -29.3029  -26.6656   19.6689 C   0  0  0  0  0  0  0  0  0  0  0  0
  -24.0778  -25.4093   19.6180 C   0  0  0  0  0  0  0  0  0  1  0  0
  -23.5552  -20.9901   27.2475 C   0  0  1  0  0  0  0  0  0  0  0  0
  -26.7544  -22.0044   29.0098 C   0  0  2  0  0  0  0  0  0  0  0  0
  -22.2551  -20.7164   28.0551 C   0  0  0  0  0  0  0  0  0  0  0  0
  -29.1802  -20.3851   19.9231 N   0  0  0  0  0  0  0  0  0  0  0  0
  -27.2028  -29.1685   20.5391 N   0  0  0  0  0  0  0  0  0  0  0  0
  -24.8582  -28.6830   20.6988 N   0  0  0  0  0  0  0  0  0  0  0  0
  -26.2501  -27.4047   19.2205 N   0  0  0  0  0  0  0  0  0  0  0  0
  -28.8349  -21.6518   20.2100 N   0  0  0  0  0  0  0  0  0  0  0  0
  -23.8700  -20.3787   24.8703 N   0  0  0  0  0  0  0  0  0  0  0  0
  -30.1643  -24.3999   17.8994 N   0  0  0  0  0  0  0  0  0  0  0  0
  -28.1533  -23.0689   21.9814 N   0  0  0  0  0  0  0  0  0  0  0  0
  -28.6512  -19.0549   23.9906 N   0  0  0  0  0  0  0  0  0  0  0  0
  -22.2346  -17.8883   22.9072 N   0  0  0  0  0  0  0  0  0  0  0  0
  -24.7623  -21.0594   28.0638 N   0  0  0  0  0  0  0  0  0  0  0  0
  -30.6218  -26.4304   19.0852 N   0  0  0  0  0  0  0  0  0  0  0  0
  -27.9412  -22.7305   28.4758 N   0  3  0  0  0  0  0  0  0  0  0  0
  -28.0688  -21.2470   24.3289 O   0  0  0  0  0  0  0  0  0  0  0  0
  -21.7136  -20.1130   23.3566 O   0  0  0  0  0  0  0  0  0  0  0  0
  -23.9687  -18.7618   26.5473 O   0  0  0  0  0  0  0  0  0  0  0  0
  -25.3703  -23.2075   27.4370 O   0  0  0  0  0  0  0  0  0  0  0  0
  -31.6192  -25.9784   17.0571 O   0  0  0  0  0  0  0  0  0  0  0  0
  -30.2290  -14.3130   21.5289 O   0  0  0  0  0  0  0  0  0  0  0  0
  -24.2769  -25.1741   21.0114 O   0  0  0  0  0  0  0  0  0  1  0  0
  -28.1678  -10.9553   17.6713 F   0  0  0  0  0  0  0  0  0  0  0  0
  -28.5171  -12.2520   22.2102 F   0  0  0  0  0  0  0  0  0  0  0  0
  1  2  1  0  0  0  0
  1  5  2  0  0  0  0
  2  6  2  0  0  0  0
  3  8  2  0  0  0  0
  3 15  1  0  0  0  0
  4  9  1  0  0  0  0
  4 15  2  0  0  0  0
  5 17  1  0  0  0  0
  6 19  1  0  0  0  0
  7 10  2  0  0  0  0
  7 18  1  0  0  0  0
  8 21  1  0  0  0  0
  9 21  2  0  0  0  0
 10 22  1  0  0  0  0
 11 12  2  0  0  0  0
 11 23  1  0  0  0  0
 12 24  1  0  0  0  0
 13 20  1  0  0  0  0
 13 22  2  0  0  0  0
 14 24  2  0  0  0  0
 14 25  1  0  0  0  0
 15 26  1  0  0  0  0
 16 26  1  0  0  0  0
 16 27  2  0  0  0  0
 16 31  1  0  0  0  0
 17 19  2  0  0  0  0
 17 36  1  0  0  0  0
 18 20  2  0  0  0  0
 18 37  1  0  0  0  0
 19 45  1  0  0  0  0
 20 38  1  0  0  0  0
 21 80  1  0  0  0  0
 22 81  1  0  0  0  0
 23 25  2  0  0  0  0
 23 80  1  0  0  0  0
 24 82  1  0  0  0  0
 25 83  1  0  0  0  0
 26 62  2  0  0  0  0
 27 66  1  0  0  0  0
 27 69  1  0  0  0  0
 28 48  1  0  0  0  0
 28 63  1  0  0  0  0
 28 64  2  0  0  0  0
 29 55  1  0  0  0  0
 29 63  2  0  0  0  0
 29 65  1  0  0  0  0
 30 56  1  0  0  0  0
 30 64  1  0  0  0  0
 30 65  2  0  0  0  0
 31 70  1  0  0  0  0
 31 75  2  0  0  0  0
 32 46  1  0  0  0  0
 32 71  1  0  0  0  0
 32 76  2  0  0  0  0
 33 59  1  0  0  0  0
 33 67  1  0  0  0  0
 33 77  2  0  0  0  0
 34 60  1  0  0  0  0
 34 72  1  0  0  0  0
 34 78  2  0  0  0  0
 35 68  1  0  0  0  0
 35 73  1  0  0  0  0
 35 79  2  0  0  0  0
 36 39  1  0  0  0  0
 37 46  1  0  0  0  0
 38 67  1  0  0  0  0
 39 41  1  0  0  0  0
 40 42  1  0  0  0  0
 40 43  1  0  0  0  0
 41 45  1  0  0  0  0
 42 47  1  0  0  0  0
 43 68  1  0  0  0  0
 44 47  1  0  0  0  0
 44 68  1  0  0  0  0
 45 71  1  0  0  0  0
 46 67  1  0  0  0  0
 47 66  1  0  0  0  0
 49 60  1  0  0  0  0
 50 61  1  0  0  0  0
 51 61  1  0  0  0  0
 52 61  1  0  0  0  0
 53 73  1  0  0  0  0
 54 74  1  0  0  0  0
 55 57  1  0  0  0  0
 56 58  1  0  0  0  0
 57 73  1  0  0  0  0
 58 81  1  0  0  0  0
 59 61  1  0  0  0  0
 59 72  1  0  0  0  0
 60 74  1  0  0  0  0
 62 66  1  0  0  0  0
M  CHG  1  74   1
M  ISO  4  35 100  58 101  73 100  81 101
M  END
> <Batch ID>
0061

> <Smiles>
CNC(C)C(=O)NC(C(=O)N1Cc2cc([101O:1][101CH2:1]Cc3nc(C)nc(CC[100N:0](C)[100C:0](=O)N4CCCC(n5nc(-c6ccc(Oc7ccc(F)cc7F)cc6)c(C(N)=O)c5N)C4)n3)ccc2CC1C(=O)NC1CCCc2ccccc21)C(C)(C)C

> <Shape>
0.203

> <Color>
0.055

> <Negative vol penalty>
0.000

$$$$

  -OEChem-04052317583D

 83 91  0     1  0  0  0  0  0999 V2000
  -30.5831  -33.6883   13.8037 C   0  0  0  0  0  0  0  0  0  0  0  0
  -30.4687  -32.3377   14.1168 C   0  0  0  0  0  0  0  0  0  0  0  0
  -22.6011  -10.3508   21.8842 C   0  0  0  0  0  0  0  0  0  0  0  0
  -24.2204   -9.6560   20.2313 C   0  0  0  0  0  0  0  0  0  0  0  0
  -30.4612  -34.6482   14.8075 C   0  0  0  0  0  0  0  0  0  0  0  0
  -30.2335  -31.9460   15.4342 C   0  0  0  0  0  0  0  0  0  0  0  0
  -26.8893  -27.1725   17.3146 C   0  0  0  0  0  0  0  0  0  0  0  0
  -22.0846   -9.0557   21.9226 C   0  0  0  0  0  0  0  0  0  0  0  0
  -23.7039   -8.3608   20.2697 C   0  0  0  0  0  0  0  0  0  0  0  0
  -27.2376  -25.8853   17.7213 C   0  0  0  0  0  0  0  0  0  0  0  0
  -22.9046   -6.0874   23.3189 C   0  0  0  0  0  0  0  0  0  0  0  0
  -22.6429   -5.5308   24.5708 C   0  0  0  0  0  0  0  0  0  0  0  0
  -29.5169  -21.8555   19.6141 C   0  0  0  0  0  0  0  0  0  0  0  0
  -27.1766  -26.6026   20.0237 C   0  0  0  0  0  0  0  0  0  0  0  0
  -20.3138   -5.2886   23.9763 C   0  0  0  0  0  0  0  0  0  0  0  0
  -29.7414  -20.6174   20.1807 C   0  0  0  0  0  0  0  0  0  0  0  0
  -23.6690  -10.6510   21.0384 C   0  0  0  0  0  0  0  0  0  0  0  0
  -25.2392  -12.5150   21.7918 C   0  0  0  0  0  0  0  0  0  0  0  0
  -30.2148  -34.2686   16.1363 C   0  0  0  0  0  0  0  0  0  0  0  0
  -26.6923  -28.1889   18.2605 C   0  0  0  0  0  0  0  0  0  0  0  0
  -30.1096  -32.9016   16.4570 C   0  0  0  0  0  0  0  0  0  0  0  0
  -26.8233  -27.9013   19.6266 C   0  0  0  0  0  0  0  0  0  0  0  0
  -22.6360   -8.0607   21.1154 C   0  0  0  0  0  0  0  0  0  0  0  0
  -27.3842  -25.6009   19.0758 C   0  0  0  0  0  0  0  0  0  0  0  0
  -21.8709   -6.2447   22.3957 C   0  0  0  0  0  0  0  0  0  0  0  0
  -21.3475   -5.1314   24.8995 C   0  0  0  0  0  0  0  0  0  0  0  0
  -20.5755   -5.8453   22.7243 C   0  0  0  0  0  0  0  0  0  0  0  0
  -24.2026  -11.9888   20.9978 C   0  0  0  0  0  0  0  0  0  0  0  0
  -28.2552  -22.0529   19.0912 C   0  0  0  0  0  0  0  0  0  0  0  0
  -25.3681  -13.8158   21.3701 C   0  0  0  0  0  0  0  0  0  0  0  0
  -27.6222  -19.9546   19.6941 C   0  0  0  0  0  0  0  0  0  0  0  0
  -26.0160  -11.8844   22.8187 C   0  0  0  0  0  0  0  0  0  0  0  0
  -28.0829  -30.9801   18.8764 C   0  0  0  0  0  0  0  0  0  0  0  0
  -25.6648  -31.2699   21.0191 C   0  0  0  0  0  0  0  0  0  0  0  0
  -23.3387  -29.7336   22.9878 C   0  0  0  0  0  0  0  0  0  0  0  0
  -25.7580  -17.2619   16.8657 C   0  0  0  0  0  0  0  0  0  0  0  0
  -30.1376  -35.3400   17.1950 C   0  0  0  0  0  0  0  0  0  0  0  0
  -26.2907  -29.5657   17.8070 C   0  0  0  0  0  0  0  0  0  0  0  0
  -26.6030  -28.9521   20.6829 C   0  0  0  0  0  0  0  0  0  0  0  0
  -29.5157  -34.8595   18.5037 C   0  0  0  0  0  0  0  0  0  0  0  0
  -22.4368  -16.6299   18.3730 C   0  0  0  0  0  0  0  0  0  0  0  0
  -30.1151  -33.5199   18.9195 C   0  0  0  0  0  0  0  0  0  0  0  0
  -22.6797  -15.3663   19.1966 C   0  0  0  0  0  0  0  0  0  0  0  0
  -23.3714  -16.7112   17.1698 C   0  0  0  0  0  0  0  0  0  0  0  0
  -25.0566  -15.3328   18.3422 C   0  0  0  0  0  0  0  0  0  0  0  0
  -29.8299  -32.4385   17.8703 C   0  0  1  0  0  0  0  0  0  0  0  0
  -26.6178  -30.6504   18.8287 C   0  0  1  0  0  0  0  0  0  0  0  0
  -24.1626  -15.2433   19.5881 C   0  0  2  0  0  0  0  0  0  0  0  0
  -21.5314  -30.2319   24.6560 C   0  0  0  0  0  0  0  0  0  0  0  0
  -25.1931  -19.2914   19.0973 C   0  0  0  0  0  0  0  0  0  0  0  0
  -26.2295  -18.5282   21.2184 C   0  0  0  0  0  0  0  0  0  0  0  0
  -27.7826  -31.8175   23.1463 C   0  0  0  0  0  0  0  0  0  0  0  0
  -26.0465  -31.3631   24.8921 C   0  0  0  0  0  0  0  0  0  0  0  0
  -25.7479  -33.2631   23.3035 C   0  0  0  0  0  0  0  0  0  0  0  0
  -27.9536  -18.3831   16.9024 C   0  0  0  0  0  0  0  0  0  0  0  0
  -21.2595  -28.5079   21.2751 C   0  0  0  0  0  0  0  0  0  0  0  0
  -27.9167  -23.3681   18.4534 C   0  0  0  0  0  0  0  0  0  1  0  0
  -27.0223  -17.5673   19.0361 C   0  0  0  0  0  0  0  0  0  0  0  0
  -25.4693  -30.8932   22.4678 C   0  0  1  0  0  0  0  0  0  0  0  0
  -21.8573  -29.9971   23.1892 C   0  0  2  0  0  0  0  0  0  0  0  0
  -26.5704  -18.8987   19.7376 C   0  0  0  0  0  0  0  0  0  0  0  0
  -26.2677  -31.8147   23.4327 C   0  0  0  0  0  0  0  0  0  0  0  0
  -28.8132  -19.6399   20.2381 N   0  0  0  0  0  0  0  0  0  0  0  0
  -23.7081  -12.8824   20.1370 N   0  0  0  0  0  0  0  0  0  0  0  0
  -27.2800  -21.1207   19.1140 N   0  0  0  0  0  0  0  0  0  0  0  0
  -24.4370  -13.9832   20.3877 N   0  0  0  0  0  0  0  0  0  0  0  0
  -26.2180  -30.2845   20.1891 N   0  0  0  0  0  0  0  0  0  0  0  0
  -24.7708  -16.5481   17.5650 N   0  0  0  0  0  0  0  0  0  0  0  0
  -26.1860  -14.8213   21.7476 N   0  0  0  0  0  0  0  0  0  0  0  0
  -25.7532  -10.5425   23.1263 N   0  0  0  0  0  0  0  0  0  0  0  0
  -28.4668  -31.9668   17.9884 N   0  0  0  0  0  0  0  0  0  0  0  0
  -24.0287  -30.8918   22.6984 N   0  0  0  0  0  0  0  0  0  0  0  0
  -26.9070  -17.6319   17.5808 N   0  0  0  0  0  0  0  0  0  0  0  0
  -21.0549  -28.8365   22.7094 N   0  3  0  0  0  0  0  0  0  0  0  0
  -26.9055  -12.4975   23.4562 O   0  0  0  0  0  0  0  0  0  0  0  0
  -28.8110  -30.3845   19.6618 O   0  0  0  0  0  0  0  0  0  0  0  0
  -25.3322  -32.3944   20.6364 O   0  0  0  0  0  0  0  0  0  0  0  0
  -23.8348  -28.6131   23.0818 O   0  0  0  0  0  0  0  0  0  0  0  0
  -25.6158  -17.5600   15.6729 O   0  0  0  0  0  0  0  0  0  0  0  0
  -22.1324   -6.7968   21.1529 O   0  0  0  0  0  0  0  0  0  0  0  0
  -27.7248  -24.3454   19.4754 O   0  0  0  0  0  0  0  0  0  1  0  0
  -21.0967   -4.5954   26.1012 F   0  0  0  0  0  0  0  0  0  0  0  0
  -19.5785   -5.9928   21.8411 F   0  0  0  0  0  0  0  0  0  0  0  0
  1  2  1  0  0  0  0
  1  5  2  0  0  0  0
  2  6  2  0  0  0  0
  3  8  2  0  0  0  0
  3 17  1  0  0  0  0
  4  9  1  0  0  0  0
  4 17  2  0  0  0  0
  5 19  1  0  0  0  0
  6 21  1  0  0  0  0
  7 10  2  0  0  0  0
  7 20  1  0  0  0  0
  8 23  1  0  0  0  0
  9 23  2  0  0  0  0
 10 24  1  0  0  0  0
 11 12  2  0  0  0  0
 11 25  1  0  0  0  0
 12 26  1  0  0  0  0
 13 16  2  0  0  0  0
 13 29  1  0  0  0  0
 14 22  1  0  0  0  0
 14 24  2  0  0  0  0
 15 26  2  0  0  0  0
 15 27  1  0  0  0  0
 16 63  1  0  0  0  0
 17 28  1  0  0  0  0
 18 28  1  0  0  0  0
 18 30  2  0  0  0  0
 18 32  1  0  0  0  0
 19 21  2  0  0  0  0
 19 37  1  0  0  0  0
 20 22  2  0  0  0  0
 20 38  1  0  0  0  0
 21 46  1  0  0  0  0
 22 39  1  0  0  0  0
 23 80  1  0  0  0  0
 24 81  1  0  0  0  0
 25 27  2  0  0  0  0
 25 80  1  0  0  0  0
 26 82  1  0  0  0  0
 27 83  1  0  0  0  0
 28 64  2  0  0  0  0
 29 57  1  0  0  0  0
 29 65  2  0  0  0  0
 30 66  1  0  0  0  0
 30 69  1  0  0  0  0
 31 61  1  0  0  0  0
 31 63  2  0  0  0  0
 31 65  1  0  0  0  0
 32 70  1  0  0  0  0
 32 75  2  0  0  0  0
 33 47  1  0  0  0  0
 33 71  1  0  0  0  0
 33 76  2  0  0  0  0
 34 59  1  0  0  0  0
 34 67  1  0  0  0  0
 34 77  2  0  0  0  0
 35 60  1  0  0  0  0
 35 72  1  0  0  0  0
 35 78  2  0  0  0  0
 36 68  1  0  0  0  0
 36 73  1  0  0  0  0
 36 79  2  0  0  0  0
 37 40  1  0  0  0  0
 38 47  1  0  0  0  0
 39 67  1  0  0  0  0
 40 42  1  0  0  0  0
 41 43  1  0  0  0  0
 41 44  1  0  0  0  0
 42 46  1  0  0  0  0
 43 48  1  0  0  0  0
 44 68  1  0  0  0  0
 45 48  1  0  0  0  0
 45 68  1  0  0  0  0
 46 71  1  0  0  0  0
 47 67  1  0  0  0  0
 48 66  1  0  0  0  0
 49 60  1  0  0  0  0
 50 61  1  0  0  0  0
 51 61  1  0  0  0  0
 52 62  1  0  0  0  0
 53 62  1  0  0  0  0
 54 62  1  0  0  0  0
 55 73  1  0  0  0  0
 56 74  1  0  0  0  0
 57 81  1  0  0  0  0
 58 61  1  0  0  0  0
 58 73  1  0  0  0  0
 59 62  1  0  0  0  0
 59 72  1  0  0  0  0
 60 74  1  0  0  0  0
 64 66  1  0  0  0  0
M  CHG  1  74   1
M  ISO  4  36 100  57 101  73 100  81 101
M  END
> <Batch ID>
0061

> <Smiles>
CNC(C)C(=O)NC(C(=O)N1Cc2cc([101O:1][101CH2:1]c3ccnc(C(C)(C)C[100N:0](C)[100C:0](=O)N4CCCC(n5nc(-c6ccc(Oc7ccc(F)cc7F)cc6)c(C(N)=O)c5N)C4)n3)ccc2CC1C(=O)NC1CCCc2ccccc21)C(C)(C)C

> <Shape>
0.230

> <Color>
0.100

> <Negative vol penalty>
0.000

$$$$

  -OEChem-04052317583D

 89 97  0     1  0  0  0  0  0999 V2000
  -27.6232  -34.0050   20.9934 C   0  0  0  0  0  0  0  0  0  0  0  0
  -27.6751  -32.6205   20.8676 C   0  0  0  0  0  0  0  0  0  0  0  0
  -23.7910   -9.6931   22.2742 C   0  0  0  0  0  0  0  0  0  0  0  0
  -24.2178   -9.0517   19.9844 C   0  0  0  0  0  0  0  0  0  0  0  0
  -26.6703  -34.5932   21.8240 C   0  0  0  0  0  0  0  0  0  0  0  0
  -26.7747  -31.8232   21.5733 C   0  0  0  0  0  0  0  0  0  0  0  0
  -24.7908  -28.1401   18.7197 C   0  0  0  0  0  0  0  0  0  0  0  0
  -22.8215   -8.6951   22.3731 C   0  0  0  0  0  0  0  0  0  0  0  0
  -23.2484   -8.0537   20.0832 C   0  0  0  0  0  0  0  0  0  0  0  0
  -25.5861  -27.0197   18.4829 C   0  0  0  0  0  0  0  0  0  0  0  0
  -22.7320   -5.3450   22.8220 C   0  0  0  0  0  0  0  0  0  0  0  0
  -22.7371   -4.5473   23.9662 C   0  0  0  0  0  0  0  0  0  0  0  0
  -24.3972  -25.8194   20.2048 C   0  0  0  0  0  0  0  0  0  0  0  0
  -20.4947   -5.2804   24.4873 C   0  0  0  0  0  0  0  0  0  0  0  0
  -27.9751  -21.1288   21.3058 C   0  0  0  0  0  0  0  0  0  0  0  0
  -24.4891   -9.8714   21.0799 C   0  0  0  0  0  0  0  0  0  0  0  0
  -26.8633  -10.7861   21.2653 C   0  0  0  0  0  0  0  0  0  0  0  0
  -25.7515  -33.8032   22.5328 C   0  0  0  0  0  0  0  0  0  0  0  0
  -23.7983  -28.1120   19.7100 C   0  0  0  0  0  0  0  0  0  0  0  0
  -25.8094  -32.4013   22.4153 C   0  0  0  0  0  0  0  0  0  0  0  0
  -23.5890  -26.9398   20.4505 C   0  0  0  0  0  0  0  0  0  0  0  0
  -22.5502   -7.8754   21.2776 C   0  0  0  0  0  0  0  0  0  0  0  0
  -25.3913  -25.8601   19.2275 C   0  0  0  0  0  0  0  0  0  0  0  0
  -21.6083   -6.1105   22.5104 C   0  0  0  0  0  0  0  0  0  0  0  0
  -21.6185   -4.5149   24.7988 C   0  0  0  0  0  0  0  0  0  0  0  0
  -20.4897   -6.0781   23.3431 C   0  0  0  0  0  0  0  0  0  0  0  0
  -25.4903  -10.9025   20.9770 C   0  0  0  0  0  0  0  0  0  0  0  0
  -27.3749  -12.0349   21.0100 C   0  0  0  0  0  0  0  0  0  0  0  0
  -28.0759  -19.7670   21.3526 C   0  0  0  0  0  0  0  0  0  0  0  0
  -30.1229  -20.6066   21.4264 C   0  0  0  0  0  0  0  0  0  0  0  0
  -27.6095   -9.6505   21.7230 C   0  0  0  0  0  0  0  0  0  0  0  0
  -23.2689  -29.7184   22.4012 C   0  0  0  0  0  0  0  0  0  0  0  0
  -20.4857  -28.0522   22.3896 C   0  0  0  0  0  0  0  0  0  0  0  0
  -18.7649  -25.2933   21.3532 C   0  0  0  0  0  0  0  0  0  0  0  0
  -27.2354  -17.4252   21.3841 C   0  0  0  0  0  0  0  0  0  0  0  0
  -24.7702  -34.4821   23.4552 C   0  0  0  0  0  0  0  0  0  0  0  0
  -22.9310  -29.3201   19.9348 C   0  0  0  0  0  0  0  0  0  0  0  0
  -22.5234  -26.8516   21.5112 C   0  0  0  0  0  0  0  0  0  0  0  0
  -23.6103  -33.5842   23.8779 C   0  0  0  0  0  0  0  0  0  0  0  0
  -25.3171  -16.0429   18.7285 C   0  0  0  0  0  0  0  0  0  0  0  0
  -24.1247  -32.2132   24.3053 C   0  0  0  0  0  0  0  0  0  0  0  0
  -25.2943  -14.5629   19.1091 C   0  0  0  0  0  0  0  0  0  0  0  0
  -25.1837  -16.9506   19.9517 C   0  0  0  0  0  0  0  0  0  0  0  0
  -26.1509  -15.1913   21.3987 C   0  0  0  0  0  0  0  0  0  0  0  0
  -24.8338  -31.5039   23.1453 C   0  0  1  0  0  0  0  0  0  0  0  0
  -22.2930  -29.3482   21.3203 C   0  0  1  0  0  0  0  0  0  0  0  0
  -26.3409  -14.2557   20.1946 C   0  0  1  0  0  0  0  0  0  0  0  0
  -28.3982  -23.4588   23.6231 C   0  0  0  0  0  0  0  0  0  0  0  0
  -16.5186  -24.1894   21.5349 C   0  0  0  0  0  0  0  0  0  0  0  0
  -27.9412  -22.5234   18.5314 C   0  0  0  0  0  0  0  0  0  0  0  0
  -32.0683  -21.5004   22.7539 C   0  0  0  0  0  0  0  0  0  0  0  0
  -32.1894  -21.4253   20.2407 C   0  0  0  0  0  0  0  0  0  0  0  0
  -32.3663  -19.3332   21.5723 C   0  0  0  0  0  0  0  0  0  0  0  0
  -21.1673  -27.1366   25.2193 C   0  0  0  0  0  0  0  0  0  0  0  0
  -19.4370  -25.3429   24.9808 C   0  0  0  0  0  0  0  0  0  0  0  0
  -18.7664  -27.7430   24.8689 C   0  0  0  0  0  0  0  0  0  0  0  0
  -31.0084  -23.4044   20.6753 C   0  0  0  0  0  0  0  0  0  0  0  0
  -25.6203  -19.3106   21.4939 C   0  0  0  0  0  0  0  0  0  0  0  0
  -18.3200  -25.4549   18.4318 C   0  0  0  0  0  0  0  0  0  0  0  0
  -29.6726  -23.6495   22.8037 C   0  0  0  0  0  0  0  0  0  0  0  0
  -28.5485  -23.9785   20.5748 C   0  0  0  0  0  0  0  0  0  0  0  0
  -27.4958  -24.9964   18.5337 C   0  0  0  0  0  0  0  0  0  1  0  0
  -20.0354  -26.7192   22.9366 C   0  0  1  0  0  0  0  0  0  0  0  0
  -17.3900  -25.1396   20.7284 C   0  0  2  0  0  0  0  0  0  0  0  0
  -28.4345  -23.8819   19.0326 C   0  0  2  0  0  0  0  0  0  0  0  0
  -31.6020  -20.7003   21.4947 C   0  0  0  0  0  0  0  0  0  0  0  0
  -19.8730  -26.7374   24.4828 C   0  0  0  0  0  0  0  0  0  0  0  0
  -29.6328  -23.1166   21.3259 C   0  0  1  0  0  0  0  0  0  0  0  0
  -25.1511  -12.1286   20.5698 N   0  0  0  0  0  0  0  0  0  0  0  0
  -29.2566  -21.6223   21.3535 N   0  0  0  0  0  0  0  0  0  0  0  0
  -26.3183  -12.7940   20.6006 N   0  0  0  0  0  0  0  0  0  0  0  0
  -29.4158  -19.4719   21.4266 N   0  3  0  0  0  0  0  0  0  0  0  0
  -21.7053  -28.0613   21.6981 N   0  0  0  0  0  0  0  0  0  0  0  0
  -26.1755  -16.5937   20.9760 N   0  0  0  0  0  0  0  0  0  0  0  0
  -28.6209  -12.5468   21.0982 N   0  0  0  0  0  0  0  0  0  0  0  0
  -26.9280   -8.4443   21.9345 N   0  0  0  0  0  0  0  0  0  0  0  0
  -23.8652  -30.9520   22.2225 N   0  0  0  0  0  0  0  0  0  0  0  0
  -18.8180  -26.3708   22.2120 N   0  0  0  0  0  0  0  0  0  0  0  0
  -26.9909  -18.8143   21.3295 N   0  0  0  0  0  0  0  0  0  0  0  0
  -17.5079  -24.6066   19.3417 N   0  3  0  0  0  0  0  0  0  0  0  0
  -28.8412   -9.7084   21.9536 O   0  0  0  0  0  0  0  0  0  0  0  0
  -23.4651  -28.9428   23.3295 O   0  0  0  0  0  0  0  0  0  0  0  0
  -19.7777  -29.0474   22.5632 O   0  0  0  0  0  0  0  0  0  0  0  0
  -19.6973  -24.5314   21.1072 O   0  0  0  0  0  0  0  0  0  0  0  0
  -28.3080  -16.9624   21.7907 O   0  0  0  0  0  0  0  0  0  0  0  0
  -21.6044   -6.9013   21.3737 O   0  0  0  0  0  0  0  0  0  0  0  0
  -26.1666  -24.7653   18.9988 O   0  0  0  0  0  0  0  0  0  1  0  0
  -21.6230   -3.7476   25.8967 F   0  0  0  0  0  0  0  0  0  0  0  0
  -19.4067   -6.8104   23.0484 F   0  0  0  0  0  0  0  0  0  0  0  0
  1  2  1  0  0  0  0
  1  5  2  0  0  0  0
  2  6  2  0  0  0  0
  3  8  2  0  0  0  0
  3 16  1  0  0  0  0
  4  9  1  0  0  0  0
  4 16  2  0  0  0  0
  5 18  1  0  0  0  0
  6 20  1  0  0  0  0
  7 10  2  0  0  0  0
  7 19  1  0  0  0  0
  8 22  1  0  0  0  0
  9 22  2  0  0  0  0
 10 23  1  0  0  0  0
 11 12  2  0  0  0  0
 11 24  1  0  0  0  0
 12 25  1  0  0  0  0
 13 21  1  0  0  0  0
 13 23  2  0  0  0  0
 14 25  2  0  0  0  0
 14 26  1  0  0  0  0
 15 29  2  0  0  0  0
 15 70  1  0  0  0  0
 16 27  1  0  0  0  0
 17 27  1  0  0  0  0
 17 28  2  0  0  0  0
 17 31  1  0  0  0  0
 18 20  2  0  0  0  0
 18 36  1  0  0  0  0
 19 21  2  0  0  0  0
 19 37  1  0  0  0  0
 20 45  1  0  0  0  0
 21 38  1  0  0  0  0
 22 86  1  0  0  0  0
 23 87  1  0  0  0  0
 24 26  2  0  0  0  0
 24 86  1  0  0  0  0
 25 88  1  0  0  0  0
 26 89  1  0  0  0  0
 27 69  2  0  0  0  0
 28 71  1  0  0  0  0
 28 75  1  0  0  0  0
 29 72  1  0  0  0  0
 29 79  1  0  0  0  0
 30 66  1  0  0  0  0
 30 70  1  0  0  0  0
 30 72  2  0  0  0  0
 31 76  1  0  0  0  0
 31 81  2  0  0  0  0
 32 46  1  0  0  0  0
 32 77  1  0  0  0  0
 32 82  2  0  0  0  0
 33 63  1  0  0  0  0
 33 73  1  0  0  0  0
 33 83  2  0  0  0  0
 34 64  1  0  0  0  0
 34 78  1  0  0  0  0
 34 84  2  0  0  0  0
 35 74  1  0  0  0  0
 35 79  1  0  0  0  0
 35 85  2  0  0  0  0
 36 39  1  0  0  0  0
 37 46  1  0  0  0  0
 38 73  1  0  0  0  0
 39 41  1  0  0  0  0
 40 42  1  0  0  0  0
 40 43  1  0  0  0  0
 41 45  1  0  0  0  0
 42 47  1  0  0  0  0
 43 74  1  0  0  0  0
 44 47  1  0  0  0  0
 44 74  1  0  0  0  0
 45 77  1  0  0  0  0
 46 73  1  0  0  0  0
 47 71  1  0  0  0  0
 48 60  1  0  0  0  0
 49 64  1  0  0  0  0
 50 65  1  0  0  0  0
 51 66  1  0  0  0  0
 52 66  1  0  0  0  0
 53 66  1  0  0  0  0
 54 67  1  0  0  0  0
 55 67  1  0  0  0  0
 56 67  1  0  0  0  0
 57 68  1  0  0  0  0
 58 79  1  0  0  0  0
 59 80  1  0  0  0  0
 60 68  1  0  0  0  0
 61 65  1  0  0  0  0
 61 68  1  0  0  0  0
 62 65  1  0  0  0  0
 62 87  1  0  0  0  0
 63 67  1  0  0  0  0
 63 78  1  0  0  0  0
 64 80  1  0  0  0  0
 68 70  1  0  0  0  0
 69 71  1  0  0  0  0
M  CHG  2  72   1  80   1
M  ISO  4  35 100  62 101  79 100  87 101
M  END
> <Batch ID>
0061

> <Smiles>
CCC(C)(CC(C)[101CH2:1][101O:1]c1ccc2c(c1)CN(C(=O)C(NC(=O)C(C)NC)C(C)(C)C)C(C(=O)NC1CCCc3ccccc31)C2)n1cc([100N:0](C)[100C:0](=O)N2CCCC(n3nc(-c4ccc(Oc5ccc(F)cc5F)cc4)c(C(N)=O)c3N)C2)nc1C(C)(C)C

> <Shape>
0.293

> <Color>
0.081

> <Negative vol penalty>
0.000

$$$$

  -OEChem-04052317583D

 82 90  0     1  0  0  0  0  0999 V2000
  -30.1208  -12.4250   19.8623 C   0  0  0  0  0  0  0  0  0  0  0  0
  -29.8960  -13.7399   19.4675 C   0  0  0  0  0  0  0  0  0  0  0  0
  -21.5101  -25.2895   22.4869 C   0  0  0  0  0  0  0  0  0  0  0  0
  -21.4812  -27.2379   21.0586 C   0  0  0  0  0  0  0  0  0  0  0  0
  -29.0414  -11.5711   20.0854 C   0  0  0  0  0  0  0  0  0  0  0  0
  -28.5916  -14.2014   19.2945 C   0  0  0  0  0  0  0  0  0  0  0  0
  -27.8572  -18.7680   21.3566 C   0  0  0  0  0  0  0  0  0  0  0  0
  -20.2176  -25.5869   22.9189 C   0  0  0  0  0  0  0  0  0  0  0  0
  -20.1886  -27.5353   21.4906 C   0  0  0  0  0  0  0  0  0  0  0  0
  -28.3335  -19.8705   20.6485 C   0  0  0  0  0  0  0  0  0  0  0  0
  -18.7279  -28.9422   24.1958 C   0  0  0  0  0  0  0  0  0  0  0  0
  -18.4456  -30.2660   24.5322 C   0  0  0  0  0  0  0  0  0  0  0  0
  -26.1070  -20.2940   19.8223 C   0  0  0  0  0  0  0  0  0  0  0  0
  -16.7368  -30.3354   22.8256 C   0  0  0  0  0  0  0  0  0  0  0  0
  -29.0438  -23.7330   17.3565 C   0  0  0  0  0  0  0  0  0  0  0  0
  -22.1419  -26.1150   21.5568 C   0  0  0  0  0  0  0  0  0  0  0  0
  -23.8438  -25.0087   20.0117 C   0  0  0  0  0  0  0  0  0  0  0  0
  -27.7229  -12.0252   19.9245 C   0  0  0  0  0  0  0  0  0  0  0  0
  -26.5019  -18.4132   21.2941 C   0  0  0  0  0  0  0  0  0  0  0  0
  -27.4936  -13.3525   19.5144 C   0  0  0  0  0  0  0  0  0  0  0  0
  -25.6155  -19.1881   20.5326 C   0  0  0  0  0  0  0  0  0  0  0  0
  -19.5569  -26.7098   22.4207 C   0  0  0  0  0  0  0  0  0  0  0  0
  -27.4589  -20.6320   19.8788 C   0  0  0  0  0  0  0  0  0  0  0  0
  -18.0147  -28.3149   23.1742 C   0  0  0  0  0  0  0  0  0  0  0  0
  -17.4500  -30.9627   23.8472 C   0  0  0  0  0  0  0  0  0  0  0  0
  -17.0191  -29.0115   22.4891 C   0  0  0  0  0  0  0  0  0  0  0  0
  -23.4773  -25.8086   21.1106 C   0  0  0  0  0  0  0  0  0  0  0  0
  -29.6200  -23.2285   18.4880 C   0  0  0  0  0  0  0  0  0  0  0  0
  -25.2171  -25.0314   20.0134 C   0  0  0  0  0  0  0  0  0  0  0  0
  -30.6854  -25.0935   17.9519 C   0  0  0  0  0  0  0  0  0  0  0  0
  -23.0169  -24.3080   19.0732 C   0  0  0  0  0  0  0  0  0  0  0  0
  -24.8948  -15.8646   20.2814 C   0  0  0  0  0  0  0  0  0  0  0  0
  -22.3574  -17.4521   21.5321 C   0  0  0  0  0  0  0  0  0  0  0  0
  -20.9749  -20.4308   22.4607 C   0  0  0  0  0  0  0  0  0  0  0  0
  -30.0381  -27.8047   20.4740 C   0  0  0  0  0  0  0  0  0  0  0  0
  -26.5896  -11.0519   20.1315 C   0  0  0  0  0  0  0  0  0  0  0  0
  -25.9990  -17.2370   22.0852 C   0  0  0  0  0  0  0  0  0  0  0  0
  -24.1477  -18.8614   20.4485 C   0  0  0  0  0  0  0  0  0  0  0  0
  -25.2290  -11.7258   20.2891 C   0  0  0  0  0  0  0  0  0  0  0  0
  -28.4775  -26.7295   23.4881 C   0  0  0  0  0  0  0  0  0  0  0  0
  -25.0348  -12.7938   19.2174 C   0  0  0  0  0  0  0  0  0  0  0  0
  -27.0665  -26.3343   23.0486 C   0  0  0  0  0  0  0  0  0  0  0  0
  -28.9906  -27.9421   22.7146 C   0  0  0  0  0  0  0  0  0  0  0  0
  -27.5215  -27.4151   20.8073 C   0  0  0  0  0  0  0  0  0  0  0  0
  -26.0925  -13.8973   19.3403 C   0  0  1  0  0  0  0  0  0  0  0  0
  -24.6955  -16.6628   21.5388 C   0  0  1  0  0  0  0  0  0  0  0  0
  -26.9828  -26.1628   21.5199 C   0  0  2  0  0  0  0  0  0  0  0  0
  -18.8728  -21.4145   23.4152 C   0  0  0  0  0  0  0  0  0  0  0  0
  -32.5800  -26.3654   16.7315 C   0  0  0  0  0  0  0  0  0  0  0  0
  -32.6354  -26.0691   19.1942 C   0  0  0  0  0  0  0  0  0  0  0  0
  -20.9801  -17.1252   18.8291 C   0  0  0  0  0  0  0  0  0  0  0  0
  -19.3540  -18.8985   19.5216 C   0  0  0  0  0  0  0  0  0  0  0  0
  -19.4934  -16.7656   20.8077 C   0  0  0  0  0  0  0  0  0  0  0  0
  -29.4350  -25.7456   15.9156 C   0  0  0  0  0  0  0  0  0  0  0  0
  -22.4036  -21.4787   24.8313 C   0  0  0  0  0  0  0  0  0  0  0  0
  -29.3140  -21.9999   19.2931 C   0  0  0  0  0  0  0  0  0  1  0  0
  -30.9429  -27.6189   18.1705 C   0  0  0  0  0  0  0  0  0  0  0  0
  -21.3613  -18.4578   21.0074 C   0  0  1  0  0  0  0  0  0  0  0  0
  -20.2521  -20.8547   23.7266 C   0  0  2  0  0  0  0  0  0  0  0  0
  -31.6473  -26.2232   17.9886 C   0  0  0  0  0  0  0  0  0  0  0  0
  -20.3251  -17.8171   20.0413 C   0  0  0  0  0  0  0  0  0  0  0  0
  -24.5325  -26.3032   21.7631 N   0  0  0  0  0  0  0  0  0  0  0  0
  -29.7224  -24.8872   17.0477 N   0  0  0  0  0  0  0  0  0  0  0  0
  -25.5757  -25.8128   21.0722 N   0  0  0  0  0  0  0  0  0  0  0  0
  -30.6329  -24.0901   18.8339 N   0  3  0  0  0  0  0  0  0  0  0  0
  -23.7054  -17.6980   21.2349 N   0  0  0  0  0  0  0  0  0  0  0  0
  -28.8853  -27.7143   21.2713 N   0  0  0  0  0  0  0  0  0  0  0  0
  -26.1408  -24.4590   19.2125 N   0  0  0  0  0  0  0  0  0  0  0  0
  -21.6252  -24.3914   19.2165 N   0  0  0  0  0  0  0  0  0  0  0  0
  -25.7605  -14.7971   20.4240 N   0  0  0  0  0  0  0  0  0  0  0  0
  -20.7708  -19.0966   22.1786 N   0  0  0  0  0  0  0  0  0  0  0  0
  -29.8514  -27.5684   19.1175 N   0  0  0  0  0  0  0  0  0  0  0  0
  -21.0335  -21.9020   24.4432 N   0  3  0  0  0  0  0  0  0  0  0  0
  -23.4980  -23.6146   18.1452 O   0  0  0  0  0  0  0  0  0  0  0  0
  -24.3056  -16.1922   19.2581 O   0  0  0  0  0  0  0  0  0  0  0  0
  -21.9550  -16.4877   22.1877 O   0  0  0  0  0  0  0  0  0  0  0  0
  -21.6497  -21.2066   21.7874 O   0  0  0  0  0  0  0  0  0  0  0  0
  -31.1523  -28.0708   20.9374 O   0  0  0  0  0  0  0  0  0  0  0  0
  -18.2956  -27.0002   22.8419 O   0  0  0  0  0  0  0  0  0  0  0  0
  -27.9213  -21.7082   19.1861 O   0  0  0  0  0  0  0  0  0  1  0  0
  -17.1780  -32.2335   24.1714 F   0  0  0  0  0  0  0  0  0  0  0  0
  -16.3298  -28.4138   21.5076 F   0  0  0  0  0  0  0  0  0  0  0  0
  1  2  1  0  0  0  0
  1  5  2  0  0  0  0
  2  6  2  0  0  0  0
  3  8  2  0  0  0  0
  3 16  1  0  0  0  0
  4  9  1  0  0  0  0
  4 16  2  0  0  0  0
  5 18  1  0  0  0  0
  6 20  1  0  0  0  0
  7 10  2  0  0  0  0
  7 19  1  0  0  0  0
  8 22  1  0  0  0  0
  9 22  2  0  0  0  0
 10 23  1  0  0  0  0
 11 12  2  0  0  0  0
 11 24  1  0  0  0  0
 12 25  1  0  0  0  0
 13 21  1  0  0  0  0
 13 23  2  0  0  0  0
 14 25  2  0  0  0  0
 14 26  1  0  0  0  0
 15 28  2  0  0  0  0
 15 63  1  0  0  0  0
 16 27  1  0  0  0  0
 17 27  1  0  0  0  0
 17 29  2  0  0  0  0
 17 31  1  0  0  0  0
 18 20  2  0  0  0  0
 18 36  1  0  0  0  0
 19 21  2  0  0  0  0
 19 37  1  0  0  0  0
 20 45  1  0  0  0  0
 21 38  1  0  0  0  0
 22 79  1  0  0  0  0
 23 80  1  0  0  0  0
 24 26  2  0  0  0  0
 24 79  1  0  0  0  0
 25 81  1  0  0  0  0
 26 82  1  0  0  0  0
 27 62  2  0  0  0  0
 28 56  1  0  0  0  0
 28 65  1  0  0  0  0
 29 64  1  0  0  0  0
 29 68  1  0  0  0  0
 30 60  1  0  0  0  0
 30 63  1  0  0  0  0
 30 65  2  0  0  0  0
 31 69  1  0  0  0  0
 31 74  2  0  0  0  0
 32 46  1  0  0  0  0
 32 70  1  0  0  0  0
 32 75  2  0  0  0  0
 33 58  1  0  0  0  0
 33 66  1  0  0  0  0
 33 76  2  0  0  0  0
 34 59  1  0  0  0  0
 34 71  1  0  0  0  0
 34 77  2  0  0  0  0
 35 67  1  0  0  0  0
 35 72  1  0  0  0  0
 35 78  2  0  0  0  0
 36 39  1  0  0  0  0
 37 46  1  0  0  0  0
 38 66  1  0  0  0  0
 39 41  1  0  0  0  0
 40 42  1  0  0  0  0
 40 43  1  0  0  0  0
 41 45  1  0  0  0  0
 42 47  1  0  0  0  0
 43 67  1  0  0  0  0
 44 47  1  0  0  0  0
 44 67  1  0  0  0  0
 45 70  1  0  0  0  0
 46 66  1  0  0  0  0
 47 64  1  0  0  0  0
 48 59  1  0  0  0  0
 49 60  1  0  0  0  0
 50 60  1  0  0  0  0
 51 61  1  0  0  0  0
 52 61  1  0  0  0  0
 53 61  1  0  0  0  0
 54 63  1  0  0  0  0
 55 73  1  0  0  0  0
 56 80  1  0  0  0  0
 57 60  1  0  0  0  0
 57 72  1  0  0  0  0
 58 61  1  0  0  0  0
 58 71  1  0  0  0  0
 59 73  1  0  0  0  0
 62 64  1  0  0  0  0
M  CHG  2  65   1  73   1
M  ISO  4  35 100  56 101  72 100  80 101
M  END
> <Batch ID>
0061

> <Smiles>
CNC(C)C(=O)NC(C(=O)N1Cc2cc([101O:1][101CH2:1]c3cn(C)c(C(C)(C)C[100NH:0][100C:0](=O)N4CCCC(n5nc(-c6ccc(Oc7ccc(F)cc7F)cc6)c(C(N)=O)c5N)C4)n3)ccc2CC1C(=O)NC1CCCc2ccccc21)C(C)(C)C

> <Shape>
0.222

> <Color>
0.053

> <Negative vol penalty>
0.000

$$$$

  -OEChem-04052317583D

 88 96  0     1  0  0  0  0  0999 V2000
  -32.1303  -25.6616   14.4843 C   0  0  0  0  0  0  0  0  0  0  0  0
  -31.2533  -24.9046   15.2547 C   0  0  0  0  0  0  0  0  0  0  0  0
  -23.8846  -10.2304   23.1378 C   0  0  0  0  0  0  0  0  0  0  0  0
  -23.3055  -12.5703   23.3016 C   0  0  0  0  0  0  0  0  0  0  0  0
  -32.6588  -26.8469   14.9939 C   0  0  0  0  0  0  0  0  0  0  0  0
  -30.9053  -25.3320   16.5355 C   0  0  0  0  0  0  0  0  0  0  0  0
  -25.9383  -24.9273   17.4356 C   0  0  0  0  0  0  0  0  0  0  0  0
  -23.2540   -9.9889   24.3584 C   0  0  0  0  0  0  0  0  0  0  0  0
  -22.6749  -12.3288   24.5221 C   0  0  0  0  0  0  0  0  0  0  0  0
  -25.4466  -23.6572   17.7337 C   0  0  0  0  0  0  0  0  0  0  0  0
  -22.1081   -8.8222   27.6063 C   0  0  0  0  0  0  0  0  0  0  0  0
  -22.7726   -8.0199   28.5338 C   0  0  0  0  0  0  0  0  0  0  0  0
  -25.4511  -24.2129   20.0811 C   0  0  0  0  0  0  0  0  0  0  0  0
  -24.6110   -9.5871   28.5721 C   0  0  0  0  0  0  0  0  0  0  0  0
  -23.9103  -11.5211   22.6095 C   0  0  0  0  0  0  0  0  0  0  0  0
  -23.9827  -11.7179   20.0671 C   0  0  0  0  0  0  0  0  0  0  0  0
  -32.3095  -27.2940   16.2779 C   0  0  0  0  0  0  0  0  0  0  0  0
  -26.2008  -25.8475   18.4607 C   0  0  0  0  0  0  0  0  0  0  0  0
  -31.4307  -26.5237   17.0633 C   0  0  0  0  0  0  0  0  0  0  0  0
  -25.9436  -25.4949   19.7932 C   0  0  0  0  0  0  0  0  0  0  0  0
  -22.6491  -11.0381   25.0505 C   0  0  0  0  0  0  0  0  0  0  0  0
  -25.2057  -23.2988   19.0568 C   0  0  0  0  0  0  0  0  0  0  0  0
  -22.6950  -10.0069   27.1616 C   0  0  0  0  0  0  0  0  0  0  0  0
  -24.0241   -8.4023   29.0167 C   0  0  0  0  0  0  0  0  0  0  0  0
  -23.9464  -10.3893   27.6446 C   0  0  0  0  0  0  0  0  0  0  0  0
  -24.5620  -11.7714   21.3490 C   0  0  0  0  0  0  0  0  0  0  0  0
  -25.0106  -12.0330   19.2124 C   0  0  0  0  0  0  0  0  0  0  0  0
  -30.5215  -19.0398   18.7805 C   0  0  0  0  0  0  0  0  0  0  0  0
  -28.6905  -18.0522   18.6091 C   0  0  0  0  0  0  0  0  0  0  0  0
  -22.6358  -11.4109   19.6833 C   0  0  0  0  0  0  0  0  0  0  0  0
  -28.7974  -27.3418   19.5229 C   0  0  0  0  0  0  0  0  0  0  0  0
  -30.0914  -15.1387   20.0196 C   0  0  0  0  0  0  0  0  0  0  0  0
  -26.6609  -28.8837   21.4149 C   0  0  0  0  0  0  0  0  0  0  0  0
  -23.6104  -28.8743   22.9450 C   0  0  0  0  0  0  0  0  0  0  0  0
  -32.9433  -28.5574   16.8041 C   0  0  0  0  0  0  0  0  0  0  0  0
  -26.7057  -27.2229   18.1206 C   0  0  0  0  0  0  0  0  0  0  0  0
  -26.1897  -26.4533   20.9288 C   0  0  0  0  0  0  0  0  0  0  0  0
  -32.2316  -29.1327   18.0259 C   0  0  0  0  0  0  0  0  0  0  0  0
  -29.7636  -11.7829   18.8066 C   0  0  0  0  0  0  0  0  0  0  0  0
  -31.9396  -28.0321   19.0410 C   0  0  0  0  0  0  0  0  0  0  0  0
  -28.3502  -11.3848   19.2296 C   0  0  0  0  0  0  0  0  0  0  0  0
  -30.4195  -12.6945   19.8391 C   0  0  0  0  0  0  0  0  0  0  0  0
  -28.2104  -13.5221   20.5851 C   0  0  0  0  0  0  0  0  0  0  0  0
  -31.0097  -26.9669   18.4476 C   0  0  1  0  0  0  0  0  0  0  0  0
  -27.4233  -27.9006   19.2838 C   0  0  1  0  0  0  0  0  0  0  0  0
  -27.5004  -12.6259   19.5550 C   0  0  2  0  0  0  0  0  0  0  0  0
  -29.1879  -16.5714   21.8379 C   0  0  0  0  0  0  0  0  0  0  0  0
  -22.1601  -30.2568   24.4559 C   0  0  0  0  0  0  0  0  0  0  0  0
  -24.8379  -17.4544   18.8604 C   0  0  0  0  0  0  0  0  0  0  0  0
  -30.1988  -22.1478   18.5790 C   0  0  0  0  0  0  0  0  0  0  0  0
  -31.1804  -21.3241   20.7194 C   0  0  0  0  0  0  0  0  0  0  0  0
  -32.6592  -22.3175   18.9551 C   0  0  0  0  0  0  0  0  0  0  0  0
  -28.3787  -28.0721   23.8025 C   0  0  0  0  0  0  0  0  0  0  0  0
  -26.4454  -28.6270   25.2934 C   0  0  0  0  0  0  0  0  0  0  0  0
  -27.4952  -30.4097   23.8996 C   0  0  0  0  0  0  0  0  0  0  0  0
  -21.4851  -29.0928   20.8970 C   0  0  0  0  0  0  0  0  0  0  0  0
  -31.5880  -20.0201   18.5454 C   0  0  0  0  0  0  0  0  0  0  0  0
  -27.3004  -17.5825   18.2506 C   0  0  0  0  0  0  0  0  0  0  0  0
  -25.1277  -19.9838   20.4879 C   0  0  0  0  0  0  0  0  0  0  0  0
  -26.1249  -19.5287   19.4208 C   0  0  0  0  0  0  0  0  0  0  0  0
  -25.0963  -21.5019   20.6109 C   0  0  0  0  0  0  0  0  0  1  0  0
  -29.1564  -16.2775   20.3402 C   0  0  1  0  0  0  0  0  0  0  0  0
  -26.0749  -28.6400   22.7847 C   0  0  1  0  0  0  0  0  0  0  0  0
  -22.5155  -29.9234   23.0153 C   0  0  2  0  0  0  0  0  0  0  0  0
  -26.2156  -17.9944   19.2701 C   0  0  1  0  0  0  0  0  0  0  0  0
  -31.4199  -21.4404   19.2041 C   0  0  0  0  0  0  0  0  0  0  0  0
  -27.0956  -28.9182   23.9240 C   0  0  0  0  0  0  0  0  0  0  0  0
  -25.8575  -12.0948   21.3163 N   0  0  0  0  0  0  0  0  0  0  0  0
  -29.3359  -19.0779   18.1041 N   0  0  0  0  0  0  0  0  0  0  0  0
  -30.6503  -18.0550   19.6722 N   0  0  0  0  0  0  0  0  0  0  0  0
  -26.1008  -12.2473   20.0034 N   0  0  0  0  0  0  0  0  0  0  0  0
  -29.4657  -17.4383   19.5428 N   0  0  0  0  0  0  0  0  0  0  0  0
  -26.6895  -27.7840   20.5456 N   0  0  0  0  0  0  0  0  0  0  0  0
  -29.5712  -13.8497   20.1375 N   0  0  0  0  0  0  0  0  0  0  0  0
  -25.0793  -12.1448   17.8688 N   0  0  0  0  0  0  0  0  0  0  0  0
  -21.7067  -11.1099   20.6885 N   0  0  0  0  0  0  0  0  0  0  0  0
  -29.6423  -27.4407   18.4339 N   0  0  0  0  0  0  0  0  0  0  0  0
  -24.8617  -29.4470   22.8591 N   0  0  0  0  0  0  0  0  0  0  0  0
  -21.2859  -29.4358   22.3287 N   0  3  0  0  0  0  0  0  0  0  0  0
  -22.2711  -11.3878   18.4833 O   0  0  0  0  0  0  0  0  0  0  0  0
  -29.0714  -26.8581   20.6150 O   0  0  0  0  0  0  0  0  0  0  0  0
  -31.2485  -15.3893   19.6722 O   0  0  0  0  0  0  0  0  0  0  0  0
  -27.0714  -30.0101   21.1245 O   0  0  0  0  0  0  0  0  0  0  0  0
  -23.3790  -27.6674   22.9680 O   0  0  0  0  0  0  0  0  0  0  0  0
  -22.0336  -10.8027   26.2414 O   0  0  0  0  0  0  0  0  0  0  0  0
  -24.7264  -22.0595   19.3505 O   0  0  0  0  0  0  0  0  0  1  0  0
  -24.6615   -7.6326   29.9086 F   0  0  0  0  0  0  0  0  0  0  0  0
  -24.5148  -11.5270   27.2220 F   0  0  0  0  0  0  0  0  0  0  0  0
  1  2  1  0  0  0  0
  1  5  2  0  0  0  0
  2  6  2  0  0  0  0
  3  8  2  0  0  0  0
  3 15  1  0  0  0  0
  4  9  1  0  0  0  0
  4 15  2  0  0  0  0
  5 17  1  0  0  0  0
  6 19  1  0  0  0  0
  7 10  2  0  0  0  0
  7 18  1  0  0  0  0
  8 21  1  0  0  0  0
  9 21  2  0  0  0  0
 10 22  1  0  0  0  0
 11 12  2  0  0  0  0
 11 23  1  0  0  0  0
 12 24  1  0  0  0  0
 13 20  1  0  0  0  0
 13 22  2  0  0  0  0
 14 24  2  0  0  0  0
 14 25  1  0  0  0  0
 15 26  1  0  0  0  0
 16 26  1  0  0  0  0
 16 27  2  0  0  0  0
 16 30  1  0  0  0  0
 17 19  2  0  0  0  0
 17 35  1  0  0  0  0
 18 20  2  0  0  0  0
 18 36  1  0  0  0  0
 19 44  1  0  0  0  0
 20 37  1  0  0  0  0
 21 85  1  0  0  0  0
 22 86  1  0  0  0  0
 23 25  2  0  0  0  0
 23 85  1  0  0  0  0
 24 87  1  0  0  0  0
 25 88  1  0  0  0  0
 26 68  2  0  0  0  0
 27 71  1  0  0  0  0
 27 75  1  0  0  0  0
 28 57  1  0  0  0  0
 28 69  1  0  0  0  0
 28 70  2  0  0  0  0
 29 58  1  0  0  0  0
 29 69  2  0  0  0  0
 29 72  1  0  0  0  0
 30 76  1  0  0  0  0
 30 80  2  0  0  0  0
 31 45  1  0  0  0  0
 31 77  1  0  0  0  0
 31 81  2  0  0  0  0
 32 62  1  0  0  0  0
 32 74  1  0  0  0  0
 32 82  2  0  0  0  0
 33 63  1  0  0  0  0
 33 73  1  0  0  0  0
 33 83  2  0  0  0  0
 34 64  1  0  0  0  0
 34 78  1  0  0  0  0
 34 84  2  0  0  0  0
 35 38  1  0  0  0  0
 36 45  1  0  0  0  0
 37 73  1  0  0  0  0
 38 40  1  0  0  0  0
 39 41  1  0  0  0  0
 39 42  1  0  0  0  0
 40 44  1  0  0  0  0
 41 46  1  0  0  0  0
 42 74  1  0  0  0  0
 43 46  1  0  0  0  0
 43 74  1  0  0  0  0
 44 77  1  0  0  0  0
 45 73  1  0  0  0  0
 46 71  1  0  0  0  0
 47 62  1  0  0  0  0
 48 64  1  0  0  0  0
 49 65  1  0  0  0  0
 50 66  1  0  0  0  0
 51 66  1  0  0  0  0
 52 66  1  0  0  0  0
 53 67  1  0  0  0  0
 54 67  1  0  0  0  0
 55 67  1  0  0  0  0
 56 79  1  0  0  0  0
 57 66  1  0  0  0  0
 58 65  1  0  0  0  0
 59 60  1  0  0  0  0
 59 61  1  0  0  0  0
 60 65  1  0  0  0  0
 61 86  1  0  0  0  0
 62 72  1  0  0  0  0
 63 67  1  0  0  0  0
 63 78  1  0  0  0  0
 64 79  1  0  0  0  0
 68 71  1  0  0  0  0
 70 72  1  0  0  0  0
M  CHG  1  79   1
M  ISO  4  32 100  61 101  62 100  86 101
M  END
> <Batch ID>
0061

> <Smiles>
CNC(C)C(=O)NC(C(=O)N1Cc2cc([101O:1][101CH2:1]CCC(C)Cc3nc(CC(C)(C)C)nn3[100CH:0](C)[100C:0](=O)N3CCCC(n4nc(-c5ccc(Oc6ccc(F)cc6F)cc5)c(C(N)=O)c4N)C3)ccc2CC1C(=O)NC1CCCc2ccccc21)C(C)(C)C

> <Shape>
0.219

> <Color>
0.092

> <Negative vol penalty>
0.000

$$$$

  -OEChem-04052317583D

 80 88  0     1  0  0  0  0  0999 V2000
  -26.7609  -32.9333   17.8395 C   0  0  0  0  0  0  0  0  0  0  0  0
  -27.3292  -31.7870   18.3857 C   0  0  0  0  0  0  0  0  0  0  0  0
  -23.0688   -9.8355   19.9496 C   0  0  0  0  0  0  0  0  0  0  0  0
  -23.8395   -9.8568   22.2393 C   0  0  0  0  0  0  0  0  0  0  0  0
  -25.9113  -32.8322   16.7387 C   0  0  0  0  0  0  0  0  0  0  0  0
  -27.0473  -30.5386   17.8320 C   0  0  0  0  0  0  0  0  0  0  0  0
  -30.8457  -25.7526   17.4172 C   0  0  0  0  0  0  0  0  0  0  0  0
  -22.3365   -8.6766   20.2068 C   0  0  0  0  0  0  0  0  0  0  0  0
  -23.1072   -8.6978   22.4966 C   0  0  0  0  0  0  0  0  0  0  0  0
  -30.9979  -24.6058   18.1952 C   0  0  0  0  0  0  0  0  0  0  0  0
  -19.8892   -7.8731   23.1171 C   0  0  0  0  0  0  0  0  0  0  0  0
  -19.1383   -7.8302   24.2917 C   0  0  0  0  0  0  0  0  0  0  0  0
  -29.5873  -23.3871   16.6641 C   0  0  0  0  0  0  0  0  0  0  0  0
  -20.4005   -5.9063   25.0284 C   0  0  0  0  0  0  0  0  0  0  0  0
  -29.1257  -19.6079   20.0028 C   0  0  0  0  0  0  0  0  0  0  0  0
  -23.8204  -10.4256   20.9659 C   0  0  0  0  0  0  0  0  0  0  0  0
  -24.1390  -12.9533   20.8361 C   0  0  0  0  0  0  0  0  0  0  0  0
  -25.6265  -31.5829   16.1652 C   0  0  0  0  0  0  0  0  0  0  0  0
  -30.0530  -25.7281   16.2608 C   0  0  0  0  0  0  0  0  0  0  0  0
  -26.1920  -30.4206   16.7233 C   0  0  0  0  0  0  0  0  0  0  0  0
  -29.4287  -24.5344   15.8718 C   0  0  0  0  0  0  0  0  0  0  0  0
  -30.0965  -20.0165   19.1113 C   0  0  0  0  0  0  0  0  0  0  0  0
  -22.3557   -8.1077   21.4803 C   0  0  0  0  0  0  0  0  0  0  0  0
  -30.3664  -23.4235   17.8203 C   0  0  0  0  0  0  0  0  0  0  0  0
  -20.8958   -6.9326   22.8980 C   0  0  0  0  0  0  0  0  0  0  0  0
  -19.3939   -6.8468   25.2474 C   0  0  0  0  0  0  0  0  0  0  0  0
  -21.1515   -5.9492   23.8537 C   0  0  0  0  0  0  0  0  0  0  0  0
  -24.5775  -11.6225   20.7006 C   0  0  0  0  0  0  0  0  0  0  0  0
  -31.2975  -19.3409   19.1853 C   0  0  0  0  0  0  0  0  0  0  0  0
  -25.2226  -13.7114   20.4652 C   0  0  0  0  0  0  0  0  0  0  0  0
  -30.5169  -18.0358   20.8748 C   0  0  0  0  0  0  0  0  0  0  0  0
  -22.8659  -13.4591   21.2595 C   0  0  0  0  0  0  0  0  0  0  0  0
  -27.4152  -27.2300   15.3173 C   0  0  0  0  0  0  0  0  0  0  0  0
  -28.0196  -25.7099   12.5161 C   0  0  0  0  0  0  0  0  0  0  0  0
  -29.5006  -23.0943   10.9000 C   0  0  0  0  0  0  0  0  0  0  0  0
  -30.6978  -14.7802   20.6241 C   0  0  0  0  0  0  0  0  0  0  0  0
  -24.6648  -31.5190   15.0052 C   0  0  0  0  0  0  0  0  0  0  0  0
  -29.9205  -26.9668   15.4178 C   0  0  0  0  0  0  0  0  0  0  0  0
  -28.5833  -24.4502   14.6281 C   0  0  0  0  0  0  0  0  0  0  0  0
  -24.7138  -30.1958   14.2456 C   0  0  0  0  0  0  0  0  0  0  0  0
  -29.5703  -12.3778   18.2504 C   0  0  0  0  0  0  0  0  0  0  0  0
  -24.7014  -29.0210   15.2184 C   0  0  0  0  0  0  0  0  0  0  0  0
  -28.1376  -12.0726   18.6912 C   0  0  0  0  0  0  0  0  0  0  0  0
  -30.4911  -12.6107   19.4462 C   0  0  0  0  0  0  0  0  0  0  0  0
  -28.5895  -13.3292   20.8395 C   0  0  0  0  0  0  0  0  0  0  0  0
  -25.9301  -29.0510   16.1354 C   0  0  1  0  0  0  0  0  0  0  0  0
  -28.6728  -26.9615   14.5400 C   0  0  1  0  0  0  0  0  0  0  0  0
  -27.6114  -13.1421   19.6671 C   0  0  2  0  0  0  0  0  0  0  0  0
  -32.4214  -19.6972   18.2691 C   0  0  0  0  0  0  0  0  0  0  0  0
  -29.7873  -22.0986    8.6144 C   0  0  0  0  0  0  0  0  0  0  0  0
  -25.1691  -24.6278   12.6326 C   0  0  0  0  0  0  0  0  0  0  0  0
  -25.8143  -22.9376   10.9019 C   0  0  0  0  0  0  0  0  0  0  0  0
  -25.9107  -25.3713   10.3629 C   0  0  0  0  0  0  0  0  0  0  0  0
  -32.4408  -23.4165   11.0015 C   0  0  0  0  0  0  0  0  0  0  0  0
  -29.8375  -21.1264   18.1353 C   0  0  0  0  0  0  0  0  0  1  0  0
  -30.7502  -16.9352   21.8537 C   0  0  0  0  0  0  0  0  0  0  0  0
  -27.6376  -24.3771   11.9189 C   0  0  1  0  0  0  0  0  0  0  0  0
  -30.3699  -23.0405    9.6566 C   0  0  2  0  0  0  0  0  0  0  0  0
  -26.1472  -24.3302   11.4786 C   0  0  0  0  0  0  0  0  0  0  0  0
  -29.3025  -18.6172   20.9015 N   0  0  0  0  0  0  0  0  0  0  0  0
  -25.8412  -11.5367   20.2766 N   0  0  0  0  0  0  0  0  0  0  0  0
  -31.5431  -18.3420   20.0583 N   0  0  0  0  0  0  0  0  0  0  0  0
  -26.2059  -12.8231   20.1424 N   0  0  0  0  0  0  0  0  0  0  0  0
  -28.4791  -25.6898   13.8406 N   0  0  0  0  0  0  0  0  0  0  0  0
  -29.9356  -13.6372   20.3315 N   0  0  0  0  0  0  0  0  0  0  0  0
  -25.4207  -15.0444   20.3869 N   0  0  0  0  0  0  0  0  0  0  0  0
  -21.8638  -12.5420   21.6045 N   0  0  0  0  0  0  0  0  0  0  0  0
  -27.0989  -28.5704   15.4302 N   0  0  0  0  0  0  0  0  0  0  0  0
  -28.5875  -24.1258   10.8405 N   0  0  0  0  0  0  0  0  0  0  0  0
  -30.0943  -15.7063   21.4660 N   0  0  0  0  0  0  0  0  0  0  0  0
  -31.7404  -22.5685   10.0028 N   0  3  0  0  0  0  0  0  0  0  0  0
  -22.6189  -14.6877   21.3140 O   0  0  0  0  0  0  0  0  0  0  0  0
  -26.7781  -26.2905   15.7790 O   0  0  0  0  0  0  0  0  0  0  0  0
  -27.9208  -26.7305   11.8303 O   0  0  0  0  0  0  0  0  0  0  0  0
  -29.6173  -22.2985   11.8293 O   0  0  0  0  0  0  0  0  0  0  0  0
  -31.8300  -14.9643   20.1645 O   0  0  0  0  0  0  0  0  0  0  0  0
  -21.6410   -6.9770   21.7317 O   0  0  0  0  0  0  0  0  0  0  0  0
  -30.5128  -22.3029   18.5783 O   0  0  0  0  0  0  0  0  0  1  0  0
  -18.6737   -6.8067   26.3760 F   0  0  0  0  0  0  0  0  0  0  0  0
  -22.1180   -5.0437   23.6494 F   0  0  0  0  0  0  0  0  0  0  0  0
  1  2  1  0  0  0  0
  1  5  2  0  0  0  0
  2  6  2  0  0  0  0
  3  8  2  0  0  0  0
  3 16  1  0  0  0  0
  4  9  1  0  0  0  0
  4 16  2  0  0  0  0
  5 18  1  0  0  0  0
  6 20  1  0  0  0  0
  7 10  2  0  0  0  0
  7 19  1  0  0  0  0
  8 23  1  0  0  0  0
  9 23  2  0  0  0  0
 10 24  1  0  0  0  0
 11 12  2  0  0  0  0
 11 25  1  0  0  0  0
 12 26  1  0  0  0  0
 13 21  1  0  0  0  0
 13 24  2  0  0  0  0
 14 26  2  0  0  0  0
 14 27  1  0  0  0  0
 15 22  1  0  0  0  0
 15 60  2  0  0  0  0
 16 28  1  0  0  0  0
 17 28  1  0  0  0  0
 17 30  2  0  0  0  0
 17 32  1  0  0  0  0
 18 20  2  0  0  0  0
 18 37  1  0  0  0  0
 19 21  2  0  0  0  0
 19 38  1  0  0  0  0
 20 46  1  0  0  0  0
 21 39  1  0  0  0  0
 22 29  2  0  0  0  0
 22 55  1  0  0  0  0
 23 77  1  0  0  0  0
 24 78  1  0  0  0  0
 25 27  2  0  0  0  0
 25 77  1  0  0  0  0
 26 79  1  0  0  0  0
 27 80  1  0  0  0  0
 28 61  2  0  0  0  0
 29 49  1  0  0  0  0
 29 62  1  0  0  0  0
 30 63  1  0  0  0  0
 30 66  1  0  0  0  0
 31 56  1  0  0  0  0
 31 60  1  0  0  0  0
 31 62  2  0  0  0  0
 32 67  1  0  0  0  0
 32 72  2  0  0  0  0
 33 47  1  0  0  0  0
 33 68  1  0  0  0  0
 33 73  2  0  0  0  0
 34 57  1  0  0  0  0
 34 64  1  0  0  0  0
 34 74  2  0  0  0  0
 35 58  1  0  0  0  0
 35 69  1  0  0  0  0
 35 75  2  0  0  0  0
 36 65  1  0  0  0  0
 36 70  1  0  0  0  0
 36 76  2  0  0  0  0
 37 40  1  0  0  0  0
 38 47  1  0  0  0  0
 39 64  1  0  0  0  0
 40 42  1  0  0  0  0
 41 43  1  0  0  0  0
 41 44  1  0  0  0  0
 42 46  1  0  0  0  0
 43 48  1  0  0  0  0
 44 65  1  0  0  0  0
 45 48  1  0  0  0  0
 45 65  1  0  0  0  0
 46 68  1  0  0  0  0
 47 64  1  0  0  0  0
 48 63  1  0  0  0  0
 50 58  1  0  0  0  0
 51 59  1  0  0  0  0
 52 59  1  0  0  0  0
 53 59  1  0  0  0  0
 54 71  1  0  0  0  0
 55 78  1  0  0  0  0
 56 70  1  0  0  0  0
 57 59  1  0  0  0  0
 57 69  1  0  0  0  0
 58 71  1  0  0  0  0
 61 63  1  0  0  0  0
M  CHG  1  71   1
M  ISO  4  36 100  55 101  70 100  78 101
M  END
> <Batch ID>
0061

> <Smiles>
CNC(C)C(=O)NC(C(=O)N1Cc2cc([101O:1][101CH2:1]c3cnc(C[100NH:0][100C:0](=O)N4CCCC(n5nc(-c6ccc(Oc7ccc(F)cc7F)cc6)c(C(N)=O)c5N)C4)nc3C)ccc2CC1C(=O)NC1CCCc2ccccc21)C(C)(C)C

> <Shape>
0.223

> <Color>
0.198

> <Negative vol penalty>
0.000

$$$$

  -OEChem-04052317583D

 81 89  0     1  0  0  0  0  0999 V2000
  -26.6157  -32.4983   26.6309 C   0  0  0  0  0  0  0  0  0  0  0  0
  -26.7331  -31.1665   27.0154 C   0  0  0  0  0  0  0  0  0  0  0  0
  -23.1794   -9.6737   20.0344 C   0  0  0  0  0  0  0  0  0  0  0  0
  -23.8848   -9.8745   22.3364 C   0  0  0  0  0  0  0  0  0  0  0  0
  -26.2224  -32.8155   25.3314 C   0  0  0  0  0  0  0  0  0  0  0  0
  -26.4561  -30.1510   26.1008 C   0  0  0  0  0  0  0  0  0  0  0  0
  -29.2319  -24.7073   25.6918 C   0  0  0  0  0  0  0  0  0  0  0  0
  -22.4973   -8.4977   20.3460 C   0  0  0  0  0  0  0  0  0  0  0  0
  -23.2026   -8.6985   22.6481 C   0  0  0  0  0  0  0  0  0  0  0  0
  -28.8842  -23.4398   26.1571 C   0  0  0  0  0  0  0  0  0  0  0  0
  -20.0124   -7.7537   23.2402 C   0  0  0  0  0  0  0  0  0  0  0  0
  -19.2323   -7.7457   24.3965 C   0  0  0  0  0  0  0  0  0  0  0  0
  -27.9370  -22.9150   24.0015 C   0  0  0  0  0  0  0  0  0  0  0  0
  -20.5653   -5.9365   25.2834 C   0  0  0  0  0  0  0  0  0  0  0  0
  -28.2638  -18.5195   24.3052 C   0  0  0  0  0  0  0  0  0  0  0  0
  -30.8547  -17.9351   24.0356 C   0  0  0  0  0  0  0  0  0  0  0  0
  -23.8733  -10.3621   21.0296 C   0  0  0  0  0  0  0  0  0  0  0  0
  -24.0727  -12.8898   20.7490 C   0  0  0  0  0  0  0  0  0  0  0  0
  -25.9498  -31.8034   24.3976 C   0  0  0  0  0  0  0  0  0  0  0  0
  -28.9244  -25.0927   24.3790 C   0  0  0  0  0  0  0  0  0  0  0  0
  -26.0575  -30.4549   24.7880 C   0  0  0  0  0  0  0  0  0  0  0  0
  -28.2841  -24.1870   23.5212 C   0  0  0  0  0  0  0  0  0  0  0  0
  -22.5088   -8.0100   21.6528 C   0  0  0  0  0  0  0  0  0  0  0  0
  -28.2341  -22.5445   25.3128 C   0  0  0  0  0  0  0  0  0  0  0  0
  -21.0690   -6.8529   23.1055 C   0  0  0  0  0  0  0  0  0  0  0  0
  -19.5087   -6.8372   25.4181 C   0  0  0  0  0  0  0  0  0  0  0  0
  -21.3454   -5.9444   24.1271 C   0  0  0  0  0  0  0  0  0  0  0  0
  -24.5786  -11.5767   20.7083 C   0  0  0  0  0  0  0  0  0  0  0  0
  -29.1430  -18.6873   25.3522 C   0  0  0  0  0  0  0  0  0  0  0  0
  -29.9755  -17.7666   22.9887 C   0  0  0  0  0  0  0  0  0  0  0  0
  -25.1282  -13.6768   20.3578 C   0  0  0  0  0  0  0  0  0  0  0  0
  -22.7654  -13.3564   21.1084 C   0  0  0  0  0  0  0  0  0  0  0  0
  -27.1231  -27.3615   23.0709 C   0  0  0  0  0  0  0  0  0  0  0  0
  -28.4275  -26.2624   20.3118 C   0  0  0  0  0  0  0  0  0  0  0  0
  -29.9073  -23.6871   18.6311 C   0  0  0  0  0  0  0  0  0  0  0  0
  -30.5388  -15.0257   20.5832 C   0  0  0  0  0  0  0  0  0  0  0  0
  -25.4822  -32.1950   23.0183 C   0  0  0  0  0  0  0  0  0  0  0  0
  -29.3301  -26.4539   23.8842 C   0  0  0  0  0  0  0  0  0  0  0  0
  -27.9497  -24.5447   22.0969 C   0  0  0  0  0  0  0  0  0  0  0  0
  -25.5696  -31.0606   22.0006 C   0  0  0  0  0  0  0  0  0  0  0  0
  -29.5947  -12.4283   18.3384 C   0  0  0  0  0  0  0  0  0  0  0  0
  -24.9955  -29.7738   22.5849 C   0  0  0  0  0  0  0  0  0  0  0  0
  -28.1669  -12.0796   18.7623 C   0  0  0  0  0  0  0  0  0  0  0  0
  -30.4699  -12.7802   19.5394 C   0  0  0  0  0  0  0  0  0  0  0  0
  -28.4980  -13.4872   20.8378 C   0  0  0  0  0  0  0  0  0  0  0  0
  -25.7897  -29.3251   23.8175 C   0  0  1  0  0  0  0  0  0  0  0  0
  -28.5085  -26.9240   22.6877 C   0  0  1  0  0  0  0  0  0  0  0  0
  -27.5628  -13.1795   19.6558 C   0  0  2  0  0  0  0  0  0  0  0  0
  -30.2173  -18.2412   20.5234 C   0  0  0  0  0  0  0  0  0  0  0  0
  -30.8263  -23.0754   16.3775 C   0  0  0  0  0  0  0  0  0  0  0  0
  -25.5875  -25.9409   19.2437 C   0  0  0  0  0  0  0  0  0  0  0  0
  -26.5089  -24.4788   17.4322 C   0  0  0  0  0  0  0  0  0  0  0  0
  -27.2247  -26.8630   17.5932 C   0  0  0  0  0  0  0  0  0  0  0  0
  -32.6152  -23.2246   19.7321 C   0  0  0  0  0  0  0  0  0  0  0  0
  -28.6589  -19.2090   26.6833 C   0  0  0  0  0  0  0  0  0  0  0  0
  -28.7262  -20.7299   26.7691 C   0  0  0  0  0  0  0  0  0  1  0  0
  -30.4530  -17.2524   21.6757 C   0  0  2  0  0  0  0  0  0  0  0  0
  -28.0600  -25.1999   19.3044 C   0  0  1  0  0  0  0  0  0  0  0  0
  -31.1457  -23.6358   17.7547 C   0  0  2  0  0  0  0  0  0  0  0  0
  -26.8497  -25.6143   18.4207 C   0  0  0  0  0  0  0  0  0  0  0  0
  -30.4543  -18.3984   25.2362 N   0  0  0  0  0  0  0  0  0  0  0  0
  -28.6642  -18.0558   23.1047 N   0  0  0  0  0  0  0  0  0  0  0  0
  -25.8562  -11.5282   20.3216 N   0  0  0  0  0  0  0  0  0  0  0  0
  -26.1618  -12.8206   20.1156 N   0  0  0  0  0  0  0  0  0  0  0  0
  -28.3612  -25.8897   21.6618 N   0  0  0  0  0  0  0  0  0  0  0  0
  -29.8411  -13.8302   20.3445 N   0  0  0  0  0  0  0  0  0  0  0  0
  -25.2636  -15.0107   20.2007 N   0  0  0  0  0  0  0  0  0  0  0  0
  -21.7997  -12.4134   21.4857 N   0  0  0  0  0  0  0  0  0  0  0  0
  -27.0302  -28.6959   23.4178 N   0  0  0  0  0  0  0  0  0  0  0  0
  -29.2769  -24.9109   18.5534 N   0  0  0  0  0  0  0  0  0  0  0  0
  -29.8683  -15.9707   21.3501 N   0  0  0  0  0  0  0  0  0  0  0  0
  -32.1888  -22.7757   18.3817 N   0  3  0  0  0  0  0  0  0  0  0  0
  -22.4579  -14.5722   21.0794 O   0  0  0  0  0  0  0  0  0  0  0  0
  -26.2059  -26.5490   23.0517 O   0  0  0  0  0  0  0  0  0  0  0  0
  -28.7680  -27.3798   19.9153 O   0  0  0  0  0  0  0  0  0  0  0  0
  -29.5342  -22.7353   19.3133 O   0  0  0  0  0  0  0  0  0  0  0  0
  -31.6730  -15.2376   20.1407 O   0  0  0  0  0  0  0  0  0  0  0  0
  -21.8430   -6.8626   21.9573 O   0  0  0  0  0  0  0  0  0  0  0  0
  -27.8931  -21.3070   25.7645 O   0  0  0  0  0  0  0  0  0  1  0  0
  -18.7605   -6.8307   26.5290 F   0  0  0  0  0  0  0  0  0  0  0  0
  -22.3599   -5.0775   24.0040 F   0  0  0  0  0  0  0  0  0  0  0  0
  1  2  1  0  0  0  0
  1  5  2  0  0  0  0
  2  6  2  0  0  0  0
  3  8  2  0  0  0  0
  3 17  1  0  0  0  0
  4  9  1  0  0  0  0
  4 17  2  0  0  0  0
  5 19  1  0  0  0  0
  6 21  1  0  0  0  0
  7 10  2  0  0  0  0
  7 20  1  0  0  0  0
  8 23  1  0  0  0  0
  9 23  2  0  0  0  0
 10 24  1  0  0  0  0
 11 12  2  0  0  0  0
 11 25  1  0  0  0  0
 12 26  1  0  0  0  0
 13 22  1  0  0  0  0
 13 24  2  0  0  0  0
 14 26  2  0  0  0  0
 14 27  1  0  0  0  0
 15 29  1  0  0  0  0
 15 62  2  0  0  0  0
 16 30  2  0  0  0  0
 16 61  1  0  0  0  0
 17 28  1  0  0  0  0
 18 28  1  0  0  0  0
 18 31  2  0  0  0  0
 18 32  1  0  0  0  0
 19 21  2  0  0  0  0
 19 37  1  0  0  0  0
 20 22  2  0  0  0  0
 20 38  1  0  0  0  0
 21 46  1  0  0  0  0
 22 39  1  0  0  0  0
 23 78  1  0  0  0  0
 24 79  1  0  0  0  0
 25 27  2  0  0  0  0
 25 78  1  0  0  0  0
 26 80  1  0  0  0  0
 27 81  1  0  0  0  0
 28 63  2  0  0  0  0
 29 55  1  0  0  0  0
 29 61  2  0  0  0  0
 30 57  1  0  0  0  0
 30 62  1  0  0  0  0
 31 64  1  0  0  0  0
 31 67  1  0  0  0  0
 32 68  1  0  0  0  0
 32 73  2  0  0  0  0
 33 47  1  0  0  0  0
 33 69  1  0  0  0  0
 33 74  2  0  0  0  0
 34 58  1  0  0  0  0
 34 65  1  0  0  0  0
 34 75  2  0  0  0  0
 35 59  1  0  0  0  0
 35 70  1  0  0  0  0
 35 76  2  0  0  0  0
 36 66  1  0  0  0  0
 36 71  1  0  0  0  0
 36 77  2  0  0  0  0
 37 40  1  0  0  0  0
 38 47  1  0  0  0  0
 39 65  1  0  0  0  0
 40 42  1  0  0  0  0
 41 43  1  0  0  0  0
 41 44  1  0  0  0  0
 42 46  1  0  0  0  0
 43 48  1  0  0  0  0
 44 66  1  0  0  0  0
 45 48  1  0  0  0  0
 45 66  1  0  0  0  0
 46 69  1  0  0  0  0
 47 65  1  0  0  0  0
 48 64  1  0  0  0  0
 49 57  1  0  0  0  0
 50 59  1  0  0  0  0
 51 60  1  0  0  0  0
 52 60  1  0  0  0  0
 53 60  1  0  0  0  0
 54 72  1  0  0  0  0
 55 56  1  0  0  0  0
 56 79  1  0  0  0  0
 57 71  1  0  0  0  0
 58 60  1  0  0  0  0
 58 70  1  0  0  0  0
 59 72  1  0  0  0  0
 63 64  1  0  0  0  0
M  CHG  1  72   1
M  ISO  4  36 100  56 101  71 100  79 101
M  END
> <Batch ID>
0061

> <Smiles>
CNC(C)C(=O)NC(C(=O)N1Cc2cc([101O:1][101CH2:1]Cc3cnc(C(C)[100NH:0][100C:0](=O)N4CCCC(n5nc(-c6ccc(Oc7ccc(F)cc7F)cc6)c(C(N)=O)c5N)C4)cn3)ccc2CC1C(=O)NC1CCCc2ccccc21)C(C)(C)C

> <Shape>
0.309

> <Color>
0.208

> <Negative vol penalty>
0.000

$$$$

  -OEChem-04052317583D

 83 91  0     1  0  0  0  0  0999 V2000
  -24.7585  -21.7707   15.8689 C   0  0  0  0  0  0  0  0  0  0  0  0
  -25.8152  -21.1388   16.5166 C   0  0  0  0  0  0  0  0  0  0  0  0
  -27.1458  -28.8995   20.8152 C   0  0  0  0  0  0  0  0  0  0  0  0
  -25.5189  -27.2946   20.0312 C   0  0  0  0  0  0  0  0  0  0  0  0
  -23.4760  -21.7157   16.4129 C   0  0  0  0  0  0  0  0  0  0  0  0
  -25.5901  -20.4525   17.7094 C   0  0  0  0  0  0  0  0  0  0  0  0
  -28.3967  -15.3507   19.6071 C   0  0  0  0  0  0  0  0  0  0  0  0
  -26.1937  -29.9138   20.7149 C   0  0  0  0  0  0  0  0  0  0  0  0
  -24.5667  -28.3090   19.9309 C   0  0  0  0  0  0  0  0  0  0  0  0
  -29.4570  -15.1351   20.4862 C   0  0  0  0  0  0  0  0  0  0  0  0
  -21.6037  -30.4126   19.8120 C   0  0  0  0  0  0  0  0  0  0  0  0
  -20.3247  -30.1533   20.3043 C   0  0  0  0  0  0  0  0  0  0  0  0
  -27.8862  -14.7165   22.2685 C   0  0  0  0  0  0  0  0  0  0  0  0
  -21.2490  -29.7684   22.5031 C   0  0  0  0  0  0  0  0  0  0  0  0
  -29.9616  -20.0429   21.3184 C   0  0  0  0  0  0  0  0  0  0  0  0
  -26.8085  -27.5899   20.4732 C   0  0  0  0  0  0  0  0  0  0  0  0
  -28.0540  -25.7289   21.6951 C   0  0  0  0  0  0  0  0  0  0  0  0
  -23.2332  -21.0202   17.6079 C   0  0  0  0  0  0  0  0  0  0  0  0
  -27.0709  -15.2614   20.0553 C   0  0  0  0  0  0  0  0  0  0  0  0
  -24.3034  -20.3892   18.2706 C   0  0  0  0  0  0  0  0  0  0  0  0
  -26.8108  -14.9289   21.3925 C   0  0  0  0  0  0  0  0  0  0  0  0
  -24.9041  -29.6186   20.2728 C   0  0  0  0  0  0  0  0  0  0  0  0
  -29.2019  -14.8208   21.8179 C   0  0  0  0  0  0  0  0  0  0  0  0
  -22.7055  -30.3496   20.6652 C   0  0  0  0  0  0  0  0  0  0  0  0
  -20.1473  -29.8313   21.6499 C   0  0  0  0  0  0  0  0  0  0  0  0
  -22.5281  -30.0276   22.0108 C   0  0  0  0  0  0  0  0  0  0  0  0
  -27.7918  -26.5417   20.5760 C   0  0  0  0  0  0  0  0  0  0  0  0
  -29.0689  -24.8986   21.2862 C   0  0  0  0  0  0  0  0  0  0  0  0
  -30.3485  -20.2498   19.2776 C   0  0  0  0  0  0  0  0  0  0  0  0
  -27.4355  -25.7247   22.9886 C   0  0  0  0  0  0  0  0  0  0  0  0
  -24.6272  -17.2849   20.2482 C   0  0  0  0  0  0  0  0  0  0  0  0
  -23.0049  -14.6286   21.1619 C   0  0  0  0  0  0  0  0  0  0  0  0
  -31.2789  -21.5394   17.3976 C   0  0  0  0  0  0  0  0  0  0  0  0
  -23.1012  -11.4975   22.5160 C   0  0  0  0  0  0  0  0  0  0  0  0
  -21.8387  -21.0284   18.1822 C   0  0  0  0  0  0  0  0  0  0  0  0
  -25.9381  -15.4706   19.0882 C   0  0  0  0  0  0  0  0  0  0  0  0
  -25.4054  -14.8010   21.9188 C   0  0  0  0  0  0  0  0  0  0  0  0
  -21.6149  -19.9641   19.2534 C   0  0  0  0  0  0  0  0  0  0  0  0
  -31.9973  -25.0428   17.1738 C   0  0  0  0  0  0  0  0  0  0  0  0
  -22.7712  -19.9565   20.2482 C   0  0  0  0  0  0  0  0  0  0  0  0
  -30.9693  -25.6804   18.1075 C   0  0  0  0  0  0  0  0  0  0  0  0
  -31.4228  -23.8230   16.4603 C   0  0  0  0  0  0  0  0  0  0  0  0
  -29.8363  -23.4226   18.3161 C   0  0  0  0  0  0  0  0  0  0  0  0
  -24.0946  -19.6139   19.5533 C   0  0  1  0  0  0  0  0  0  0  0  0
  -24.6317  -15.8594   19.7732 C   0  0  1  0  0  0  0  0  0  0  0  0
  -30.3858  -24.6402   19.0801 C   0  0  2  0  0  0  0  0  0  0  0  0
  -21.6107   -9.5879   23.1712 C   0  0  0  0  0  0  0  0  0  0  0  0
  -32.4827  -14.9042   23.4599 C   0  0  0  0  0  0  0  0  0  0  0  0
  -30.5074  -19.2435   16.9717 C   0  0  0  0  0  0  0  0  0  0  0  0
  -22.1145  -16.1758   23.6364 C   0  0  0  0  0  0  0  0  0  0  0  0
  -21.4584  -13.9957   24.6779 C   0  0  0  0  0  0  0  0  0  0  0  0
  -20.3328  -14.7672   22.5898 C   0  0  0  0  0  0  0  0  0  0  0  0
  -24.4397   -9.6530   20.6279 C   0  0  0  0  0  0  0  0  0  0  0  0
  -32.4731  -17.6316   22.1832 C   0  0  0  0  0  0  0  0  0  0  0  0
  -31.1934  -16.8281   22.4519 C   0  0  0  0  0  0  0  0  0  0  0  0
  -32.2486  -19.1475   22.2302 C   0  0  0  0  0  0  0  0  0  0  0  0
  -22.7224  -13.9490   22.4799 C   0  0  1  0  0  0  0  0  0  0  0  0
  -22.4736  -10.1884   22.0723 C   0  0  2  0  0  0  0  0  0  0  0  0
  -31.4480  -15.3169   22.4217 C   0  0  2  0  0  0  0  0  0  1  0  0
  -30.2747  -20.5059   17.8419 C   0  0  1  0  0  0  0  0  0  0  0  0
  -21.6836  -14.7262   23.3369 C   0  0  0  0  0  0  0  0  0  0  0  0
  -29.3779  -20.4240   20.1442 N   0  0  0  0  0  0  0  0  0  0  0  0
  -28.5768  -26.2540   19.5344 N   0  0  0  0  0  0  0  0  0  0  0  0
  -31.4554  -19.7859   19.9174 N   0  0  0  0  0  0  0  0  0  0  0  0
  -31.2324  -19.6439   21.2328 N   0  0  0  0  0  0  0  0  0  0  0  0
  -29.3424  -25.2511   19.9973 N   0  0  0  0  0  0  0  0  0  0  0  0
  -24.3318  -15.0210   20.9358 N   0  0  0  0  0  0  0  0  0  0  0  0
  -30.8585  -22.8694   17.4170 N   0  0  0  0  0  0  0  0  0  0  0  0
  -29.7451  -23.9087   21.9069 N   0  0  0  0  0  0  0  0  0  0  0  0
  -26.4082  -26.6440   23.2410 N   0  0  0  0  0  0  0  0  0  0  0  0
  -24.1813  -18.1908   19.3048 N   0  0  0  0  0  0  0  0  0  0  0  0
  -22.3282  -12.5817   22.1580 N   0  0  0  0  0  0  0  0  0  0  0  0
  -23.5316   -9.2021   21.7137 N   0  3  0  0  0  0  0  0  0  0  0  0
  -27.7948  -24.9402   23.8992 O   0  0  0  0  0  0  0  0  0  0  0  0
  -24.9992  -17.5436   21.3867 O   0  0  0  0  0  0  0  0  0  0  0  0
  -22.0836  -14.7985   20.3594 O   0  0  0  0  0  0  0  0  0  0  0  0
  -32.4040  -21.1739   17.0470 O   0  0  0  0  0  0  0  0  0  0  0  0
  -24.1685  -11.5525   23.1230 O   0  0  0  0  0  0  0  0  0  0  0  0
  -23.9746  -30.6081   20.1751 O   0  0  0  0  0  0  0  0  0  0  0  0
  -30.2350  -14.6104   22.6782 O   0  0  0  0  0  0  0  0  0  1  0  0
  -18.9188  -29.5838   22.1228 F   0  0  0  0  0  0  0  0  0  0  0  0
  -23.5826  -29.9668   22.8355 F   0  0  0  0  0  0  0  0  0  0  0  0
  -29.0361  -20.9762   17.4123 F   0  0  0  0  0  0  0  0  0  0  0  0
  1  2  1  0  0  0  0
  1  5  2  0  0  0  0
  2  6  2  0  0  0  0
  3  8  2  0  0  0  0
  3 16  1  0  0  0  0
  4  9  1  0  0  0  0
  4 16  2  0  0  0  0
  5 18  1  0  0  0  0
  6 20  1  0  0  0  0
  7 10  2  0  0  0  0
  7 19  1  0  0  0  0
  8 22  1  0  0  0  0
  9 22  2  0  0  0  0
 10 23  1  0  0  0  0
 11 12  2  0  0  0  0
 11 24  1  0  0  0  0
 12 25  1  0  0  0  0
 13 21  1  0  0  0  0
 13 23  2  0  0  0  0
 14 25  2  0  0  0  0
 14 26  1  0  0  0  0
 15 62  2  0  0  0  0
 15 65  1  0  0  0  0
 16 27  1  0  0  0  0
 17 27  1  0  0  0  0
 17 28  2  0  0  0  0
 17 30  1  0  0  0  0
 18 20  2  0  0  0  0
 18 35  1  0  0  0  0
 19 21  2  0  0  0  0
 19 36  1  0  0  0  0
 20 44  1  0  0  0  0
 21 37  1  0  0  0  0
 22 79  1  0  0  0  0
 23 80  1  0  0  0  0
 24 26  2  0  0  0  0
 24 79  1  0  0  0  0
 25 81  1  0  0  0  0
 26 82  1  0  0  0  0
 27 63  2  0  0  0  0
 28 66  1  0  0  0  0
 28 69  1  0  0  0  0
 29 60  1  0  0  0  0
 29 62  1  0  0  0  0
 29 64  2  0  0  0  0
 30 70  1  0  0  0  0
 30 74  2  0  0  0  0
 31 45  1  0  0  0  0
 31 71  1  0  0  0  0
 31 75  2  0  0  0  0
 32 57  1  0  0  0  0
 32 67  1  0  0  0  0
 32 76  2  0  0  0  0
 33 60  1  0  0  0  0
 33 68  1  0  0  0  0
 33 77  2  0  0  0  0
 34 58  1  0  0  0  0
 34 72  1  0  0  0  0
 34 78  2  0  0  0  0
 35 38  1  0  0  0  0
 36 45  1  0  0  0  0
 37 67  1  0  0  0  0
 38 40  1  0  0  0  0
 39 41  1  0  0  0  0
 39 42  1  0  0  0  0
 40 44  1  0  0  0  0
 41 46  1  0  0  0  0
 42 68  1  0  0  0  0
 43 46  1  0  0  0  0
 43 68  1  0  0  0  0
 44 71  1  0  0  0  0
 45 67  1  0  0  0  0
 46 66  1  0  0  0  0
 47 58  1  0  0  0  0
 48 59  1  0  0  0  0
 49 60  1  0  0  0  0
 50 61  1  0  0  0  0
 51 61  1  0  0  0  0
 52 61  1  0  0  0  0
 53 73  1  0  0  0  0
 54 55  1  0  0  0  0
 54 56  1  0  0  0  0
 55 59  1  0  0  0  0
 56 65  1  0  0  0  0
 57 61  1  0  0  0  0
 57 72  1  0  0  0  0
 58 73  1  0  0  0  0
 59 80  1  0  0  0  0
 60 83  1  0  0  0  0
 63 66  1  0  0  0  0
 64 65  1  0  0  0  0
M  CHG  1  73   1
M  ISO  4  33 100  59 101  60 100  80 101
M  END
> <Batch ID>
0061

> <Smiles>
CNC(C)C(=O)NC(C(=O)N1Cc2cc([101O:1][101CH:1](C)CCCn3cnc([100C:0](C)(F)[100C:0](=O)N4CCCC(n5nc(-c6ccc(Oc7ccc(F)cc7F)cc6)c(C(N)=O)c5N)C4)n3)ccc2CC1C(=O)NC1CCCc2ccccc21)C(C)(C)C

> <Shape>
0.219

> <Color>
0.080

> <Negative vol penalty>
0.000

$$$$

  -OEChem-04052317583D

 89 97  0     1  0  0  0  0  0999 V2000
  -31.1346  -33.9634   20.9785 C   0  0  0  0  0  0  0  0  0  0  0  0
  -31.2838  -32.6716   21.4729 C   0  0  0  0  0  0  0  0  0  0  0  0
  -22.8631  -15.4155   19.8888 C   0  0  0  0  0  0  0  0  0  0  0  0
  -22.5109  -13.3622   18.6653 C   0  0  0  0  0  0  0  0  0  0  0  0
  -29.9370  -34.6498   21.1752 C   0  0  0  0  0  0  0  0  0  0  0  0
  -30.2360  -32.0659   22.1653 C   0  0  0  0  0  0  0  0  0  0  0  0
  -27.3728  -25.8650   19.8754 C   0  0  0  0  0  0  0  0  0  0  0  0
  -21.7888  -15.9996   19.2178 C   0  0  0  0  0  0  0  0  0  0  0  0
  -21.4365  -13.9463   17.9943 C   0  0  0  0  0  0  0  0  0  0  0  0
  -26.9128  -24.5730   19.6201 C   0  0  0  0  0  0  0  0  0  0  0  0
  -19.3634  -18.1472   17.5659 C   0  0  0  0  0  0  0  0  0  0  0  0
  -19.5314  -19.4407   17.0716 C   0  0  0  0  0  0  0  0  0  0  0  0
  -25.3352  -24.7629   21.4430 C   0  0  0  0  0  0  0  0  0  0  0  0
  -21.3637  -18.6764   15.6947 C   0  0  0  0  0  0  0  0  0  0  0  0
  -29.7115  -15.9909   21.9444 C   0  0  0  0  0  0  0  0  0  0  0  0
  -23.2242  -14.0967   19.6125 C   0  0  0  0  0  0  0  0  0  0  0  0
  -24.2927  -12.7778   21.5168 C   0  0  0  0  0  0  0  0  0  0  0  0
  -28.8705  -34.0486   21.8620 C   0  0  0  0  0  0  0  0  0  0  0  0
  -26.8044  -26.6175   20.9070 C   0  0  0  0  0  0  0  0  0  0  0  0
  -29.0235  -32.7454   22.3726 C   0  0  0  0  0  0  0  0  0  0  0  0
  -25.7832  -26.0623   21.6954 C   0  0  0  0  0  0  0  0  0  0  0  0
  -21.0755  -15.2650   18.2706 C   0  0  0  0  0  0  0  0  0  0  0  0
  -25.8967  -24.0233   20.4021 C   0  0  0  0  0  0  0  0  0  0  0  0
  -20.1956  -17.1184   17.1247 C   0  0  0  0  0  0  0  0  0  0  0  0
  -20.5315  -19.7053   16.1359 C   0  0  0  0  0  0  0  0  0  0  0  0
  -21.1957  -17.3829   16.1890 C   0  0  0  0  0  0  0  0  0  0  0  0
  -24.3342  -13.4930   20.3049 C   0  0  0  0  0  0  0  0  0  0  0  0
  -30.3785  -15.9471   20.7445 C   0  0  0  0  0  0  0  0  0  0  0  0
  -29.5651  -17.3645   22.2157 C   0  0  0  0  0  0  0  0  0  0  0  0
  -25.5976  -12.4159   21.7467 C   0  0  0  0  0  0  0  0  0  0  0  0
  -23.1746  -12.4681   22.3592 C   0  0  0  0  0  0  0  0  0  0  0  0
  -30.8037  -14.7720   19.9729 C   0  0  0  0  0  0  0  0  0  0  0  0
  -26.7462  -29.8650   22.7849 C   0  0  0  0  0  0  0  0  0  0  0  0
  -23.8283  -28.9848   22.4362 C   0  0  0  0  0  0  0  0  0  0  0  0
  -20.7471  -27.8795   21.4758 C   0  0  0  0  0  0  0  0  0  0  0  0
  -27.6121  -34.8476   22.0911 C   0  0  0  0  0  0  0  0  0  0  0  0
  -27.3108  -27.9904   21.2572 C   0  0  0  0  0  0  0  0  0  0  0  0
  -25.2252  -26.8957   22.8166 C   0  0  0  0  0  0  0  0  0  0  0  0
  -26.4170  -33.9951   22.5097 C   0  0  0  0  0  0  0  0  0  0  0  0
  -29.6788  -11.4247   19.4514 C   0  0  0  0  0  0  0  0  0  0  0  0
  -26.8197  -33.0122   23.6045 C   0  0  0  0  0  0  0  0  0  0  0  0
  -28.1727  -11.5103   19.7054 C   0  0  0  0  0  0  0  0  0  0  0  0
  -30.2100  -12.6893   18.7813 C   0  0  0  0  0  0  0  0  0  0  0  0
  -28.3749  -14.0318   19.7482 C   0  0  0  0  0  0  0  0  0  0  0  0
  -27.9010  -32.0452   23.1073 C   0  0  1  0  0  0  0  0  0  0  0  0
  -26.1985  -28.9392   21.7388 C   0  0  1  0  0  0  0  0  0  0  0  0
  -27.8081  -12.7975   20.4687 C   0  0  1  0  0  0  0  0  0  0  0  0
  -25.0689  -17.8739   17.3945 C   0  0  0  0  0  0  0  0  0  0  0  0
  -18.3075  -28.4361   21.6653 C   0  0  0  0  0  0  0  0  0  0  0  0
  -27.7912  -20.6736   22.3014 C   0  0  0  0  0  0  0  0  0  0  0  0
  -23.8193  -27.9521   25.3063 C   0  0  0  0  0  0  0  0  0  0  0  0
  -21.3440  -27.6326   25.1085 C   0  0  0  0  0  0  0  0  0  0  0  0
  -22.3258  -29.9163   24.8993 C   0  0  0  0  0  0  0  0  0  0  0  0
  -26.6560  -16.9529   23.0626 C   0  0  0  0  0  0  0  0  0  0  0  0
  -26.8626  -18.8341   24.6757 C   0  0  0  0  0  0  0  0  0  0  0  0
  -31.2471  -17.7220   19.1926 C   0  0  0  0  0  0  0  0  0  0  0  0
  -20.4679  -28.1746   18.5443 C   0  0  0  0  0  0  0  0  0  0  0  0
  -28.8998  -18.0005   23.4161 C   0  0  0  0  0  0  0  0  0  0  0  0
  -25.2688  -19.0804   18.2974 C   0  0  0  0  0  0  0  0  0  0  0  0
  -25.0027  -18.7286   19.7523 C   0  0  0  0  0  0  0  0  0  0  0  0
  -24.0009  -20.8786   20.5103 C   0  0  0  0  0  0  0  0  0  0  0  0
  -25.5218  -19.6126   22.0219 C   0  0  0  0  0  0  0  0  0  0  0  0
  -24.4084  -22.2607   20.9815 C   0  0  0  0  0  0  0  0  0  1  0  0
  -22.6494  -28.2515   23.0243 C   0  0  1  0  0  0  0  0  0  0  0  0
  -19.5727  -28.5988   20.8372 C   0  0  2  0  0  0  0  0  0  0  0  0
  -27.0341  -19.3380   22.1571 C   0  0  2  0  0  0  0  0  0  0  0  0
  -22.5523  -28.4255   24.5663 C   0  0  0  0  0  0  0  0  0  0  0  0
  -27.3646  -18.3072   23.3103 C   0  0  0  0  0  0  0  0  0  0  0  0
  -25.5677  -13.5814   19.8004 N   0  0  0  0  0  0  0  0  0  0  0  0
  -30.0962  -18.1374   21.2647 N   0  0  0  0  0  0  0  0  0  0  0  0
  -30.5830  -17.2465   20.3840 N   0  0  0  0  0  0  0  0  0  0  0  0
  -26.3135  -12.9172   20.6996 N   0  0  0  0  0  0  0  0  0  0  0  0
  -29.8216  -13.8785   19.5387 N   0  0  0  0  0  0  0  0  0  0  0  0
  -25.0382  -28.2837   22.3657 N   0  0  0  0  0  0  0  0  0  0  0  0
  -26.1910  -11.7211   22.7405 N   0  0  0  0  0  0  0  0  0  0  0  0
  -21.9037  -12.9163   21.9743 N   0  0  0  0  0  0  0  0  0  0  0  0
  -27.3150  -31.0165   22.2749 N   0  0  0  0  0  0  0  0  0  0  0  0
  -21.4743  -28.7167   22.2954 N   0  0  0  0  0  0  0  0  0  0  0  0
  -19.3140  -28.0581   19.4728 N   0  3  0  0  0  0  0  0  0  0  0  0
  -25.1692  -19.9667   20.5984 N   0  3  1  0  0  0  0  0  0  0  0  0
  -23.3014  -11.8274   23.4302 O   0  0  0  0  0  0  0  0  0  0  0  0
  -32.0128  -14.6590   19.7768 O   0  0  0  0  0  0  0  0  0  0  0  0
  -26.6583  -29.5591   23.9682 O   0  0  0  0  0  0  0  0  0  0  0  0
  -23.6846  -30.1496   22.0543 O   0  0  0  0  0  0  0  0  0  0  0  0
  -20.9926  -26.6928   21.2713 O   0  0  0  0  0  0  0  0  0  0  0  0
  -20.0270  -15.8346   17.6158 O   0  0  0  0  0  0  0  0  0  0  0  0
  -25.4492  -22.7630   20.1445 O   0  0  0  0  0  0  0  0  0  1  0  0
  -20.6918  -20.9471   15.6602 F   0  0  0  0  0  0  0  0  0  0  0  0
  -21.9974  -16.3984   15.7605 F   0  0  0  0  0  0  0  0  0  0  0  0
  1  2  1  0  0  0  0
  1  5  2  0  0  0  0
  2  6  2  0  0  0  0
  3  8  2  0  0  0  0
  3 16  1  0  0  0  0
  4  9  1  0  0  0  0
  4 16  2  0  0  0  0
  5 18  1  0  0  0  0
  6 20  1  0  0  0  0
  7 10  2  0  0  0  0
  7 19  1  0  0  0  0
  8 22  1  0  0  0  0
  9 22  2  0  0  0  0
 10 23  1  0  0  0  0
 11 12  2  0  0  0  0
 11 24  1  0  0  0  0
 12 25  1  0  0  0  0
 13 21  1  0  0  0  0
 13 23  2  0  0  0  0
 14 25  2  0  0  0  0
 14 26  1  0  0  0  0
 15 28  2  0  0  0  0
 15 29  1  0  0  0  0
 16 27  1  0  0  0  0
 17 27  1  0  0  0  0
 17 30  2  0  0  0  0
 17 31  1  0  0  0  0
 18 20  2  0  0  0  0
 18 36  1  0  0  0  0
 19 21  2  0  0  0  0
 19 37  1  0  0  0  0
 20 45  1  0  0  0  0
 21 38  1  0  0  0  0
 22 86  1  0  0  0  0
 23 87  1  0  0  0  0
 24 26  2  0  0  0  0
 24 86  1  0  0  0  0
 25 88  1  0  0  0  0
 26 89  1  0  0  0  0
 27 69  2  0  0  0  0
 28 32  1  0  0  0  0
 28 71  1  0  0  0  0
 29 58  1  0  0  0  0
 29 70  2  0  0  0  0
 30 72  1  0  0  0  0
 30 75  1  0  0  0  0
 31 76  1  0  0  0  0
 31 81  2  0  0  0  0
 32 73  1  0  0  0  0
 32 82  2  0  0  0  0
 33 46  1  0  0  0  0
 33 77  1  0  0  0  0
 33 83  2  0  0  0  0
 34 64  1  0  0  0  0
 34 74  1  0  0  0  0
 34 84  2  0  0  0  0
 35 65  1  0  0  0  0
 35 78  1  0  0  0  0
 35 85  2  0  0  0  0
 36 39  1  0  0  0  0
 37 46  1  0  0  0  0
 38 74  1  0  0  0  0
 39 41  1  0  0  0  0
 40 42  1  0  0  0  0
 40 43  1  0  0  0  0
 41 45  1  0  0  0  0
 42 47  1  0  0  0  0
 43 73  1  0  0  0  0
 44 47  1  0  0  0  0
 44 73  1  0  0  0  0
 45 77  1  0  0  0  0
 46 74  1  0  0  0  0
 47 72  1  0  0  0  0
 48 59  1  0  0  0  0
 49 65  1  0  0  0  0
 50 66  1  0  0  0  0
 51 67  1  0  0  0  0
 52 67  1  0  0  0  0
 53 67  1  0  0  0  0
 54 68  1  0  0  0  0
 55 68  1  0  0  0  0
 56 71  1  0  0  0  0
 57 79  1  0  0  0  0
 58 68  1  0  0  0  0
 59 60  1  0  0  0  0
 60 80  1  0  0  0  0
 61 63  1  0  0  0  0
 61 80  1  0  0  0  0
 62 66  1  0  0  0  0
 62 80  1  0  0  0  0
 63 87  1  0  0  0  0
 64 67  1  0  0  0  0
 64 78  1  0  0  0  0
 65 79  1  0  0  0  0
 66 68  1  0  0  0  0
 69 72  1  0  0  0  0
 70 71  1  0  0  0  0
M  CHG  2  79   1  80   1
M  ISO  4  28 100  32 100  63 101  87 101
M  END
> <Batch ID>
0061

> <Smiles>
CCCN(CC(C)C(C)(C)Cc1c[100c:0]([100C:0](=O)N2CCCC(n3nc(-c4ccc(Oc5ccc(F)cc5F)cc4)c(C(N)=O)c3N)C2)n(C)n1)C[101CH2:1][101O:1]c1ccc2c(c1)CN(C(=O)C(NC(=O)C(C)NC)C(C)(C)C)C(C(=O)NC1CCCc3ccccc31)C2

> <Shape>
0.204

> <Color>
0.085

> <Negative vol penalty>
0.000

$$$$

  -OEChem-04052317583D

 81 89  0     1  0  0  0  0  0999 V2000
  -19.5177  -34.3279   22.9499 C   0  0  0  0  0  0  0  0  0  0  0  0
  -20.8704  -34.0163   22.8580 C   0  0  0  0  0  0  0  0  0  0  0  0
  -27.4168  -12.4772   21.6919 C   0  0  0  0  0  0  0  0  0  0  0  0
  -26.8494  -13.0553   19.4157 C   0  0  0  0  0  0  0  0  0  0  0  0
  -18.5939  -33.3321   23.2644 C   0  0  0  0  0  0  0  0  0  0  0  0
  -21.3003  -32.7088   23.0818 C   0  0  0  0  0  0  0  0  0  0  0  0
  -25.9318  -29.8285   20.2962 C   0  0  0  0  0  0  0  0  0  0  0  0
  -26.8164  -11.2293   21.5246 C   0  0  0  0  0  0  0  0  0  0  0  0
  -26.2490  -11.8074   19.2484 C   0  0  0  0  0  0  0  0  0  0  0  0
  -27.2536  -29.5949   20.6732 C   0  0  0  0  0  0  0  0  0  0  0  0
  -27.5931   -8.2619   20.1019 C   0  0  0  0  0  0  0  0  0  0  0  0
  -28.2812   -7.1433   20.5716 C   0  0  0  0  0  0  0  0  0  0  0  0
  -26.6284  -27.4133   21.4912 C   0  0  0  0  0  0  0  0  0  0  0  0
  -26.4413   -6.6331   22.0520 C   0  0  0  0  0  0  0  0  0  0  0  0
  -30.6350  -25.4293   21.0212 C   0  0  0  0  0  0  0  0  0  0  0  0
  -27.4333  -13.3902   20.6374 C   0  0  0  0  0  0  0  0  0  0  0  0
  -29.3966  -15.0172   20.5603 C   0  0  0  0  0  0  0  0  0  0  0  0
  -19.0116  -32.0098   23.4827 C   0  0  0  0  0  0  0  0  0  0  0  0
  -24.9447  -28.8590   20.5242 C   0  0  0  0  0  0  0  0  0  0  0  0
  -20.3814  -31.6946   23.4009 C   0  0  0  0  0  0  0  0  0  0  0  0
  -25.2953  -27.6361   21.1139 C   0  0  0  0  0  0  0  0  0  0  0  0
  -26.2325  -10.8944   20.3029 C   0  0  0  0  0  0  0  0  0  0  0  0
  -27.6015  -28.3884   21.2735 C   0  0  0  0  0  0  0  0  0  0  0  0
  -26.3290   -8.5662   20.6073 C   0  0  0  0  0  0  0  0  0  0  0  0
  -27.7053   -6.3288   21.5466 C   0  0  0  0  0  0  0  0  0  0  0  0
  -25.7532   -7.7518   21.5823 C   0  0  0  0  0  0  0  0  0  0  0  0
  -28.0529  -14.6796   20.8097 C   0  0  0  0  0  0  0  0  0  0  0  0
  -31.0117  -26.5800   20.3754 C   0  0  0  0  0  0  0  0  0  0  0  0
  -29.4800  -16.3510   20.8773 C   0  0  0  0  0  0  0  0  0  0  0  0
  -30.4731  -14.1984   20.0845 C   0  0  0  0  0  0  0  0  0  0  0  0
  -22.2718  -28.7395   22.2403 C   0  0  0  0  0  0  0  0  0  0  0  0
  -21.9215  -25.8665   20.7757 C   0  0  0  0  0  0  0  0  0  0  0  0
  -23.3908  -23.2180   19.2030 C   0  0  0  0  0  0  0  0  0  0  0  0
  -27.4283  -21.5373   20.6823 C   0  0  0  0  0  0  0  0  0  0  0  0
  -17.9815  -30.9771   23.8665 C   0  0  0  0  0  0  0  0  0  0  0  0
  -23.5284  -29.1157   20.0874 C   0  0  0  0  0  0  0  0  0  0  0  0
  -24.2769  -26.5545   21.3621 C   0  0  0  0  0  0  0  0  0  0  0  0
  -18.4758  -29.5402   23.7206 C   0  0  0  0  0  0  0  0  0  0  0  0
  -26.1922  -19.3863   23.2360 C   0  0  0  0  0  0  0  0  0  0  0  0
  -19.8656  -29.3892   24.3309 C   0  0  0  0  0  0  0  0  0  0  0  0
  -26.6714  -17.9979   22.8085 C   0  0  0  0  0  0  0  0  0  0  0  0
  -25.8042  -20.2443   22.0338 C   0  0  0  0  0  0  0  0  0  0  0  0
  -27.3240  -18.9736   20.5678 C   0  0  0  0  0  0  0  0  0  0  0  0
  -20.8838  -30.2829   23.6123 C   0  0  1  0  0  0  0  0  0  0  0  0
  -22.5085  -28.2626   20.8353 C   0  0  1  0  0  0  0  0  0  0  0  0
  -27.7795  -18.0909   21.7424 C   0  0  2  0  0  0  0  0  0  0  0  0
  -22.8508  -21.0039   18.1524 C   0  0  0  0  0  0  0  0  0  0  0  0
  -31.5398  -22.2253   19.8074 C   0  0  0  0  0  0  0  0  0  0  0  0
  -21.5924  -24.6343   23.5476 C   0  0  0  0  0  0  0  0  0  0  0  0
  -22.0100  -22.3886   22.5225 C   0  0  0  0  0  0  0  0  0  0  0  0
  -20.0320  -23.7331   21.8133 C   0  0  0  0  0  0  0  0  0  0  0  0
  -24.4154  -24.0882   16.5663 C   0  0  0  0  0  0  0  0  0  0  0  0
  -31.1925  -27.9693   20.9370 C   0  0  0  0  0  0  0  0  0  0  0  0
  -29.1193  -22.6906   19.2788 C   0  0  0  0  0  0  0  0  0  0  0  0
  -29.9106  -28.7924   20.8723 C   0  0  0  0  0  0  0  0  0  1  0  0
  -22.3442  -24.4505   21.0844 C   0  0  1  0  0  0  0  0  0  0  0  0
  -23.0452  -22.4934   17.9146 C   0  0  2  0  0  0  0  0  0  0  0  0
  -30.3225  -23.0920   20.1469 C   0  0  2  0  0  0  0  0  0  0  0  0
  -21.5137  -23.8225   22.2392 C   0  0  0  0  0  0  0  0  0  0  0  0
  -27.3344  -15.7153   21.2513 N   0  0  0  0  0  0  0  0  0  0  0  0
  -31.2294  -26.3140   19.0520 N   0  0  0  0  0  0  0  0  0  0  0  0
  -30.9968  -25.0214   18.8519 N   0  0  0  0  0  0  0  0  0  0  0  0
  -30.6403  -24.4928   20.0338 N   0  0  0  0  0  0  0  0  0  0  0  0
  -28.2300  -16.7169   21.2819 N   0  0  0  0  0  0  0  0  0  0  0  0
  -22.9043  -26.8555   20.9230 N   0  0  0  0  0  0  0  0  0  0  0  0
  -26.8986  -20.2928   21.0613 N   0  0  0  0  0  0  0  0  0  0  0  0
  -30.5000  -17.2348   20.8468 N   0  0  0  0  0  0  0  0  0  0  0  0
  -30.2141  -12.8492   19.8071 N   0  0  0  0  0  0  0  0  0  0  0  0
  -21.2752  -29.6903   22.3514 N   0  0  0  0  0  0  0  0  0  0  0  0
  -22.2664  -23.7176   19.8254 N   0  0  0  0  0  0  0  0  0  0  0  0
  -28.4674  -21.4933   19.7608 N   0  0  0  0  0  0  0  0  0  0  0  0
  -24.1336  -22.6712   16.9123 N   0  3  0  0  0  0  0  0  0  0  0  0
  -31.6342  -14.6458   19.9260 O   0  0  0  0  0  0  0  0  0  0  0  0
  -22.9426  -28.2780   23.1562 O   0  0  0  0  0  0  0  0  0  0  0  0
  -20.7640  -26.0860   20.4102 O   0  0  0  0  0  0  0  0  0  0  0  0
  -24.5426  -23.3266   19.6178 O   0  0  0  0  0  0  0  0  0  0  0  0
  -27.0100  -22.6080   21.1357 O   0  0  0  0  0  0  0  0  0  0  0  0
  -25.6468   -9.6768   20.1393 O   0  0  0  0  0  0  0  0  0  0  0  0
  -28.8908  -28.1580   21.6430 O   0  0  0  0  0  0  0  0  0  1  0  0
  -28.3656   -5.2538   21.9965 F   0  0  0  0  0  0  0  0  0  0  0  0
  -24.5386   -8.0384   22.0707 F   0  0  0  0  0  0  0  0  0  0  0  0
  1  2  1  0  0  0  0
  1  5  2  0  0  0  0
  2  6  2  0  0  0  0
  3  8  2  0  0  0  0
  3 16  1  0  0  0  0
  4  9  1  0  0  0  0
  4 16  2  0  0  0  0
  5 18  1  0  0  0  0
  6 20  1  0  0  0  0
  7 10  2  0  0  0  0
  7 19  1  0  0  0  0
  8 22  1  0  0  0  0
  9 22  2  0  0  0  0
 10 23  1  0  0  0  0
 11 12  2  0  0  0  0
 11 24  1  0  0  0  0
 12 25  1  0  0  0  0
 13 21  1  0  0  0  0
 13 23  2  0  0  0  0
 14 25  2  0  0  0  0
 14 26  1  0  0  0  0
 15 28  2  0  0  0  0
 15 63  1  0  0  0  0
 16 27  1  0  0  0  0
 17 27  1  0  0  0  0
 17 29  2  0  0  0  0
 17 30  1  0  0  0  0
 18 20  2  0  0  0  0
 18 35  1  0  0  0  0
 19 21  2  0  0  0  0
 19 36  1  0  0  0  0
 20 44  1  0  0  0  0
 21 37  1  0  0  0  0
 22 78  1  0  0  0  0
 23 79  1  0  0  0  0
 24 26  2  0  0  0  0
 24 78  1  0  0  0  0
 25 80  1  0  0  0  0
 26 81  1  0  0  0  0
 27 60  2  0  0  0  0
 28 53  1  0  0  0  0
 28 61  1  0  0  0  0
 29 64  1  0  0  0  0
 29 67  1  0  0  0  0
 30 68  1  0  0  0  0
 30 73  2  0  0  0  0
 31 45  1  0  0  0  0
 31 69  1  0  0  0  0
 31 74  2  0  0  0  0
 32 56  1  0  0  0  0
 32 65  1  0  0  0  0
 32 75  2  0  0  0  0
 33 57  1  0  0  0  0
 33 70  1  0  0  0  0
 33 76  2  0  0  0  0
 34 66  1  0  0  0  0
 34 71  1  0  0  0  0
 34 77  2  0  0  0  0
 35 38  1  0  0  0  0
 36 45  1  0  0  0  0
 37 65  1  0  0  0  0
 38 40  1  0  0  0  0
 39 41  1  0  0  0  0
 39 42  1  0  0  0  0
 40 44  1  0  0  0  0
 41 46  1  0  0  0  0
 42 66  1  0  0  0  0
 43 46  1  0  0  0  0
 43 66  1  0  0  0  0
 44 69  1  0  0  0  0
 45 65  1  0  0  0  0
 46 64  1  0  0  0  0
 47 57  1  0  0  0  0
 48 58  1  0  0  0  0
 49 59  1  0  0  0  0
 50 59  1  0  0  0  0
 51 59  1  0  0  0  0
 52 72  1  0  0  0  0
 53 55  1  0  0  0  0
 54 58  1  0  0  0  0
 54 71  1  0  0  0  0
 55 79  1  0  0  0  0
 56 59  1  0  0  0  0
 56 70  1  0  0  0  0
 57 72  1  0  0  0  0
 58 63  1  0  0  0  0
 60 64  1  0  0  0  0
 61 62  2  0  0  0  0
 62 63  1  0  0  0  0
M  CHG  1  72   1
M  ISO  4  34 100  55 101  71 100  79 101
M  END
> <Batch ID>
0061

> <Smiles>
CNC(C)C(=O)NC(C(=O)N1Cc2cc([101O:1][101CH2:1]Cc3cn(C(C)C[100NH:0][100C:0](=O)N4CCCC(n5nc(-c6ccc(Oc7ccc(F)cc7F)cc6)c(C(N)=O)c5N)C4)nn3)ccc2CC1C(=O)NC1CCCc2ccccc21)C(C)(C)C

> <Shape>
0.225

> <Color>
0.081

> <Negative vol penalty>
0.000

$$$$

  -OEChem-04052317583D

 83 91  0     1  0  0  0  0  0999 V2000
  -27.3513  -37.7210   23.3083 C   0  0  0  0  0  0  0  0  0  0  0  0
  -27.9715  -36.7515   22.5267 C   0  0  0  0  0  0  0  0  0  0  0  0
  -24.2327  -12.5500   20.9545 C   0  0  0  0  0  0  0  0  0  0  0  0
  -26.6189  -12.8137   20.6833 C   0  0  0  0  0  0  0  0  0  0  0  0
  -26.4850  -37.3400   24.3321 C   0  0  0  0  0  0  0  0  0  0  0  0
  -27.7266  -35.4004   22.7692 C   0  0  0  0  0  0  0  0  0  0  0  0
  -27.1878  -29.1242   19.3580 C   0  0  0  0  0  0  0  0  0  0  0  0
  -24.3326  -11.2213   20.5420 C   0  0  0  0  0  0  0  0  0  0  0  0
  -26.7188  -11.4849   20.2708 C   0  0  0  0  0  0  0  0  0  0  0  0
  -27.6911  -27.8250   19.4071 C   0  0  0  0  0  0  0  0  0  0  0  0
  -25.2658   -8.2605   21.8822 C   0  0  0  0  0  0  0  0  0  0  0  0
  -24.5730   -7.2994   22.6184 C   0  0  0  0  0  0  0  0  0  0  0  0
  -26.1142  -27.2865   21.1514 C   0  0  0  0  0  0  0  0  0  0  0  0
  -23.3174   -6.6933   20.6452 C   0  0  0  0  0  0  0  0  0  0  0  0
  -30.1106  -22.1380   20.8242 C   0  0  0  0  0  0  0  0  0  0  0  0
  -25.3758  -13.3462   21.0250 C   0  0  0  0  0  0  0  0  0  0  0  0
  -25.3686  -15.2107   22.7661 C   0  0  0  0  0  0  0  0  0  0  0  0
  -26.2217  -35.9837   24.5810 C   0  0  0  0  0  0  0  0  0  0  0  0
  -26.1495  -29.5181   20.2142 C   0  0  0  0  0  0  0  0  0  0  0  0
  -26.8569  -35.0008   23.7981 C   0  0  0  0  0  0  0  0  0  0  0  0
  -25.5977  -28.5906   21.1094 C   0  0  0  0  0  0  0  0  0  0  0  0
  -29.8169  -23.4843   20.7499 C   0  0  0  0  0  0  0  0  0  0  0  0
  -25.5757  -10.6887   20.2002 C   0  0  0  0  0  0  0  0  0  0  0  0
  -27.1562  -26.9067   20.3059 C   0  0  0  0  0  0  0  0  0  0  0  0
  -24.9844   -8.4381   20.5276 C   0  0  0  0  0  0  0  0  0  0  0  0
  -23.5988   -6.5158   21.9999 C   0  0  0  0  0  0  0  0  0  0  0  0
  -24.0102   -7.6544   19.9091 C   0  0  0  0  0  0  0  0  0  0  0  0
  -25.2732  -14.7190   21.4505 C   0  0  0  0  0  0  0  0  0  0  0  0
  -29.0869  -23.8761   19.6463 C   0  0  0  0  0  0  0  0  0  0  0  0
  -25.2048  -16.5683   22.6380 C   0  0  0  0  0  0  0  0  0  0  0  0
  -29.0197  -21.7407   18.8699 C   0  0  0  0  0  0  0  0  0  0  0  0
  -25.5859  -14.5034   23.9942 C   0  0  0  0  0  0  0  0  0  0  0  0
  -25.8428  -31.6862   22.5184 C   0  0  0  0  0  0  0  0  0  0  0  0
  -22.7388  -30.7462   22.4542 C   0  0  0  0  0  0  0  0  0  0  0  0
  -20.4614  -28.3206   21.6947 C   0  0  0  0  0  0  0  0  0  0  0  0
  -26.1429  -20.3798   18.1166 C   0  0  0  0  0  0  0  0  0  0  0  0
  -25.3145  -35.6192   25.7293 C   0  0  0  0  0  0  0  0  0  0  0  0
  -25.5996  -30.9157   20.1303 C   0  0  0  0  0  0  0  0  0  0  0  0
  -24.4685  -28.9577   22.0359 C   0  0  0  0  0  0  0  0  0  0  0  0
  -24.8177  -34.1766   25.6789 C   0  0  0  0  0  0  0  0  0  0  0  0
  -23.0870  -19.8391   19.8617 C   0  0  0  0  0  0  0  0  0  0  0  0
  -25.9720  -33.2246   25.3817 C   0  0  0  0  0  0  0  0  0  0  0  0
  -23.3093  -18.5099   20.5855 C   0  0  0  0  0  0  0  0  0  0  0  0
  -23.7513  -19.8510   18.4867 C   0  0  0  0  0  0  0  0  0  0  0  0
  -25.4076  -18.1765   19.2125 C   0  0  0  0  0  0  0  0  0  0  0  0
  -26.5973  -33.5257   24.0143 C   0  0  1  0  0  0  0  0  0  0  0  0
  -24.8882  -31.3555   21.4062 C   0  0  1  0  0  0  0  0  0  0  0  0
  -24.8035  -18.1370   20.6267 C   0  0  2  0  0  0  0  0  0  0  0  0
  -18.0026  -27.8279   21.7898 C   0  0  0  0  0  0  0  0  0  0  0  0
  -30.3787  -23.7587   23.1874 C   0  0  0  0  0  0  0  0  0  0  0  0
  -31.6147  -25.0986   21.4530 C   0  0  0  0  0  0  0  0  0  0  0  0
  -22.9563  -30.2529   25.4574 C   0  0  0  0  0  0  0  0  0  0  0  0
  -20.8532  -28.9017   25.3172 C   0  0  0  0  0  0  0  0  0  0  0  0
  -20.8179  -31.3255   24.7285 C   0  0  0  0  0  0  0  0  0  0  0  0
  -20.2895  -28.0221   18.7553 C   0  0  0  0  0  0  0  0  0  0  0  0
  -28.7085  -25.3160   19.4597 C   0  0  0  0  0  0  0  0  0  1  0  0
  -28.5762  -20.7723   17.8261 C   0  0  0  0  0  0  0  0  0  0  0  0
  -21.9285  -29.6847   23.1581 C   0  0  1  0  0  0  0  0  0  0  0  0
  -19.1423  -28.3765   20.9455 C   0  0  2  0  0  0  0  0  0  0  0  0
  -30.2693  -24.4292   21.8024 C   0  0  0  0  0  0  0  0  0  0  0  0
  -21.6616  -30.0345   24.6493 C   0  0  0  0  0  0  0  0  0  0  0  0
  -29.7263  -21.2347   19.8986 N   0  0  0  0  0  0  0  0  0  0  0  0
  -25.0648  -15.6857   20.5526 N   0  0  0  0  0  0  0  0  0  0  0  0
  -28.6704  -23.0279   18.6833 N   0  0  0  0  0  0  0  0  0  0  0  0
  -25.0278  -16.7984   21.3054 N   0  0  0  0  0  0  0  0  0  0  0  0
  -23.9694  -30.3379   21.9205 N   0  0  0  0  0  0  0  0  0  0  0  0
  -25.1670  -19.4905   18.5959 N   0  0  0  0  0  0  0  0  0  0  0  0
  -25.1963  -17.5759   23.5365 N   0  0  0  0  0  0  0  0  0  0  0  0
  -25.7335  -13.1105   23.9459 N   0  0  0  0  0  0  0  0  0  0  0  0
  -25.7691  -32.9961   22.9522 N   0  0  0  0  0  0  0  0  0  0  0  0
  -20.7199  -29.4991   22.3623 N   0  0  0  0  0  0  0  0  0  0  0  0
  -27.4604  -19.9639   18.2646 N   0  0  0  0  0  0  0  0  0  0  0  0
  -19.2250  -27.5766   19.6908 N   0  3  0  0  0  0  0  0  0  0  0  0
  -25.6309  -15.0874   25.1035 O   0  0  0  0  0  0  0  0  0  0  0  0
  -26.5897  -30.8169   22.9520 O   0  0  0  0  0  0  0  0  0  0  0  0
  -22.2931  -31.8936   22.3743 O   0  0  0  0  0  0  0  0  0  0  0  0
  -21.1879  -27.3293   21.6914 O   0  0  0  0  0  0  0  0  0  0  0  0
  -25.8612  -21.4666   17.6002 O   0  0  0  0  0  0  0  0  0  0  0  0
  -25.6736   -9.3921   19.7980 O   0  0  0  0  0  0  0  0  0  0  0  0
  -27.6461  -25.6381   20.3563 O   0  0  0  0  0  0  0  0  0  1  0  0
  -22.9347   -5.5918   22.7065 F   0  0  0  0  0  0  0  0  0  0  0  0
  -23.7363   -7.8196   18.6077 F   0  0  0  0  0  0  0  0  0  0  0  0
  -29.3942  -25.4872   21.9960 F   0  0  0  0  0  0  0  0  0  0  0  0
  1  2  1  0  0  0  0
  1  5  2  0  0  0  0
  2  6  2  0  0  0  0
  3  8  2  0  0  0  0
  3 16  1  0  0  0  0
  4  9  1  0  0  0  0
  4 16  2  0  0  0  0
  5 18  1  0  0  0  0
  6 20  1  0  0  0  0
  7 10  2  0  0  0  0
  7 19  1  0  0  0  0
  8 23  1  0  0  0  0
  9 23  2  0  0  0  0
 10 24  1  0  0  0  0
 11 12  2  0  0  0  0
 11 25  1  0  0  0  0
 12 26  1  0  0  0  0
 13 21  1  0  0  0  0
 13 24  2  0  0  0  0
 14 26  2  0  0  0  0
 14 27  1  0  0  0  0
 15 22  1  0  0  0  0
 15 62  2  0  0  0  0
 16 28  1  0  0  0  0
 17 28  1  0  0  0  0
 17 30  2  0  0  0  0
 17 32  1  0  0  0  0
 18 20  2  0  0  0  0
 18 37  1  0  0  0  0
 19 21  2  0  0  0  0
 19 38  1  0  0  0  0
 20 46  1  0  0  0  0
 21 39  1  0  0  0  0
 22 29  2  0  0  0  0
 22 60  1  0  0  0  0
 23 79  1  0  0  0  0
 24 80  1  0  0  0  0
 25 27  2  0  0  0  0
 25 79  1  0  0  0  0
 26 81  1  0  0  0  0
 27 82  1  0  0  0  0
 28 63  2  0  0  0  0
 29 56  1  0  0  0  0
 29 64  1  0  0  0  0
 30 65  1  0  0  0  0
 30 68  1  0  0  0  0
 31 57  1  0  0  0  0
 31 62  1  0  0  0  0
 31 64  2  0  0  0  0
 32 69  1  0  0  0  0
 32 74  2  0  0  0  0
 33 47  1  0  0  0  0
 33 70  1  0  0  0  0
 33 75  2  0  0  0  0
 34 58  1  0  0  0  0
 34 66  1  0  0  0  0
 34 76  2  0  0  0  0
 35 59  1  0  0  0  0
 35 71  1  0  0  0  0
 35 77  2  0  0  0  0
 36 67  1  0  0  0  0
 36 72  1  0  0  0  0
 36 78  2  0  0  0  0
 37 40  1  0  0  0  0
 38 47  1  0  0  0  0
 39 66  1  0  0  0  0
 40 42  1  0  0  0  0
 41 43  1  0  0  0  0
 41 44  1  0  0  0  0
 42 46  1  0  0  0  0
 43 48  1  0  0  0  0
 44 67  1  0  0  0  0
 45 48  1  0  0  0  0
 45 67  1  0  0  0  0
 46 70  1  0  0  0  0
 47 66  1  0  0  0  0
 48 65  1  0  0  0  0
 49 59  1  0  0  0  0
 50 60  1  0  0  0  0
 51 60  1  0  0  0  0
 52 61  1  0  0  0  0
 53 61  1  0  0  0  0
 54 61  1  0  0  0  0
 55 73  1  0  0  0  0
 56 80  1  0  0  0  0
 57 72  1  0  0  0  0
 58 61  1  0  0  0  0
 58 71  1  0  0  0  0
 59 73  1  0  0  0  0
 60 83  1  0  0  0  0
 63 65  1  0  0  0  0
M  CHG  1  73   1
M  ISO  4  36 100  56 101  72 100  80 101
M  END
> <Batch ID>
0061

> <Smiles>
CNC(C)C(=O)NC(C(=O)N1Cc2cc([101O:1][101CH2:1]c3nc(C[100NH:0][100C:0](=O)N4CCCC(n5nc(-c6ccc(Oc7ccc(F)cc7F)cc6)c(C(N)=O)c5N)C4)ncc3C(C)(C)F)ccc2CC1C(=O)NC1CCCc2ccccc21)C(C)(C)C

> <Shape>
0.264

> <Color>
0.097

> <Negative vol penalty>
0.000

$$$$

  -OEChem-04052317583D

 86 94  0     1  0  0  0  0  0999 V2000
  -24.5319  -16.7115   23.0655 C   0  0  0  0  0  0  0  0  0  0  0  0
  -25.4051  -17.7922   22.9931 C   0  0  0  0  0  0  0  0  0  0  0  0
  -26.3861  -12.9745   21.4126 C   0  0  0  0  0  0  0  0  0  0  0  0
  -26.1560  -13.4854   19.0625 C   0  0  0  0  0  0  0  0  0  0  0  0
  -23.2567  -16.8089   22.5103 C   0  0  0  0  0  0  0  0  0  0  0  0
  -25.0038  -18.9704   22.3645 C   0  0  0  0  0  0  0  0  0  0  0  0
  -26.5550  -24.6865   23.9223 C   0  0  0  0  0  0  0  0  0  0  0  0
  -25.1555  -12.3182   21.3904 C   0  0  0  0  0  0  0  0  0  0  0  0
  -24.9254  -12.8290   19.0403 C   0  0  0  0  0  0  0  0  0  0  0  0
  -27.5189  -25.5644   23.4286 C   0  0  0  0  0  0  0  0  0  0  0  0
  -23.9490   -9.3200   20.3962 C   0  0  0  0  0  0  0  0  0  0  0  0
  -23.8636   -8.0812   21.0315 C   0  0  0  0  0  0  0  0  0  0  0  0
  -25.8518  -26.5943   22.0217 C   0  0  0  0  0  0  0  0  0  0  0  0
  -22.1578   -8.9537   22.5033 C   0  0  0  0  0  0  0  0  0  0  0  0
  -26.8863  -13.5582   20.2486 C   0  0  0  0  0  0  0  0  0  0  0  0
  -29.4247  -13.6761   20.0248 C   0  0  0  0  0  0  0  0  0  0  0  0
  -22.8361  -17.9922   21.8831 C   0  0  0  0  0  0  0  0  0  0  0  0
  -25.2323  -24.7488   23.4606 C   0  0  0  0  0  0  0  0  0  0  0  0
  -23.7222  -19.0832   21.7993 C   0  0  0  0  0  0  0  0  0  0  0  0
  -24.8724  -25.7177   22.5130 C   0  0  0  0  0  0  0  0  0  0  0  0
  -24.4252  -12.2454   20.2043 C   0  0  0  0  0  0  0  0  0  0  0  0
  -27.1681  -26.5166   22.4760 C   0  0  0  0  0  0  0  0  0  0  0  0
  -23.1390  -10.3757   20.8144 C   0  0  0  0  0  0  0  0  0  0  0  0
  -22.9679   -7.8980   22.0850 C   0  0  0  0  0  0  0  0  0  0  0  0
  -22.2433  -10.1926   21.8680 C   0  0  0  0  0  0  0  0  0  0  0  0
  -28.1572  -14.2368   20.2710 C   0  0  0  0  0  0  0  0  0  0  0  0
  -30.2983  -14.7264   20.1668 C   0  0  0  0  0  0  0  0  0  0  0  0
  -31.7664  -25.7089   20.1808 C   0  0  0  0  0  0  0  0  0  0  0  0
  -31.2508  -23.8439   19.3977 C   0  0  0  0  0  0  0  0  0  0  0  0
  -29.7808  -12.3265   19.6970 C   0  0  0  0  0  0  0  0  0  0  0  0
  -23.2976  -22.7517   21.9205 C   0  0  0  0  0  0  0  0  0  0  0  0
  -21.1021  -25.0767   22.4650 C   0  0  0  0  0  0  0  0  0  0  0  0
  -20.4648  -28.3703   23.0917 C   0  0  0  0  0  0  0  0  0  0  0  0
  -29.7966  -20.4604   19.4755 C   0  0  0  0  0  0  0  0  0  0  0  0
  -21.4651  -18.0338   21.2561 C   0  0  0  0  0  0  0  0  0  0  0  0
  -24.1984  -23.8122   24.0228 C   0  0  0  0  0  0  0  0  0  0  0  0
  -23.4616  -25.8393   21.9998 C   0  0  0  0  0  0  0  0  0  0  0  0
  -20.9837  -19.4470   20.9373 C   0  0  0  0  0  0  0  0  0  0  0  0
  -30.8315  -18.8818   22.4603 C   0  0  0  0  0  0  0  0  0  0  0  0
  -22.0849  -20.2421   20.2431 C   0  0  0  0  0  0  0  0  0  0  0  0
  -30.3750  -17.4441   22.2162 C   0  0  0  0  0  0  0  0  0  0  0  0
  -29.8120  -19.9025   21.9514 C   0  0  0  0  0  0  0  0  0  0  0  0
  -28.9723  -18.2720   20.2904 C   0  0  0  0  0  0  0  0  0  0  0  0
  -23.3148  -20.3868   21.1475 C   0  0  1  0  0  0  0  0  0  0  0  0
  -22.9954  -23.6283   23.1028 C   0  0  1  0  0  0  0  0  0  0  0  0
  -30.0061  -17.2274   20.7384 C   0  0  2  0  0  0  0  0  0  0  0  0
  -34.5086  -22.7702   18.9524 C   0  0  0  0  0  0  0  0  0  0  0  0
  -29.6146  -23.0654   17.6432 C   0  0  0  0  0  0  0  0  0  0  0  0
  -18.5705  -29.9768   23.4500 C   0  0  0  0  0  0  0  0  0  0  0  0
  -32.4671  -27.5608   21.8450 C   0  0  0  0  0  0  0  0  0  0  0  0
  -32.2371  -28.0498   19.4257 C   0  0  0  0  0  0  0  0  0  0  0  0
  -20.5198  -25.0544   19.4699 C   0  0  0  0  0  0  0  0  0  0  0  0
  -19.3690  -27.2604   19.7479 C   0  0  0  0  0  0  0  0  0  0  0  0
  -18.4945  -25.2424   20.9250 C   0  0  0  0  0  0  0  0  0  0  0  0
  -29.1581  -22.5412   20.7667 C   0  0  0  0  0  0  0  0  0  0  0  0
  -21.4033  -29.0502   25.8149 C   0  0  0  0  0  0  0  0  0  0  0  0
  -30.1724  -27.6111   20.7945 C   0  0  0  0  0  0  0  0  0  0  0  0
  -33.4057  -22.6752   19.9926 C   0  0  0  0  0  0  0  0  0  0  0  0
  -29.4531  -26.9027   21.9414 C   0  0  0  0  0  0  0  0  0  1  0  0
  -30.5977  -22.6821   18.7683 C   0  0  2  0  0  0  0  0  0  0  0  0
  -20.6434  -26.3089   21.7231 C   0  0  1  0  0  0  0  0  0  0  0  0
  -19.5719  -29.0463   24.1165 C   0  0  2  0  0  0  0  0  0  0  0  0
  -31.6579  -27.1921   20.5784 C   0  0  0  0  0  0  0  0  0  0  0  0
  -19.7838  -25.9632   20.4745 C   0  0  0  0  0  0  0  0  0  0  0  0
  -28.2158  -15.5420   20.5485 N   0  0  0  0  0  0  0  0  0  0  0  0
  -30.7553  -25.0512   19.5405 N   0  0  0  0  0  0  0  0  0  0  0  0
  -32.8562  -24.9844   20.4431 N   0  0  0  0  0  0  0  0  0  0  0  0
  -29.5307  -15.8102   20.4776 N   0  0  0  0  0  0  0  0  0  0  0  0
  -32.5005  -23.7959   19.9321 N   0  0  0  0  0  0  0  0  0  0  0  0
  -22.4881  -24.8967   22.5754 N   0  0  0  0  0  0  0  0  0  0  0  0
  -29.4523  -19.6310   20.5530 N   0  0  0  0  0  0  0  0  0  0  0  0
  -31.6404  -14.8195   20.0549 N   0  0  0  0  0  0  0  0  0  0  0  0
  -28.7590  -11.3730   19.5906 N   0  0  0  0  0  0  0  0  0  0  0  0
  -23.0879  -21.4053   22.1502 N   0  0  0  0  0  0  0  0  0  0  0  0
  -19.9620  -27.1462   22.7045 N   0  0  0  0  0  0  0  0  0  0  0  0
  -29.9137  -21.8342   19.7345 N   0  0  0  0  0  0  0  0  0  0  0  0
  -20.3916  -29.8444   25.0715 N   0  3  0  0  0  0  0  0  0  0  0  0
  -30.9713  -11.9729   19.5204 O   0  0  0  0  0  0  0  0  0  0  0  0
  -23.6903  -23.2594   20.8766 O   0  0  0  0  0  0  0  0  0  0  0  0
  -20.2615  -24.3062   22.9355 O   0  0  0  0  0  0  0  0  0  0  0  0
  -21.5025  -28.8792   22.6735 O   0  0  0  0  0  0  0  0  0  0  0  0
  -29.9816  -20.0007   18.3412 O   0  0  0  0  0  0  0  0  0  0  0  0
  -23.2245  -11.6048   20.1822 O   0  0  0  0  0  0  0  0  0  0  0  0
  -28.1072  -27.3743   21.9920 O   0  0  0  0  0  0  0  0  0  1  0  0
  -22.8848   -6.7079   22.6940 F   0  0  0  0  0  0  0  0  0  0  0  0
  -21.4616  -11.2027   22.2735 F   0  0  0  0  0  0  0  0  0  0  0  0
  1  2  1  0  0  0  0
  1  5  2  0  0  0  0
  2  6  2  0  0  0  0
  3  8  2  0  0  0  0
  3 15  1  0  0  0  0
  4  9  1  0  0  0  0
  4 15  2  0  0  0  0
  5 17  1  0  0  0  0
  6 19  1  0  0  0  0
  7 10  2  0  0  0  0
  7 18  1  0  0  0  0
  8 21  1  0  0  0  0
  9 21  2  0  0  0  0
 10 22  1  0  0  0  0
 11 12  2  0  0  0  0
 11 23  1  0  0  0  0
 12 24  1  0  0  0  0
 13 20  1  0  0  0  0
 13 22  2  0  0  0  0
 14 24  2  0  0  0  0
 14 25  1  0  0  0  0
 15 26  1  0  0  0  0
 16 26  1  0  0  0  0
 16 27  2  0  0  0  0
 16 30  1  0  0  0  0
 17 19  2  0  0  0  0
 17 35  1  0  0  0  0
 18 20  2  0  0  0  0
 18 36  1  0  0  0  0
 19 44  1  0  0  0  0
 20 37  1  0  0  0  0
 21 83  1  0  0  0  0
 22 84  1  0  0  0  0
 23 25  2  0  0  0  0
 23 83  1  0  0  0  0
 24 85  1  0  0  0  0
 25 86  1  0  0  0  0
 26 65  2  0  0  0  0
 27 68  1  0  0  0  0
 27 72  1  0  0  0  0
 28 63  1  0  0  0  0
 28 66  1  0  0  0  0
 28 67  2  0  0  0  0
 29 60  1  0  0  0  0
 29 66  2  0  0  0  0
 29 69  1  0  0  0  0
 30 73  1  0  0  0  0
 30 78  2  0  0  0  0
 31 45  1  0  0  0  0
 31 74  1  0  0  0  0
 31 79  2  0  0  0  0
 32 61  1  0  0  0  0
 32 70  1  0  0  0  0
 32 80  2  0  0  0  0
 33 62  1  0  0  0  0
 33 75  1  0  0  0  0
 33 81  2  0  0  0  0
 34 71  1  0  0  0  0
 34 76  1  0  0  0  0
 34 82  2  0  0  0  0
 35 38  1  0  0  0  0
 36 45  1  0  0  0  0
 37 70  1  0  0  0  0
 38 40  1  0  0  0  0
 39 41  1  0  0  0  0
 39 42  1  0  0  0  0
 40 44  1  0  0  0  0
 41 46  1  0  0  0  0
 42 71  1  0  0  0  0
 43 46  1  0  0  0  0
 43 71  1  0  0  0  0
 44 74  1  0  0  0  0
 45 70  1  0  0  0  0
 46 68  1  0  0  0  0
 47 58  1  0  0  0  0
 48 60  1  0  0  0  0
 49 62  1  0  0  0  0
 50 63  1  0  0  0  0
 51 63  1  0  0  0  0
 52 64  1  0  0  0  0
 53 64  1  0  0  0  0
 54 64  1  0  0  0  0
 55 76  1  0  0  0  0
 56 77  1  0  0  0  0
 57 59  1  0  0  0  0
 57 63  1  0  0  0  0
 58 69  1  0  0  0  0
 59 84  1  0  0  0  0
 60 76  1  0  0  0  0
 61 64  1  0  0  0  0
 61 75  1  0  0  0  0
 62 77  1  0  0  0  0
 65 68  1  0  0  0  0
 67 69  1  0  0  0  0
M  CHG  1  77   1
M  ISO  4  34 100  59 101  76 100  84 101
M  END
> <Batch ID>
0061

> <Smiles>
CCn1nc(C(C)(C)C[101CH2:1][101O:1]c2ccc3c(c2)CN(C(=O)C(NC(=O)C(C)NC)C(C)(C)C)C(C(=O)NC2CCCc4ccccc42)C3)nc1C(C)[100N:0](C)[100C:0](=O)N1CCCC(n2nc(-c3ccc(Oc4ccc(F)cc4F)cc3)c(C(N)=O)c2N)C1

> <Shape>
0.255

> <Color>
0.068

> <Negative vol penalty>
0.000

$$$$

  -OEChem-04052317583D

 88 96  0     1  0  0  0  0  0999 V2000
  -16.9537  -28.2940   24.2554 C   0  0  0  0  0  0  0  0  0  0  0  0
  -17.6053  -27.8531   23.1081 C   0  0  0  0  0  0  0  0  0  0  0  0
  -24.0198  -13.8937   19.5997 C   0  0  0  0  0  0  0  0  0  0  0  0
  -23.8018  -14.9454   21.7638 C   0  0  0  0  0  0  0  0  0  0  0  0
  -17.1448  -29.5995   24.7061 C   0  0  0  0  0  0  0  0  0  0  0  0
  -18.4476  -28.7178   22.4101 C   0  0  0  0  0  0  0  0  0  0  0  0
  -25.3845  -27.0882   21.3538 C   0  0  0  0  0  0  0  0  0  0  0  0
  -23.2698  -12.8080   20.0518 C   0  0  0  0  0  0  0  0  0  0  0  0
  -23.0518  -13.8597   22.2159 C   0  0  0  0  0  0  0  0  0  0  0  0
  -26.6696  -26.7512   20.9284 C   0  0  0  0  0  0  0  0  0  0  0  0
  -23.7694  -10.0501   21.9409 C   0  0  0  0  0  0  0  0  0  0  0  0
  -24.2331   -8.7707   21.6349 C   0  0  0  0  0  0  0  0  0  0  0  0
  -26.8935  -28.9090   19.8600 C   0  0  0  0  0  0  0  0  0  0  0  0
  -22.1829   -8.3132   20.4413 C   0  0  0  0  0  0  0  0  0  0  0  0
  -24.2858  -14.9624   20.4558 C   0  0  0  0  0  0  0  0  0  0  0  0
  -24.5779  -17.2536   19.3727 C   0  0  0  0  0  0  0  0  0  0  0  0
  -17.9974  -30.4777   24.0188 C   0  0  0  0  0  0  0  0  0  0  0  0
  -24.8543  -28.3444   21.0467 C   0  0  0  0  0  0  0  0  0  0  0  0
  -18.6492  -30.0367   22.8513 C   0  0  0  0  0  0  0  0  0  0  0  0
  -25.6116  -29.2570   20.2941 C   0  0  0  0  0  0  0  0  0  0  0  0
  -22.7858  -12.7910   21.3599 C   0  0  0  0  0  0  0  0  0  0  0  0
  -27.4221  -27.6592   20.1831 C   0  0  0  0  0  0  0  0  0  0  0  0
  -22.5124  -10.4611   21.4972 C   0  0  0  0  0  0  0  0  0  0  0  0
  -23.4399   -7.9023   20.8850 C   0  0  0  0  0  0  0  0  0  0  0  0
  -21.7192   -9.5926   20.7474 C   0  0  0  0  0  0  0  0  0  0  0  0
  -25.0610  -16.0840   19.9895 C   0  0  0  0  0  0  0  0  0  0  0  0
  -25.7033  -18.0006   19.1240 C   0  0  0  0  0  0  0  0  0  0  0  0
  -29.2439  -21.7323   19.6820 C   0  0  0  0  0  0  0  0  0  0  0  0
  -28.0492  -22.2918   18.0644 C   0  0  0  0  0  0  0  0  0  0  0  0
  -23.2321  -17.6311   19.0532 C   0  0  0  0  0  0  0  0  0  0  0  0
  -21.9567  -30.7087   21.3472 C   0  0  0  0  0  0  0  0  0  0  0  0
  -24.5076  -32.3769   21.6938 C   0  0  0  0  0  0  0  0  0  0  0  0
  -30.6094  -20.0519   20.8594 C   0  0  0  0  0  0  0  0  0  0  0  0
  -27.5271  -33.7775   22.4408 C   0  0  0  0  0  0  0  0  0  0  0  0
  -18.1356  -31.8943   24.5176 C   0  0  0  0  0  0  0  0  0  0  0  0
  -23.4510  -28.7270   21.4315 C   0  0  0  0  0  0  0  0  0  0  0  0
  -24.9872  -30.5836   19.9576 C   0  0  0  0  0  0  0  0  0  0  0  0
  -19.3368  -32.6319   23.9317 C   0  0  0  0  0  0  0  0  0  0  0  0
  -30.5980  -16.7840   19.3894 C   0  0  0  0  0  0  0  0  0  0  0  0
  -19.4085  -32.4211   22.4226 C   0  0  0  0  0  0  0  0  0  0  0  0
  -29.1203  -16.3945   19.3917 C   0  0  0  0  0  0  0  0  0  0  0  0
  -30.9580  -17.6159   20.6163 C   0  0  0  0  0  0  0  0  0  0  0  0
  -28.6351  -18.4489   20.7949 C   0  0  0  0  0  0  0  0  0  0  0  0
  -19.5902  -30.9373   22.0808 C   0  0  1  0  0  0  0  0  0  0  0  0
  -23.3068  -30.2189   21.7818 C   0  0  1  0  0  0  0  0  0  0  0  0
  -28.2224  -17.6334   19.5568 C   0  0  2  0  0  0  0  0  0  0  0  0
  -26.9575  -22.5598   17.1111 C   0  0  0  0  0  0  0  0  0  0  0  0
  -28.5830  -35.9679   23.0613 C   0  0  0  0  0  0  0  0  0  0  0  0
  -30.2709  -22.2438   21.9267 C   0  0  0  0  0  0  0  0  0  0  0  0
  -24.2654  -33.3093   18.7997 C   0  0  0  0  0  0  0  0  0  0  0  0
  -26.0942  -34.9582   19.2523 C   0  0  0  0  0  0  0  0  0  0  0  0
  -23.9430  -35.1088   20.5063 C   0  0  0  0  0  0  0  0  0  0  0  0
  -31.4186  -23.0179   14.4686 C   0  0  0  0  0  0  0  0  0  0  0  0
  -32.2006  -22.0441   16.6136 C   0  0  0  0  0  0  0  0  0  0  0  0
  -30.3221  -20.9642   15.3819 C   0  0  0  0  0  0  0  0  0  0  0  0
  -28.4902  -32.7126   25.0287 C   0  0  0  0  0  0  0  0  0  0  0  0
  -29.5027  -25.6009   17.5535 C   0  0  0  0  0  0  0  0  0  0  0  0
  -30.1261  -26.9649   17.8696 C   0  0  0  0  0  0  0  0  0  0  0  0
  -30.5239  -24.6665   16.8843 C   0  0  0  0  0  0  0  0  0  0  0  0
  -29.1411  -27.9026   18.5573 C   0  0  0  0  0  0  0  0  0  1  0  0
  -25.5568  -33.2356   21.0341 C   0  0  1  0  0  0  0  0  0  0  0  0
  -27.9652  -34.6791   23.5809 C   0  0  2  0  0  0  0  0  0  0  0  0
  -29.9450  -23.2587   16.5672 C   0  0  1  0  0  0  0  0  0  0  0  0
  -29.6300  -21.1910   20.9904 C   0  0  1  0  0  0  0  0  0  0  0  0
  -24.9690  -34.1252   19.9025 C   0  0  0  0  0  0  0  0  0  0  0  0
  -30.9375  -22.3233   15.7636 C   0  0  0  0  0  0  0  0  0  0  0  0
  -26.3898  -16.0833   20.1242 N   0  0  0  0  0  0  0  0  0  0  0  0
  -27.9486  -21.7366   19.2498 N   0  0  0  0  0  0  0  0  0  0  0  0
  -30.1396  -22.2498   18.8387 N   0  0  0  0  0  0  0  0  0  0  0  0
  -26.7513  -17.2616   19.5885 N   0  0  0  0  0  0  0  0  0  0  0  0
  -29.3497  -22.6001   17.8123 N   0  0  0  0  0  0  0  0  0  0  0  0
  -24.2763  -31.1161   21.1305 N   0  0  0  0  0  0  0  0  0  0  0  0
  -30.0682  -18.7707   20.7504 N   0  0  0  0  0  0  0  0  0  0  0  0
  -25.8888  -19.2108   18.5553 N   0  0  0  0  0  0  0  0  0  0  0  0
  -22.1949  -16.7461   19.3780 N   0  0  0  0  0  0  0  0  0  0  0  0
  -20.9639  -30.5344   22.2925 N   0  0  0  0  0  0  0  0  0  0  0  0
  -26.2054  -33.9832   22.1059 N   0  0  0  0  0  0  0  0  0  0  0  0
  -28.9722  -33.9851   24.4324 N   0  3  0  0  0  0  0  0  0  0  0  0
  -22.9589  -18.7136   18.4814 O   0  0  0  0  0  0  0  0  0  0  0  0
  -21.8243  -31.2095   20.2367 O   0  0  0  0  0  0  0  0  0  0  0  0
  -23.9039  -32.8120   22.6785 O   0  0  0  0  0  0  0  0  0  0  0  0
  -31.8188  -20.2956   20.8515 O   0  0  0  0  0  0  0  0  0  0  0  0
  -28.2829  -32.9741   21.8988 O   0  0  0  0  0  0  0  0  0  0  0  0
  -22.0538  -11.7319   21.8013 O   0  0  0  0  0  0  0  0  0  0  0  0
  -28.6873  -27.3229   19.7718 O   0  0  0  0  0  0  0  0  0  1  0  0
  -23.8860   -6.6742   20.5898 F   0  0  0  0  0  0  0  0  0  0  0  0
  -20.5112   -9.9822   20.3174 F   0  0  0  0  0  0  0  0  0  0  0  0
  -28.5623  -20.6940   21.7282 F   0  0  0  0  0  0  0  0  0  0  0  0
  1  2  1  0  0  0  0
  1  5  2  0  0  0  0
  2  6  2  0  0  0  0
  3  8  2  0  0  0  0
  3 15  1  0  0  0  0
  4  9  1  0  0  0  0
  4 15  2  0  0  0  0
  5 17  1  0  0  0  0
  6 19  1  0  0  0  0
  7 10  2  0  0  0  0
  7 18  1  0  0  0  0
  8 21  1  0  0  0  0
  9 21  2  0  0  0  0
 10 22  1  0  0  0  0
 11 12  2  0  0  0  0
 11 23  1  0  0  0  0
 12 24  1  0  0  0  0
 13 20  1  0  0  0  0
 13 22  2  0  0  0  0
 14 24  2  0  0  0  0
 14 25  1  0  0  0  0
 15 26  1  0  0  0  0
 16 26  1  0  0  0  0
 16 27  2  0  0  0  0
 16 30  1  0  0  0  0
 17 19  2  0  0  0  0
 17 35  1  0  0  0  0
 18 20  2  0  0  0  0
 18 36  1  0  0  0  0
 19 44  1  0  0  0  0
 20 37  1  0  0  0  0
 21 84  1  0  0  0  0
 22 85  1  0  0  0  0
 23 25  2  0  0  0  0
 23 84  1  0  0  0  0
 24 86  1  0  0  0  0
 25 87  1  0  0  0  0
 26 67  2  0  0  0  0
 27 70  1  0  0  0  0
 27 74  1  0  0  0  0
 28 64  1  0  0  0  0
 28 68  1  0  0  0  0
 28 69  2  0  0  0  0
 29 47  1  0  0  0  0
 29 68  2  0  0  0  0
 29 71  1  0  0  0  0
 30 75  1  0  0  0  0
 30 79  2  0  0  0  0
 31 45  1  0  0  0  0
 31 76  1  0  0  0  0
 31 80  2  0  0  0  0
 32 61  1  0  0  0  0
 32 72  1  0  0  0  0
 32 81  2  0  0  0  0
 33 64  1  0  0  0  0
 33 73  1  0  0  0  0
 33 82  2  0  0  0  0
 34 62  1  0  0  0  0
 34 77  1  0  0  0  0
 34 83  2  0  0  0  0
 35 38  1  0  0  0  0
 36 45  1  0  0  0  0
 37 72  1  0  0  0  0
 38 40  1  0  0  0  0
 39 41  1  0  0  0  0
 39 42  1  0  0  0  0
 40 44  1  0  0  0  0
 41 46  1  0  0  0  0
 42 73  1  0  0  0  0
 43 46  1  0  0  0  0
 43 73  1  0  0  0  0
 44 76  1  0  0  0  0
 45 72  1  0  0  0  0
 46 70  1  0  0  0  0
 48 62  1  0  0  0  0
 49 64  1  0  0  0  0
 50 65  1  0  0  0  0
 51 65  1  0  0  0  0
 52 65  1  0  0  0  0
 53 66  1  0  0  0  0
 54 66  1  0  0  0  0
 55 66  1  0  0  0  0
 56 78  1  0  0  0  0
 57 58  1  0  0  0  0
 57 59  1  0  0  0  0
 58 60  1  0  0  0  0
 59 63  1  0  0  0  0
 60 85  1  0  0  0  0
 61 65  1  0  0  0  0
 61 77  1  0  0  0  0
 62 78  1  0  0  0  0
 63 66  1  0  0  0  0
 63 71  1  0  0  0  0
 64 88  1  0  0  0  0
 67 70  1  0  0  0  0
 69 71  1  0  0  0  0
M  CHG  1  78   1
M  ISO  4  33 100  60 101  64 100  85 101
M  END
> <Batch ID>
0061

> <Smiles>
CNC(C)C(=O)NC(C(=O)N1Cc2cc([101O:1][101CH2:1]CCCC(n3nc([100C:0](C)(F)[100C:0](=O)N4CCCC(n5nc(-c6ccc(Oc7ccc(F)cc7F)cc6)c(C(N)=O)c5N)C4)nc3C)C(C)(C)C)ccc2CC1C(=O)NC1CCCc2ccccc21)C(C)(C)C

> <Shape>
0.278

> <Color>
0.094

> <Negative vol penalty>
0.000

$$$$

  -OEChem-04052317583D

 83 91  0     1  0  0  0  0  0999 V2000
  -32.5995  -26.6460    9.2167 C   0  0  0  0  0  0  0  0  0  0  0  0
  -32.0033  -25.4983    9.7292 C   0  0  0  0  0  0  0  0  0  0  0  0
  -22.9851   -9.9217   19.9800 C   0  0  0  0  0  0  0  0  0  0  0  0
  -23.7266   -9.9442   22.2793 C   0  0  0  0  0  0  0  0  0  0  0  0
  -33.0469  -27.6436   10.0819 C   0  0  0  0  0  0  0  0  0  0  0  0
  -31.8551  -25.3470   11.1074 C   0  0  0  0  0  0  0  0  0  0  0  0
  -27.4433  -22.4754   15.9660 C   0  0  0  0  0  0  0  0  0  0  0  0
  -22.2113   -8.7909   20.2406 C   0  0  0  0  0  0  0  0  0  0  0  0
  -22.9527   -8.8134   22.5399 C   0  0  0  0  0  0  0  0  0  0  0  0
  -27.4636  -21.6206   17.0672 C   0  0  0  0  0  0  0  0  0  0  0  0
  -23.1667   -5.4774   22.0337 C   0  0  0  0  0  0  0  0  0  0  0  0
  -23.7512   -4.4482   22.7717 C   0  0  0  0  0  0  0  0  0  0  0  0
  -28.2023  -23.4448   18.4621 C   0  0  0  0  0  0  0  0  0  0  0  0
  -22.0410   -4.6884   24.4612 C   0  0  0  0  0  0  0  0  0  0  0  0
  -28.7715  -18.8150   20.9962 C   0  0  0  0  0  0  0  0  0  0  0  0
  -23.7428  -10.4984   20.9993 C   0  0  0  0  0  0  0  0  0  0  0  0
  -24.1473  -13.0124   20.8452 C   0  0  0  0  0  0  0  0  0  0  0  0
  -32.8954  -27.5088   11.4710 C   0  0  0  0  0  0  0  0  0  0  0  0
  -27.8135  -23.8210   16.1026 C   0  0  0  0  0  0  0  0  0  0  0  0
  -32.3021  -26.3431   11.9921 C   0  0  0  0  0  0  0  0  0  0  0  0
  -28.1834  -24.3152   17.3616 C   0  0  0  0  0  0  0  0  0  0  0  0
  -22.1950   -8.2367   21.5205 C   0  0  0  0  0  0  0  0  0  0  0  0
  -27.8459  -22.1045   18.3149 C   0  0  0  0  0  0  0  0  0  0  0  0
  -22.0194   -6.1122   22.5095 C   0  0  0  0  0  0  0  0  0  0  0  0
  -23.1883   -4.0537   23.9854 C   0  0  0  0  0  0  0  0  0  0  0  0
  -21.4565   -5.7177   23.7232 C   0  0  0  0  0  0  0  0  0  0  0  0
  -24.5428  -11.6663   20.7306 C   0  0  0  0  0  0  0  0  0  0  0  0
  -27.5455  -19.1717   20.4725 C   0  0  0  0  0  0  0  0  0  0  0  0
  -28.7329  -18.1339   22.1957 C   0  0  0  0  0  0  0  0  0  0  0  0
  -25.2603  -13.7296   20.4801 C   0  0  0  0  0  0  0  0  0  0  0  0
  -26.4618  -18.2222   22.2307 C   0  0  0  0  0  0  0  0  0  0  0  0
  -22.8865  -13.5652   21.2459 C   0  0  0  0  0  0  0  0  0  0  0  0
  -30.1101  -25.6504   14.8849 C   0  0  0  0  0  0  0  0  0  0  0  0
  -28.5138  -28.0111   16.4344 C   0  0  0  0  0  0  0  0  0  0  0  0
  -26.3909  -28.9034   18.9531 C   0  0  0  0  0  0  0  0  0  0  0  0
  -30.7656  -14.6176   20.6992 C   0  0  0  0  0  0  0  0  0  0  0  0
  -33.4373  -28.5926   12.3689 C   0  0  0  0  0  0  0  0  0  0  0  0
  -27.7606  -24.7365   14.9103 C   0  0  0  0  0  0  0  0  0  0  0  0
  -28.5703  -25.7565   17.5653 C   0  0  0  0  0  0  0  0  0  0  0  0
  -32.9040  -28.5232   13.7976 C   0  0  0  0  0  0  0  0  0  0  0  0
  -29.5891  -12.2263   18.3382 C   0  0  0  0  0  0  0  0  0  0  0  0
  -32.9712  -27.0930   14.3236 C   0  0  0  0  0  0  0  0  0  0  0  0
  -28.1415  -11.9741   18.7634 C   0  0  0  0  0  0  0  0  0  0  0  0
  -30.5018  -12.4425   19.5434 C   0  0  0  0  0  0  0  0  0  0  0  0
  -28.6075  -13.2402   20.9032 C   0  0  0  0  0  0  0  0  0  0  0  0
  -32.1010  -26.1535   13.4800 C   0  0  1  0  0  0  0  0  0  0  0  0
  -28.6516  -25.9657   15.0609 C   0  0  1  0  0  0  0  0  0  0  0  0
  -27.6388  -13.0719   19.7202 C   0  0  2  0  0  0  0  0  0  0  0  0
  -25.1793  -17.8895   22.9150 C   0  0  0  0  0  0  0  0  0  0  0  0
  -25.3019  -30.9109   19.9932 C   0  0  0  0  0  0  0  0  0  0  0  0
  -29.8544  -16.9384   24.1981 C   0  0  0  0  0  0  0  0  0  0  0  0
  -30.8924  -18.9490   23.1804 C   0  0  0  0  0  0  0  0  0  0  0  0
  -31.1551  -28.7475   17.7727 C   0  0  0  0  0  0  0  0  0  0  0  0
  -29.8546  -30.0729   19.4520 C   0  0  0  0  0  0  0  0  0  0  0  0
  -29.7770  -30.7013   17.0392 C   0  0  0  0  0  0  0  0  0  0  0  0
  -23.6770  -27.8854   18.3555 C   0  0  0  0  0  0  0  0  0  0  0  0
  -27.4857  -19.9150   19.1705 C   0  0  0  0  0  0  0  0  0  1  0  0
  -30.8742  -16.7840   21.9050 C   0  0  0  0  0  0  0  0  0  0  0  0
  -28.5770  -28.6160   17.8161 C   0  0  1  0  0  0  0  0  0  0  0  0
  -25.1638  -29.7970   18.9671 C   0  0  2  0  0  0  0  0  0  0  0  0
  -30.0092  -17.7048   22.8386 C   0  0  0  0  0  0  0  0  0  0  0  0
  -29.8355  -29.5067   18.0161 C   0  0  0  0  0  0  0  0  0  0  0  0
  -25.8083  -11.5335   20.3243 N   0  0  0  0  0  0  0  0  0  0  0  0
  -26.3667  -18.8903   21.0653 N   0  0  0  0  0  0  0  0  0  0  0  0
  -27.5916  -17.8199   22.8432 N   0  0  0  0  0  0  0  0  0  0  0  0
  -26.2175  -12.8054   20.1804 N   0  0  0  0  0  0  0  0  0  0  0  0
  -28.5088  -26.6107   16.3677 N   0  0  0  0  0  0  0  0  0  0  0  0
  -29.9695  -13.4972   20.4096 N   0  0  0  0  0  0  0  0  0  0  0  0
  -25.5038  -15.0543   20.3894 N   0  0  0  0  0  0  0  0  0  0  0  0
  -21.8500  -12.6860   21.5880 N   0  0  0  0  0  0  0  0  0  0  0  0
  -30.7047  -26.3105   13.8266 N   0  0  0  0  0  0  0  0  0  0  0  0
  -27.3122  -29.3157   18.0137 N   0  0  0  0  0  0  0  0  0  0  0  0
  -30.1827  -15.5731   21.5226 N   0  0  0  0  0  0  0  0  0  0  0  0
  -23.9476  -29.0016   19.2977 N   0  3  0  0  0  0  0  0  0  0  0  0
  -22.6800  -14.8019   21.2832 O   0  0  0  0  0  0  0  0  0  0  0  0
  -30.6559  -24.8673   15.6534 O   0  0  0  0  0  0  0  0  0  0  0  0
  -28.4633  -28.7539   15.4509 O   0  0  0  0  0  0  0  0  0  0  0  0
  -26.5209  -27.9386   19.7033 O   0  0  0  0  0  0  0  0  0  0  0  0
  -31.9091  -14.7586   20.2526 O   0  0  0  0  0  0  0  0  0  0  0  0
  -21.4399   -7.1334   21.7752 O   0  0  0  0  0  0  0  0  0  0  0  0
  -27.8672  -21.2722   19.3913 O   0  0  0  0  0  0  0  0  0  1  0  0
  -23.7488   -3.0642   24.6933 F   0  0  0  0  0  0  0  0  0  0  0  0
  -20.3537   -6.3231   24.1849 F   0  0  0  0  0  0  0  0  0  0  0  0
  1  2  1  0  0  0  0
  1  5  2  0  0  0  0
  2  6  2  0  0  0  0
  3  8  2  0  0  0  0
  3 16  1  0  0  0  0
  4  9  1  0  0  0  0
  4 16  2  0  0  0  0
  5 18  1  0  0  0  0
  6 20  1  0  0  0  0
  7 10  2  0  0  0  0
  7 19  1  0  0  0  0
  8 22  1  0  0  0  0
  9 22  2  0  0  0  0
 10 23  1  0  0  0  0
 11 12  2  0  0  0  0
 11 24  1  0  0  0  0
 12 25  1  0  0  0  0
 13 21  1  0  0  0  0
 13 23  2  0  0  0  0
 14 25  2  0  0  0  0
 14 26  1  0  0  0  0
 15 28  1  0  0  0  0
 15 29  2  0  0  0  0
 16 27  1  0  0  0  0
 17 27  1  0  0  0  0
 17 30  2  0  0  0  0
 17 32  1  0  0  0  0
 18 20  2  0  0  0  0
 18 37  1  0  0  0  0
 19 21  2  0  0  0  0
 19 38  1  0  0  0  0
 20 46  1  0  0  0  0
 21 39  1  0  0  0  0
 22 80  1  0  0  0  0
 23 81  1  0  0  0  0
 24 26  2  0  0  0  0
 24 80  1  0  0  0  0
 25 82  1  0  0  0  0
 26 83  1  0  0  0  0
 27 63  2  0  0  0  0
 28 57  1  0  0  0  0
 28 64  2  0  0  0  0
 29 61  1  0  0  0  0
 29 65  1  0  0  0  0
 30 66  1  0  0  0  0
 30 69  1  0  0  0  0
 31 49  1  0  0  0  0
 31 64  1  0  0  0  0
 31 65  2  0  0  0  0
 32 70  1  0  0  0  0
 32 75  2  0  0  0  0
 33 47  1  0  0  0  0
 33 71  1  0  0  0  0
 33 76  2  0  0  0  0
 34 59  1  0  0  0  0
 34 67  1  0  0  0  0
 34 77  2  0  0  0  0
 35 60  1  0  0  0  0
 35 72  1  0  0  0  0
 35 78  2  0  0  0  0
 36 68  1  0  0  0  0
 36 73  1  0  0  0  0
 36 79  2  0  0  0  0
 37 40  1  0  0  0  0
 38 47  1  0  0  0  0
 39 67  1  0  0  0  0
 40 42  1  0  0  0  0
 41 43  1  0  0  0  0
 41 44  1  0  0  0  0
 42 46  1  0  0  0  0
 43 48  1  0  0  0  0
 44 68  1  0  0  0  0
 45 48  1  0  0  0  0
 45 68  1  0  0  0  0
 46 71  1  0  0  0  0
 47 67  1  0  0  0  0
 48 66  1  0  0  0  0
 50 60  1  0  0  0  0
 51 61  1  0  0  0  0
 52 61  1  0  0  0  0
 53 62  1  0  0  0  0
 54 62  1  0  0  0  0
 55 62  1  0  0  0  0
 56 74  1  0  0  0  0
 57 81  1  0  0  0  0
 58 61  1  0  0  0  0
 58 73  1  0  0  0  0
 59 62  1  0  0  0  0
 59 72  1  0  0  0  0
 60 74  1  0  0  0  0
 63 66  1  0  0  0  0
M  CHG  1  74   1
M  ISO  4  36 100  57 101  73 100  81 101
M  END
> <Batch ID>
0061

> <Smiles>
CNC(C)C(=O)NC(C(=O)N1Cc2cc([101O:1][101CH2:1]c3cc(C(C)(C)C[100NH:0][100C:0](=O)N4CCCC(n5nc(-c6ccc(Oc7ccc(F)cc7F)cc6)c(C(N)=O)c5N)C4)nc(C)n3)ccc2CC1C(=O)NC1CCCc2ccccc21)C(C)(C)C

> <Shape>
0.242

> <Color>
0.194

> <Negative vol penalty>
0.000

$$$$

  -OEChem-04052317582D

  0  0  0     0  0  0  0  0  0999 V2000
M  END
$$$$

  -OEChem-04052317583D

 84 92  0     1  0  0  0  0  0999 V2000
  -23.9071   -7.3569   25.1384 C   0  0  0  0  0  0  0  0  0  0  0  0
  -24.9192   -8.3078   25.0555 C   0  0  0  0  0  0  0  0  0  0  0  0
  -23.3017  -30.1563   20.6501 C   0  0  0  0  0  0  0  0  0  0  0  0
  -23.2446  -28.4040   22.3125 C   0  0  0  0  0  0  0  0  0  0  0  0
  -23.0323   -7.1764   24.0678 C   0  0  0  0  0  0  0  0  0  0  0  0
  -25.0578   -9.0780   23.9014 C   0  0  0  0  0  0  0  0  0  0  0  0
  -26.8746  -14.9170   23.5683 C   0  0  0  0  0  0  0  0  0  0  0  0
  -22.0939  -30.6569   21.1363 C   0  0  0  0  0  0  0  0  0  0  0  0
  -22.0369  -28.9047   22.7987 C   0  0  0  0  0  0  0  0  0  0  0  0
  -28.1064  -15.5009   23.2759 C   0  0  0  0  0  0  0  0  0  0  0  0
  -18.7701  -28.8062   21.9329 C   0  0  0  0  0  0  0  0  0  0  0  0
  -17.7513  -27.8924   22.2022 C   0  0  0  0  0  0  0  0  0  0  0  0
  -27.4256  -15.7716   20.9775 C   0  0  0  0  0  0  0  0  0  0  0  0
  -17.7365  -28.5907   24.5151 C   0  0  0  0  0  0  0  0  0  0  0  0
  -31.2812  -21.8276   18.9710 C   0  0  0  0  0  0  0  0  0  0  0  0
  -23.8770  -29.0298   21.2382 C   0  0  0  0  0  0  0  0  0  0  0  0
  -26.4213  -28.8656   21.1536 C   0  0  0  0  0  0  0  0  0  0  0  0
  -23.1542   -7.9515   22.9038 C   0  0  0  0  0  0  0  0  0  0  0  0
  -25.9115  -14.7459   22.5635 C   0  0  0  0  0  0  0  0  0  0  0  0
  -24.1847   -8.9068   22.8137 C   0  0  0  0  0  0  0  0  0  0  0  0
  -26.1814  -15.1876   21.2604 C   0  0  0  0  0  0  0  0  0  0  0  0
  -21.4616  -30.0311   22.2106 C   0  0  0  0  0  0  0  0  0  0  0  0
  -28.3832  -15.9256   21.9797 C   0  0  0  0  0  0  0  0  0  0  0  0
  -19.2722  -29.6122   22.9546 C   0  0  0  0  0  0  0  0  0  0  0  0
  -17.2345  -27.7846   23.4933 C   0  0  0  0  0  0  0  0  0  0  0  0
  -18.7554  -29.5045   24.2457 C   0  0  0  0  0  0  0  0  0  0  0  0
  -25.1242  -28.5119   20.7360 C   0  0  0  0  0  0  0  0  0  0  0  0
  -30.6184  -22.7596   18.1987 C   0  0  0  0  0  0  0  0  0  0  0  0
  -30.5349  -21.2444   19.9745 C   0  0  0  0  0  0  0  0  0  0  0  0
  -27.2536  -28.0989   20.3752 C   0  0  0  0  0  0  0  0  0  0  0  0
  -28.7071  -22.4643   19.3931 C   0  0  0  0  0  0  0  0  0  0  0  0
  -26.8366  -29.8032   22.1556 C   0  0  0  0  0  0  0  0  0  0  0  0
  -24.4658  -12.2406   21.2454 C   0  0  0  0  0  0  0  0  0  0  0  0
  -22.7410  -14.5286   19.7248 C   0  0  0  0  0  0  0  0  0  0  0  0
  -22.5476  -17.7472   18.6068 C   0  0  0  0  0  0  0  0  0  0  0  0
  -25.9835  -22.8654   17.4536 C   0  0  0  0  0  0  0  0  0  0  0  0
  -22.2144   -7.6876   21.7541 C   0  0  0  0  0  0  0  0  0  0  0  0
  -24.5775  -14.1386   22.9011 C   0  0  0  0  0  0  0  0  0  0  0  0
  -25.1736  -15.0452   20.1501 C   0  0  0  0  0  0  0  0  0  0  0  0
  -22.1963   -8.8043   20.7135 C   0  0  0  0  0  0  0  0  0  0  0  0
  -27.4942  -25.9646   16.1065 C   0  0  0  0  0  0  0  0  0  0  0  0
  -23.6184   -9.2274   20.3596 C   0  0  0  0  0  0  0  0  0  0  0  0
  -27.0998  -27.0083   17.1502 C   0  0  0  0  0  0  0  0  0  0  0  0
  -26.4844  -24.8230   16.0364 C   0  0  0  0  0  0  0  0  0  0  0  0
  -25.8323  -25.2092   18.3900 C   0  0  0  0  0  0  0  0  0  0  0  0
  -24.3519   -9.7788   21.5883 C   0  0  1  0  0  0  0  0  0  0  0  0
  -23.8669  -13.5456   21.6883 C   0  0  1  0  0  0  0  0  0  0  0  0
  -26.8532  -26.3497   18.5186 C   0  0  2  0  0  0  0  0  0  0  0  0
  -31.3432  -23.4438   17.0887 C   0  0  0  0  0  0  0  0  0  0  0  0
  -21.0295  -19.3139   17.3664 C   0  0  0  0  0  0  0  0  0  0  0  0
  -23.4899  -13.1702   17.0973 C   0  0  0  0  0  0  0  0  0  0  0  0
  -22.7796  -15.2509   15.8997 C   0  0  0  0  0  0  0  0  0  0  0  0
  -21.1174  -13.9501   17.2293 C   0  0  0  0  0  0  0  0  0  0  0  0
  -26.1575  -20.7915   18.7758 C   0  0  0  0  0  0  0  0  0  0  0  0
  -22.3560  -19.5802   20.9224 C   0  0  0  0  0  0  0  0  0  0  0  0
  -27.2776  -22.8179   19.6274 C   0  0  0  0  0  0  0  0  0  0  0  0
  -31.0906  -18.3240   22.1500 C   0  0  0  0  0  0  0  0  0  0  0  0
  -30.2292  -17.2182   22.7395 C   0  0  0  0  0  0  0  0  0  1  0  0
  -30.2733  -19.2992   21.3174 C   0  0  0  0  0  0  0  0  0  0  0  0
  -22.8872  -15.2959   18.4329 C   0  0  1  0  0  0  0  0  0  0  0  0
  -21.4538  -18.7926   18.7306 C   0  0  2  0  0  0  0  0  0  0  0  0
  -22.5885  -14.4179   17.1851 C   0  0  0  0  0  0  0  0  0  0  0  0
  -25.1272  -27.5922   19.7674 N   0  0  0  0  0  0  0  0  0  0  0  0
  -29.3268  -23.1033   18.3826 N   0  0  0  0  0  0  0  0  0  0  0  0
  -29.2406  -21.5403   20.2148 N   0  0  0  0  0  0  0  0  0  0  0  0
  -26.4364  -27.3615   19.5698 N   0  0  0  0  0  0  0  0  0  0  0  0
  -23.8862  -14.4396   20.5288 N   0  0  0  0  0  0  0  0  0  0  0  0
  -26.2363  -24.2436   17.3570 N   0  0  0  0  0  0  0  0  0  0  0  0
  -28.5975  -27.9903   20.3079 N   0  0  0  0  0  0  0  0  0  0  0  0
  -25.8513  -30.5065   22.8619 N   0  0  0  0  0  0  0  0  0  0  0  0
  -23.9230  -11.1326   21.8675 N   0  0  0  0  0  0  0  0  0  0  0  0
  -22.0302  -16.4701   18.5564 N   0  0  0  0  0  0  0  0  0  0  0  0
  -26.3875  -22.2222   18.6333 N   0  0  0  0  0  0  0  0  0  0  0  0
  -21.9288  -19.9451   19.5472 N   0  3  0  0  0  0  0  0  0  0  0  0
  -28.0460  -30.0233   22.4054 O   0  0  0  0  0  0  0  0  0  0  0  0
  -25.3536  -12.2391   20.4007 O   0  0  0  0  0  0  0  0  0  0  0  0
  -21.6490  -14.0328   20.0134 O   0  0  0  0  0  0  0  0  0  0  0  0
  -23.7413  -18.0351   18.5558 O   0  0  0  0  0  0  0  0  0  0  0  0
  -25.4368  -22.2434   16.5337 O   0  0  0  0  0  0  0  0  0  0  0  0
  -20.2832  -30.5195   22.6854 O   0  0  0  0  0  0  0  0  0  0  0  0
  -29.5850  -16.4952   21.6914 O   0  0  0  0  0  0  0  0  0  1  0  0
  -31.1213  -20.3083   20.7859 O   0  0  0  0  0  0  0  0  0  0  0  0
  -16.2550  -26.9081   23.7515 F   0  0  0  0  0  0  0  0  0  0  0  0
  -19.2328  -30.2770   25.2312 F   0  0  0  0  0  0  0  0  0  0  0  0
  1  2  1  0  0  0  0
  1  5  2  0  0  0  0
  2  6  2  0  0  0  0
  3  8  2  0  0  0  0
  3 16  1  0  0  0  0
  4  9  1  0  0  0  0
  4 16  2  0  0  0  0
  5 18  1  0  0  0  0
  6 20  1  0  0  0  0
  7 10  2  0  0  0  0
  7 19  1  0  0  0  0
  8 22  1  0  0  0  0
  9 22  2  0  0  0  0
 10 23  1  0  0  0  0
 11 12  2  0  0  0  0
 11 24  1  0  0  0  0
 12 25  1  0  0  0  0
 13 21  1  0  0  0  0
 13 23  2  0  0  0  0
 14 25  2  0  0  0  0
 14 26  1  0  0  0  0
 15 28  2  0  0  0  0
 15 29  1  0  0  0  0
 16 27  1  0  0  0  0
 17 27  1  0  0  0  0
 17 30  2  0  0  0  0
 17 32  1  0  0  0  0
 18 20  2  0  0  0  0
 18 37  1  0  0  0  0
 19 21  2  0  0  0  0
 19 38  1  0  0  0  0
 20 46  1  0  0  0  0
 21 39  1  0  0  0  0
 22 80  1  0  0  0  0
 23 81  1  0  0  0  0
 24 26  2  0  0  0  0
 24 80  1  0  0  0  0
 25 83  1  0  0  0  0
 26 84  1  0  0  0  0
 27 63  2  0  0  0  0
 28 49  1  0  0  0  0
 28 64  1  0  0  0  0
 29 65  2  0  0  0  0
 29 82  1  0  0  0  0
 30 66  1  0  0  0  0
 30 69  1  0  0  0  0
 31 56  1  0  0  0  0
 31 64  2  0  0  0  0
 31 65  1  0  0  0  0
 32 70  1  0  0  0  0
 32 75  2  0  0  0  0
 33 47  1  0  0  0  0
 33 71  1  0  0  0  0
 33 76  2  0  0  0  0
 34 60  1  0  0  0  0
 34 67  1  0  0  0  0
 34 77  2  0  0  0  0
 35 61  1  0  0  0  0
 35 72  1  0  0  0  0
 35 78  2  0  0  0  0
 36 68  1  0  0  0  0
 36 73  1  0  0  0  0
 36 79  2  0  0  0  0
 37 40  1  0  0  0  0
 38 47  1  0  0  0  0
 39 67  1  0  0  0  0
 40 42  1  0  0  0  0
 41 43  1  0  0  0  0
 41 44  1  0  0  0  0
 42 46  1  0  0  0  0
 43 48  1  0  0  0  0
 44 68  1  0  0  0  0
 45 48  1  0  0  0  0
 45 68  1  0  0  0  0
 46 71  1  0  0  0  0
 47 67  1  0  0  0  0
 48 66  1  0  0  0  0
 50 61  1  0  0  0  0
 51 62  1  0  0  0  0
 52 62  1  0  0  0  0
 53 62  1  0  0  0  0
 54 73  1  0  0  0  0
 55 74  1  0  0  0  0
 56 73  1  0  0  0  0
 57 58  1  0  0  0  0
 57 59  1  0  0  0  0
 58 81  1  0  0  0  0
 59 82  1  0  0  0  0
 60 62  1  0  0  0  0
 60 72  1  0  0  0  0
 61 74  1  0  0  0  0
 63 66  1  0  0  0  0
M  CHG  1  74   1
M  ISO  4  36 100  58 101  73 100  81 101
M  END
> <Batch ID>
0061

> <Smiles>
CNC(C)C(=O)NC(C(=O)N1Cc2cc([101O:1][101CH2:1]CCOc3cc(C)nc(C[100N:0](C)[100C:0](=O)N4CCCC(n5nc(-c6ccc(Oc7ccc(F)cc7F)cc6)c(C(N)=O)c5N)C4)n3)ccc2CC1C(=O)NC1CCCc2ccccc21)C(C)(C)C

> <Shape>
0.258

> <Color>
0.079

> <Negative vol penalty>
0.000

$$$$

  -OEChem-04052317583D

 82 90  0     1  0  0  0  0  0999 V2000
  -19.8172   -8.4385   21.3896 C   0  0  0  0  0  0  0  0  0  0  0  0
  -19.1517   -9.6584   21.4555 C   0  0  0  0  0  0  0  0  0  0  0  0
  -29.2015  -26.4492   18.0173 C   0  0  0  0  0  0  0  0  0  0  0  0
  -28.8243  -25.3630   20.1421 C   0  0  0  0  0  0  0  0  0  0  0  0
  -21.1376   -8.3415   21.8266 C   0  0  0  0  0  0  0  0  0  0  0  0
  -19.8060  -10.7819   21.9595 C   0  0  0  0  0  0  0  0  0  0  0  0
  -19.1085  -16.5819   20.1211 C   0  0  0  0  0  0  0  0  0  0  0  0
  -30.4846  -25.9046   17.9667 C   0  0  0  0  0  0  0  0  0  0  0  0
  -30.1074  -24.8183   20.0915 C   0  0  0  0  0  0  0  0  0  0  0  0
  -18.3598  -17.6430   20.6283 C   0  0  0  0  0  0  0  0  0  0  0  0
  -31.6602  -22.2457   18.5452 C   0  0  0  0  0  0  0  0  0  0  0  0
  -31.8040  -20.8980   18.8747 C   0  0  0  0  0  0  0  0  0  0  0  0
  -20.3050  -18.4427   21.8099 C   0  0  0  0  0  0  0  0  0  0  0  0
  -33.2949  -21.4981   20.6786 C   0  0  0  0  0  0  0  0  0  0  0  0
  -18.9441  -26.5611   21.3573 C   0  0  0  0  0  0  0  0  0  0  0  0
  -18.5208  -26.4593   23.6523 C   0  0  0  0  0  0  0  0  0  0  0  0
  -28.3713  -26.1785   19.1051 C   0  0  0  0  0  0  0  0  0  0  0  0
  -25.8600  -26.1721   18.6570 C   0  0  0  0  0  0  0  0  0  0  0  0
  -21.8116   -9.4666   22.3272 C   0  0  0  0  0  0  0  0  0  0  0  0
  -20.4605  -16.4368   20.4639 C   0  0  0  0  0  0  0  0  0  0  0  0
  -21.1363  -10.6996   22.4049 C   0  0  0  0  0  0  0  0  0  0  0  0
  -21.0692  -17.3803   21.3037 C   0  0  0  0  0  0  0  0  0  0  0  0
  -18.3991  -25.8613   22.4146 C   0  0  0  0  0  0  0  0  0  0  0  0
  -30.9376  -25.0891   19.0037 C   0  0  0  0  0  0  0  0  0  0  0  0
  -18.9573  -18.5720   21.4752 C   0  0  0  0  0  0  0  0  0  0  0  0
  -32.3339  -23.2196   19.2824 C   0  0  0  0  0  0  0  0  0  0  0  0
  -32.6213  -20.5241   19.9414 C   0  0  0  0  0  0  0  0  0  0  0  0
  -33.1512  -22.8458   20.3491 C   0  0  0  0  0  0  0  0  0  0  0  0
  -27.0460  -26.7412   19.1583 C   0  0  0  0  0  0  0  0  0  0  0  0
  -24.8848  -27.0922   18.9552 C   0  0  0  0  0  0  0  0  0  0  0  0
  -19.6165  -28.2318   22.7442 C   0  0  0  0  0  0  0  0  0  0  0  0
  -25.6579  -24.9233   17.9822 C   0  0  0  0  0  0  0  0  0  0  0  0
  -22.1656  -14.2226   21.9783 C   0  0  0  0  0  0  0  0  0  0  0  0
  -24.6624  -16.0889   21.0810 C   0  0  0  0  0  0  0  0  0  0  0  0
  -25.7880  -19.1768   20.1619 C   0  0  0  0  0  0  0  0  0  0  0  0
  -22.4784  -30.6525   22.5158 C   0  0  0  0  0  0  0  0  0  0  0  0
  -23.2233   -9.3022   22.8318 C   0  0  0  0  0  0  0  0  0  0  0  0
  -21.2612  -15.3017   19.8870 C   0  0  0  0  0  0  0  0  0  0  0  0
  -22.5227  -17.2809   21.6859 C   0  0  0  0  0  0  0  0  0  0  0  0
  -23.9665  -10.6245   23.0039 C   0  0  0  0  0  0  0  0  0  0  0  0
  -25.2502  -31.8512   20.6299 C   0  0  0  0  0  0  0  0  0  0  0  0
  -23.0884  -11.6401   23.7279 C   0  0  0  0  0  0  0  0  0  0  0  0
  -25.8698  -30.5816   20.0432 C   0  0  0  0  0  0  0  0  0  0  0  0
  -24.7099  -31.6163   22.0388 C   0  0  0  0  0  0  0  0  0  0  0  0
  -24.3890  -29.2174   21.5743 C   0  0  0  0  0  0  0  0  0  0  0  0
  -21.8202  -11.9465   22.9222 C   0  0  1  0  0  0  0  0  0  0  0  0
  -22.4979  -14.9623   20.7134 C   0  0  1  0  0  0  0  0  0  0  0  0
  -24.8976  -29.3900   20.1329 C   0  0  2  0  0  0  0  0  0  0  0  0
  -27.8849  -20.4008   19.5278 C   0  0  0  0  0  0  0  0  0  0  0  0
  -25.5166  -16.1378   24.0098 C   0  0  0  0  0  0  0  0  0  0  0  0
  -26.9941  -18.0867   23.4740 C   0  0  0  0  0  0  0  0  0  0  0  0
  -27.3955  -15.8814   22.3793 C   0  0  0  0  0  0  0  0  0  0  0  0
  -24.7224  -19.8525   17.4847 C   0  0  0  0  0  0  0  0  0  0  0  0
  -17.7176  -24.5290   22.2293 C   0  0  0  0  0  0  0  0  0  0  0  0
  -20.2953  -29.5466   22.9285 C   0  0  0  0  0  0  0  0  0  0  0  0
  -18.6627  -23.3283   22.3486 C   0  0  0  0  0  0  0  0  0  0  0  0
  -17.9691  -21.9916   22.0817 C   0  0  0  0  0  0  0  0  0  0  0  0
  -18.9285  -20.8209   22.2481 C   0  0  0  0  0  0  0  0  0  1  0  0
  -25.3931  -17.2618   21.6887 C   0  0  1  0  0  0  0  0  0  0  0  0
  -26.6806  -19.6243   19.0184 C   0  0  2  0  0  0  0  0  0  0  0  0
  -26.2969  -16.8430   22.8825 C   0  0  0  0  0  0  0  0  0  0  0  0
  -19.5622  -27.7533   21.4866 N   0  0  0  0  0  0  0  0  0  0  0  0
  -19.1257  -27.6483   23.8542 N   0  0  0  0  0  0  0  0  0  0  0  0
  -26.8449  -27.9309   19.7313 N   0  0  0  0  0  0  0  0  0  0  0  0
  -25.5213  -28.1168   19.5918 N   0  0  0  0  0  0  0  0  0  0  0  0
  -23.2618  -16.1498   21.1013 N   0  0  0  0  0  0  0  0  0  0  0  0
  -23.7931  -30.4739   22.0548 N   0  0  0  0  0  0  0  0  0  0  0  0
  -23.5536  -27.1167   18.7322 N   0  0  0  0  0  0  0  0  0  0  0  0
  -26.7682  -24.0983   17.7567 N   0  0  0  0  0  0  0  0  0  0  0  0
  -22.1201  -12.8494   21.8316 N   0  0  0  0  0  0  0  0  0  0  0  0
  -26.1098  -17.9077   20.5944 N   0  0  0  0  0  0  0  0  0  0  0  0
  -21.6734  -29.5202   22.4917 N   0  0  0  0  0  0  0  0  0  0  0  0
  -25.9211  -20.4977   18.0797 N   0  3  0  0  0  0  0  0  0  0  0  0
  -24.5288  -24.5575   17.5762 O   0  0  0  0  0  0  0  0  0  0  0  0
  -21.9668  -14.8512   23.0114 O   0  0  0  0  0  0  0  0  0  0  0  0
  -25.3106  -15.1564   20.5993 O   0  0  0  0  0  0  0  0  0  0  0  0
  -24.8970  -19.8838   20.6274 O   0  0  0  0  0  0  0  0  0  0  0  0
  -22.0518  -31.7417   22.9141 O   0  0  0  0  0  0  0  0  0  0  0  0
  -32.1895  -24.5573   18.9545 O   0  0  0  0  0  0  0  0  0  0  0  0
  -18.2286  -19.6084   21.9721 O   0  0  0  0  0  0  0  0  0  1  0  0
  -32.7581  -19.2300   20.2587 F   0  0  0  0  0  0  0  0  0  0  0  0
  -33.7999  -23.7770   21.0617 F   0  0  0  0  0  0  0  0  0  0  0  0
  1  2  1  0  0  0  0
  1  5  2  0  0  0  0
  2  6  2  0  0  0  0
  3  8  2  0  0  0  0
  3 17  1  0  0  0  0
  4  9  1  0  0  0  0
  4 17  2  0  0  0  0
  5 19  1  0  0  0  0
  6 21  1  0  0  0  0
  7 10  2  0  0  0  0
  7 20  1  0  0  0  0
  8 24  1  0  0  0  0
  9 24  2  0  0  0  0
 10 25  1  0  0  0  0
 11 12  2  0  0  0  0
 11 26  1  0  0  0  0
 12 27  1  0  0  0  0
 13 22  1  0  0  0  0
 13 25  2  0  0  0  0
 14 27  2  0  0  0  0
 14 28  1  0  0  0  0
 15 23  1  0  0  0  0
 15 62  2  0  0  0  0
 16 23  2  0  0  0  0
 16 63  1  0  0  0  0
 17 29  1  0  0  0  0
 18 29  1  0  0  0  0
 18 30  2  0  0  0  0
 18 32  1  0  0  0  0
 19 21  2  0  0  0  0
 19 37  1  0  0  0  0
 20 22  2  0  0  0  0
 20 38  1  0  0  0  0
 21 46  1  0  0  0  0
 22 39  1  0  0  0  0
 23 54  1  0  0  0  0
 24 79  1  0  0  0  0
 25 80  1  0  0  0  0
 26 28  2  0  0  0  0
 26 79  1  0  0  0  0
 27 81  1  0  0  0  0
 28 82  1  0  0  0  0
 29 64  2  0  0  0  0
 30 65  1  0  0  0  0
 30 68  1  0  0  0  0
 31 55  1  0  0  0  0
 31 62  1  0  0  0  0
 31 63  2  0  0  0  0
 32 69  1  0  0  0  0
 32 74  2  0  0  0  0
 33 47  1  0  0  0  0
 33 70  1  0  0  0  0
 33 75  2  0  0  0  0
 34 59  1  0  0  0  0
 34 66  1  0  0  0  0
 34 76  2  0  0  0  0
 35 60  1  0  0  0  0
 35 71  1  0  0  0  0
 35 77  2  0  0  0  0
 36 67  1  0  0  0  0
 36 72  1  0  0  0  0
 36 78  2  0  0  0  0
 37 40  1  0  0  0  0
 38 47  1  0  0  0  0
 39 66  1  0  0  0  0
 40 42  1  0  0  0  0
 41 43  1  0  0  0  0
 41 44  1  0  0  0  0
 42 46  1  0  0  0  0
 43 48  1  0  0  0  0
 44 67  1  0  0  0  0
 45 48  1  0  0  0  0
 45 67  1  0  0  0  0
 46 70  1  0  0  0  0
 47 66  1  0  0  0  0
 48 65  1  0  0  0  0
 49 60  1  0  0  0  0
 50 61  1  0  0  0  0
 51 61  1  0  0  0  0
 52 61  1  0  0  0  0
 53 73  1  0  0  0  0
 54 56  1  0  0  0  0
 55 72  1  0  0  0  0
 56 57  1  0  0  0  0
 57 58  1  0  0  0  0
 58 80  1  0  0  0  0
 59 61  1  0  0  0  0
 59 71  1  0  0  0  0
 60 73  1  0  0  0  0
 64 65  1  0  0  0  0
M  CHG  1  73   1
M  ISO  4  36 100  58 101  72 100  80 101
M  END
> <Batch ID>
0061

> <Smiles>
CNC(C)C(=O)NC(C(=O)N1Cc2cc([101O:1][101CH2:1]CCCc3cnc(C[100NH:0][100C:0](=O)N4CCCC(n5nc(-c6ccc(Oc7ccc(F)cc7F)cc6)c(C(N)=O)c5N)C4)nc3)ccc2CC1C(=O)NC1CCCc2ccccc21)C(C)(C)C

> <Shape>
0.193

> <Color>
0.090

> <Negative vol penalty>
0.000

$$$$

  -OEChem-04052317583D

 84 92  0     1  0  0  0  0  0999 V2000
  -28.3508  -11.4448   20.2547 C   0  0  0  0  0  0  0  0  0  0  0  0
  -28.8573  -12.7065   19.9596 C   0  0  0  0  0  0  0  0  0  0  0  0
  -19.4898  -26.6186   19.4860 C   0  0  0  0  0  0  0  0  0  0  0  0
  -20.6544  -24.5356   19.8631 C   0  0  0  0  0  0  0  0  0  0  0  0
  -26.9730  -11.2518   20.3453 C   0  0  0  0  0  0  0  0  0  0  0  0
  -27.9861  -13.7757   19.7540 C   0  0  0  0  0  0  0  0  0  0  0  0
  -28.9247  -19.6339   21.2725 C   0  0  0  0  0  0  0  0  0  0  0  0
  -18.4672  -25.9290   18.8346 C   0  0  0  0  0  0  0  0  0  0  0  0
  -19.6317  -23.8460   19.2117 C   0  0  0  0  0  0  0  0  0  0  0  0
  -29.3529  -20.7370   20.5352 C   0  0  0  0  0  0  0  0  0  0  0  0
  -17.1530  -21.4963   17.9654 C   0  0  0  0  0  0  0  0  0  0  0  0
  -16.6798  -20.3255   18.5576 C   0  0  0  0  0  0  0  0  0  0  0  0
  -27.0563  -21.3856   20.1830 C   0  0  0  0  0  0  0  0  0  0  0  0
  -16.0417  -21.5775   20.5229 C   0  0  0  0  0  0  0  0  0  0  0  0
  -30.2751  -24.1068   16.9562 C   0  0  0  0  0  0  0  0  0  0  0  0
  -20.5835  -25.9219   20.0002 C   0  0  0  0  0  0  0  0  0  0  0  0
  -21.7259  -26.9300   22.0462 C   0  0  0  0  0  0  0  0  0  0  0  0
  -26.0848  -12.3212   20.1502 C   0  0  0  0  0  0  0  0  0  0  0  0
  -27.5565  -19.3920   21.4617 C   0  0  0  0  0  0  0  0  0  0  0  0
  -26.5951  -13.5965   19.8408 C   0  0  0  0  0  0  0  0  0  0  0  0
  -26.6134  -20.2802   20.9253 C   0  0  0  0  0  0  0  0  0  0  0  0
  -18.5381  -24.5427   18.6975 C   0  0  0  0  0  0  0  0  0  0  0  0
  -28.4186  -21.6114   19.9879 C   0  0  0  0  0  0  0  0  0  0  0  0
  -17.0707  -22.7078   18.6519 C   0  0  0  0  0  0  0  0  0  0  0  0
  -16.1241  -20.3661   19.8364 C   0  0  0  0  0  0  0  0  0  0  0  0
  -16.5150  -22.7484   19.9306 C   0  0  0  0  0  0  0  0  0  0  0  0
  -21.6404  -26.6337   20.6726 C   0  0  0  0  0  0  0  0  0  0  0  0
  -30.5330  -25.2968   16.3066 C   0  0  0  0  0  0  0  0  0  0  0  0
  -30.4962  -24.1101   18.3183 C   0  0  0  0  0  0  0  0  0  0  0  0
  -22.9096  -27.6144   22.1768 C   0  0  0  0  0  0  0  0  0  0  0  0
  -31.1498  -26.2864   18.2578 C   0  0  0  0  0  0  0  0  0  0  0  0
  -20.8167  -26.6146   23.1090 C   0  0  0  0  0  0  0  0  0  0  0  0
  -25.5630  -17.0460   20.6705 C   0  0  0  0  0  0  0  0  0  0  0  0
  -23.4657  -18.7486   22.4662 C   0  0  0  0  0  0  0  0  0  0  0  0
  -22.5598  -21.7641   23.7827 C   0  0  0  0  0  0  0  0  0  0  0  0
  -28.2045  -27.5724   20.0853 C   0  0  0  0  0  0  0  0  0  0  0  0
  -24.6018  -12.0537   20.2118 C   0  0  0  0  0  0  0  0  0  0  0  0
  -27.1115  -18.2124   22.2821 C   0  0  0  0  0  0  0  0  0  0  0  0
  -25.1334  -20.0763   21.1168 C   0  0  0  0  0  0  0  0  0  0  0  0
  -23.7597  -13.3194   20.3497 C   0  0  0  0  0  0  0  0  0  0  0  0
  -25.8424  -30.1265   19.0880 C   0  0  0  0  0  0  0  0  0  0  0  0
  -24.2291  -14.3831   19.3622 C   0  0  0  0  0  0  0  0  0  0  0  0
  -24.5172  -29.5063   19.5345 C   0  0  0  0  0  0  0  0  0  0  0  0
  -26.7941  -29.0650   18.5441 C   0  0  0  0  0  0  0  0  0  0  0  0
  -25.7436  -27.3205   19.9322 C   0  0  0  0  0  0  0  0  0  0  0  0
  -25.6830  -14.7865   19.6355 C   0  0  1  0  0  0  0  0  0  0  0  0
  -25.6812  -17.7781   21.9773 C   0  0  1  0  0  0  0  0  0  0  0  0
  -24.7463  -28.3393   20.5132 C   0  0  2  0  0  0  0  0  0  0  0  0
  -28.9063  -25.8332   14.4756 C   0  0  0  0  0  0  0  0  0  0  0  0
  -20.7770  -22.8499   25.1754 C   0  0  0  0  0  0  0  0  0  0  0  0
  -31.8713  -28.7659   18.0903 C   0  0  0  0  0  0  0  0  0  0  0  0
  -33.0161  -27.2166   19.6540 C   0  0  0  0  0  0  0  0  0  0  0  0
  -21.5711  -18.6996   20.0749 C   0  0  0  0  0  0  0  0  0  0  0  0
  -20.2739  -20.5496   21.1533 C   0  0  0  0  0  0  0  0  0  0  0  0
  -20.4661  -18.3369   22.2889 C   0  0  0  0  0  0  0  0  0  0  0  0
  -24.5053  -22.5470   25.8710 C   0  0  0  0  0  0  0  0  0  0  0  0
  -30.3226  -25.3903   14.8324 C   0  0  0  0  0  0  0  0  0  0  0  0
  -30.2417  -22.8621   19.1113 C   0  0  0  0  0  0  0  0  0  1  0  0
  -30.6579  -27.9407   20.1321 C   0  0  0  0  0  0  0  0  0  0  0  0
  -22.4815  -19.8604   22.1938 C   0  0  1  0  0  0  0  0  0  0  0  0
  -22.1346  -22.1647   25.1838 C   0  0  2  0  0  0  0  0  0  0  0  0
  -31.6322  -27.4975   18.9819 C   0  0  0  0  0  0  0  0  0  0  0  0
  -21.2259  -19.3647   21.4223 C   0  0  0  0  0  0  0  0  0  0  0  0
  -22.6864  -27.0925   19.9801 N   0  0  0  0  0  0  0  0  0  0  0  0
  -30.9730  -26.4102   16.9286 N   0  0  0  0  0  0  0  0  0  0  0  0
  -30.9351  -25.1860   19.0039 N   0  0  0  0  0  0  0  0  0  0  0  0
  -23.4402  -27.6841   20.9224 N   0  0  0  0  0  0  0  0  0  0  0  0
  -24.7480  -18.9051   21.9213 N   0  0  0  0  0  0  0  0  0  0  0  0
  -26.9840  -27.9926   19.5310 N   0  0  0  0  0  0  0  0  0  0  0  0
  -23.5377  -28.1574   23.2412 N   0  0  0  0  0  0  0  0  0  0  0  0
  -19.6477  -25.9059   22.8000 N   0  0  0  0  0  0  0  0  0  0  0  0
  -25.7544  -15.6812   20.7708 N   0  0  0  0  0  0  0  0  0  0  0  0
  -22.1867  -20.4703   23.4860 N   0  0  0  0  0  0  0  0  0  0  0  0
  -29.3324  -28.2557   19.6475 N   0  0  0  0  0  0  0  0  0  0  0  0
  -23.1297  -23.1005   25.7795 N   0  3  0  0  0  0  0  0  0  0  0  0
  -21.0266  -26.9655   24.2949 O   0  0  0  0  0  0  0  0  0  0  0  0
  -25.3149  -17.6728   19.6471 O   0  0  0  0  0  0  0  0  0  0  0  0
  -23.1119  -17.7804   23.1438 O   0  0  0  0  0  0  0  0  0  0  0  0
  -23.1595  -22.5243   23.0256 O   0  0  0  0  0  0  0  0  0  0  0  0
  -28.2828  -26.6589   20.9139 O   0  0  0  0  0  0  0  0  0  0  0  0
  -17.5403  -23.8694   18.0622 O   0  0  0  0  0  0  0  0  0  0  0  0
  -28.8339  -22.6885   19.2672 O   0  0  0  0  0  0  0  0  0  1  0  0
  -15.6683  -19.2419   20.4044 F   0  0  0  0  0  0  0  0  0  0  0  0
  -16.4322  -23.9094   20.5946 F   0  0  0  0  0  0  0  0  0  0  0  0
  1  2  1  0  0  0  0
  1  5  2  0  0  0  0
  2  6  2  0  0  0  0
  3  8  2  0  0  0  0
  3 16  1  0  0  0  0
  4  9  1  0  0  0  0
  4 16  2  0  0  0  0
  5 18  1  0  0  0  0
  6 20  1  0  0  0  0
  7 10  2  0  0  0  0
  7 19  1  0  0  0  0
  8 22  1  0  0  0  0
  9 22  2  0  0  0  0
 10 23  1  0  0  0  0
 11 12  2  0  0  0  0
 11 24  1  0  0  0  0
 12 25  1  0  0  0  0
 13 21  1  0  0  0  0
 13 23  2  0  0  0  0
 14 25  2  0  0  0  0
 14 26  1  0  0  0  0
 15 28  1  0  0  0  0
 15 29  2  0  0  0  0
 16 27  1  0  0  0  0
 17 27  1  0  0  0  0
 17 30  2  0  0  0  0
 17 32  1  0  0  0  0
 18 20  2  0  0  0  0
 18 37  1  0  0  0  0
 19 21  2  0  0  0  0
 19 38  1  0  0  0  0
 20 46  1  0  0  0  0
 21 39  1  0  0  0  0
 22 81  1  0  0  0  0
 23 82  1  0  0  0  0
 24 26  2  0  0  0  0
 24 81  1  0  0  0  0
 25 83  1  0  0  0  0
 26 84  1  0  0  0  0
 27 64  2  0  0  0  0
 28 57  1  0  0  0  0
 28 65  2  0  0  0  0
 29 58  1  0  0  0  0
 29 66  1  0  0  0  0
 30 67  1  0  0  0  0
 30 70  1  0  0  0  0
 31 62  1  0  0  0  0
 31 65  1  0  0  0  0
 31 66  2  0  0  0  0
 32 71  1  0  0  0  0
 32 76  2  0  0  0  0
 33 47  1  0  0  0  0
 33 72  1  0  0  0  0
 33 77  2  0  0  0  0
 34 60  1  0  0  0  0
 34 68  1  0  0  0  0
 34 78  2  0  0  0  0
 35 61  1  0  0  0  0
 35 73  1  0  0  0  0
 35 79  2  0  0  0  0
 36 69  1  0  0  0  0
 36 74  1  0  0  0  0
 36 80  2  0  0  0  0
 37 40  1  0  0  0  0
 38 47  1  0  0  0  0
 39 68  1  0  0  0  0
 40 42  1  0  0  0  0
 41 43  1  0  0  0  0
 41 44  1  0  0  0  0
 42 46  1  0  0  0  0
 43 48  1  0  0  0  0
 44 69  1  0  0  0  0
 45 48  1  0  0  0  0
 45 69  1  0  0  0  0
 46 72  1  0  0  0  0
 47 68  1  0  0  0  0
 48 67  1  0  0  0  0
 49 57  1  0  0  0  0
 50 61  1  0  0  0  0
 51 62  1  0  0  0  0
 52 62  1  0  0  0  0
 53 63  1  0  0  0  0
 54 63  1  0  0  0  0
 55 63  1  0  0  0  0
 56 75  1  0  0  0  0
 58 82  1  0  0  0  0
 59 62  1  0  0  0  0
 59 74  1  0  0  0  0
 60 63  1  0  0  0  0
 60 73  1  0  0  0  0
 61 75  1  0  0  0  0
 64 67  1  0  0  0  0
M  CHG  1  75   1
M  ISO  4  36 100  58 101  74 100  82 101
M  END
> <Batch ID>
0061

> <Smiles>
CCc1cc([101CH2:1][101O:1]c2ccc3c(c2)CN(C(=O)C(NC(=O)C(C)NC)C(C)(C)C)C(C(=O)NC2CCCc4ccccc42)C3)nc(C(C)(C)C[100NH:0][100C:0](=O)N2CCCC(n3nc(-c4ccc(Oc5ccc(F)cc5F)cc4)c(C(N)=O)c3N)C2)n1

> <Shape>
0.198

> <Color>
0.077

> <Negative vol penalty>
0.000

$$$$

  -OEChem-04052317583D

 87 95  0     1  0  0  0  0  0999 V2000
  -32.4142  -29.0993   15.0838 C   0  0  0  0  0  0  0  0  0  0  0  0
  -32.0152  -28.3036   16.1530 C   0  0  0  0  0  0  0  0  0  0  0  0
  -22.8213  -10.2636   20.3187 C   0  0  0  0  0  0  0  0  0  0  0  0
  -24.4132   -9.4309   21.9341 C   0  0  0  0  0  0  0  0  0  0  0  0
  -32.1618  -30.4704   15.1045 C   0  0  0  0  0  0  0  0  0  0  0  0
  -31.3644  -28.8788   17.2439 C   0  0  0  0  0  0  0  0  0  0  0  0
  -27.3485  -26.1868   18.7508 C   0  0  0  0  0  0  0  0  0  0  0  0
  -22.1370   -9.0490   20.3670 C   0  0  0  0  0  0  0  0  0  0  0  0
  -23.7290   -8.2164   21.9824 C   0  0  0  0  0  0  0  0  0  0  0  0
  -27.5965  -25.0442   19.5103 C   0  0  0  0  0  0  0  0  0  0  0  0
  -20.9358   -6.9891   23.4358 C   0  0  0  0  0  0  0  0  0  0  0  0
  -20.6953   -6.4319   24.6918 C   0  0  0  0  0  0  0  0  0  0  0  0
  -27.0633  -26.2704   21.5181 C   0  0  0  0  0  0  0  0  0  0  0  0
  -21.9528   -4.4677   24.0612 C   0  0  0  0  0  0  0  0  0  0  0  0
  -23.9594  -10.4545   21.1022 C   0  0  0  0  0  0  0  0  0  0  0  0
  -24.4446  -12.8427   21.8563 C   0  0  0  0  0  0  0  0  0  0  0  0
  -31.4991  -31.0611   16.1919 C   0  0  0  0  0  0  0  0  0  0  0  0
  -26.9660  -27.3847   19.3713 C   0  0  0  0  0  0  0  0  0  0  0  0
  -31.1042  -30.2592   17.2797 C   0  0  0  0  0  0  0  0  0  0  0  0
  -26.8086  -27.4261   20.7640 C   0  0  0  0  0  0  0  0  0  0  0  0
  -22.5908   -8.0255   21.1988 C   0  0  0  0  0  0  0  0  0  0  0  0
  -27.4567  -25.0867   20.8944 C   0  0  0  0  0  0  0  0  0  0  0  0
  -21.6847   -6.2855   22.4925 C   0  0  0  0  0  0  0  0  0  0  0  0
  -21.2038   -5.1713   25.0045 C   0  0  0  0  0  0  0  0  0  0  0  0
  -22.1932   -5.0248   22.8052 C   0  0  0  0  0  0  0  0  0  0  0  0
  -24.6670  -11.7087   21.0524 C   0  0  0  0  0  0  0  0  0  0  0  0
  -29.4208  -17.7514   21.1097 C   0  0  0  0  0  0  0  0  0  0  0  0
  -29.4863  -18.5429   19.9545 C   0  0  0  0  0  0  0  0  0  0  0  0
  -25.3689  -13.7599   21.4194 C   0  0  0  0  0  0  0  0  0  0  0  0
  -23.4881  -13.0486   22.9044 C   0  0  0  0  0  0  0  0  0  0  0  0
  -28.2165  -30.2993   19.5846 C   0  0  0  0  0  0  0  0  0  0  0  0
  -25.4080  -30.9727   21.0616 C   0  0  0  0  0  0  0  0  0  0  0  0
  -22.7139  -29.8348   22.8205 C   0  0  0  0  0  0  0  0  0  0  0  0
  -30.8106  -14.6217   20.0185 C   0  0  0  0  0  0  0  0  0  0  0  0
  -31.2906  -32.5548   16.1905 C   0  0  0  0  0  0  0  0  0  0  0  0
  -26.6763  -28.6013   18.5355 C   0  0  0  0  0  0  0  0  0  0  0  0
  -26.3805  -28.6820   21.4767 C   0  0  0  0  0  0  0  0  0  0  0  0
  -30.2622  -33.0272   17.2150 C   0  0  0  0  0  0  0  0  0  0  0  0
  -28.3797  -13.7518   17.3660 C   0  0  0  0  0  0  0  0  0  0  0  0
  -30.5129  -32.3663   18.5667 C   0  0  0  0  0  0  0  0  0  0  0  0
  -27.2120  -13.1710   18.1618 C   0  0  0  0  0  0  0  0  0  0  0  0
  -29.7106  -13.5528   18.0849 C   0  0  0  0  0  0  0  0  0  0  0  0
  -28.5601  -13.4976   20.2729 C   0  0  0  0  0  0  0  0  0  0  0  0
  -30.3737  -30.8422   18.4699 C   0  0  1  0  0  0  0  0  0  0  0  0
  -26.7910  -29.9054   19.3187 C   0  0  1  0  0  0  0  0  0  0  0  0
  -27.1987  -13.7227   19.5980 C   0  0  2  0  0  0  0  0  0  0  0  0
  -20.6028  -30.6273   23.9217 C   0  0  0  0  0  0  0  0  0  0  0  0
  -25.7986  -22.0931   22.8186 C   0  0  0  0  0  0  0  0  0  0  0  0
  -27.0413  -32.0863   23.3858 C   0  0  0  0  0  0  0  0  0  0  0  0
  -24.9776  -31.9737   24.7989 C   0  0  0  0  0  0  0  0  0  0  0  0
  -25.0277  -33.4411   22.7822 C   0  0  0  0  0  0  0  0  0  0  0  0
  -31.7898  -16.2603   21.5792 C   0  0  0  0  0  0  0  0  0  0  0  0
  -21.0277  -28.1594   21.0572 C   0  0  0  0  0  0  0  0  0  0  0  0
  -29.3472  -16.2891   21.2353 C   0  0  0  0  0  0  0  0  0  0  0  0
  -28.1854  -21.3750   23.0908 C   0  0  0  0  0  0  0  0  0  0  0  0
  -29.5430  -20.9911   22.4860 C   0  0  0  0  0  0  0  0  0  0  0  0
  -27.4457  -22.7118   21.0204 C   0  0  0  0  0  0  0  0  0  1  0  0
  -24.9134  -30.9327   22.4874 C   0  0  1  0  0  0  0  0  0  0  0  0
  -21.2247  -30.0743   22.6488 C   0  0  2  0  0  0  0  0  0  0  0  0
  -27.0632  -21.6573   22.0676 C   0  0  2  0  0  0  0  0  0  0  0  0
  -29.5003  -18.1338   18.5429 C   0  0  0  0  0  0  0  0  0  0  0  0
  -25.5000  -32.0852   23.3506 C   0  0  0  0  0  0  0  0  0  0  0  0
  -25.6549  -11.8869   20.1714 N   0  0  0  0  0  0  0  0  0  0  0  0
  -29.4332  -18.5310   22.1945 N   0  0  0  0  0  0  0  0  0  0  0  0
  -29.5396  -19.8342   20.2928 N   0  0  0  0  0  0  0  0  0  0  0  0
  -26.0615  -13.1436   20.4191 N   0  0  0  0  0  0  0  0  0  0  0  0
  -29.5044  -19.7483   21.6322 N   0  0  0  0  0  0  0  0  0  0  0  0
  -26.1151  -29.8468   20.6163 N   0  0  0  0  0  0  0  0  0  0  0  0
  -29.6567  -14.0466   19.4612 N   0  0  0  0  0  0  0  0  0  0  0  0
  -25.6486  -15.0254   21.7971 N   0  0  0  0  0  0  0  0  0  0  0  0
  -22.6134  -12.0018   23.2257 N   0  0  0  0  0  0  0  0  0  0  0  0
  -28.9773  -30.4630   18.4428 N   0  0  0  0  0  0  0  0  0  0  0  0
  -23.4564  -30.9232   22.4139 N   0  0  0  0  0  0  0  0  0  0  0  0
  -30.6240  -15.6257   20.9808 N   0  0  0  0  0  0  0  0  0  0  0  0
  -20.5319  -28.8013   22.3019 N   0  3  0  0  0  0  0  0  0  0  0  0
  -23.4005  -14.1346   23.5261 O   0  0  0  0  0  0  0  0  0  0  0  0
  -28.5974  -30.4454   20.7401 O   0  0  0  0  0  0  0  0  0  0  0  0
  -25.1694  -31.9633   20.3663 O   0  0  0  0  0  0  0  0  0  0  0  0
  -23.1724  -28.7884   23.2737 O   0  0  0  0  0  0  0  0  0  0  0  0
  -31.9430  -14.2651   19.6686 O   0  0  0  0  0  0  0  0  0  0  0  0
  -21.9233   -6.8403   21.2464 O   0  0  0  0  0  0  0  0  0  0  0  0
  -27.6988  -23.9731   21.6381 O   0  0  0  0  0  0  0  0  0  1  0  0
  -20.9741   -4.6371   26.2111 F   0  0  0  0  0  0  0  0  0  0  0  0
  -22.9145   -4.3446   21.9036 F   0  0  0  0  0  0  0  0  0  0  0  0
  -29.4398  -16.7749   18.3436 F   0  0  0  0  0  0  0  0  0  0  0  0
  -28.4573  -18.6296   17.7971 F   0  0  0  0  0  0  0  0  0  0  0  0
  -30.6285  -18.5329   17.8692 F   0  0  0  0  0  0  0  0  0  0  0  0
  1  2  1  0  0  0  0
  1  5  2  0  0  0  0
  2  6  2  0  0  0  0
  3  8  2  0  0  0  0
  3 15  1  0  0  0  0
  4  9  1  0  0  0  0
  4 15  2  0  0  0  0
  5 17  1  0  0  0  0
  6 19  1  0  0  0  0
  7 10  2  0  0  0  0
  7 18  1  0  0  0  0
  8 21  1  0  0  0  0
  9 21  2  0  0  0  0
 10 22  1  0  0  0  0
 11 12  2  0  0  0  0
 11 23  1  0  0  0  0
 12 24  1  0  0  0  0
 13 20  1  0  0  0  0
 13 22  2  0  0  0  0
 14 24  2  0  0  0  0
 14 25  1  0  0  0  0
 15 26  1  0  0  0  0
 16 26  1  0  0  0  0
 16 29  2  0  0  0  0
 16 30  1  0  0  0  0
 17 19  2  0  0  0  0
 17 35  1  0  0  0  0
 18 20  2  0  0  0  0
 18 36  1  0  0  0  0
 19 44  1  0  0  0  0
 20 37  1  0  0  0  0
 21 81  1  0  0  0  0
 22 82  1  0  0  0  0
 23 25  2  0  0  0  0
 23 81  1  0  0  0  0
 24 83  1  0  0  0  0
 25 84  1  0  0  0  0
 26 63  2  0  0  0  0
 27 28  1  0  0  0  0
 27 54  1  0  0  0  0
 27 64  2  0  0  0  0
 28 61  1  0  0  0  0
 28 65  2  0  0  0  0
 29 66  1  0  0  0  0
 29 70  1  0  0  0  0
 30 71  1  0  0  0  0
 30 76  2  0  0  0  0
 31 45  1  0  0  0  0
 31 72  1  0  0  0  0
 31 77  2  0  0  0  0
 32 58  1  0  0  0  0
 32 68  1  0  0  0  0
 32 78  2  0  0  0  0
 33 59  1  0  0  0  0
 33 73  1  0  0  0  0
 33 79  2  0  0  0  0
 34 69  1  0  0  0  0
 34 74  1  0  0  0  0
 34 80  2  0  0  0  0
 35 38  1  0  0  0  0
 36 45  1  0  0  0  0
 37 68  1  0  0  0  0
 38 40  1  0  0  0  0
 39 41  1  0  0  0  0
 39 42  1  0  0  0  0
 40 44  1  0  0  0  0
 41 46  1  0  0  0  0
 42 69  1  0  0  0  0
 43 46  1  0  0  0  0
 43 69  1  0  0  0  0
 44 72  1  0  0  0  0
 45 68  1  0  0  0  0
 46 66  1  0  0  0  0
 47 59  1  0  0  0  0
 48 60  1  0  0  0  0
 49 62  1  0  0  0  0
 50 62  1  0  0  0  0
 51 62  1  0  0  0  0
 52 74  1  0  0  0  0
 53 75  1  0  0  0  0
 54 74  1  0  0  0  0
 55 56  1  0  0  0  0
 55 60  1  0  0  0  0
 56 67  1  0  0  0  0
 57 60  1  0  0  0  0
 57 82  1  0  0  0  0
 58 62  1  0  0  0  0
 58 73  1  0  0  0  0
 59 75  1  0  0  0  0
 61 85  1  0  0  0  0
 61 86  1  0  0  0  0
 61 87  1  0  0  0  0
 63 66  1  0  0  0  0
 64 67  1  0  0  0  0
 65 67  1  0  0  0  0
M  CHG  1  75   1
M  ISO  4  34 100  57 101  74 100  82 101
M  END
> <Batch ID>
0061

> <Smiles>
CNC(C)C(=O)NC(C(=O)N1Cc2cc([101O:1][101CH2:1]C(C)CCn3nc(C[100N:0](C)[100C:0](=O)N4CCCC(n5nc(-c6ccc(Oc7ccc(F)cc7F)cc6)c(C(N)=O)c5N)C4)c(C(F)(F)F)n3)ccc2CC1C(=O)NC1CCCc2ccccc21)C(C)(C)C

> <Shape>
0.340

> <Color>
0.167

> <Negative vol penalty>
0.000

$$$$

  -OEChem-04052317583D

 83 91  0     1  0  0  0  0  0999 V2000
  -28.4080  -16.2751   12.4201 C   0  0  0  0  0  0  0  0  0  0  0  0
  -28.3959  -17.0101   13.6012 C   0  0  0  0  0  0  0  0  0  0  0  0
  -23.2362   -9.8843   19.8307 C   0  0  0  0  0  0  0  0  0  0  0  0
  -23.7718   -9.8838   22.1866 C   0  0  0  0  0  0  0  0  0  0  0  0
  -29.3494  -16.5608   11.4322 C   0  0  0  0  0  0  0  0  0  0  0  0
  -29.3260  -18.0307   13.7955 C   0  0  0  0  0  0  0  0  0  0  0  0
  -27.2314  -22.2326   15.6933 C   0  0  0  0  0  0  0  0  0  0  0  0
  -22.5031   -8.7094   19.9971 C   0  0  0  0  0  0  0  0  0  0  0  0
  -23.0386   -8.7089   22.3530 C   0  0  0  0  0  0  0  0  0  0  0  0
  -26.9470  -22.2418   17.0582 C   0  0  0  0  0  0  0  0  0  0  0  0
  -20.1912   -5.9069   19.8697 C   0  0  0  0  0  0  0  0  0  0  0  0
  -18.9402   -5.8308   19.2575 C   0  0  0  0  0  0  0  0  0  0  0  0
  -28.9608  -23.5068   17.4631 C   0  0  0  0  0  0  0  0  0  0  0  0
  -18.1988   -7.7427   20.5351 C   0  0  0  0  0  0  0  0  0  0  0  0
  -23.8706  -10.4715   20.9254 C   0  0  0  0  0  0  0  0  0  0  0  0
  -24.1543  -13.0059   20.8623 C   0  0  0  0  0  0  0  0  0  0  0  0
  -30.2853  -17.5918   11.6104 C   0  0  0  0  0  0  0  0  0  0  0  0
  -28.3901  -22.8521   15.2035 C   0  0  0  0  0  0  0  0  0  0  0  0
  -30.2816  -18.3296   12.8095 C   0  0  0  0  0  0  0  0  0  0  0  0
  -29.2562  -23.5063   16.0913 C   0  0  0  0  0  0  0  0  0  0  0  0
  -22.4042   -8.1217   21.2583 C   0  0  0  0  0  0  0  0  0  0  0  0
  -27.8133  -22.8764   17.9436 C   0  0  0  0  0  0  0  0  0  0  0  0
  -20.4460   -6.9007   20.8147 C   0  0  0  0  0  0  0  0  0  0  0  0
  -17.9440   -6.7488   19.5902 C   0  0  0  0  0  0  0  0  0  0  0  0
  -19.4498   -7.8187   21.1474 C   0  0  0  0  0  0  0  0  0  0  0  0
  -24.6286  -11.6848   20.7540 C   0  0  0  0  0  0  0  0  0  0  0  0
  -25.2558  -13.7876   20.6129 C   0  0  0  0  0  0  0  0  0  0  0  0
  -30.2540  -18.9826   19.1149 C   0  0  0  0  0  0  0  0  0  0  0  0
  -29.1840  -20.0282   20.7878 C   0  0  0  0  0  0  0  0  0  0  0  0
  -29.3403  -17.7894   20.7819 C   0  0  0  0  0  0  0  0  0  0  0  0
  -22.8361  -13.4836   21.1617 C   0  0  0  0  0  0  0  0  0  0  0  0
  -30.9825  -21.8574   13.6562 C   0  0  0  0  0  0  0  0  0  0  0  0
  -31.6429  -25.0303   13.5204 C   0  0  0  0  0  0  0  0  0  0  0  0
  -31.1953  -28.1422   14.8481 C   0  0  0  0  0  0  0  0  0  0  0  0
  -30.7553  -14.6380   21.7747 C   0  0  0  0  0  0  0  0  0  0  0  0
  -31.3139  -17.8326   10.5340 C   0  0  0  0  0  0  0  0  0  0  0  0
  -28.6688  -22.8564   13.7254 C   0  0  0  0  0  0  0  0  0  0  0  0
  -30.5029  -24.2035   15.6138 C   0  0  0  0  0  0  0  0  0  0  0  0
  -32.0251  -19.1773   10.6609 C   0  0  0  0  0  0  0  0  0  0  0  0
  -29.8271  -12.5942   18.8313 C   0  0  0  0  0  0  0  0  0  0  0  0
  -32.4653  -19.4145   12.1020 C   0  0  0  0  0  0  0  0  0  0  0  0
  -28.3724  -12.2303   19.1238 C   0  0  0  0  0  0  0  0  0  0  0  0
  -30.6244  -12.8180   20.1127 C   0  0  0  0  0  0  0  0  0  0  0  0
  -28.5654  -13.4575   21.3233 C   0  0  0  0  0  0  0  0  0  0  0  0
  -31.2585  -19.4608   13.0470 C   0  0  1  0  0  0  0  0  0  0  0  0
  -30.1421  -23.0754   13.3958 C   0  0  1  0  0  0  0  0  0  0  0  0
  -27.7227  -13.2708   20.0526 C   0  0  2  0  0  0  0  0  0  0  0  0
  -31.0146  -19.0392   17.8340 C   0  0  0  0  0  0  0  0  0  0  0  0
  -31.8942  -30.5331   14.5434 C   0  0  0  0  0  0  0  0  0  0  0  0
  -34.3614  -24.3897   14.7489 C   0  0  0  0  0  0  0  0  0  0  0  0
  -34.6119  -26.8212   15.2904 C   0  0  0  0  0  0  0  0  0  0  0  0
  -34.4200  -26.0878   12.9138 C   0  0  0  0  0  0  0  0  0  0  0  0
  -31.0129  -16.8323   22.8692 C   0  0  0  0  0  0  0  0  0  0  0  0
  -28.4080  -29.0183   14.3765 C   0  0  0  0  0  0  0  0  0  0  0  0
  -28.7083  -21.3022   21.4392 C   0  0  0  0  0  0  0  0  0  0  0  0
  -29.0499  -16.4732   21.4189 C   0  0  0  0  0  0  0  0  0  0  0  0
  -27.2127  -21.5674   21.2540 C   0  0  0  0  0  0  0  0  0  0  0  0
  -26.8119  -21.7743   19.7980 C   0  0  0  0  0  0  0  0  0  1  0  0
  -32.3793  -26.0079   14.4042 C   0  0  1  0  0  0  0  0  0  0  0  0
  -30.8576  -29.4739   14.2022 C   0  0  2  0  0  0  0  0  0  0  0  0
  -33.9207  -25.8119   14.3489 C   0  0  0  0  0  0  0  0  0  0  0  0
  -25.9299  -11.6267   20.4587 N   0  0  0  0  0  0  0  0  0  0  0  0
  -29.8626  -20.1566   19.6364 N   0  0  0  0  0  0  0  0  0  0  0  0
  -30.0299  -17.7628   19.6300 N   0  0  0  0  0  0  0  0  0  0  0  0
  -28.8858  -18.8808   21.4183 N   0  0  0  0  0  0  0  0  0  0  0  0
  -26.2827  -12.9211   20.3791 N   0  0  0  0  0  0  0  0  0  0  0  0
  -30.7350  -24.1746   14.1602 N   0  0  0  0  0  0  0  0  0  0  0  0
  -29.9627  -13.7787   20.9961 N   0  0  0  0  0  0  0  0  0  0  0  0
  -25.4363  -15.1249   20.5728 N   0  0  0  0  0  0  0  0  0  0  0  0
  -21.8213  -12.5446   21.3914 N   0  0  0  0  0  0  0  0  0  0  0  0
  -30.5872  -20.7391   12.9472 N   0  0  0  0  0  0  0  0  0  0  0  0
  -31.9312  -27.3374   14.0043 N   0  0  0  0  0  0  0  0  0  0  0  0
  -30.2241  -15.9016   22.0746 N   0  0  0  0  0  0  0  0  0  0  0  0
  -29.5255  -29.9526   14.6683 N   0  3  0  0  0  0  0  0  0  0  0  0
  -22.5624  -14.7070   21.2074 O   0  0  0  0  0  0  0  0  0  0  0  0
  -31.9209  -21.9273   14.4412 O   0  0  0  0  0  0  0  0  0  0  0  0
  -31.8597  -25.0310   12.3061 O   0  0  0  0  0  0  0  0  0  0  0  0
  -30.8447  -27.8471   15.9885 O   0  0  0  0  0  0  0  0  0  0  0  0
  -31.8778  -14.2989   22.1706 O   0  0  0  0  0  0  0  0  0  0  0  0
  -21.6887   -6.9754   21.4211 O   0  0  0  0  0  0  0  0  0  0  0  0
  -27.5384  -22.8863   19.2764 O   0  0  0  0  0  0  0  0  0  1  0  0
  -16.7432   -6.6766   19.0010 F   0  0  0  0  0  0  0  0  0  0  0  0
  -19.6890   -8.7764   22.0536 F   0  0  0  0  0  0  0  0  0  0  0  0
  1  2  1  0  0  0  0
  1  5  2  0  0  0  0
  2  6  2  0  0  0  0
  3  8  2  0  0  0  0
  3 15  1  0  0  0  0
  4  9  1  0  0  0  0
  4 15  2  0  0  0  0
  5 17  1  0  0  0  0
  6 19  1  0  0  0  0
  7 10  2  0  0  0  0
  7 18  1  0  0  0  0
  8 21  1  0  0  0  0
  9 21  2  0  0  0  0
 10 22  1  0  0  0  0
 11 12  2  0  0  0  0
 11 23  1  0  0  0  0
 12 24  1  0  0  0  0
 13 20  1  0  0  0  0
 13 22  2  0  0  0  0
 14 24  2  0  0  0  0
 14 25  1  0  0  0  0
 15 26  1  0  0  0  0
 16 26  1  0  0  0  0
 16 27  2  0  0  0  0
 16 31  1  0  0  0  0
 17 19  2  0  0  0  0
 17 36  1  0  0  0  0
 18 20  2  0  0  0  0
 18 37  1  0  0  0  0
 19 45  1  0  0  0  0
 20 38  1  0  0  0  0
 21 80  1  0  0  0  0
 22 81  1  0  0  0  0
 23 25  2  0  0  0  0
 23 80  1  0  0  0  0
 24 82  1  0  0  0  0
 25 83  1  0  0  0  0
 26 62  2  0  0  0  0
 27 66  1  0  0  0  0
 27 69  1  0  0  0  0
 28 48  1  0  0  0  0
 28 63  2  0  0  0  0
 28 64  1  0  0  0  0
 29 55  1  0  0  0  0
 29 63  1  0  0  0  0
 29 65  2  0  0  0  0
 30 56  1  0  0  0  0
 30 64  2  0  0  0  0
 30 65  1  0  0  0  0
 31 70  1  0  0  0  0
 31 75  2  0  0  0  0
 32 46  1  0  0  0  0
 32 71  1  0  0  0  0
 32 76  2  0  0  0  0
 33 59  1  0  0  0  0
 33 67  1  0  0  0  0
 33 77  2  0  0  0  0
 34 60  1  0  0  0  0
 34 72  1  0  0  0  0
 34 78  2  0  0  0  0
 35 68  1  0  0  0  0
 35 73  1  0  0  0  0
 35 79  2  0  0  0  0
 36 39  1  0  0  0  0
 37 46  1  0  0  0  0
 38 67  1  0  0  0  0
 39 41  1  0  0  0  0
 40 42  1  0  0  0  0
 40 43  1  0  0  0  0
 41 45  1  0  0  0  0
 42 47  1  0  0  0  0
 43 68  1  0  0  0  0
 44 47  1  0  0  0  0
 44 68  1  0  0  0  0
 45 71  1  0  0  0  0
 46 67  1  0  0  0  0
 47 66  1  0  0  0  0
 49 60  1  0  0  0  0
 50 61  1  0  0  0  0
 51 61  1  0  0  0  0
 52 61  1  0  0  0  0
 53 73  1  0  0  0  0
 54 74  1  0  0  0  0
 55 57  1  0  0  0  0
 56 73  1  0  0  0  0
 57 58  1  0  0  0  0
 58 81  1  0  0  0  0
 59 61  1  0  0  0  0
 59 72  1  0  0  0  0
 60 74  1  0  0  0  0
 62 66  1  0  0  0  0
M  CHG  1  74   1
M  ISO  4  35 100  58 101  73 100  81 101
M  END
> <Batch ID>
0061

> <Smiles>
CNC(C)C(=O)NC(C(=O)N1Cc2cc([101O:1][101CH2:1]CCc3nc(C)nc(C[100N:0](C)[100C:0](=O)N4CCCC(n5nc(-c6ccc(Oc7ccc(F)cc7F)cc6)c(C(N)=O)c5N)C4)n3)ccc2CC1C(=O)NC1CCCc2ccccc21)C(C)(C)C

> <Shape>
0.195

> <Color>
0.205

> <Negative vol penalty>
0.000

$$$$

  -OEChem-04052317583D

 83 91  0     1  0  0  0  0  0999 V2000
  -30.7179  -11.0135   19.0603 C   0  0  0  0  0  0  0  0  0  0  0  0
  -30.5068  -12.3720   18.8473 C   0  0  0  0  0  0  0  0  0  0  0  0
  -21.4279  -28.8861   20.6222 C   0  0  0  0  0  0  0  0  0  0  0  0
  -22.1170  -27.9875   22.7564 C   0  0  0  0  0  0  0  0  0  0  0  0
  -29.6774  -10.2128   19.5295 C   0  0  0  0  0  0  0  0  0  0  0  0
  -29.2548  -12.9303   19.1023 C   0  0  0  0  0  0  0  0  0  0  0  0
  -29.5587  -17.3145   21.6187 C   0  0  0  0  0  0  0  0  0  0  0  0
  -20.1717  -28.3010   20.7815 C   0  0  0  0  0  0  0  0  0  0  0  0
  -20.8608  -27.4024   22.9157 C   0  0  0  0  0  0  0  0  0  0  0  0
  -29.9063  -18.4474   20.8842 C   0  0  0  0  0  0  0  0  0  0  0  0
  -19.2250  -24.6676   21.7862 C   0  0  0  0  0  0  0  0  0  0  0  0
  -19.1771  -23.3471   22.2331 C   0  0  0  0  0  0  0  0  0  0  0  0
  -27.5831  -19.0898   20.7871 C   0  0  0  0  0  0  0  0  0  0  0  0
  -17.9083  -24.0474   24.1662 C   0  0  0  0  0  0  0  0  0  0  0  0
  -27.3153  -25.2063   23.1444 C   0  0  0  0  0  0  0  0  0  0  0  0
  -26.6283  -23.8311   21.6722 C   0  0  0  0  0  0  0  0  0  0  0  0
  -22.4006  -28.7293   21.6097 C   0  0  0  0  0  0  0  0  0  0  0  0
  -24.0966  -30.6185   21.8584 C   0  0  0  0  0  0  0  0  0  0  0  0
  -28.4147  -10.7634   19.7996 C   0  0  0  0  0  0  0  0  0  0  0  0
  -28.2173  -17.0546   21.9340 C   0  0  0  0  0  0  0  0  0  0  0  0
  -28.1961  -12.1359   19.5743 C   0  0  0  0  0  0  0  0  0  0  0  0
  -27.2214  -17.9542   21.5279 C   0  0  0  0  0  0  0  0  0  0  0  0
  -19.8882  -27.5592   21.9282 C   0  0  0  0  0  0  0  0  0  0  0  0
  -28.9181  -19.3338   20.4658 C   0  0  0  0  0  0  0  0  0  0  0  0
  -18.6147  -25.6780   22.5294 C   0  0  0  0  0  0  0  0  0  0  0  0
  -18.5187  -23.0370   23.4230 C   0  0  0  0  0  0  0  0  0  0  0  0
  -17.9563  -25.3679   23.7194 C   0  0  0  0  0  0  0  0  0  0  0  0
  -23.6985  -29.3329   21.4455 C   0  0  0  0  0  0  0  0  0  0  0  0
  -28.1918  -25.3265   22.0918 C   0  0  0  0  0  0  0  0  0  0  0  0
  -25.4118  -30.7109   21.4736 C   0  0  0  0  0  0  0  0  0  0  0  0
  -23.3447  -31.6380   22.5300 C   0  0  0  0  0  0  0  0  0  0  0  0
  -26.1652  -14.7231   21.2580 C   0  0  0  0  0  0  0  0  0  0  0  0
  -24.2501  -16.3413   23.3163 C   0  0  0  0  0  0  0  0  0  0  0  0
  -29.5960  -26.5217   20.4468 C   0  0  0  0  0  0  0  0  0  0  0  0
  -23.4668  -19.2988   24.8283 C   0  0  0  0  0  0  0  0  0  0  0  0
  -27.3075   -9.8489   20.2606 C   0  0  0  0  0  0  0  0  0  0  0  0
  -27.8617  -15.8420   22.7500 C   0  0  0  0  0  0  0  0  0  0  0  0
  -25.7689  -17.7313   21.8580 C   0  0  0  0  0  0  0  0  0  0  0  0
  -26.1165  -10.5900   20.8627 C   0  0  0  0  0  0  0  0  0  0  0  0
  -28.4868  -29.0835   18.2004 C   0  0  0  0  0  0  0  0  0  0  0  0
  -25.7169  -11.7664   19.9778 C   0  0  0  0  0  0  0  0  0  0  0  0
  -27.1556  -29.5349   18.7998 C   0  0  0  0  0  0  0  0  0  0  0  0
  -28.7101  -27.5876   18.3991 C   0  0  0  0  0  0  0  0  0  0  0  0
  -27.2893  -27.5940   20.4247 C   0  0  0  0  0  0  0  0  0  0  0  0
  -26.8590  -12.7832   19.8629 C   0  0  1  0  0  0  0  0  0  0  0  0
  -26.4100  -15.4075   22.5730 C   0  0  1  0  0  0  0  0  0  0  0  0
  -27.0385  -29.1048   20.2728 C   0  0  2  0  0  0  0  0  0  0  0  0
  -21.8271  -20.3180   26.4315 C   0  0  0  0  0  0  0  0  0  0  0  0
  -30.6785  -25.4685   22.3889 C   0  0  0  0  0  0  0  0  0  0  0  0
  -29.3593  -27.5783   22.5947 C   0  0  0  0  0  0  0  0  0  0  0  0
  -22.1266  -16.3649   21.1254 C   0  0  0  0  0  0  0  0  0  0  0  0
  -20.9353  -18.1633   22.3962 C   0  0  0  0  0  0  0  0  0  0  0  0
  -21.2497  -15.9119   23.4233 C   0  0  0  0  0  0  0  0  0  0  0  0
  -29.7925  -22.8727   18.2267 C   0  0  0  0  0  0  0  0  0  0  0  0
  -30.4102  -22.9201   20.6436 C   0  0  0  0  0  0  0  0  0  0  0  0
  -25.6076  -20.0201   26.7403 C   0  0  0  0  0  0  0  0  0  0  0  0
  -28.3415  -24.1670   19.7975 C   0  0  0  0  0  0  0  0  0  0  0  0
  -28.4224  -21.5895   19.8984 C   0  0  0  0  0  0  0  0  0  1  0  0
  -23.2387  -17.4543   23.1851 C   0  0  1  0  0  0  0  0  0  0  0  0
  -23.1819  -19.6440   26.2789 C   0  0  2  0  0  0  0  0  0  0  0  0
  -29.3788  -26.1769   21.8987 C   0  0  0  0  0  0  0  0  0  0  0  0
  -21.9146  -16.9771   22.5244 C   0  0  0  0  0  0  0  0  0  0  0  0
  -29.2231  -22.8893   19.6636 C   0  0  0  0  0  0  0  0  0  0  0  0
  -26.3446  -24.2737   22.8770 N   0  0  0  0  0  0  0  0  0  0  0  0
  -24.6813  -28.6572   20.8442 N   0  0  0  0  0  0  0  0  0  0  0  0
  -27.7391  -24.4391   21.1565 N   0  0  0  0  0  0  0  0  0  0  0  0
  -25.7099  -29.5215   20.8764 N   0  0  0  0  0  0  0  0  0  0  0  0
  -25.4709  -16.5282   22.6525 N   0  0  0  0  0  0  0  0  0  0  0  0
  -28.5683  -27.2156   19.8079 N   0  0  0  0  0  0  0  0  0  0  0  0
  -26.3308  -31.6928   21.5911 N   0  0  0  0  0  0  0  0  0  0  0  0
  -22.0056  -31.3780   22.8520 N   0  0  0  0  0  0  0  0  0  0  0  0
  -26.9363  -13.5938   21.0594 N   0  0  0  0  0  0  0  0  0  0  0  0
  -23.0717  -18.0138   24.5221 N   0  0  0  0  0  0  0  0  0  0  0  0
  -24.2273  -20.5654   26.8071 N   0  3  0  0  0  0  0  0  0  0  0  0
  -23.8406  -32.7529   22.8208 O   0  0  0  0  0  0  0  0  0  0  0  0
  -25.3369  -15.1846   20.4817 O   0  0  0  0  0  0  0  0  0  0  0  0
  -23.9701  -15.3459   23.9889 O   0  0  0  0  0  0  0  0  0  0  0  0
  -30.6495  -26.1860   19.8995 O   0  0  0  0  0  0  0  0  0  0  0  0
  -23.9846  -20.0912   24.0444 O   0  0  0  0  0  0  0  0  0  0  0  0
  -18.6625  -26.9883   22.0841 O   0  0  0  0  0  0  0  0  0  0  0  0
  -29.2546  -20.4400   19.7482 O   0  0  0  0  0  0  0  0  0  1  0  0
  -18.4714  -21.7687   23.8512 F   0  0  0  0  0  0  0  0  0  0  0  0
  -17.3670  -26.3341   24.4370 F   0  0  0  0  0  0  0  0  0  0  0  0
  1  2  1  0  0  0  0
  1  5  2  0  0  0  0
  2  6  2  0  0  0  0
  3  8  2  0  0  0  0
  3 17  1  0  0  0  0
  4  9  1  0  0  0  0
  4 17  2  0  0  0  0
  5 19  1  0  0  0  0
  6 21  1  0  0  0  0
  7 10  2  0  0  0  0
  7 20  1  0  0  0  0
  8 23  1  0  0  0  0
  9 23  2  0  0  0  0
 10 24  1  0  0  0  0
 11 12  2  0  0  0  0
 11 25  1  0  0  0  0
 12 26  1  0  0  0  0
 13 22  1  0  0  0  0
 13 24  2  0  0  0  0
 14 26  2  0  0  0  0
 14 27  1  0  0  0  0
 15 29  2  0  0  0  0
 15 64  1  0  0  0  0
 16 64  2  0  0  0  0
 16 66  1  0  0  0  0
 17 28  1  0  0  0  0
 18 28  1  0  0  0  0
 18 30  2  0  0  0  0
 18 31  1  0  0  0  0
 19 21  2  0  0  0  0
 19 36  1  0  0  0  0
 20 22  2  0  0  0  0
 20 37  1  0  0  0  0
 21 45  1  0  0  0  0
 22 38  1  0  0  0  0
 23 80  1  0  0  0  0
 24 81  1  0  0  0  0
 25 27  2  0  0  0  0
 25 80  1  0  0  0  0
 26 82  1  0  0  0  0
 27 83  1  0  0  0  0
 28 65  2  0  0  0  0
 29 61  1  0  0  0  0
 29 66  1  0  0  0  0
 30 67  1  0  0  0  0
 30 70  1  0  0  0  0
 31 71  1  0  0  0  0
 31 75  2  0  0  0  0
 32 46  1  0  0  0  0
 32 72  1  0  0  0  0
 32 76  2  0  0  0  0
 33 59  1  0  0  0  0
 33 68  1  0  0  0  0
 33 77  2  0  0  0  0
 34 61  1  0  0  0  0
 34 69  1  0  0  0  0
 34 78  2  0  0  0  0
 35 60  1  0  0  0  0
 35 73  1  0  0  0  0
 35 79  2  0  0  0  0
 36 39  1  0  0  0  0
 37 46  1  0  0  0  0
 38 68  1  0  0  0  0
 39 41  1  0  0  0  0
 40 42  1  0  0  0  0
 40 43  1  0  0  0  0
 41 45  1  0  0  0  0
 42 47  1  0  0  0  0
 43 69  1  0  0  0  0
 44 47  1  0  0  0  0
 44 69  1  0  0  0  0
 45 72  1  0  0  0  0
 46 68  1  0  0  0  0
 47 67  1  0  0  0  0
 48 60  1  0  0  0  0
 49 61  1  0  0  0  0
 50 61  1  0  0  0  0
 51 62  1  0  0  0  0
 52 62  1  0  0  0  0
 53 62  1  0  0  0  0
 54 63  1  0  0  0  0
 55 63  1  0  0  0  0
 56 74  1  0  0  0  0
 57 63  1  0  0  0  0
 57 66  1  0  0  0  0
 58 63  1  0  0  0  0
 58 81  1  0  0  0  0
 59 62  1  0  0  0  0
 59 73  1  0  0  0  0
 60 74  1  0  0  0  0
 65 67  1  0  0  0  0
M  CHG  1  74   1
M  ISO  4  34 100  58 101  61 100  81 101
M  END
> <Batch ID>
0061

> <Smiles>
CNC(C)C(=O)NC(C(=O)N1Cc2cc([101O:1][101CH2:1]C(C)(C)Cn3cncc3[100C:0](C)(C)[100C:0](=O)N3CCCC(n4nc(-c5ccc(Oc6ccc(F)cc6F)cc5)c(C(N)=O)c4N)C3)ccc2CC1C(=O)NC1CCCc2ccccc21)C(C)(C)C

> <Shape>
0.261

> <Color>
0.068

> <Negative vol penalty>
0.000

$$$$

  -OEChem-04052317583D

 82 90  0     1  0  0  0  0  0999 V2000
  -18.5643  -33.5364   23.2253 C   0  0  0  0  0  0  0  0  0  0  0  0
  -19.7591  -33.5084   22.5132 C   0  0  0  0  0  0  0  0  0  0  0  0
  -26.4149  -14.7173   22.7657 C   0  0  0  0  0  0  0  0  0  0  0  0
  -25.7790  -14.4524   20.4500 C   0  0  0  0  0  0  0  0  0  0  0  0
  -18.2737  -32.5227   24.1373 C   0  0  0  0  0  0  0  0  0  0  0  0
  -20.6646  -32.4671   22.7136 C   0  0  0  0  0  0  0  0  0  0  0  0
  -25.5277  -28.5456   19.2082 C   0  0  0  0  0  0  0  0  0  0  0  0
  -25.5496  -13.6829   23.1217 C   0  0  0  0  0  0  0  0  0  0  0  0
  -24.9137  -13.4179   20.8060 C   0  0  0  0  0  0  0  0  0  0  0  0
  -26.8590  -28.1429   19.3046 C   0  0  0  0  0  0  0  0  0  0  0  0
  -25.1432  -10.1371   21.5834 C   0  0  0  0  0  0  0  0  0  0  0  0
  -25.1584   -8.9830   20.8002 C   0  0  0  0  0  0  0  0  0  0  0  0
  -26.2152  -26.4040   20.8476 C   0  0  0  0  0  0  0  0  0  0  0  0
  -22.8234   -9.3099   20.2731 C   0  0  0  0  0  0  0  0  0  0  0  0
  -31.1545  -23.3657   19.5716 C   0  0  0  0  0  0  0  0  0  0  0  0
  -26.5296  -15.1021   21.4299 C   0  0  0  0  0  0  0  0  0  0  0  0
  -28.7793  -16.0594   20.7016 C   0  0  0  0  0  0  0  0  0  0  0  0
  -19.1717  -31.4633   24.3419 C   0  0  0  0  0  0  0  0  0  0  0  0
  -24.5300  -27.8863   19.9405 C   0  0  0  0  0  0  0  0  0  0  0  0
  -20.3864  -31.4389   23.6302 C   0  0  0  0  0  0  0  0  0  0  0  0
  -24.8716  -26.7986   20.7568 C   0  0  0  0  0  0  0  0  0  0  0  0
  -24.7990  -13.0332   22.1419 C   0  0  0  0  0  0  0  0  0  0  0  0
  -27.2033  -27.0739   20.1266 C   0  0  0  0  0  0  0  0  0  0  0  0
  -23.9680  -10.8776   21.7116 C   0  0  0  0  0  0  0  0  0  0  0  0
  -23.9986   -8.5695   20.1450 C   0  0  0  0  0  0  0  0  0  0  0  0
  -22.8082  -10.4640   21.0564 C   0  0  0  0  0  0  0  0  0  0  0  0
  -27.4229  -16.1710   21.0616 C   0  0  0  0  0  0  0  0  0  0  0  0
  -31.2357  -23.7178   18.2171 C   0  0  0  0  0  0  0  0  0  0  0  0
  -29.1737  -17.3497   20.4448 C   0  0  0  0  0  0  0  0  0  0  0  0
  -29.6086  -14.8936   20.6078 C   0  0  0  0  0  0  0  0  0  0  0  0
  -22.4780  -28.7434   22.2118 C   0  0  0  0  0  0  0  0  0  0  0  0
  -21.3416  -25.7365   21.7765 C   0  0  0  0  0  0  0  0  0  0  0  0
  -21.9285  -22.5401   20.7346 C   0  0  0  0  0  0  0  0  0  0  0  0
  -28.2658  -22.3475   18.1332 C   0  0  0  0  0  0  0  0  0  0  0  0
  -18.8353  -30.4152   25.3729 C   0  0  0  0  0  0  0  0  0  0  0  0
  -23.0948  -28.3158   19.8050 C   0  0  0  0  0  0  0  0  0  0  0  0
  -23.8353  -26.0446   21.5480 C   0  0  0  0  0  0  0  0  0  0  0  0
  -19.6792  -29.1489   25.2521 C   0  0  0  0  0  0  0  0  0  0  0  0
  -26.8372  -21.7462   21.3385 C   0  0  0  0  0  0  0  0  0  0  0  0
  -21.1532  -29.5038   25.0838 C   0  0  0  0  0  0  0  0  0  0  0  0
  -26.9685  -20.2329   21.5195 C   0  0  0  0  0  0  0  0  0  0  0  0
  -26.5333  -22.1169   19.8886 C   0  0  0  0  0  0  0  0  0  0  0  0
  -27.6074  -20.0520   19.0786 C   0  0  0  0  0  0  0  0  0  0  0  0
  -21.3829  -30.3130   23.8017 C   0  0  1  0  0  0  0  0  0  0  0  0
  -22.2321  -27.9003   20.9926 C   0  0  1  0  0  0  0  0  0  0  0  0
  -27.9692  -19.6327   20.5137 C   0  0  2  0  0  0  0  0  0  0  0  0
  -20.8194  -20.2977   20.5369 C   0  0  0  0  0  0  0  0  0  0  0  0
  -32.2016  -21.5114   17.2709 C   0  0  0  0  0  0  0  0  0  0  0  0
  -32.2024  -23.5828   15.9052 C   0  0  0  0  0  0  0  0  0  0  0  0
  -21.6703  -25.3119   24.7801 C   0  0  0  0  0  0  0  0  0  0  0  0
  -21.4721  -22.8479   24.3830 C   0  0  0  0  0  0  0  0  0  0  0  0
  -19.5694  -24.3579   23.8153 C   0  0  0  0  0  0  0  0  0  0  0  0
  -22.2504  -22.5107   17.7927 C   0  0  0  0  0  0  0  0  0  0  0  0
  -30.8603  -26.8726   19.7396 C   0  0  0  0  0  0  0  0  0  0  0  0
  -30.0288  -22.4179   16.3879 C   0  0  0  0  0  0  0  0  0  0  0  0
  -29.4603  -27.4052   19.4540 C   0  0  0  0  0  0  0  0  0  1  0  0
  -21.6446  -24.3825   22.3714 C   0  0  1  0  0  0  0  0  0  0  0  0
  -21.1316  -21.6110   19.8366 C   0  0  2  0  0  0  0  0  0  0  0  0
  -31.4000  -22.8518   17.0421 C   0  0  0  0  0  0  0  0  0  0  0  0
  -21.1091  -24.2403   23.8242 C   0  0  0  0  0  0  0  0  0  0  0  0
  -31.0071  -24.4644   20.3173 N   0  0  0  0  0  0  0  0  0  0  0  0
  -26.9850  -17.4326   21.0369 N   0  0  0  0  0  0  0  0  0  0  0  0
  -31.1394  -25.0439   18.0872 N   0  0  0  0  0  0  0  0  0  0  0  0
  -28.0725  -18.1256   20.6585 N   0  0  0  0  0  0  0  0  0  0  0  0
  -31.0068  -25.4165   19.3703 N   0  0  0  0  0  0  0  0  0  0  0  0
  -22.4467  -26.5065   21.3869 N   0  0  0  0  0  0  0  0  0  0  0  0
  -27.5197  -21.5178   18.9864 N   0  0  0  0  0  0  0  0  0  0  0  0
  -30.3515  -17.8850   20.0594 N   0  0  0  0  0  0  0  0  0  0  0  0
  -29.0438  -13.6461   20.9064 N   0  0  0  0  0  0  0  0  0  0  0  0
  -21.3680  -29.4429   22.6453 N   0  0  0  0  0  0  0  0  0  0  0  0
  -21.1091  -23.3974   21.4381 N   0  0  0  0  0  0  0  0  0  0  0  0
  -29.1834  -21.6995   17.3152 N   0  0  0  0  0  0  0  0  0  0  0  0
  -21.8963  -21.3105   18.5933 N   0  3  0  0  0  0  0  0  0  0  0  0
  -30.8190  -14.9580   20.2850 O   0  0  0  0  0  0  0  0  0  0  0  0
  -23.5920  -28.7571   22.7222 O   0  0  0  0  0  0  0  0  0  0  0  0
  -20.1675  -26.0946   21.6550 O   0  0  0  0  0  0  0  0  0  0  0  0
  -23.1548  -22.5060   20.8076 O   0  0  0  0  0  0  0  0  0  0  0  0
  -28.1285  -23.5752   18.1064 O   0  0  0  0  0  0  0  0  0  0  0  0
  -23.9547  -12.0236   22.4889 O   0  0  0  0  0  0  0  0  0  0  0  0
  -28.5021  -26.6792   20.2229 O   0  0  0  0  0  0  0  0  0  1  0  0
  -24.0137   -7.4620   19.3917 F   0  0  0  0  0  0  0  0  0  0  0  0
  -21.6765  -11.1719   21.1748 F   0  0  0  0  0  0  0  0  0  0  0  0
  1  2  1  0  0  0  0
  1  5  2  0  0  0  0
  2  6  2  0  0  0  0
  3  8  2  0  0  0  0
  3 16  1  0  0  0  0
  4  9  1  0  0  0  0
  4 16  2  0  0  0  0
  5 18  1  0  0  0  0
  6 20  1  0  0  0  0
  7 10  2  0  0  0  0
  7 19  1  0  0  0  0
  8 22  1  0  0  0  0
  9 22  2  0  0  0  0
 10 23  1  0  0  0  0
 11 12  2  0  0  0  0
 11 24  1  0  0  0  0
 12 25  1  0  0  0  0
 13 21  1  0  0  0  0
 13 23  2  0  0  0  0
 14 25  2  0  0  0  0
 14 26  1  0  0  0  0
 15 28  1  0  0  0  0
 15 61  2  0  0  0  0
 16 27  1  0  0  0  0
 17 27  1  0  0  0  0
 17 29  2  0  0  0  0
 17 30  1  0  0  0  0
 18 20  2  0  0  0  0
 18 35  1  0  0  0  0
 19 21  2  0  0  0  0
 19 36  1  0  0  0  0
 20 44  1  0  0  0  0
 21 37  1  0  0  0  0
 22 79  1  0  0  0  0
 23 80  1  0  0  0  0
 24 26  2  0  0  0  0
 24 79  1  0  0  0  0
 25 81  1  0  0  0  0
 26 82  1  0  0  0  0
 27 62  2  0  0  0  0
 28 59  1  0  0  0  0
 28 63  2  0  0  0  0
 29 64  1  0  0  0  0
 29 68  1  0  0  0  0
 30 69  1  0  0  0  0
 30 74  2  0  0  0  0
 31 45  1  0  0  0  0
 31 70  1  0  0  0  0
 31 75  2  0  0  0  0
 32 57  1  0  0  0  0
 32 66  1  0  0  0  0
 32 76  2  0  0  0  0
 33 58  1  0  0  0  0
 33 71  1  0  0  0  0
 33 77  2  0  0  0  0
 34 67  1  0  0  0  0
 34 72  1  0  0  0  0
 34 78  2  0  0  0  0
 35 38  1  0  0  0  0
 36 45  1  0  0  0  0
 37 66  1  0  0  0  0
 38 40  1  0  0  0  0
 39 41  1  0  0  0  0
 39 42  1  0  0  0  0
 40 44  1  0  0  0  0
 41 46  1  0  0  0  0
 42 67  1  0  0  0  0
 43 46  1  0  0  0  0
 43 67  1  0  0  0  0
 44 70  1  0  0  0  0
 45 66  1  0  0  0  0
 46 64  1  0  0  0  0
 47 58  1  0  0  0  0
 48 59  1  0  0  0  0
 49 59  1  0  0  0  0
 50 60  1  0  0  0  0
 51 60  1  0  0  0  0
 52 60  1  0  0  0  0
 53 73  1  0  0  0  0
 54 56  1  0  0  0  0
 54 65  1  0  0  0  0
 55 59  1  0  0  0  0
 55 72  1  0  0  0  0
 56 80  1  0  0  0  0
 57 60  1  0  0  0  0
 57 71  1  0  0  0  0
 58 73  1  0  0  0  0
 61 65  1  0  0  0  0
 62 64  1  0  0  0  0
 63 65  1  0  0  0  0
M  CHG  1  73   1
M  ISO  4  34 100  56 101  72 100  80 101
M  END
> <Batch ID>
0061

> <Smiles>
CNC(C)C(=O)NC(C(=O)N1Cc2cc([101O:1][101CH2:1]Cn3ncc(C(C)(C)C[100NH:0][100C:0](=O)N4CCCC(n5nc(-c6ccc(Oc7ccc(F)cc7F)cc6)c(C(N)=O)c5N)C4)n3)ccc2CC1C(=O)NC1CCCc2ccccc21)C(C)(C)C

> <Shape>
0.237

> <Color>
0.103

> <Negative vol penalty>
0.000

$$$$

  -OEChem-04052317583D

 86 94  0     1  0  0  0  0  0999 V2000
  -22.5806  -29.2158   22.6937 C   0  0  0  0  0  0  0  0  0  0  0  0
  -22.7840  -27.9109   23.1310 C   0  0  0  0  0  0  0  0  0  0  0  0
  -23.8584  -13.0310   20.2323 C   0  0  0  0  0  0  0  0  0  0  0  0
  -25.9249  -12.3100   21.2554 C   0  0  0  0  0  0  0  0  0  0  0  0
  -21.2913  -29.6587   22.4011 C   0  0  0  0  0  0  0  0  0  0  0  0
  -21.6981  -27.0484   23.2771 C   0  0  0  0  0  0  0  0  0  0  0  0
  -22.3572  -25.3195   18.6856 C   0  0  0  0  0  0  0  0  0  0  0  0
  -23.5373  -11.7042   19.9457 C   0  0  0  0  0  0  0  0  0  0  0  0
  -25.6038  -10.9832   20.9689 C   0  0  0  0  0  0  0  0  0  0  0  0
  -23.7377  -25.4515   18.5417 C   0  0  0  0  0  0  0  0  0  0  0  0
  -22.0044   -8.4787   19.2666 C   0  0  0  0  0  0  0  0  0  0  0  0
  -20.7025   -8.0545   19.5326 C   0  0  0  0  0  0  0  0  0  0  0  0
  -24.0662  -23.6048   20.0587 C   0  0  0  0  0  0  0  0  0  0  0  0
  -21.0015   -8.6011   21.8669 C   0  0  0  0  0  0  0  0  0  0  0  0
  -25.0522  -13.3339   20.8870 C   0  0  0  0  0  0  0  0  0  0  0  0
  -25.0600  -15.4256   22.3473 C   0  0  0  0  0  0  0  0  0  0  0  0
  -20.1901  -28.7983   22.5344 C   0  0  0  0  0  0  0  0  0  0  0  0
  -21.8202  -24.3346   19.5270 C   0  0  0  0  0  0  0  0  0  0  0  0
  -20.3927  -27.4806   22.9873 C   0  0  0  0  0  0  0  0  0  0  0  0
  -22.6785  -23.4608   20.2095 C   0  0  0  0  0  0  0  0  0  0  0  0
  -24.4100  -10.6803   20.3141 C   0  0  0  0  0  0  0  0  0  0  0  0
  -24.5925  -24.5959   19.2305 C   0  0  0  0  0  0  0  0  0  0  0  0
  -22.8049   -8.9640   20.3007 C   0  0  0  0  0  0  0  0  0  0  0  0
  -20.2010   -8.1157   20.8327 C   0  0  0  0  0  0  0  0  0  0  0  0
  -22.3034   -9.0252   21.6009 C   0  0  0  0  0  0  0  0  0  0  0  0
  -25.3847  -14.7044   21.1828 C   0  0  0  0  0  0  0  0  0  0  0  0
  -25.5983  -16.6722   22.1404 C   0  0  0  0  0  0  0  0  0  0  0  0
  -29.9174  -25.5734   19.6439 C   0  0  0  0  0  0  0  0  0  0  0  0
  -28.2003  -24.1302   19.5673 C   0  0  0  0  0  0  0  0  0  0  0  0
  -30.2222  -23.5095   18.8165 C   0  0  0  0  0  0  0  0  0  0  0  0
  -24.3366  -15.0063   23.5120 C   0  0  0  0  0  0  0  0  0  0  0  0
  -20.0204  -24.3604   22.1469 C   0  0  0  0  0  0  0  0  0  0  0  0
  -20.0336  -21.1453   21.7165 C   0  0  0  0  0  0  0  0  0  0  0  0
  -21.6256  -18.0210   20.8671 C   0  0  0  0  0  0  0  0  0  0  0  0
  -30.0809  -18.6202   19.0229 C   0  0  0  0  0  0  0  0  0  0  0  0
  -18.8099  -29.3365   22.2516 C   0  0  0  0  0  0  0  0  0  0  0  0
  -20.3283  -24.1880   19.6506 C   0  0  0  0  0  0  0  0  0  0  0  0
  -22.1519  -22.3738   21.1093 C   0  0  0  0  0  0  0  0  0  0  0  0
  -17.7558  -28.2468   22.0738 C   0  0  0  0  0  0  0  0  0  0  0  0
  -26.7492  -19.7337   18.6599 C   0  0  0  0  0  0  0  0  0  0  0  0
  -17.8765  -27.2020   23.1787 C   0  0  0  0  0  0  0  0  0  0  0  0
  -25.9800  -18.6261   19.3785 C   0  0  0  0  0  0  0  0  0  0  0  0
  -27.9113  -19.1822   17.8319 C   0  0  0  0  0  0  0  0  0  0  0  0
  -28.0666  -17.2104   19.3187 C   0  0  0  0  0  0  0  0  0  0  0  0
  -19.2430  -26.5077   23.1346 C   0  0  1  0  0  0  0  0  0  0  0  0
  -19.9016  -23.4818   20.9338 C   0  0  1  0  0  0  0  0  0  0  0  0
  -26.9307  -17.7433   20.2055 C   0  0  2  0  0  0  0  0  0  0  0  0
  -30.4590  -26.9184   19.9905 C   0  0  0  0  0  0  0  0  0  0  0  0
  -32.1238  -23.1074   17.2101 C   0  0  0  0  0  0  0  0  0  0  0  0
  -20.6882  -15.6974   20.7266 C   0  0  0  0  0  0  0  0  0  0  0  0
  -21.0086  -20.8895   24.5964 C   0  0  0  0  0  0  0  0  0  0  0  0
  -21.6805  -18.5324   24.0861 C   0  0  0  0  0  0  0  0  0  0  0  0
  -19.2843  -19.2069   23.9255 C   0  0  0  0  0  0  0  0  0  0  0  0
  -33.2000  -21.9883   19.6929 C   0  0  0  0  0  0  0  0  0  0  0  0
  -30.9367  -21.3218   20.5011 C   0  0  0  0  0  0  0  0  0  0  0  0
  -30.6380  -19.4466   16.6966 C   0  0  0  0  0  0  0  0  0  0  0  0
  -22.5616  -17.6871   18.0793 C   0  0  0  0  0  0  0  0  0  0  0  0
  -26.7572  -23.8126   19.8275 C   0  0  0  0  0  0  0  0  0  1  0  0
  -32.0426  -20.0607   18.6294 C   0  0  0  0  0  0  0  0  0  0  0  0
  -31.1145  -22.4799   18.2113 C   0  0  1  0  0  0  0  0  0  0  0  0
  -20.9181  -20.0094   22.1709 C   0  0  1  0  0  0  0  0  0  0  0  0
  -21.0799  -16.9434   19.9476 C   0  0  2  0  0  0  0  0  0  0  0  0
  -20.7332  -19.6812   23.6793 C   0  0  0  0  0  0  0  0  0  0  0  0
  -31.8161  -21.4756   19.2363 C   0  0  0  0  0  0  0  0  0  0  0  0
  -26.0756  -15.4322   20.3013 N   0  0  0  0  0  0  0  0  0  0  0  0
  -28.6173  -25.3610   19.9050 N   0  0  0  0  0  0  0  0  0  0  0  0
  -30.7791  -24.6974   19.1023 N   0  0  0  0  0  0  0  0  0  0  0  0
  -28.9433  -23.1546   19.0203 N   0  0  0  0  0  0  0  0  0  0  0  0
  -26.1894  -16.6238   20.9122 N   0  0  0  0  0  0  0  0  0  0  0  0
  -20.6860  -22.2748   21.2023 N   0  0  0  0  0  0  0  0  0  0  0  0
  -28.7663  -18.3080   18.6465 N   0  0  0  0  0  0  0  0  0  0  0  0
  -25.6189  -17.7940   22.8911 N   0  0  0  0  0  0  0  0  0  0  0  0
  -23.8529  -13.6917   23.5608 N   0  0  0  0  0  0  0  0  0  0  0  0
  -19.2750  -25.5217   22.0757 N   0  0  0  0  0  0  0  0  0  0  0  0
  -20.6376  -18.8909   21.2772 N   0  0  0  0  0  0  0  0  0  0  0  0
  -30.8269  -19.4217   18.1458 N   0  0  0  0  0  0  0  0  0  0  0  0
  -22.1026  -16.5613   18.9332 N   0  3  0  0  0  0  0  0  0  0  0  0
  -24.1111  -15.7794   24.4737 O   0  0  0  0  0  0  0  0  0  0  0  0
  -20.7343  -24.0098   23.0792 O   0  0  0  0  0  0  0  0  0  0  0  0
  -18.8087  -21.0316   21.8077 O   0  0  0  0  0  0  0  0  0  0  0  0
  -22.8093  -18.0824   21.1922 O   0  0  0  0  0  0  0  0  0  0  0  0
  -30.5659  -18.1996   20.0812 O   0  0  0  0  0  0  0  0  0  0  0  0
  -24.0969   -9.3855   20.0349 O   0  0  0  0  0  0  0  0  0  0  0  0
  -25.9403  -24.7229   19.0924 O   0  0  0  0  0  0  0  0  0  1  0  0
  -18.9503   -7.7098   21.0878 F   0  0  0  0  0  0  0  0  0  0  0  0
  -23.0672   -9.4916   22.5983 F   0  0  0  0  0  0  0  0  0  0  0  0
  1  2  1  0  0  0  0
  1  5  2  0  0  0  0
  2  6  2  0  0  0  0
  3  8  2  0  0  0  0
  3 15  1  0  0  0  0
  4  9  1  0  0  0  0
  4 15  2  0  0  0  0
  5 17  1  0  0  0  0
  6 19  1  0  0  0  0
  7 10  2  0  0  0  0
  7 18  1  0  0  0  0
  8 21  1  0  0  0  0
  9 21  2  0  0  0  0
 10 22  1  0  0  0  0
 11 12  2  0  0  0  0
 11 23  1  0  0  0  0
 12 24  1  0  0  0  0
 13 20  1  0  0  0  0
 13 22  2  0  0  0  0
 14 24  2  0  0  0  0
 14 25  1  0  0  0  0
 15 26  1  0  0  0  0
 16 26  1  0  0  0  0
 16 27  2  0  0  0  0
 16 31  1  0  0  0  0
 17 19  2  0  0  0  0
 17 36  1  0  0  0  0
 18 20  2  0  0  0  0
 18 37  1  0  0  0  0
 19 45  1  0  0  0  0
 20 38  1  0  0  0  0
 21 83  1  0  0  0  0
 22 84  1  0  0  0  0
 23 25  2  0  0  0  0
 23 83  1  0  0  0  0
 24 85  1  0  0  0  0
 25 86  1  0  0  0  0
 26 65  2  0  0  0  0
 27 69  1  0  0  0  0
 27 72  1  0  0  0  0
 28 48  1  0  0  0  0
 28 66  2  0  0  0  0
 28 67  1  0  0  0  0
 29 58  1  0  0  0  0
 29 66  1  0  0  0  0
 29 68  2  0  0  0  0
 30 60  1  0  0  0  0
 30 67  2  0  0  0  0
 30 68  1  0  0  0  0
 31 73  1  0  0  0  0
 31 78  2  0  0  0  0
 32 46  1  0  0  0  0
 32 74  1  0  0  0  0
 32 79  2  0  0  0  0
 33 61  1  0  0  0  0
 33 70  1  0  0  0  0
 33 80  2  0  0  0  0
 34 62  1  0  0  0  0
 34 75  1  0  0  0  0
 34 81  2  0  0  0  0
 35 71  1  0  0  0  0
 35 76  1  0  0  0  0
 35 82  2  0  0  0  0
 36 39  1  0  0  0  0
 37 46  1  0  0  0  0
 38 70  1  0  0  0  0
 39 41  1  0  0  0  0
 40 42  1  0  0  0  0
 40 43  1  0  0  0  0
 41 45  1  0  0  0  0
 42 47  1  0  0  0  0
 43 71  1  0  0  0  0
 44 47  1  0  0  0  0
 44 71  1  0  0  0  0
 45 74  1  0  0  0  0
 46 70  1  0  0  0  0
 47 69  1  0  0  0  0
 49 60  1  0  0  0  0
 50 62  1  0  0  0  0
 51 63  1  0  0  0  0
 52 63  1  0  0  0  0
 53 63  1  0  0  0  0
 54 64  1  0  0  0  0
 55 64  1  0  0  0  0
 56 76  1  0  0  0  0
 57 77  1  0  0  0  0
 58 84  1  0  0  0  0
 59 64  1  0  0  0  0
 59 76  1  0  0  0  0
 60 64  1  0  0  0  0
 61 63  1  0  0  0  0
 61 75  1  0  0  0  0
 62 77  1  0  0  0  0
 65 69  1  0  0  0  0
M  CHG  1  77   1
M  ISO  4  35 100  58 101  76 100  84 101
M  END
> <Batch ID>
0061

> <Smiles>
CNC(C)C(=O)NC(C(=O)N1Cc2cc([101O:1][101CH2:1]c3nc(C)nc(C(C)C(C)(C)C[100N:0](C)[100C:0](=O)N4CCCC(n5nc(-c6ccc(Oc7ccc(F)cc7F)cc6)c(C(N)=O)c5N)C4)n3)ccc2CC1C(=O)NC1CCCc2ccccc21)C(C)(C)C

> <Shape>
0.200

> <Color>
0.082

> <Negative vol penalty>
0.000

$$$$

  -OEChem-04052317583D

 82 90  0     1  0  0  0  0  0999 V2000
  -15.4157  -25.1049   26.8535 C   0  0  0  0  0  0  0  0  0  0  0  0
  -16.5084  -24.3478   26.4433 C   0  0  0  0  0  0  0  0  0  0  0  0
  -23.0517   -9.9192   19.9575 C   0  0  0  0  0  0  0  0  0  0  0  0
  -23.7302   -9.9711   22.2757 C   0  0  0  0  0  0  0  0  0  0  0  0
  -14.9610  -26.1574   26.0601 C   0  0  0  0  0  0  0  0  0  0  0  0
  -17.1464  -24.6422   25.2389 C   0  0  0  0  0  0  0  0  0  0  0  0
  -23.1268  -24.1346   24.0208 C   0  0  0  0  0  0  0  0  0  0  0  0
  -22.2831   -8.7825   20.2079 C   0  0  0  0  0  0  0  0  0  0  0  0
  -22.9615   -8.8345   22.5262 C   0  0  0  0  0  0  0  0  0  0  0  0
  -23.8728  -23.1469   23.3793 C   0  0  0  0  0  0  0  0  0  0  0  0
  -23.2243   -5.4964   22.0580 C   0  0  0  0  0  0  0  0  0  0  0  0
  -23.7994   -4.4805   22.8214 C   0  0  0  0  0  0  0  0  0  0  0  0
  -23.7449  -24.3964   21.3198 C   0  0  0  0  0  0  0  0  0  0  0  0
  -22.0414   -4.7180   24.4616 C   0  0  0  0  0  0  0  0  0  0  0  0
  -27.2868  -20.6877   20.7187 C   0  0  0  0  0  0  0  0  0  0  0  0
  -23.7754  -10.5135   20.9914 C   0  0  0  0  0  0  0  0  0  0  0  0
  -24.1573  -13.0302   20.8242 C   0  0  0  0  0  0  0  0  0  0  0  0
  -15.5998  -26.4710   24.8500 C   0  0  0  0  0  0  0  0  0  0  0  0
  -22.6741  -25.2572   23.3128 C   0  0  0  0  0  0  0  0  0  0  0  0
  -16.6991  -25.6990   24.4279 C   0  0  0  0  0  0  0  0  0  0  0  0
  -22.9954  -25.3982   21.9552 C   0  0  0  0  0  0  0  0  0  0  0  0
  -22.2379   -8.2402   21.4922 C   0  0  0  0  0  0  0  0  0  0  0  0
  -24.1795  -23.2763   22.0279 C   0  0  0  0  0  0  0  0  0  0  0  0
  -22.0579   -6.1232   22.4964 C   0  0  0  0  0  0  0  0  0  0  0  0
  -23.2079   -4.0912   24.0232 C   0  0  0  0  0  0  0  0  0  0  0  0
  -21.4664   -5.7340   23.6982 C   0  0  0  0  0  0  0  0  0  0  0  0
  -24.5700  -11.6874   20.7333 C   0  0  0  0  0  0  0  0  0  0  0  0
  -26.1312  -20.2686   21.3263 C   0  0  0  0  0  0  0  0  0  0  0  0
  -25.2723  -13.7559   20.4825 C   0  0  0  0  0  0  0  0  0  0  0  0
  -27.5285  -18.6266   19.8282 C   0  0  0  0  0  0  0  0  0  0  0  0
  -22.8804  -13.5730   21.1853 C   0  0  0  0  0  0  0  0  0  0  0  0
  -19.8188  -26.4577   22.5990 C   0  0  0  0  0  0  0  0  0  0  0  0
  -21.5790  -28.9086   21.4087 C   0  0  0  0  0  0  0  0  0  0  0  0
  -24.5591  -29.9887   20.1440 C   0  0  0  0  0  0  0  0  0  0  0  0
  -30.8626  -14.4078   21.2829 C   0  0  0  0  0  0  0  0  0  0  0  0
  -15.0430  -27.5879   24.0033 C   0  0  0  0  0  0  0  0  0  0  0  0
  -21.8932  -26.3269   24.0258 C   0  0  0  0  0  0  0  0  0  0  0  0
  -22.5506  -26.5941   21.1550 C   0  0  0  0  0  0  0  0  0  0  0  0
  -16.0068  -28.0720   22.9231 C   0  0  0  0  0  0  0  0  0  0  0  0
  -29.6736  -12.3126   18.4726 C   0  0  0  0  0  0  0  0  0  0  0  0
  -16.6208  -26.8865   22.1852 C   0  0  0  0  0  0  0  0  0  0  0  0
  -28.2260  -12.0205   18.8640 C   0  0  0  0  0  0  0  0  0  0  0  0
  -30.5564  -12.5430   19.6954 C   0  0  0  0  0  0  0  0  0  0  0  0
  -28.6030  -13.3079   21.0044 C   0  0  0  0  0  0  0  0  0  0  0  0
  -17.4331  -26.0031   23.1399 C   0  0  1  0  0  0  0  0  0  0  0  0
  -21.0460  -27.1766   23.0836 C   0  0  1  0  0  0  0  0  0  0  0  0
  -27.6772  -13.1169   19.7936 C   0  0  2  0  0  0  0  0  0  0  0  0
  -25.6828  -32.0351   19.2238 C   0  0  0  0  0  0  0  0  0  0  0  0
  -20.0622  -28.5585   18.7844 C   0  0  0  0  0  0  0  0  0  0  0  0
  -21.8317  -29.9268   17.6598 C   0  0  0  0  0  0  0  0  0  0  0  0
  -20.4359  -30.9361   19.4641 C   0  0  0  0  0  0  0  0  0  0  0  0
  -31.2757  -16.6230   22.2838 C   0  0  0  0  0  0  0  0  0  0  0  0
  -26.5975  -29.9759   22.2896 C   0  0  0  0  0  0  0  0  0  0  0  0
  -25.3237  -21.1972   22.1847 C   0  0  0  0  0  0  0  0  0  1  0  0
  -28.3004  -17.6723   18.9837 C   0  0  0  0  0  0  0  0  0  0  0  0
  -29.5321  -17.0560   19.6775 C   0  0  0  0  0  0  0  0  0  0  0  0
  -29.2146  -16.3017   20.9669 C   0  0  0  0  0  0  0  0  0  0  0  0
  -22.1989  -29.2281   20.0698 C   0  0  1  0  0  0  0  0  0  0  0  0
  -25.4095  -31.2038   20.4676 C   0  0  2  0  0  0  0  0  0  0  0  0
  -21.1391  -29.6388   19.0089 C   0  0  0  0  0  0  0  0  0  0  0  0
  -28.0192  -19.8691   19.9483 N   0  0  0  0  0  0  0  0  0  0  0  0
  -25.8474  -11.5645   20.3627 N   0  0  0  0  0  0  0  0  0  0  0  0
  -25.6876  -19.0082   21.1692 N   0  0  0  0  0  0  0  0  0  0  0  0
  -26.4015  -18.1596   20.4006 N   0  0  0  0  0  0  0  0  0  0  0  0
  -26.2469  -12.8394   20.2176 N   0  0  0  0  0  0  0  0  0  0  0  0
  -21.7841  -27.6099   21.8955 N   0  0  0  0  0  0  0  0  0  0  0  0
  -29.9895  -13.5586   20.5832 N   0  0  0  0  0  0  0  0  0  0  0  0
  -25.5041  -15.0823   20.3856 N   0  0  0  0  0  0  0  0  0  0  0  0
  -21.8443  -12.6859   21.5076 N   0  0  0  0  0  0  0  0  0  0  0  0
  -18.7173  -26.6089   23.4196 N   0  0  0  0  0  0  0  0  0  0  0  0
  -23.2157  -30.2433   20.3226 N   0  0  0  0  0  0  0  0  0  0  0  0
  -30.4025  -15.7018   21.5703 N   0  0  0  0  0  0  0  0  0  0  0  0
  -26.7160  -30.7821   21.0474 N   0  3  0  0  0  0  0  0  0  0  0  0
  -22.6599  -14.8077   21.2051 O   0  0  0  0  0  0  0  0  0  0  0  0
  -19.8672  -25.8147   21.5569 O   0  0  0  0  0  0  0  0  0  0  0  0
  -20.9424  -29.7815   22.0041 O   0  0  0  0  0  0  0  0  0  0  0  0
  -25.0382  -28.9216   19.7668 O   0  0  0  0  0  0  0  0  0  0  0  0
  -31.9926  -14.0340   21.6224 O   0  0  0  0  0  0  0  0  0  0  0  0
  -21.4878   -7.1312   21.7370 O   0  0  0  0  0  0  0  0  0  0  0  0
  -24.9070  -22.3133   21.3991 O   0  0  0  0  0  0  0  0  0  1  0  0
  -23.7594   -3.1146   24.7554 F   0  0  0  0  0  0  0  0  0  0  0  0
  -20.3451   -6.3317   24.1240 F   0  0  0  0  0  0  0  0  0  0  0  0
  1  2  1  0  0  0  0
  1  5  2  0  0  0  0
  2  6  2  0  0  0  0
  3  8  2  0  0  0  0
  3 16  1  0  0  0  0
  4  9  1  0  0  0  0
  4 16  2  0  0  0  0
  5 18  1  0  0  0  0
  6 20  1  0  0  0  0
  7 10  2  0  0  0  0
  7 19  1  0  0  0  0
  8 22  1  0  0  0  0
  9 22  2  0  0  0  0
 10 23  1  0  0  0  0
 11 12  2  0  0  0  0
 11 24  1  0  0  0  0
 12 25  1  0  0  0  0
 13 21  1  0  0  0  0
 13 23  2  0  0  0  0
 14 25  2  0  0  0  0
 14 26  1  0  0  0  0
 15 28  1  0  0  0  0
 15 61  2  0  0  0  0
 16 27  1  0  0  0  0
 17 27  1  0  0  0  0
 17 29  2  0  0  0  0
 17 31  1  0  0  0  0
 18 20  2  0  0  0  0
 18 36  1  0  0  0  0
 19 21  2  0  0  0  0
 19 37  1  0  0  0  0
 20 45  1  0  0  0  0
 21 38  1  0  0  0  0
 22 79  1  0  0  0  0
 23 80  1  0  0  0  0
 24 26  2  0  0  0  0
 24 79  1  0  0  0  0
 25 81  1  0  0  0  0
 26 82  1  0  0  0  0
 27 62  2  0  0  0  0
 28 54  1  0  0  0  0
 28 63  2  0  0  0  0
 29 65  1  0  0  0  0
 29 68  1  0  0  0  0
 30 55  1  0  0  0  0
 30 61  1  0  0  0  0
 30 64  2  0  0  0  0
 31 69  1  0  0  0  0
 31 74  2  0  0  0  0
 32 46  1  0  0  0  0
 32 70  1  0  0  0  0
 32 75  2  0  0  0  0
 33 58  1  0  0  0  0
 33 66  1  0  0  0  0
 33 76  2  0  0  0  0
 34 59  1  0  0  0  0
 34 71  1  0  0  0  0
 34 77  2  0  0  0  0
 35 67  1  0  0  0  0
 35 72  1  0  0  0  0
 35 78  2  0  0  0  0
 36 39  1  0  0  0  0
 37 46  1  0  0  0  0
 38 66  1  0  0  0  0
 39 41  1  0  0  0  0
 40 42  1  0  0  0  0
 40 43  1  0  0  0  0
 41 45  1  0  0  0  0
 42 47  1  0  0  0  0
 43 67  1  0  0  0  0
 44 47  1  0  0  0  0
 44 67  1  0  0  0  0
 45 70  1  0  0  0  0
 46 66  1  0  0  0  0
 47 65  1  0  0  0  0
 48 59  1  0  0  0  0
 49 60  1  0  0  0  0
 50 60  1  0  0  0  0
 51 60  1  0  0  0  0
 52 72  1  0  0  0  0
 53 73  1  0  0  0  0
 54 80  1  0  0  0  0
 55 56  1  0  0  0  0
 56 57  1  0  0  0  0
 57 72  1  0  0  0  0
 58 60  1  0  0  0  0
 58 71  1  0  0  0  0
 59 73  1  0  0  0  0
 62 65  1  0  0  0  0
 63 64  1  0  0  0  0
M  CHG  1  73   1
M  ISO  4  35 100  54 101  72 100  80 101
M  END
> <Batch ID>
0061

> <Smiles>
CNC(C)C(=O)NC(C(=O)N1Cc2cc([101O:1][101CH2:1]c3cnc(CCC[100N:0](C)[100C:0](=O)N4CCCC(n5nc(-c6ccc(Oc7ccc(F)cc7F)cc6)c(C(N)=O)c5N)C4)nn3)ccc2CC1C(=O)NC1CCCc2ccccc21)C(C)(C)C

> <Shape>
0.320

> <Color>
0.178

> <Negative vol penalty>
0.000

$$$$

  -OEChem-04052317582D

  0  0  0     0  0  0  0  0  0999 V2000
M  END
$$$$

  -OEChem-04052317583D

 81 89  0     1  0  0  0  0  0999 V2000
  -20.6130  -16.6817   19.3148 C   0  0  0  0  0  0  0  0  0  0  0  0
  -21.7618  -17.4206   19.5789 C   0  0  0  0  0  0  0  0  0  0  0  0
  -23.0087  -28.7475   22.3139 C   0  0  0  0  0  0  0  0  0  0  0  0
  -22.6562  -26.4095   21.8172 C   0  0  0  0  0  0  0  0  0  0  0  0
  -20.5329  -15.3505   19.7214 C   0  0  0  0  0  0  0  0  0  0  0  0
  -22.8309  -16.8288   20.2506 C   0  0  0  0  0  0  0  0  0  0  0  0
  -27.2971  -17.8960   18.1154 C   0  0  0  0  0  0  0  0  0  0  0  0
  -21.7957  -28.7843   23.0016 C   0  0  0  0  0  0  0  0  0  0  0  0
  -21.4431  -26.4463   22.5049 C   0  0  0  0  0  0  0  0  0  0  0  0
  -27.8413  -19.1536   18.3721 C   0  0  0  0  0  0  0  0  0  0  0  0
  -18.6193  -29.5840   24.5811 C   0  0  0  0  0  0  0  0  0  0  0  0
  -17.7703  -30.6650   24.3441 C   0  0  0  0  0  0  0  0  0  0  0  0
  -27.3411  -22.6915   19.5291 C   0  0  0  0  0  0  0  0  0  0  0  0
  -29.2884  -18.1806   20.0389 C   0  0  0  0  0  0  0  0  0  0  0  0
  -17.6563  -30.0629   22.0070 C   0  0  0  0  0  0  0  0  0  0  0  0
  -26.3196  -23.4009   18.9463 C   0  0  0  0  0  0  0  0  0  0  0  0
  -23.4389  -27.5601   21.7217 C   0  0  0  0  0  0  0  0  0  0  0  0
  -25.9603  -27.2176   21.5398 C   0  0  0  0  0  0  0  0  0  0  0  0
  -21.6054  -14.7393   20.3899 C   0  0  0  0  0  0  0  0  0  0  0  0
  -27.7375  -16.7710   18.8274 C   0  0  0  0  0  0  0  0  0  0  0  0
  -22.7646  -15.4885   20.6677 C   0  0  0  0  0  0  0  0  0  0  0  0
  -28.7500  -16.9094   19.7875 C   0  0  0  0  0  0  0  0  0  0  0  0
  -21.0129  -27.6338   23.0971 C   0  0  0  0  0  0  0  0  0  0  0  0
  -28.8350  -19.2966   19.3360 C   0  0  0  0  0  0  0  0  0  0  0  0
  -18.9870  -28.7425   23.5311 C   0  0  0  0  0  0  0  0  0  0  0  0
  -17.2887  -30.9044   23.0570 C   0  0  0  0  0  0  0  0  0  0  0  0
  -18.5054  -28.9819   22.2441 C   0  0  0  0  0  0  0  0  0  0  0  0
  -24.6916  -27.5215   21.0108 C   0  0  0  0  0  0  0  0  0  0  0  0
  -28.1398  -22.2723   18.4482 C   0  0  0  0  0  0  0  0  0  0  0  0
  -26.8122  -27.3162   20.4669 C   0  0  0  0  0  0  0  0  0  0  0  0
  -26.3352  -26.8766   22.8810 C   0  0  0  0  0  0  0  0  0  0  0  0
  -26.3694  -14.6879   20.8002 C   0  0  0  0  0  0  0  0  0  0  0  0
  -29.2492  -13.2073   20.6085 C   0  0  0  0  0  0  0  0  0  0  0  0
  -32.5963  -13.4504   19.9880 C   0  0  0  0  0  0  0  0  0  0  0  0
  -25.4834  -26.9083   14.4998 C   0  0  0  0  0  0  0  0  0  0  0  0
  -21.4540  -13.3115   20.8518 C   0  0  0  0  0  0  0  0  0  0  0  0
  -27.1593  -15.4170   18.5198 C   0  0  0  0  0  0  0  0  0  0  0  0
  -29.2720  -15.7298   20.5651 C   0  0  0  0  0  0  0  0  0  0  0  0
  -22.7772  -12.6492   21.2269 C   0  0  0  0  0  0  0  0  0  0  0  0
  -27.3409  -29.5665   16.2846 C   0  0  0  0  0  0  0  0  0  0  0  0
  -23.6068  -13.5762   22.1097 C   0  0  0  0  0  0  0  0  0  0  0  0
  -26.9157  -29.3527   17.7363 C   0  0  0  0  0  0  0  0  0  0  0  0
  -26.2656  -29.1064   15.3050 C   0  0  0  0  0  0  0  0  0  0  0  0
  -25.4026  -27.4848   16.9603 C   0  0  0  0  0  0  0  0  0  0  0  0
  -23.9551  -14.8747   21.3721 C   0  0  1  0  0  0  0  0  0  0  0  0
  -27.3199  -14.4241   19.6669 C   0  0  1  0  0  0  0  0  0  0  0  0
  -26.4830  -27.8952   17.9723 C   0  0  2  0  0  0  0  0  0  0  0  0
  -30.6493  -22.3188   18.6560 C   0  0  0  0  0  0  0  0  0  0  0  0
  -34.6970  -12.0784   19.9479 C   0  0  0  0  0  0  0  0  0  0  0  0
  -29.3389  -13.2600   23.6580 C   0  0  0  0  0  0  0  0  0  0  0  0
  -31.7914  -12.7747   23.5248 C   0  0  0  0  0  0  0  0  0  0  0  0
  -30.1456  -11.1290   22.6273 C   0  0  0  0  0  0  0  0  0  0  0  0
  -25.3726  -24.6376   13.5453 C   0  0  0  0  0  0  0  0  0  0  0  0
  -33.0240  -13.9781   17.1074 C   0  0  0  0  0  0  0  0  0  0  0  0
  -25.7527  -23.9741   16.5738 C   0  0  0  0  0  0  0  0  0  0  0  0
  -26.5393  -24.9450   15.6971 C   0  0  0  0  0  0  0  0  0  0  0  0
  -29.4070  -21.4502   18.5048 C   0  0  1  0  0  0  0  0  0  1  0  0
  -30.5465  -13.2891   21.3762 C   0  0  1  0  0  0  0  0  0  0  0  0
  -33.5263  -12.6074   19.1342 C   0  0  2  0  0  0  0  0  0  0  0  0
  -30.4446  -12.6359   22.7834 C   0  0  0  0  0  0  0  0  0  0  0  0
  -24.7295  -27.7930   19.7035 N   0  0  0  0  0  0  0  0  0  0  0  0
  -27.6663  -22.6811   17.2682 N   0  0  0  0  0  0  0  0  0  0  0  0
  -26.5589  -23.3646   17.6040 N   0  0  0  0  0  0  0  0  0  0  0  0
  -26.0324  -27.6601   19.4021 N   0  0  0  0  0  0  0  0  0  0  0  0
  -28.6705  -14.4278   20.2327 N   0  0  0  0  0  0  0  0  0  0  0  0
  -25.8419  -27.7328   15.5790 N   0  0  0  0  0  0  0  0  0  0  0  0
  -28.1448  -27.1415   20.3400 N   0  0  0  0  0  0  0  0  0  0  0  0
  -25.3344  -26.8202   23.8606 N   0  0  0  0  0  0  0  0  0  0  0  0
  -25.0366  -14.6504   20.4371 N   0  0  0  0  0  0  0  0  0  0  0  0
  -31.5674  -12.6998   20.5164 N   0  0  0  0  0  0  0  0  0  0  0  0
  -25.7168  -25.5320   14.6414 N   0  0  0  0  0  0  0  0  0  0  0  0
  -34.0662  -13.4150   18.0040 N   0  3  0  0  0  0  0  0  0  0  0  0
  -27.5248  -26.6454   23.2047 O   0  0  0  0  0  0  0  0  0  0  0  0
  -26.8122  -14.9075   21.9215 O   0  0  0  0  0  0  0  0  0  0  0  0
  -28.7708  -12.1011   20.3457 O   0  0  0  0  0  0  0  0  0  0  0  0
  -32.7676  -14.6536   20.1710 O   0  0  0  0  0  0  0  0  0  0  0  0
  -24.9921  -27.3768   13.4649 O   0  0  0  0  0  0  0  0  0  0  0  0
  -19.8293  -27.6693   23.7682 O   0  0  0  0  0  0  0  0  0  0  0  0
  -29.3674  -20.5231   19.5889 O   0  0  0  0  0  0  0  0  0  1  0  0
  -16.4722  -31.9416   22.8298 F   0  0  0  0  0  0  0  0  0  0  0  0
  -18.8541  -28.1763   21.2316 F   0  0  0  0  0  0  0  0  0  0  0  0
  1  2  1  0  0  0  0
  1  5  2  0  0  0  0
  2  6  2  0  0  0  0
  3  8  2  0  0  0  0
  3 17  1  0  0  0  0
  4  9  1  0  0  0  0
  4 17  2  0  0  0  0
  5 19  1  0  0  0  0
  6 21  1  0  0  0  0
  7 10  2  0  0  0  0
  7 20  1  0  0  0  0
  8 23  1  0  0  0  0
  9 23  2  0  0  0  0
 10 24  1  0  0  0  0
 11 12  2  0  0  0  0
 11 25  1  0  0  0  0
 12 26  1  0  0  0  0
 13 16  2  0  0  0  0
 13 29  1  0  0  0  0
 14 22  1  0  0  0  0
 14 24  2  0  0  0  0
 15 26  2  0  0  0  0
 15 27  1  0  0  0  0
 16 63  1  0  0  0  0
 17 28  1  0  0  0  0
 18 28  1  0  0  0  0
 18 30  2  0  0  0  0
 18 31  1  0  0  0  0
 19 21  2  0  0  0  0
 19 36  1  0  0  0  0
 20 22  2  0  0  0  0
 20 37  1  0  0  0  0
 21 45  1  0  0  0  0
 22 38  1  0  0  0  0
 23 78  1  0  0  0  0
 24 79  1  0  0  0  0
 25 27  2  0  0  0  0
 25 78  1  0  0  0  0
 26 80  1  0  0  0  0
 27 81  1  0  0  0  0
 28 61  2  0  0  0  0
 29 57  1  0  0  0  0
 29 62  2  0  0  0  0
 30 64  1  0  0  0  0
 30 67  1  0  0  0  0
 31 68  1  0  0  0  0
 31 73  2  0  0  0  0
 32 46  1  0  0  0  0
 32 69  1  0  0  0  0
 32 74  2  0  0  0  0
 33 58  1  0  0  0  0
 33 65  1  0  0  0  0
 33 75  2  0  0  0  0
 34 59  1  0  0  0  0
 34 70  1  0  0  0  0
 34 76  2  0  0  0  0
 35 66  1  0  0  0  0
 35 71  1  0  0  0  0
 35 77  2  0  0  0  0
 36 39  1  0  0  0  0
 37 46  1  0  0  0  0
 38 65  1  0  0  0  0
 39 41  1  0  0  0  0
 40 42  1  0  0  0  0
 40 43  1  0  0  0  0
 41 45  1  0  0  0  0
 42 47  1  0  0  0  0
 43 66  1  0  0  0  0
 44 47  1  0  0  0  0
 44 66  1  0  0  0  0
 45 69  1  0  0  0  0
 46 65  1  0  0  0  0
 47 64  1  0  0  0  0
 48 57  1  0  0  0  0
 49 59  1  0  0  0  0
 50 60  1  0  0  0  0
 51 60  1  0  0  0  0
 52 60  1  0  0  0  0
 53 71  1  0  0  0  0
 54 72  1  0  0  0  0
 55 56  1  0  0  0  0
 55 63  1  0  0  0  0
 56 71  1  0  0  0  0
 57 79  1  0  0  0  0
 58 60  1  0  0  0  0
 58 70  1  0  0  0  0
 59 72  1  0  0  0  0
 61 64  1  0  0  0  0
 62 63  1  0  0  0  0
M  CHG  1  72   1
M  ISO  4  35 100  57 101  71 100  79 101
M  END
> <Batch ID>
0061

> <Smiles>
CNC(C)C(=O)NC(C(=O)N1Cc2cc([101O:1][101CH:1](C)c3ccn(CC[100N:0](C)[100C:0](=O)N4CCCC(n5nc(-c6ccc(Oc7ccc(F)cc7F)cc6)c(C(N)=O)c5N)C4)n3)ccc2CC1C(=O)NC1CCCc2ccccc21)C(C)(C)C

> <Shape>
0.209

> <Color>
0.077

> <Negative vol penalty>
0.000

$$$$

  -OEChem-04052317583D

 80 88  0     1  0  0  0  0  0999 V2000
  -17.7572  -30.1001   24.8305 C   0  0  0  0  0  0  0  0  0  0  0  0
  -18.6904  -29.1057   25.1060 C   0  0  0  0  0  0  0  0  0  0  0  0
  -23.8319   -9.8949   22.4104 C   0  0  0  0  0  0  0  0  0  0  0  0
  -24.4647  -11.6016   23.9990 C   0  0  0  0  0  0  0  0  0  0  0  0
  -17.5243  -30.4899   23.5123 C   0  0  0  0  0  0  0  0  0  0  0  0
  -19.3904  -28.4998   24.0632 C   0  0  0  0  0  0  0  0  0  0  0  0
  -25.7685  -25.6049   22.5613 C   0  0  0  0  0  0  0  0  0  0  0  0
  -23.3720   -9.0931   23.4550 C   0  0  0  0  0  0  0  0  0  0  0  0
  -24.0048  -10.7998   25.0437 C   0  0  0  0  0  0  0  0  0  0  0  0
  -26.3257  -24.4401   22.0355 C   0  0  0  0  0  0  0  0  0  0  0  0
  -20.6344   -8.9037   25.4305 C   0  0  0  0  0  0  0  0  0  0  0  0
  -19.3989   -8.2765   25.2707 C   0  0  0  0  0  0  0  0  0  0  0  0
  -25.8979  -25.2500   19.8039 C   0  0  0  0  0  0  0  0  0  0  0  0
  -20.4618   -6.1205   25.5138 C   0  0  0  0  0  0  0  0  0  0  0  0
  -27.1756  -20.0829   19.6972 C   0  0  0  0  0  0  0  0  0  0  0  0
  -29.8324  -19.8508   19.5741 C   0  0  0  0  0  0  0  0  0  0  0  0
  -24.3783  -11.1492   22.6824 C   0  0  0  0  0  0  0  0  0  0  0  0
  -24.1170  -12.9300   20.8746 C   0  0  0  0  0  0  0  0  0  0  0  0
  -18.2287  -29.8952   22.4536 C   0  0  0  0  0  0  0  0  0  0  0  0
  -25.2611  -26.5979   21.7111 C   0  0  0  0  0  0  0  0  0  0  0  0
  -19.1657  -28.8811   22.7295 C   0  0  0  0  0  0  0  0  0  0  0  0
  -25.3371  -26.4276   20.3213 C   0  0  0  0  0  0  0  0  0  0  0  0
  -23.4584   -9.5456   24.7716 C   0  0  0  0  0  0  0  0  0  0  0  0
  -26.3878  -24.2612   20.6567 C   0  0  0  0  0  0  0  0  0  0  0  0
  -21.7837   -8.1393   25.6319 C   0  0  0  0  0  0  0  0  0  0  0  0
  -19.3125   -6.8849   25.3124 C   0  0  0  0  0  0  0  0  0  0  0  0
  -21.6974   -6.7477   25.6736 C   0  0  0  0  0  0  0  0  0  0  0  0
  -24.8540  -11.9777   21.6038 C   0  0  0  0  0  0  0  0  0  0  0  0
  -27.9986  -21.0001   20.3128 C   0  0  0  0  0  0  0  0  0  0  0  0
  -29.0095  -18.9331   18.9591 C   0  0  0  0  0  0  0  0  0  0  0  0
  -25.0157  -13.4402   19.9698 C   0  0  0  0  0  0  0  0  0  0  0  0
  -22.7430  -13.3188   21.0037 C   0  0  0  0  0  0  0  0  0  0  0  0
  -22.3990  -27.8967   21.2364 C   0  0  0  0  0  0  0  0  0  0  0  0
  -24.0536  -29.8727   19.2666 C   0  0  0  0  0  0  0  0  0  0  0  0
  -26.8113  -30.3805   17.3214 C   0  0  0  0  0  0  0  0  0  0  0  0
  -30.0876  -15.4115   18.7309 C   0  0  0  0  0  0  0  0  0  0  0  0
  -17.9086  -30.3166   21.0413 C   0  0  0  0  0  0  0  0  0  0  0  0
  -24.6875  -27.8605   22.2935 C   0  0  0  0  0  0  0  0  0  0  0  0
  -24.8249  -27.4725   19.3652 C   0  0  0  0  0  0  0  0  0  0  0  0
  -18.9629  -29.8879   20.0239 C   0  0  0  0  0  0  0  0  0  0  0  0
  -29.6557  -11.8775   18.6994 C   0  0  0  0  0  0  0  0  0  0  0  0
  -19.3488  -28.4277   20.2382 C   0  0  0  0  0  0  0  0  0  0  0  0
  -28.3109  -11.6671   19.3973 C   0  0  0  0  0  0  0  0  0  0  0  0
  -30.4396  -13.0314   19.3207 C   0  0  0  0  0  0  0  0  0  0  0  0
  -28.3585  -14.0963   20.1010 C   0  0  0  0  0  0  0  0  0  0  0  0
  -19.9628  -28.2176   21.6275 C   0  0  1  0  0  0  0  0  0  0  0  0
  -23.7341  -28.5778   21.3428 C   0  0  1  0  0  0  0  0  0  0  0  0
  -27.5073  -12.9792   19.4734 C   0  0  2  0  0  0  0  0  0  0  0  0
  -29.1866  -17.7789   16.7234 C   0  0  0  0  0  0  0  0  0  0  0  0
  -27.8667  -32.0786   15.8048 C   0  0  0  0  0  0  0  0  0  0  0  0
  -22.0658  -29.1426   17.0698 C   0  0  0  0  0  0  0  0  0  0  0  0
  -23.6778  -30.0763   15.3972 C   0  0  0  0  0  0  0  0  0  0  0  0
  -22.6962  -31.5616   17.1445 C   0  0  0  0  0  0  0  0  0  0  0  0
  -29.2025  -30.6092   19.0502 C   0  0  0  0  0  0  0  0  0  0  0  0
  -27.4172  -22.1575   21.0703 C   0  0  0  0  0  0  0  0  0  1  0  0
  -29.5864  -17.7850   18.2072 C   0  0  2  0  0  0  0  0  0  0  0  0
  -24.4366  -29.8514   17.8065 C   0  0  1  0  0  0  0  0  0  0  0  0
  -27.7764  -31.5484   17.2273 C   0  0  2  0  0  0  0  0  0  0  0  0
  -23.2271  -30.1373   16.8723 C   0  0  0  0  0  0  0  0  0  0  0  0
  -29.3417  -20.9007   20.2621 N   0  0  0  0  0  0  0  0  0  0  0  0
  -27.6663  -19.0327   19.0095 N   0  0  0  0  0  0  0  0  0  0  0  0
  -26.1230  -11.8863   21.1973 N   0  0  0  0  0  0  0  0  0  0  0  0
  -26.1904  -12.7876   20.2028 N   0  0  0  0  0  0  0  0  0  0  0  0
  -24.2673  -28.6868   19.9834 N   0  0  0  0  0  0  0  0  0  0  0  0
  -29.6218  -14.2461   19.3617 N   0  0  0  0  0  0  0  0  0  0  0  0
  -24.9076  -14.3788   19.0056 N   0  0  0  0  0  0  0  0  0  0  0  0
  -21.9613  -12.6941   21.9851 N   0  0  0  0  0  0  0  0  0  0  0  0
  -21.3352  -28.6765   21.6483 N   0  0  0  0  0  0  0  0  0  0  0  0
  -25.5404  -30.7942   17.6603 N   0  0  0  0  0  0  0  0  0  0  0  0
  -29.2482  -16.5159   18.8119 N   0  0  0  0  0  0  0  0  0  0  0  0
  -29.1397  -31.1301   17.6603 N   0  3  0  0  0  0  0  0  0  0  0  0
  -22.2196  -14.1824   20.2596 O   0  0  0  0  0  0  0  0  0  0  0  0
  -22.3383  -26.7492   20.8107 O   0  0  0  0  0  0  0  0  0  0  0  0
  -23.5887  -30.9057   19.7549 O   0  0  0  0  0  0  0  0  0  0  0  0
  -27.1501  -29.2179   17.1113 O   0  0  0  0  0  0  0  0  0  0  0  0
  -31.1688  -15.4624   18.1348 O   0  0  0  0  0  0  0  0  0  0  0  0
  -23.0096   -8.7635   25.7912 O   0  0  0  0  0  0  0  0  0  0  0  0
  -26.9306  -23.1249   20.1408 O   0  0  0  0  0  0  0  0  0  1  0  0
  -18.1257   -6.2828   25.1605 F   0  0  0  0  0  0  0  0  0  0  0  0
  -22.7979   -6.0082   25.8679 F   0  0  0  0  0  0  0  0  0  0  0  0
  1  2  1  0  0  0  0
  1  5  2  0  0  0  0
  2  6  2  0  0  0  0
  3  8  2  0  0  0  0
  3 17  1  0  0  0  0
  4  9  1  0  0  0  0
  4 17  2  0  0  0  0
  5 19  1  0  0  0  0
  6 21  1  0  0  0  0
  7 10  2  0  0  0  0
  7 20  1  0  0  0  0
  8 23  1  0  0  0  0
  9 23  2  0  0  0  0
 10 24  1  0  0  0  0
 11 12  2  0  0  0  0
 11 25  1  0  0  0  0
 12 26  1  0  0  0  0
 13 22  1  0  0  0  0
 13 24  2  0  0  0  0
 14 26  2  0  0  0  0
 14 27  1  0  0  0  0
 15 29  1  0  0  0  0
 15 61  2  0  0  0  0
 16 30  2  0  0  0  0
 16 60  1  0  0  0  0
 17 28  1  0  0  0  0
 18 28  1  0  0  0  0
 18 31  2  0  0  0  0
 18 32  1  0  0  0  0
 19 21  2  0  0  0  0
 19 37  1  0  0  0  0
 20 22  2  0  0  0  0
 20 38  1  0  0  0  0
 21 46  1  0  0  0  0
 22 39  1  0  0  0  0
 23 77  1  0  0  0  0
 24 78  1  0  0  0  0
 25 27  2  0  0  0  0
 25 77  1  0  0  0  0
 26 79  1  0  0  0  0
 27 80  1  0  0  0  0
 28 62  2  0  0  0  0
 29 55  1  0  0  0  0
 29 60  2  0  0  0  0
 30 56  1  0  0  0  0
 30 61  1  0  0  0  0
 31 63  1  0  0  0  0
 31 66  1  0  0  0  0
 32 67  1  0  0  0  0
 32 72  2  0  0  0  0
 33 47  1  0  0  0  0
 33 68  1  0  0  0  0
 33 73  2  0  0  0  0
 34 57  1  0  0  0  0
 34 64  1  0  0  0  0
 34 74  2  0  0  0  0
 35 58  1  0  0  0  0
 35 69  1  0  0  0  0
 35 75  2  0  0  0  0
 36 65  1  0  0  0  0
 36 70  1  0  0  0  0
 36 76  2  0  0  0  0
 37 40  1  0  0  0  0
 38 47  1  0  0  0  0
 39 64  1  0  0  0  0
 40 42  1  0  0  0  0
 41 43  1  0  0  0  0
 41 44  1  0  0  0  0
 42 46  1  0  0  0  0
 43 48  1  0  0  0  0
 44 65  1  0  0  0  0
 45 48  1  0  0  0  0
 45 65  1  0  0  0  0
 46 68  1  0  0  0  0
 47 64  1  0  0  0  0
 48 63  1  0  0  0  0
 49 56  1  0  0  0  0
 50 58  1  0  0  0  0
 51 59  1  0  0  0  0
 52 59  1  0  0  0  0
 53 59  1  0  0  0  0
 54 71  1  0  0  0  0
 55 78  1  0  0  0  0
 56 70  1  0  0  0  0
 57 59  1  0  0  0  0
 57 69  1  0  0  0  0
 58 71  1  0  0  0  0
 62 63  1  0  0  0  0
M  CHG  1  71   1
M  ISO  4  36 100  55 101  70 100  78 101
M  END
> <Batch ID>
0061

> <Smiles>
CNC(C)C(=O)NC(C(=O)N1Cc2cc([101O:1][101CH2:1]c3cnc(C(C)[100NH:0][100C:0](=O)N4CCCC(n5nc(-c6ccc(Oc7ccc(F)cc7F)cc6)c(C(N)=O)c5N)C4)cn3)ccc2CC1C(=O)NC1CCCc2ccccc21)C(C)(C)C

> <Shape>
0.225

> <Color>
0.123

> <Negative vol penalty>
0.000

$$$$

  -OEChem-04052317583D

 90 98  0     1  0  0  0  0  0999 V2000
  -20.3873  -17.8713   16.7254 C   0  0  0  0  0  0  0  0  0  0  0  0
  -21.4818  -18.4642   17.3466 C   0  0  0  0  0  0  0  0  0  0  0  0
  -19.3026  -24.2001   20.0910 C   0  0  0  0  0  0  0  0  0  0  0  0
  -19.5375  -23.8689   22.4726 C   0  0  0  0  0  0  0  0  0  0  0  0
  -20.1143  -16.5205   16.9369 C   0  0  0  0  0  0  0  0  0  0  0  0
  -22.3033  -17.7068   18.1808 C   0  0  0  0  0  0  0  0  0  0  0  0
  -27.2265  -18.5382   17.3344 C   0  0  0  0  0  0  0  0  0  0  0  0
  -18.8239  -22.8969   19.9569 C   0  0  0  0  0  0  0  0  0  0  0  0
  -19.0587  -22.5657   22.3386 C   0  0  0  0  0  0  0  0  0  0  0  0
  -27.7756  -19.7048   17.8649 C   0  0  0  0  0  0  0  0  0  0  0  0
  -20.2541  -19.5618   21.3493 C   0  0  0  0  0  0  0  0  0  0  0  0
  -20.9335  -18.5489   22.0262 C   0  0  0  0  0  0  0  0  0  0  0  0
  -28.6851  -18.4339   19.7025 C   0  0  0  0  0  0  0  0  0  0  0  0
  -18.9203  -18.0176   23.2518 C   0  0  0  0  0  0  0  0  0  0  0  0
  -28.1580  -27.0371   20.8344 C   0  0  0  0  0  0  0  0  0  0  0  0
  -28.5749  -26.9439   23.1308 C   0  0  0  0  0  0  0  0  0  0  0  0
  -19.6595  -24.6861   21.3488 C   0  0  0  0  0  0  0  0  0  0  0  0
  -19.3986  -27.1958   21.7245 C   0  0  0  0  0  0  0  0  0  0  0  0
  -20.9385  -15.7438   17.7664 C   0  0  0  0  0  0  0  0  0  0  0  0
  -27.3936  -17.3104   17.9909 C   0  0  0  0  0  0  0  0  0  0  0  0
  -22.0403  -16.3446   18.4047 C   0  0  0  0  0  0  0  0  0  0  0  0
  -28.1393  -17.2528   19.1770 C   0  0  0  0  0  0  0  0  0  0  0  0
  -28.3689  -26.2561   21.9524 C   0  0  0  0  0  0  0  0  0  0  0  0
  -18.7019  -22.0797   21.0807 C   0  0  0  0  0  0  0  0  0  0  0  0
  -28.5026  -19.6532   19.0506 C   0  0  0  0  0  0  0  0  0  0  0  0
  -18.9078  -19.8026   21.6237 C   0  0  0  0  0  0  0  0  0  0  0  0
  -20.2666  -17.7768   22.9774 C   0  0  0  0  0  0  0  0  0  0  0  0
  -18.2409  -19.0305   22.5749 C   0  0  0  0  0  0  0  0  0  0  0  0
  -20.1546  -26.0321   21.4879 C   0  0  0  0  0  0  0  0  0  0  0  0
  -20.3287  -28.2053   21.7740 C   0  0  0  0  0  0  0  0  0  0  0  0
  -28.3596  -28.9389   22.0629 C   0  0  0  0  0  0  0  0  0  0  0  0
  -17.9823  -27.3505   21.8852 C   0  0  0  0  0  0  0  0  0  0  0  0
  -25.4305  -15.1856   19.3081 C   0  0  0  0  0  0  0  0  0  0  0  0
  -28.1547  -13.4565   19.6419 C   0  0  0  0  0  0  0  0  0  0  0  0
  -31.5588  -13.4311   19.8837 C   0  0  0  0  0  0  0  0  0  0  0  0
  -25.2543  -29.8371   23.9375 C   0  0  0  0  0  0  0  0  0  0  0  0
  -20.5760  -14.2990   18.0023 C   0  0  0  0  0  0  0  0  0  0  0  0
  -26.8176  -16.0568   17.3916 C   0  0  0  0  0  0  0  0  0  0  0  0
  -28.3649  -15.9564   19.9097 C   0  0  0  0  0  0  0  0  0  0  0  0
  -21.7125  -13.4762   18.6038 C   0  0  0  0  0  0  0  0  0  0  0  0
  -25.2260  -28.2503   20.5502 C   0  0  0  0  0  0  0  0  0  0  0  0
  -22.3565  -14.2252   19.7662 C   0  0  0  0  0  0  0  0  0  0  0  0
  -23.8560  -27.5739   20.5566 C   0  0  0  0  0  0  0  0  0  0  0  0
  -25.7936  -28.3605   21.9602 C   0  0  0  0  0  0  0  0  0  0  0  0
  -23.5202  -28.3943   22.9334 C   0  0  0  0  0  0  0  0  0  0  0  0
  -22.9693  -15.5502   19.2969 C   0  0  1  0  0  0  0  0  0  0  0  0
  -26.6146  -14.9439   18.4151 C   0  0  1  0  0  0  0  0  0  0  0  0
  -22.8984  -28.2798   21.5316 C   0  0  2  0  0  0  0  0  0  0  0  0
  -33.5004  -11.8707   20.1881 C   0  0  0  0  0  0  0  0  0  0  0  0
  -26.1805  -32.1703   25.5910 C   0  0  0  0  0  0  0  0  0  0  0  0
  -27.5073  -30.0578   25.9075 C   0  0  0  0  0  0  0  0  0  0  0  0
  -28.8364  -31.1585   20.8209 C   0  0  0  0  0  0  0  0  0  0  0  0
  -29.3311  -30.9301   23.2414 C   0  0  0  0  0  0  0  0  0  0  0  0
  -27.4783  -13.1968   22.6059 C   0  0  0  0  0  0  0  0  0  0  0  0
  -29.8451  -12.4893   23.0126 C   0  0  0  0  0  0  0  0  0  0  0  0
  -28.3665  -11.1101   21.5518 C   0  0  0  0  0  0  0  0  0  0  0  0
  -32.7331  -14.1980   17.2776 C   0  0  0  0  0  0  0  0  0  0  0  0
  -29.6941  -22.1162   23.0392 C   0  0  0  0  0  0  0  0  0  0  0  0
  -28.3764  -24.7561   21.8897 C   0  0  0  0  0  0  0  0  0  0  0  0
  -26.9419  -31.0169   22.4679 C   0  0  0  0  0  0  0  0  0  0  0  0
  -29.7519  -24.1573   21.6139 C   0  0  0  0  0  0  0  0  0  0  0  0
  -30.7191  -22.0229   20.7715 C   0  0  0  0  0  0  0  0  0  0  0  0
  -30.2412  -20.6544   20.3277 C   0  0  0  0  0  0  0  0  0  1  0  0
  -29.2198  -13.3341   20.7048 C   0  0  1  0  0  0  0  0  0  0  0  0
  -32.6120  -12.5901   19.1852 C   0  0  2  0  0  0  0  0  0  0  0  0
  -27.0937  -31.1475   24.9269 C   0  0  0  0  0  0  0  0  0  0  0  0
  -28.3578  -30.4287   22.1245 C   0  0  0  0  0  0  0  0  0  0  0  0
  -28.7217  -12.5575   21.9562 C   0  0  0  0  0  0  0  0  0  0  0  0
  -28.1467  -28.3861   20.8536 N   0  0  0  0  0  0  0  0  0  0  0  0
  -28.5770  -28.2900   23.2227 N   0  0  0  0  0  0  0  0  0  0  0  0
  -21.4641  -26.2782   21.3935 N   0  0  0  0  0  0  0  0  0  0  0  0
  -21.5381  -27.6081   21.5716 N   0  0  0  0  0  0  0  0  0  0  0  0
  -27.7763  -14.7591   19.2871 N   0  0  0  0  0  0  0  0  0  0  0  0
  -24.8476  -29.0110   22.8766 N   0  0  0  0  0  0  0  0  0  0  0  0
  -20.2218  -29.5366   21.9704 N   0  0  0  0  0  0  0  0  0  0  0  0
  -17.1723  -26.2095   21.8057 N   0  0  0  0  0  0  0  0  0  0  0  0
  -24.2327  -15.3151   18.6314 N   0  0  0  0  0  0  0  0  0  0  0  0
  -30.3800  -12.7361   20.0530 N   0  0  0  0  0  0  0  0  0  0  0  0
  -26.4434  -30.5611   23.7636 N   0  0  0  0  0  0  0  0  0  0  0  0
  -33.4741  -13.4492   18.3251 N   0  3  0  0  0  0  0  0  0  0  0  0
  -29.6815  -22.6502   21.6283 N   0  3  1  0  0  0  0  0  0  0  0  0
  -17.4492  -28.4696   22.0769 O   0  0  0  0  0  0  0  0  0  0  0  0
  -25.5915  -15.2483   20.5213 O   0  0  0  0  0  0  0  0  0  0  0  0
  -27.6812  -12.4341   19.1397 O   0  0  0  0  0  0  0  0  0  0  0  0
  -31.7627  -14.5875   20.2465 O   0  0  0  0  0  0  0  0  0  0  0  0
  -24.5871  -29.9302   24.9758 O   0  0  0  0  0  0  0  0  0  0  0  0
  -18.2345  -20.8080   20.9503 O   0  0  0  0  0  0  0  0  0  0  0  0
  -29.0391  -20.7905   19.5709 O   0  0  0  0  0  0  0  0  0  1  0  0
  -20.9187  -16.8032   23.6262 F   0  0  0  0  0  0  0  0  0  0  0  0
  -16.9473  -19.2564   22.8419 F   0  0  0  0  0  0  0  0  0  0  0  0
  1  2  1  0  0  0  0
  1  5  2  0  0  0  0
  2  6  2  0  0  0  0
  3  8  2  0  0  0  0
  3 17  1  0  0  0  0
  4  9  1  0  0  0  0
  4 17  2  0  0  0  0
  5 19  1  0  0  0  0
  6 21  1  0  0  0  0
  7 10  2  0  0  0  0
  7 20  1  0  0  0  0
  8 24  1  0  0  0  0
  9 24  2  0  0  0  0
 10 25  1  0  0  0  0
 11 12  2  0  0  0  0
 11 26  1  0  0  0  0
 12 27  1  0  0  0  0
 13 22  1  0  0  0  0
 13 25  2  0  0  0  0
 14 27  2  0  0  0  0
 14 28  1  0  0  0  0
 15 23  1  0  0  0  0
 15 69  2  0  0  0  0
 16 23  2  0  0  0  0
 16 70  1  0  0  0  0
 17 29  1  0  0  0  0
 18 29  1  0  0  0  0
 18 30  2  0  0  0  0
 18 32  1  0  0  0  0
 19 21  2  0  0  0  0
 19 37  1  0  0  0  0
 20 22  2  0  0  0  0
 20 38  1  0  0  0  0
 21 46  1  0  0  0  0
 22 39  1  0  0  0  0
 23 59  1  0  0  0  0
 24 87  1  0  0  0  0
 25 88  1  0  0  0  0
 26 28  2  0  0  0  0
 26 87  1  0  0  0  0
 27 89  1  0  0  0  0
 28 90  1  0  0  0  0
 29 71  2  0  0  0  0
 30 72  1  0  0  0  0
 30 75  1  0  0  0  0
 31 67  1  0  0  0  0
 31 69  1  0  0  0  0
 31 70  2  0  0  0  0
 32 76  1  0  0  0  0
 32 82  2  0  0  0  0
 33 47  1  0  0  0  0
 33 77  1  0  0  0  0
 33 83  2  0  0  0  0
 34 64  1  0  0  0  0
 34 73  1  0  0  0  0
 34 84  2  0  0  0  0
 35 65  1  0  0  0  0
 35 78  1  0  0  0  0
 35 85  2  0  0  0  0
 36 74  1  0  0  0  0
 36 79  1  0  0  0  0
 36 86  2  0  0  0  0
 37 40  1  0  0  0  0
 38 47  1  0  0  0  0
 39 73  1  0  0  0  0
 40 42  1  0  0  0  0
 41 43  1  0  0  0  0
 41 44  1  0  0  0  0
 42 46  1  0  0  0  0
 43 48  1  0  0  0  0
 44 74  1  0  0  0  0
 45 48  1  0  0  0  0
 45 74  1  0  0  0  0
 46 77  1  0  0  0  0
 47 73  1  0  0  0  0
 48 72  1  0  0  0  0
 49 65  1  0  0  0  0
 50 66  1  0  0  0  0
 51 66  1  0  0  0  0
 52 67  1  0  0  0  0
 53 67  1  0  0  0  0
 54 68  1  0  0  0  0
 55 68  1  0  0  0  0
 56 68  1  0  0  0  0
 57 80  1  0  0  0  0
 58 81  1  0  0  0  0
 59 61  1  0  0  0  0
 60 67  1  0  0  0  0
 60 79  1  0  0  0  0
 61 81  1  0  0  0  0
 62 63  1  0  0  0  0
 62 81  1  0  0  0  0
 63 88  1  0  0  0  0
 64 68  1  0  0  0  0
 64 78  1  0  0  0  0
 65 80  1  0  0  0  0
 66 79  1  0  0  0  0
 71 72  1  0  0  0  0
M  CHG  2  80   1  81   1
M  ISO  4  36 100  63 101  79 100  88 101
M  END
> <Batch ID>
0061

> <Smiles>
CNC(C)C(=O)NC(C(=O)N1Cc2cc([101O:1][101CH2:1]CN(C)CCc3cnc(C(C)(C)C[100N:0](C(C)C)[100C:0](=O)N4CCCC(n5nc(-c6ccc(Oc7ccc(F)cc7F)cc6)c(C(N)=O)c5N)C4)nc3)ccc2CC1C(=O)NC1CCCc2ccccc21)C(C)(C)C

> <Shape>
0.234

> <Color>
0.068

> <Negative vol penalty>
0.000

$$$$

  -OEChem-04052317583D

 84 92  0     1  0  0  0  0  0999 V2000
  -16.9146  -28.8403   24.1936 C   0  0  0  0  0  0  0  0  0  0  0  0
  -17.5583  -27.8322   23.4832 C   0  0  0  0  0  0  0  0  0  0  0  0
  -27.4440  -12.4287   20.3559 C   0  0  0  0  0  0  0  0  0  0  0  0
  -26.3610  -14.5218   19.8237 C   0  0  0  0  0  0  0  0  0  0  0  0
  -17.3558  -30.1585   24.0855 C   0  0  0  0  0  0  0  0  0  0  0  0
  -18.6429  -28.1418   22.6634 C   0  0  0  0  0  0  0  0  0  0  0  0
  -22.4877  -24.8931   23.2188 C   0  0  0  0  0  0  0  0  0  0  0  0
  -26.2426  -11.7528   20.1425 C   0  0  0  0  0  0  0  0  0  0  0  0
  -25.1596  -13.8459   19.6103 C   0  0  0  0  0  0  0  0  0  0  0  0
  -22.3723  -23.6558   22.5865 C   0  0  0  0  0  0  0  0  0  0  0  0
  -23.3724   -9.5206   20.0872 C   0  0  0  0  0  0  0  0  0  0  0  0
  -22.9955   -8.5546   21.0201 C   0  0  0  0  0  0  0  0  0  0  0  0
  -23.7835  -24.4456   20.7966 C   0  0  0  0  0  0  0  0  0  0  0  0
  -22.9825  -10.2354   22.7555 C   0  0  0  0  0  0  0  0  0  0  0  0
  -25.7084  -19.5263   21.5019 C   0  0  0  0  0  0  0  0  0  0  0  0
  -25.2351  -20.4876   19.4263 C   0  0  0  0  0  0  0  0  0  0  0  0
  -27.5032  -13.8132   20.1966 C   0  0  0  0  0  0  0  0  0  0  0  0
  -29.7446  -14.7884   19.4669 C   0  0  0  0  0  0  0  0  0  0  0  0
  -18.4525  -30.4830   23.2714 C   0  0  0  0  0  0  0  0  0  0  0  0
  -23.2443  -25.9212   22.6383 C   0  0  0  0  0  0  0  0  0  0  0  0
  -19.0984  -29.4657   22.5432 C   0  0  0  0  0  0  0  0  0  0  0  0
  -23.9090  -25.6941   21.4247 C   0  0  0  0  0  0  0  0  0  0  0  0
  -24.7521  -19.9537   20.6036 C   0  0  0  0  0  0  0  0  0  0  0  0
  -25.1005  -12.4614   19.7696 C   0  0  0  0  0  0  0  0  0  0  0  0
  -23.0178  -23.4329   21.3738 C   0  0  0  0  0  0  0  0  0  0  0  0
  -23.5546  -10.8441   20.4885 C   0  0  0  0  0  0  0  0  0  0  0  0
  -22.8005   -8.9120   22.3542 C   0  0  0  0  0  0  0  0  0  0  0  0
  -23.3596  -11.2015   21.8227 C   0  0  0  0  0  0  0  0  0  0  0  0
  -28.7437  -14.5120   20.4175 C   0  0  0  0  0  0  0  0  0  0  0  0
  -30.7088  -15.4673   20.1711 C   0  0  0  0  0  0  0  0  0  0  0  0
  -27.3813  -20.1479   20.0940 C   0  0  0  0  0  0  0  0  0  0  0  0
  -29.7980  -14.4609   18.0721 C   0  0  0  0  0  0  0  0  0  0  0  0
  -22.6050  -28.8421   21.5597 C   0  0  0  0  0  0  0  0  0  0  0  0
  -25.8265  -28.9967   21.2131 C   0  0  0  0  0  0  0  0  0  0  0  0
  -28.7805  -27.3350   20.8128 C   0  0  0  0  0  0  0  0  0  0  0  0
  -31.7224  -19.6507   23.8845 C   0  0  0  0  0  0  0  0  0  0  0  0
  -18.8633  -31.9291   23.1496 C   0  0  0  0  0  0  0  0  0  0  0  0
  -23.3807  -27.2413   23.3462 C   0  0  0  0  0  0  0  0  0  0  0  0
  -24.7500  -26.7583   20.7700 C   0  0  0  0  0  0  0  0  0  0  0  0
  -20.2548  -32.1185   22.5511 C   0  0  0  0  0  0  0  0  0  0  0  0
  -31.2879  -16.1936   25.1342 C   0  0  0  0  0  0  0  0  0  0  0  0
  -20.4265  -31.2452   21.3123 C   0  0  0  0  0  0  0  0  0  0  0  0
  -30.6040  -15.4979   23.9585 C   0  0  0  0  0  0  0  0  0  0  0  0
  -30.9697  -17.6852   25.1737 C   0  0  0  0  0  0  0  0  0  0  0  0
  -30.5938  -17.7049   22.7298 C   0  0  0  0  0  0  0  0  0  0  0  0
  -20.2940  -29.7583   21.6629 C   0  0  1  0  0  0  0  0  0  0  0  0
  -23.7568  -28.3854   22.4097 C   0  0  1  0  0  0  0  0  0  0  0  0
  -30.9314  -16.2095   22.6341 C   0  0  2  0  0  0  0  0  0  0  0  0
  -31.2409  -27.7334   20.5214 C   0  0  0  0  0  0  0  0  0  0  0  0
  -25.3500  -29.7998   18.3083 C   0  0  0  0  0  0  0  0  0  0  0  0
  -27.7488  -29.2585   17.8380 C   0  0  0  0  0  0  0  0  0  0  0  0
  -27.1744  -31.0686   19.4556 C   0  0  0  0  0  0  0  0  0  0  0  0
  -32.4932  -21.5948   22.5784 C   0  0  0  0  0  0  0  0  0  0  0  0
  -29.4298  -25.8747   23.3037 C   0  0  0  0  0  0  0  0  0  0  0  0
  -23.2741  -19.8435   20.8895 C   0  0  0  0  0  0  0  0  0  0  0  0
  -31.0434  -19.9444   20.3610 C   0  0  0  0  0  0  0  0  0  0  0  0
  -32.0703  -19.4781   21.3841 C   0  0  0  0  0  0  0  0  0  0  0  0
  -22.7247  -21.0825   21.5879 C   0  0  0  0  0  0  0  0  0  1  0  0
  -29.6075  -19.7737   20.8419 C   0  0  0  0  0  0  0  0  0  0  0  0
  -26.8009  -28.6556   20.1116 C   0  0  1  0  0  0  0  0  0  0  0  0
  -30.1188  -27.4763   21.5152 C   0  0  2  0  0  0  0  0  0  0  0  0
  -26.7512  -29.6760   18.9395 C   0  0  0  0  0  0  0  0  0  0  0  0
  -27.0365  -19.6086   21.2788 N   0  0  0  0  0  0  0  0  0  0  0  0
  -26.5482  -20.6005   19.1375 N   0  0  0  0  0  0  0  0  0  0  0  0
  -29.0443  -14.9772   21.6329 N   0  0  0  0  0  0  0  0  0  0  0  0
  -30.2451  -15.5526   21.4509 N   0  0  0  0  0  0  0  0  0  0  0  0
  -24.8475  -28.0343   21.4980 N   0  0  0  0  0  0  0  0  0  0  0  0
  -31.2494  -18.3282   23.8893 N   0  0  0  0  0  0  0  0  0  0  0  0
  -31.8997  -15.9936   19.8143 N   0  0  0  0  0  0  0  0  0  0  0  0
  -28.7227  -13.7604   17.5087 N   0  0  0  0  0  0  0  0  0  0  0  0
  -21.5094  -29.2747   22.2821 N   0  0  0  0  0  0  0  0  0  0  0  0
  -28.1093  -28.5377   20.7460 N   0  0  0  0  0  0  0  0  0  0  0  0
  -31.9900  -20.2297   22.6348 N   0  0  0  0  0  0  0  0  0  0  0  0
  -30.4389  -26.2345   22.2745 N   0  3  0  0  0  0  0  0  0  0  0  0
  -30.7778  -14.7655   17.3505 O   0  0  0  0  0  0  0  0  0  0  0  0
  -22.7036  -28.8060   20.3387 O   0  0  0  0  0  0  0  0  0  0  0  0
  -25.9347  -30.0740   21.8040 O   0  0  0  0  0  0  0  0  0  0  0  0
  -28.3729  -26.2656   20.3647 O   0  0  0  0  0  0  0  0  0  0  0  0
  -31.9047  -20.2748   24.9377 O   0  0  0  0  0  0  0  0  0  0  0  0
  -23.9281  -11.8022   19.5610 O   0  0  0  0  0  0  0  0  0  0  0  0
  -22.9063  -22.2264   20.7543 O   0  0  0  0  0  0  0  0  0  1  0  0
  -28.7280  -20.2491   19.8331 O   0  0  0  0  0  0  0  0  0  0  0  0
  -22.4370   -7.9845   23.2496 F   0  0  0  0  0  0  0  0  0  0  0  0
  -23.5319  -12.4716   22.2139 F   0  0  0  0  0  0  0  0  0  0  0  0
  1  2  1  0  0  0  0
  1  5  2  0  0  0  0
  2  6  2  0  0  0  0
  3  8  2  0  0  0  0
  3 17  1  0  0  0  0
  4  9  1  0  0  0  0
  4 17  2  0  0  0  0
  5 19  1  0  0  0  0
  6 21  1  0  0  0  0
  7 10  2  0  0  0  0
  7 20  1  0  0  0  0
  8 24  1  0  0  0  0
  9 24  2  0  0  0  0
 10 25  1  0  0  0  0
 11 12  2  0  0  0  0
 11 26  1  0  0  0  0
 12 27  1  0  0  0  0
 13 22  1  0  0  0  0
 13 25  2  0  0  0  0
 14 27  2  0  0  0  0
 14 28  1  0  0  0  0
 15 23  1  0  0  0  0
 15 63  2  0  0  0  0
 16 23  2  0  0  0  0
 16 64  1  0  0  0  0
 17 29  1  0  0  0  0
 18 29  1  0  0  0  0
 18 30  2  0  0  0  0
 18 32  1  0  0  0  0
 19 21  2  0  0  0  0
 19 37  1  0  0  0  0
 20 22  2  0  0  0  0
 20 38  1  0  0  0  0
 21 46  1  0  0  0  0
 22 39  1  0  0  0  0
 23 55  1  0  0  0  0
 24 80  1  0  0  0  0
 25 81  1  0  0  0  0
 26 28  2  0  0  0  0
 26 80  1  0  0  0  0
 27 83  1  0  0  0  0
 28 84  1  0  0  0  0
 29 65  2  0  0  0  0
 30 66  1  0  0  0  0
 30 69  1  0  0  0  0
 31 63  1  0  0  0  0
 31 64  2  0  0  0  0
 31 82  1  0  0  0  0
 32 70  1  0  0  0  0
 32 75  2  0  0  0  0
 33 47  1  0  0  0  0
 33 71  1  0  0  0  0
 33 76  2  0  0  0  0
 34 60  1  0  0  0  0
 34 67  1  0  0  0  0
 34 77  2  0  0  0  0
 35 61  1  0  0  0  0
 35 72  1  0  0  0  0
 35 78  2  0  0  0  0
 36 68  1  0  0  0  0
 36 73  1  0  0  0  0
 36 79  2  0  0  0  0
 37 40  1  0  0  0  0
 38 47  1  0  0  0  0
 39 67  1  0  0  0  0
 40 42  1  0  0  0  0
 41 43  1  0  0  0  0
 41 44  1  0  0  0  0
 42 46  1  0  0  0  0
 43 48  1  0  0  0  0
 44 68  1  0  0  0  0
 45 48  1  0  0  0  0
 45 68  1  0  0  0  0
 46 71  1  0  0  0  0
 47 67  1  0  0  0  0
 48 66  1  0  0  0  0
 49 61  1  0  0  0  0
 50 62  1  0  0  0  0
 51 62  1  0  0  0  0
 52 62  1  0  0  0  0
 53 73  1  0  0  0  0
 54 74  1  0  0  0  0
 55 58  1  0  0  0  0
 56 57  1  0  0  0  0
 56 59  1  0  0  0  0
 57 73  1  0  0  0  0
 58 81  1  0  0  0  0
 59 82  1  0  0  0  0
 60 62  1  0  0  0  0
 60 72  1  0  0  0  0
 61 74  1  0  0  0  0
 65 66  1  0  0  0  0
M  CHG  1  74   1
M  ISO  4  36 100  58 101  73 100  81 101
M  END
> <Batch ID>
0061

> <Smiles>
CNC(C)C(=O)NC(C(=O)N1Cc2cc([101O:1][101CH2:1]Cc3cnc(OCCC[100N:0](C)[100C:0](=O)N4CCCC(n5nc(-c6ccc(Oc7ccc(F)cc7F)cc6)c(C(N)=O)c5N)C4)nc3)ccc2CC1C(=O)NC1CCCc2ccccc21)C(C)(C)C

> <Shape>
0.247

> <Color>
0.081

> <Negative vol penalty>
0.000

$$$$

  -OEChem-04052317583D

 84 92  0     1  0  0  0  0  0999 V2000
  -22.2360   -8.5934   20.8237 C   0  0  0  0  0  0  0  0  0  0  0  0
  -21.7359   -9.8901   20.8873 C   0  0  0  0  0  0  0  0  0  0  0  0
  -31.6297  -27.4016   18.6870 C   0  0  0  0  0  0  0  0  0  0  0  0
  -31.8737  -26.5534   20.9360 C   0  0  0  0  0  0  0  0  0  0  0  0
  -23.5269   -8.3225   21.2755 C   0  0  0  0  0  0  0  0  0  0  0  0
  -22.5261  -10.9164   21.4037 C   0  0  0  0  0  0  0  0  0  0  0  0
  -23.7764  -17.9275   20.6310 C   0  0  0  0  0  0  0  0  0  0  0  0
  -32.9395  -27.8796   18.7251 C   0  0  0  0  0  0  0  0  0  0  0  0
  -33.1836  -27.0313   20.9741 C   0  0  0  0  0  0  0  0  0  0  0  0
  -23.8434  -19.0990   21.3839 C   0  0  0  0  0  0  0  0  0  0  0  0
  -34.5868  -30.5291   20.0253 C   0  0  0  0  0  0  0  0  0  0  0  0
  -34.8192  -31.8193   19.5490 C   0  0  0  0  0  0  0  0  0  0  0  0
  -26.0871  -18.5281   22.0614 C   0  0  0  0  0  0  0  0  0  0  0  0
  -36.3320  -30.9331   17.8867 C   0  0  0  0  0  0  0  0  0  0  0  0
  -23.4369  -22.9169   24.7767 C   0  0  0  0  0  0  0  0  0  0  0  0
  -25.2284  -23.4698   23.3835 C   0  0  0  0  0  0  0  0  0  0  0  0
  -31.0967  -26.7386   19.7925 C   0  0  0  0  0  0  0  0  0  0  0  0
  -29.3135  -24.9760   19.3222 C   0  0  0  0  0  0  0  0  0  0  0  0
  -24.3368   -9.3478   21.7887 C   0  0  0  0  0  0  0  0  0  0  0  0
  -24.8621  -17.0407   20.5963 C   0  0  0  0  0  0  0  0  0  0  0  0
  -23.8285  -10.6587   21.8639 C   0  0  0  0  0  0  0  0  0  0  0  0
  -26.0323  -17.3473   21.3053 C   0  0  0  0  0  0  0  0  0  0  0  0
  -24.1967  -22.5992   23.6694 C   0  0  0  0  0  0  0  0  0  0  0  0
  -33.7165  -27.6945   19.8686 C   0  0  0  0  0  0  0  0  0  0  0  0
  -24.9978  -19.3981   22.1016 C   0  0  0  0  0  0  0  0  0  0  0  0
  -35.2271  -29.4409   19.4325 C   0  0  0  0  0  0  0  0  0  0  0  0
  -35.6918  -32.0214   18.4797 C   0  0  0  0  0  0  0  0  0  0  0  0
  -36.0997  -29.6429   18.3632 C   0  0  0  0  0  0  0  0  0  0  0  0
  -29.7435  -26.2451   19.7539 C   0  0  0  0  0  0  0  0  0  0  0  0
  -27.9495  -25.0033   19.4814 C   0  0  0  0  0  0  0  0  0  0  0  0
  -24.6936  -24.7697   25.1700 C   0  0  0  0  0  0  0  0  0  0  0  0
  -30.0785  -23.8714   18.8221 C   0  0  0  0  0  0  0  0  0  0  0  0
  -25.3170  -14.0170   21.4646 C   0  0  0  0  0  0  0  0  0  0  0  0
  -28.2094  -14.4581   20.0639 C   0  0  0  0  0  0  0  0  0  0  0  0
  -30.6513  -16.6300   19.0808 C   0  0  0  0  0  0  0  0  0  0  0  0
  -24.3233  -28.1579   23.0522 C   0  0  0  0  0  0  0  0  0  0  0  0
  -25.7086   -8.9978   22.3087 C   0  0  0  0  0  0  0  0  0  0  0  0
  -24.7839  -15.7943   19.7579 C   0  0  0  0  0  0  0  0  0  0  0  0
  -27.2330  -16.4383   21.2849 C   0  0  0  0  0  0  0  0  0  0  0  0
  -26.6170  -10.2104   22.4951 C   0  0  0  0  0  0  0  0  0  0  0  0
  -24.2408  -28.0260   19.4951 C   0  0  0  0  0  0  0  0  0  0  0  0
  -25.8714  -11.3306   23.2134 C   0  0  0  0  0  0  0  0  0  0  0  0
  -25.6030  -27.4401   19.1192 C   0  0  0  0  0  0  0  0  0  0  0  0
  -24.3394  -28.9517   20.7057 C   0  0  0  0  0  0  0  0  0  0  0  0
  -26.3440  -27.7686   21.5154 C   0  0  0  0  0  0  0  0  0  0  0  0
  -24.6641  -11.8034   22.3945 C   0  0  1  0  0  0  0  0  0  0  0  0
  -25.7588  -14.7101   20.2068 C   0  0  1  0  0  0  0  0  0  0  0  0
  -26.2861  -26.7846   20.3344 C   0  0  2  0  0  0  0  0  0  0  0  0
  -32.9141  -16.6909   17.9976 C   0  0  0  0  0  0  0  0  0  0  0  0
  -29.4767  -13.4821   22.6622 C   0  0  0  0  0  0  0  0  0  0  0  0
  -31.6512  -14.4477   21.8828 C   0  0  0  0  0  0  0  0  0  0  0  0
  -30.5637  -12.6177   20.5823 C   0  0  0  0  0  0  0  0  0  0  0  0
  -29.6564  -18.2696   16.8267 C   0  0  0  0  0  0  0  0  0  0  0  0
  -23.9171  -21.3875   22.8298 C   0  0  0  0  0  0  0  0  0  1  0  0
  -24.9682  -25.9770   26.0009 C   0  0  0  0  0  0  0  0  0  0  0  0
  -29.5618  -14.9385   20.5320 C   0  0  1  0  0  0  0  0  0  0  0  0
  -31.4117  -16.7663   17.7740 C   0  0  2  0  0  0  0  0  0  0  0  0
  -24.4512  -27.2908   25.3740 C   0  0  1  0  0  0  0  0  0  0  0  0
  -30.2902  -13.8879   21.4170 C   0  0  0  0  0  0  0  0  0  0  0  0
  -24.7601  -28.4918   26.2520 C   0  0  0  0  0  0  0  0  0  0  0  0
  -23.6582  -23.9983   25.5525 N   0  0  0  0  0  0  0  0  0  0  0  0
  -25.5063  -24.5689   24.1151 N   0  0  0  0  0  0  0  0  0  0  0  0
  -28.7346  -27.0219   20.1570 N   0  0  0  0  0  0  0  0  0  0  0  0
  -27.6569  -26.2389   19.9791 N   0  0  0  0  0  0  0  0  0  0  0  0
  -27.1054  -15.2286   20.4554 N   0  0  0  0  0  0  0  0  0  0  0  0
  -24.9952  -28.2691   21.8237 N   0  0  0  0  0  0  0  0  0  0  0  0
  -26.9839  -24.0906   19.2427 N   0  0  0  0  0  0  0  0  0  0  0  0
  -31.4694  -24.0121   18.7234 N   0  0  0  0  0  0  0  0  0  0  0  0
  -25.0931  -12.6620   21.3114 N   0  0  0  0  0  0  0  0  0  0  0  0
  -30.2970  -15.3212   19.3315 N   0  0  0  0  0  0  0  0  0  0  0  0
  -25.0134  -27.4908   24.0570 N   0  0  0  0  0  0  0  0  0  0  0  0
  -31.0979  -18.0709   17.1257 N   0  3  0  0  0  0  0  0  0  0  0  0
  -29.5427  -22.7973   18.4576 O   0  0  0  0  0  0  0  0  0  0  0  0
  -25.1902  -14.6633   22.4980 O   0  0  0  0  0  0  0  0  0  0  0  0
  -28.1358  -13.4407   19.3702 O   0  0  0  0  0  0  0  0  0  0  0  0
  -30.4001  -17.5882   19.8083 O   0  0  0  0  0  0  0  0  0  0  0  0
  -23.1901  -28.6142   23.2381 O   0  0  0  0  0  0  0  0  0  0  0  0
  -34.9947  -28.1605   19.9061 O   0  0  0  0  0  0  0  0  0  0  0  0
  -25.0656  -20.5406   22.8378 O   0  0  0  0  0  0  0  0  0  1  0  0
  -35.9136  -33.2603   18.0213 F   0  0  0  0  0  0  0  0  0  0  0  0
  -36.7168  -28.6012   17.7888 F   0  0  0  0  0  0  0  0  0  0  0  0
  -24.1722  -28.3898   27.4633 F   0  0  0  0  0  0  0  0  0  0  0  0
  -26.0914  -28.6218   26.4475 F   0  0  0  0  0  0  0  0  0  0  0  0
  -24.3250  -29.6357   25.6779 F   0  0  0  0  0  0  0  0  0  0  0  0
  1  2  1  0  0  0  0
  1  5  2  0  0  0  0
  2  6  2  0  0  0  0
  3  8  2  0  0  0  0
  3 17  1  0  0  0  0
  4  9  1  0  0  0  0
  4 17  2  0  0  0  0
  5 19  1  0  0  0  0
  6 21  1  0  0  0  0
  7 10  2  0  0  0  0
  7 20  1  0  0  0  0
  8 24  1  0  0  0  0
  9 24  2  0  0  0  0
 10 25  1  0  0  0  0
 11 12  2  0  0  0  0
 11 26  1  0  0  0  0
 12 27  1  0  0  0  0
 13 22  1  0  0  0  0
 13 25  2  0  0  0  0
 14 27  2  0  0  0  0
 14 28  1  0  0  0  0
 15 23  1  0  0  0  0
 15 61  2  0  0  0  0
 16 23  2  0  0  0  0
 16 62  1  0  0  0  0
 17 29  1  0  0  0  0
 18 29  1  0  0  0  0
 18 30  2  0  0  0  0
 18 32  1  0  0  0  0
 19 21  2  0  0  0  0
 19 37  1  0  0  0  0
 20 22  2  0  0  0  0
 20 38  1  0  0  0  0
 21 46  1  0  0  0  0
 22 39  1  0  0  0  0
 23 54  1  0  0  0  0
 24 78  1  0  0  0  0
 25 79  1  0  0  0  0
 26 28  2  0  0  0  0
 26 78  1  0  0  0  0
 27 80  1  0  0  0  0
 28 81  1  0  0  0  0
 29 63  2  0  0  0  0
 30 64  1  0  0  0  0
 30 67  1  0  0  0  0
 31 55  1  0  0  0  0
 31 61  1  0  0  0  0
 31 62  2  0  0  0  0
 32 68  1  0  0  0  0
 32 73  2  0  0  0  0
 33 47  1  0  0  0  0
 33 69  1  0  0  0  0
 33 74  2  0  0  0  0
 34 56  1  0  0  0  0
 34 65  1  0  0  0  0
 34 75  2  0  0  0  0
 35 57  1  0  0  0  0
 35 70  1  0  0  0  0
 35 76  2  0  0  0  0
 36 66  1  0  0  0  0
 36 71  1  0  0  0  0
 36 77  2  0  0  0  0
 37 40  1  0  0  0  0
 38 47  1  0  0  0  0
 39 65  1  0  0  0  0
 40 42  1  0  0  0  0
 41 43  1  0  0  0  0
 41 44  1  0  0  0  0
 42 46  1  0  0  0  0
 43 48  1  0  0  0  0
 44 66  1  0  0  0  0
 45 48  1  0  0  0  0
 45 66  1  0  0  0  0
 46 69  1  0  0  0  0
 47 65  1  0  0  0  0
 48 64  1  0  0  0  0
 49 57  1  0  0  0  0
 50 59  1  0  0  0  0
 51 59  1  0  0  0  0
 52 59  1  0  0  0  0
 53 72  1  0  0  0  0
 54 79  1  0  0  0  0
 55 58  1  0  0  0  0
 56 59  1  0  0  0  0
 56 70  1  0  0  0  0
 57 72  1  0  0  0  0
 58 60  1  0  0  0  0
 58 71  1  0  0  0  0
 60 82  1  0  0  0  0
 60 83  1  0  0  0  0
 60 84  1  0  0  0  0
 63 64  1  0  0  0  0
M  CHG  1  72   1
M  ISO  4  36 100  54 101  71 100  79 101
M  END
> <Batch ID>
0061

> <Smiles>
CNC(C)C(=O)NC(C(=O)N1Cc2cc([101O:1][101CH2:1]c3cnc(CC([100NH:0][100C:0](=O)N4CCCC(n5nc(-c6ccc(Oc7ccc(F)cc7F)cc6)c(C(N)=O)c5N)C4)C(F)(F)F)nc3)ccc2CC1C(=O)NC1CCCc2ccccc21)C(C)(C)C

> <Shape>
0.195

> <Color>
0.088

> <Negative vol penalty>
0.000

$$$$

  -OEChem-04052317583D

 85 93  0     1  0  0  0  0  0999 V2000
  -16.8165  -29.5206   24.2897 C   0  0  0  0  0  0  0  0  0  0  0  0
  -17.3646  -28.4867   23.5374 C   0  0  0  0  0  0  0  0  0  0  0  0
  -23.5551  -15.2944   22.7373 C   0  0  0  0  0  0  0  0  0  0  0  0
  -22.6577  -15.3265   20.4943 C   0  0  0  0  0  0  0  0  0  0  0  0
  -17.3639  -30.8007   24.2162 C   0  0  0  0  0  0  0  0  0  0  0  0
  -18.4599  -28.7326   22.7101 C   0  0  0  0  0  0  0  0  0  0  0  0
  -22.0294  -25.1617   23.0994 C   0  0  0  0  0  0  0  0  0  0  0  0
  -22.6316  -16.2668   23.1207 C   0  0  0  0  0  0  0  0  0  0  0  0
  -21.7341  -16.2989   20.8778 C   0  0  0  0  0  0  0  0  0  0  0  0
  -21.8032  -23.9596   22.4303 C   0  0  0  0  0  0  0  0  0  0  0  0
  -18.7924  -16.4213   22.5366 C   0  0  0  0  0  0  0  0  0  0  0  0
  -17.4707  -16.2567   22.1224 C   0  0  0  0  0  0  0  0  0  0  0  0
  -23.2503  -24.6889   20.6434 C   0  0  0  0  0  0  0  0  0  0  0  0
  -17.5785  -18.3619   20.9418 C   0  0  0  0  0  0  0  0  0  0  0  0
  -25.2293  -17.3726   16.5199 C   0  0  0  0  0  0  0  0  0  0  0  0
  -23.5683  -14.8243   21.4240 C   0  0  0  0  0  0  0  0  0  0  0  0
  -24.3554  -12.4232   21.0738 C   0  0  0  0  0  0  0  0  0  0  0  0
  -18.4724  -31.0604   23.3949 C   0  0  0  0  0  0  0  0  0  0  0  0
  -22.8606  -26.1425   22.5394 C   0  0  0  0  0  0  0  0  0  0  0  0
  -19.0218  -30.0178   22.6244 C   0  0  0  0  0  0  0  0  0  0  0  0
  -23.4875  -25.9015   21.3086 C   0  0  0  0  0  0  0  0  0  0  0  0
  -21.7211  -16.7691   22.1910 C   0  0  0  0  0  0  0  0  0  0  0  0
  -22.4113  -23.7243   21.2008 C   0  0  0  0  0  0  0  0  0  0  0  0
  -19.5072  -17.5562   22.1535 C   0  0  0  0  0  0  0  0  0  0  0  0
  -16.8637  -17.2270   21.3250 C   0  0  0  0  0  0  0  0  0  0  0  0
  -18.9002  -18.5265   21.3561 C   0  0  0  0  0  0  0  0  0  0  0  0
  -24.5224  -13.8202   21.0272 C   0  0  0  0  0  0  0  0  0  0  0  0
  -25.5390  -11.9196   20.5921 C   0  0  0  0  0  0  0  0  0  0  0  0
  -27.2308  -17.0959   17.0440 C   0  0  0  0  0  0  0  0  0  0  0  0
  -23.2309  -11.6498   21.5132 C   0  0  0  0  0  0  0  0  0  0  0  0
  -22.4508  -29.1400   21.5643 C   0  0  0  0  0  0  0  0  0  0  0  0
  -25.6691  -29.0399   21.1701 C   0  0  0  0  0  0  0  0  0  0  0  0
  -28.4693  -27.1546   20.6691 C   0  0  0  0  0  0  0  0  0  0  0  0
  -29.5870  -14.4255   16.8431 C   0  0  0  0  0  0  0  0  0  0  0  0
  -19.0000  -32.4709   23.3122 C   0  0  0  0  0  0  0  0  0  0  0  0
  -23.1157  -27.4229   23.2864 C   0  0  0  0  0  0  0  0  0  0  0  0
  -24.4047  -26.9137   20.6741 C   0  0  0  0  0  0  0  0  0  0  0  0
  -20.3941  -32.5646   22.6972 C   0  0  0  0  0  0  0  0  0  0  0  0
  -30.1329  -13.4725   20.4465 C   0  0  0  0  0  0  0  0  0  0  0  0
  -20.4758  -31.7213   21.4288 C   0  0  0  0  0  0  0  0  0  0  0  0
  -28.7780  -12.8890   20.8492 C   0  0  0  0  0  0  0  0  0  0  0  0
  -30.3630  -13.4089   18.9441 C   0  0  0  0  0  0  0  0  0  0  0  0
  -27.9951  -14.2046   18.8168 C   0  0  0  0  0  0  0  0  0  0  0  0
  -20.2253  -30.2396   21.7343 C   0  0  1  0  0  0  0  0  0  0  0  0
  -23.5723  -28.5623   22.3805 C   0  0  1  0  0  0  0  0  0  0  0  0
  -27.7218  -12.9996   19.7335 C   0  0  2  0  0  0  0  0  0  0  0  0
  -29.5738  -17.9223   16.6093 C   0  0  0  0  0  0  0  0  0  0  0  0
  -30.9501  -27.3582   20.3502 C   0  0  0  0  0  0  0  0  0  0  0  0
  -30.2692  -15.7428   14.2305 C   0  0  0  0  0  0  0  0  0  0  0  0
  -28.0401  -14.5798   14.2781 C   0  0  0  0  0  0  0  0  0  0  0  0
  -25.2209  -29.9747   18.3004 C   0  0  0  0  0  0  0  0  0  0  0  0
  -27.5599  -29.2534   17.7740 C   0  0  0  0  0  0  0  0  0  0  0  0
  -27.1598  -31.0504   19.4572 C   0  0  0  0  0  0  0  0  0  0  0  0
  -29.0295  -25.5646   23.1016 C   0  0  0  0  0  0  0  0  0  0  0  0
  -24.2864  -19.9586   18.7971 C   0  0  0  0  0  0  0  0  0  0  0  0
  -23.1721  -20.5464   19.6644 C   0  0  0  0  0  0  0  0  0  0  0  0
  -24.2254  -18.4302   18.6964 C   0  0  0  0  0  0  0  0  0  0  0  0
  -23.2437  -22.0668   19.7122 C   0  0  0  0  0  0  0  0  0  1  0  0
  -28.6535  -16.7681   17.0751 C   0  0  2  0  0  0  0  0  0  0  0  0
  -26.5966  -28.6562   20.0425 C   0  0  1  0  0  0  0  0  0  0  0  0
  -29.8243  -27.1619   21.3536 C   0  0  2  0  0  0  0  0  0  0  0  0
  -28.8824  -15.7075   14.8604 C   0  0  0  0  0  0  0  0  0  0  0  0
  -26.6155  -29.7152   18.9043 C   0  0  0  0  0  0  0  0  0  0  0  0
  -26.4164  -16.9064   16.0319 N   0  0  0  0  0  0  0  0  0  0  0  0
  -25.7180  -14.1811   20.5534 N   0  0  0  0  0  0  0  0  0  0  0  0
  -26.5493  -17.6503   18.0822 N   0  0  0  0  0  0  0  0  0  0  0  0
  -25.2580  -17.8386   17.7703 N   0  0  0  0  0  0  0  0  0  0  0  0
  -26.3130  -13.0034   20.2981 N   0  0  0  0  0  0  0  0  0  0  0  0
  -24.6176  -28.1527   21.4404 N   0  0  0  0  0  0  0  0  0  0  0  0
  -29.3263  -14.1189   18.1898 N   0  0  0  0  0  0  0  0  0  0  0  0
  -25.9828  -10.6599   20.3958 N   0  0  0  0  0  0  0  0  0  0  0  0
  -22.0951  -12.3267   21.9781 N   0  0  0  0  0  0  0  0  0  0  0  0
  -21.4049  -29.6375   22.3179 N   0  0  0  0  0  0  0  0  0  0  0  0
  -27.8993  -28.4100   20.6514 N   0  0  0  0  0  0  0  0  0  0  0  0
  -28.9813  -15.5704   16.3069 N   0  0  0  0  0  0  0  0  0  0  0  0
  -30.0507  -25.8738   22.0679 N   0  3  0  0  0  0  0  0  0  0  0  0
  -23.2393  -10.3954   21.5094 O   0  0  0  0  0  0  0  0  0  0  0  0
  -22.5294  -29.1361   20.3414 O   0  0  0  0  0  0  0  0  0  0  0  0
  -25.8742  -30.0847   21.7929 O   0  0  0  0  0  0  0  0  0  0  0  0
  -27.9685  -26.1378   20.1942 O   0  0  0  0  0  0  0  0  0  0  0  0
  -30.3197  -13.7036   16.1534 O   0  0  0  0  0  0  0  0  0  0  0  0
  -20.8196  -17.7178   22.5649 O   0  0  0  0  0  0  0  0  0  0  0  0
  -22.1917  -22.5521   20.5453 O   0  0  0  0  0  0  0  0  0  1  0  0
  -15.5950  -17.0680   20.9261 F   0  0  0  0  0  0  0  0  0  0  0  0
  -19.5822  -19.6183   20.9838 F   0  0  0  0  0  0  0  0  0  0  0  0
  1  2  1  0  0  0  0
  1  5  2  0  0  0  0
  2  6  2  0  0  0  0
  3  8  2  0  0  0  0
  3 16  1  0  0  0  0
  4  9  1  0  0  0  0
  4 16  2  0  0  0  0
  5 18  1  0  0  0  0
  6 20  1  0  0  0  0
  7 10  2  0  0  0  0
  7 19  1  0  0  0  0
  8 22  1  0  0  0  0
  9 22  2  0  0  0  0
 10 23  1  0  0  0  0
 11 12  2  0  0  0  0
 11 24  1  0  0  0  0
 12 25  1  0  0  0  0
 13 21  1  0  0  0  0
 13 23  2  0  0  0  0
 14 25  2  0  0  0  0
 14 26  1  0  0  0  0
 15 64  2  0  0  0  0
 15 67  1  0  0  0  0
 16 27  1  0  0  0  0
 17 27  1  0  0  0  0
 17 28  2  0  0  0  0
 17 30  1  0  0  0  0
 18 20  2  0  0  0  0
 18 35  1  0  0  0  0
 19 21  2  0  0  0  0
 19 36  1  0  0  0  0
 20 44  1  0  0  0  0
 21 37  1  0  0  0  0
 22 82  1  0  0  0  0
 23 83  1  0  0  0  0
 24 26  2  0  0  0  0
 24 82  1  0  0  0  0
 25 84  1  0  0  0  0
 26 85  1  0  0  0  0
 27 65  2  0  0  0  0
 28 68  1  0  0  0  0
 28 71  1  0  0  0  0
 29 59  1  0  0  0  0
 29 64  1  0  0  0  0
 29 66  2  0  0  0  0
 30 72  1  0  0  0  0
 30 77  2  0  0  0  0
 31 45  1  0  0  0  0
 31 73  1  0  0  0  0
 31 78  2  0  0  0  0
 32 60  1  0  0  0  0
 32 69  1  0  0  0  0
 32 79  2  0  0  0  0
 33 61  1  0  0  0  0
 33 74  1  0  0  0  0
 33 80  2  0  0  0  0
 34 70  1  0  0  0  0
 34 75  1  0  0  0  0
 34 81  2  0  0  0  0
 35 38  1  0  0  0  0
 36 45  1  0  0  0  0
 37 69  1  0  0  0  0
 38 40  1  0  0  0  0
 39 41  1  0  0  0  0
 39 42  1  0  0  0  0
 40 44  1  0  0  0  0
 41 46  1  0  0  0  0
 42 70  1  0  0  0  0
 43 46  1  0  0  0  0
 43 70  1  0  0  0  0
 44 73  1  0  0  0  0
 45 69  1  0  0  0  0
 46 68  1  0  0  0  0
 47 59  1  0  0  0  0
 48 61  1  0  0  0  0
 49 62  1  0  0  0  0
 50 62  1  0  0  0  0
 51 63  1  0  0  0  0
 52 63  1  0  0  0  0
 53 63  1  0  0  0  0
 54 76  1  0  0  0  0
 55 56  1  0  0  0  0
 55 57  1  0  0  0  0
 56 58  1  0  0  0  0
 57 67  1  0  0  0  0
 58 83  1  0  0  0  0
 59 75  1  0  0  0  0
 60 63  1  0  0  0  0
 60 74  1  0  0  0  0
 61 76  1  0  0  0  0
 62 75  1  0  0  0  0
 65 68  1  0  0  0  0
 66 67  1  0  0  0  0
M  CHG  1  76   1
M  ISO  4  34 100  58 101  75 100  83 101
M  END
> <Batch ID>
0061

> <Smiles>
CNC(C)C(=O)NC(C(=O)N1Cc2cc([101O:1][101CH2:1]CCCn3cnc(C(C)[100N:0](C(C)C)[100C:0](=O)N4CCCC(n5nc(-c6ccc(Oc7ccc(F)cc7F)cc6)c(C(N)=O)c5N)C4)n3)ccc2CC1C(=O)NC1CCCc2ccccc21)C(C)(C)C

> <Shape>
0.203

> <Color>
0.102

> <Negative vol penalty>
0.000

$$$$

  -OEChem-04052317583D

 92101  0     1  0  0  0  0  0999 V2000
  -16.5308  -29.6589   23.5048 C   0  0  0  0  0  0  0  0  0  0  0  0
  -17.2233  -28.8775   22.5854 C   0  0  0  0  0  0  0  0  0  0  0  0
  -27.7644  -11.3806   20.6027 C   0  0  0  0  0  0  0  0  0  0  0  0
  -27.1670  -12.5562   18.5783 C   0  0  0  0  0  0  0  0  0  0  0  0
  -17.1399  -30.7827   24.0615 C   0  0  0  0  0  0  0  0  0  0  0  0
  -18.5250  -29.2202   22.2213 C   0  0  0  0  0  0  0  0  0  0  0  0
  -23.0984  -25.3815   20.8594 C   0  0  0  0  0  0  0  0  0  0  0  0
  -26.7827  -10.4257   20.3379 C   0  0  0  0  0  0  0  0  0  0  0  0
  -26.1853  -11.6013   18.3134 C   0  0  0  0  0  0  0  0  0  0  0  0
  -23.6137  -24.9297   19.6453 C   0  0  0  0  0  0  0  0  0  0  0  0
  -23.4269  -10.1547   20.6378 C   0  0  0  0  0  0  0  0  0  0  0  0
  -22.6049   -9.7614   21.6938 C   0  0  0  0  0  0  0  0  0  0  0  0
  -25.3164  -26.6358   19.7399 C   0  0  0  0  0  0  0  0  0  0  0  0
  -23.3672   -7.4831   21.4387 C   0  0  0  0  0  0  0  0  0  0  0  0
  -26.7763  -25.3564   13.7971 C   0  0  0  0  0  0  0  0  0  0  0  0
  -27.9565  -12.4458   19.7229 C   0  0  0  0  0  0  0  0  0  0  0  0
  -30.3157  -13.4063   19.5834 C   0  0  0  0  0  0  0  0  0  0  0  0
  -18.4532  -31.1339   23.7113 C   0  0  0  0  0  0  0  0  0  0  0  0
  -23.6826  -26.4727   21.5186 C   0  0  0  0  0  0  0  0  0  0  0  0
  -19.1518  -30.3506   22.7728 C   0  0  0  0  0  0  0  0  0  0  0  0
  -24.8083  -27.0979   20.9636 C   0  0  0  0  0  0  0  0  0  0  0  0
  -27.3920  -23.9830   16.0207 C   0  0  0  0  0  0  0  0  0  0  0  0
  -25.9931  -10.5360   19.1933 C   0  0  0  0  0  0  0  0  0  0  0  0
  -24.7211  -25.5587   19.0839 C   0  0  0  0  0  0  0  0  0  0  0  0
  -24.2191   -9.2122   19.9822 C   0  0  0  0  0  0  0  0  0  0  0  0
  -22.5750   -8.4256   22.0943 C   0  0  0  0  0  0  0  0  0  0  0  0
  -24.1892   -7.8764   20.3826 C   0  0  0  0  0  0  0  0  0  0  0  0
  -28.9700  -13.4328   19.9962 C   0  0  0  0  0  0  0  0  0  0  0  0
  -27.7000  -23.5158   14.7593 C   0  0  0  0  0  0  0  0  0  0  0  0
  -26.7471  -25.2022   16.0648 C   0  0  0  0  0  0  0  0  0  0  0  0
  -30.8544  -14.5617   20.0944 C   0  0  0  0  0  0  0  0  0  0  0  0
  -30.1342  -24.0114   17.4445 C   0  0  0  0  0  0  0  0  0  0  0  0
  -28.9403  -24.2241   19.2441 C   0  0  0  0  0  0  0  0  0  0  0  0
  -31.0160  -12.4249   18.8074 C   0  0  0  0  0  0  0  0  0  0  0  0
  -22.6917  -29.3692   22.3741 C   0  0  0  0  0  0  0  0  0  0  0  0
  -25.5843  -29.5009   23.8361 C   0  0  0  0  0  0  0  0  0  0  0  0
  -28.8018  -28.3748   23.9999 C   0  0  0  0  0  0  0  0  0  0  0  0
  -28.6374  -19.7435   21.4513 C   0  0  0  0  0  0  0  0  0  0  0  0
  -19.0528  -32.3845   24.3038 C   0  0  0  0  0  0  0  0  0  0  0  0
  -23.1312  -26.9310   22.8409 C   0  0  0  0  0  0  0  0  0  0  0  0
  -25.4846  -28.2605   21.6414 C   0  0  0  0  0  0  0  0  0  0  0  0
  -20.5691  -32.4661   24.1477 C   0  0  0  0  0  0  0  0  0  0  0  0
  -30.3739  -17.6513   23.7049 C   0  0  0  0  0  0  0  0  0  0  0  0
  -20.9787  -32.1128   22.7215 C   0  0  0  0  0  0  0  0  0  0  0  0
  -30.3350  -16.3137   22.9672 C   0  0  0  0  0  0  0  0  0  0  0  0
  -29.0564  -18.4178   23.5746 C   0  0  0  0  0  0  0  0  0  0  0  0
  -28.5709  -17.2681   21.4380 C   0  0  0  0  0  0  0  0  0  0  0  0
  -20.5742  -30.6757   22.3713 C   0  0  1  0  0  0  0  0  0  0  0  0
  -23.4913  -28.3765   23.1697 C   0  0  1  0  0  0  0  0  0  0  0  0
  -29.9029  -16.5052   21.5031 C   0  0  2  0  0  0  0  0  0  0  0  0
  -28.9284  -22.0162   13.1691 C   0  0  0  0  0  0  0  0  0  0  0  0
  -32.0230  -23.7209   15.8215 C   0  0  0  0  0  0  0  0  0  0  0  0
  -30.9389  -28.6964   25.2753 C   0  0  0  0  0  0  0  0  0  0  0  0
  -26.0833  -32.1112   22.3370 C   0  0  0  0  0  0  0  0  0  0  0  0
  -28.5151  -31.8808   22.8864 C   0  0  0  0  0  0  0  0  0  0  0  0
  -26.8407  -32.1159   24.7205 C   0  0  0  0  0  0  0  0  0  0  0  0
  -27.5491  -20.9644   23.3826 C   0  0  0  0  0  0  0  0  0  0  0  0
  -28.8110  -25.5623   24.9211 C   0  0  0  0  0  0  0  0  0  0  0  0
  -27.7329  -23.2221   17.2527 C   0  0  0  0  0  0  0  0  0  0  0  0
  -28.3986  -22.2072   14.5871 C   0  0  0  0  0  0  0  0  0  0  0  0
  -26.3619  -25.8110   17.3810 C   0  0  0  0  0  0  0  0  0  1  0  0
  -30.5084  -23.6832   16.0575 C   0  0  0  0  0  0  0  0  0  0  0  0
  -27.7869  -24.1670   20.1596 C   0  0  0  0  0  0  0  0  0  0  0  0
  -27.5107  -22.7750   20.7804 C   0  0  0  0  0  0  0  0  0  0  0  0
  -28.6827  -22.2053   21.5768 C   0  0  0  0  0  0  0  0  0  0  0  0
  -26.9684  -29.9458   23.4295 C   0  0  1  0  0  0  0  0  0  0  0  0
  -29.6456  -27.9033   25.1704 C   0  0  2  0  0  0  0  0  0  0  0  0
  -27.0882  -31.4928   23.3294 C   0  0  0  0  0  0  0  0  0  0  0  0
  -27.4058  -24.1789   13.6218 N   0  0  0  0  0  0  0  0  0  0  0  0
  -26.4229  -25.9188   14.9686 N   0  0  0  0  0  0  0  0  0  0  0  0
  -28.6723  -14.5190   20.7142 N   0  0  0  0  0  0  0  0  0  0  0  0
  -30.9041  -24.5400   18.3688 N   0  0  0  0  0  0  0  0  0  0  0  0
  -30.1445  -24.6754   19.5137 N   0  0  0  0  0  0  0  0  0  0  0  0
  -29.8384  -15.1857   20.7567 N   0  0  0  0  0  0  0  0  0  0  0  0
  -28.8890  -23.7960   17.9523 N   0  0  0  0  0  0  0  0  0  0  0  0
  -24.9044  -28.6757   22.9292 N   0  0  0  0  0  0  0  0  0  0  0  0
  -28.6568  -18.5366   22.1657 N   0  0  0  0  0  0  0  0  0  0  0  0
  -32.0934  -15.0947   20.0375 N   0  0  0  0  0  0  0  0  0  0  0  0
  -30.3115  -11.2982   18.3619 N   0  0  0  0  0  0  0  0  0  0  0  0
  -21.4965  -29.7319   22.9654 N   0  0  0  0  0  0  0  0  0  0  0  0
  -27.8896  -29.3356   24.3821 N   0  0  0  0  0  0  0  0  0  0  0  0
  -28.3735  -20.9151   22.1767 N   0  0  0  0  0  0  0  0  0  0  0  0
  -29.9897  -26.4618   25.0134 N   0  3  0  0  0  0  0  0  0  0  0  0
  -32.2347  -12.5356   18.5315 O   0  0  0  0  0  0  0  0  0  0  0  0
  -23.1275  -29.7770   21.3039 O   0  0  0  0  0  0  0  0  0  0  0  0
  -25.1263  -29.8661   24.9217 O   0  0  0  0  0  0  0  0  0  0  0  0
  -28.9406  -27.9375   22.8597 O   0  0  0  0  0  0  0  0  0  0  0  0
  -28.8368  -19.7734   20.2300 O   0  0  0  0  0  0  0  0  0  0  0  0
  -25.0353   -9.6043   18.9345 O   0  0  0  0  0  0  0  0  0  0  0  0
  -25.2256  -25.1201   17.8986 O   0  0  0  0  0  0  0  0  0  1  0  0
  -21.7867   -8.0484   23.1094 F   0  0  0  0  0  0  0  0  0  0  0  0
  -24.9489   -6.9665   19.7574 F   0  0  0  0  0  0  0  0  0  0  0  0
  1  2  1  0  0  0  0
  1  5  2  0  0  0  0
  2  6  2  0  0  0  0
  3  8  2  0  0  0  0
  3 16  1  0  0  0  0
  4  9  1  0  0  0  0
  4 16  2  0  0  0  0
  5 18  1  0  0  0  0
  6 20  1  0  0  0  0
  7 10  2  0  0  0  0
  7 19  1  0  0  0  0
  8 23  1  0  0  0  0
  9 23  2  0  0  0  0
 10 24  1  0  0  0  0
 11 12  2  0  0  0  0
 11 25  1  0  0  0  0
 12 26  1  0  0  0  0
 13 21  1  0  0  0  0
 13 24  2  0  0  0  0
 14 26  2  0  0  0  0
 14 27  1  0  0  0  0
 15 69  2  0  0  0  0
 15 70  1  0  0  0  0
 16 28  1  0  0  0  0
 17 28  1  0  0  0  0
 17 31  2  0  0  0  0
 17 34  1  0  0  0  0
 18 20  2  0  0  0  0
 18 39  1  0  0  0  0
 19 21  2  0  0  0  0
 19 40  1  0  0  0  0
 20 48  1  0  0  0  0
 21 41  1  0  0  0  0
 22 29  2  0  0  0  0
 22 30  1  0  0  0  0
 22 59  1  0  0  0  0
 23 89  1  0  0  0  0
 24 90  1  0  0  0  0
 25 27  2  0  0  0  0
 25 89  1  0  0  0  0
 26 91  1  0  0  0  0
 27 92  1  0  0  0  0
 28 71  2  0  0  0  0
 29 60  1  0  0  0  0
 29 69  1  0  0  0  0
 30 61  1  0  0  0  0
 30 70  2  0  0  0  0
 31 74  1  0  0  0  0
 31 78  1  0  0  0  0
 32 62  1  0  0  0  0
 32 72  2  0  0  0  0
 32 75  1  0  0  0  0
 33 63  1  0  0  0  0
 33 73  2  0  0  0  0
 33 75  1  0  0  0  0
 34 79  1  0  0  0  0
 34 84  2  0  0  0  0
 35 49  1  0  0  0  0
 35 80  1  0  0  0  0
 35 85  2  0  0  0  0
 36 66  1  0  0  0  0
 36 76  1  0  0  0  0
 36 86  2  0  0  0  0
 37 67  1  0  0  0  0
 37 81  1  0  0  0  0
 37 87  2  0  0  0  0
 38 77  1  0  0  0  0
 38 82  1  0  0  0  0
 38 88  2  0  0  0  0
 39 42  1  0  0  0  0
 40 49  1  0  0  0  0
 41 76  1  0  0  0  0
 42 44  1  0  0  0  0
 43 45  1  0  0  0  0
 43 46  1  0  0  0  0
 44 48  1  0  0  0  0
 45 50  1  0  0  0  0
 46 77  1  0  0  0  0
 47 50  1  0  0  0  0
 47 77  1  0  0  0  0
 48 80  1  0  0  0  0
 49 76  1  0  0  0  0
 50 74  1  0  0  0  0
 51 60  1  0  0  0  0
 52 62  1  0  0  0  0
 53 67  1  0  0  0  0
 54 68  1  0  0  0  0
 55 68  1  0  0  0  0
 56 68  1  0  0  0  0
 57 82  1  0  0  0  0
 58 83  1  0  0  0  0
 59 75  1  0  0  0  0
 61 90  1  0  0  0  0
 63 64  1  0  0  0  0
 64 65  1  0  0  0  0
 65 82  1  0  0  0  0
 66 68  1  0  0  0  0
 66 81  1  0  0  0  0
 67 83  1  0  0  0  0
 71 74  1  0  0  0  0
 72 73  1  0  0  0  0
M  CHG  1  83   1
M  ISO  4  38 100  61 101  82 100  90 101
M  END
> <Batch ID>
0061

> <Smiles>
CCc1ncnc([101CH2:1][101O:1]c2ccc3c(c2)CN(C(=O)C(NC(=O)C(C)NC)C(C)(C)C)C(C(=O)NC2CCCc4ccccc42)C3)c1Cn1c(CC)nnc1CCC[100N:0](C)[100C:0](=O)N1CCCC(n2nc(-c3ccc(Oc4ccc(F)cc4F)cc3)c(C(N)=O)c2N)C1

> <Shape>
0.281

> <Color>
0.070

> <Negative vol penalty>
0.000

$$$$

  -OEChem-04052317583D

 87 95  0     1  0  0  0  0  0999 V2000
  -31.1593  -23.7933   16.3834 C   0  0  0  0  0  0  0  0  0  0  0  0
  -29.8278  -24.1715   16.2436 C   0  0  0  0  0  0  0  0  0  0  0  0
  -23.5340  -14.3286   19.7465 C   0  0  0  0  0  0  0  0  0  0  0  0
  -25.1226  -15.1484   21.3717 C   0  0  0  0  0  0  0  0  0  0  0  0
  -31.7249  -23.6942   17.6539 C   0  0  0  0  0  0  0  0  0  0  0  0
  -29.0608  -24.4497   17.3744 C   0  0  0  0  0  0  0  0  0  0  0  0
  -24.6284  -28.6460   17.8754 C   0  0  0  0  0  0  0  0  0  0  0  0
  -24.2845  -13.1620   19.6013 C   0  0  0  0  0  0  0  0  0  0  0  0
  -25.8731  -13.9817   21.2266 C   0  0  0  0  0  0  0  0  0  0  0  0
  -23.2390  -28.5561   17.8023 C   0  0  0  0  0  0  0  0  0  0  0  0
  -28.1018  -12.7110   19.0245 C   0  0  0  0  0  0  0  0  0  0  0  0
  -29.4852  -12.8413   18.9030 C   0  0  0  0  0  0  0  0  0  0  0  0
  -23.1276  -28.4156   20.2079 C   0  0  0  0  0  0  0  0  0  0  0  0
  -29.7857  -11.5079   20.8952 C   0  0  0  0  0  0  0  0  0  0  0  0
  -19.2809  -24.5995   19.0385 C   0  0  0  0  0  0  0  0  0  0  0  0
  -23.9530  -15.3219   20.6317 C   0  0  0  0  0  0  0  0  0  0  0  0
  -22.1293  -16.7562   21.6921 C   0  0  0  0  0  0  0  0  0  0  0  0
  -30.9672  -23.9807   18.8003 C   0  0  0  0  0  0  0  0  0  0  0  0
  -25.2796  -28.6103   19.1168 C   0  0  0  0  0  0  0  0  0  0  0  0
  -29.6164  -24.3530   18.6615 C   0  0  0  0  0  0  0  0  0  0  0  0
  -24.5251  -28.5078   20.2942 C   0  0  0  0  0  0  0  0  0  0  0  0
  -25.4541  -12.9885   20.3413 C   0  0  0  0  0  0  0  0  0  0  0  0
  -22.4886  -28.4379   18.9685 C   0  0  0  0  0  0  0  0  0  0  0  0
  -27.5603  -11.9792   20.0813 C   0  0  0  0  0  0  0  0  0  0  0  0
  -30.3272  -12.2398   19.8384 C   0  0  0  0  0  0  0  0  0  0  0  0
  -28.4022  -11.3776   21.0167 C   0  0  0  0  0  0  0  0  0  0  0  0
  -23.1784  -16.5276   20.7817 C   0  0  0  0  0  0  0  0  0  0  0  0
  -21.7274  -18.0444   21.4364 C   0  0  0  0  0  0  0  0  0  0  0  0
  -20.0232  -24.8765   20.9696 C   0  0  0  0  0  0  0  0  0  0  0  0
  -21.5682  -15.8823   22.6806 C   0  0  0  0  0  0  0  0  0  0  0  0
  -27.3902  -26.6687   20.4876 C   0  0  0  0  0  0  0  0  0  0  0  0
  -27.3693  -28.9262   22.8169 C   0  0  0  0  0  0  0  0  0  0  0  0
  -25.7066  -31.4677   24.3735 C   0  0  0  0  0  0  0  0  0  0  0  0
  -22.9149  -23.3997   20.4085 C   0  0  0  0  0  0  0  0  0  0  0  0
  -31.6089  -23.8139   20.1550 C   0  0  0  0  0  0  0  0  0  0  0  0
  -26.7772  -28.7353   19.1801 C   0  0  0  0  0  0  0  0  0  0  0  0
  -25.1747  -28.4853   21.6529 C   0  0  0  0  0  0  0  0  0  0  0  0
  -30.8336  -24.4890   21.2835 C   0  0  0  0  0  0  0  0  0  0  0  0
  -22.9042  -21.1671   17.6350 C   0  0  0  0  0  0  0  0  0  0  0  0
  -29.3470  -24.1637   21.1789 C   0  0  0  0  0  0  0  0  0  0  0  0
  -22.8944  -19.7808   18.2814 C   0  0  0  0  0  0  0  0  0  0  0  0
  -23.7488  -22.1567   18.4346 C   0  0  0  0  0  0  0  0  0  0  0  0
  -23.3831  -20.8763   20.5085 C   0  0  0  0  0  0  0  0  0  0  0  0
  -28.7590  -24.6870   19.8629 C   0  0  1  0  0  0  0  0  0  0  0  0
  -27.3699  -28.1710   20.4676 C   0  0  1  0  0  0  0  0  0  0  0  0
  -22.4989  -19.8582   19.7683 C   0  0  2  0  0  0  0  0  0  0  0  0
  -16.8591  -27.5050   18.8896 C   0  0  0  0  0  0  0  0  0  0  0  0
  -25.9280  -33.0963   26.2699 C   0  0  0  0  0  0  0  0  0  0  0  0
  -19.8740  -23.5028   23.1507 C   0  0  0  0  0  0  0  0  0  0  0  0
  -26.7632  -26.6913   24.8039 C   0  0  0  0  0  0  0  0  0  0  0  0
  -26.0665  -28.4413   26.4532 C   0  0  0  0  0  0  0  0  0  0  0  0
  -28.4144  -28.3865   25.6124 C   0  0  0  0  0  0  0  0  0  0  0  0
  -25.5391  -33.7924   22.5496 C   0  0  0  0  0  0  0  0  0  0  0  0
  -18.2320  -28.0985   18.5969 C   0  0  0  0  0  0  0  0  0  0  0  0
  -22.0689  -24.5021   22.4647 C   0  0  0  0  0  0  0  0  0  0  0  0
  -20.5793  -27.7407   17.7337 C   0  0  0  0  0  0  0  0  0  1  0  0
  -26.5642  -29.1594   24.0725 C   0  0  1  0  0  0  0  0  0  0  0  0
  -26.1515  -32.8597   24.7843 C   0  0  2  0  0  0  0  0  0  0  0  0
  -19.2489  -27.0553   18.0884 C   0  0  1  0  0  0  0  0  0  0  0  0
  -20.5009  -24.7111   22.3396 C   0  0  1  0  0  0  0  0  0  0  0  0
  -26.9397  -28.1681   25.2099 C   0  0  0  0  0  0  0  0  0  0  0  0
  -20.1723  -25.9712   23.2199 C   0  0  0  0  0  0  0  0  0  0  0  0
  -19.6081  -23.9173   20.1753 N   0  0  0  0  0  0  0  0  0  0  0  0
  -23.4273  -17.5856   20.0055 N   0  0  0  0  0  0  0  0  0  0  0  0
  -19.9428  -26.0714   20.3251 N   0  0  0  0  0  0  0  0  0  0  0  0
  -19.4676  -25.9204   19.0795 N   0  0  0  0  0  0  0  0  0  0  0  0
  -22.5287  -18.4916   20.4274 N   0  0  0  0  0  0  0  0  0  0  0  0
  -26.6422  -28.6041   21.6622 N   0  0  0  0  0  0  0  0  0  0  0  0
  -23.3218  -22.1834   19.8357 N   0  0  0  0  0  0  0  0  0  0  0  0
  -20.7701  -18.8270   21.9784 N   0  0  0  0  0  0  0  0  0  0  0  0
  -22.0999  -14.5920   22.8107 N   0  0  0  0  0  0  0  0  0  0  0  0
  -28.5326  -26.1142   19.9427 N   0  0  0  0  0  0  0  0  0  0  0  0
  -26.7474  -30.5644   24.4198 N   0  0  0  0  0  0  0  0  0  0  0  0
  -22.5198  -23.3355   21.7391 N   0  0  0  0  0  0  0  0  0  0  0  0
  -25.3910  -33.8919   24.0245 N   0  3  0  0  0  0  0  0  0  0  0  0
  -20.6126  -16.2295   23.4153 O   0  0  0  0  0  0  0  0  0  0  0  0
  -26.4404  -26.0579   20.9636 O   0  0  0  0  0  0  0  0  0  0  0  0
  -28.5975  -29.0331   22.8575 O   0  0  0  0  0  0  0  0  0  0  0  0
  -24.5505  -31.2068   24.0480 O   0  0  0  0  0  0  0  0  0  0  0  0
  -22.8994  -24.4629   19.7791 O   0  0  0  0  0  0  0  0  0  0  0  0
  -26.1866  -11.8501   20.2001 O   0  0  0  0  0  0  0  0  0  0  0  0
  -21.1323  -28.3493   18.9000 O   0  0  0  0  0  0  0  0  0  1  0  0
  -31.6557  -12.3637   19.7207 F   0  0  0  0  0  0  0  0  0  0  0  0
  -27.8879  -10.6723   22.0335 F   0  0  0  0  0  0  0  0  0  0  0  0
  -18.8349  -26.1708   23.2602 F   0  0  0  0  0  0  0  0  0  0  0  0
  -20.7336  -27.0850   22.7004 F   0  0  0  0  0  0  0  0  0  0  0  0
  -20.6007  -25.8746   24.5008 F   0  0  0  0  0  0  0  0  0  0  0  0
  1  2  1  0  0  0  0
  1  5  2  0  0  0  0
  2  6  2  0  0  0  0
  3  8  2  0  0  0  0
  3 16  1  0  0  0  0
  4  9  1  0  0  0  0
  4 16  2  0  0  0  0
  5 18  1  0  0  0  0
  6 20  1  0  0  0  0
  7 10  2  0  0  0  0
  7 19  1  0  0  0  0
  8 22  1  0  0  0  0
  9 22  2  0  0  0  0
 10 23  1  0  0  0  0
 11 12  2  0  0  0  0
 11 24  1  0  0  0  0
 12 25  1  0  0  0  0
 13 21  1  0  0  0  0
 13 23  2  0  0  0  0
 14 25  2  0  0  0  0
 14 26  1  0  0  0  0
 15 63  2  0  0  0  0
 15 66  1  0  0  0  0
 16 27  1  0  0  0  0
 17 27  1  0  0  0  0
 17 28  2  0  0  0  0
 17 30  1  0  0  0  0
 18 20  2  0  0  0  0
 18 35  1  0  0  0  0
 19 21  2  0  0  0  0
 19 36  1  0  0  0  0
 20 44  1  0  0  0  0
 21 37  1  0  0  0  0
 22 81  1  0  0  0  0
 23 82  1  0  0  0  0
 24 26  2  0  0  0  0
 24 81  1  0  0  0  0
 25 83  1  0  0  0  0
 26 84  1  0  0  0  0
 27 64  2  0  0  0  0
 28 67  1  0  0  0  0
 28 70  1  0  0  0  0
 29 60  1  0  0  0  0
 29 63  1  0  0  0  0
 29 65  2  0  0  0  0
 30 71  1  0  0  0  0
 30 76  2  0  0  0  0
 31 45  1  0  0  0  0
 31 72  1  0  0  0  0
 31 77  2  0  0  0  0
 32 57  1  0  0  0  0
 32 68  1  0  0  0  0
 32 78  2  0  0  0  0
 33 58  1  0  0  0  0
 33 73  1  0  0  0  0
 33 79  2  0  0  0  0
 34 69  1  0  0  0  0
 34 74  1  0  0  0  0
 34 80  2  0  0  0  0
 35 38  1  0  0  0  0
 36 45  1  0  0  0  0
 37 68  1  0  0  0  0
 38 40  1  0  0  0  0
 39 41  1  0  0  0  0
 39 42  1  0  0  0  0
 40 44  1  0  0  0  0
 41 46  1  0  0  0  0
 42 69  1  0  0  0  0
 43 46  1  0  0  0  0
 43 69  1  0  0  0  0
 44 72  1  0  0  0  0
 45 68  1  0  0  0  0
 46 67  1  0  0  0  0
 47 54  1  0  0  0  0
 48 58  1  0  0  0  0
 49 60  1  0  0  0  0
 50 61  1  0  0  0  0
 51 61  1  0  0  0  0
 52 61  1  0  0  0  0
 53 75  1  0  0  0  0
 54 59  1  0  0  0  0
 55 60  1  0  0  0  0
 55 74  1  0  0  0  0
 56 59  1  0  0  0  0
 56 82  1  0  0  0  0
 57 61  1  0  0  0  0
 57 73  1  0  0  0  0
 58 75  1  0  0  0  0
 59 66  1  0  0  0  0
 60 62  1  0  0  0  0
 62 85  1  0  0  0  0
 62 86  1  0  0  0  0
 62 87  1  0  0  0  0
 64 67  1  0  0  0  0
 65 66  1  0  0  0  0
M  CHG  1  75   1
M  ISO  4  34 100  56 101  74 100  82 101
M  END
> <Batch ID>
0061

> <Smiles>
CCC(n1cnc(C(C)(C[100NH:0][100C:0](=O)N2CCCC(n3nc(-c4ccc(Oc5ccc(F)cc5F)cc4)c(C(N)=O)c3N)C2)C(F)(F)F)n1)[101CH2:1][101O:1]c1ccc2c(c1)CN(C(=O)C(NC(=O)C(C)NC)C(C)(C)C)C(C(=O)NC1CCCc3ccccc31)C2

> <Shape>
0.228

> <Color>
0.062

> <Negative vol penalty>
0.000

$$$$

  -OEChem-04052317583D

 81 89  0     1  0  0  0  0  0999 V2000
  -16.7655  -28.2970   23.9007 C   0  0  0  0  0  0  0  0  0  0  0  0
  -17.8196  -27.4196   23.6673 C   0  0  0  0  0  0  0  0  0  0  0  0
  -26.8123  -16.7583   20.4187 C   0  0  0  0  0  0  0  0  0  0  0  0
  -29.0824  -16.2081   19.8016 C   0  0  0  0  0  0  0  0  0  0  0  0
  -16.8247  -29.6016   23.4125 C   0  0  0  0  0  0  0  0  0  0  0  0
  -18.9332  -27.8461   22.9446 C   0  0  0  0  0  0  0  0  0  0  0  0
  -26.0184  -26.8789   22.5198 C   0  0  0  0  0  0  0  0  0  0  0  0
  -26.6185  -15.4527   20.8699 C   0  0  0  0  0  0  0  0  0  0  0  0
  -28.8887  -14.9026   20.2529 C   0  0  0  0  0  0  0  0  0  0  0  0
  -27.0093  -26.5693   21.5891 C   0  0  0  0  0  0  0  0  0  0  0  0
  -25.4134  -12.1657   21.8533 C   0  0  0  0  0  0  0  0  0  0  0  0
  -24.2297  -11.5221   21.4923 C   0  0  0  0  0  0  0  0  0  0  0  0
  -27.0368  -28.8694   20.8623 C   0  0  0  0  0  0  0  0  0  0  0  0
  -24.8053  -11.7724   19.1592 C   0  0  0  0  0  0  0  0  0  0  0  0
  -31.3632  -25.6620   18.9031 C   0  0  0  0  0  0  0  0  0  0  0  0
  -28.0442  -17.1360   19.8845 C   0  0  0  0  0  0  0  0  0  0  0  0
  -28.7139  -19.5815   20.1647 C   0  0  0  0  0  0  0  0  0  0  0  0
  -17.9439  -30.0472   22.6917 C   0  0  0  0  0  0  0  0  0  0  0  0
  -25.5207  -28.1860   22.6213 C   0  0  0  0  0  0  0  0  0  0  0  0
  -19.0069  -29.1576   22.4451 C   0  0  0  0  0  0  0  0  0  0  0  0
  -26.0414  -29.1935   21.7968 C   0  0  0  0  0  0  0  0  0  0  0  0
  -27.6567  -14.5249   20.7870 C   0  0  0  0  0  0  0  0  0  0  0  0
  -27.5167  -27.5640   20.7583 C   0  0  0  0  0  0  0  0  0  0  0  0
  -26.2930  -12.6128   20.8673 C   0  0  0  0  0  0  0  0  0  0  0  0
  -23.9257  -11.3255   20.1452 C   0  0  0  0  0  0  0  0  0  0  0  0
  -25.9889  -12.4161   19.5203 C   0  0  0  0  0  0  0  0  0  0  0  0
  -28.2448  -18.4843   19.4178 C   0  0  0  0  0  0  0  0  0  0  0  0
  -30.0100  -25.7895   18.7630 C   0  0  0  0  0  0  0  0  0  0  0  0
  -28.7250  -20.6251   19.2719 C   0  0  0  0  0  0  0  0  0  0  0  0
  -30.8981  -25.6697   16.7388 C   0  0  0  0  0  0  0  0  0  0  0  0
  -29.1048  -19.6511   21.5424 C   0  0  0  0  0  0  0  0  0  0  0  0
  -22.6746  -29.5406   22.2113 C   0  0  0  0  0  0  0  0  0  0  0  0
  -24.2010  -32.1752   23.3299 C   0  0  0  0  0  0  0  0  0  0  0  0
  -27.1435  -33.8402   23.7947 C   0  0  0  0  0  0  0  0  0  0  0  0
  -29.8828  -22.6962   14.2206 C   0  0  0  0  0  0  0  0  0  0  0  0
  -17.9418  -31.4522   22.1433 C   0  0  0  0  0  0  0  0  0  0  0  0
  -24.4707  -28.5093   23.6487 C   0  0  0  0  0  0  0  0  0  0  0  0
  -25.5553  -30.6166   21.8802 C   0  0  0  0  0  0  0  0  0  0  0  0
  -19.3220  -31.9384   21.7085 C   0  0  0  0  0  0  0  0  0  0  0  0
  -26.7795  -20.9966   14.6174 C   0  0  0  0  0  0  0  0  0  0  0  0
  -20.0250  -30.8725   20.8740 C   0  0  0  0  0  0  0  0  0  0  0  0
  -26.9254  -20.2774   15.9596 C   0  0  0  0  0  0  0  0  0  0  0  0
  -28.0964  -21.0218   13.8446 C   0  0  0  0  0  0  0  0  0  0  0  0
  -29.3894  -20.8491   15.9356 C   0  0  0  0  0  0  0  0  0  0  0  0
  -20.2429  -29.5904   21.6867 C   0  0  1  0  0  0  0  0  0  0  0  0
  -23.6722  -29.7649   23.3122 C   0  0  1  0  0  0  0  0  0  0  0  0
  -28.1011  -20.8470   16.7761 C   0  0  2  0  0  0  0  0  0  0  0  0
  -31.8947  -26.8218   14.7380 C   0  0  0  0  0  0  0  0  0  0  0  0
  -28.0689  -35.9890   24.7021 C   0  0  0  0  0  0  0  0  0  0  0  0
  -23.2266  -33.6438   20.8392 C   0  0  0  0  0  0  0  0  0  0  0  0
  -24.9222  -35.4244   21.3108 C   0  0  0  0  0  0  0  0  0  0  0  0
  -23.0984  -34.9752   22.9523 C   0  0  0  0  0  0  0  0  0  0  0  0
  -28.4380  -25.9081   16.8060 C   0  0  0  0  0  0  0  0  0  0  0  0
  -28.7640  -32.4204   25.8238 C   0  0  0  0  0  0  0  0  0  0  0  0
  -28.9319  -25.9106   19.7995 C   0  0  0  0  0  0  0  0  0  1  0  0
  -31.6946  -24.3090   14.7457 C   0  0  0  0  0  0  0  0  0  0  0  0
  -31.0657  -25.6283   15.2648 C   0  0  1  0  0  0  0  0  0  0  0  0
  -24.9807  -33.3058   22.7033 C   0  0  1  0  0  0  0  0  0  0  0  0
  -27.7235  -34.5404   25.0103 C   0  0  2  0  0  0  0  0  0  0  0  0
  -24.0650  -34.3102   21.9483 C   0  0  0  0  0  0  0  0  0  0  0  0
  -27.9771  -18.8014   18.1482 N   0  0  0  0  0  0  0  0  0  0  0  0
  -29.7504  -25.7919   17.4137 N   0  0  0  0  0  0  0  0  0  0  0  0
  -28.2789  -20.1098   18.0905 N   0  0  0  0  0  0  0  0  0  0  0  0
  -31.8871  -25.5897   17.6349 N   0  3  0  0  0  0  0  0  0  0  0  0
  -24.5233  -30.8814   22.8962 N   0  0  0  0  0  0  0  0  0  0  0  0
  -29.1698  -21.5743   14.6744 N   0  0  0  0  0  0  0  0  0  0  0  0
  -29.0727  -21.9242   19.3899 N   0  0  0  0  0  0  0  0  0  0  0  0
  -29.0321  -18.4855   22.3172 N   0  0  0  0  0  0  0  0  0  0  0  0
  -21.3621  -29.7488   22.5903 N   0  0  0  0  0  0  0  0  0  0  0  0
  -25.7662  -33.9042   23.7772 N   0  0  0  0  0  0  0  0  0  0  0  0
  -30.8793  -23.1600   15.0708 N   0  0  0  0  0  0  0  0  0  0  0  0
  -28.9626  -33.8482   25.4647 N   0  3  0  0  0  0  0  0  0  0  0  0
  -29.4910  -20.7192   22.0750 O   0  0  0  0  0  0  0  0  0  0  0  0
  -23.0666  -29.2049   21.0998 O   0  0  0  0  0  0  0  0  0  0  0  0
  -23.3425  -32.4300   24.1784 O   0  0  0  0  0  0  0  0  0  0  0  0
  -27.8425  -33.2944   22.9438 O   0  0  0  0  0  0  0  0  0  0  0  0
  -29.6453  -23.2473   13.1404 O   0  0  0  0  0  0  0  0  0  0  0  0
  -27.4681  -13.2509   21.2274 O   0  0  0  0  0  0  0  0  0  0  0  0
  -28.4834  -27.2644   19.8486 O   0  0  0  0  0  0  0  0  0  1  0  0
  -22.7897  -10.7060   19.7987 F   0  0  0  0  0  0  0  0  0  0  0  0
  -26.8306  -12.8423   18.5685 F   0  0  0  0  0  0  0  0  0  0  0  0
  1  2  1  0  0  0  0
  1  5  2  0  0  0  0
  2  6  2  0  0  0  0
  3  8  2  0  0  0  0
  3 16  1  0  0  0  0
  4  9  1  0  0  0  0
  4 16  2  0  0  0  0
  5 18  1  0  0  0  0
  6 20  1  0  0  0  0
  7 10  2  0  0  0  0
  7 19  1  0  0  0  0
  8 22  1  0  0  0  0
  9 22  2  0  0  0  0
 10 23  1  0  0  0  0
 11 12  2  0  0  0  0
 11 24  1  0  0  0  0
 12 25  1  0  0  0  0
 13 21  1  0  0  0  0
 13 23  2  0  0  0  0
 14 25  2  0  0  0  0
 14 26  1  0  0  0  0
 15 28  2  0  0  0  0
 15 64  1  0  0  0  0
 16 27  1  0  0  0  0
 17 27  1  0  0  0  0
 17 29  2  0  0  0  0
 17 31  1  0  0  0  0
 18 20  2  0  0  0  0
 18 36  1  0  0  0  0
 19 21  2  0  0  0  0
 19 37  1  0  0  0  0
 20 45  1  0  0  0  0
 21 38  1  0  0  0  0
 22 78  1  0  0  0  0
 23 79  1  0  0  0  0
 24 26  2  0  0  0  0
 24 78  1  0  0  0  0
 25 80  1  0  0  0  0
 26 81  1  0  0  0  0
 27 61  2  0  0  0  0
 28 55  1  0  0  0  0
 28 62  1  0  0  0  0
 29 63  1  0  0  0  0
 29 67  1  0  0  0  0
 30 57  1  0  0  0  0
 30 62  1  0  0  0  0
 30 64  2  0  0  0  0
 31 68  1  0  0  0  0
 31 73  2  0  0  0  0
 32 46  1  0  0  0  0
 32 69  1  0  0  0  0
 32 74  2  0  0  0  0
 33 58  1  0  0  0  0
 33 65  1  0  0  0  0
 33 75  2  0  0  0  0
 34 59  1  0  0  0  0
 34 70  1  0  0  0  0
 34 76  2  0  0  0  0
 35 66  1  0  0  0  0
 35 71  1  0  0  0  0
 35 77  2  0  0  0  0
 36 39  1  0  0  0  0
 37 46  1  0  0  0  0
 38 65  1  0  0  0  0
 39 41  1  0  0  0  0
 40 42  1  0  0  0  0
 40 43  1  0  0  0  0
 41 45  1  0  0  0  0
 42 47  1  0  0  0  0
 43 66  1  0  0  0  0
 44 47  1  0  0  0  0
 44 66  1  0  0  0  0
 45 69  1  0  0  0  0
 46 65  1  0  0  0  0
 47 63  1  0  0  0  0
 48 57  1  0  0  0  0
 49 59  1  0  0  0  0
 50 60  1  0  0  0  0
 51 60  1  0  0  0  0
 52 60  1  0  0  0  0
 53 62  1  0  0  0  0
 54 72  1  0  0  0  0
 55 79  1  0  0  0  0
 56 57  1  0  0  0  0
 56 71  1  0  0  0  0
 58 60  1  0  0  0  0
 58 70  1  0  0  0  0
 59 72  1  0  0  0  0
 61 63  1  0  0  0  0
M  CHG  2  64   1  72   1
M  ISO  4  35 100  55 101  71 100  79 101
M  END
> <Batch ID>
0061

> <Smiles>
CNC(C)C(=O)NC(C(=O)N1Cc2cc([101O:1][101CH2:1]c3cnc(C(C)C[100NH:0][100C:0](=O)N4CCCC(n5nc(-c6ccc(Oc7ccc(F)cc7F)cc6)c(C(N)=O)c5N)C4)n3C)ccc2CC1C(=O)NC1CCCc2ccccc21)C(C)(C)C

> <Shape>
0.277

> <Color>
0.091

> <Negative vol penalty>
0.000

$$$$

  -OEChem-04052317583D

 87 95  0     1  0  0  0  0  0999 V2000
  -30.0460  -28.2848   35.3778 C   0  0  0  0  0  0  0  0  0  0  0  0
  -29.7206  -27.2404   34.5182 C   0  0  0  0  0  0  0  0  0  0  0  0
  -23.3220   -9.6569   19.8893 C   0  0  0  0  0  0  0  0  0  0  0  0
  -23.7518   -9.9002   22.2543 C   0  0  0  0  0  0  0  0  0  0  0  0
  -29.7221  -29.5964   35.0332 C   0  0  0  0  0  0  0  0  0  0  0  0
  -29.0700  -27.5070   33.3141 C   0  0  0  0  0  0  0  0  0  0  0  0
  -29.7997  -24.5483   28.0018 C   0  0  0  0  0  0  0  0  0  0  0  0
  -22.6475   -8.4609   20.1349 C   0  0  0  0  0  0  0  0  0  0  0  0
  -23.0772   -8.7042   22.4999 C   0  0  0  0  0  0  0  0  0  0  0  0
  -29.0636  -23.5402   27.3808 C   0  0  0  0  0  0  0  0  0  0  0  0
  -23.7139   -5.3918   22.2682 C   0  0  0  0  0  0  0  0  0  0  0  0
  -24.3052   -4.4826   23.1452 C   0  0  0  0  0  0  0  0  0  0  0  0
  -27.8910  -25.2030   26.0849 C   0  0  0  0  0  0  0  0  0  0  0  0
  -22.3742   -4.6210   24.5906 C   0  0  0  0  0  0  0  0  0  0  0  0
  -23.8742  -10.3765   20.9490 C   0  0  0  0  0  0  0  0  0  0  0  0
  -24.0215  -12.9071   20.6628 C   0  0  0  0  0  0  0  0  0  0  0  0
  -29.0758  -29.8801   33.8198 C   0  0  0  0  0  0  0  0  0  0  0  0
  -29.5789  -25.8944   27.6763 C   0  0  0  0  0  0  0  0  0  0  0  0
  -28.7359  -28.8235   32.9536 C   0  0  0  0  0  0  0  0  0  0  0  0
  -28.6274  -26.2261   26.7013 C   0  0  0  0  0  0  0  0  0  0  0  0
  -22.5250   -7.9846   21.4402 C   0  0  0  0  0  0  0  0  0  0  0  0
  -28.1071  -23.8676   26.4243 C   0  0  0  0  0  0  0  0  0  0  0  0
  -22.4528   -5.9158   22.5523 C   0  0  0  0  0  0  0  0  0  0  0  0
  -23.6354   -4.0972   24.3064 C   0  0  0  0  0  0  0  0  0  0  0  0
  -21.7829   -5.5303   23.7135 C   0  0  0  0  0  0  0  0  0  0  0  0
  -24.5716  -11.6117   20.6959 C   0  0  0  0  0  0  0  0  0  0  0  0
  -25.0886  -13.7262   20.3854 C   0  0  0  0  0  0  0  0  0  0  0  0
  -24.7854  -19.6975   25.0071 C   0  0  0  0  0  0  0  0  0  0  0  0
  -26.5550  -19.1181   23.7543 C   0  0  0  0  0  0  0  0  0  0  0  0
  -26.7947  -20.6118   25.4120 C   0  0  0  0  0  0  0  0  0  0  0  0
  -22.6671  -13.3320   20.8647 C   0  0  0  0  0  0  0  0  0  0  0  0
  -28.5982  -28.4580   29.2793 C   0  0  0  0  0  0  0  0  0  0  0  0
  -29.3145  -29.9836   26.5077 C   0  0  0  0  0  0  0  0  0  0  0  0
  -29.7440  -29.8004   23.1270 C   0  0  0  0  0  0  0  0  0  0  0  0
  -30.3906  -15.2596   21.2118 C   0  0  0  0  0  0  0  0  0  0  0  0
  -28.7036  -31.3090   33.5123 C   0  0  0  0  0  0  0  0  0  0  0  0
  -30.4000  -26.9682   28.3359 C   0  0  0  0  0  0  0  0  0  0  0  0
  -28.3665  -27.6546   26.3015 C   0  0  0  0  0  0  0  0  0  0  0  0
  -28.3495  -31.5442   32.0462 C   0  0  0  0  0  0  0  0  0  0  0  0
  -29.7957  -12.6135   18.9051 C   0  0  0  0  0  0  0  0  0  0  0  0
  -27.3999  -30.4603   31.5458 C   0  0  0  0  0  0  0  0  0  0  0  0
  -28.3409  -12.2201   19.1670 C   0  0  0  0  0  0  0  0  0  0  0  0
  -30.5154  -13.0047   20.1939 C   0  0  0  0  0  0  0  0  0  0  0  0
  -28.3856  -13.6550   21.2498 C   0  0  0  0  0  0  0  0  0  0  0  0
  -28.0522  -29.0749   31.6271 C   0  0  1  0  0  0  0  0  0  0  0  0
  -29.7311  -28.3389   28.2995 C   0  0  1  0  0  0  0  0  0  0  0  0
  -27.6026  -13.3061   19.9724 C   0  0  2  0  0  0  0  0  0  0  0  0
  -23.3361  -19.5692   25.3322 C   0  0  0  0  0  0  0  0  0  0  0  0
  -30.2891  -31.2199   21.1307 C   0  0  0  0  0  0  0  0  0  0  0  0
  -26.4869  -31.1293   26.5535 C   0  0  0  0  0  0  0  0  0  0  0  0
  -26.7656  -31.7288   24.1387 C   0  0  0  0  0  0  0  0  0  0  0  0
  -28.2584  -32.7510   25.8560 C   0  0  0  0  0  0  0  0  0  0  0  0
  -30.9740  -18.4215   20.1061 C   0  0  0  0  0  0  0  0  0  0  0  0
  -30.0421  -19.9770   21.8174 C   0  0  0  0  0  0  0  0  0  0  0  0
  -32.1819  -28.2315   22.5316 C   0  0  0  0  0  0  0  0  0  0  0  0
  -26.1641  -19.4314   20.6340 C   0  0  0  0  0  0  0  0  0  0  0  0
  -27.1419  -18.3230   22.6380 C   0  0  0  0  0  0  0  0  0  0  0  0
  -27.6628  -21.5413   26.2082 C   0  0  0  0  0  0  0  0  0  1  0  0
  -30.1072  -17.4909   22.2607 C   0  0  0  0  0  0  0  0  0  0  0  0
  -28.4760  -18.5100   20.5438 C   0  0  0  0  0  0  0  0  0  0  0  0
  -28.5583  -30.3163   25.2441 C   0  0  1  0  0  0  0  0  0  0  0  0
  -30.8468  -30.3196   22.2222 C   0  0  2  0  0  0  0  0  0  0  0  0
  -27.5206  -31.4545   25.4568 C   0  0  0  0  0  0  0  0  0  0  0  0
  -29.8816  -18.5788   21.1839 C   0  0  0  0  0  0  0  0  0  0  0  0
  -25.8859  -11.6033   20.4584 N   0  0  0  0  0  0  0  0  0  0  0  0
  -25.2437  -18.9509   23.9892 N   0  0  0  0  0  0  0  0  0  0  0  0
  -25.4998  -20.5480   25.7618 N   0  0  0  0  0  0  0  0  0  0  0  0
  -27.3916  -19.9286   24.4222 N   0  0  0  0  0  0  0  0  0  0  0  0
  -26.1707  -12.9036   20.2733 N   0  0  0  0  0  0  0  0  0  0  0  0
  -29.1904  -28.6691   26.9793 N   0  0  0  0  0  0  0  0  0  0  0  0
  -29.7644  -14.0392   20.9092 N   0  0  0  0  0  0  0  0  0  0  0  0
  -25.1974  -15.0626   20.2289 N   0  0  0  0  0  0  0  0  0  0  0  0
  -21.6960  -12.3598   21.1405 N   0  0  0  0  0  0  0  0  0  0  0  0
  -28.9829  -28.8895   30.5344 N   0  0  0  0  0  0  0  0  0  0  0  0
  -29.5659  -30.6081   24.2302 N   0  0  0  0  0  0  0  0  0  0  0  0
  -29.6059  -16.1875   21.8857 N   0  0  0  0  0  0  0  0  0  0  0  0
  -31.5631  -29.1845   21.5746 N   0  3  0  0  0  0  0  0  0  0  0  0
  -27.4160  -19.1304   21.4170 N   0  3  1  0  0  0  0  0  0  0  0  0
  -22.3253  -14.5364   20.7863 O   0  0  0  0  0  0  0  0  0  0  0  0
  -27.4592  -28.1805   28.9225 O   0  0  0  0  0  0  0  0  0  0  0  0
  -29.9960  -30.8559   27.0520 O   0  0  0  0  0  0  0  0  0  0  0  0
  -29.1022  -28.7822   22.8781 O   0  0  0  0  0  0  0  0  0  0  0  0
  -31.5604  -15.5062   20.8994 O   0  0  0  0  0  0  0  0  0  0  0  0
  -21.8667   -6.8178   21.6802 O   0  0  0  0  0  0  0  0  0  0  0  0
  -27.3867  -22.8856   25.8171 O   0  0  0  0  0  0  0  0  0  1  0  0
  -24.2026   -3.2228   25.1478 F   0  0  0  0  0  0  0  0  0  0  0  0
  -20.5706   -6.0293   23.9913 F   0  0  0  0  0  0  0  0  0  0  0  0
  1  2  1  0  0  0  0
  1  5  2  0  0  0  0
  2  6  2  0  0  0  0
  3  8  2  0  0  0  0
  3 15  1  0  0  0  0
  4  9  1  0  0  0  0
  4 15  2  0  0  0  0
  5 17  1  0  0  0  0
  6 19  1  0  0  0  0
  7 10  2  0  0  0  0
  7 18  1  0  0  0  0
  8 21  1  0  0  0  0
  9 21  2  0  0  0  0
 10 22  1  0  0  0  0
 11 12  2  0  0  0  0
 11 23  1  0  0  0  0
 12 24  1  0  0  0  0
 13 20  1  0  0  0  0
 13 22  2  0  0  0  0
 14 24  2  0  0  0  0
 14 25  1  0  0  0  0
 15 26  1  0  0  0  0
 16 26  1  0  0  0  0
 16 27  2  0  0  0  0
 16 31  1  0  0  0  0
 17 19  2  0  0  0  0
 17 36  1  0  0  0  0
 18 20  2  0  0  0  0
 18 37  1  0  0  0  0
 19 45  1  0  0  0  0
 20 38  1  0  0  0  0
 21 84  1  0  0  0  0
 22 85  1  0  0  0  0
 23 25  2  0  0  0  0
 23 84  1  0  0  0  0
 24 86  1  0  0  0  0
 25 87  1  0  0  0  0
 26 65  2  0  0  0  0
 27 69  1  0  0  0  0
 27 72  1  0  0  0  0
 28 48  1  0  0  0  0
 28 66  1  0  0  0  0
 28 67  2  0  0  0  0
 29 57  1  0  0  0  0
 29 66  2  0  0  0  0
 29 68  1  0  0  0  0
 30 58  1  0  0  0  0
 30 67  1  0  0  0  0
 30 68  2  0  0  0  0
 31 73  1  0  0  0  0
 31 79  2  0  0  0  0
 32 46  1  0  0  0  0
 32 74  1  0  0  0  0
 32 80  2  0  0  0  0
 33 61  1  0  0  0  0
 33 70  1  0  0  0  0
 33 81  2  0  0  0  0
 34 62  1  0  0  0  0
 34 75  1  0  0  0  0
 34 82  2  0  0  0  0
 35 71  1  0  0  0  0
 35 76  1  0  0  0  0
 35 83  2  0  0  0  0
 36 39  1  0  0  0  0
 37 46  1  0  0  0  0
 38 70  1  0  0  0  0
 39 41  1  0  0  0  0
 40 42  1  0  0  0  0
 40 43  1  0  0  0  0
 41 45  1  0  0  0  0
 42 47  1  0  0  0  0
 43 71  1  0  0  0  0
 44 47  1  0  0  0  0
 44 71  1  0  0  0  0
 45 74  1  0  0  0  0
 46 70  1  0  0  0  0
 47 69  1  0  0  0  0
 49 62  1  0  0  0  0
 50 63  1  0  0  0  0
 51 63  1  0  0  0  0
 52 63  1  0  0  0  0
 53 64  1  0  0  0  0
 54 64  1  0  0  0  0
 55 77  1  0  0  0  0
 56 78  1  0  0  0  0
 57 78  1  0  0  0  0
 58 85  1  0  0  0  0
 59 64  1  0  0  0  0
 59 76  1  0  0  0  0
 60 64  1  0  0  0  0
 60 78  1  0  0  0  0
 61 63  1  0  0  0  0
 61 75  1  0  0  0  0
 62 77  1  0  0  0  0
 65 69  1  0  0  0  0
M  CHG  2  77   1  78   1
M  ISO  4  35 100  58 101  76 100  85 101
M  END
> <Batch ID>
0061

> <Smiles>
CNC(C)C(=O)NC(C(=O)N1Cc2cc([101O:1][101CH2:1]c3nc(C)nc(CN(C)CC(C)(C)C[100NH:0][100C:0](=O)N4CCCC(n5nc(-c6ccc(Oc7ccc(F)cc7F)cc6)c(C(N)=O)c5N)C4)n3)ccc2CC1C(=O)NC1CCCc2ccccc21)C(C)(C)C

> <Shape>
0.212

> <Color>
0.168

> <Negative vol penalty>
0.000

$$$$

  -OEChem-04052317583D

 84 92  0     1  0  0  0  0  0999 V2000
  -19.7491  -23.6861   24.0627 C   0  0  0  0  0  0  0  0  0  0  0  0
  -21.1122  -23.8732   23.8569 C   0  0  0  0  0  0  0  0  0  0  0  0
  -26.9211  -13.1390   20.8531 C   0  0  0  0  0  0  0  0  0  0  0  0
  -24.6494  -13.7081   20.2594 C   0  0  0  0  0  0  0  0  0  0  0  0
  -18.8503  -24.7007   23.7362 C   0  0  0  0  0  0  0  0  0  0  0  0
  -21.5772  -25.0746   23.3233 C   0  0  0  0  0  0  0  0  0  0  0  0
  -25.6335  -26.8508   25.7803 C   0  0  0  0  0  0  0  0  0  0  0  0
  -26.4608  -12.0127   21.5351 C   0  0  0  0  0  0  0  0  0  0  0  0
  -24.1890  -12.5817   20.9414 C   0  0  0  0  0  0  0  0  0  0  0  0
  -26.8619  -26.2566   25.4941 C   0  0  0  0  0  0  0  0  0  0  0  0
  -23.9732   -9.2544   20.3913 C   0  0  0  0  0  0  0  0  0  0  0  0
  -23.0115   -8.4650   19.7608 C   0  0  0  0  0  0  0  0  0  0  0  0
  -27.4035  -28.0957   24.0300 C   0  0  0  0  0  0  0  0  0  0  0  0
  -21.4825   -8.8687   21.5873 C   0  0  0  0  0  0  0  0  0  0  0  0
  -28.4077  -23.9240   18.9410 C   0  0  0  0  0  0  0  0  0  0  0  0
  -26.0154  -13.9868   20.2153 C   0  0  0  0  0  0  0  0  0  0  0  0
  -26.8643  -15.2309   18.1564 C   0  0  0  0  0  0  0  0  0  0  0  0
  -19.3053  -25.9188   23.2073 C   0  0  0  0  0  0  0  0  0  0  0  0
  -25.2757  -28.0685   25.1840 C   0  0  0  0  0  0  0  0  0  0  0  0
  -20.6835  -26.1060   22.9881 C   0  0  0  0  0  0  0  0  0  0  0  0
  -26.1710  -28.7045   24.3122 C   0  0  0  0  0  0  0  0  0  0  0  0
  -25.0947  -11.7340   21.5792 C   0  0  0  0  0  0  0  0  0  0  0  0
  -27.7459  -26.8777   24.6166 C   0  0  0  0  0  0  0  0  0  0  0  0
  -23.6896   -9.8509   21.6199 C   0  0  0  0  0  0  0  0  0  0  0  0
  -21.7661   -8.2722   20.3587 C   0  0  0  0  0  0  0  0  0  0  0  0
  -22.4443   -9.6581   22.2179 C   0  0  0  0  0  0  0  0  0  0  0  0
  -26.4903  -15.1507   19.5112 C   0  0  0  0  0  0  0  0  0  0  0  0
  -27.2376  -16.5409   17.9802 C   0  0  0  0  0  0  0  0  0  0  0  0
  -27.0943  -23.4287   20.4859 C   0  0  0  0  0  0  0  0  0  0  0  0
  -26.8733  -14.2123   17.1474 C   0  0  0  0  0  0  0  0  0  0  0  0
  -22.9512  -29.0130   23.2324 C   0  0  0  0  0  0  0  0  0  0  0  0
  -24.2180  -31.9491   23.7769 C   0  0  0  0  0  0  0  0  0  0  0  0
  -25.6600  -21.4652   20.9021 C   0  0  0  0  0  0  0  0  0  0  0  0
  -26.9313  -33.8118   24.6800 C   0  0  0  0  0  0  0  0  0  0  0  0
  -18.2916  -26.9683   22.8256 C   0  0  0  0  0  0  0  0  0  0  0  0
  -23.9581  -28.7096   25.5237 C   0  0  0  0  0  0  0  0  0  0  0  0
  -25.8431  -30.0226   23.6615 C   0  0  0  0  0  0  0  0  0  0  0  0
  -18.8986  -28.3530   22.6143 C   0  0  0  0  0  0  0  0  0  0  0  0
  -29.0512  -20.2761   20.3430 C   0  0  0  0  0  0  0  0  0  0  0  0
  -20.1539  -28.2598   21.7527 C   0  0  0  0  0  0  0  0  0  0  0  0
  -28.8049  -18.8154   19.9678 C   0  0  0  0  0  0  0  0  0  0  0  0
  -28.0535  -20.7623   21.3909 C   0  0  0  0  0  0  0  0  0  0  0  0
  -26.3763  -19.1138   20.6201 C   0  0  0  0  0  0  0  0  0  0  0  0
  -21.2287  -27.4046   22.4344 C   0  0  1  0  0  0  0  0  0  0  0  0
  -23.4818  -29.6955   24.4614 C   0  0  1  0  0  0  0  0  0  0  0  0
  -27.3428  -18.5937   19.5430 C   0  0  2  0  0  0  0  0  0  0  0  0
  -27.6721  -36.1884   24.9967 C   0  0  0  0  0  0  0  0  0  0  0  0
  -24.7141  -23.7088   21.2270 C   0  0  0  0  0  0  0  0  0  0  0  0
  -26.3273  -22.7058   22.8473 C   0  0  0  0  0  0  0  0  0  0  0  0
  -24.4090  -32.2902   20.7509 C   0  0  0  0  0  0  0  0  0  0  0  0
  -25.9833  -34.1986   21.1353 C   0  0  0  0  0  0  0  0  0  0  0  0
  -23.6410  -34.3260   21.9837 C   0  0  0  0  0  0  0  0  0  0  0  0
  -31.7424  -24.0940   20.9326 C   0  0  0  0  0  0  0  0  0  0  0  0
  -32.0815  -26.5340   21.2741 C   0  0  0  0  0  0  0  0  0  0  0  0
  -27.5136  -33.3703   27.5480 C   0  0  0  0  0  0  0  0  0  0  0  0
  -30.3505  -25.3482   22.6418 C   0  0  0  0  0  0  0  0  0  0  0  0
  -29.9886  -25.6737   20.0913 C   0  0  0  0  0  0  0  0  0  0  0  0
  -29.4998  -26.5499   23.0443 C   0  0  0  0  0  0  0  0  0  1  0  0
  -25.2910  -32.7881   23.1258 C   0  0  1  0  0  0  0  0  0  0  0  0
  -27.0847  -34.9557   25.6661 C   0  0  2  0  0  0  0  0  0  0  0  0
  -26.0300  -22.8679   21.3137 C   0  0  0  0  0  0  0  0  0  0  0  0
  -24.8367  -33.3749   21.7595 C   0  0  0  0  0  0  0  0  0  0  0  0
  -31.0122  -25.4205   21.2394 C   0  0  0  0  0  0  0  0  0  0  0  0
  -27.3267  -23.1400   19.2266 N   0  0  0  0  0  0  0  0  0  0  0  0
  -26.6149  -16.3169   20.1504 N   0  0  0  0  0  0  0  0  0  0  0  0
  -28.0014  -24.3440   20.9206 N   0  0  0  0  0  0  0  0  0  0  0  0
  -28.8586  -24.6797   19.9445 N   0  0  0  0  0  0  0  0  0  0  0  0
  -27.0714  -17.1422   19.1930 N   0  0  0  0  0  0  0  0  0  0  0  0
  -24.5401  -30.6065   24.0206 N   0  0  0  0  0  0  0  0  0  0  0  0
  -26.6733  -20.5081   20.9608 N   0  0  0  0  0  0  0  0  0  0  0  0
  -27.6886  -17.2255   16.9077 N   0  0  0  0  0  0  0  0  0  0  0  0
  -26.4586  -12.9204   17.4985 N   0  0  0  0  0  0  0  0  0  0  0  0
  -21.8910  -28.1607   23.4756 N   0  0  0  0  0  0  0  0  0  0  0  0
  -25.6760  -33.7940   24.1098 N   0  0  0  0  0  0  0  0  0  0  0  0
  -27.9825  -34.5567   26.7867 N   0  3  0  0  0  0  0  0  0  0  0  0
  -27.2538  -14.4372   15.9734 O   0  0  0  0  0  0  0  0  0  0  0  0
  -23.4647  -29.2437   22.1439 O   0  0  0  0  0  0  0  0  0  0  0  0
  -23.1367  -32.4678   24.0655 O   0  0  0  0  0  0  0  0  0  0  0  0
  -24.5052  -21.2297   20.5371 O   0  0  0  0  0  0  0  0  0  0  0  0
  -27.8358  -33.0160   24.4370 O   0  0  0  0  0  0  0  0  0  0  0  0
  -24.6452  -10.6349   22.2443 O   0  0  0  0  0  0  0  0  0  0  0  0
  -28.9452  -26.2996   24.3351 O   0  0  0  0  0  0  0  0  0  1  0  0
  -20.8422   -7.5154   19.7524 F   0  0  0  0  0  0  0  0  0  0  0  0
  -22.1656  -10.2295   23.3976 F   0  0  0  0  0  0  0  0  0  0  0  0
  1  2  1  0  0  0  0
  1  5  2  0  0  0  0
  2  6  2  0  0  0  0
  3  8  2  0  0  0  0
  3 16  1  0  0  0  0
  4  9  1  0  0  0  0
  4 16  2  0  0  0  0
  5 18  1  0  0  0  0
  6 20  1  0  0  0  0
  7 10  2  0  0  0  0
  7 19  1  0  0  0  0
  8 22  1  0  0  0  0
  9 22  2  0  0  0  0
 10 23  1  0  0  0  0
 11 12  2  0  0  0  0
 11 24  1  0  0  0  0
 12 25  1  0  0  0  0
 13 21  1  0  0  0  0
 13 23  2  0  0  0  0
 14 25  2  0  0  0  0
 14 26  1  0  0  0  0
 15 64  2  0  0  0  0
 15 67  1  0  0  0  0
 16 27  1  0  0  0  0
 17 27  1  0  0  0  0
 17 28  2  0  0  0  0
 17 30  1  0  0  0  0
 18 20  2  0  0  0  0
 18 35  1  0  0  0  0
 19 21  2  0  0  0  0
 19 36  1  0  0  0  0
 20 44  1  0  0  0  0
 21 37  1  0  0  0  0
 22 81  1  0  0  0  0
 23 82  1  0  0  0  0
 24 26  2  0  0  0  0
 24 81  1  0  0  0  0
 25 83  1  0  0  0  0
 26 84  1  0  0  0  0
 27 65  2  0  0  0  0
 28 68  1  0  0  0  0
 28 71  1  0  0  0  0
 29 61  1  0  0  0  0
 29 64  1  0  0  0  0
 29 66  2  0  0  0  0
 30 72  1  0  0  0  0
 30 76  2  0  0  0  0
 31 45  1  0  0  0  0
 31 73  1  0  0  0  0
 31 77  2  0  0  0  0
 32 59  1  0  0  0  0
 32 69  1  0  0  0  0
 32 78  2  0  0  0  0
 33 61  1  0  0  0  0
 33 70  1  0  0  0  0
 33 79  2  0  0  0  0
 34 60  1  0  0  0  0
 34 74  1  0  0  0  0
 34 80  2  0  0  0  0
 35 38  1  0  0  0  0
 36 45  1  0  0  0  0
 37 69  1  0  0  0  0
 38 40  1  0  0  0  0
 39 41  1  0  0  0  0
 39 42  1  0  0  0  0
 40 44  1  0  0  0  0
 41 46  1  0  0  0  0
 42 70  1  0  0  0  0
 43 46  1  0  0  0  0
 43 70  1  0  0  0  0
 44 73  1  0  0  0  0
 45 69  1  0  0  0  0
 46 68  1  0  0  0  0
 47 60  1  0  0  0  0
 48 61  1  0  0  0  0
 49 61  1  0  0  0  0
 50 62  1  0  0  0  0
 51 62  1  0  0  0  0
 52 62  1  0  0  0  0
 53 63  1  0  0  0  0
 54 63  1  0  0  0  0
 55 75  1  0  0  0  0
 56 58  1  0  0  0  0
 56 63  1  0  0  0  0
 57 63  1  0  0  0  0
 57 67  1  0  0  0  0
 58 82  1  0  0  0  0
 59 62  1  0  0  0  0
 59 74  1  0  0  0  0
 60 75  1  0  0  0  0
 65 68  1  0  0  0  0
 66 67  1  0  0  0  0
M  CHG  1  75   1
M  ISO  4  33 100  58 101  61 100  82 101
M  END
> <Batch ID>
0061

> <Smiles>
CNC(C)C(=O)NC(C(=O)N1Cc2cc([101O:1][101CH2:1]CC(C)(C)Cn3cnc([100C:0](C)(C)[100C:0](=O)N4CCCC(n5nc(-c6ccc(Oc7ccc(F)cc7F)cc6)c(C(N)=O)c5N)C4)n3)ccc2CC1C(=O)NC1CCCc2ccccc21)C(C)(C)C

> <Shape>
0.239

> <Color>
0.082

> <Negative vol penalty>
0.000

$$$$

  -OEChem-04052317583D

 82 90  0     1  0  0  0  0  0999 V2000
  -25.7248  -36.8255   28.1950 C   0  0  0  0  0  0  0  0  0  0  0  0
  -25.2756  -35.5160   28.3328 C   0  0  0  0  0  0  0  0  0  0  0  0
  -26.1004  -13.9558   21.9230 C   0  0  0  0  0  0  0  0  0  0  0  0
  -24.8542  -15.2916   20.3420 C   0  0  0  0  0  0  0  0  0  0  0  0
  -25.7257  -37.4325   26.9398 C   0  0  0  0  0  0  0  0  0  0  0  0
  -24.8258  -34.8132   27.2156 C   0  0  0  0  0  0  0  0  0  0  0  0
  -25.4572  -28.8176   26.1383 C   0  0  0  0  0  0  0  0  0  0  0  0
  -25.0374  -13.0560   22.0006 C   0  0  0  0  0  0  0  0  0  0  0  0
  -23.7912  -14.3918   20.4196 C   0  0  0  0  0  0  0  0  0  0  0  0
  -24.5919  -27.7378   26.3085 C   0  0  0  0  0  0  0  0  0  0  0  0
  -22.7947  -10.2152   22.3403 C   0  0  0  0  0  0  0  0  0  0  0  0
  -23.0928   -8.8535   22.2909 C   0  0  0  0  0  0  0  0  0  0  0  0
  -23.9423  -27.9008   23.9911 C   0  0  0  0  0  0  0  0  0  0  0  0
  -24.0843   -9.1497   20.1077 C   0  0  0  0  0  0  0  0  0  0  0  0
  -24.3302  -22.6304   24.3320 C   0  0  0  0  0  0  0  0  0  0  0  0
  -26.0088  -15.0736   21.0937 C   0  0  0  0  0  0  0  0  0  0  0  0
  -28.1934  -15.9609   20.1201 C   0  0  0  0  0  0  0  0  0  0  0  0
  -25.2848  -36.7334   25.8051 C   0  0  0  0  0  0  0  0  0  0  0  0
  -25.5636  -29.4551   24.8939 C   0  0  0  0  0  0  0  0  0  0  0  0
  -24.8195  -35.4119   25.9443 C   0  0  0  0  0  0  0  0  0  0  0  0
  -24.8116  -28.9869   23.8070 C   0  0  0  0  0  0  0  0  0  0  0  0
  -23.8828  -13.2740   21.2489 C   0  0  0  0  0  0  0  0  0  0  0  0
  -23.8321  -27.2811   25.2356 C   0  0  0  0  0  0  0  0  0  0  0  0
  -23.1413  -11.0442   21.2734 C   0  0  0  0  0  0  0  0  0  0  0  0
  -23.7376   -8.3207   21.1746 C   0  0  0  0  0  0  0  0  0  0  0  0
  -23.7861  -10.5115   20.1571 C   0  0  0  0  0  0  0  0  0  0  0  0
  -27.1063  -16.0038   21.0135 C   0  0  0  0  0  0  0  0  0  0  0  0
  -23.2522  -23.4031   24.6601 C   0  0  0  0  0  0  0  0  0  0  0  0
  -28.9513  -17.0582   20.4486 C   0  0  0  0  0  0  0  0  0  0  0  0
  -23.2626  -23.1429   22.4618 C   0  0  0  0  0  0  0  0  0  0  0  0
  -28.4914  -15.0138   19.0857 C   0  0  0  0  0  0  0  0  0  0  0  0
  -24.9906  -32.3921   23.8218 C   0  0  0  0  0  0  0  0  0  0  0  0
  -26.3004  -31.2307   21.0909 C   0  0  0  0  0  0  0  0  0  0  0  0
  -27.5442  -22.2508   23.1261 C   0  0  0  0  0  0  0  0  0  0  0  0
  -27.0308  -28.5176   19.1538 C   0  0  0  0  0  0  0  0  0  0  0  0
  -25.2599  -37.4474   24.4768 C   0  0  0  0  0  0  0  0  0  0  0  0
  -26.5215  -30.6017   24.7198 C   0  0  0  0  0  0  0  0  0  0  0  0
  -24.9044  -29.6237   22.4453 C   0  0  0  0  0  0  0  0  0  0  0  0
  -25.1188  -36.5073   23.2825 C   0  0  0  0  0  0  0  0  0  0  0  0
  -30.0486  -19.8939   24.1327 C   0  0  0  0  0  0  0  0  0  0  0  0
  -24.0174  -35.4830   23.5365 C   0  0  0  0  0  0  0  0  0  0  0  0
  -29.6602  -18.6174   23.3879 C   0  0  0  0  0  0  0  0  0  0  0  0
  -28.8179  -20.6884   24.5583 C   0  0  0  0  0  0  0  0  0  0  0  0
  -27.5007  -19.7452   22.6883 C   0  0  0  0  0  0  0  0  0  0  0  0
  -24.3472  -34.6083   24.7521 C   0  0  1  0  0  0  0  0  0  0  0  0
  -26.1678  -31.5020   23.5401 C   0  0  1  0  0  0  0  0  0  0  0  0
  -28.7155  -18.9283   22.2135 C   0  0  2  0  0  0  0  0  0  0  0  0
  -22.8750  -23.2424   21.0325 C   0  0  0  0  0  0  0  0  0  0  0  0
  -28.0709  -27.8869   16.9588 C   0  0  0  0  0  0  0  0  0  0  0  0
  -27.3462  -21.9107   20.6810 C   0  0  0  0  0  0  0  0  0  0  0  0
  -26.3939  -23.9448   21.7781 C   0  0  0  0  0  0  0  0  0  0  0  0
  -23.7931  -32.1787   19.6332 C   0  0  0  0  0  0  0  0  0  0  0  0
  -24.4432  -30.7152   17.7086 C   0  0  0  0  0  0  0  0  0  0  0  0
  -25.9325  -32.5912   18.4054 C   0  0  0  0  0  0  0  0  0  0  0  0
  -29.1265  -26.9017   20.4789 C   0  0  0  0  0  0  0  0  0  0  0  0
  -22.7497  -23.8991   25.9942 C   0  0  0  0  0  0  0  0  0  0  0  0
  -25.2818  -21.7334   22.1944 C   0  0  0  0  0  0  0  0  0  0  0  0
  -23.3477  -25.2496   26.3733 C   0  0  0  0  0  0  0  0  0  1  0  0
  -25.7684  -30.5320   19.8630 C   0  0  1  0  0  0  0  0  0  0  0  0
  -28.3070  -28.0995   18.4460 C   0  0  2  0  0  0  0  0  0  0  0  0
  -26.6373  -22.4350   21.9355 C   0  0  0  0  0  0  0  0  0  0  0  0
  -24.9809  -31.4933   18.9286 C   0  0  0  0  0  0  0  0  0  0  0  0
  -27.1647  -17.0457   21.8470 N   0  0  0  0  0  0  0  0  0  0  0  0
  -24.3118  -22.4851   22.9658 N   0  0  0  0  0  0  0  0  0  0  0  0
  -28.2977  -17.6677   21.4789 N   0  0  0  0  0  0  0  0  0  0  0  0
  -22.6099  -23.7059   23.4837 N   0  3  0  0  0  0  0  0  0  0  0  0
  -25.8505  -30.7455   22.3271 N   0  0  0  0  0  0  0  0  0  0  0  0
  -27.9349  -20.9440   23.4189 N   0  0  0  0  0  0  0  0  0  0  0  0
  -30.1064  -17.5515   19.9538 N   0  0  0  0  0  0  0  0  0  0  0  0
  -27.6066  -13.9462   18.8821 N   0  0  0  0  0  0  0  0  0  0  0  0
  -25.3255  -33.6017   24.3999 N   0  0  0  0  0  0  0  0  0  0  0  0
  -26.9150  -29.8895   19.2299 N   0  0  0  0  0  0  0  0  0  0  0  0
  -28.8282  -26.8292   19.0254 N   0  3  0  0  0  0  0  0  0  0  0  0
  -29.5207  -15.1024   18.3741 O   0  0  0  0  0  0  0  0  0  0  0  0
  -23.8621  -32.0105   23.5345 O   0  0  0  0  0  0  0  0  0  0  0  0
  -27.0917  -32.1676   20.9584 O   0  0  0  0  0  0  0  0  0  0  0  0
  -27.8962  -23.2403   23.7736 O   0  0  0  0  0  0  0  0  0  0  0  0
  -26.2162  -27.7082   19.5917 O   0  0  0  0  0  0  0  0  0  0  0  0
  -22.8454  -12.3961   21.3243 O   0  0  0  0  0  0  0  0  0  0  0  0
  -22.9862  -26.2277   25.3992 O   0  0  0  0  0  0  0  0  0  1  0  0
  -24.0251   -7.0133   21.1280 F   0  0  0  0  0  0  0  0  0  0  0  0
  -24.1227  -11.3031   19.1296 F   0  0  0  0  0  0  0  0  0  0  0  0
  1  2  1  0  0  0  0
  1  5  2  0  0  0  0
  2  6  2  0  0  0  0
  3  8  2  0  0  0  0
  3 16  1  0  0  0  0
  4  9  1  0  0  0  0
  4 16  2  0  0  0  0
  5 18  1  0  0  0  0
  6 20  1  0  0  0  0
  7 10  2  0  0  0  0
  7 19  1  0  0  0  0
  8 22  1  0  0  0  0
  9 22  2  0  0  0  0
 10 23  1  0  0  0  0
 11 12  2  0  0  0  0
 11 24  1  0  0  0  0
 12 25  1  0  0  0  0
 13 21  1  0  0  0  0
 13 23  2  0  0  0  0
 14 25  2  0  0  0  0
 14 26  1  0  0  0  0
 15 28  2  0  0  0  0
 15 64  1  0  0  0  0
 16 27  1  0  0  0  0
 17 27  1  0  0  0  0
 17 29  2  0  0  0  0
 17 31  1  0  0  0  0
 18 20  2  0  0  0  0
 18 36  1  0  0  0  0
 19 21  2  0  0  0  0
 19 37  1  0  0  0  0
 20 45  1  0  0  0  0
 21 38  1  0  0  0  0
 22 79  1  0  0  0  0
 23 80  1  0  0  0  0
 24 26  2  0  0  0  0
 24 79  1  0  0  0  0
 25 81  1  0  0  0  0
 26 82  1  0  0  0  0
 27 63  2  0  0  0  0
 28 56  1  0  0  0  0
 28 66  1  0  0  0  0
 29 65  1  0  0  0  0
 29 69  1  0  0  0  0
 30 48  1  0  0  0  0
 30 64  1  0  0  0  0
 30 66  2  0  0  0  0
 31 70  1  0  0  0  0
 31 74  2  0  0  0  0
 32 46  1  0  0  0  0
 32 71  1  0  0  0  0
 32 75  2  0  0  0  0
 33 59  1  0  0  0  0
 33 67  1  0  0  0  0
 33 76  2  0  0  0  0
 34 61  1  0  0  0  0
 34 68  1  0  0  0  0
 34 77  2  0  0  0  0
 35 60  1  0  0  0  0
 35 72  1  0  0  0  0
 35 78  2  0  0  0  0
 36 39  1  0  0  0  0
 37 46  1  0  0  0  0
 38 67  1  0  0  0  0
 39 41  1  0  0  0  0
 40 42  1  0  0  0  0
 40 43  1  0  0  0  0
 41 45  1  0  0  0  0
 42 47  1  0  0  0  0
 43 68  1  0  0  0  0
 44 47  1  0  0  0  0
 44 68  1  0  0  0  0
 45 71  1  0  0  0  0
 46 67  1  0  0  0  0
 47 65  1  0  0  0  0
 49 60  1  0  0  0  0
 50 61  1  0  0  0  0
 51 61  1  0  0  0  0
 52 62  1  0  0  0  0
 53 62  1  0  0  0  0
 54 62  1  0  0  0  0
 55 73  1  0  0  0  0
 56 58  1  0  0  0  0
 57 61  1  0  0  0  0
 57 64  1  0  0  0  0
 58 80  1  0  0  0  0
 59 62  1  0  0  0  0
 59 72  1  0  0  0  0
 60 73  1  0  0  0  0
 63 65  1  0  0  0  0
M  CHG  2  66   1  73   1
M  ISO  4  34 100  58 101  61 100  80 101
M  END
> <Batch ID>
0061

> <Smiles>
CNC(C)C(=O)NC(C(=O)N1Cc2cc([101O:1][101CH2:1]Cc3cn(C[100C:0](C)(C)[100C:0](=O)N4CCCC(n5nc(-c6ccc(Oc7ccc(F)cc7F)cc6)c(C(N)=O)c5N)C4)c(C)n3)ccc2CC1C(=O)NC1CCCc2ccccc21)C(C)(C)C

> <Shape>
0.216

> <Color>
0.065

> <Negative vol penalty>
0.000

$$$$

  -OEChem-04052317583D

 86 94  0     1  0  0  0  0  0999 V2000
  -17.1571  -30.4073   24.1237 C   0  0  0  0  0  0  0  0  0  0  0  0
  -18.5140  -30.7025   24.2077 C   0  0  0  0  0  0  0  0  0  0  0  0
  -25.8184  -12.3151   21.3409 C   0  0  0  0  0  0  0  0  0  0  0  0
  -24.9602  -12.6092   19.1017 C   0  0  0  0  0  0  0  0  0  0  0  0
  -16.7387  -29.2220   23.5205 C   0  0  0  0  0  0  0  0  0  0  0  0
  -19.4535  -29.8119   23.6894 C   0  0  0  0  0  0  0  0  0  0  0  0
  -25.8784  -29.6906   20.5237 C   0  0  0  0  0  0  0  0  0  0  0  0
  -25.2578  -11.0388   21.3881 C   0  0  0  0  0  0  0  0  0  0  0  0
  -24.3996  -11.3328   19.1489 C   0  0  0  0  0  0  0  0  0  0  0  0
  -27.1308  -29.0915   20.6513 C   0  0  0  0  0  0  0  0  0  0  0  0
  -23.7453   -7.8416   22.2331 C   0  0  0  0  0  0  0  0  0  0  0  0
  -23.0585   -7.4757   23.3907 C   0  0  0  0  0  0  0  0  0  0  0  0
  -26.2883  -27.1116   19.5607 C   0  0  0  0  0  0  0  0  0  0  0  0
  -21.5191   -9.3075   23.0563 C   0  0  0  0  0  0  0  0  0  0  0  0
  -25.6695  -13.1004   20.1977 C   0  0  0  0  0  0  0  0  0  0  0  0
  -27.5363  -14.7662   19.7000 C   0  0  0  0  0  0  0  0  0  0  0  0
  -17.6731  -28.3209   22.9860 C   0  0  0  0  0  0  0  0  0  0  0  0
  -24.8167  -28.9994   19.9224 C   0  0  0  0  0  0  0  0  0  0  0  0
  -19.0473  -28.6127   23.0797 C   0  0  0  0  0  0  0  0  0  0  0  0
  -25.0240  -27.7051   19.4244 C   0  0  0  0  0  0  0  0  0  0  0  0
  -24.5485  -10.5476   20.2921 C   0  0  0  0  0  0  0  0  0  0  0  0
  -27.3352  -27.8008   20.1724 C   0  0  0  0  0  0  0  0  0  0  0  0
  -23.3191   -8.9405   21.4872 C   0  0  0  0  0  0  0  0  0  0  0  0
  -21.9454   -8.2086   23.8023 C   0  0  0  0  0  0  0  0  0  0  0  0
  -22.2059   -9.6734   21.8988 C   0  0  0  0  0  0  0  0  0  0  0  0
  -26.2478  -14.4192   20.1485 C   0  0  0  0  0  0  0  0  0  0  0  0
  -27.5981  -16.1296   19.8545 C   0  0  0  0  0  0  0  0  0  0  0  0
  -28.4169  -21.7136   19.1622 C   0  0  0  0  0  0  0  0  0  0  0  0
  -30.0268  -23.0349   19.0224 C   0  0  0  0  0  0  0  0  0  0  0  0
  -28.5837  -13.9309   19.1893 C   0  0  0  0  0  0  0  0  0  0  0  0
  -21.9581  -27.9995   20.8879 C   0  0  0  0  0  0  0  0  0  0  0  0
  -21.6165  -27.1942   17.7643 C   0  0  0  0  0  0  0  0  0  0  0  0
  -23.1045  -26.3890   14.8004 C   0  0  0  0  0  0  0  0  0  0  0  0
  -24.9143  -21.0666   18.9939 C   0  0  0  0  0  0  0  0  0  0  0  0
  -17.1754  -27.0300   22.3857 C   0  0  0  0  0  0  0  0  0  0  0  0
  -23.4790  -29.6696   19.7684 C   0  0  0  0  0  0  0  0  0  0  0  0
  -23.9225  -26.9281   18.7526 C   0  0  0  0  0  0  0  0  0  0  0  0
  -18.2164  -26.3164   21.5270 C   0  0  0  0  0  0  0  0  0  0  0  0
  -24.5096  -19.3338   22.2398 C   0  0  0  0  0  0  0  0  0  0  0  0
  -19.5608  -26.2702   22.2461 C   0  0  0  0  0  0  0  0  0  0  0  0
  -24.9673  -17.9122   21.9178 C   0  0  0  0  0  0  0  0  0  0  0  0
  -23.9369  -20.0368   21.0128 C   0  0  0  0  0  0  0  0  0  0  0  0
  -25.3123  -18.6255   19.5193 C   0  0  0  0  0  0  0  0  0  0  0  0
  -20.0956  -27.6835   22.5072 C   0  0  1  0  0  0  0  0  0  0  0  0
  -22.3304  -28.6797   19.6009 C   0  0  1  0  0  0  0  0  0  0  0  0
  -25.9374  -17.9055   20.7235 C   0  0  2  0  0  0  0  0  0  0  0  0
  -31.3549  -23.9071   17.0829 C   0  0  0  0  0  0  0  0  0  0  0  0
  -27.8868  -19.7560   17.6627 C   0  0  0  0  0  0  0  0  0  0  0  0
  -22.5643  -25.7452   12.4359 C   0  0  0  0  0  0  0  0  0  0  0  0
  -20.8926  -24.3811   18.6981 C   0  0  0  0  0  0  0  0  0  0  0  0
  -21.2969  -23.5768   16.3619 C   0  0  0  0  0  0  0  0  0  0  0  0
  -19.4975  -25.2451   16.8109 C   0  0  0  0  0  0  0  0  0  0  0  0
  -31.4596  -23.6045   21.9050 C   0  0  0  0  0  0  0  0  0  0  0  0
  -29.1201  -23.4933   22.7166 C   0  0  0  0  0  0  0  0  0  0  0  0
  -26.2519  -22.4471   17.4498 C   0  0  0  0  0  0  0  0  0  0  0  0
  -24.4809  -28.7732   13.7142 C   0  0  0  0  0  0  0  0  0  0  0  0
  -31.1743  -23.8602   18.6047 C   0  0  0  0  0  0  0  0  0  0  0  0
  -29.8193  -25.4024   21.2348 C   0  0  0  0  0  0  0  0  0  0  0  0
  -28.5838  -25.7925   20.4244 C   0  0  0  0  0  0  0  0  0  1  0  0
  -27.4108  -20.7181   18.7739 C   0  0  2  0  0  0  0  0  0  0  0  0
  -21.9170  -25.9675   16.9374 C   0  0  1  0  0  0  0  0  0  0  0  0
  -22.8714  -26.8914   13.3871 C   0  0  2  0  0  0  0  0  0  0  0  0
  -20.9215  -24.8062   17.2164 C   0  0  0  0  0  0  0  0  0  0  0  0
  -29.9922  -23.8755   21.4945 C   0  0  0  0  0  0  0  0  0  0  0  0
  -25.5420  -15.4768   20.5574 N   0  0  0  0  0  0  0  0  0  0  0  0
  -29.3435  -22.1936   18.2816 N   0  0  0  0  0  0  0  0  0  0  0  0
  -28.4838  -22.2050   20.4014 N   0  0  0  0  0  0  0  0  0  0  0  0
  -26.3900  -16.5018   20.3665 N   0  0  0  0  0  0  0  0  0  0  0  0
  -29.5215  -23.0475   20.2851 N   0  0  0  0  0  0  0  0  0  0  0  0
  -22.6309  -27.6241   18.6315 N   0  0  0  0  0  0  0  0  0  0  0  0
  -24.8611  -19.9780   19.8799 N   0  0  0  0  0  0  0  0  0  0  0  0
  -28.5674  -17.0344   19.6010 N   0  0  0  0  0  0  0  0  0  0  0  0
  -28.3533  -12.5515   19.0973 N   0  0  0  0  0  0  0  0  0  0  0  0
  -20.6607  -28.2415   21.2973 N   0  0  0  0  0  0  0  0  0  0  0  0
  -21.9456  -26.4091   15.5473 N   0  0  0  0  0  0  0  0  0  0  0  0
  -26.1437  -21.3224   18.3681 N   0  0  0  0  0  0  0  0  0  0  0  0
  -24.0787  -27.6073   12.8861 N   0  3  0  0  0  0  0  0  0  0  0  0
  -29.6971  -14.3919   18.8408 O   0  0  0  0  0  0  0  0  0  0  0  0
  -22.7861  -27.3052   21.4659 O   0  0  0  0  0  0  0  0  0  0  0  0
  -20.5247  -27.7547   17.6399 O   0  0  0  0  0  0  0  0  0  0  0  0
  -24.2038  -26.0126   15.2008 O   0  0  0  0  0  0  0  0  0  0  0  0
  -23.9220  -21.7755   18.7821 O   0  0  0  0  0  0  0  0  0  0  0  0
  -24.0015   -9.3021   20.3377 O   0  0  0  0  0  0  0  0  0  0  0  0
  -28.5565  -27.2135   20.2962 O   0  0  0  0  0  0  0  0  0  1  0  0
  -21.2850   -7.8562   24.9131 F   0  0  0  0  0  0  0  0  0  0  0  0
  -21.7910  -10.7294   21.1856 F   0  0  0  0  0  0  0  0  0  0  0  0
  1  2  1  0  0  0  0
  1  5  2  0  0  0  0
  2  6  2  0  0  0  0
  3  8  2  0  0  0  0
  3 15  1  0  0  0  0
  4  9  1  0  0  0  0
  4 15  2  0  0  0  0
  5 17  1  0  0  0  0
  6 19  1  0  0  0  0
  7 10  2  0  0  0  0
  7 18  1  0  0  0  0
  8 21  1  0  0  0  0
  9 21  2  0  0  0  0
 10 22  1  0  0  0  0
 11 12  2  0  0  0  0
 11 23  1  0  0  0  0
 12 24  1  0  0  0  0
 13 20  1  0  0  0  0
 13 22  2  0  0  0  0
 14 24  2  0  0  0  0
 14 25  1  0  0  0  0
 15 26  1  0  0  0  0
 16 26  1  0  0  0  0
 16 27  2  0  0  0  0
 16 30  1  0  0  0  0
 17 19  2  0  0  0  0
 17 35  1  0  0  0  0
 18 20  2  0  0  0  0
 18 36  1  0  0  0  0
 19 44  1  0  0  0  0
 20 37  1  0  0  0  0
 21 83  1  0  0  0  0
 22 84  1  0  0  0  0
 23 25  2  0  0  0  0
 23 83  1  0  0  0  0
 24 85  1  0  0  0  0
 25 86  1  0  0  0  0
 26 65  2  0  0  0  0
 27 68  1  0  0  0  0
 27 72  1  0  0  0  0
 28 60  1  0  0  0  0
 28 66  1  0  0  0  0
 28 67  2  0  0  0  0
 29 57  1  0  0  0  0
 29 66  2  0  0  0  0
 29 69  1  0  0  0  0
 30 73  1  0  0  0  0
 30 78  2  0  0  0  0
 31 45  1  0  0  0  0
 31 74  1  0  0  0  0
 31 79  2  0  0  0  0
 32 61  1  0  0  0  0
 32 70  1  0  0  0  0
 32 80  2  0  0  0  0
 33 62  1  0  0  0  0
 33 75  1  0  0  0  0
 33 81  2  0  0  0  0
 34 71  1  0  0  0  0
 34 76  1  0  0  0  0
 34 82  2  0  0  0  0
 35 38  1  0  0  0  0
 36 45  1  0  0  0  0
 37 70  1  0  0  0  0
 38 40  1  0  0  0  0
 39 41  1  0  0  0  0
 39 42  1  0  0  0  0
 40 44  1  0  0  0  0
 41 46  1  0  0  0  0
 42 71  1  0  0  0  0
 43 46  1  0  0  0  0
 43 71  1  0  0  0  0
 44 74  1  0  0  0  0
 45 70  1  0  0  0  0
 46 68  1  0  0  0  0
 47 57  1  0  0  0  0
 48 60  1  0  0  0  0
 49 62  1  0  0  0  0
 50 63  1  0  0  0  0
 51 63  1  0  0  0  0
 52 63  1  0  0  0  0
 53 64  1  0  0  0  0
 54 64  1  0  0  0  0
 55 76  1  0  0  0  0
 56 77  1  0  0  0  0
 58 59  1  0  0  0  0
 58 64  1  0  0  0  0
 59 84  1  0  0  0  0
 60 76  1  0  0  0  0
 61 63  1  0  0  0  0
 61 75  1  0  0  0  0
 62 77  1  0  0  0  0
 64 69  1  0  0  0  0
 65 68  1  0  0  0  0
 67 69  1  0  0  0  0
M  CHG  1  77   1
M  ISO  4  34 100  59 101  76 100  84 101
M  END
> <Batch ID>
0061

> <Smiles>
CCc1nc(C(C)[100N:0](C)[100C:0](=O)N2CCCC(n3nc(-c4ccc(Oc5ccc(F)cc5F)cc4)c(C(N)=O)c3N)C2)nn1C(C)(C)C[101CH2:1][101O:1]c1ccc2c(c1)CN(C(=O)C(NC(=O)C(C)NC)C(C)(C)C)C(C(=O)NC1CCCc3ccccc31)C2

> <Shape>
0.278

> <Color>
0.096

> <Negative vol penalty>
0.000

$$$$

  -OEChem-04052317583D

 86 94  0     1  0  0  0  0  0999 V2000
  -26.7899  -22.1369   16.7648 C   0  0  0  0  0  0  0  0  0  0  0  0
  -27.1809  -20.8198   16.9772 C   0  0  0  0  0  0  0  0  0  0  0  0
  -27.0674  -29.0583   19.9741 C   0  0  0  0  0  0  0  0  0  0  0  0
  -25.5503  -27.3240   20.7004 C   0  0  0  0  0  0  0  0  0  0  0  0
  -25.7739  -22.6920   17.5401 C   0  0  0  0  0  0  0  0  0  0  0  0
  -26.5480  -20.0535   17.9566 C   0  0  0  0  0  0  0  0  0  0  0  0
  -27.7302  -15.2829   18.1722 C   0  0  0  0  0  0  0  0  0  0  0  0
  -25.9826  -29.8848   19.6816 C   0  0  0  0  0  0  0  0  0  0  0  0
  -24.4655  -28.1505   20.4079 C   0  0  0  0  0  0  0  0  0  0  0  0
  -28.9621  -14.8322   18.6446 C   0  0  0  0  0  0  0  0  0  0  0  0
  -21.3062  -29.9367   20.1916 C   0  0  0  0  0  0  0  0  0  0  0  0
  -20.2767  -30.0130   21.1295 C   0  0  0  0  0  0  0  0  0  0  0  0
  -27.9223  -14.1881   20.7238 C   0  0  0  0  0  0  0  0  0  0  0  0
  -21.8383  -30.8415   22.7763 C   0  0  0  0  0  0  0  0  0  0  0  0
  -26.8513  -27.7779   20.4834 C   0  0  0  0  0  0  0  0  0  0  0  0
  -28.6639  -26.8293   22.0073 C   0  0  0  0  0  0  0  0  0  0  0  0
  -25.1373  -21.9353   18.5377 C   0  0  0  0  0  0  0  0  0  0  0  0
  -26.5853  -15.1993   18.9775 C   0  0  0  0  0  0  0  0  0  0  0  0
  -25.5041  -20.5883   18.7331 C   0  0  0  0  0  0  0  0  0  0  0  0
  -26.6766  -14.6360   20.2583 C   0  0  0  0  0  0  0  0  0  0  0  0
  -24.6816  -29.4310   19.8985 C   0  0  0  0  0  0  0  0  0  0  0  0
  -29.0588  -14.2874   19.9217 C   0  0  0  0  0  0  0  0  0  0  0  0
  -22.6019  -30.3128   20.5460 C   0  0  0  0  0  0  0  0  0  0  0  0
  -20.5426  -30.4653   22.4219 C   0  0  0  0  0  0  0  0  0  0  0  0
  -22.8679  -30.7652   21.8384 C   0  0  0  0  0  0  0  0  0  0  0  0
  -27.9715  -26.9234   20.7852 C   0  0  0  0  0  0  0  0  0  0  0  0
  -32.5402  -15.2212   21.0859 C   0  0  0  0  0  0  0  0  0  0  0  0
  -33.5530  -15.0954   20.1775 C   0  0  0  0  0  0  0  0  0  0  0  0
  -29.6343  -25.8842   21.7803 C   0  0  0  0  0  0  0  0  0  0  0  0
  -32.7309  -17.1435   20.0048 C   0  0  0  0  0  0  0  0  0  0  0  0
  -28.4490  -27.5332   23.2378 C   0  0  0  0  0  0  0  0  0  0  0  0
  -24.5596  -17.3090   20.2222 C   0  0  0  0  0  0  0  0  0  0  0  0
  -22.9542  -14.6429   21.1369 C   0  0  0  0  0  0  0  0  0  0  0  0
  -23.0512  -11.3116   21.8717 C   0  0  0  0  0  0  0  0  0  0  0  0
  -30.3372  -20.9591   19.0122 C   0  0  0  0  0  0  0  0  0  0  0  0
  -24.0384  -22.5836   19.3423 C   0  0  0  0  0  0  0  0  0  0  0  0
  -25.2588  -15.6653   18.4431 C   0  0  0  0  0  0  0  0  0  0  0  0
  -25.4733  -14.5051   21.1546 C   0  0  0  0  0  0  0  0  0  0  0  0
  -23.7370  -21.8434   20.6414 C   0  0  0  0  0  0  0  0  0  0  0  0
  -31.8052  -24.0164   17.7489 C   0  0  0  0  0  0  0  0  0  0  0  0
  -23.5572  -20.3584   20.3639 C   0  0  0  0  0  0  0  0  0  0  0  0
  -31.0250  -25.0743   18.5312 C   0  0  0  0  0  0  0  0  0  0  0  0
  -30.9103  -22.8422   17.3634 C   0  0  0  0  0  0  0  0  0  0  0  0
  -29.4347  -23.2500   19.2947 C   0  0  0  0  0  0  0  0  0  0  0  0
  -24.8510  -19.7452   19.8134 C   0  0  1  0  0  0  0  0  0  0  0  0
  -24.2570  -16.0035   19.5428 C   0  0  1  0  0  0  0  0  0  0  0  0
  -30.2893  -24.4531   19.7333 C   0  0  2  0  0  0  0  0  0  0  0  0
  -35.6385  -14.3746   18.9869 C   0  0  0  0  0  0  0  0  0  0  0  0
  -21.5881   -9.4171   22.6252 C   0  0  0  0  0  0  0  0  0  0  0  0
  -31.4752  -17.8864   17.3292 C   0  0  0  0  0  0  0  0  0  0  0  0
  -32.0783  -14.6831   23.5711 C   0  0  0  0  0  0  0  0  0  0  0  0
  -32.7637  -12.8880   21.9945 C   0  0  0  0  0  0  0  0  0  0  0  0
  -22.9954  -15.7457   23.9816 C   0  0  0  0  0  0  0  0  0  0  0  0
  -22.4029  -13.4561   24.8033 C   0  0  0  0  0  0  0  0  0  0  0  0
  -20.8335  -14.6864   23.3046 C   0  0  0  0  0  0  0  0  0  0  0  0
  -30.9622  -17.0680   21.7308 C   0  0  0  0  0  0  0  0  0  0  0  0
  -23.5665   -9.7754   19.3951 C   0  0  0  0  0  0  0  0  0  0  0  0
  -34.4386  -13.9715   19.8573 C   0  0  0  0  0  0  0  0  0  0  0  0
  -32.5223  -18.5407   19.5504 C   0  0  0  0  0  0  0  0  0  0  0  0
  -30.4798  -13.9226   21.7935 C   0  0  0  0  0  0  0  0  0  1  0  0
  -22.9769  -13.7447   22.3501 C   0  0  1  0  0  0  0  0  0  0  0  0
  -22.1701  -10.1568   21.4306 C   0  0  2  0  0  0  0  0  0  0  0  0
  -31.3146  -18.7161   18.5992 C   0  0  1  0  0  0  0  0  0  0  0  0
  -31.9719  -14.2116   22.1008 C   0  0  0  0  0  0  0  0  0  0  0  0
  -22.3254  -14.4123   23.5940 C   0  0  0  0  0  0  0  0  0  0  0  0
  -28.4607  -26.1036   19.8510 N   0  0  0  0  0  0  0  0  0  0  0  0
  -32.0499  -16.4984   20.9575 N   0  0  0  0  0  0  0  0  0  0  0  0
  -29.4708  -25.4854   20.4863 N   0  0  0  0  0  0  0  0  0  0  0  0
  -33.6487  -16.2995   19.5225 N   0  3  0  0  0  0  0  0  0  0  0  0
  -24.1999  -14.9808   20.5893 N   0  0  0  0  0  0  0  0  0  0  0  0
  -30.2544  -22.2847   18.5547 N   0  0  0  0  0  0  0  0  0  0  0  0
  -30.6031  -25.3636   22.5632 N   0  0  0  0  0  0  0  0  0  0  0  0
  -27.4084  -28.4700   23.2987 N   0  0  0  0  0  0  0  0  0  0  0  0
  -24.5817  -18.3955   19.3687 N   0  0  0  0  0  0  0  0  0  0  0  0
  -22.3453  -12.4939   21.9438 N   0  0  0  0  0  0  0  0  0  0  0  0
  -31.1280  -20.1071   18.2510 N   0  0  0  0  0  0  0  0  0  0  0  0
  -22.9558   -9.1879   20.6152 N   0  3  0  0  0  0  0  0  0  0  0  0
  -29.1692  -27.3490   24.2482 O   0  0  0  0  0  0  0  0  0  0  0  0
  -24.7568  -17.3294   21.4315 O   0  0  0  0  0  0  0  0  0  0  0  0
  -21.8708  -15.0247   20.6873 O   0  0  0  0  0  0  0  0  0  0  0  0
  -24.2452  -11.1775   22.1302 O   0  0  0  0  0  0  0  0  0  0  0  0
  -29.7537  -20.5649   20.0277 O   0  0  0  0  0  0  0  0  0  0  0  0
  -23.6228  -30.2373   19.6134 O   0  0  0  0  0  0  0  0  0  0  0  0
  -30.2601  -13.8474   20.3855 O   0  0  0  0  0  0  0  0  0  1  0  0
  -19.5536  -30.5399   23.3220 F   0  0  0  0  0  0  0  0  0  0  0  0
  -24.1103  -31.1290   22.1844 F   0  0  0  0  0  0  0  0  0  0  0  0
  1  2  1  0  0  0  0
  1  5  2  0  0  0  0
  2  6  2  0  0  0  0
  3  8  2  0  0  0  0
  3 15  1  0  0  0  0
  4  9  1  0  0  0  0
  4 15  2  0  0  0  0
  5 17  1  0  0  0  0
  6 19  1  0  0  0  0
  7 10  2  0  0  0  0
  7 18  1  0  0  0  0
  8 21  1  0  0  0  0
  9 21  2  0  0  0  0
 10 22  1  0  0  0  0
 11 12  2  0  0  0  0
 11 23  1  0  0  0  0
 12 24  1  0  0  0  0
 13 20  1  0  0  0  0
 13 22  2  0  0  0  0
 14 24  2  0  0  0  0
 14 25  1  0  0  0  0
 15 26  1  0  0  0  0
 16 26  1  0  0  0  0
 16 29  2  0  0  0  0
 16 31  1  0  0  0  0
 17 19  2  0  0  0  0
 17 36  1  0  0  0  0
 18 20  2  0  0  0  0
 18 37  1  0  0  0  0
 19 45  1  0  0  0  0
 20 38  1  0  0  0  0
 21 83  1  0  0  0  0
 22 84  1  0  0  0  0
 23 25  2  0  0  0  0
 23 83  1  0  0  0  0
 24 85  1  0  0  0  0
 25 86  1  0  0  0  0
 26 66  2  0  0  0  0
 27 28  2  0  0  0  0
 27 64  1  0  0  0  0
 27 67  1  0  0  0  0
 28 58  1  0  0  0  0
 28 69  1  0  0  0  0
 29 68  1  0  0  0  0
 29 72  1  0  0  0  0
 30 59  1  0  0  0  0
 30 67  1  0  0  0  0
 30 69  2  0  0  0  0
 31 73  1  0  0  0  0
 31 78  2  0  0  0  0
 32 46  1  0  0  0  0
 32 74  1  0  0  0  0
 32 79  2  0  0  0  0
 33 61  1  0  0  0  0
 33 70  1  0  0  0  0
 33 80  2  0  0  0  0
 34 62  1  0  0  0  0
 34 75  1  0  0  0  0
 34 81  2  0  0  0  0
 35 71  1  0  0  0  0
 35 76  1  0  0  0  0
 35 82  2  0  0  0  0
 36 39  1  0  0  0  0
 37 46  1  0  0  0  0
 38 70  1  0  0  0  0
 39 41  1  0  0  0  0
 40 42  1  0  0  0  0
 40 43  1  0  0  0  0
 41 45  1  0  0  0  0
 42 47  1  0  0  0  0
 43 71  1  0  0  0  0
 44 47  1  0  0  0  0
 44 71  1  0  0  0  0
 45 74  1  0  0  0  0
 46 70  1  0  0  0  0
 47 68  1  0  0  0  0
 48 58  1  0  0  0  0
 49 62  1  0  0  0  0
 50 63  1  0  0  0  0
 51 64  1  0  0  0  0
 52 64  1  0  0  0  0
 53 65  1  0  0  0  0
 54 65  1  0  0  0  0
 55 65  1  0  0  0  0
 56 67  1  0  0  0  0
 57 77  1  0  0  0  0
 59 63  1  0  0  0  0
 60 64  1  0  0  0  0
 60 84  1  0  0  0  0
 61 65  1  0  0  0  0
 61 75  1  0  0  0  0
 62 77  1  0  0  0  0
 63 76  1  0  0  0  0
 66 68  1  0  0  0  0
M  CHG  2  69   1  77   1
M  ISO  4  35 100  60 101  76 100  84 101
M  END
> <Batch ID>
0061

> <Smiles>
CCc1nc(CC(C)[100NH:0][100C:0](=O)N2CCCC(n3nc(-c4ccc(Oc5ccc(F)cc5F)cc4)c(C(N)=O)c3N)C2)n(C)c1C(C)(C)[101CH2:1][101O:1]c1ccc2c(c1)CN(C(=O)C(NC(=O)C(C)NC)C(C)(C)C)C(C(=O)NC1CCCc3ccccc31)C2

> <Shape>
0.231

> <Color>
0.070

> <Negative vol penalty>
0.000

$$$$

  -OEChem-04052317583D

 83 91  0     1  0  0  0  0  0999 V2000
  -25.1333  -36.0732   22.4614 C   0  0  0  0  0  0  0  0  0  0  0  0
  -25.9306  -35.4155   21.5301 C   0  0  0  0  0  0  0  0  0  0  0  0
  -28.5020  -11.3312   21.5652 C   0  0  0  0  0  0  0  0  0  0  0  0
  -26.9796  -12.1783   19.8914 C   0  0  0  0  0  0  0  0  0  0  0  0
  -24.8309  -35.4591   23.6760 C   0  0  0  0  0  0  0  0  0  0  0  0
  -26.4268  -34.1436   21.8135 C   0  0  0  0  0  0  0  0  0  0  0  0
  -28.1398  -27.9754   18.5985 C   0  0  0  0  0  0  0  0  0  0  0  0
  -27.7054  -10.1962   21.7154 C   0  0  0  0  0  0  0  0  0  0  0  0
  -26.1830  -11.0432   20.0415 C   0  0  0  0  0  0  0  0  0  0  0  0
  -29.1967  -27.0721   18.4947 C   0  0  0  0  0  0  0  0  0  0  0  0
  -23.8627   -9.8980   22.2177 C   0  0  0  0  0  0  0  0  0  0  0  0
  -22.4829  -10.0818   22.3068 C   0  0  0  0  0  0  0  0  0  0  0  0
  -28.5436  -26.0763   20.5926 C   0  0  0  0  0  0  0  0  0  0  0  0
  -22.1744   -8.7228   20.3332 C   0  0  0  0  0  0  0  0  0  0  0  0
  -29.2900  -22.2162   17.9467 C   0  0  0  0  0  0  0  0  0  0  0  0
  -28.1391  -12.3224   20.6533 C   0  0  0  0  0  0  0  0  0  0  0  0
  -30.0371  -13.6677   19.6066 C   0  0  0  0  0  0  0  0  0  0  0  0
  -25.3158  -34.1750   23.9703 C   0  0  0  0  0  0  0  0  0  0  0  0
  -27.2819  -27.9429   19.7073 C   0  0  0  0  0  0  0  0  0  0  0  0
  -26.1318  -33.5122   23.0337 C   0  0  0  0  0  0  0  0  0  0  0  0
  -27.4750  -26.9786   20.7068 C   0  0  0  0  0  0  0  0  0  0  0  0
  -30.4929  -22.4232   18.5906 C   0  0  0  0  0  0  0  0  0  0  0  0
  -26.5459  -10.0521   20.9535 C   0  0  0  0  0  0  0  0  0  0  0  0
  -29.4005  -26.1243   19.4933 C   0  0  0  0  0  0  0  0  0  0  0  0
  -24.3984   -9.1267   21.1863 C   0  0  0  0  0  0  0  0  0  0  0  0
  -21.6388   -9.4942   21.3646 C   0  0  0  0  0  0  0  0  0  0  0  0
  -23.5543   -8.5391   20.2441 C   0  0  0  0  0  0  0  0  0  0  0  0
  -28.9613  -13.4954   20.4981 C   0  0  0  0  0  0  0  0  0  0  0  0
  -30.7334  -21.6128   19.6813 C   0  0  0  0  0  0  0  0  0  0  0  0
  -30.4815  -14.9447   19.8474 C   0  0  0  0  0  0  0  0  0  0  0  0
  -28.7353  -20.5645   19.4066 C   0  0  0  0  0  0  0  0  0  0  0  0
  -30.5855  -12.7549   18.6465 C   0  0  0  0  0  0  0  0  0  0  0  0
  -26.5464  -29.9790   22.0347 C   0  0  0  0  0  0  0  0  0  0  0  0
  -24.3568  -27.7104   22.7972 C   0  0  0  0  0  0  0  0  0  0  0  0
  -23.4058  -24.4362   22.6499 C   0  0  0  0  0  0  0  0  0  0  0  0
  -27.4342  -19.6248   22.3671 C   0  0  0  0  0  0  0  0  0  0  0  0
  -25.0012  -33.5711   25.3161 C   0  0  0  0  0  0  0  0  0  0  0  0
  -26.1304  -28.9069   19.7912 C   0  0  0  0  0  0  0  0  0  0  0  0
  -26.5701  -26.8888   21.9074 C   0  0  0  0  0  0  0  0  0  0  0  0
  -25.2574  -32.0677   25.3840 C   0  0  0  0  0  0  0  0  0  0  0  0
  -30.7411  -18.2442   23.2943 C   0  0  0  0  0  0  0  0  0  0  0  0
  -26.6148  -31.7295   24.7757 C   0  0  0  0  0  0  0  0  0  0  0  0
  -30.7113  -16.8543   22.6607 C   0  0  0  0  0  0  0  0  0  0  0  0
  -29.3417  -18.7333   23.6549 C   0  0  0  0  0  0  0  0  0  0  0  0
  -28.3537  -17.3198   21.8828 C   0  0  0  0  0  0  0  0  0  0  0  0
  -26.6685  -32.1214   23.2942 C   0  0  1  0  0  0  0  0  0  0  0  0
  -25.6284  -29.1155   21.2166 C   0  0  1  0  0  0  0  0  0  0  0  0
  -29.7437  -16.8171   21.4650 C   0  0  2  0  0  0  0  0  0  0  0  0
  -33.1881  -21.1050   19.7402 C   0  0  0  0  0  0  0  0  0  0  0  0
  -21.5866  -22.8777   23.3975 C   0  0  0  0  0  0  0  0  0  0  0  0
  -25.5029  -27.7328   25.6249 C   0  0  0  0  0  0  0  0  0  0  0  0
  -24.3367  -25.5566   26.0399 C   0  0  0  0  0  0  0  0  0  0  0  0
  -23.0081  -27.6007   25.5114 C   0  0  0  0  0  0  0  0  0  0  0  0
  -26.0112  -20.9574   20.8575 C   0  0  0  0  0  0  0  0  0  0  0  0
  -22.6914  -23.7466   19.8619 C   0  0  0  0  0  0  0  0  0  0  0  0
  -31.4643  -23.4750   18.1126 C   0  0  0  0  0  0  0  0  0  0  0  0
  -32.0031  -21.7469   20.4556 C   0  0  0  0  0  0  0  0  0  0  0  0
  -27.7595  -19.5316   19.8595 C   0  0  0  0  0  0  0  0  0  0  0  0
  -30.8425  -24.8669   18.0807 C   0  0  0  0  0  0  0  0  0  1  0  0
  -24.3489  -26.4862   23.6805 C   0  0  1  0  0  0  0  0  0  0  0  0
  -22.0833  -23.7868   22.2841 C   0  0  2  0  0  0  0  0  0  0  0  0
  -24.3175  -26.8467   25.1926 C   0  0  0  0  0  0  0  0  0  0  0  0
  -28.3844  -21.2921   18.3292 N   0  0  0  0  0  0  0  0  0  0  0  0
  -28.7361  -14.5765   21.2494 N   0  0  0  0  0  0  0  0  0  0  0  0
  -29.8734  -20.6697   20.1187 N   0  0  0  0  0  0  0  0  0  0  0  0
  -29.6765  -15.4404   20.8305 N   0  0  0  0  0  0  0  0  0  0  0  0
  -25.4620  -27.8574   21.9471 N   0  0  0  0  0  0  0  0  0  0  0  0
  -28.4316  -18.6466   22.5123 N   0  0  0  0  0  0  0  0  0  0  0  0
  -31.4785  -15.6808   19.3121 N   0  0  0  0  0  0  0  0  0  0  0  0
  -30.0088  -11.4830   18.5284 N   0  0  0  0  0  0  0  0  0  0  0  0
  -25.9643  -31.1475   22.4879 N   0  0  0  0  0  0  0  0  0  0  0  0
  -23.2237  -25.6703   23.2373 N   0  0  0  0  0  0  0  0  0  0  0  0
  -27.0340  -19.9411   21.0600 N   0  0  0  0  0  0  0  0  0  0  0  0
  -22.2310  -22.9736   21.0440 N   0  3  0  0  0  0  0  0  0  0  0  0
  -31.5687  -13.0524   17.9264 O   0  0  0  0  0  0  0  0  0  0  0  0
  -27.6972  -29.6117   22.2408 O   0  0  0  0  0  0  0  0  0  0  0  0
  -23.4135  -28.5032   22.8540 O   0  0  0  0  0  0  0  0  0  0  0  0
  -24.4917  -23.9004   22.4393 O   0  0  0  0  0  0  0  0  0  0  0  0
  -26.9370  -20.1905   23.3493 O   0  0  0  0  0  0  0  0  0  0  0  0
  -25.7684   -8.9445   21.0996 O   0  0  0  0  0  0  0  0  0  0  0  0
  -30.4317  -25.2418   19.3948 O   0  0  0  0  0  0  0  0  0  1  0  0
  -20.3136   -9.6695   21.4512 F   0  0  0  0  0  0  0  0  0  0  0  0
  -24.0630   -7.7960   19.2516 F   0  0  0  0  0  0  0  0  0  0  0  0
  1  2  1  0  0  0  0
  1  5  2  0  0  0  0
  2  6  2  0  0  0  0
  3  8  2  0  0  0  0
  3 16  1  0  0  0  0
  4  9  1  0  0  0  0
  4 16  2  0  0  0  0
  5 18  1  0  0  0  0
  6 20  1  0  0  0  0
  7 10  2  0  0  0  0
  7 19  1  0  0  0  0
  8 23  1  0  0  0  0
  9 23  2  0  0  0  0
 10 24  1  0  0  0  0
 11 12  2  0  0  0  0
 11 25  1  0  0  0  0
 12 26  1  0  0  0  0
 13 21  1  0  0  0  0
 13 24  2  0  0  0  0
 14 26  2  0  0  0  0
 14 27  1  0  0  0  0
 15 22  1  0  0  0  0
 15 63  2  0  0  0  0
 16 28  1  0  0  0  0
 17 28  1  0  0  0  0
 17 30  2  0  0  0  0
 17 32  1  0  0  0  0
 18 20  2  0  0  0  0
 18 37  1  0  0  0  0
 19 21  2  0  0  0  0
 19 38  1  0  0  0  0
 20 46  1  0  0  0  0
 21 39  1  0  0  0  0
 22 29  2  0  0  0  0
 22 56  1  0  0  0  0
 23 80  1  0  0  0  0
 24 81  1  0  0  0  0
 25 27  2  0  0  0  0
 25 80  1  0  0  0  0
 26 82  1  0  0  0  0
 27 83  1  0  0  0  0
 28 64  2  0  0  0  0
 29 57  1  0  0  0  0
 29 65  1  0  0  0  0
 30 66  1  0  0  0  0
 30 69  1  0  0  0  0
 31 58  1  0  0  0  0
 31 63  1  0  0  0  0
 31 65  2  0  0  0  0
 32 70  1  0  0  0  0
 32 75  2  0  0  0  0
 33 47  1  0  0  0  0
 33 71  1  0  0  0  0
 33 76  2  0  0  0  0
 34 60  1  0  0  0  0
 34 67  1  0  0  0  0
 34 77  2  0  0  0  0
 35 61  1  0  0  0  0
 35 72  1  0  0  0  0
 35 78  2  0  0  0  0
 36 68  1  0  0  0  0
 36 73  1  0  0  0  0
 36 79  2  0  0  0  0
 37 40  1  0  0  0  0
 38 47  1  0  0  0  0
 39 67  1  0  0  0  0
 40 42  1  0  0  0  0
 41 43  1  0  0  0  0
 41 44  1  0  0  0  0
 42 46  1  0  0  0  0
 43 48  1  0  0  0  0
 44 68  1  0  0  0  0
 45 48  1  0  0  0  0
 45 68  1  0  0  0  0
 46 71  1  0  0  0  0
 47 67  1  0  0  0  0
 48 66  1  0  0  0  0
 49 57  1  0  0  0  0
 50 61  1  0  0  0  0
 51 62  1  0  0  0  0
 52 62  1  0  0  0  0
 53 62  1  0  0  0  0
 54 73  1  0  0  0  0
 55 74  1  0  0  0  0
 56 59  1  0  0  0  0
 58 73  1  0  0  0  0
 59 81  1  0  0  0  0
 60 62  1  0  0  0  0
 60 72  1  0  0  0  0
 61 74  1  0  0  0  0
 64 66  1  0  0  0  0
M  CHG  1  74   1
M  ISO  4  36 100  59 101  73 100  81 101
M  END
> <Batch ID>
0061

> <Smiles>
CCc1nc(C[100N:0](C)[100C:0](=O)N2CCCC(n3nc(-c4ccc(Oc5ccc(F)cc5F)cc4)c(C(N)=O)c3N)C2)ncc1C[101CH2:1][101O:1]c1ccc2c(c1)CN(C(=O)C(NC(=O)C(C)NC)C(C)(C)C)C(C(=O)NC1CCCc3ccccc31)C2

> <Shape>
0.279

> <Color>
0.077

> <Negative vol penalty>
0.000

$$$$

  -OEChem-04052317583D

 88 96  0     1  0  0  0  0  0999 V2000
  -16.5164  -30.0998   24.0390 C   0  0  0  0  0  0  0  0  0  0  0  0
  -17.1689  -28.8774   24.1631 C   0  0  0  0  0  0  0  0  0  0  0  0
  -23.4314   -9.7881   21.8104 C   0  0  0  0  0  0  0  0  0  0  0  0
  -23.2844  -10.9969   23.8971 C   0  0  0  0  0  0  0  0  0  0  0  0
  -17.0341  -31.0826   23.1964 C   0  0  0  0  0  0  0  0  0  0  0  0
  -18.3389  -28.6367   23.4437 C   0  0  0  0  0  0  0  0  0  0  0  0
  -24.5627  -25.1219   23.9210 C   0  0  0  0  0  0  0  0  0  0  0  0
  -22.6937   -8.7420   22.3644 C   0  0  0  0  0  0  0  0  0  0  0  0
  -22.5466   -9.9508   24.4511 C   0  0  0  0  0  0  0  0  0  0  0  0
  -25.3430  -24.2118   23.2092 C   0  0  0  0  0  0  0  0  0  0  0  0
  -23.2465   -6.1280   24.4347 C   0  0  0  0  0  0  0  0  0  0  0  0
  -23.6974   -4.8275   24.2091 C   0  0  0  0  0  0  0  0  0  0  0  0
  -26.1881  -26.0127   21.8448 C   0  0  0  0  0  0  0  0  0  0  0  0
  -21.6095   -4.2929   23.1174 C   0  0  0  0  0  0  0  0  0  0  0  0
  -29.1239  -21.6582   20.8126 C   0  0  0  0  0  0  0  0  0  0  0  0
  -23.7269  -10.9156   22.5768 C   0  0  0  0  0  0  0  0  0  0  0  0
  -23.9897  -13.1196   21.3195 C   0  0  0  0  0  0  0  0  0  0  0  0
  -18.2164  -30.8574   22.4738 C   0  0  0  0  0  0  0  0  0  0  0  0
  -24.5810  -26.4850   23.5923 C   0  0  0  0  0  0  0  0  0  0  0  0
  -18.8722  -29.6169   22.5897 C   0  0  0  0  0  0  0  0  0  0  0  0
  -25.4091  -26.9384   22.5556 C   0  0  0  0  0  0  0  0  0  0  0  0
  -22.2513   -8.8233   23.6848 C   0  0  0  0  0  0  0  0  0  0  0  0
  -26.1537  -24.6567   22.1691 C   0  0  0  0  0  0  0  0  0  0  0  0
  -21.9770   -6.5110   24.0016 C   0  0  0  0  0  0  0  0  0  0  0  0
  -22.8789   -3.9099   23.5504 C   0  0  0  0  0  0  0  0  0  0  0  0
  -21.1586   -5.5935   23.3430 C   0  0  0  0  0  0  0  0  0  0  0  0
  -24.4894  -11.9963   22.0052 C   0  0  0  0  0  0  0  0  0  0  0  0
  -27.7634  -21.5925   21.0000 C   0  0  0  0  0  0  0  0  0  0  0  0
  -25.1084  -13.8412   20.9813 C   0  0  0  0  0  0  0  0  0  0  0  0
  -28.4540  -20.0685   19.5658 C   0  0  0  0  0  0  0  0  0  0  0  0
  -22.6353  -13.4788   21.0155 C   0  0  0  0  0  0  0  0  0  0  0  0
  -22.4168  -28.5738   22.5643 C   0  0  0  0  0  0  0  0  0  0  0  0
  -24.8344  -30.6952   22.9856 C   0  0  0  0  0  0  0  0  0  0  0  0
  -28.1947  -31.2556   23.1882 C   0  0  0  0  0  0  0  0  0  0  0  0
  -30.0514  -15.9570   22.8270 C   0  0  0  0  0  0  0  0  0  0  0  0
  -18.7119  -31.9325   21.5393 C   0  0  0  0  0  0  0  0  0  0  0  0
  -23.7537  -27.4578   24.3872 C   0  0  0  0  0  0  0  0  0  0  0  0
  -25.4801  -28.3944   22.1765 C   0  0  0  0  0  0  0  0  0  0  0  0
  -20.1604  -31.7367   21.0991 C   0  0  0  0  0  0  0  0  0  0  0  0
  -30.0085  -12.6400   21.1846 C   0  0  0  0  0  0  0  0  0  0  0  0
  -20.3992  -30.2906   20.6765 C   0  0  0  0  0  0  0  0  0  0  0  0
  -28.5342  -12.2476   21.2650 C   0  0  0  0  0  0  0  0  0  0  0  0
  -30.4118  -13.5670   22.3273 C   0  0  0  0  0  0  0  0  0  0  0  0
  -28.0890  -14.3917   22.5240 C   0  0  0  0  0  0  0  0  0  0  0  0
  -20.1573  -29.3273   21.8448 C   0  0  1  0  0  0  0  0  0  0  0  0
  -23.4602  -28.7499   23.6311 C   0  0  1  0  0  0  0  0  0  0  0  0
  -27.6388  -13.4952   21.3608 C   0  0  2  0  0  0  0  0  0  0  0  0
  -28.1820  -19.3786   17.1486 C   0  0  0  0  0  0  0  0  0  0  0  0
  -29.8692  -33.0985   23.5001 C   0  0  0  0  0  0  0  0  0  0  0  0
  -25.0800  -21.1813   19.4428 C   0  0  0  0  0  0  0  0  0  0  0  0
  -25.4212  -19.5455   21.3438 C   0  0  0  0  0  0  0  0  0  0  0  0
  -31.3816  -17.0189   19.9587 C   0  0  0  0  0  0  0  0  0  0  0  0
  -24.3901  -31.5839   20.1006 C   0  0  0  0  0  0  0  0  0  0  0  0
  -26.6331  -32.6940   20.1706 C   0  0  0  0  0  0  0  0  0  0  0  0
  -24.8219  -33.4475   21.7116 C   0  0  0  0  0  0  0  0  0  0  0  0
  -29.4622  -18.3345   23.1096 C   0  0  0  0  0  0  0  0  0  0  0  0
  -29.2440  -30.0390   25.6737 C   0  0  0  0  0  0  0  0  0  0  0  0
  -29.2996  -16.7193   17.9765 C   0  0  0  0  0  0  0  0  0  0  0  0
  -26.8362  -22.3996   21.8605 C   0  0  0  0  0  0  0  0  0  1  0  0
  -29.0318  -17.2758   20.9234 C   0  0  0  0  0  0  0  0  0  0  0  0
  -28.3759  -18.9425   18.6129 C   0  0  1  0  0  0  0  0  0  0  0  0
  -25.9544  -31.2249   22.1230 C   0  0  1  0  0  0  0  0  0  0  0  0
  -29.0272  -32.0361   24.1893 C   0  0  2  0  0  0  0  0  0  0  0  0
  -25.9891  -20.1041   20.0377 C   0  0  0  0  0  0  0  0  0  0  0  0
  -30.1192  -17.8672   20.0289 C   0  0  2  0  0  0  0  0  0  0  0  0
  -25.4473  -32.2098   21.0321 C   0  0  0  0  0  0  0  0  0  0  0  0
  -29.5476  -20.7071   19.9185 N   0  0  0  0  0  0  0  0  0  0  0  0
  -25.8218  -11.9994   22.0979 N   0  0  0  0  0  0  0  0  0  0  0  0
  -27.3482  -20.5698   20.1945 N   0  0  0  0  0  0  0  0  0  0  0  0
  -26.1689  -13.1335   21.4659 N   0  0  0  0  0  0  0  0  0  0  0  0
  -24.6478  -29.3056   22.9792 N   0  0  0  0  0  0  0  0  0  0  0  0
  -29.5184  -14.7220   22.4225 N   0  0  0  0  0  0  0  0  0  0  0  0
  -25.2785  -15.0055   20.3197 N   0  0  0  0  0  0  0  0  0  0  0  0
  -21.6069  -12.6249   21.4369 N   0  0  0  0  0  0  0  0  0  0  0  0
  -21.2837  -29.3418   22.7533 N   0  0  0  0  0  0  0  0  0  0  0  0
  -26.9365  -31.7990   23.0364 N   0  0  0  0  0  0  0  0  0  0  0  0
  -29.4440  -17.1139   22.3160 N   0  0  0  0  0  0  0  0  0  0  0  0
  -29.9402  -31.1200   24.9296 N   0  3  0  0  0  0  0  0  0  0  0  0
  -29.5809  -18.0347   18.6394 N   0  3  1  0  0  0  0  0  0  0  0  0
  -22.3467  -14.5177   20.3745 O   0  0  0  0  0  0  0  0  0  0  0  0
  -22.6251  -27.7997   21.6374 O   0  0  0  0  0  0  0  0  0  0  0  0
  -24.1548  -31.4847   23.6463 O   0  0  0  0  0  0  0  0  0  0  0  0
  -28.6194  -30.2654   22.5969 O   0  0  0  0  0  0  0  0  0  0  0  0
  -31.0213  -16.0216   23.5932 O   0  0  0  0  0  0  0  0  0  0  0  0
  -21.5312   -7.8028   24.2256 O   0  0  0  0  0  0  0  0  0  0  0  0
  -26.9158  -23.7704   21.4723 O   0  0  0  0  0  0  0  0  0  1  0  0
  -23.3126   -2.6615   23.3325 F   0  0  0  0  0  0  0  0  0  0  0  0
  -19.9385   -5.9560   22.9236 F   0  0  0  0  0  0  0  0  0  0  0  0
  1  2  1  0  0  0  0
  1  5  2  0  0  0  0
  2  6  2  0  0  0  0
  3  8  2  0  0  0  0
  3 16  1  0  0  0  0
  4  9  1  0  0  0  0
  4 16  2  0  0  0  0
  5 18  1  0  0  0  0
  6 20  1  0  0  0  0
  7 10  2  0  0  0  0
  7 19  1  0  0  0  0
  8 22  1  0  0  0  0
  9 22  2  0  0  0  0
 10 23  1  0  0  0  0
 11 12  2  0  0  0  0
 11 24  1  0  0  0  0
 12 25  1  0  0  0  0
 13 21  1  0  0  0  0
 13 23  2  0  0  0  0
 14 25  2  0  0  0  0
 14 26  1  0  0  0  0
 15 28  2  0  0  0  0
 15 67  1  0  0  0  0
 16 27  1  0  0  0  0
 17 27  1  0  0  0  0
 17 29  2  0  0  0  0
 17 31  1  0  0  0  0
 18 20  2  0  0  0  0
 18 36  1  0  0  0  0
 19 21  2  0  0  0  0
 19 37  1  0  0  0  0
 20 45  1  0  0  0  0
 21 38  1  0  0  0  0
 22 85  1  0  0  0  0
 23 86  1  0  0  0  0
 24 26  2  0  0  0  0
 24 85  1  0  0  0  0
 25 87  1  0  0  0  0
 26 88  1  0  0  0  0
 27 68  2  0  0  0  0
 28 59  1  0  0  0  0
 28 69  1  0  0  0  0
 29 70  1  0  0  0  0
 29 73  1  0  0  0  0
 30 61  1  0  0  0  0
 30 67  2  0  0  0  0
 30 69  1  0  0  0  0
 31 74  1  0  0  0  0
 31 80  2  0  0  0  0
 32 46  1  0  0  0  0
 32 75  1  0  0  0  0
 32 81  2  0  0  0  0
 33 62  1  0  0  0  0
 33 71  1  0  0  0  0
 33 82  2  0  0  0  0
 34 63  1  0  0  0  0
 34 76  1  0  0  0  0
 34 83  2  0  0  0  0
 35 72  1  0  0  0  0
 35 77  1  0  0  0  0
 35 84  2  0  0  0  0
 36 39  1  0  0  0  0
 37 46  1  0  0  0  0
 38 71  1  0  0  0  0
 39 41  1  0  0  0  0
 40 42  1  0  0  0  0
 40 43  1  0  0  0  0
 41 45  1  0  0  0  0
 42 47  1  0  0  0  0
 43 72  1  0  0  0  0
 44 47  1  0  0  0  0
 44 72  1  0  0  0  0
 45 75  1  0  0  0  0
 46 71  1  0  0  0  0
 47 70  1  0  0  0  0
 48 61  1  0  0  0  0
 49 63  1  0  0  0  0
 50 64  1  0  0  0  0
 51 64  1  0  0  0  0
 52 65  1  0  0  0  0
 53 66  1  0  0  0  0
 54 66  1  0  0  0  0
 55 66  1  0  0  0  0
 56 77  1  0  0  0  0
 57 78  1  0  0  0  0
 58 79  1  0  0  0  0
 59 86  1  0  0  0  0
 60 65  1  0  0  0  0
 60 77  1  0  0  0  0
 61 79  1  0  0  0  0
 62 66  1  0  0  0  0
 62 76  1  0  0  0  0
 63 78  1  0  0  0  0
 64 69  1  0  0  0  0
 65 79  1  0  0  0  0
 68 70  1  0  0  0  0
M  CHG  2  78   1  79   1
M  ISO  4  35 100  59 101  77 100  86 101
M  END
> <Batch ID>
0061

> <Smiles>
CNC(C)C(=O)NC(C(=O)N1Cc2cc([101O:1][101CH2:1]c3cnc(C(C)N(C)C(C)C[100N:0](C)[100C:0](=O)N4CCCC(n5nc(-c6ccc(Oc7ccc(F)cc7F)cc6)c(C(N)=O)c5N)C4)n3C(C)C)ccc2CC1C(=O)NC1CCCc2ccccc21)C(C)(C)C

> <Shape>
0.290

> <Color>
0.146

> <Negative vol penalty>
0.000

$$$$

  -OEChem-04052317583D

 86 94  0     1  0  0  0  0  0999 V2000
  -19.6479  -28.6491   22.1277 C   0  0  0  0  0  0  0  0  0  0  0  0
  -20.3605  -27.8888   21.2060 C   0  0  0  0  0  0  0  0  0  0  0  0
  -27.0494  -26.1791   18.8370 C   0  0  0  0  0  0  0  0  0  0  0  0
  -28.9892  -26.2422   20.2759 C   0  0  0  0  0  0  0  0  0  0  0  0
  -19.2025  -28.0672   23.3138 C   0  0  0  0  0  0  0  0  0  0  0  0
  -20.6291  -26.5463   21.4704 C   0  0  0  0  0  0  0  0  0  0  0  0
  -21.4219  -20.2512   18.1448 C   0  0  0  0  0  0  0  0  0  0  0  0
  -26.7560  -27.5003   19.1746 C   0  0  0  0  0  0  0  0  0  0  0  0
  -28.6958  -27.5634   20.6135 C   0  0  0  0  0  0  0  0  0  0  0  0
  -22.3185  -19.1876   18.0517 C   0  0  0  0  0  0  0  0  0  0  0  0
  -25.3406  -29.1544   21.7601 C   0  0  0  0  0  0  0  0  0  0  0  0
  -24.0158  -29.4653   22.0666 C   0  0  0  0  0  0  0  0  0  0  0  0
  -24.0016  -14.2020   18.7289 C   0  0  0  0  0  0  0  0  0  0  0  0
  -21.4309  -18.2683   20.0978 C   0  0  0  0  0  0  0  0  0  0  0  0
  -23.9664  -31.0513   20.2447 C   0  0  0  0  0  0  0  0  0  0  0  0
  -25.0187  -13.2847   18.5599 C   0  0  0  0  0  0  0  0  0  0  0  0
  -28.1660  -25.5500   19.3877 C   0  0  0  0  0  0  0  0  0  0  0  0
  -29.2741  -23.7380   17.9747 C   0  0  0  0  0  0  0  0  0  0  0  0
  -19.4573  -26.7143   23.5885 C   0  0  0  0  0  0  0  0  0  0  0  0
  -20.5290  -20.3372   19.2226 C   0  0  0  0  0  0  0  0  0  0  0  0
  -20.1878  -25.9460   22.6619 C   0  0  0  0  0  0  0  0  0  0  0  0
  -20.5222  -19.3326   20.2008 C   0  0  0  0  0  0  0  0  0  0  0  0
  -27.5792  -28.1924   20.0629 C   0  0  0  0  0  0  0  0  0  0  0  0
  -22.3251  -18.1975   19.0298 C   0  0  0  0  0  0  0  0  0  0  0  0
  -25.9783  -29.7920   20.6959 C   0  0  0  0  0  0  0  0  0  0  0  0
  -23.3287  -30.4137   21.3090 C   0  0  0  0  0  0  0  0  0  0  0  0
  -25.2912  -30.7404   19.9382 C   0  0  0  0  0  0  0  0  0  0  0  0
  -28.4693  -24.1851   19.0397 C   0  0  0  0  0  0  0  0  0  0  0  0
  -24.2029  -15.1407   19.7202 C   0  0  0  0  0  0  0  0  0  0  0  0
  -29.2458  -22.3685   18.0744 C   0  0  0  0  0  0  0  0  0  0  0  0
  -26.2272  -14.2413   20.2307 C   0  0  0  0  0  0  0  0  0  0  0  0
  -29.9839  -24.4932   16.9840 C   0  0  0  0  0  0  0  0  0  0  0  0
  -20.0516  -22.4158   21.5796 C   0  0  0  0  0  0  0  0  0  0  0  0
  -17.4904  -20.5256   22.2041 C   0  0  0  0  0  0  0  0  0  0  0  0
  -16.0187  -17.4584   21.9337 C   0  0  0  0  0  0  0  0  0  0  0  0
  -29.5349  -17.7783   20.8686 C   0  0  0  0  0  0  0  0  0  0  0  0
  -18.9966  -26.1417   24.9055 C   0  0  0  0  0  0  0  0  0  0  0  0
  -19.5499  -21.4768   19.2943 C   0  0  0  0  0  0  0  0  0  0  0  0
  -19.5700  -19.3679   21.3672 C   0  0  0  0  0  0  0  0  0  0  0  0
  -18.9986  -24.6156   24.9402 C   0  0  0  0  0  0  0  0  0  0  0  0
  -26.3567  -19.3182   20.8745 C   0  0  0  0  0  0  0  0  0  0  0  0
  -20.3037  -24.0703   24.3690 C   0  0  0  0  0  0  0  0  0  0  0  0
  -26.6892  -20.7006   20.3148 C   0  0  0  0  0  0  0  0  0  0  0  0
  -27.4318  -18.8153   21.8398 C   0  0  0  0  0  0  0  0  0  0  0  0
  -29.1322  -20.2168   20.7142 C   0  0  0  0  0  0  0  0  0  0  0  0
  -20.4775  -24.4802   22.9016 C   0  0  1  0  0  0  0  0  0  0  0  0
  -19.0354  -21.7346   20.7072 C   0  0  1  0  0  0  0  0  0  0  0  0
  -28.0975  -20.7192   19.6956 C   0  0  2  0  0  0  0  0  0  0  0  0
  -26.3833  -12.8314   22.9142 C   0  0  0  0  0  0  0  0  0  0  0  0
  -13.9402  -16.2073   22.5756 C   0  0  0  0  0  0  0  0  0  0  0  0
  -18.5163  -20.2957   25.0685 C   0  0  0  0  0  0  0  0  0  0  0  0
  -16.9922  -18.3345   25.3831 C   0  0  0  0  0  0  0  0  0  0  0  0
  -16.0400  -20.5817   24.8671 C   0  0  0  0  0  0  0  0  0  0  0  0
  -29.5162  -13.2642   19.7991 C   0  0  0  0  0  0  0  0  0  0  0  0
  -28.5070  -15.4034   19.0021 C   0  0  0  0  0  0  0  0  0  0  0  0
  -29.0007  -16.6079   23.0480 C   0  0  0  0  0  0  0  0  0  0  0  0
  -15.3067  -16.9580   19.1050 C   0  0  0  0  0  0  0  0  0  0  0  0
  -23.1517  -16.1796   19.9789 C   0  0  0  0  0  0  0  0  0  1  0  0
  -27.5943  -13.0104   22.0011 C   0  0  0  0  0  0  0  0  0  0  0  0
  -29.8643  -15.3471   21.1114 C   0  0  0  0  0  0  0  0  0  0  0  0
  -27.4625  -14.2626   21.0653 C   0  0  1  0  0  0  0  0  0  0  0  0
  -17.2472  -19.3006   23.0523 C   0  0  1  0  0  0  0  0  0  0  0  0
  -14.6220  -17.0455   21.5055 C   0  0  2  0  0  0  0  0  0  0  0  0
  -17.2183  -19.6282   24.5719 C   0  0  0  0  0  0  0  0  0  0  0  0
  -28.8194  -14.5617   20.2643 C   0  0  0  0  0  0  0  0  0  0  0  0
  -26.1494  -13.2751   19.2958 N   0  0  0  0  0  0  0  0  0  0  0  0
  -27.9663  -23.1810   19.7627 N   0  0  0  0  0  0  0  0  0  0  0  0
  -25.3078  -15.1897   20.4930 N   0  0  0  0  0  0  0  0  0  0  0  0
  -28.4562  -22.0893   19.1508 N   0  0  0  0  0  0  0  0  0  0  0  0
  -18.6362  -20.5057   21.3963 N   0  0  0  0  0  0  0  0  0  0  0  0
  -28.7646  -18.8945   21.2266 N   0  0  0  0  0  0  0  0  0  0  0  0
  -29.8194  -21.3878   17.3453 N   0  0  0  0  0  0  0  0  0  0  0  0
  -29.9056  -25.8919   17.0272 N   0  0  0  0  0  0  0  0  0  0  0  0
  -19.6534  -23.6544   22.0452 N   0  0  0  0  0  0  0  0  0  0  0  0
  -16.0204  -18.6925   22.5487 N   0  0  0  0  0  0  0  0  0  0  0  0
  -29.3733  -16.6141   21.6347 N   0  0  0  0  0  0  0  0  0  0  0  0
  -14.6805  -16.2464   20.2489 N   0  3  0  0  0  0  0  0  0  0  0  0
  -30.6541  -23.9436   16.0773 O   0  0  0  0  0  0  0  0  0  0  0  0
  -21.1173  -21.8582   21.8142 O   0  0  0  0  0  0  0  0  0  0  0  0
  -16.6893  -21.4624   22.2511 O   0  0  0  0  0  0  0  0  0  0  0  0
  -17.0085  -16.7547   21.7451 O   0  0  0  0  0  0  0  0  0  0  0  0
  -30.3303  -17.8205   19.9212 O   0  0  0  0  0  0  0  0  0  0  0  0
  -27.2933  -29.4817   20.3924 O   0  0  0  0  0  0  0  0  0  0  0  0
  -23.1996  -17.1586   18.9418 O   0  0  0  0  0  0  0  0  0  1  0  0
  -22.0561  -30.7110   21.6025 F   0  0  0  0  0  0  0  0  0  0  0  0
  -25.8982  -31.3554   18.9139 F   0  0  0  0  0  0  0  0  0  0  0  0
  1  2  1  0  0  0  0
  1  5  2  0  0  0  0
  2  6  2  0  0  0  0
  3  8  2  0  0  0  0
  3 17  1  0  0  0  0
  4  9  1  0  0  0  0
  4 17  2  0  0  0  0
  5 19  1  0  0  0  0
  6 21  1  0  0  0  0
  7 10  2  0  0  0  0
  7 20  1  0  0  0  0
  8 23  1  0  0  0  0
  9 23  2  0  0  0  0
 10 24  1  0  0  0  0
 11 12  2  0  0  0  0
 11 25  1  0  0  0  0
 12 26  1  0  0  0  0
 13 16  1  0  0  0  0
 13 29  2  0  0  0  0
 14 22  1  0  0  0  0
 14 24  2  0  0  0  0
 15 26  2  0  0  0  0
 15 27  1  0  0  0  0
 16 66  2  0  0  0  0
 17 28  1  0  0  0  0
 18 28  1  0  0  0  0
 18 30  2  0  0  0  0
 18 32  1  0  0  0  0
 19 21  2  0  0  0  0
 19 37  1  0  0  0  0
 20 22  2  0  0  0  0
 20 38  1  0  0  0  0
 21 46  1  0  0  0  0
 22 39  1  0  0  0  0
 23 83  1  0  0  0  0
 24 84  1  0  0  0  0
 25 27  2  0  0  0  0
 25 83  1  0  0  0  0
 26 85  1  0  0  0  0
 27 86  1  0  0  0  0
 28 67  2  0  0  0  0
 29 58  1  0  0  0  0
 29 68  1  0  0  0  0
 30 69  1  0  0  0  0
 30 72  1  0  0  0  0
 31 61  1  0  0  0  0
 31 66  1  0  0  0  0
 31 68  2  0  0  0  0
 32 73  1  0  0  0  0
 32 78  2  0  0  0  0
 33 47  1  0  0  0  0
 33 74  1  0  0  0  0
 33 79  2  0  0  0  0
 34 62  1  0  0  0  0
 34 70  1  0  0  0  0
 34 80  2  0  0  0  0
 35 63  1  0  0  0  0
 35 75  1  0  0  0  0
 35 81  2  0  0  0  0
 36 71  1  0  0  0  0
 36 76  1  0  0  0  0
 36 82  2  0  0  0  0
 37 40  1  0  0  0  0
 38 47  1  0  0  0  0
 39 70  1  0  0  0  0
 40 42  1  0  0  0  0
 41 43  1  0  0  0  0
 41 44  1  0  0  0  0
 42 46  1  0  0  0  0
 43 48  1  0  0  0  0
 44 71  1  0  0  0  0
 45 48  1  0  0  0  0
 45 71  1  0  0  0  0
 46 74  1  0  0  0  0
 47 70  1  0  0  0  0
 48 69  1  0  0  0  0
 49 59  1  0  0  0  0
 50 63  1  0  0  0  0
 51 64  1  0  0  0  0
 52 64  1  0  0  0  0
 53 64  1  0  0  0  0
 54 65  1  0  0  0  0
 55 65  1  0  0  0  0
 56 76  1  0  0  0  0
 57 77  1  0  0  0  0
 58 84  1  0  0  0  0
 59 61  1  0  0  0  0
 60 65  1  0  0  0  0
 60 76  1  0  0  0  0
 61 65  1  0  0  0  0
 62 64  1  0  0  0  0
 62 75  1  0  0  0  0
 63 77  1  0  0  0  0
 67 69  1  0  0  0  0
M  CHG  1  77   1
M  ISO  4  36 100  58 101  76 100  84 101
M  END
> <Batch ID>
0061

> <Smiles>
CCC(c1nccc([101CH2:1][101O:1]c2ccc3c(c2)CN(C(=O)C(NC(=O)C(C)NC)C(C)(C)C)C(C(=O)NC2CCCc4ccccc42)C3)n1)C(C)(C)C[100N:0](C)[100C:0](=O)N1CCCC(n2nc(-c3ccc(Oc4ccc(F)cc4F)cc3)c(C(N)=O)c2N)C1

> <Shape>
0.224

> <Color>
0.071

> <Negative vol penalty>
0.000

$$$$

  -OEChem-04052317583D

 82 90  0     1  0  0  0  0  0999 V2000
  -27.0268  -34.5287   23.3057 C   0  0  0  0  0  0  0  0  0  0  0  0
  -27.3614  -33.1803   23.3789 C   0  0  0  0  0  0  0  0  0  0  0  0
  -24.8824  -14.8265   21.4031 C   0  0  0  0  0  0  0  0  0  0  0  0
  -27.2632  -14.4231   21.4804 C   0  0  0  0  0  0  0  0  0  0  0  0
  -25.6899  -34.9186   23.3730 C   0  0  0  0  0  0  0  0  0  0  0  0
  -26.3592  -32.2211   23.5206 C   0  0  0  0  0  0  0  0  0  0  0  0
  -27.0252  -28.2478   20.4523 C   0  0  0  0  0  0  0  0  0  0  0  0
  -24.6753  -13.5198   20.9614 C   0  0  0  0  0  0  0  0  0  0  0  0
  -27.0561  -13.1163   21.0388 C   0  0  0  0  0  0  0  0  0  0  0  0
  -27.9751  -27.3012   20.8334 C   0  0  0  0  0  0  0  0  0  0  0  0
  -24.5612  -10.4223   22.3126 C   0  0  0  0  0  0  0  0  0  0  0  0
  -23.5333   -9.6918   22.9087 C   0  0  0  0  0  0  0  0  0  0  0  0
  -26.2152  -25.8842   21.6783 C   0  0  0  0  0  0  0  0  0  0  0  0
  -22.4608   -9.4456   20.7579 C   0  0  0  0  0  0  0  0  0  0  0  0
  -31.6835  -23.1857   23.6650 C   0  0  0  0  0  0  0  0  0  0  0  0
  -26.1764  -15.2782   21.6626 C   0  0  0  0  0  0  0  0  0  0  0  0
  -26.4245  -17.0803   23.4511 C   0  0  0  0  0  0  0  0  0  0  0  0
  -24.6701  -33.9630   23.5059 C   0  0  0  0  0  0  0  0  0  0  0  0
  -25.6617  -28.0242   20.6916 C   0  0  0  0  0  0  0  0  0  0  0  0
  -25.0075  -32.5987   23.5911 C   0  0  0  0  0  0  0  0  0  0  0  0
  -25.2498  -26.8284   21.2970 C   0  0  0  0  0  0  0  0  0  0  0  0
  -25.7621  -12.6647   20.7793 C   0  0  0  0  0  0  0  0  0  0  0  0
  -27.5705  -26.1204   21.4492 C   0  0  0  0  0  0  0  0  0  0  0  0
  -24.5388  -10.6646   20.9390 C   0  0  0  0  0  0  0  0  0  0  0  0
  -22.4832   -9.2034   22.1314 C   0  0  0  0  0  0  0  0  0  0  0  0
  -23.4886  -10.1762   20.1617 C   0  0  0  0  0  0  0  0  0  0  0  0
  -26.3910  -16.6282   22.1183 C   0  0  0  0  0  0  0  0  0  0  0  0
  -26.6574  -18.4301   23.3500 C   0  0  0  0  0  0  0  0  0  0  0  0
  -30.7184  -24.3529   22.0088 C   0  0  0  0  0  0  0  0  0  0  0  0
  -31.9732  -22.5546   21.5308 C   0  0  0  0  0  0  0  0  0  0  0  0
  -26.2599  -16.3457   24.6713 C   0  0  0  0  0  0  0  0  0  0  0  0
  -23.4168  -29.4811   22.4066 C   0  0  0  0  0  0  0  0  0  0  0  0
  -21.4696  -27.3155   20.9780 C   0  0  0  0  0  0  0  0  0  0  0  0
  -21.1400  -24.2867   19.4402 C   0  0  0  0  0  0  0  0  0  0  0  0
  -29.2455  -21.8177   19.1456 C   0  0  0  0  0  0  0  0  0  0  0  0
  -23.2427  -34.4360   23.6219 C   0  0  0  0  0  0  0  0  0  0  0  0
  -24.6474  -29.0434   20.2502 C   0  0  0  0  0  0  0  0  0  0  0  0
  -23.7965  -26.5313   21.5579 C   0  0  0  0  0  0  0  0  0  0  0  0
  -22.2145  -33.3306   23.3955 C   0  0  0  0  0  0  0  0  0  0  0  0
  -25.9379  -22.1451   20.4221 C   0  0  0  0  0  0  0  0  0  0  0  0
  -22.5935  -32.0798   24.1819 C   0  0  0  0  0  0  0  0  0  0  0  0
  -25.6820  -20.8091   21.1218 C   0  0  0  0  0  0  0  0  0  0  0  0
  -26.7729  -21.9681   19.1558 C   0  0  0  0  0  0  0  0  0  0  0  0
  -27.7864  -19.9060   20.0472 C   0  0  0  0  0  0  0  0  0  0  0  0
  -23.9472  -31.5268   23.7200 C   0  0  1  0  0  0  0  0  0  0  0  0
  -23.3273  -28.9395   21.0079 C   0  0  1  0  0  0  0  0  0  0  0  0
  -26.9955  -20.0400   21.3598 C   0  0  2  0  0  0  0  0  0  0  0  0
  -19.4189  -22.7738   18.4172 C   0  0  0  0  0  0  0  0  0  0  0  0
  -32.7876  -20.1513   21.0238 C   0  0  0  0  0  0  0  0  0  0  0  0
  -33.9862  -22.1164   20.0978 C   0  0  0  0  0  0  0  0  0  0  0  0
  -20.5102  -26.5264   23.7649 C   0  0  0  0  0  0  0  0  0  0  0  0
  -19.5549  -24.4376   22.7687 C   0  0  0  0  0  0  0  0  0  0  0  0
  -18.7041  -26.6668   22.0408 C   0  0  0  0  0  0  0  0  0  0  0  0
  -22.4614  -24.3813   16.7937 C   0  0  0  0  0  0  0  0  0  0  0  0
  -29.8637  -25.4990   21.5535 C   0  0  0  0  0  0  0  0  0  1  0  0
  -31.7090  -21.5251   19.2151 C   0  0  0  0  0  0  0  0  0  0  0  0
  -21.0039  -25.9172   21.3050 C   0  0  1  0  0  0  0  0  0  0  0  0
  -20.4323  -23.8784   18.1608 C   0  0  2  0  0  0  0  0  0  0  0  0
  -32.5658  -21.6233   20.5287 C   0  0  0  0  0  0  0  0  0  0  0  0
  -19.9709  -25.8931   22.4668 C   0  0  0  0  0  0  0  0  0  0  0  0
  -30.9078  -24.2303   23.3324 N   0  0  0  0  0  0  0  0  0  0  0  0
  -32.2494  -22.3075   22.8213 N   0  0  0  0  0  0  0  0  0  0  0  0
  -26.5868  -17.6111   21.2353 N   0  0  0  0  0  0  0  0  0  0  0  0
  -31.2178  -23.5556   21.0508 N   0  0  0  0  0  0  0  0  0  0  0  0
  -26.7454  -18.6942   22.0148 N   0  0  0  0  0  0  0  0  0  0  0  0
  -22.8432  -27.5616   21.1138 N   0  0  0  0  0  0  0  0  0  0  0  0
  -28.0053  -21.2329   19.4503 N   0  0  0  0  0  0  0  0  0  0  0  0
  -26.7933  -19.4050   24.2738 N   0  0  0  0  0  0  0  0  0  0  0  0
  -26.0278  -14.9657   24.5943 N   0  0  0  0  0  0  0  0  0  0  0  0
  -23.8002  -30.8070   22.4731 N   0  0  0  0  0  0  0  0  0  0  0  0
  -20.5109  -25.3485   20.0553 N   0  0  0  0  0  0  0  0  0  0  0  0
  -30.3637  -21.0563   19.4628 N   0  0  0  0  0  0  0  0  0  0  0  0
  -21.4188  -23.3875   17.1573 N   0  3  0  0  0  0  0  0  0  0  0  0
  -26.3007  -16.8996   25.7961 O   0  0  0  0  0  0  0  0  0  0  0  0
  -23.1557  -28.7506   23.3552 O   0  0  0  0  0  0  0  0  0  0  0  0
  -20.6461  -28.1563   20.6087 O   0  0  0  0  0  0  0  0  0  0  0  0
  -22.1477  -23.7182   19.8547 O   0  0  0  0  0  0  0  0  0  0  0  0
  -29.3488  -22.9378   18.6340 O   0  0  0  0  0  0  0  0  0  0  0  0
  -25.5604  -11.3894   20.3485 O   0  0  0  0  0  0  0  0  0  0  0  0
  -28.4956  -25.1951   21.8228 O   0  0  0  0  0  0  0  0  0  1  0  0
  -21.4970   -8.5006   22.7038 F   0  0  0  0  0  0  0  0  0  0  0  0
  -23.4623  -10.4047   18.8415 F   0  0  0  0  0  0  0  0  0  0  0  0
  1  2  1  0  0  0  0
  1  5  2  0  0  0  0
  2  6  2  0  0  0  0
  3  8  2  0  0  0  0
  3 16  1  0  0  0  0
  4  9  1  0  0  0  0
  4 16  2  0  0  0  0
  5 18  1  0  0  0  0
  6 20  1  0  0  0  0
  7 10  2  0  0  0  0
  7 19  1  0  0  0  0
  8 22  1  0  0  0  0
  9 22  2  0  0  0  0
 10 23  1  0  0  0  0
 11 12  2  0  0  0  0
 11 24  1  0  0  0  0
 12 25  1  0  0  0  0
 13 21  1  0  0  0  0
 13 23  2  0  0  0  0
 14 25  2  0  0  0  0
 14 26  1  0  0  0  0
 15 61  2  0  0  0  0
 15 62  1  0  0  0  0
 16 27  1  0  0  0  0
 17 27  1  0  0  0  0
 17 28  2  0  0  0  0
 17 31  1  0  0  0  0
 18 20  2  0  0  0  0
 18 36  1  0  0  0  0
 19 21  2  0  0  0  0
 19 37  1  0  0  0  0
 20 45  1  0  0  0  0
 21 38  1  0  0  0  0
 22 79  1  0  0  0  0
 23 80  1  0  0  0  0
 24 26  2  0  0  0  0
 24 79  1  0  0  0  0
 25 81  1  0  0  0  0
 26 82  1  0  0  0  0
 27 63  2  0  0  0  0
 28 65  1  0  0  0  0
 28 68  1  0  0  0  0
 29 55  1  0  0  0  0
 29 61  1  0  0  0  0
 29 64  2  0  0  0  0
 30 59  1  0  0  0  0
 30 62  2  0  0  0  0
 30 64  1  0  0  0  0
 31 69  1  0  0  0  0
 31 74  2  0  0  0  0
 32 46  1  0  0  0  0
 32 70  1  0  0  0  0
 32 75  2  0  0  0  0
 33 57  1  0  0  0  0
 33 66  1  0  0  0  0
 33 76  2  0  0  0  0
 34 58  1  0  0  0  0
 34 71  1  0  0  0  0
 34 77  2  0  0  0  0
 35 67  1  0  0  0  0
 35 72  1  0  0  0  0
 35 78  2  0  0  0  0
 36 39  1  0  0  0  0
 37 46  1  0  0  0  0
 38 66  1  0  0  0  0
 39 41  1  0  0  0  0
 40 42  1  0  0  0  0
 40 43  1  0  0  0  0
 41 45  1  0  0  0  0
 42 47  1  0  0  0  0
 43 67  1  0  0  0  0
 44 47  1  0  0  0  0
 44 67  1  0  0  0  0
 45 70  1  0  0  0  0
 46 66  1  0  0  0  0
 47 65  1  0  0  0  0
 48 58  1  0  0  0  0
 49 59  1  0  0  0  0
 50 59  1  0  0  0  0
 51 60  1  0  0  0  0
 52 60  1  0  0  0  0
 53 60  1  0  0  0  0
 54 73  1  0  0  0  0
 55 80  1  0  0  0  0
 56 59  1  0  0  0  0
 56 72  1  0  0  0  0
 57 60  1  0  0  0  0
 57 71  1  0  0  0  0
 58 73  1  0  0  0  0
 63 65  1  0  0  0  0
M  CHG  1  73   1
M  ISO  4  35 100  55 101  72 100  80 101
M  END
> <Batch ID>
0061

> <Smiles>
CNC(C)C(=O)NC(C(=O)N1Cc2cc([101O:1][101CH2:1]c3ncnc(C(C)(C)C[100NH:0][100C:0](=O)N4CCCC(n5nc(-c6ccc(Oc7ccc(F)cc7F)cc6)c(C(N)=O)c5N)C4)n3)ccc2CC1C(=O)NC1CCCc2ccccc21)C(C)(C)C

> <Shape>
0.222

> <Color>
0.058

> <Negative vol penalty>
0.000

$$$$

  -OEChem-04052317582D

  0  0  0     0  0  0  0  0  0999 V2000
M  END
$$$$

  -OEChem-04052317583D

 85 93  0     1  0  0  0  0  0999 V2000
  -20.0203  -16.6164   30.7033 C   0  0  0  0  0  0  0  0  0  0  0  0
  -21.0639  -16.7035   29.7874 C   0  0  0  0  0  0  0  0  0  0  0  0
  -23.1204   -9.8743   19.9473 C   0  0  0  0  0  0  0  0  0  0  0  0
  -23.9131   -9.8949   22.2295 C   0  0  0  0  0  0  0  0  0  0  0  0
  -18.7354  -16.2972   30.2661 C   0  0  0  0  0  0  0  0  0  0  0  0
  -20.8233  -16.4704   28.4338 C   0  0  0  0  0  0  0  0  0  0  0  0
  -23.0469  -19.9019   25.4464 C   0  0  0  0  0  0  0  0  0  0  0  0
  -22.4059   -8.7046   20.2061 C   0  0  0  0  0  0  0  0  0  0  0  0
  -23.1985   -8.7253   22.4883 C   0  0  0  0  0  0  0  0  0  0  0  0
  -24.4152  -19.7582   25.2205 C   0  0  0  0  0  0  0  0  0  0  0  0
  -19.9979   -7.8555   23.1361 C   0  0  0  0  0  0  0  0  0  0  0  0
  -19.2590   -7.7972   24.3177 C   0  0  0  0  0  0  0  0  0  0  0  0
  -23.9496  -18.7425   23.0826 C   0  0  0  0  0  0  0  0  0  0  0  0
  -20.5535   -5.8867   25.0329 C   0  0  0  0  0  0  0  0  0  0  0  0
  -30.9081  -20.7526   21.4740 C   0  0  0  0  0  0  0  0  0  0  0  0
  -32.2010  -20.4058   21.2001 C   0  0  0  0  0  0  0  0  0  0  0  0
  -23.8740  -10.4694   20.9590 C   0  0  0  0  0  0  0  0  0  0  0  0
  -24.1582  -13.0017   20.8383 C   0  0  0  0  0  0  0  0  0  0  0  0
  -18.4771  -16.0695   28.9052 C   0  0  0  0  0  0  0  0  0  0  0  0
  -22.1179  -19.4562   24.4952 C   0  0  0  0  0  0  0  0  0  0  0  0
  -19.5340  -16.1465   27.9782 C   0  0  0  0  0  0  0  0  0  0  0  0
  -22.5701  -18.8839   23.2977 C   0  0  0  0  0  0  0  0  0  0  0  0
  -22.4449   -8.1301   21.4765 C   0  0  0  0  0  0  0  0  0  0  0  0
  -24.8667  -19.1759   24.0398 C   0  0  0  0  0  0  0  0  0  0  0  0
  -21.0145   -6.9293   22.9028 C   0  0  0  0  0  0  0  0  0  0  0  0
  -19.5368   -6.8129   25.2661 C   0  0  0  0  0  0  0  0  0  0  0  0
  -21.2923   -5.9449   23.8512 C   0  0  0  0  0  0  0  0  0  0  0  0
  -24.6128  -11.6774   20.6922 C   0  0  0  0  0  0  0  0  0  0  0  0
  -25.2282  -13.7756   20.4605 C   0  0  0  0  0  0  0  0  0  0  0  0
  -30.8779  -18.8767   20.2992 C   0  0  0  0  0  0  0  0  0  0  0  0
  -22.8829  -13.4887   21.2764 C   0  0  0  0  0  0  0  0  0  0  0  0
  -19.7973  -17.2841   24.4725 C   0  0  0  0  0  0  0  0  0  0  0  0
  -19.1924  -18.5292   21.5389 C   0  0  0  0  0  0  0  0  0  0  0  0
  -20.3576  -20.2177   18.8117 C   0  0  0  0  0  0  0  0  0  0  0  0
  -30.8254  -14.6113   20.9986 C   0  0  0  0  0  0  0  0  0  0  0  0
  -17.0813  -15.6810   28.4864 C   0  0  0  0  0  0  0  0  0  0  0  0
  -20.6460  -19.6427   24.7421 C   0  0  0  0  0  0  0  0  0  0  0  0
  -21.6141  -18.4076   22.2357 C   0  0  0  0  0  0  0  0  0  0  0  0
  -16.8357  -15.8166   26.9859 C   0  0  0  0  0  0  0  0  0  0  0  0
  -29.5702  -12.5426   18.1975 C   0  0  0  0  0  0  0  0  0  0  0  0
  -17.9889  -15.2026   26.1985 C   0  0  0  0  0  0  0  0  0  0  0  0
  -28.1555  -12.1886   18.6527 C   0  0  0  0  0  0  0  0  0  0  0  0
  -30.5051  -12.7754   19.3805 C   0  0  0  0  0  0  0  0  0  0  0  0
  -28.5948  -13.4368   20.8043 C   0  0  0  0  0  0  0  0  0  0  0  0
  -19.3079  -15.9249   26.4984 C   0  0  1  0  0  0  0  0  0  0  0  0
  -19.7780  -18.6855   23.9310 C   0  0  1  0  0  0  0  0  0  0  0  0
  -27.6162  -13.2414   19.6366 C   0  0  2  0  0  0  0  0  0  0  0  0
  -19.6398  -21.0519   16.5564 C   0  0  0  0  0  0  0  0  0  0  0  0
  -28.0157  -20.9894   20.2272 C   0  0  0  0  0  0  0  0  0  0  0  0
  -31.5515  -16.7722   18.9523 C   0  0  0  0  0  0  0  0  0  0  0  0
  -29.5322  -18.0763   18.3381 C   0  0  0  0  0  0  0  0  0  0  0  0
  -19.3684  -15.6899   20.4354 C   0  0  0  0  0  0  0  0  0  0  0  0
  -19.5972  -16.6698   18.1429 C   0  0  0  0  0  0  0  0  0  0  0  0
  -17.5225  -17.0726   19.4681 C   0  0  0  0  0  0  0  0  0  0  0  0
  -30.8611  -16.5479   22.5243 C   0  0  0  0  0  0  0  0  0  0  0  0
  -20.8905  -23.0325   19.5546 C   0  0  0  0  0  0  0  0  0  0  0  0
  -28.0366  -19.6886   22.3894 C   0  0  0  0  0  0  0  0  0  0  0  0
  -29.5339  -16.7174   20.4518 C   0  0  0  0  0  0  0  0  0  0  0  0
  -26.6415  -19.0724   22.4601 C   0  0  0  0  0  0  0  0  0  1  0  0
  -19.6651  -18.2371   20.1353 C   0  0  1  0  0  0  0  0  0  0  0  0
  -19.7867  -21.3885   18.0322 C   0  0  2  0  0  0  0  0  0  0  0  0
  -28.5929  -19.7692   20.9548 C   0  0  2  0  0  0  0  0  0  0  0  0
  -30.4176  -17.6718   19.5653 C   0  0  0  0  0  0  0  0  0  0  0  0
  -19.0565  -16.9244   19.5661 C   0  0  0  0  0  0  0  0  0  0  0  0
  -25.8733  -11.6101   20.2555 N   0  0  0  0  0  0  0  0  0  0  0  0
  -30.1109  -19.7894   20.9043 N   0  0  0  0  0  0  0  0  0  0  0  0
  -26.2198  -12.9018   20.1239 N   0  0  0  0  0  0  0  0  0  0  0  0
  -32.1525  -19.2413   20.4724 N   0  3  0  0  0  0  0  0  0  0  0  0
  -20.1846  -18.6062   22.5265 N   0  0  0  0  0  0  0  0  0  0  0  0
  -29.9485  -13.7480   20.3214 N   0  0  0  0  0  0  0  0  0  0  0  0
  -25.4081  -15.1115   20.3867 N   0  0  0  0  0  0  0  0  0  0  0  0
  -21.8963  -12.5569   21.6268 N   0  0  0  0  0  0  0  0  0  0  0  0
  -19.3702  -17.1812   25.7827 N   0  0  0  0  0  0  0  0  0  0  0  0
  -19.3630  -19.4268   19.3469 N   0  0  0  0  0  0  0  0  0  0  0  0
  -30.3353  -15.8804   21.3420 N   0  0  0  0  0  0  0  0  0  0  0  0
  -20.6770  -22.5772   18.1568 N   0  3  0  0  0  0  0  0  0  0  0  0
  -22.6204  -14.7137   21.3392 O   0  0  0  0  0  0  0  0  0  0  0  0
  -20.1707  -16.3639   23.7544 O   0  0  0  0  0  0  0  0  0  0  0  0
  -17.9877  -18.6904   21.7500 O   0  0  0  0  0  0  0  0  0  0  0  0
  -21.5652  -20.0220   18.9306 O   0  0  0  0  0  0  0  0  0  0  0  0
  -31.9836  -14.2709   21.2717 O   0  0  0  0  0  0  0  0  0  0  0  0
  -21.7476   -6.9889   21.7295 O   0  0  0  0  0  0  0  0  0  0  0  0
  -26.2016  -19.0339   23.8171 O   0  0  0  0  0  0  0  0  0  1  0  0
  -18.8283   -6.7580   26.4015 F   0  0  0  0  0  0  0  0  0  0  0  0
  -22.2685   -5.0532   23.6332 F   0  0  0  0  0  0  0  0  0  0  0  0
  1  2  1  0  0  0  0
  1  5  2  0  0  0  0
  2  6  2  0  0  0  0
  3  8  2  0  0  0  0
  3 17  1  0  0  0  0
  4  9  1  0  0  0  0
  4 17  2  0  0  0  0
  5 19  1  0  0  0  0
  6 21  1  0  0  0  0
  7 10  2  0  0  0  0
  7 20  1  0  0  0  0
  8 23  1  0  0  0  0
  9 23  2  0  0  0  0
 10 24  1  0  0  0  0
 11 12  2  0  0  0  0
 11 25  1  0  0  0  0
 12 26  1  0  0  0  0
 13 22  1  0  0  0  0
 13 24  2  0  0  0  0
 14 26  2  0  0  0  0
 14 27  1  0  0  0  0
 15 16  2  0  0  0  0
 15 66  1  0  0  0  0
 16 68  1  0  0  0  0
 17 28  1  0  0  0  0
 18 28  1  0  0  0  0
 18 29  2  0  0  0  0
 18 31  1  0  0  0  0
 19 21  2  0  0  0  0
 19 36  1  0  0  0  0
 20 22  2  0  0  0  0
 20 37  1  0  0  0  0
 21 45  1  0  0  0  0
 22 38  1  0  0  0  0
 23 82  1  0  0  0  0
 24 83  1  0  0  0  0
 25 27  2  0  0  0  0
 25 82  1  0  0  0  0
 26 84  1  0  0  0  0
 27 85  1  0  0  0  0
 28 65  2  0  0  0  0
 29 67  1  0  0  0  0
 29 71  1  0  0  0  0
 30 63  1  0  0  0  0
 30 66  1  0  0  0  0
 30 68  2  0  0  0  0
 31 72  1  0  0  0  0
 31 77  2  0  0  0  0
 32 46  1  0  0  0  0
 32 73  1  0  0  0  0
 32 78  2  0  0  0  0
 33 60  1  0  0  0  0
 33 69  1  0  0  0  0
 33 79  2  0  0  0  0
 34 61  1  0  0  0  0
 34 74  1  0  0  0  0
 34 80  2  0  0  0  0
 35 70  1  0  0  0  0
 35 75  1  0  0  0  0
 35 81  2  0  0  0  0
 36 39  1  0  0  0  0
 37 46  1  0  0  0  0
 38 69  1  0  0  0  0
 39 41  1  0  0  0  0
 40 42  1  0  0  0  0
 40 43  1  0  0  0  0
 41 45  1  0  0  0  0
 42 47  1  0  0  0  0
 43 70  1  0  0  0  0
 44 47  1  0  0  0  0
 44 70  1  0  0  0  0
 45 73  1  0  0  0  0
 46 69  1  0  0  0  0
 47 67  1  0  0  0  0
 48 61  1  0  0  0  0
 49 62  1  0  0  0  0
 50 63  1  0  0  0  0
 51 63  1  0  0  0  0
 52 64  1  0  0  0  0
 53 64  1  0  0  0  0
 54 64  1  0  0  0  0
 55 75  1  0  0  0  0
 56 76  1  0  0  0  0
 57 59  1  0  0  0  0
 57 62  1  0  0  0  0
 58 63  1  0  0  0  0
 58 75  1  0  0  0  0
 59 83  1  0  0  0  0
 60 64  1  0  0  0  0
 60 74  1  0  0  0  0
 61 76  1  0  0  0  0
 62 66  1  0  0  0  0
 65 67  1  0  0  0  0
M  CHG  2  68   1  76   1
M  ISO  4  35 100  59 101  75 100  83 101
M  END
> <Batch ID>
0061

> <Smiles>
CNC(C)C(=O)NC(C(=O)N1Cc2cc([101O:1][101CH2:1]CC(C)n3ccnc3C(C)(C)C[100N:0](C)[100C:0](=O)N3CCCC(n4nc(-c5ccc(Oc6ccc(F)cc6F)cc5)c(C(N)=O)c4N)C3)ccc2CC1C(=O)NC1CCCc2ccccc21)C(C)(C)C

> <Shape>
0.199

> <Color>
0.173

> <Negative vol penalty>
0.000

$$$$

  -OEChem-04052317583D

 84 92  0     1  0  0  0  0  0999 V2000
  -16.7094  -16.7573   22.7276 C   0  0  0  0  0  0  0  0  0  0  0  0
  -18.0508  -17.0944   22.5776 C   0  0  0  0  0  0  0  0  0  0  0  0
  -23.2009   -9.8511   19.9530 C   0  0  0  0  0  0  0  0  0  0  0  0
  -23.9122   -9.9305   22.2605 C   0  0  0  0  0  0  0  0  0  0  0  0
  -15.8061  -17.6985   23.2196 C   0  0  0  0  0  0  0  0  0  0  0  0
  -18.4894  -18.3734   22.9186 C   0  0  0  0  0  0  0  0  0  0  0  0
  -22.7970  -18.3046   25.5803 C   0  0  0  0  0  0  0  0  0  0  0  0
  -22.5092   -8.6668   20.2069 C   0  0  0  0  0  0  0  0  0  0  0  0
  -23.2206   -8.7461   22.5145 C   0  0  0  0  0  0  0  0  0  0  0  0
  -23.9797  -18.0956   24.8723 C   0  0  0  0  0  0  0  0  0  0  0  0
  -20.0236   -7.7998   23.0660 C   0  0  0  0  0  0  0  0  0  0  0  0
  -19.2456   -7.7406   24.2222 C   0  0  0  0  0  0  0  0  0  0  0  0
  -24.4207  -20.4667   24.9209 C   0  0  0  0  0  0  0  0  0  0  0  0
  -20.5648   -5.8780   25.0144 C   0  0  0  0  0  0  0  0  0  0  0  0
  -27.8882  -17.9845   21.4916 C   0  0  0  0  0  0  0  0  0  0  0  0
  -23.9024  -10.4830   20.9798 C   0  0  0  0  0  0  0  0  0  0  0  0
  -24.1229  -13.0198   20.8255 C   0  0  0  0  0  0  0  0  0  0  0  0
  -16.2356  -18.9866   23.5759 C   0  0  0  0  0  0  0  0  0  0  0  0
  -22.4111  -19.5996   25.9551 C   0  0  0  0  0  0  0  0  0  0  0  0
  -17.5907  -19.3331   23.4146 C   0  0  0  0  0  0  0  0  0  0  0  0
  -23.2339  -20.6892   25.6358 C   0  0  0  0  0  0  0  0  0  0  0  0
  -22.5191   -8.1143   21.4877 C   0  0  0  0  0  0  0  0  0  0  0  0
  -24.7903  -19.1770   24.5400 C   0  0  0  0  0  0  0  0  0  0  0  0
  -21.0721   -6.8981   22.8839 C   0  0  0  0  0  0  0  0  0  0  0  0
  -19.5162   -6.7797   25.1964 C   0  0  0  0  0  0  0  0  0  0  0  0
  -21.3428   -5.9372   23.8582 C   0  0  0  0  0  0  0  0  0  0  0  0
  -24.6175  -11.7062   20.7180 C   0  0  0  0  0  0  0  0  0  0  0  0
  -27.5777  -17.6140   22.7695 C   0  0  0  0  0  0  0  0  0  0  0  0
  -25.1843  -13.8164   20.4718 C   0  0  0  0  0  0  0  0  0  0  0  0
  -29.7458  -17.2824   22.4699 C   0  0  0  0  0  0  0  0  0  0  0  0
  -22.8203  -13.4788   21.2108 C   0  0  0  0  0  0  0  0  0  0  0  0
  -19.9341  -21.4804   25.2988 C   0  0  0  0  0  0  0  0  0  0  0  0
  -21.3102  -23.4095   27.5141 C   0  0  0  0  0  0  0  0  0  0  0  0
  -24.1364  -24.3566   29.1762 C   0  0  0  0  0  0  0  0  0  0  0  0
  -30.9480  -14.0579   20.9571 C   0  0  0  0  0  0  0  0  0  0  0  0
  -15.2136  -19.9850   24.0589 C   0  0  0  0  0  0  0  0  0  0  0  0
  -21.1458  -19.8054   26.7418 C   0  0  0  0  0  0  0  0  0  0  0  0
  -22.8748  -22.0971   26.0325 C   0  0  0  0  0  0  0  0  0  0  0  0
  -15.8278  -21.1996   24.7500 C   0  0  0  0  0  0  0  0  0  0  0  0
  -29.3568  -13.1269   17.9111 C   0  0  0  0  0  0  0  0  0  0  0  0
  -16.9940  -21.7459   23.9324 C   0  0  0  0  0  0  0  0  0  0  0  0
  -27.9265  -12.7878   18.3344 C   0  0  0  0  0  0  0  0  0  0  0  0
  -30.3742  -12.6994   18.9667 C   0  0  0  0  0  0  0  0  0  0  0  0
  -28.6796  -12.8719   20.7478 C   0  0  0  0  0  0  0  0  0  0  0  0
  -18.1094  -20.7024   23.7968 C   0  0  1  0  0  0  0  0  0  0  0  0
  -20.5929  -21.2224   26.6244 C   0  0  1  0  0  0  0  0  0  0  0  0
  -27.6133  -13.3344   19.7402 C   0  0  2  0  0  0  0  0  0  0  0  0
  -24.9553  -25.9859   30.9001 C   0  0  0  0  0  0  0  0  0  0  0  0
  -28.0733  -15.4178   24.9446 C   0  0  0  0  0  0  0  0  0  0  0  0
  -28.5441  -17.7730   25.7428 C   0  0  0  0  0  0  0  0  0  0  0  0
  -31.8976  -17.7054   23.8438 C   0  0  0  0  0  0  0  0  0  0  0  0
  -32.0210  -17.2260   21.4126 C   0  0  0  0  0  0  0  0  0  0  0  0
  -21.2224  -25.6451   25.4393 C   0  0  0  0  0  0  0  0  0  0  0  0
  -22.8671  -26.9129   26.8378 C   0  0  0  0  0  0  0  0  0  0  0  0
  -20.6185  -26.3521   27.7609 C   0  0  0  0  0  0  0  0  0  0  0  0
  -24.9768  -22.1826   31.0000 C   0  0  0  0  0  0  0  0  0  0  0  0
  -26.2646  -17.6307   23.4953 C   0  0  0  0  0  0  0  0  0  1  0  0
  -31.3707  -15.3943   23.0052 C   0  0  0  0  0  0  0  0  0  0  0  0
  -22.3350  -24.5175   27.4781 C   0  0  1  0  0  0  0  0  0  0  0  0
  -24.4070  -24.5894   30.6516 C   0  0  2  0  0  0  0  0  0  0  0  0
  -28.8822  -16.6952   24.7111 C   0  0  0  0  0  0  0  0  0  0  0  0
  -31.1686  -16.9234   22.6915 C   0  0  0  0  0  0  0  0  0  0  0  0
  -21.7668  -25.8307   26.8698 C   0  0  0  0  0  0  0  0  0  0  0  0
  -25.8939  -11.6663   20.3264 N   0  0  0  0  0  0  0  0  0  0  0  0
  -28.7456  -17.1833   23.3515 N   0  0  0  0  0  0  0  0  0  0  0  0
  -26.2102  -12.9647   20.1847 N   0  0  0  0  0  0  0  0  0  0  0  0
  -29.2361  -17.7690   21.3337 N   0  3  0  0  0  0  0  0  0  0  0  0
  -21.6245  -22.2475   26.7952 N   0  0  0  0  0  0  0  0  0  0  0  0
  -30.0204  -13.2523   20.2763 N   0  0  0  0  0  0  0  0  0  0  0  0
  -25.3309  -15.1554   20.3813 N   0  0  0  0  0  0  0  0  0  0  0  0
  -21.8474  -12.5263   21.5427 N   0  0  0  0  0  0  0  0  0  0  0  0
  -18.8833  -20.6283   25.0175 N   0  0  0  0  0  0  0  0  0  0  0  0
  -22.8329  -24.6574   28.8423 N   0  0  0  0  0  0  0  0  0  0  0  0
  -30.5305  -14.5465   22.1890 N   0  0  0  0  0  0  0  0  0  0  0  0
  -25.3976  -23.5984   31.1593 N   0  3  0  0  0  0  0  0  0  0  0  0
  -22.5231  -14.6971   21.2434 O   0  0  0  0  0  0  0  0  0  0  0  0
  -20.3476  -22.3865   24.5849 O   0  0  0  0  0  0  0  0  0  0  0  0
  -20.2724  -23.5664   28.1621 O   0  0  0  0  0  0  0  0  0  0  0  0
  -24.9965  -23.9521   28.3969 O   0  0  0  0  0  0  0  0  0  0  0  0
  -32.0635  -14.3266   20.4984 O   0  0  0  0  0  0  0  0  0  0  0  0
  -21.8441   -6.9587   21.7359 O   0  0  0  0  0  0  0  0  0  0  0  0
  -25.9449  -18.9759   23.8484 O   0  0  0  0  0  0  0  0  0  1  0  0
  -18.7700   -6.7240   26.3074 F   0  0  0  0  0  0  0  0  0  0  0  0
  -22.3495   -5.0690   23.6894 F   0  0  0  0  0  0  0  0  0  0  0  0
  1  2  1  0  0  0  0
  1  5  2  0  0  0  0
  2  6  2  0  0  0  0
  3  8  2  0  0  0  0
  3 16  1  0  0  0  0
  4  9  1  0  0  0  0
  4 16  2  0  0  0  0
  5 18  1  0  0  0  0
  6 20  1  0  0  0  0
  7 10  2  0  0  0  0
  7 19  1  0  0  0  0
  8 22  1  0  0  0  0
  9 22  2  0  0  0  0
 10 23  1  0  0  0  0
 11 12  2  0  0  0  0
 11 24  1  0  0  0  0
 12 25  1  0  0  0  0
 13 21  1  0  0  0  0
 13 23  2  0  0  0  0
 14 25  2  0  0  0  0
 14 26  1  0  0  0  0
 15 28  2  0  0  0  0
 15 67  1  0  0  0  0
 16 27  1  0  0  0  0
 17 27  1  0  0  0  0
 17 29  2  0  0  0  0
 17 31  1  0  0  0  0
 18 20  2  0  0  0  0
 18 36  1  0  0  0  0
 19 21  2  0  0  0  0
 19 37  1  0  0  0  0
 20 45  1  0  0  0  0
 21 38  1  0  0  0  0
 22 81  1  0  0  0  0
 23 82  1  0  0  0  0
 24 26  2  0  0  0  0
 24 81  1  0  0  0  0
 25 83  1  0  0  0  0
 26 84  1  0  0  0  0
 27 64  2  0  0  0  0
 28 57  1  0  0  0  0
 28 65  1  0  0  0  0
 29 66  1  0  0  0  0
 29 70  1  0  0  0  0
 30 62  1  0  0  0  0
 30 65  1  0  0  0  0
 30 67  2  0  0  0  0
 31 71  1  0  0  0  0
 31 76  2  0  0  0  0
 32 46  1  0  0  0  0
 32 72  1  0  0  0  0
 32 77  2  0  0  0  0
 33 59  1  0  0  0  0
 33 68  1  0  0  0  0
 33 78  2  0  0  0  0
 34 60  1  0  0  0  0
 34 73  1  0  0  0  0
 34 79  2  0  0  0  0
 35 69  1  0  0  0  0
 35 74  1  0  0  0  0
 35 80  2  0  0  0  0
 36 39  1  0  0  0  0
 37 46  1  0  0  0  0
 38 68  1  0  0  0  0
 39 41  1  0  0  0  0
 40 42  1  0  0  0  0
 40 43  1  0  0  0  0
 41 45  1  0  0  0  0
 42 47  1  0  0  0  0
 43 69  1  0  0  0  0
 44 47  1  0  0  0  0
 44 69  1  0  0  0  0
 45 72  1  0  0  0  0
 46 68  1  0  0  0  0
 47 66  1  0  0  0  0
 48 60  1  0  0  0  0
 49 61  1  0  0  0  0
 50 61  1  0  0  0  0
 51 62  1  0  0  0  0
 52 62  1  0  0  0  0
 53 63  1  0  0  0  0
 54 63  1  0  0  0  0
 55 63  1  0  0  0  0
 56 75  1  0  0  0  0
 57 82  1  0  0  0  0
 58 62  1  0  0  0  0
 58 74  1  0  0  0  0
 59 63  1  0  0  0  0
 59 73  1  0  0  0  0
 60 75  1  0  0  0  0
 61 65  1  0  0  0  0
 64 66  1  0  0  0  0
M  CHG  2  67   1  75   1
M  ISO  4  35 100  57 101  74 100  82 101
M  END
> <Batch ID>
0061

> <Smiles>
CNC(C)C(=O)NC(C(=O)N1Cc2cc([101O:1][101CH2:1]c3cnc(C(C)(C)C[100NH:0][100C:0](=O)N4CCCC(n5nc(-c6ccc(Oc7ccc(F)cc7F)cc6)c(C(N)=O)c5N)C4)n3C(C)C)ccc2CC1C(=O)NC1CCCc2ccccc21)C(C)(C)C

> <Shape>
0.179

> <Color>
0.177

> <Negative vol penalty>
0.000

$$$$

  -OEChem-04052317583D

 84 92  0     1  0  0  0  0  0999 V2000
  -18.5540  -22.7343   21.3211 C   0  0  0  0  0  0  0  0  0  0  0  0
  -19.8249  -22.1755   21.2320 C   0  0  0  0  0  0  0  0  0  0  0  0
  -27.1741  -13.7697   22.5144 C   0  0  0  0  0  0  0  0  0  0  0  0
  -26.8626  -13.0943   20.2157 C   0  0  0  0  0  0  0  0  0  0  0  0
  -18.3511  -24.0639   20.9538 C   0  0  0  0  0  0  0  0  0  0  0  0
  -20.8935  -22.9457   20.7744 C   0  0  0  0  0  0  0  0  0  0  0  0
  -27.9507  -23.7921   21.6664 C   0  0  0  0  0  0  0  0  0  0  0  0
  -26.6041  -12.5712   22.9438 C   0  0  0  0  0  0  0  0  0  0  0  0
  -26.2926  -11.8958   20.6451 C   0  0  0  0  0  0  0  0  0  0  0  0
  -29.1307  -23.8497   20.9261 C   0  0  0  0  0  0  0  0  0  0  0  0
  -24.4274   -8.8148   21.1328 C   0  0  0  0  0  0  0  0  0  0  0  0
  -23.2619   -8.3868   20.4972 C   0  0  0  0  0  0  0  0  0  0  0  0
  -28.6771  -26.1586   20.3944 C   0  0  0  0  0  0  0  0  0  0  0  0
  -22.1401  -10.4108   21.1914 C   0  0  0  0  0  0  0  0  0  0  0  0
  -30.0185  -23.7265   16.3175 C   0  0  0  0  0  0  0  0  0  0  0  0
  -27.3033  -14.0313   21.1504 C   0  0  0  0  0  0  0  0  0  0  0  0
  -29.2527  -15.5194   20.4481 C   0  0  0  0  0  0  0  0  0  0  0  0
  -19.4196  -24.8536   20.5006 C   0  0  0  0  0  0  0  0  0  0  0  0
  -27.1182  -24.9160   21.7675 C   0  0  0  0  0  0  0  0  0  0  0  0
  -20.7044  -24.2867   20.3994 C   0  0  0  0  0  0  0  0  0  0  0  0
  -27.4884  -26.1133   21.1387 C   0  0  0  0  0  0  0  0  0  0  0  0
  -26.1634  -11.6343   22.0092 C   0  0  0  0  0  0  0  0  0  0  0  0
  -29.4926  -25.0323   20.2875 C   0  0  0  0  0  0  0  0  0  0  0  0
  -24.4492  -10.0408   21.7978 C   0  0  0  0  0  0  0  0  0  0  0  0
  -22.1183   -9.1848   20.5264 C   0  0  0  0  0  0  0  0  0  0  0  0
  -23.3056  -10.8388   21.8271 C   0  0  0  0  0  0  0  0  0  0  0  0
  -27.8915  -15.2693   20.7062 C   0  0  0  0  0  0  0  0  0  0  0  0
  -30.0542  -22.3834   16.0691 C   0  0  0  0  0  0  0  0  0  0  0  0
  -29.2916  -16.8350   20.0554 C   0  0  0  0  0  0  0  0  0  0  0  0
  -31.9624  -22.9500   17.0377 C   0  0  0  0  0  0  0  0  0  0  0  0
  -30.3809  -14.6410   20.5538 C   0  0  0  0  0  0  0  0  0  0  0  0
  -24.1284  -25.5767   20.9143 C   0  0  0  0  0  0  0  0  0  0  0  0
  -24.6993  -28.3457   22.5046 C   0  0  0  0  0  0  0  0  0  0  0  0
  -26.9803  -30.6069   23.6582 C   0  0  0  0  0  0  0  0  0  0  0  0
  -27.2426  -21.0884   17.0796 C   0  0  0  0  0  0  0  0  0  0  0  0
  -19.1423  -26.2721   20.0700 C   0  0  0  0  0  0  0  0  0  0  0  0
  -25.8622  -24.8452   22.5920 C   0  0  0  0  0  0  0  0  0  0  0  0
  -26.6396  -27.3539   21.2330 C   0  0  0  0  0  0  0  0  0  0  0  0
  -20.3998  -27.1293   19.9504 C   0  0  0  0  0  0  0  0  0  0  0  0
  -25.7406  -20.4325   20.2404 C   0  0  0  0  0  0  0  0  0  0  0  0
  -21.4881  -26.3774   19.1909 C   0  0  0  0  0  0  0  0  0  0  0  0
  -26.2735  -19.0495   20.6187 C   0  0  0  0  0  0  0  0  0  0  0  0
  -25.4848  -20.5476   18.7393 C   0  0  0  0  0  0  0  0  0  0  0  0
  -27.1678  -18.8109   18.2645 C   0  0  0  0  0  0  0  0  0  0  0  0
  -21.8936  -25.0971   19.9312 C   0  0  1  0  0  0  0  0  0  0  0  0
  -24.8314  -25.9002   22.2022 C   0  0  1  0  0  0  0  0  0  0  0  0
  -27.4938  -18.6648   19.7607 C   0  0  2  0  0  0  0  0  0  0  0  0
  -27.1432  -32.7882   24.8882 C   0  0  0  0  0  0  0  0  0  0  0  0
  -31.6895  -26.4097   16.1872 C   0  0  0  0  0  0  0  0  0  0  0  0
  -33.3257  -23.3125   19.1247 C   0  0  0  0  0  0  0  0  0  0  0  0
  -34.3414  -23.7609   16.8656 C   0  0  0  0  0  0  0  0  0  0  0  0
  -33.9625  -21.4271   17.6343 C   0  0  0  0  0  0  0  0  0  0  0  0
  -23.8099  -29.8274   19.9899 C   0  0  0  0  0  0  0  0  0  0  0  0
  -24.8747  -31.8954   20.9159 C   0  0  0  0  0  0  0  0  0  0  0  0
  -22.9820  -30.8176   22.1319 C   0  0  0  0  0  0  0  0  0  0  0  0
  -28.5489  -29.3862   25.8510 C   0  0  0  0  0  0  0  0  0  0  0  0
  -29.0734  -21.4867   15.4522 C   0  0  0  0  0  0  0  0  0  0  0  0
  -30.6679  -25.9884   18.4544 C   0  0  0  0  0  0  0  0  0  1  0  0
  -25.2499  -29.7003   22.1291 C   0  0  1  0  0  0  0  0  0  0  0  0
  -27.1424  -31.2725   25.0128 C   0  0  2  0  0  0  0  0  0  0  0  0
  -31.6116  -25.4443   17.3732 C   0  0  1  0  0  0  0  0  0  0  0  0
  -33.3203  -22.8574   17.6296 C   0  0  0  0  0  0  0  0  0  0  0  0
  -24.2444  -30.5364   21.2881 C   0  0  0  0  0  0  0  0  0  0  0  0
  -27.1215  -16.3402   20.4954 N   0  0  0  0  0  0  0  0  0  0  0  0
  -31.2116  -24.0498   16.9176 N   0  0  0  0  0  0  0  0  0  0  0  0
  -28.0018  -17.2759   20.1008 N   0  0  0  0  0  0  0  0  0  0  0  0
  -31.2683  -21.9291   16.5247 N   0  3  0  0  0  0  0  0  0  0  0  0
  -25.4179  -27.2327   22.0455 N   0  0  0  0  0  0  0  0  0  0  0  0
  -26.6814  -20.1706   17.9828 N   0  0  0  0  0  0  0  0  0  0  0  0
  -30.3030  -17.6461   19.6793 N   0  0  0  0  0  0  0  0  0  0  0  0
  -30.1632  -13.3211   20.9718 N   0  0  0  0  0  0  0  0  0  0  0  0
  -22.7627  -25.4111   21.0449 N   0  0  0  0  0  0  0  0  0  0  0  0
  -25.6579  -30.3354   23.3775 N   0  0  0  0  0  0  0  0  0  0  0  0
  -28.3789  -20.6536   16.4085 N   0  0  0  0  0  0  0  0  0  0  0  0
  -28.4243  -30.8524   25.6463 N   0  3  0  0  0  0  0  0  0  0  0  0
  -31.5497  -15.0201   20.3012 O   0  0  0  0  0  0  0  0  0  0  0  0
  -24.7767  -25.4857   19.8784 O   0  0  0  0  0  0  0  0  0  0  0  0
  -23.6735  -28.2777   23.1863 O   0  0  0  0  0  0  0  0  0  0  0  0
  -27.9313  -30.3564   22.9210 O   0  0  0  0  0  0  0  0  0  0  0  0
  -26.7693  -22.2139   16.8896 O   0  0  0  0  0  0  0  0  0  0  0  0
  -25.6073  -10.4646   22.4278 O   0  0  0  0  0  0  0  0  0  0  0  0
  -30.6434  -25.0911   19.5637 O   0  0  0  0  0  0  0  0  0  1  0  0
  -20.9996   -8.7744   19.9146 F   0  0  0  0  0  0  0  0  0  0  0  0
  -23.3208  -12.0181   22.4633 F   0  0  0  0  0  0  0  0  0  0  0  0
  1  2  1  0  0  0  0
  1  5  2  0  0  0  0
  2  6  2  0  0  0  0
  3  8  2  0  0  0  0
  3 16  1  0  0  0  0
  4  9  1  0  0  0  0
  4 16  2  0  0  0  0
  5 18  1  0  0  0  0
  6 20  1  0  0  0  0
  7 10  2  0  0  0  0
  7 19  1  0  0  0  0
  8 22  1  0  0  0  0
  9 22  2  0  0  0  0
 10 23  1  0  0  0  0
 11 12  2  0  0  0  0
 11 24  1  0  0  0  0
 12 25  1  0  0  0  0
 13 21  1  0  0  0  0
 13 23  2  0  0  0  0
 14 25  2  0  0  0  0
 14 26  1  0  0  0  0
 15 28  2  0  0  0  0
 15 65  1  0  0  0  0
 16 27  1  0  0  0  0
 17 27  1  0  0  0  0
 17 29  2  0  0  0  0
 17 31  1  0  0  0  0
 18 20  2  0  0  0  0
 18 36  1  0  0  0  0
 19 21  2  0  0  0  0
 19 37  1  0  0  0  0
 20 45  1  0  0  0  0
 21 38  1  0  0  0  0
 22 81  1  0  0  0  0
 23 82  1  0  0  0  0
 24 26  2  0  0  0  0
 24 81  1  0  0  0  0
 25 83  1  0  0  0  0
 26 84  1  0  0  0  0
 27 64  2  0  0  0  0
 28 57  1  0  0  0  0
 28 67  1  0  0  0  0
 29 66  1  0  0  0  0
 29 70  1  0  0  0  0
 30 62  1  0  0  0  0
 30 65  1  0  0  0  0
 30 67  2  0  0  0  0
 31 71  1  0  0  0  0
 31 76  2  0  0  0  0
 32 46  1  0  0  0  0
 32 72  1  0  0  0  0
 32 77  2  0  0  0  0
 33 59  1  0  0  0  0
 33 68  1  0  0  0  0
 33 78  2  0  0  0  0
 34 60  1  0  0  0  0
 34 73  1  0  0  0  0
 34 79  2  0  0  0  0
 35 69  1  0  0  0  0
 35 74  1  0  0  0  0
 35 80  2  0  0  0  0
 36 39  1  0  0  0  0
 37 46  1  0  0  0  0
 38 68  1  0  0  0  0
 39 41  1  0  0  0  0
 40 42  1  0  0  0  0
 40 43  1  0  0  0  0
 41 45  1  0  0  0  0
 42 47  1  0  0  0  0
 43 69  1  0  0  0  0
 44 47  1  0  0  0  0
 44 69  1  0  0  0  0
 45 72  1  0  0  0  0
 46 68  1  0  0  0  0
 47 66  1  0  0  0  0
 48 60  1  0  0  0  0
 49 61  1  0  0  0  0
 50 62  1  0  0  0  0
 51 62  1  0  0  0  0
 52 62  1  0  0  0  0
 53 63  1  0  0  0  0
 54 63  1  0  0  0  0
 55 63  1  0  0  0  0
 56 75  1  0  0  0  0
 57 74  1  0  0  0  0
 58 61  1  0  0  0  0
 58 82  1  0  0  0  0
 59 63  1  0  0  0  0
 59 73  1  0  0  0  0
 60 75  1  0  0  0  0
 61 65  1  0  0  0  0
 64 66  1  0  0  0  0
M  CHG  2  67   1  75   1
M  ISO  4  35 100  58 101  74 100  82 101
M  END
> <Batch ID>
0061

> <Smiles>
CNC(C)C(=O)NC(C(=O)N1Cc2cc([101O:1][101CH2:1]C(C)n3cc(C[100NH:0][100C:0](=O)N4CCCC(n5nc(-c6ccc(Oc7ccc(F)cc7F)cc6)c(C(N)=O)c5N)C4)nc3C(C)(C)C)ccc2CC1C(=O)NC1CCCc2ccccc21)C(C)(C)C

> <Shape>
0.231

> <Color>
0.080

> <Negative vol penalty>
0.000

$$$$

  -OEChem-04052317583D

 86 95  0     1  0  0  0  0  0999 V2000
  -16.5176  -27.8360   19.3824 C   0  0  0  0  0  0  0  0  0  0  0  0
  -17.5799  -26.9396   19.4400 C   0  0  0  0  0  0  0  0  0  0  0  0
  -22.9134  -10.1760   19.9347 C   0  0  0  0  0  0  0  0  0  0  0  0
  -24.0790   -9.7230   22.0019 C   0  0  0  0  0  0  0  0  0  0  0  0
  -16.7660  -29.2068   19.3253 C   0  0  0  0  0  0  0  0  0  0  0  0
  -18.8914  -27.4134   19.4395 C   0  0  0  0  0  0  0  0  0  0  0  0
  -23.6785  -25.0010   22.4009 C   0  0  0  0  0  0  0  0  0  0  0  0
  -30.1897  -18.3406   21.1488 C   0  0  0  0  0  0  0  0  0  0  0  0
  -29.4029  -17.9610   23.4013 C   0  0  0  0  0  0  0  0  0  0  0  0
  -30.4853  -19.6642   21.4751 C   0  0  0  0  0  0  0  0  0  0  0  0
  -29.6985  -19.2845   23.7277 C   0  0  0  0  0  0  0  0  0  0  0  0
  -22.1984   -8.9869   20.0773 C   0  0  0  0  0  0  0  0  0  0  0  0
  -23.3639   -8.5339   22.1445 C   0  0  0  0  0  0  0  0  0  0  0  0
  -24.7119  -24.1619   21.9866 C   0  0  0  0  0  0  0  0  0  0  0  0
  -20.2806   -7.5895   23.1552 C   0  0  0  0  0  0  0  0  0  0  0  0
  -19.7493   -7.3013   24.4123 C   0  0  0  0  0  0  0  0  0  0  0  0
  -26.1266  -26.0850   21.6408 C   0  0  0  0  0  0  0  0  0  0  0  0
  -21.0542   -5.2698   24.4982 C   0  0  0  0  0  0  0  0  0  0  0  0
  -23.8538  -10.5441   20.8970 C   0  0  0  0  0  0  0  0  0  0  0  0
  -24.2326  -13.0444   21.2323 C   0  0  0  0  0  0  0  0  0  0  0  0
  -18.0810  -29.6980   19.3338 C   0  0  0  0  0  0  0  0  0  0  0  0
  -23.8581  -26.3915   22.4280 C   0  0  0  0  0  0  0  0  0  0  0  0
  -19.1577  -28.7919   19.3811 C   0  0  0  0  0  0  0  0  0  0  0  0
  -25.0948  -26.9394   22.0583 C   0  0  0  0  0  0  0  0  0  0  0  0
  -29.6484  -17.4890   22.1119 C   0  0  0  0  0  0  0  0  0  0  0  0
  -30.2397  -20.1361   22.7645 C   0  0  0  0  0  0  0  0  0  0  0  0
  -22.4236   -8.1659   21.1822 C   0  0  0  0  0  0  0  0  0  0  0  0
  -25.9353  -24.7040   21.6037 C   0  0  0  0  0  0  0  0  0  0  0  0
  -21.1987   -6.7177   22.5695 C   0  0  0  0  0  0  0  0  0  0  0  0
  -20.1361   -6.1415   25.0838 C   0  0  0  0  0  0  0  0  0  0  0  0
  -21.5855   -5.5580   23.2410 C   0  0  0  0  0  0  0  0  0  0  0  0
  -24.5932  -11.7720   20.7499 C   0  0  0  0  0  0  0  0  0  0  0  0
  -25.2589  -13.8659   20.8346 C   0  0  0  0  0  0  0  0  0  0  0  0
  -27.8217  -23.4191   22.1631 C   0  0  0  0  0  0  0  0  0  1  0  0
  -23.0735  -13.4477   21.9737 C   0  0  0  0  0  0  0  0  0  0  0  0
  -22.5023  -28.8576   20.9501 C   0  0  0  0  0  0  0  0  0  0  0  0
  -24.3775  -30.5882   22.9527 C   0  0  0  0  0  0  0  0  0  0  0  0
  -27.1793  -30.7343   24.8958 C   0  0  0  0  0  0  0  0  0  0  0  0
  -30.8999  -14.5071   20.5432 C   0  0  0  0  0  0  0  0  0  0  0  0
  -18.3008  -31.1860   19.2230 C   0  0  0  0  0  0  0  0  0  0  0  0
  -22.7422  -27.2812   22.9029 C   0  0  0  0  0  0  0  0  0  0  0  0
  -25.3452  -28.4242   22.0889 C   0  0  0  0  0  0  0  0  0  0  0  0
  -19.7127  -31.6233   19.6047 C   0  0  0  0  0  0  0  0  0  0  0  0
  -29.0952  -13.0659   17.6506 C   0  0  0  0  0  0  0  0  0  0  0  0
  -20.7486  -30.7211   18.9416 C   0  0  0  0  0  0  0  0  0  0  0  0
  -27.7622  -12.6439   18.2663 C   0  0  0  0  0  0  0  0  0  0  0  0
  -30.2257  -13.0422   18.6747 C   0  0  0  0  0  0  0  0  0  0  0  0
  -28.6156  -13.4236   20.5122 C   0  0  0  0  0  0  0  0  0  0  0  0
  -20.5938  -29.2683   19.4075 C   0  0  1  0  0  0  0  0  0  0  0  0
  -22.8673  -28.7163   22.4007 C   0  0  1  0  0  0  0  0  0  0  0  0
  -27.4463  -13.4814   19.5177 C   0  0  2  0  0  0  0  0  0  0  0  0
  -31.7827  -22.1876   22.4148 C   0  0  0  0  0  0  0  0  0  0  0  0
  -28.4676  -32.2939   26.3808 C   0  0  0  0  0  0  0  0  0  0  0  0
  -25.4436  -32.0457   20.4932 C   0  0  0  0  0  0  0  0  0  0  0  0
  -27.3458  -32.8740   21.8946 C   0  0  0  0  0  0  0  0  0  0  0  0
  -25.0044  -33.5158   22.4681 C   0  0  0  0  0  0  0  0  0  0  0  0
  -31.5008  -15.4314   22.7487 C   0  0  0  0  0  0  0  0  0  0  0  0
  -26.8374  -28.9664   27.2445 C   0  0  0  0  0  0  0  0  0  0  0  0
  -29.3322  -16.0738   21.7639 C   0  0  0  0  0  0  0  0  0  0  0  0
  -30.5637  -21.5781   23.1198 C   0  0  1  0  0  0  0  0  0  0  0  0
  -25.7788  -31.1463   22.8900 C   0  0  1  0  0  0  0  0  0  0  0  0
  -27.3944  -31.2182   26.3185 C   0  0  2  0  0  0  0  0  0  0  0  0
  -25.8881  -32.3675   21.9339 C   0  0  0  0  0  0  0  0  0  0  0  0
  -25.7576  -11.7796   20.0956 N   0  0  0  0  0  0  0  0  0  0  0  0
  -27.7985  -23.6803   23.5009 N   0  0  0  0  0  0  0  0  0  0  0  0
  -28.8188  -22.6167   21.7818 N   0  0  0  0  0  0  0  0  0  0  0  0
  -28.8260  -23.0198   24.0204 N   0  0  0  0  0  0  0  0  0  0  0  0
  -26.1375  -13.0668   20.1640 N   0  0  0  0  0  0  0  0  0  0  0  0
  -29.3971  -22.4088   22.9731 N   0  0  0  0  0  0  0  0  0  0  0  0
  -24.2210  -29.2530   22.5547 N   0  0  0  0  0  0  0  0  0  0  0  0
  -29.8819  -13.8101   19.8720 N   0  0  0  0  0  0  0  0  0  0  0  0
  -25.4865  -15.1867   20.9965 N   0  0  0  0  0  0  0  0  0  0  0  0
  -22.1172  -12.4762   22.2992 N   0  0  0  0  0  0  0  0  0  0  0  0
  -21.1598  -29.0981   20.7285 N   0  0  0  0  0  0  0  0  0  0  0  0
  -26.1676  -31.4291   24.2674 N   0  0  0  0  0  0  0  0  0  0  0  0
  -30.5300  -15.2411   21.6804 N   0  0  0  0  0  0  0  0  0  0  0  0
  -27.8122  -30.0862   27.1931 N   0  3  0  0  0  0  0  0  0  0  0  0
  -22.8833  -14.6375   22.3226 O   0  0  0  0  0  0  0  0  0  0  0  0
  -23.3745  -28.7573   20.0951 O   0  0  0  0  0  0  0  0  0  0  0  0
  -23.4570  -31.3082   23.3474 O   0  0  0  0  0  0  0  0  0  0  0  0
  -27.8449  -29.8327   24.3911 O   0  0  0  0  0  0  0  0  0  0  0  0
  -32.0709  -14.4829   20.1430 O   0  0  0  0  0  0  0  0  0  0  0  0
  -21.7259   -7.0056   21.3218 O   0  0  0  0  0  0  0  0  0  0  0  0
  -26.9455  -23.8873   21.1983 O   0  0  0  0  0  0  0  0  0  1  0  0
  -19.6270   -5.8657   26.2916 F   0  0  0  0  0  0  0  0  0  0  0  0
  -22.4680   -4.7173   22.6840 F   0  0  0  0  0  0  0  0  0  0  0  0
  1  2  1  0  0  0  0
  1  5  2  0  0  0  0
  2  6  2  0  0  0  0
  3 12  2  0  0  0  0
  3 19  1  0  0  0  0
  4 13  1  0  0  0  0
  4 19  2  0  0  0  0
  5 21  1  0  0  0  0
  6 23  1  0  0  0  0
  7 14  2  0  0  0  0
  7 22  1  0  0  0  0
  8 10  2  0  0  0  0
  8 25  1  0  0  0  0
  9 11  1  0  0  0  0
  9 25  2  0  0  0  0
 10 26  1  0  0  0  0
 11 26  2  0  0  0  0
 12 27  1  0  0  0  0
 13 27  2  0  0  0  0
 14 28  1  0  0  0  0
 15 16  2  0  0  0  0
 15 29  1  0  0  0  0
 16 30  1  0  0  0  0
 17 24  1  0  0  0  0
 17 28  2  0  0  0  0
 18 30  2  0  0  0  0
 18 31  1  0  0  0  0
 19 32  1  0  0  0  0
 20 32  1  0  0  0  0
 20 33  2  0  0  0  0
 20 35  1  0  0  0  0
 21 23  2  0  0  0  0
 21 40  1  0  0  0  0
 22 24  2  0  0  0  0
 22 41  1  0  0  0  0
 23 49  1  0  0  0  0
 24 42  1  0  0  0  0
 25 59  1  0  0  0  0
 26 60  1  0  0  0  0
 27 83  1  0  0  0  0
 28 84  1  0  0  0  0
 29 31  2  0  0  0  0
 29 83  1  0  0  0  0
 30 85  1  0  0  0  0
 31 86  1  0  0  0  0
 32 64  2  0  0  0  0
 33 68  1  0  0  0  0
 33 72  1  0  0  0  0
 34 65  1  0  0  0  0
 34 66  2  0  0  0  0
 34 84  1  0  0  0  0
 35 73  1  0  0  0  0
 35 78  2  0  0  0  0
 36 50  1  0  0  0  0
 36 74  1  0  0  0  0
 36 79  2  0  0  0  0
 37 61  1  0  0  0  0
 37 70  1  0  0  0  0
 37 80  2  0  0  0  0
 38 62  1  0  0  0  0
 38 75  1  0  0  0  0
 38 81  2  0  0  0  0
 39 71  1  0  0  0  0
 39 76  1  0  0  0  0
 39 82  2  0  0  0  0
 40 43  1  0  0  0  0
 41 50  1  0  0  0  0
 42 70  1  0  0  0  0
 43 45  1  0  0  0  0
 44 46  1  0  0  0  0
 44 47  1  0  0  0  0
 45 49  1  0  0  0  0
 46 51  1  0  0  0  0
 47 71  1  0  0  0  0
 48 51  1  0  0  0  0
 48 71  1  0  0  0  0
 49 74  1  0  0  0  0
 50 70  1  0  0  0  0
 51 68  1  0  0  0  0
 52 60  1  0  0  0  0
 53 62  1  0  0  0  0
 54 63  1  0  0  0  0
 55 63  1  0  0  0  0
 56 63  1  0  0  0  0
 57 76  1  0  0  0  0
 58 77  1  0  0  0  0
 59 76  1  0  0  0  0
 60 69  1  0  0  0  0
 61 63  1  0  0  0  0
 61 75  1  0  0  0  0
 62 77  1  0  0  0  0
 64 68  1  0  0  0  0
 65 67  2  0  0  0  0
 66 69  1  0  0  0  0
 67 69  1  0  0  0  0
M  CHG  1  77   1
M  ISO  4  34 101  39 100  76 100  84 101
M  END
> <Batch ID>
0061

> <Smiles>
CNC(C)C(=O)NC(C(=O)N1Cc2cc([101O:1][101c:1]3nnn(C(C)c4ccc(C[100N:0](C)[100C:0](=O)N5CCCC(n6nc(-c7ccc(Oc8ccc(F)cc8F)cc7)c(C(N)=O)c6N)C5)cc4)n3)ccc2CC1C(=O)NC1CCCc2ccccc21)C(C)(C)C

> <Shape>
0.300

> <Color>
0.162

> <Negative vol penalty>
0.000

$$$$

  -OEChem-04052317583D

 84 92  0     1  0  0  0  0  0999 V2000
  -18.2045  -25.3862   23.0380 C   0  0  0  0  0  0  0  0  0  0  0  0
  -19.5527  -25.0443   23.0090 C   0  0  0  0  0  0  0  0  0  0  0  0
  -25.8623  -13.8753   22.5844 C   0  0  0  0  0  0  0  0  0  0  0  0
  -25.7469  -13.2878   20.2437 C   0  0  0  0  0  0  0  0  0  0  0  0
  -17.7950  -26.6411   22.5894 C   0  0  0  0  0  0  0  0  0  0  0  0
  -20.4921  -25.9569   22.5303 C   0  0  0  0  0  0  0  0  0  0  0  0
  -26.2313  -26.7213   24.5261 C   0  0  0  0  0  0  0  0  0  0  0  0
  -24.7764  -13.0403   22.8475 C   0  0  0  0  0  0  0  0  0  0  0  0
  -24.6610  -12.4528   20.5068 C   0  0  0  0  0  0  0  0  0  0  0  0
  -27.4585  -26.2593   24.0524 C   0  0  0  0  0  0  0  0  0  0  0  0
  -24.1476   -9.3600   21.7684 C   0  0  0  0  0  0  0  0  0  0  0  0
  -24.1499   -8.0931   21.1849 C   0  0  0  0  0  0  0  0  0  0  0  0
  -27.7825  -28.3418   22.8788 C   0  0  0  0  0  0  0  0  0  0  0  0
  -22.0907   -8.6187   20.0357 C   0  0  0  0  0  0  0  0  0  0  0  0
  -26.3475  -13.9991   21.2824 C   0  0  0  0  0  0  0  0  0  0  0  0
  -28.8330  -14.5149   21.0295 C   0  0  0  0  0  0  0  0  0  0  0  0
  -18.7309  -27.5731   22.1140 C   0  0  0  0  0  0  0  0  0  0  0  0
  -25.7647  -27.9949   24.1703 C   0  0  0  0  0  0  0  0  0  0  0  0
  -20.0945  -27.2250   22.0737 C   0  0  0  0  0  0  0  0  0  0  0  0
  -26.5503  -28.8186   23.3514 C   0  0  0  0  0  0  0  0  0  0  0  0
  -24.1758  -12.3291   21.8088 C   0  0  0  0  0  0  0  0  0  0  0  0
  -28.2330  -27.0685   23.2263 C   0  0  0  0  0  0  0  0  0  0  0  0
  -23.1168  -10.2563   21.4857 C   0  0  0  0  0  0  0  0  0  0  0  0
  -23.1215   -7.7225   20.3185 C   0  0  0  0  0  0  0  0  0  0  0  0
  -22.0884   -9.8856   20.6193 C   0  0  0  0  0  0  0  0  0  0  0  0
  -27.4688  -14.8619   21.0099 C   0  0  0  0  0  0  0  0  0  0  0  0
  -29.4878  -15.6777   20.7045 C   0  0  0  0  0  0  0  0  0  0  0  0
  -28.8728  -25.0418   19.5434 C   0  0  0  0  0  0  0  0  0  0  0  0
  -27.5620  -23.7289   18.5867 C   0  0  0  0  0  0  0  0  0  0  0  0
  -29.4529  -13.2541   21.3158 C   0  0  0  0  0  0  0  0  0  0  0  0
  -23.2389  -29.0967   22.5860 C   0  0  0  0  0  0  0  0  0  0  0  0
  -24.4021  -31.9788   23.5150 C   0  0  0  0  0  0  0  0  0  0  0  0
  -27.0878  -33.8358   24.5075 C   0  0  0  0  0  0  0  0  0  0  0  0
  -28.0240  -20.3548   17.6079 C   0  0  0  0  0  0  0  0  0  0  0  0
  -18.2352  -28.8998   21.5955 C   0  0  0  0  0  0  0  0  0  0  0  0
  -24.4511  -28.4889   24.7114 C   0  0  0  0  0  0  0  0  0  0  0  0
  -26.1039  -30.2018   22.9567 C   0  0  0  0  0  0  0  0  0  0  0  0
  -19.3359  -29.9479   21.4532 C   0  0  0  0  0  0  0  0  0  0  0  0
  -29.0656  -20.4270   20.9816 C   0  0  0  0  0  0  0  0  0  0  0  0
  -20.5570  -29.3493   20.7624 C   0  0  0  0  0  0  0  0  0  0  0  0
  -28.8980  -18.9618   21.3815 C   0  0  0  0  0  0  0  0  0  0  0  0
  -27.9267  -20.9111   20.0823 C   0  0  0  0  0  0  0  0  0  0  0  0
  -27.5400  -18.6001   19.2870 C   0  0  0  0  0  0  0  0  0  0  0  0
  -21.1464  -28.1969   21.5847 C   0  0  1  0  0  0  0  0  0  0  0  0
  -23.8382  -29.6024   23.8677 C   0  0  1  0  0  0  0  0  0  0  0  0
  -28.7025  -18.0720   20.1416 C   0  0  2  0  0  0  0  0  0  0  0  0
  -27.7355  -36.1710   25.1591 C   0  0  0  0  0  0  0  0  0  0  0  0
  -27.6288  -23.2956   15.4045 C   0  0  0  0  0  0  0  0  0  0  0  0
  -29.9005  -22.6403   16.2607 C   0  0  0  0  0  0  0  0  0  0  0  0
  -24.3176  -32.8178   20.5826 C   0  0  0  0  0  0  0  0  0  0  0  0
  -25.8235  -34.7330   21.1594 C   0  0  0  0  0  0  0  0  0  0  0  0
  -23.5585  -34.5746   22.1926 C   0  0  0  0  0  0  0  0  0  0  0  0
  -25.4952  -25.1541   18.8325 C   0  0  0  0  0  0  0  0  0  0  0  0
  -27.9334  -32.9718   27.2089 C   0  0  0  0  0  0  0  0  0  0  0  0
  -30.1495  -25.6054   20.1143 C   0  0  0  0  0  0  0  0  0  0  0  0
  -26.9131  -22.6129   17.8754 C   0  0  0  0  0  0  0  0  0  0  0  0
  -30.5646  -24.9679   21.4420 C   0  0  0  0  0  0  0  0  0  0  0  0
  -29.5662  -25.2126   22.5675 C   0  0  0  0  0  0  0  0  0  1  0  0
  -25.3732  -32.9776   22.9334 C   0  0  1  0  0  0  0  0  0  0  0  0
  -27.2685  -34.8118   25.6561 C   0  0  2  0  0  0  0  0  0  0  0  0
  -28.4701  -22.1798   16.0115 C   0  0  0  0  0  0  0  0  0  0  0  0
  -24.7760  -33.7490   21.7227 C   0  0  0  0  0  0  0  0  0  0  0  0
  -27.2676  -16.1448   20.6973 N   0  0  0  0  0  0  0  0  0  0  0  0
  -28.8271  -23.8259   18.9236 N   0  0  0  0  0  0  0  0  0  0  0  0
  -27.7155  -25.7032   19.6111 N   0  0  0  0  0  0  0  0  0  0  0  0
  -28.5140  -16.6141   20.5176 N   0  0  0  0  0  0  0  0  0  0  0  0
  -26.8938  -24.8419   18.9922 N   0  0  0  0  0  0  0  0  0  0  0  0
  -24.8092  -30.6372   23.5060 N   0  0  0  0  0  0  0  0  0  0  0  0
  -27.7432  -20.0083   18.9377 N   0  0  0  0  0  0  0  0  0  0  0  0
  -30.7959  -15.9802   20.5633 N   0  0  0  0  0  0  0  0  0  0  0  0
  -28.6323  -12.1625   21.6311 N   0  0  0  0  0  0  0  0  0  0  0  0
  -21.9164  -28.7118   22.6967 N   0  0  0  0  0  0  0  0  0  0  0  0
  -25.7909  -33.8325   24.0393 N   0  0  0  0  0  0  0  0  0  0  0  0
  -27.8694  -21.7022   17.2490 N   0  0  0  0  0  0  0  0  0  0  0  0
  -28.2770  -34.2930   26.6229 N   0  3  0  0  0  0  0  0  0  0  0  0
  -30.6982  -13.1042   21.3089 O   0  0  0  0  0  0  0  0  0  0  0  0
  -23.9251  -29.0600   21.5714 O   0  0  0  0  0  0  0  0  0  0  0  0
  -23.3251  -32.3753   23.9673 O   0  0  0  0  0  0  0  0  0  0  0  0
  -28.0063  -33.1481   24.0671 O   0  0  0  0  0  0  0  0  0  0  0  0
  -28.3856  -19.5059   16.7828 O   0  0  0  0  0  0  0  0  0  0  0  0
  -23.1163  -11.5140   22.0652 O   0  0  0  0  0  0  0  0  0  0  0  0
  -29.4309  -26.6198   22.7620 O   0  0  0  0  0  0  0  0  0  1  0  0
  -23.1246   -6.5064   19.7570 F   0  0  0  0  0  0  0  0  0  0  0  0
  -21.0960  -10.7428   20.3429 F   0  0  0  0  0  0  0  0  0  0  0  0
  1  2  1  0  0  0  0
  1  5  2  0  0  0  0
  2  6  2  0  0  0  0
  3  8  2  0  0  0  0
  3 15  1  0  0  0  0
  4  9  1  0  0  0  0
  4 15  2  0  0  0  0
  5 17  1  0  0  0  0
  6 19  1  0  0  0  0
  7 10  2  0  0  0  0
  7 18  1  0  0  0  0
  8 21  1  0  0  0  0
  9 21  2  0  0  0  0
 10 22  1  0  0  0  0
 11 12  2  0  0  0  0
 11 23  1  0  0  0  0
 12 24  1  0  0  0  0
 13 20  1  0  0  0  0
 13 22  2  0  0  0  0
 14 24  2  0  0  0  0
 14 25  1  0  0  0  0
 15 26  1  0  0  0  0
 16 26  1  0  0  0  0
 16 27  2  0  0  0  0
 16 30  1  0  0  0  0
 17 19  2  0  0  0  0
 17 35  1  0  0  0  0
 18 20  2  0  0  0  0
 18 36  1  0  0  0  0
 19 44  1  0  0  0  0
 20 37  1  0  0  0  0
 21 81  1  0  0  0  0
 22 82  1  0  0  0  0
 23 25  2  0  0  0  0
 23 81  1  0  0  0  0
 24 83  1  0  0  0  0
 25 84  1  0  0  0  0
 26 63  2  0  0  0  0
 27 66  1  0  0  0  0
 27 70  1  0  0  0  0
 28 55  1  0  0  0  0
 28 64  1  0  0  0  0
 28 65  2  0  0  0  0
 29 56  1  0  0  0  0
 29 64  2  0  0  0  0
 29 67  1  0  0  0  0
 30 71  1  0  0  0  0
 30 76  2  0  0  0  0
 31 45  1  0  0  0  0
 31 72  1  0  0  0  0
 31 77  2  0  0  0  0
 32 59  1  0  0  0  0
 32 68  1  0  0  0  0
 32 78  2  0  0  0  0
 33 60  1  0  0  0  0
 33 73  1  0  0  0  0
 33 79  2  0  0  0  0
 34 69  1  0  0  0  0
 34 74  1  0  0  0  0
 34 80  2  0  0  0  0
 35 38  1  0  0  0  0
 36 45  1  0  0  0  0
 37 68  1  0  0  0  0
 38 40  1  0  0  0  0
 39 41  1  0  0  0  0
 39 42  1  0  0  0  0
 40 44  1  0  0  0  0
 41 46  1  0  0  0  0
 42 69  1  0  0  0  0
 43 46  1  0  0  0  0
 43 69  1  0  0  0  0
 44 72  1  0  0  0  0
 45 68  1  0  0  0  0
 46 66  1  0  0  0  0
 47 60  1  0  0  0  0
 48 61  1  0  0  0  0
 49 61  1  0  0  0  0
 50 62  1  0  0  0  0
 51 62  1  0  0  0  0
 52 62  1  0  0  0  0
 53 67  1  0  0  0  0
 54 75  1  0  0  0  0
 55 57  1  0  0  0  0
 56 74  1  0  0  0  0
 57 58  1  0  0  0  0
 58 82  1  0  0  0  0
 59 62  1  0  0  0  0
 59 73  1  0  0  0  0
 60 75  1  0  0  0  0
 61 74  1  0  0  0  0
 63 66  1  0  0  0  0
 65 67  1  0  0  0  0
M  CHG  1  75   1
M  ISO  4  34 100  58 101  74 100  82 101
M  END
> <Batch ID>
0061

> <Smiles>
CNC(C)C(=O)NC(C(=O)N1Cc2cc([101O:1][101CH2:1]CCc3nc(C[100N:0](C(C)C)[100C:0](=O)N4CCCC(n5nc(-c6ccc(Oc7ccc(F)cc7F)cc6)c(C(N)=O)c5N)C4)n(C)n3)ccc2CC1C(=O)NC1CCCc2ccccc21)C(C)(C)C

> <Shape>
0.293

> <Color>
0.089

> <Negative vol penalty>
0.000

$$$$

  -OEChem-04052317583D

 79 87  0     1  0  0  0  0  0999 V2000
  -16.5093  -29.3482   24.0718 C   0  0  0  0  0  0  0  0  0  0  0  0
  -17.1225  -28.1188   23.8532 C   0  0  0  0  0  0  0  0  0  0  0  0
  -25.3896  -14.6638   19.7122 C   0  0  0  0  0  0  0  0  0  0  0  0
  -26.1467  -13.5628   21.7251 C   0  0  0  0  0  0  0  0  0  0  0  0
  -17.0775  -30.5113   23.5537 C   0  0  0  0  0  0  0  0  0  0  0  0
  -18.3038  -28.0515   23.1153 C   0  0  0  0  0  0  0  0  0  0  0  0
  -24.4080  -24.3282   22.6772 C   0  0  0  0  0  0  0  0  0  0  0  0
  -24.8447  -13.4621   19.2598 C   0  0  0  0  0  0  0  0  0  0  0  0
  -25.6017  -12.3611   21.2727 C   0  0  0  0  0  0  0  0  0  0  0  0
  -25.1803  -23.6313   21.7489 C   0  0  0  0  0  0  0  0  0  0  0  0
  -22.5492  -10.9216   21.0985 C   0  0  0  0  0  0  0  0  0  0  0  0
  -21.8133  -10.1624   22.0082 C   0  0  0  0  0  0  0  0  0  0  0  0
  -26.1133  -25.7150   20.9698 C   0  0  0  0  0  0  0  0  0  0  0  0
  -23.3568   -8.3256   21.7240 C   0  0  0  0  0  0  0  0  0  0  0  0
  -28.1290  -23.2790   16.8326 C   0  0  0  0  0  0  0  0  0  0  0  0
  -26.0406  -14.7142   20.9448 C   0  0  0  0  0  0  0  0  0  0  0  0
  -25.9656  -16.9388   22.1909 C   0  0  0  0  0  0  0  0  0  0  0  0
  -18.2716  -30.4593   22.8174 C   0  0  0  0  0  0  0  0  0  0  0  0
  -24.4746  -25.7270   22.7514 C   0  0  0  0  0  0  0  0  0  0  0  0
  -18.8878  -29.2147   22.5858 C   0  0  0  0  0  0  0  0  0  0  0  0
  -25.3428  -26.4271   21.9016 C   0  0  0  0  0  0  0  0  0  0  0  0
  -24.9507  -12.3108   20.0401 C   0  0  0  0  0  0  0  0  0  0  0  0
  -26.0309  -24.3249   20.8931 C   0  0  0  0  0  0  0  0  0  0  0  0
  -23.6889  -10.3828   20.5015 C   0  0  0  0  0  0  0  0  0  0  0  0
  -22.2171   -8.8644   22.3210 C   0  0  0  0  0  0  0  0  0  0  0  0
  -24.0927   -9.0848   20.8142 C   0  0  0  0  0  0  0  0  0  0  0  0
  -26.6042  -15.9551   21.4124 C   0  0  0  0  0  0  0  0  0  0  0  0
  -28.3561  -23.5026   18.1978 C   0  0  0  0  0  0  0  0  0  0  0  0
  -26.9195  -17.9115   22.3652 C   0  0  0  0  0  0  0  0  0  0  0  0
  -24.6296  -16.9705   22.7102 C   0  0  0  0  0  0  0  0  0  0  0  0
  -22.4001  -28.0972   22.3250 C   0  0  0  0  0  0  0  0  0  0  0  0
  -24.8661  -29.9240   23.3757 C   0  0  0  0  0  0  0  0  0  0  0  0
  -28.2347  -30.2842   23.7877 C   0  0  0  0  0  0  0  0  0  0  0  0
  -31.5401  -19.7332   19.3937 C   0  0  0  0  0  0  0  0  0  0  0  0
  -18.8228  -31.7377   22.2372 C   0  0  0  0  0  0  0  0  0  0  0  0
  -23.6550  -26.4619   23.7764 C   0  0  0  0  0  0  0  0  0  0  0  0
  -25.4661  -27.9272   21.9550 C   0  0  0  0  0  0  0  0  0  0  0  0
  -20.2762  -31.6241   21.7845 C   0  0  0  0  0  0  0  0  0  0  0  0
  -31.6590  -18.5393   22.5946 C   0  0  0  0  0  0  0  0  0  0  0  0
  -20.4841  -30.3506   20.9710 C   0  0  0  0  0  0  0  0  0  0  0  0
  -30.3097  -17.8377   22.7583 C   0  0  0  0  0  0  0  0  0  0  0  0
  -32.2706  -18.2407   21.2294 C   0  0  0  0  0  0  0  0  0  0  0  0
  -30.0415  -17.8773   20.2323 C   0  0  0  0  0  0  0  0  0  0  0  0
  -20.1833  -29.1038   21.8115 C   0  0  1  0  0  0  0  0  0  0  0  0
  -23.4193  -27.9253   23.4155 C   0  0  1  0  0  0  0  0  0  0  0  0
  -29.3674  -18.1714   21.5874 C   0  0  1  0  0  0  0  0  0  0  0  0
  -29.9530  -31.9017   24.6413 C   0  0  0  0  0  0  0  0  0  0  0  0
  -24.5247  -31.6122   20.8570 C   0  0  0  0  0  0  0  0  0  0  0  0
  -26.7963  -32.5764   21.2795 C   0  0  0  0  0  0  0  0  0  0  0  0
  -24.9674  -32.9237   22.9399 C   0  0  0  0  0  0  0  0  0  0  0  0
  -29.4585  -19.1351   18.0878 C   0  0  0  0  0  0  0  0  0  0  0  0
  -29.1817  -28.3742   25.8404 C   0  0  0  0  0  0  0  0  0  0  0  0
  -27.6351  -24.4211   19.1400 C   0  0  0  0  0  0  0  0  0  1  0  0
  -30.8367  -21.1143   17.4569 C   0  0  0  0  0  0  0  0  0  0  0  0
  -26.0236  -30.6372   22.7195 C   0  0  1  0  0  0  0  0  0  0  0  0
  -29.0625  -30.7175   24.9841 C   0  0  2  0  0  0  0  0  0  0  0  0
  -25.5745  -31.9092   21.9464 C   0  0  0  0  0  0  0  0  0  0  0  0
  -29.0006  -22.3784   16.3698 N   0  0  0  0  0  0  0  0  0  0  0  0
  -27.8662  -16.2737   21.1126 N   0  0  0  0  0  0  0  0  0  0  0  0
  -29.3736  -22.7454   18.6176 N   0  0  0  0  0  0  0  0  0  0  0  0
  -28.0282  -17.4687   21.7058 N   0  0  0  0  0  0  0  0  0  0  0  0
  -29.7031  -22.1093   17.4821 N   0  0  0  0  0  0  0  0  0  0  0  0
  -24.6395  -28.6012   22.9699 N   0  0  0  0  0  0  0  0  0  0  0  0
  -31.3363  -18.5700   20.1534 N   0  0  0  0  0  0  0  0  0  0  0  0
  -26.9097  -19.0939   23.0165 N   0  0  0  0  0  0  0  0  0  0  0  0
  -23.7807  -15.8892   22.4372 N   0  0  0  0  0  0  0  0  0  0  0  0
  -21.2851  -28.8192   22.7057 N   0  0  0  0  0  0  0  0  0  0  0  0
  -26.9973  -30.8925   23.7756 N   0  0  0  0  0  0  0  0  0  0  0  0
  -30.6024  -20.0008   18.3828 N   0  0  0  0  0  0  0  0  0  0  0  0
  -29.9286  -29.5969   25.4479 N   0  3  0  0  0  0  0  0  0  0  0  0
  -24.1960  -17.9369   23.3823 O   0  0  0  0  0  0  0  0  0  0  0  0
  -22.6104  -27.6121   21.2195 O   0  0  0  0  0  0  0  0  0  0  0  0
  -24.1924  -30.5163   24.2224 O   0  0  0  0  0  0  0  0  0  0  0  0
  -28.6461  -29.4888   22.9459 O   0  0  0  0  0  0  0  0  0  0  0  0
  -32.4944  -20.4891   19.6133 O   0  0  0  0  0  0  0  0  0  0  0  0
  -24.4189  -11.1381   19.5991 O   0  0  0  0  0  0  0  0  0  0  0  0
  -26.7853  -23.6471   19.9856 O   0  0  0  0  0  0  0  0  0  1  0  0
  -21.5111   -8.1361   23.1958 F   0  0  0  0  0  0  0  0  0  0  0  0
  -25.1874   -8.5622   20.2448 F   0  0  0  0  0  0  0  0  0  0  0  0
  1  2  1  0  0  0  0
  1  5  2  0  0  0  0
  2  6  2  0  0  0  0
  3  8  2  0  0  0  0
  3 16  1  0  0  0  0
  4  9  1  0  0  0  0
  4 16  2  0  0  0  0
  5 18  1  0  0  0  0
  6 20  1  0  0  0  0
  7 10  2  0  0  0  0
  7 19  1  0  0  0  0
  8 22  1  0  0  0  0
  9 22  2  0  0  0  0
 10 23  1  0  0  0  0
 11 12  2  0  0  0  0
 11 24  1  0  0  0  0
 12 25  1  0  0  0  0
 13 21  1  0  0  0  0
 13 23  2  0  0  0  0
 14 25  2  0  0  0  0
 14 26  1  0  0  0  0
 15 28  1  0  0  0  0
 15 58  2  0  0  0  0
 16 27  1  0  0  0  0
 17 27  1  0  0  0  0
 17 29  2  0  0  0  0
 17 30  1  0  0  0  0
 18 20  2  0  0  0  0
 18 35  1  0  0  0  0
 19 21  2  0  0  0  0
 19 36  1  0  0  0  0
 20 44  1  0  0  0  0
 21 37  1  0  0  0  0
 22 76  1  0  0  0  0
 23 77  1  0  0  0  0
 24 26  2  0  0  0  0
 24 76  1  0  0  0  0
 25 78  1  0  0  0  0
 26 79  1  0  0  0  0
 27 59  2  0  0  0  0
 28 53  1  0  0  0  0
 28 60  2  0  0  0  0
 29 61  1  0  0  0  0
 29 65  1  0  0  0  0
 30 66  1  0  0  0  0
 30 71  2  0  0  0  0
 31 45  1  0  0  0  0
 31 67  1  0  0  0  0
 31 72  2  0  0  0  0
 32 55  1  0  0  0  0
 32 63  1  0  0  0  0
 32 73  2  0  0  0  0
 33 56  1  0  0  0  0
 33 68  1  0  0  0  0
 33 74  2  0  0  0  0
 34 64  1  0  0  0  0
 34 69  1  0  0  0  0
 34 75  2  0  0  0  0
 35 38  1  0  0  0  0
 36 45  1  0  0  0  0
 37 63  1  0  0  0  0
 38 40  1  0  0  0  0
 39 41  1  0  0  0  0
 39 42  1  0  0  0  0
 40 44  1  0  0  0  0
 41 46  1  0  0  0  0
 42 64  1  0  0  0  0
 43 46  1  0  0  0  0
 43 64  1  0  0  0  0
 44 67  1  0  0  0  0
 45 63  1  0  0  0  0
 46 61  1  0  0  0  0
 47 56  1  0  0  0  0
 48 57  1  0  0  0  0
 49 57  1  0  0  0  0
 50 57  1  0  0  0  0
 51 69  1  0  0  0  0
 52 70  1  0  0  0  0
 53 77  1  0  0  0  0
 54 62  1  0  0  0  0
 54 69  1  0  0  0  0
 55 57  1  0  0  0  0
 55 68  1  0  0  0  0
 56 70  1  0  0  0  0
 58 62  1  0  0  0  0
 59 61  1  0  0  0  0
 60 62  1  0  0  0  0
M  CHG  1  70   1
M  ISO  4  34 100  53 101  69 100  77 101
M  END
> <Batch ID>
0061

> <Smiles>
CNC(C)C(=O)NC(C(=O)N1Cc2cc([101O:1][101CH2:1]c3cnn(C[100N:0](C)[100C:0](=O)N4CCCC(n5nc(-c6ccc(Oc7ccc(F)cc7F)cc6)c(C(N)=O)c5N)C4)n3)ccc2CC1C(=O)NC1CCCc2ccccc21)C(C)(C)C

> <Shape>
0.222

> <Color>
0.072

> <Negative vol penalty>
0.000

$$$$

  -OEChem-04052317583D

 83 91  0     1  0  0  0  0  0999 V2000
  -24.4574  -11.7020   20.0087 C   0  0  0  0  0  0  0  0  0  0  0  0
  -24.2455  -13.0082   19.5792 C   0  0  0  0  0  0  0  0  0  0  0  0
  -18.9524  -27.7579   23.8648 C   0  0  0  0  0  0  0  0  0  0  0  0
  -18.7942  -29.9011   22.7610 C   0  0  0  0  0  0  0  0  0  0  0  0
  -25.3706  -11.4449   21.0304 C   0  0  0  0  0  0  0  0  0  0  0  0
  -24.9458  -14.0581   20.1721 C   0  0  0  0  0  0  0  0  0  0  0  0
  -27.7790  -20.4540   18.6287 C   0  0  0  0  0  0  0  0  0  0  0  0
  -17.5837  -27.7938   24.1308 C   0  0  0  0  0  0  0  0  0  0  0  0
  -17.4254  -29.9370   23.0269 C   0  0  0  0  0  0  0  0  0  0  0  0
  -27.7676  -21.7738   19.0780 C   0  0  0  0  0  0  0  0  0  0  0  0
  -14.7043  -27.2221   22.4530 C   0  0  0  0  0  0  0  0  0  0  0  0
  -13.9670  -26.0622   22.2148 C   0  0  0  0  0  0  0  0  0  0  0  0
  -29.3784  -21.2020   20.7802 C   0  0  0  0  0  0  0  0  0  0  0  0
  -13.3263  -25.9914   24.5432 C   0  0  0  0  0  0  0  0  0  0  0  0
  -28.7011  -27.8324   20.3766 C   0  0  0  0  0  0  0  0  0  0  0  0
  -19.5577  -28.8116   23.1799 C   0  0  0  0  0  0  0  0  0  0  0  0
  -21.6034  -28.2367   21.7685 C   0  0  0  0  0  0  0  0  0  0  0  0
  -26.0896  -12.4912   21.6295 C   0  0  0  0  0  0  0  0  0  0  0  0
  -28.5833  -19.4943   19.2599 C   0  0  0  0  0  0  0  0  0  0  0  0
  -25.8685  -13.8149   21.2037 C   0  0  0  0  0  0  0  0  0  0  0  0
  -29.4001  -19.8713   20.3354 C   0  0  0  0  0  0  0  0  0  0  0  0
  -16.8201  -28.8833   23.7118 C   0  0  0  0  0  0  0  0  0  0  0  0
  -28.5651  -22.1474   20.1557 C   0  0  0  0  0  0  0  0  0  0  0  0
  -14.7526  -27.7666   23.7363 C   0  0  0  0  0  0  0  0  0  0  0  0
  -13.2780  -25.4469   23.2599 C   0  0  0  0  0  0  0  0  0  0  0  0
  -14.0636  -27.1513   24.7814 C   0  0  0  0  0  0  0  0  0  0  0  0
  -20.9717  -28.7754   22.9054 C   0  0  0  0  0  0  0  0  0  0  0  0
  -28.1336  -28.1409   21.5932 C   0  0  0  0  0  0  0  0  0  0  0  0
  -27.2884  -26.0208   21.7365 C   0  0  0  0  0  0  0  0  0  0  0  0
  -27.8553  -25.7126   20.5195 C   0  0  0  0  0  0  0  0  0  0  0  0
  -22.9427  -28.4490   21.9868 C   0  0  0  0  0  0  0  0  0  0  0  0
  -21.0308  -27.6013   20.6178 C   0  0  0  0  0  0  0  0  0  0  0  0
  -28.0305  -16.7884   20.8334 C   0  0  0  0  0  0  0  0  0  0  0  0
  -31.2665  -16.5659   20.8034 C   0  0  0  0  0  0  0  0  0  0  0  0
  -34.2781  -18.1566   20.5869 C   0  0  0  0  0  0  0  0  0  0  0  0
  -26.8870  -32.2164   23.5886 C   0  0  0  0  0  0  0  0  0  0  0  0
  -27.0313  -12.1692   22.7628 C   0  0  0  0  0  0  0  0  0  0  0  0
  -28.6045  -18.0807   18.7462 C   0  0  0  0  0  0  0  0  0  0  0  0
  -30.2968  -18.8835   21.0345 C   0  0  0  0  0  0  0  0  0  0  0  0
  -28.0083  -13.2977   23.0821 C   0  0  0  0  0  0  0  0  0  0  0  0
  -25.4260  -29.9458   26.1206 C   0  0  0  0  0  0  0  0  0  0  0  0
  -27.2762  -14.6341   23.1513 C   0  0  0  0  0  0  0  0  0  0  0  0
  -24.1525  -29.4558   25.4334 C   0  0  0  0  0  0  0  0  0  0  0  0
  -25.8321  -31.3351   25.6385 C   0  0  0  0  0  0  0  0  0  0  0  0
  -24.7002  -30.9525   23.4737 C   0  0  0  0  0  0  0  0  0  0  0  0
  -26.6273  -14.9780   21.8051 C   0  0  1  0  0  0  0  0  0  0  0  0
  -29.0741  -17.0725   19.7904 C   0  0  1  0  0  0  0  0  0  0  0  0
  -24.2895  -29.5360   23.9030 C   0  0  2  0  0  0  0  0  0  0  0  0
  -25.7075  -25.6461   23.6462 C   0  0  0  0  0  0  0  0  0  0  0  0
  -36.7477  -17.7135   20.6321 C   0  0  0  0  0  0  0  0  0  0  0  0
  -31.1455  -16.2143   23.8319 C   0  0  0  0  0  0  0  0  0  0  0  0
  -33.5942  -16.7285   23.9195 C   0  0  0  0  0  0  0  0  0  0  0  0
  -32.7863  -14.7242   22.6734 C   0  0  0  0  0  0  0  0  0  0  0  0
  -28.4192  -32.6241   21.7003 C   0  0  0  0  0  0  0  0  0  0  0  0
  -34.6351  -19.2119   17.8450 C   0  0  0  0  0  0  0  0  0  0  0  0
  -28.2960  -29.4994   22.1797 C   0  0  0  0  0  0  0  0  0  0  0  0
  -26.4986  -25.0153   22.5028 C   0  0  0  0  0  0  0  0  0  0  0  0
  -27.7043  -24.3505   19.9085 C   0  0  0  0  0  0  0  0  0  1  0  0
  -27.1932  -30.4845   21.7695 C   0  0  0  0  0  0  0  0  0  0  0  0
  -32.3784  -17.0276   21.7142 C   0  0  1  0  0  0  0  0  0  0  0  0
  -35.5142  -17.8644   19.7555 C   0  0  2  0  0  0  0  0  0  0  0  0
  -32.4579  -16.1920   23.0230 C   0  0  0  0  0  0  0  0  0  0  0  0
  -28.5721  -26.6127   19.8178 N   0  0  0  0  0  0  0  0  0  0  0  0
  -21.8385  -29.2910   23.7811 N   0  0  0  0  0  0  0  0  0  0  0  0
  -27.4170  -27.2406   22.2951 N   0  0  0  0  0  0  0  0  0  0  0  0
  -23.0285  -29.0772   23.1944 N   0  0  0  0  0  0  0  0  0  0  0  0
  -30.2776  -17.5121   20.4993 N   0  0  0  0  0  0  0  0  0  0  0  0
  -25.9127  -31.3946   24.1786 N   0  0  0  0  0  0  0  0  0  0  0  0
  -24.0436  -28.1577   21.2618 N   0  0  0  0  0  0  0  0  0  0  0  0
  -19.6373  -27.4648   20.5541 N   0  0  0  0  0  0  0  0  0  0  0  0
  -27.6217  -15.4690   20.8754 N   0  0  0  0  0  0  0  0  0  0  0  0
  -33.5982  -17.0026   20.9143 N   0  0  0  0  0  0  0  0  0  0  0  0
  -27.3987  -31.8112   22.3466 N   0  0  0  0  0  0  0  0  0  0  0  0
  -35.7591  -18.9689   18.7855 N   0  3  0  0  0  0  0  0  0  0  0  0
  -21.7350  -27.1527   19.6816 O   0  0  0  0  0  0  0  0  0  0  0  0
  -27.6271  -17.6984   21.5482 O   0  0  0  0  0  0  0  0  0  0  0  0
  -31.2789  -15.4104   20.3717 O   0  0  0  0  0  0  0  0  0  0  0  0
  -33.9506  -19.2945   20.9162 O   0  0  0  0  0  0  0  0  0  0  0  0
  -27.2843  -33.2482   24.1450 O   0  0  0  0  0  0  0  0  0  0  0  0
  -15.4844  -28.9186   23.9710 O   0  0  0  0  0  0  0  0  0  0  0  0
  -28.5554  -23.4347   20.5966 O   0  0  0  0  0  0  0  0  0  1  0  0
  -12.5687  -24.3340   23.0307 F   0  0  0  0  0  0  0  0  0  0  0  0
  -14.1053  -27.6704   26.0162 F   0  0  0  0  0  0  0  0  0  0  0  0
  1  2  1  0  0  0  0
  1  5  2  0  0  0  0
  2  6  2  0  0  0  0
  3  8  2  0  0  0  0
  3 16  1  0  0  0  0
  4  9  1  0  0  0  0
  4 16  2  0  0  0  0
  5 18  1  0  0  0  0
  6 20  1  0  0  0  0
  7 10  2  0  0  0  0
  7 19  1  0  0  0  0
  8 22  1  0  0  0  0
  9 22  2  0  0  0  0
 10 23  1  0  0  0  0
 11 12  2  0  0  0  0
 11 24  1  0  0  0  0
 12 25  1  0  0  0  0
 13 21  1  0  0  0  0
 13 23  2  0  0  0  0
 14 25  2  0  0  0  0
 14 26  1  0  0  0  0
 15 28  1  0  0  0  0
 15 63  2  0  0  0  0
 16 27  1  0  0  0  0
 17 27  1  0  0  0  0
 17 31  2  0  0  0  0
 17 32  1  0  0  0  0
 18 20  2  0  0  0  0
 18 37  1  0  0  0  0
 19 21  2  0  0  0  0
 19 38  1  0  0  0  0
 20 46  1  0  0  0  0
 21 39  1  0  0  0  0
 22 80  1  0  0  0  0
 23 81  1  0  0  0  0
 24 26  2  0  0  0  0
 24 80  1  0  0  0  0
 25 82  1  0  0  0  0
 26 83  1  0  0  0  0
 27 64  2  0  0  0  0
 28 56  1  0  0  0  0
 28 65  2  0  0  0  0
 29 30  2  0  0  0  0
 29 57  1  0  0  0  0
 29 65  1  0  0  0  0
 30 58  1  0  0  0  0
 30 63  1  0  0  0  0
 31 66  1  0  0  0  0
 31 69  1  0  0  0  0
 32 70  1  0  0  0  0
 32 75  2  0  0  0  0
 33 47  1  0  0  0  0
 33 71  1  0  0  0  0
 33 76  2  0  0  0  0
 34 60  1  0  0  0  0
 34 67  1  0  0  0  0
 34 77  2  0  0  0  0
 35 61  1  0  0  0  0
 35 72  1  0  0  0  0
 35 78  2  0  0  0  0
 36 68  1  0  0  0  0
 36 73  1  0  0  0  0
 36 79  2  0  0  0  0
 37 40  1  0  0  0  0
 38 47  1  0  0  0  0
 39 67  1  0  0  0  0
 40 42  1  0  0  0  0
 41 43  1  0  0  0  0
 41 44  1  0  0  0  0
 42 46  1  0  0  0  0
 43 48  1  0  0  0  0
 44 68  1  0  0  0  0
 45 48  1  0  0  0  0
 45 68  1  0  0  0  0
 46 71  1  0  0  0  0
 47 67  1  0  0  0  0
 48 66  1  0  0  0  0
 49 57  1  0  0  0  0
 50 61  1  0  0  0  0
 51 62  1  0  0  0  0
 52 62  1  0  0  0  0
 53 62  1  0  0  0  0
 54 73  1  0  0  0  0
 55 74  1  0  0  0  0
 56 59  1  0  0  0  0
 58 81  1  0  0  0  0
 59 73  1  0  0  0  0
 60 62  1  0  0  0  0
 60 72  1  0  0  0  0
 61 74  1  0  0  0  0
 64 66  1  0  0  0  0
M  CHG  1  74   1
M  ISO  4  36 100  58 101  73 100  81 101
M  END
> <Batch ID>
0061

> <Smiles>
CCc1nc(CC[100N:0](C)[100C:0](=O)N2CCCC(n3nc(-c4ccc(Oc5ccc(F)cc5F)cc4)c(C(N)=O)c3N)C2)cnc1[101CH2:1][101O:1]c1ccc2c(c1)CN(C(=O)C(NC(=O)C(C)NC)C(C)(C)C)C(C(=O)NC1CCCc3ccccc31)C2

> <Shape>
0.262

> <Color>
0.058

> <Negative vol penalty>
0.000

$$$$

  -OEChem-04052317583D

 81 89  0     1  0  0  0  0  0999 V2000
  -16.8974  -25.6721   24.8508 C   0  0  0  0  0  0  0  0  0  0  0  0
  -18.1269  -25.2883   24.3251 C   0  0  0  0  0  0  0  0  0  0  0  0
  -24.1705  -10.2407   22.6420 C   0  0  0  0  0  0  0  0  0  0  0  0
  -24.1954  -11.7698   24.5124 C   0  0  0  0  0  0  0  0  0  0  0  0
  -16.4626  -26.9897   24.7136 C   0  0  0  0  0  0  0  0  0  0  0  0
  -18.9220  -26.2218   23.6610 C   0  0  0  0  0  0  0  0  0  0  0  0
  -23.7872  -25.9627   25.0420 C   0  0  0  0  0  0  0  0  0  0  0  0
  -23.6288   -9.2491   23.4598 C   0  0  0  0  0  0  0  0  0  0  0  0
  -23.6536  -10.7782   25.3302 C   0  0  0  0  0  0  0  0  0  0  0  0
  -24.5507  -24.9330   24.4938 C   0  0  0  0  0  0  0  0  0  0  0  0
  -20.6164   -9.4142   25.9099 C   0  0  0  0  0  0  0  0  0  0  0  0
  -19.5684   -9.7755   26.7564 C   0  0  0  0  0  0  0  0  0  0  0  0
  -25.4724  -26.4796   22.8881 C   0  0  0  0  0  0  0  0  0  0  0  0
  -20.8905   -9.1247   28.6710 C   0  0  0  0  0  0  0  0  0  0  0  0
  -26.6068  -21.4648   21.5076 C   0  0  0  0  0  0  0  0  0  0  0  0
  -24.4539  -11.5011   23.1683 C   0  0  0  0  0  0  0  0  0  0  0  0
  -24.3108  -13.4745   21.5581 C   0  0  0  0  0  0  0  0  0  0  0  0
  -17.2570  -27.9421   24.0559 C   0  0  0  0  0  0  0  0  0  0  0  0
  -23.8524  -27.2583   24.5096 C   0  0  0  0  0  0  0  0  0  0  0  0
  -18.4968  -27.5530   23.5138 C   0  0  0  0  0  0  0  0  0  0  0  0
  -24.7106  -27.5245   23.4331 C   0  0  0  0  0  0  0  0  0  0  0  0
  -23.3703   -9.5178   24.8039 C   0  0  0  0  0  0  0  0  0  0  0  0
  -25.3913  -25.1907   23.4148 C   0  0  0  0  0  0  0  0  0  0  0  0
  -21.8015   -8.9080   26.4439 C   0  0  0  0  0  0  0  0  0  0  0  0
  -19.7054   -9.6308   28.1370 C   0  0  0  0  0  0  0  0  0  0  0  0
  -21.9386   -8.7633   27.8244 C   0  0  0  0  0  0  0  0  0  0  0  0
  -25.0141  -12.5256   22.3242 C   0  0  0  0  0  0  0  0  0  0  0  0
  -26.9253  -21.9402   22.7606 C   0  0  0  0  0  0  0  0  0  0  0  0
  -28.5375  -20.2396   21.4816 C   0  0  0  0  0  0  0  0  0  0  0  0
  -28.8565  -20.7156   22.7343 C   0  0  0  0  0  0  0  0  0  0  0  0
  -25.2912  -14.2133   20.9422 C   0  0  0  0  0  0  0  0  0  0  0  0
  -22.8976  -13.6705   21.4160 C   0  0  0  0  0  0  0  0  0  0  0  0
  -21.7699  -29.2242   23.1304 C   0  0  0  0  0  0  0  0  0  0  0  0
  -24.2440  -31.3172   23.2727 C   0  0  0  0  0  0  0  0  0  0  0  0
  -27.6161  -31.8088   23.4566 C   0  0  0  0  0  0  0  0  0  0  0  0
  -30.1556  -16.9438   21.1081 C   0  0  0  0  0  0  0  0  0  0  0  0
  -16.7236  -29.3431   23.8910 C   0  0  0  0  0  0  0  0  0  0  0  0
  -23.0425  -28.3639   25.1295 C   0  0  0  0  0  0  0  0  0  0  0  0
  -24.8321  -28.9026   22.8378 C   0  0  0  0  0  0  0  0  0  0  0  0
  -17.7932  -30.3601   23.5011 C   0  0  0  0  0  0  0  0  0  0  0  0
  -30.2749  -13.4238   20.5865 C   0  0  0  0  0  0  0  0  0  0  0  0
  -18.6621  -29.8147   22.3722 C   0  0  0  0  0  0  0  0  0  0  0  0
  -28.8613  -12.9543   20.9348 C   0  0  0  0  0  0  0  0  0  0  0  0
  -30.7300  -14.5651   21.4933 C   0  0  0  0  0  0  0  0  0  0  0  0
  -28.3963  -15.2470   21.8971 C   0  0  0  0  0  0  0  0  0  0  0  0
  -19.3987  -28.5425   22.8083 C   0  0  1  0  0  0  0  0  0  0  0  0
  -22.8008  -29.5325   24.1791 C   0  0  1  0  0  0  0  0  0  0  0  0
  -27.8719  -14.1346   20.9731 C   0  0  2  0  0  0  0  0  0  0  0  0
  -29.3436  -19.4470   19.2269 C   0  0  0  0  0  0  0  0  0  0  0  0
  -29.3408  -33.6306   23.5180 C   0  0  0  0  0  0  0  0  0  0  0  0
  -23.8736  -31.7655   20.2774 C   0  0  0  0  0  0  0  0  0  0  0  0
  -26.1480  -32.8107   20.2233 C   0  0  0  0  0  0  0  0  0  0  0  0
  -24.3360  -33.8412   21.5935 C   0  0  0  0  0  0  0  0  0  0  0  0
  -28.5875  -30.9586   26.1198 C   0  0  0  0  0  0  0  0  0  0  0  0
  -26.0095  -22.8949   23.4685 C   0  0  0  0  0  0  0  0  0  1  0  0
  -29.4242  -19.2885   20.7524 C   0  0  2  0  0  0  0  0  0  0  0  0
  -25.3934  -31.6773   22.3627 C   0  0  1  0  0  0  0  0  0  0  0  0
  -28.4558  -32.7100   24.3438 C   0  0  2  0  0  0  0  0  0  0  0  0
  -24.9342  -32.4972   21.1240 C   0  0  0  0  0  0  0  0  0  0  0  0
  -27.4071  -20.6059   20.8456 N   0  0  0  0  0  0  0  0  0  0  0  0
  -26.3389  -12.6481   22.2071 N   0  0  0  0  0  0  0  0  0  0  0  0
  -28.0560  -21.5742   23.3964 N   0  0  0  0  0  0  0  0  0  0  0  0
  -26.4760  -13.6825   21.3602 N   0  0  0  0  0  0  0  0  0  0  0  0
  -24.0152  -29.9488   23.4747 N   0  0  0  0  0  0  0  0  0  0  0  0
  -29.7488  -15.6529   21.4836 N   0  0  0  0  0  0  0  0  0  0  0  0
  -25.2468  -15.2586   20.0891 N   0  0  0  0  0  0  0  0  0  0  0  0
  -22.0314  -12.8227   22.1196 N   0  0  0  0  0  0  0  0  0  0  0  0
  -20.5340  -28.8763   23.6414 N   0  0  0  0  0  0  0  0  0  0  0  0
  -26.3777  -32.3571   23.1978 N   0  0  0  0  0  0  0  0  0  0  0  0
  -29.1618  -17.9149   21.1199 N   0  0  0  0  0  0  0  0  0  0  0  0
  -29.3284  -31.8932   25.2340 N   0  3  0  0  0  0  0  0  0  0  0  0
  -22.4171  -14.5604   20.6738 O   0  0  0  0  0  0  0  0  0  0  0  0
  -22.0728  -29.2979   21.9453 O   0  0  0  0  0  0  0  0  0  0  0  0
  -23.5782  -32.2171   23.7910 O   0  0  0  0  0  0  0  0  0  0  0  0
  -28.0199  -30.7283   23.0323 O   0  0  0  0  0  0  0  0  0  0  0  0
  -31.3171  -17.2100   20.7810 O   0  0  0  0  0  0  0  0  0  0  0  0
  -22.8414   -8.5505   25.6021 O   0  0  0  0  0  0  0  0  0  0  0  0
  -26.1372  -24.1874   22.8774 O   0  0  0  0  0  0  0  0  0  1  0  0
  -18.6995   -9.9793   28.9499 F   0  0  0  0  0  0  0  0  0  0  0  0
  -23.0751   -8.2788   28.3433 F   0  0  0  0  0  0  0  0  0  0  0  0
  -30.2817  -20.2736   23.5788 Cl  0  0  0  0  0  0  0  0  0  0  0  0
  1  2  1  0  0  0  0
  1  5  2  0  0  0  0
  2  6  2  0  0  0  0
  3  8  2  0  0  0  0
  3 16  1  0  0  0  0
  4  9  1  0  0  0  0
  4 16  2  0  0  0  0
  5 18  1  0  0  0  0
  6 20  1  0  0  0  0
  7 10  2  0  0  0  0
  7 19  1  0  0  0  0
  8 22  1  0  0  0  0
  9 22  2  0  0  0  0
 10 23  1  0  0  0  0
 11 12  2  0  0  0  0
 11 24  1  0  0  0  0
 12 25  1  0  0  0  0
 13 21  1  0  0  0  0
 13 23  2  0  0  0  0
 14 25  2  0  0  0  0
 14 26  1  0  0  0  0
 15 28  1  0  0  0  0
 15 60  2  0  0  0  0
 16 27  1  0  0  0  0
 17 27  1  0  0  0  0
 17 31  2  0  0  0  0
 17 32  1  0  0  0  0
 18 20  2  0  0  0  0
 18 37  1  0  0  0  0
 19 21  2  0  0  0  0
 19 38  1  0  0  0  0
 20 46  1  0  0  0  0
 21 39  1  0  0  0  0
 22 77  1  0  0  0  0
 23 78  1  0  0  0  0
 24 26  2  0  0  0  0
 24 77  1  0  0  0  0
 25 79  1  0  0  0  0
 26 80  1  0  0  0  0
 27 61  2  0  0  0  0
 28 55  1  0  0  0  0
 28 62  2  0  0  0  0
 29 30  2  0  0  0  0
 29 56  1  0  0  0  0
 29 60  1  0  0  0  0
 30 62  1  0  0  0  0
 30 81  1  0  0  0  0
 31 63  1  0  0  0  0
 31 66  1  0  0  0  0
 32 67  1  0  0  0  0
 32 72  2  0  0  0  0
 33 47  1  0  0  0  0
 33 68  1  0  0  0  0
 33 73  2  0  0  0  0
 34 57  1  0  0  0  0
 34 64  1  0  0  0  0
 34 74  2  0  0  0  0
 35 58  1  0  0  0  0
 35 69  1  0  0  0  0
 35 75  2  0  0  0  0
 36 65  1  0  0  0  0
 36 70  1  0  0  0  0
 36 76  2  0  0  0  0
 37 40  1  0  0  0  0
 38 47  1  0  0  0  0
 39 64  1  0  0  0  0
 40 42  1  0  0  0  0
 41 43  1  0  0  0  0
 41 44  1  0  0  0  0
 42 46  1  0  0  0  0
 43 48  1  0  0  0  0
 44 65  1  0  0  0  0
 45 48  1  0  0  0  0
 45 65  1  0  0  0  0
 46 68  1  0  0  0  0
 47 64  1  0  0  0  0
 48 63  1  0  0  0  0
 49 56  1  0  0  0  0
 50 58  1  0  0  0  0
 51 59  1  0  0  0  0
 52 59  1  0  0  0  0
 53 59  1  0  0  0  0
 54 71  1  0  0  0  0
 55 78  1  0  0  0  0
 56 70  1  0  0  0  0
 57 59  1  0  0  0  0
 57 69  1  0  0  0  0
 58 71  1  0  0  0  0
 61 63  1  0  0  0  0
M  CHG  1  71   1
M  ISO  4  36 100  55 101  70 100  78 101
M  END
> <Batch ID>
0061

> <Smiles>
CNC(C)C(=O)NC(C(=O)N1Cc2cc([101O:1][101CH2:1]c3cnc(C(C)[100NH:0][100C:0](=O)N4CCCC(n5nc(-c6ccc(Oc7ccc(F)cc7F)cc6)c(C(N)=O)c5N)C4)c(Cl)n3)ccc2CC1C(=O)NC1CCCc2ccccc21)C(C)(C)C

> <Shape>
0.230

> <Color>
0.120

> <Negative vol penalty>
0.000

$$$$

  -OEChem-04052317582D

  0  0  0     0  0  0  0  0  0999 V2000
M  END
$$$$

  -OEChem-04052317582D

  0  0  0     0  0  0  0  0  0999 V2000
M  END
$$$$

  -OEChem-04052317583D

 82 90  0     1  0  0  0  0  0999 V2000
  -22.6804  -18.2895   24.7727 C   0  0  0  0  0  0  0  0  0  0  0  0
  -23.5985  -19.3320   24.8302 C   0  0  0  0  0  0  0  0  0  0  0  0
  -23.9568  -12.8161   21.0014 C   0  0  0  0  0  0  0  0  0  0  0  0
  -26.3402  -12.4540   20.8412 C   0  0  0  0  0  0  0  0  0  0  0  0
  -21.5961  -18.3680   23.9014 C   0  0  0  0  0  0  0  0  0  0  0  0
  -23.4260  -20.4585   24.0251 C   0  0  0  0  0  0  0  0  0  0  0  0
  -26.9656  -25.3586   23.2581 C   0  0  0  0  0  0  0  0  0  0  0  0
  -23.7330  -11.4691   20.7166 C   0  0  0  0  0  0  0  0  0  0  0  0
  -26.1163  -11.1069   20.5563 C   0  0  0  0  0  0  0  0  0  0  0  0
  -27.9945  -25.7620   22.4082 C   0  0  0  0  0  0  0  0  0  0  0  0
  -22.5462   -8.0488   20.3876 C   0  0  0  0  0  0  0  0  0  0  0  0
  -21.6089   -7.3686   21.1649 C   0  0  0  0  0  0  0  0  0  0  0  0
  -26.3924  -26.9274   21.0318 C   0  0  0  0  0  0  0  0  0  0  0  0
  -22.9095   -7.8398   23.1457 C   0  0  0  0  0  0  0  0  0  0  0  0
  -31.1378  -23.2943   18.4303 C   0  0  0  0  0  0  0  0  0  0  0  0
  -25.2604  -13.3085   21.0637 C   0  0  0  0  0  0  0  0  0  0  0  0
  -25.6665  -15.2834   22.6266 C   0  0  0  0  0  0  0  0  0  0  0  0
  -21.4178  -19.4909   23.0766 C   0  0  0  0  0  0  0  0  0  0  0  0
  -25.6387  -25.7281   22.9948 C   0  0  0  0  0  0  0  0  0  0  0  0
  -22.3249  -20.5671   23.1566 C   0  0  0  0  0  0  0  0  0  0  0  0
  -25.3488  -26.5296   21.8814 C   0  0  0  0  0  0  0  0  0  0  0  0
  -24.8127  -10.6145   20.4940 C   0  0  0  0  0  0  0  0  0  0  0  0
  -27.7076  -26.5441   21.2932 C   0  0  0  0  0  0  0  0  0  0  0  0
  -23.6653   -8.6244   20.9893 C   0  0  0  0  0  0  0  0  0  0  0  0
  -21.7905   -7.2641   22.5440 C   0  0  0  0  0  0  0  0  0  0  0  0
  -23.8470   -8.5199   22.3683 C   0  0  0  0  0  0  0  0  0  0  0  0
  -25.4923  -14.7000   21.3573 C   0  0  0  0  0  0  0  0  0  0  0  0
  -25.8529  -16.6193   22.3678 C   0  0  0  0  0  0  0  0  0  0  0  0
  -29.7948  -22.1513   17.3136 C   0  0  0  0  0  0  0  0  0  0  0  0
  -25.6604  -14.6723   23.9236 C   0  0  0  0  0  0  0  0  0  0  0  0
  -22.9545  -24.1489   22.3586 C   0  0  0  0  0  0  0  0  0  0  0  0
  -21.6287  -27.1026   22.5603 C   0  0  0  0  0  0  0  0  0  0  0  0
  -22.0406  -30.4838   22.3482 C   0  0  0  0  0  0  0  0  0  0  0  0
  -27.9311  -19.4543   17.6245 C   0  0  0  0  0  0  0  0  0  0  0  0
  -20.2222  -19.5272   22.1577 C   0  0  0  0  0  0  0  0  0  0  0  0
  -24.5437  -25.3072   23.9361 C   0  0  0  0  0  0  0  0  0  0  0  0
  -23.9436  -26.9702   21.5656 C   0  0  0  0  0  0  0  0  0  0  0  0
  -20.3666  -20.5487   21.0343 C   0  0  0  0  0  0  0  0  0  0  0  0
  -24.7160  -20.0123   19.1894 C   0  0  0  0  0  0  0  0  0  0  0  0
  -20.7951  -21.8921   21.6053 C   0  0  0  0  0  0  0  0  0  0  0  0
  -24.5735  -18.7546   20.0486 C   0  0  0  0  0  0  0  0  0  0  0  0
  -25.3854  -19.6972   17.8549 C   0  0  0  0  0  0  0  0  0  0  0  0
  -26.5714  -17.7704   18.8320 C   0  0  0  0  0  0  0  0  0  0  0  0
  -22.1745  -21.7888   22.2682 C   0  0  1  0  0  0  0  0  0  0  0  0
  -23.1631  -25.3118   23.2870 C   0  0  1  0  0  0  0  0  0  0  0  0
  -25.9219  -18.0266   20.2041 C   0  0  2  0  0  0  0  0  0  0  0  0
  -28.8647  -21.8242   14.9921 C   0  0  0  0  0  0  0  0  0  0  0  0
  -20.7664  -32.6384   22.5255 C   0  0  0  0  0  0  0  0  0  0  0  0
  -20.4172  -26.6101   19.8035 C   0  0  0  0  0  0  0  0  0  0  0  0
  -19.9821  -29.0697   19.6322 C   0  0  0  0  0  0  0  0  0  0  0  0
  -18.8857  -27.7333   21.4307 C   0  0  0  0  0  0  0  0  0  0  0  0
  -27.7815  -25.9240   18.4896 C   0  0  0  0  0  0  0  0  0  0  0  0
  -30.1481  -26.7446   18.5666 C   0  0  0  0  0  0  0  0  0  0  0  0
  -23.7009  -31.4138   24.6148 C   0  0  0  0  0  0  0  0  0  0  0  0
  -29.5354  -24.7304   19.9312 C   0  0  0  0  0  0  0  0  0  0  0  0
  -29.1591  -21.2195   16.3862 C   0  0  2  0  0  0  0  0  0  0  0  0
  -21.3612  -28.2232   21.5848 C   0  0  1  0  0  0  0  0  0  0  0  0
  -21.6067  -31.6110   23.2678 C   0  0  2  0  0  0  0  0  0  0  0  0
  -20.1878  -27.8993   20.6174 C   0  0  0  0  0  0  0  0  0  0  0  0
  -29.0252  -26.0760   19.3694 C   0  0  0  0  0  0  0  0  0  1  0  0
  -31.0864  -22.3352   17.4597 N   0  0  0  0  0  0  0  0  0  0  0  0
  -25.5617  -15.5922   20.3658 N   0  0  0  0  0  0  0  0  0  0  0  0
  -29.1171  -22.9688   18.1634 N   0  0  0  0  0  0  0  0  0  0  0  0
  -29.9591  -23.7154   18.8940 N   0  0  0  0  0  0  0  0  0  0  0  0
  -25.7815  -16.7499   21.0121 N   0  0  0  0  0  0  0  0  0  0  0  0
  -22.9067  -26.5278   22.5126 N   0  0  0  0  0  0  0  0  0  0  0  0
  -26.6723  -19.0219   18.0738 N   0  0  0  0  0  0  0  0  0  0  0  0
  -26.0692  -17.6833   23.1700 N   0  0  0  0  0  0  0  0  0  0  0  0
  -25.4551  -13.2885   24.0093 N   0  0  0  0  0  0  0  0  0  0  0  0
  -22.4516  -23.0195   22.9757 N   0  0  0  0  0  0  0  0  0  0  0  0
  -21.1591  -29.4242   22.3881 N   0  0  0  0  0  0  0  0  0  0  0  0
  -27.9391  -20.6449   16.9081 N   0  0  0  0  0  0  0  0  0  0  0  0
  -22.7978  -32.3016   23.8382 N   0  3  0  0  0  0  0  0  0  0  0  0
  -25.8155  -15.3363   24.9765 O   0  0  0  0  0  0  0  0  0  0  0  0
  -23.2280  -24.2681   21.1700 O   0  0  0  0  0  0  0  0  0  0  0  0
  -20.7391  -26.7550   23.3408 O   0  0  0  0  0  0  0  0  0  0  0  0
  -23.0575  -30.5393   21.6603 O   0  0  0  0  0  0  0  0  0  0  0  0
  -28.9725  -18.8282   17.8499 O   0  0  0  0  0  0  0  0  0  0  0  0
  -24.5947   -9.3000   20.2163 O   0  0  0  0  0  0  0  0  0  0  0  0
  -28.7099  -26.9386   20.4616 O   0  0  0  0  0  0  0  0  0  1  0  0
  -20.8894   -6.6123   23.2905 F   0  0  0  0  0  0  0  0  0  0  0  0
  -24.9195   -9.0719   22.9522 F   0  0  0  0  0  0  0  0  0  0  0  0
  1  2  1  0  0  0  0
  1  5  2  0  0  0  0
  2  6  2  0  0  0  0
  3  8  2  0  0  0  0
  3 16  1  0  0  0  0
  4  9  1  0  0  0  0
  4 16  2  0  0  0  0
  5 18  1  0  0  0  0
  6 20  1  0  0  0  0
  7 10  2  0  0  0  0
  7 19  1  0  0  0  0
  8 22  1  0  0  0  0
  9 22  2  0  0  0  0
 10 23  1  0  0  0  0
 11 12  2  0  0  0  0
 11 24  1  0  0  0  0
 12 25  1  0  0  0  0
 13 21  1  0  0  0  0
 13 23  2  0  0  0  0
 14 25  2  0  0  0  0
 14 26  1  0  0  0  0
 15 61  2  0  0  0  0
 15 64  1  0  0  0  0
 16 27  1  0  0  0  0
 17 27  1  0  0  0  0
 17 28  2  0  0  0  0
 17 30  1  0  0  0  0
 18 20  2  0  0  0  0
 18 35  1  0  0  0  0
 19 21  2  0  0  0  0
 19 36  1  0  0  0  0
 20 44  1  0  0  0  0
 21 37  1  0  0  0  0
 22 79  1  0  0  0  0
 23 80  1  0  0  0  0
 24 26  2  0  0  0  0
 24 79  1  0  0  0  0
 25 81  1  0  0  0  0
 26 82  1  0  0  0  0
 27 62  2  0  0  0  0
 28 65  1  0  0  0  0
 28 68  1  0  0  0  0
 29 56  1  0  0  0  0
 29 61  1  0  0  0  0
 29 63  2  0  0  0  0
 30 69  1  0  0  0  0
 30 74  2  0  0  0  0
 31 45  1  0  0  0  0
 31 70  1  0  0  0  0
 31 75  2  0  0  0  0
 32 57  1  0  0  0  0
 32 66  1  0  0  0  0
 32 76  2  0  0  0  0
 33 58  1  0  0  0  0
 33 71  1  0  0  0  0
 33 77  2  0  0  0  0
 34 67  1  0  0  0  0
 34 72  1  0  0  0  0
 34 78  2  0  0  0  0
 35 38  1  0  0  0  0
 36 45  1  0  0  0  0
 37 66  1  0  0  0  0
 38 40  1  0  0  0  0
 39 41  1  0  0  0  0
 39 42  1  0  0  0  0
 40 44  1  0  0  0  0
 41 46  1  0  0  0  0
 42 67  1  0  0  0  0
 43 46  1  0  0  0  0
 43 67  1  0  0  0  0
 44 70  1  0  0  0  0
 45 66  1  0  0  0  0
 46 65  1  0  0  0  0
 47 56  1  0  0  0  0
 48 58  1  0  0  0  0
 49 59  1  0  0  0  0
 50 59  1  0  0  0  0
 51 59  1  0  0  0  0
 52 60  1  0  0  0  0
 53 60  1  0  0  0  0
 54 73  1  0  0  0  0
 55 60  1  0  0  0  0
 55 64  1  0  0  0  0
 56 72  1  0  0  0  0
 57 59  1  0  0  0  0
 57 71  1  0  0  0  0
 58 73  1  0  0  0  0
 60 80  1  0  0  0  0
 62 65  1  0  0  0  0
 63 64  1  0  0  0  0
M  CHG  1  73   1
M  ISO  4  34 100  60 101  72 100  80 101
M  END
> <Batch ID>
0061

> <Smiles>
CNC(C)C(=O)NC(C(=O)N1Cc2cc([101O:1][101C:1](C)(C)Cn3cnc(C(C)[100NH:0][100C:0](=O)N4CCCC(n5nc(-c6ccc(Oc7ccc(F)cc7F)cc6)c(C(N)=O)c5N)C4)n3)ccc2CC1C(=O)NC1CCCc2ccccc21)C(C)(C)C

> <Shape>
0.196

> <Color>
0.071

> <Negative vol penalty>
0.000

$$$$

  -OEChem-04052317583D

 83 91  0     1  0  0  0  0  0999 V2000
  -22.9707  -23.9024   18.9066 C   0  0  0  0  0  0  0  0  0  0  0  0
  -24.1098  -23.2008   19.2882 C   0  0  0  0  0  0  0  0  0  0  0  0
  -22.8838  -27.2089   20.7340 C   0  0  0  0  0  0  0  0  0  0  0  0
  -24.2484  -26.8358   22.6925 C   0  0  0  0  0  0  0  0  0  0  0  0
  -21.7092  -23.4289   19.2647 C   0  0  0  0  0  0  0  0  0  0  0  0
  -23.9880  -22.0258   20.0291 C   0  0  0  0  0  0  0  0  0  0  0  0
  -26.9863  -18.3249   18.3091 C   0  0  0  0  0  0  0  0  0  0  0  0
  -21.7334  -27.0140   21.4984 C   0  0  0  0  0  0  0  0  0  0  0  0
  -23.0981  -26.6409   23.4569 C   0  0  0  0  0  0  0  0  0  0  0  0
  -28.3370  -18.3903   18.6483 C   0  0  0  0  0  0  0  0  0  0  0  0
  -18.4273  -26.9712   23.0092 C   0  0  0  0  0  0  0  0  0  0  0  0
  -17.3736  -27.8685   22.8358 C   0  0  0  0  0  0  0  0  0  0  0  0
  -27.9690  -16.7736   20.4005 C   0  0  0  0  0  0  0  0  0  0  0  0
  -18.8114  -29.6878   23.5142 C   0  0  0  0  0  0  0  0  0  0  0  0
  -29.1341  -19.5644   22.3882 C   0  0  0  0  0  0  0  0  0  0  0  0
  -24.1413  -27.1198   21.3310 C   0  0  0  0  0  0  0  0  0  0  0  0
  -25.9994  -28.5365   20.3073 C   0  0  0  0  0  0  0  0  0  0  0  0
  -21.5714  -22.2424   20.0020 C   0  0  0  0  0  0  0  0  0  0  0  0
  -26.1132  -17.4901   19.0212 C   0  0  0  0  0  0  0  0  0  0  0  0
  -22.7235  -21.5367   20.3985 C   0  0  0  0  0  0  0  0  0  0  0  0
  -26.6081  -16.6975   20.0666 C   0  0  0  0  0  0  0  0  0  0  0  0
  -21.8406  -26.7300   22.8599 C   0  0  0  0  0  0  0  0  0  0  0  0
  -28.8280  -17.6167   19.6960 C   0  0  0  0  0  0  0  0  0  0  0  0
  -19.6730  -27.4320   23.4352 C   0  0  0  0  0  0  0  0  0  0  0  0
  -17.5657  -29.2269   23.0883 C   0  0  0  0  0  0  0  0  0  0  0  0
  -19.8651  -28.7903   23.6877 C   0  0  0  0  0  0  0  0  0  0  0  0
  -25.3300  -27.3205   20.5418 C   0  0  0  0  0  0  0  0  0  0  0  0
  -27.0601  -28.1952   19.5042 C   0  0  0  0  0  0  0  0  0  0  0  0
  -30.2913  -21.3999   22.4212 C   0  0  0  0  0  0  0  0  0  0  0  0
  -25.6902  -29.8565   20.7738 C   0  0  0  0  0  0  0  0  0  0  0  0
  -23.5258  -17.9533   20.8086 C   0  0  0  0  0  0  0  0  0  0  0  0
  -23.4265  -14.7110   20.8145 C   0  0  0  0  0  0  0  0  0  0  0  0
  -25.1091  -11.7603   20.4844 C   0  0  0  0  0  0  0  0  0  0  0  0
  -30.0915  -23.0943   18.7023 C   0  0  0  0  0  0  0  0  0  0  0  0
  -20.1889  -21.7952   20.4062 C   0  0  0  0  0  0  0  0  0  0  0  0
  -24.6642  -17.4109   18.6255 C   0  0  0  0  0  0  0  0  0  0  0  0
  -25.7162  -15.7699   20.8493 C   0  0  0  0  0  0  0  0  0  0  0  0
  -20.1302  -20.3423   20.8708 C   0  0  0  0  0  0  0  0  0  0  0  0
  -28.3843  -24.9839   16.2140 C   0  0  0  0  0  0  0  0  0  0  0  0
  -21.2642  -20.0479   21.8476 C   0  0  0  0  0  0  0  0  0  0  0  0
  -27.4684  -25.9068   17.0199 C   0  0  0  0  0  0  0  0  0  0  0  0
  -28.5125  -23.6080   16.8640 C   0  0  0  0  0  0  0  0  0  0  0  0
  -28.0109  -24.5507   19.0852 C   0  0  0  0  0  0  0  0  0  0  0  0
  -22.6313  -20.2449   21.1814 C   0  0  1  0  0  0  0  0  0  0  0  0
  -23.7637  -16.9123   19.7515 C   0  0  1  0  0  0  0  0  0  0  0  0
  -27.8950  -25.9682   18.4989 C   0  0  2  0  0  0  0  0  0  0  0  0
  -24.7667   -9.2761   20.5792 C   0  0  0  0  0  0  0  0  0  0  0  0
  -31.9441  -18.6725   18.7986 C   0  0  0  0  0  0  0  0  0  0  0  0
  -32.8052  -21.9412   22.7109 C   0  0  0  0  0  0  0  0  0  0  0  0
  -31.0974  -23.7342   22.8673 C   0  0  0  0  0  0  0  0  0  0  0  0
  -23.3195  -14.8445   23.8609 C   0  0  0  0  0  0  0  0  0  0  0  0
  -23.9332  -12.4179   23.9193 C   0  0  0  0  0  0  0  0  0  0  0  0
  -21.8040  -13.1384   22.8376 C   0  0  0  0  0  0  0  0  0  0  0  0
  -25.9495  -11.4201   17.6671 C   0  0  0  0  0  0  0  0  0  0  0  0
  -31.3652  -19.4438   21.1253 C   0  0  0  0  0  0  0  0  0  0  0  0
  -31.5866  -22.6801   20.6393 C   0  0  0  0  0  0  0  0  0  0  0  0
  -24.0037  -13.6253   21.6903 C   0  0  1  0  0  0  0  0  0  0  0  0
  -24.7977  -10.5069   19.6866 C   0  0  2  0  0  0  0  0  0  0  0  0
  -30.8174  -18.9161   19.7949 C   0  0  2  0  0  0  0  0  0  1  0  0
  -31.3839  -22.3567   22.1705 C   0  0  0  0  0  0  0  0  0  0  0  0
  -23.2818  -13.5253   23.0637 C   0  0  0  0  0  0  0  0  0  0  0  0
  -28.4518  -20.4488   23.0801 N   0  0  0  0  0  0  0  0  0  0  0  0
  -25.9161  -26.2841   19.9365 N   0  0  0  0  0  0  0  0  0  0  0  0
  -29.1880  -21.6166   23.1011 N   0  0  0  0  0  0  0  0  0  0  0  0
  -30.2991  -20.1206   21.9543 N   0  0  0  0  0  0  0  0  0  0  0  0
  -26.9650  -26.8480   19.3137 N   0  0  0  0  0  0  0  0  0  0  0  0
  -24.3059  -15.7325   20.4284 N   0  0  0  0  0  0  0  0  0  0  0  0
  -28.9214  -23.7365   18.2648 N   0  0  0  0  0  0  0  0  0  0  0  0
  -28.0554  -28.9190   18.9494 N   0  0  0  0  0  0  0  0  0  0  0  0
  -24.5644  -30.0299   21.5904 N   0  0  0  0  0  0  0  0  0  0  0  0
  -22.9480  -19.1153   20.3340 N   0  0  0  0  0  0  0  0  0  0  0  0
  -23.9604  -12.3986   20.9018 N   0  0  0  0  0  0  0  0  0  0  0  0
  -30.4103  -23.2727   20.0429 N   0  0  0  0  0  0  0  0  0  0  0  0
  -25.8278  -10.2958   18.6305 N   0  3  0  0  0  0  0  0  0  0  0  0
  -26.3820  -30.8553   20.4618 O   0  0  0  0  0  0  0  0  0  0  0  0
  -23.8417  -17.7189   21.9692 O   0  0  0  0  0  0  0  0  0  0  0  0
  -22.2409  -14.6510   20.4792 O   0  0  0  0  0  0  0  0  0  0  0  0
  -26.2567  -12.1335   20.7174 O   0  0  0  0  0  0  0  0  0  0  0  0
  -30.8025  -22.4168   17.9524 O   0  0  0  0  0  0  0  0  0  0  0  0
  -20.7183  -26.5400   23.6061 O   0  0  0  0  0  0  0  0  0  0  0  0
  -30.1458  -17.6791   20.0297 O   0  0  0  0  0  0  0  0  0  1  0  0
  -16.5542  -30.0887   22.9202 F   0  0  0  0  0  0  0  0  0  0  0  0
  -21.0599  -29.2392   24.0960 F   0  0  0  0  0  0  0  0  0  0  0  0
  1  2  1  0  0  0  0
  1  5  2  0  0  0  0
  2  6  2  0  0  0  0
  3  8  2  0  0  0  0
  3 16  1  0  0  0  0
  4  9  1  0  0  0  0
  4 16  2  0  0  0  0
  5 18  1  0  0  0  0
  6 20  1  0  0  0  0
  7 10  2  0  0  0  0
  7 19  1  0  0  0  0
  8 22  1  0  0  0  0
  9 22  2  0  0  0  0
 10 23  1  0  0  0  0
 11 12  2  0  0  0  0
 11 24  1  0  0  0  0
 12 25  1  0  0  0  0
 13 21  1  0  0  0  0
 13 23  2  0  0  0  0
 14 25  2  0  0  0  0
 14 26  1  0  0  0  0
 15 62  2  0  0  0  0
 15 65  1  0  0  0  0
 16 27  1  0  0  0  0
 17 27  1  0  0  0  0
 17 28  2  0  0  0  0
 17 30  1  0  0  0  0
 18 20  2  0  0  0  0
 18 35  1  0  0  0  0
 19 21  2  0  0  0  0
 19 36  1  0  0  0  0
 20 44  1  0  0  0  0
 21 37  1  0  0  0  0
 22 80  1  0  0  0  0
 23 81  1  0  0  0  0
 24 26  2  0  0  0  0
 24 80  1  0  0  0  0
 25 82  1  0  0  0  0
 26 83  1  0  0  0  0
 27 63  2  0  0  0  0
 28 66  1  0  0  0  0
 28 69  1  0  0  0  0
 29 60  1  0  0  0  0
 29 64  2  0  0  0  0
 29 65  1  0  0  0  0
 30 70  1  0  0  0  0
 30 75  2  0  0  0  0
 31 45  1  0  0  0  0
 31 71  1  0  0  0  0
 31 76  2  0  0  0  0
 32 57  1  0  0  0  0
 32 67  1  0  0  0  0
 32 77  2  0  0  0  0
 33 58  1  0  0  0  0
 33 72  1  0  0  0  0
 33 78  2  0  0  0  0
 34 68  1  0  0  0  0
 34 73  1  0  0  0  0
 34 79  2  0  0  0  0
 35 38  1  0  0  0  0
 36 45  1  0  0  0  0
 37 67  1  0  0  0  0
 38 40  1  0  0  0  0
 39 41  1  0  0  0  0
 39 42  1  0  0  0  0
 40 44  1  0  0  0  0
 41 46  1  0  0  0  0
 42 68  1  0  0  0  0
 43 46  1  0  0  0  0
 43 68  1  0  0  0  0
 44 71  1  0  0  0  0
 45 67  1  0  0  0  0
 46 66  1  0  0  0  0
 47 58  1  0  0  0  0
 48 59  1  0  0  0  0
 49 60  1  0  0  0  0
 50 60  1  0  0  0  0
 51 61  1  0  0  0  0
 52 61  1  0  0  0  0
 53 61  1  0  0  0  0
 54 74  1  0  0  0  0
 55 59  1  0  0  0  0
 55 65  1  0  0  0  0
 56 60  1  0  0  0  0
 56 73  1  0  0  0  0
 57 61  1  0  0  0  0
 57 72  1  0  0  0  0
 58 74  1  0  0  0  0
 59 81  1  0  0  0  0
 62 64  1  0  0  0  0
 63 66  1  0  0  0  0
M  CHG  1  74   1
M  ISO  4  34 100  59 101  73 100  81 101
M  END
> <Batch ID>
0061

> <Smiles>
CNC(C)C(=O)NC(C(=O)N1Cc2cc([101O:1][101CH:1](C)Cn3cnnc3C(C)(C)C[100NH:0][100C:0](=O)N3CCCC(n4nc(-c5ccc(Oc6ccc(F)cc6F)cc5)c(C(N)=O)c4N)C3)ccc2CC1C(=O)NC1CCCc2ccccc21)C(C)(C)C

> <Shape>
0.221

> <Color>
0.065

> <Negative vol penalty>
0.000

$$$$

  -OEChem-04052317583D

 87 95  0     1  0  0  0  0  0999 V2000
  -26.1147  -35.7719   22.6605 C   0  0  0  0  0  0  0  0  0  0  0  0
  -26.7256  -34.5614   22.9718 C   0  0  0  0  0  0  0  0  0  0  0  0
  -25.0336  -13.0040   21.6255 C   0  0  0  0  0  0  0  0  0  0  0  0
  -25.9012  -12.9484   19.3713 C   0  0  0  0  0  0  0  0  0  0  0  0
  -24.7326  -35.8295   22.4864 C   0  0  0  0  0  0  0  0  0  0  0  0
  -25.9544  -33.4079   23.1102 C   0  0  0  0  0  0  0  0  0  0  0  0
  -27.9980  -29.4118   20.7649 C   0  0  0  0  0  0  0  0  0  0  0  0
  -24.1664  -11.9558   21.3175 C   0  0  0  0  0  0  0  0  0  0  0  0
  -25.0340  -11.9002   19.0634 C   0  0  0  0  0  0  0  0  0  0  0  0
  -29.0580  -28.7713   21.4051 C   0  0  0  0  0  0  0  0  0  0  0  0
  -24.3393   -8.5952   20.9867 C   0  0  0  0  0  0  0  0  0  0  0  0
  -24.2321   -7.5513   21.9056 C   0  0  0  0  0  0  0  0  0  0  0  0
  -27.5439  -27.0671   22.1940 C   0  0  0  0  0  0  0  0  0  0  0  0
  -21.8720   -8.0074   22.1486 C   0  0  0  0  0  0  0  0  0  0  0  0
  -25.9010  -13.5003   20.6523 C   0  0  0  0  0  0  0  0  0  0  0  0
  -28.1063  -14.4830   21.4760 C   0  0  0  0  0  0  0  0  0  0  0  0
  -23.9453  -34.6743   22.6132 C   0  0  0  0  0  0  0  0  0  0  0  0
  -26.6989  -28.8898   20.8437 C   0  0  0  0  0  0  0  0  0  0  0  0
  -24.5603  -33.4503   22.9389 C   0  0  0  0  0  0  0  0  0  0  0  0
  -26.4696  -27.7015   21.5518 C   0  0  0  0  0  0  0  0  0  0  0  0
  -24.1666  -11.4039   20.0365 C   0  0  0  0  0  0  0  0  0  0  0  0
  -28.8306  -27.6003   22.1222 C   0  0  0  0  0  0  0  0  0  0  0  0
  -23.2128   -9.3453   20.6488 C   0  0  0  0  0  0  0  0  0  0  0  0
  -22.9985   -7.2574   22.4865 C   0  0  0  0  0  0  0  0  0  0  0  0
  -21.9792   -9.0514   21.2297 C   0  0  0  0  0  0  0  0  0  0  0  0
  -26.7967  -14.5835   20.9696 C   0  0  0  0  0  0  0  0  0  0  0  0
  -28.5256  -15.7846   21.6044 C   0  0  0  0  0  0  0  0  0  0  0  0
  -30.2461  -24.9253   18.4710 C   0  0  0  0  0  0  0  0  0  0  0  0
  -31.4012  -24.6948   20.3814 C   0  0  0  0  0  0  0  0  0  0  0  0
  -31.0517  -22.9149   19.0597 C   0  0  0  0  0  0  0  0  0  0  0  0
  -28.8752  -13.3173   21.8012 C   0  0  0  0  0  0  0  0  0  0  0  0
  -23.9297  -29.9311   22.0062 C   0  0  0  0  0  0  0  0  0  0  0  0
  -22.7848  -27.2166   20.6486 C   0  0  0  0  0  0  0  0  0  0  0  0
  -23.4043  -24.0522   19.5306 C   0  0  0  0  0  0  0  0  0  0  0  0
  -28.8526  -20.8697   19.0841 C   0  0  0  0  0  0  0  0  0  0  0  0
  -22.4495  -34.7950   22.4624 C   0  0  0  0  0  0  0  0  0  0  0  0
  -25.5709  -29.5782   20.1252 C   0  0  0  0  0  0  0  0  0  0  0  0
  -25.0971  -27.0891   21.6499 C   0  0  0  0  0  0  0  0  0  0  0  0
  -21.7478  -33.4549   22.2575 C   0  0  0  0  0  0  0  0  0  0  0  0
  -25.9740  -20.1304   21.2906 C   0  0  0  0  0  0  0  0  0  0  0  0
  -22.2598  -32.4254   23.2598 C   0  0  0  0  0  0  0  0  0  0  0  0
  -26.0062  -18.6056   21.3805 C   0  0  0  0  0  0  0  0  0  0  0  0
  -26.5637  -20.6337   19.9766 C   0  0  0  0  0  0  0  0  0  0  0  0
  -27.9703  -18.6085   19.7921 C   0  0  0  0  0  0  0  0  0  0  0  0
  -23.7607  -32.1725   23.0730 C   0  0  1  0  0  0  0  0  0  0  0  0
  -24.1997  -29.2377   20.7008 C   0  0  1  0  0  0  0  0  0  0  0  0
  -27.4259  -18.0708   21.1240 C   0  0  2  0  0  0  0  0  0  0  0  0
  -28.0822  -26.1009   17.9999 C   0  0  0  0  0  0  0  0  0  0  0  0
  -31.2783  -21.1456   17.2765 C   0  0  0  0  0  0  0  0  0  0  0  0
  -22.9563  -21.8426   18.4287 C   0  0  0  0  0  0  0  0  0  0  0  0
  -31.4551  -18.6692   20.1232 C   0  0  0  0  0  0  0  0  0  0  0  0
  -31.4339  -20.7510   21.5335 C   0  0  0  0  0  0  0  0  0  0  0  0
  -21.5729  -26.5202   23.3609 C   0  0  0  0  0  0  0  0  0  0  0  0
  -21.2905  -24.1675   22.5526 C   0  0  0  0  0  0  0  0  0  0  0  0
  -20.0967  -26.0315   21.4023 C   0  0  0  0  0  0  0  0  0  0  0  0
  -24.2000  -25.0847   16.8736 C   0  0  0  0  0  0  0  0  0  0  0  0
  -29.4941  -25.7846   17.5126 C   0  0  0  0  0  0  0  0  0  0  0  0
  -31.9849  -25.2957   21.6350 C   0  0  0  0  0  0  0  0  0  0  0  0
  -31.1857  -24.9773   22.9005 C   0  0  0  0  0  0  0  0  0  0  0  0
  -29.7755  -25.5558   22.8856 C   0  0  0  0  0  0  0  0  0  1  0  0
  -31.2267  -21.4613   18.7786 C   0  0  2  0  0  0  0  0  0  0  0  0
  -22.5959  -25.7902   21.1055 C   0  0  1  0  0  0  0  0  0  0  0  0
  -23.0310  -23.3495   18.2379 C   0  0  2  0  0  0  0  0  0  0  0  0
  -30.6395  -19.8745   20.5738 C   0  0  0  0  0  0  0  0  0  0  0  0
  -21.4146  -25.6397   22.1053 C   0  0  0  0  0  0  0  0  0  0  0  0
  -26.4094  -15.8489   20.7889 N   0  0  0  0  0  0  0  0  0  0  0  0
  -30.7372  -25.5291   19.5654 N   0  0  0  0  0  0  0  0  0  0  0  0
  -30.3636  -23.6261   18.1522 N   0  0  0  0  0  0  0  0  0  0  0  0
  -31.5983  -23.3798   20.1946 N   0  0  0  0  0  0  0  0  0  0  0  0
  -27.4821  -16.5556   21.1839 N   0  0  0  0  0  0  0  0  0  0  0  0
  -24.0257  -27.8028   20.9356 N   0  0  0  0  0  0  0  0  0  0  0  0
  -27.8951  -20.0761   19.7370 N   0  0  0  0  0  0  0  0  0  0  0  0
  -29.6814  -16.3334   22.0350 N   0  0  0  0  0  0  0  0  0  0  0  0
  -28.2923  -12.0574   21.6087 N   0  0  0  0  0  0  0  0  0  0  0  0
  -23.9899  -31.3097   21.9339 N   0  0  0  0  0  0  0  0  0  0  0  0
  -22.4595  -24.9883   19.8944 N   0  0  0  0  0  0  0  0  0  0  0  0
  -30.1979  -20.6552   19.4202 N   0  0  0  0  0  0  0  0  0  0  0  0
  -24.0400  -23.6400   17.1803 N   0  3  0  0  0  0  0  0  0  0  0  0
  -30.0385  -13.3912   22.2646 O   0  0  0  0  0  0  0  0  0  0  0  0
  -23.6836  -29.2647   23.0047 O   0  0  0  0  0  0  0  0  0  0  0  0
  -21.8678  -27.7872   20.0526 O   0  0  0  0  0  0  0  0  0  0  0  0
  -24.4296  -23.7938   20.1572 O   0  0  0  0  0  0  0  0  0  0  0  0
  -28.5230  -21.7280   18.2554 O   0  0  0  0  0  0  0  0  0  0  0  0
  -23.3207  -10.3809   19.7358 O   0  0  0  0  0  0  0  0  0  0  0  0
  -29.8634  -26.9735   22.7485 O   0  0  0  0  0  0  0  0  0  1  0  0
  -22.8954   -6.2539   23.3678 F   0  0  0  0  0  0  0  0  0  0  0  0
  -20.8933   -9.7677   20.9080 F   0  0  0  0  0  0  0  0  0  0  0  0
  1  2  1  0  0  0  0
  1  5  2  0  0  0  0
  2  6  2  0  0  0  0
  3  8  2  0  0  0  0
  3 15  1  0  0  0  0
  4  9  1  0  0  0  0
  4 15  2  0  0  0  0
  5 17  1  0  0  0  0
  6 19  1  0  0  0  0
  7 10  2  0  0  0  0
  7 18  1  0  0  0  0
  8 21  1  0  0  0  0
  9 21  2  0  0  0  0
 10 22  1  0  0  0  0
 11 12  2  0  0  0  0
 11 23  1  0  0  0  0
 12 24  1  0  0  0  0
 13 20  1  0  0  0  0
 13 22  2  0  0  0  0
 14 24  2  0  0  0  0
 14 25  1  0  0  0  0
 15 26  1  0  0  0  0
 16 26  1  0  0  0  0
 16 27  2  0  0  0  0
 16 31  1  0  0  0  0
 17 19  2  0  0  0  0
 17 36  1  0  0  0  0
 18 20  2  0  0  0  0
 18 37  1  0  0  0  0
 19 45  1  0  0  0  0
 20 38  1  0  0  0  0
 21 84  1  0  0  0  0
 22 85  1  0  0  0  0
 23 25  2  0  0  0  0
 23 84  1  0  0  0  0
 24 86  1  0  0  0  0
 25 87  1  0  0  0  0
 26 66  2  0  0  0  0
 27 70  1  0  0  0  0
 27 73  1  0  0  0  0
 28 57  1  0  0  0  0
 28 67  1  0  0  0  0
 28 68  2  0  0  0  0
 29 58  1  0  0  0  0
 29 67  2  0  0  0  0
 29 69  1  0  0  0  0
 30 61  1  0  0  0  0
 30 68  1  0  0  0  0
 30 69  2  0  0  0  0
 31 74  1  0  0  0  0
 31 79  2  0  0  0  0
 32 46  1  0  0  0  0
 32 75  1  0  0  0  0
 32 80  2  0  0  0  0
 33 62  1  0  0  0  0
 33 71  1  0  0  0  0
 33 81  2  0  0  0  0
 34 63  1  0  0  0  0
 34 76  1  0  0  0  0
 34 82  2  0  0  0  0
 35 72  1  0  0  0  0
 35 77  1  0  0  0  0
 35 83  2  0  0  0  0
 36 39  1  0  0  0  0
 37 46  1  0  0  0  0
 38 71  1  0  0  0  0
 39 41  1  0  0  0  0
 40 42  1  0  0  0  0
 40 43  1  0  0  0  0
 41 45  1  0  0  0  0
 42 47  1  0  0  0  0
 43 72  1  0  0  0  0
 44 47  1  0  0  0  0
 44 72  1  0  0  0  0
 45 75  1  0  0  0  0
 46 71  1  0  0  0  0
 47 70  1  0  0  0  0
 48 57  1  0  0  0  0
 49 61  1  0  0  0  0
 50 63  1  0  0  0  0
 51 64  1  0  0  0  0
 52 64  1  0  0  0  0
 53 65  1  0  0  0  0
 54 65  1  0  0  0  0
 55 65  1  0  0  0  0
 56 78  1  0  0  0  0
 58 59  1  0  0  0  0
 59 60  1  0  0  0  0
 60 85  1  0  0  0  0
 61 77  1  0  0  0  0
 62 65  1  0  0  0  0
 62 76  1  0  0  0  0
 63 78  1  0  0  0  0
 64 77  1  0  0  0  0
 66 70  1  0  0  0  0
M  CHG  1  78   1
M  ISO  4  35 100  60 101  77 100  85 101
M  END
> <Batch ID>
0061

> <Smiles>
CCc1nc(CC[101CH2:1][101O:1]c2ccc3c(c2)CN(C(=O)C(NC(=O)C(C)NC)C(C)(C)C)C(C(=O)NC2CCCc4ccccc42)C3)nc(C(C)[100N:0](C(C)C)[100C:0](=O)N2CCCC(n3nc(-c4ccc(Oc5ccc(F)cc5F)cc4)c(C(N)=O)c3N)C2)n1

> <Shape>
0.281

> <Color>
0.066

> <Negative vol penalty>
0.000

$$$$

  -OEChem-04052317583D

 82 90  0     1  0  0  0  0  0999 V2000
  -24.5365  -11.2807   20.2265 C   0  0  0  0  0  0  0  0  0  0  0  0
  -23.8507  -12.4826   20.0837 C   0  0  0  0  0  0  0  0  0  0  0  0
  -29.2332  -28.1192   21.0806 C   0  0  0  0  0  0  0  0  0  0  0  0
  -28.3656  -25.8832   20.7896 C   0  0  0  0  0  0  0  0  0  0  0  0
  -25.7801  -11.2596   20.8565 C   0  0  0  0  0  0  0  0  0  0  0  0
  -24.4076  -13.6641   20.5719 C   0  0  0  0  0  0  0  0  0  0  0  0
  -23.9013  -19.2572   18.1292 C   0  0  0  0  0  0  0  0  0  0  0  0
  -30.4624  -27.5909   21.4749 C   0  0  0  0  0  0  0  0  0  0  0  0
  -29.5949  -25.3549   21.1838 C   0  0  0  0  0  0  0  0  0  0  0  0
  -23.0710  -20.3377   18.4238 C   0  0  0  0  0  0  0  0  0  0  0  0
  -33.7181  -26.8279   22.9039 C   0  0  0  0  0  0  0  0  0  0  0  0
  -34.3368  -27.3860   24.0225 C   0  0  0  0  0  0  0  0  0  0  0  0
  -24.8103  -21.2927   19.7956 C   0  0  0  0  0  0  0  0  0  0  0  0
  -32.4299  -26.7828   25.3780 C   0  0  0  0  0  0  0  0  0  0  0  0
  -19.7553  -25.6484   19.4404 C   0  0  0  0  0  0  0  0  0  0  0  0
  -28.1847  -27.2653   20.7380 C   0  0  0  0  0  0  0  0  0  0  0  0
  -26.5095  -28.1376   19.0232 C   0  0  0  0  0  0  0  0  0  0  0  0
  -26.3570  -12.4429   21.3441 C   0  0  0  0  0  0  0  0  0  0  0  0
  -25.1906  -19.1808   18.6753 C   0  0  0  0  0  0  0  0  0  0  0  0
  -25.6595  -13.6586   21.2103 C   0  0  0  0  0  0  0  0  0  0  0  0
  -25.6560  -20.2114   19.5044 C   0  0  0  0  0  0  0  0  0  0  0  0
  -20.4405  -24.8073   18.5980 C   0  0  0  0  0  0  0  0  0  0  0  0
  -30.6433  -26.2088   21.5265 C   0  0  0  0  0  0  0  0  0  0  0  0
  -23.5244  -21.3542   19.2594 C   0  0  0  0  0  0  0  0  0  0  0  0
  -32.4553  -26.2473   23.0223 C   0  0  0  0  0  0  0  0  0  0  0  0
  -33.6927  -27.3635   25.2596 C   0  0  0  0  0  0  0  0  0  0  0  0
  -31.8112  -26.2248   24.2593 C   0  0  0  0  0  0  0  0  0  0  0  0
  -26.9145  -27.8104   20.3312 C   0  0  0  0  0  0  0  0  0  0  0  0
  -20.6936  -23.6608   19.3748 C   0  0  0  0  0  0  0  0  0  0  0  0
  -25.2297  -28.6143   19.1692 C   0  0  0  0  0  0  0  0  0  0  0  0
  -27.2260  -28.0209   17.7869 C   0  0  0  0  0  0  0  0  0  0  0  0
  -26.6882  -17.1575   20.6163 C   0  0  0  0  0  0  0  0  0  0  0  0
  -29.2617  -19.0060   19.9217 C   0  0  0  0  0  0  0  0  0  0  0  0
  -30.4641  -22.0308   18.8961 C   0  0  0  0  0  0  0  0  0  0  0  0
  -20.9928  -27.7210   23.3047 C   0  0  0  0  0  0  0  0  0  0  0  0
  -27.6820  -12.3631   22.0601 C   0  0  0  0  0  0  0  0  0  0  0  0
  -26.0837  -18.0218   18.3264 C   0  0  0  0  0  0  0  0  0  0  0  0
  -27.0392  -20.1867   20.0998 C   0  0  0  0  0  0  0  0  0  0  0  0
  -28.3725  -13.7156   22.2159 C   0  0  0  0  0  0  0  0  0  0  0  0
  -22.3996  -30.8400   22.3200 C   0  0  0  0  0  0  0  0  0  0  0  0
  -27.3831  -14.7664   22.7096 C   0  0  0  0  0  0  0  0  0  0  0  0
  -23.6797  -30.4467   21.5807 C   0  0  0  0  0  0  0  0  0  0  0  0
  -22.1249  -29.9153   23.5039 C   0  0  0  0  0  0  0  0  0  0  0  0
  -23.3820  -28.0846   22.4353 C   0  0  0  0  0  0  0  0  0  0  0  0
  -26.2420  -14.9650   21.7047 C   0  0  1  0  0  0  0  0  0  0  0  0
  -27.1910  -17.7914   19.3502 C   0  0  1  0  0  0  0  0  0  0  0  0
  -23.6711  -28.9541   21.1997 C   0  0  2  0  0  0  0  0  0  0  0  0
  -20.8196  -25.0604   17.1978 C   0  0  0  0  0  0  0  0  0  0  0  0
  -32.6130  -23.2519   18.4620 C   0  0  0  0  0  0  0  0  0  0  0  0
  -29.6774  -19.3374   22.9263 C   0  0  0  0  0  0  0  0  0  0  0  0
  -31.1886  -21.2717   22.4334 C   0  0  0  0  0  0  0  0  0  0  0  0
  -31.7782  -18.9903   21.6145 C   0  0  0  0  0  0  0  0  0  0  0  0
  -18.3959  -26.8817   21.6805 C   0  0  0  0  0  0  0  0  0  0  0  0
  -17.8237  -24.5175   22.1690 C   0  0  0  0  0  0  0  0  0  0  0  0
  -29.7918  -22.4372   16.0427 C   0  0  0  0  0  0  0  0  0  0  0  0
  -21.4148  -22.4114   18.9624 C   0  0  0  0  0  0  0  0  0  1  0  0
  -19.9877  -25.4697   23.0200 C   0  0  0  0  0  0  0  0  0  0  0  0
  -29.8783  -20.2480   20.5187 C   0  0  1  0  0  0  0  0  0  0  0  0
  -31.5077  -22.4002   17.8574 C   0  0  2  0  0  0  0  0  0  0  0  0
  -30.6038  -19.9616   21.8637 C   0  0  0  0  0  0  0  0  0  0  0  0
  -18.9991  -25.4627   21.8222 C   0  0  0  0  0  0  0  0  0  0  0  0
  -25.9687  -28.0584   21.2411 N   0  0  0  0  0  0  0  0  0  0  0  0
  -20.2088  -23.7611   20.6153 N   0  0  0  0  0  0  0  0  0  0  0  0
  -19.6442  -24.9807   20.6245 N   0  0  0  0  0  0  0  0  0  0  0  0
  -24.9567  -28.5466   20.5038 N   0  0  0  0  0  0  0  0  0  0  0  0
  -27.8725  -19.0294   19.7340 N   0  0  0  0  0  0  0  0  0  0  0  0
  -22.1287  -28.5146   23.0748 N   0  0  0  0  0  0  0  0  0  0  0  0
  -24.3225  -29.0806   18.2849 N   0  0  0  0  0  0  0  0  0  0  0  0
  -28.5313  -27.5114   17.8166 N   0  0  0  0  0  0  0  0  0  0  0  0
  -26.6848  -15.7759   20.5908 N   0  0  0  0  0  0  0  0  0  0  0  0
  -30.7378  -20.8143   19.4849 N   0  0  0  0  0  0  0  0  0  0  0  0
  -21.0774  -26.4069   22.8611 N   0  0  0  0  0  0  0  0  0  0  0  0
  -30.8809  -23.1656   16.7429 N   0  3  0  0  0  0  0  0  0  0  0  0
  -26.7297  -28.3739   16.6903 O   0  0  0  0  0  0  0  0  0  0  0  0
  -26.3312  -17.8691   21.5479 O   0  0  0  0  0  0  0  0  0  0  0  0
  -29.9870  -18.0530   19.6261 O   0  0  0  0  0  0  0  0  0  0  0  0
  -29.5043  -22.7511   19.1614 O   0  0  0  0  0  0  0  0  0  0  0  0
  -19.9764  -28.1530   23.8589 O   0  0  0  0  0  0  0  0  0  0  0  0
  -31.8427  -25.6930   21.9109 O   0  0  0  0  0  0  0  0  0  0  0  0
  -22.7157  -22.4097   19.5490 O   0  0  0  0  0  0  0  0  0  1  0  0
  -34.2876  -27.8981   26.3341 F   0  0  0  0  0  0  0  0  0  0  0  0
  -30.5985  -25.6673   24.3795 F   0  0  0  0  0  0  0  0  0  0  0  0
  1  2  1  0  0  0  0
  1  5  2  0  0  0  0
  2  6  2  0  0  0  0
  3  8  2  0  0  0  0
  3 16  1  0  0  0  0
  4  9  1  0  0  0  0
  4 16  2  0  0  0  0
  5 18  1  0  0  0  0
  6 20  1  0  0  0  0
  7 10  2  0  0  0  0
  7 19  1  0  0  0  0
  8 23  1  0  0  0  0
  9 23  2  0  0  0  0
 10 24  1  0  0  0  0
 11 12  2  0  0  0  0
 11 25  1  0  0  0  0
 12 26  1  0  0  0  0
 13 21  1  0  0  0  0
 13 24  2  0  0  0  0
 14 26  2  0  0  0  0
 14 27  1  0  0  0  0
 15 22  2  0  0  0  0
 15 64  1  0  0  0  0
 16 28  1  0  0  0  0
 17 28  1  0  0  0  0
 17 30  2  0  0  0  0
 17 31  1  0  0  0  0
 18 20  2  0  0  0  0
 18 36  1  0  0  0  0
 19 21  2  0  0  0  0
 19 37  1  0  0  0  0
 20 45  1  0  0  0  0
 21 38  1  0  0  0  0
 22 29  1  0  0  0  0
 22 48  1  0  0  0  0
 23 79  1  0  0  0  0
 24 80  1  0  0  0  0
 25 27  2  0  0  0  0
 25 79  1  0  0  0  0
 26 81  1  0  0  0  0
 27 82  1  0  0  0  0
 28 62  2  0  0  0  0
 29 56  1  0  0  0  0
 29 63  2  0  0  0  0
 30 65  1  0  0  0  0
 30 68  1  0  0  0  0
 31 69  1  0  0  0  0
 31 74  2  0  0  0  0
 32 46  1  0  0  0  0
 32 70  1  0  0  0  0
 32 75  2  0  0  0  0
 33 58  1  0  0  0  0
 33 66  1  0  0  0  0
 33 76  2  0  0  0  0
 34 59  1  0  0  0  0
 34 71  1  0  0  0  0
 34 77  2  0  0  0  0
 35 67  1  0  0  0  0
 35 72  1  0  0  0  0
 35 78  2  0  0  0  0
 36 39  1  0  0  0  0
 37 46  1  0  0  0  0
 38 66  1  0  0  0  0
 39 41  1  0  0  0  0
 40 42  1  0  0  0  0
 40 43  1  0  0  0  0
 41 45  1  0  0  0  0
 42 47  1  0  0  0  0
 43 67  1  0  0  0  0
 44 47  1  0  0  0  0
 44 67  1  0  0  0  0
 45 70  1  0  0  0  0
 46 66  1  0  0  0  0
 47 65  1  0  0  0  0
 49 59  1  0  0  0  0
 50 60  1  0  0  0  0
 51 60  1  0  0  0  0
 52 60  1  0  0  0  0
 53 61  1  0  0  0  0
 54 61  1  0  0  0  0
 55 73  1  0  0  0  0
 56 80  1  0  0  0  0
 57 61  1  0  0  0  0
 57 72  1  0  0  0  0
 58 60  1  0  0  0  0
 58 71  1  0  0  0  0
 59 73  1  0  0  0  0
 61 64  1  0  0  0  0
 62 65  1  0  0  0  0
 63 64  1  0  0  0  0
M  CHG  1  73   1
M  ISO  4  35 100  56 101  72 100  80 101
M  END
> <Batch ID>
0061

> <Smiles>
CNC(C)C(=O)NC(C(=O)N1Cc2cc([101O:1][101CH2:1]c3nn(C(C)(C)C[100NH:0][100C:0](=O)N4CCCC(n5nc(-c6ccc(Oc7ccc(F)cc7F)cc6)c(C(N)=O)c5N)C4)cc3C)ccc2CC1C(=O)NC1CCCc2ccccc21)C(C)(C)C

> <Shape>
0.216

> <Color>
0.065

> <Negative vol penalty>
0.000

$$$$

  -OEChem-04052317583D

 81 89  0     1  0  0  0  0  0999 V2000
  -32.5978  -32.4734   19.2869 C   0  0  0  0  0  0  0  0  0  0  0  0
  -32.9749  -31.1577   19.5361 C   0  0  0  0  0  0  0  0  0  0  0  0
  -23.1405   -9.8240   19.8843 C   0  0  0  0  0  0  0  0  0  0  0  0
  -23.9204   -9.7793   22.1706 C   0  0  0  0  0  0  0  0  0  0  0  0
  -31.2463  -32.8117   19.2331 C   0  0  0  0  0  0  0  0  0  0  0  0
  -32.0006  -30.1796   19.7326 C   0  0  0  0  0  0  0  0  0  0  0  0
  -32.2889  -24.3025   18.0349 C   0  0  0  0  0  0  0  0  0  0  0  0
  -22.4498   -8.6309   20.0967 C   0  0  0  0  0  0  0  0  0  0  0  0
  -23.2296   -8.5863   22.3829 C   0  0  0  0  0  0  0  0  0  0  0  0
  -32.6137  -23.1396   18.7320 C   0  0  0  0  0  0  0  0  0  0  0  0
  -20.0448   -7.6263   22.9796 C   0  0  0  0  0  0  0  0  0  0  0  0
  -19.3011   -7.5100   24.1539 C   0  0  0  0  0  0  0  0  0  0  0  0
  -30.2691  -22.7241   19.1190 C   0  0  0  0  0  0  0  0  0  0  0  0
  -20.6322   -5.6028   24.8080 C   0  0  0  0  0  0  0  0  0  0  0  0
  -31.8304  -18.0437   17.8339 C   0  0  0  0  0  0  0  0  0  0  0  0
  -30.6086  -17.4923   17.5692 C   0  0  0  0  0  0  0  0  0  0  0  0
  -23.8759  -10.3982   20.9213 C   0  0  0  0  0  0  0  0  0  0  0  0
  -24.1067  -12.9386   20.8931 C   0  0  0  0  0  0  0  0  0  0  0  0
  -30.2549  -31.8355   19.4195 C   0  0  0  0  0  0  0  0  0  0  0  0
  -30.9501  -24.6913   17.8836 C   0  0  0  0  0  0  0  0  0  0  0  0
  -30.6346  -30.5055   19.6825 C   0  0  0  0  0  0  0  0  0  0  0  0
  -29.9299  -23.8910   18.4172 C   0  0  0  0  0  0  0  0  0  0  0  0
  -22.4943   -8.0121   21.3460 C   0  0  0  0  0  0  0  0  0  0  0  0
  -31.6039  -22.3517   19.2767 C   0  0  0  0  0  0  0  0  0  0  0  0
  -21.0822   -6.7308   22.7195 C   0  0  0  0  0  0  0  0  0  0  0  0
  -19.5948   -6.4983   25.0681 C   0  0  0  0  0  0  0  0  0  0  0  0
  -21.3759   -5.7191   23.6337 C   0  0  0  0  0  0  0  0  0  0  0  0
  -24.5902  -11.6302   20.7024 C   0  0  0  0  0  0  0  0  0  0  0  0
  -25.1618  -13.7480   20.5498 C   0  0  0  0  0  0  0  0  0  0  0  0
  -30.6464  -18.0765   19.7041 C   0  0  0  0  0  0  0  0  0  0  0  0
  -22.8189  -13.3825   21.3406 C   0  0  0  0  0  0  0  0  0  0  0  0
  -29.2300  -27.2082   18.7835 C   0  0  0  0  0  0  0  0  0  0  0  0
  -26.9302  -25.7871   16.9908 C   0  0  0  0  0  0  0  0  0  0  0  0
  -25.6869  -22.9225   15.6143 C   0  0  0  0  0  0  0  0  0  0  0  0
  -30.5977  -14.9983   20.7346 C   0  0  0  0  0  0  0  0  0  0  0  0
  -28.8072  -32.2580   19.3992 C   0  0  0  0  0  0  0  0  0  0  0  0
  -30.6151  -25.9344   17.1058 C   0  0  0  0  0  0  0  0  0  0  0  0
  -28.4760  -24.2537   18.2653 C   0  0  0  0  0  0  0  0  0  0  0  0
  -27.8344  -31.0915   19.2463 C   0  0  0  0  0  0  0  0  0  0  0  0
  -29.5428  -12.6562   18.2691 C   0  0  0  0  0  0  0  0  0  0  0  0
  -28.2092  -29.9562   20.1937 C   0  0  0  0  0  0  0  0  0  0  0  0
  -28.1235  -12.2841   18.7017 C   0  0  0  0  0  0  0  0  0  0  0  0
  -30.4605  -12.8723   19.4705 C   0  0  0  0  0  0  0  0  0  0  0  0
  -28.5416  -13.4678   20.8977 C   0  0  0  0  0  0  0  0  0  0  0  0
  -29.6070  -29.4115   19.8763 C   0  0  1  0  0  0  0  0  0  0  0  0
  -29.2446  -26.5065   17.4550 C   0  0  1  0  0  0  0  0  0  0  0  0
  -27.5652  -13.2944   19.7218 C   0  0  2  0  0  0  0  0  0  0  0  0
  -28.7163  -18.5881   21.2328 C   0  0  0  0  0  0  0  0  0  0  0  0
  -23.7726  -22.0699   14.2338 C   0  0  0  0  0  0  0  0  0  0  0  0
  -25.0993  -25.9633   19.4253 C   0  0  0  0  0  0  0  0  0  0  0  0
  -23.5939  -24.2912   18.3271 C   0  0  0  0  0  0  0  0  0  0  0  0
  -23.9946  -26.5041   17.2478 C   0  0  0  0  0  0  0  0  0  0  0  0
  -27.4975  -22.0025   13.4615 C   0  0  0  0  0  0  0  0  0  0  0  0
  -32.9761  -19.0468   19.8916 C   0  0  0  0  0  0  0  0  0  0  0  0
  -30.5814  -17.1024   22.0505 C   0  0  0  0  0  0  0  0  0  0  0  0
  -33.1058  -20.5304   19.5646 C   0  0  0  0  0  0  0  0  0  1  0  0
  -30.2274  -18.2857   21.1123 C   0  0  1  0  0  0  0  0  0  0  0  0
  -25.8405  -24.7765   17.2554 C   0  0  1  0  0  0  0  0  0  0  0  0
  -25.1942  -22.6097   14.2129 C   0  0  2  0  0  0  0  0  0  0  0  0
  -24.6595  -25.3777   18.0686 C   0  0  0  0  0  0  0  0  0  0  0  0
  -25.8541  -11.6054   20.2713 N   0  0  0  0  0  0  0  0  0  0  0  0
  -31.8258  -18.3966   19.1619 N   0  0  0  0  0  0  0  0  0  0  0  0
  -26.1737  -12.9081   20.1881 N   0  0  0  0  0  0  0  0  0  0  0  0
  -29.8968  -17.5252   18.7441 N   0  3  0  0  0  0  0  0  0  0  0  0
  -28.1996  -25.4818   17.5018 N   0  0  0  0  0  0  0  0  0  0  0  0
  -29.8739  -13.8423   20.3984 N   0  0  0  0  0  0  0  0  0  0  0  0
  -25.3136  -15.0892   20.5250 N   0  0  0  0  0  0  0  0  0  0  0  0
  -21.8505  -12.4180   21.6513 N   0  0  0  0  0  0  0  0  0  0  0  0
  -29.5615  -28.5480   18.7158 N   0  0  0  0  0  0  0  0  0  0  0  0
  -25.4576  -24.2389   15.9543 N   0  0  0  0  0  0  0  0  0  0  0  0
  -29.9665  -15.8682   21.6153 N   0  0  0  0  0  0  0  0  0  0  0  0
  -26.0736  -21.5930   13.5695 N   0  3  0  0  0  0  0  0  0  0  0  0
  -22.5299  -14.5986   21.4456 O   0  0  0  0  0  0  0  0  0  0  0  0
  -28.9380  -26.5810   19.7950 O   0  0  0  0  0  0  0  0  0  0  0  0
  -26.6666  -26.8064   16.3480 O   0  0  0  0  0  0  0  0  0  0  0  0
  -26.2185  -22.0820   16.3365 O   0  0  0  0  0  0  0  0  0  0  0  0
  -31.7207  -15.2399   20.2793 O   0  0  0  0  0  0  0  0  0  0  0  0
  -21.8201   -6.8481   21.5536 O   0  0  0  0  0  0  0  0  0  0  0  0
  -31.9181  -21.2166   19.9582 O   0  0  0  0  0  0  0  0  0  1  0  0
  -18.8815   -6.3877   26.1965 F   0  0  0  0  0  0  0  0  0  0  0  0
  -22.3721   -4.8566   23.3899 F   0  0  0  0  0  0  0  0  0  0  0  0
  1  2  1  0  0  0  0
  1  5  2  0  0  0  0
  2  6  2  0  0  0  0
  3  8  2  0  0  0  0
  3 17  1  0  0  0  0
  4  9  1  0  0  0  0
  4 17  2  0  0  0  0
  5 19  1  0  0  0  0
  6 21  1  0  0  0  0
  7 10  2  0  0  0  0
  7 20  1  0  0  0  0
  8 23  1  0  0  0  0
  9 23  2  0  0  0  0
 10 24  1  0  0  0  0
 11 12  2  0  0  0  0
 11 25  1  0  0  0  0
 12 26  1  0  0  0  0
 13 22  1  0  0  0  0
 13 24  2  0  0  0  0
 14 26  2  0  0  0  0
 14 27  1  0  0  0  0
 15 16  2  0  0  0  0
 15 62  1  0  0  0  0
 16 64  1  0  0  0  0
 17 28  1  0  0  0  0
 18 28  1  0  0  0  0
 18 29  2  0  0  0  0
 18 31  1  0  0  0  0
 19 21  2  0  0  0  0
 19 36  1  0  0  0  0
 20 22  2  0  0  0  0
 20 37  1  0  0  0  0
 21 45  1  0  0  0  0
 22 38  1  0  0  0  0
 23 78  1  0  0  0  0
 24 79  1  0  0  0  0
 25 27  2  0  0  0  0
 25 78  1  0  0  0  0
 26 80  1  0  0  0  0
 27 81  1  0  0  0  0
 28 61  2  0  0  0  0
 29 63  1  0  0  0  0
 29 67  1  0  0  0  0
 30 57  1  0  0  0  0
 30 62  1  0  0  0  0
 30 64  2  0  0  0  0
 31 68  1  0  0  0  0
 31 73  2  0  0  0  0
 32 46  1  0  0  0  0
 32 69  1  0  0  0  0
 32 74  2  0  0  0  0
 33 58  1  0  0  0  0
 33 65  1  0  0  0  0
 33 75  2  0  0  0  0
 34 59  1  0  0  0  0
 34 70  1  0  0  0  0
 34 76  2  0  0  0  0
 35 66  1  0  0  0  0
 35 71  1  0  0  0  0
 35 77  2  0  0  0  0
 36 39  1  0  0  0  0
 37 46  1  0  0  0  0
 38 65  1  0  0  0  0
 39 41  1  0  0  0  0
 40 42  1  0  0  0  0
 40 43  1  0  0  0  0
 41 45  1  0  0  0  0
 42 47  1  0  0  0  0
 43 66  1  0  0  0  0
 44 47  1  0  0  0  0
 44 66  1  0  0  0  0
 45 69  1  0  0  0  0
 46 65  1  0  0  0  0
 47 63  1  0  0  0  0
 48 57  1  0  0  0  0
 49 59  1  0  0  0  0
 50 60  1  0  0  0  0
 51 60  1  0  0  0  0
 52 60  1  0  0  0  0
 53 72  1  0  0  0  0
 54 56  1  0  0  0  0
 54 62  1  0  0  0  0
 55 57  1  0  0  0  0
 55 71  1  0  0  0  0
 56 79  1  0  0  0  0
 58 60  1  0  0  0  0
 58 70  1  0  0  0  0
 59 72  1  0  0  0  0
 61 63  1  0  0  0  0
M  CHG  2  64   1  72   1
M  ISO  4  35 100  56 101  71 100  79 101
M  END
> <Batch ID>
0061

> <Smiles>
CNC(C)C(=O)NC(C(=O)N1Cc2cc([101O:1][101CH2:1]Cn3ccnc3C(C)C[100NH:0][100C:0](=O)N3CCCC(n4nc(-c5ccc(Oc6ccc(F)cc6F)cc5)c(C(N)=O)c4N)C3)ccc2CC1C(=O)NC1CCCc2ccccc21)C(C)(C)C

> <Shape>
0.256

> <Color>
0.196

> <Negative vol penalty>
0.000

$$$$

  -OEChem-04052317583D

 81 89  0     1  0  0  0  0  0999 V2000
  -23.0803  -22.4541   15.7440 C   0  0  0  0  0  0  0  0  0  0  0  0
  -23.0142  -23.3787   16.7813 C   0  0  0  0  0  0  0  0  0  0  0  0
  -26.9698  -15.1103   20.0386 C   0  0  0  0  0  0  0  0  0  0  0  0
  -26.4883  -14.7620   22.3804 C   0  0  0  0  0  0  0  0  0  0  0  0
  -24.1743  -21.5953   15.6457 C   0  0  0  0  0  0  0  0  0  0  0  0
  -24.0417  -23.4444   17.7217 C   0  0  0  0  0  0  0  0  0  0  0  0
  -25.4487  -28.2029   18.7326 C   0  0  0  0  0  0  0  0  0  0  0  0
  -26.6958  -13.7669   19.7824 C   0  0  0  0  0  0  0  0  0  0  0  0
  -26.2143  -13.4185   22.1242 C   0  0  0  0  0  0  0  0  0  0  0  0
  -24.6301  -28.9412   19.5861 C   0  0  0  0  0  0  0  0  0  0  0  0
  -25.0380   -9.9797   22.0275 C   0  0  0  0  0  0  0  0  0  0  0  0
  -23.8991   -9.4264   22.6125 C   0  0  0  0  0  0  0  0  0  0  0  0
  -26.1437  -28.4980   21.4114 C   0  0  0  0  0  0  0  0  0  0  0  0
  -22.5213  -11.0382   21.4545 C   0  0  0  0  0  0  0  0  0  0  0  0
  -21.6591  -26.6818   22.0889 C   0  0  0  0  0  0  0  0  0  0  0  0
  -21.6833  -26.8534   24.2858 C   0  0  0  0  0  0  0  0  0  0  0  0
  -26.8662  -15.6079   21.3376 C   0  0  0  0  0  0  0  0  0  0  0  0
  -28.3617  -17.6742   21.3749 C   0  0  0  0  0  0  0  0  0  0  0  0
  -25.2203  -21.6571   16.5798 C   0  0  0  0  0  0  0  0  0  0  0  0
  -26.6173  -27.5964   19.2154 C   0  0  0  0  0  0  0  0  0  0  0  0
  -25.1501  -22.5848   17.6366 C   0  0  0  0  0  0  0  0  0  0  0  0
  -26.9768  -27.7546   20.5614 C   0  0  0  0  0  0  0  0  0  0  0  0
  -26.3180  -12.9210   20.8252 C   0  0  0  0  0  0  0  0  0  0  0  0
  -24.9760  -29.0865   20.9264 C   0  0  0  0  0  0  0  0  0  0  0  0
  -24.9186  -11.0623   21.1561 C   0  0  0  0  0  0  0  0  0  0  0  0
  -22.6407   -9.9556   22.3260 C   0  0  0  0  0  0  0  0  0  0  0  0
  -23.6603  -11.5915   20.8695 C   0  0  0  0  0  0  0  0  0  0  0  0
  -27.1497  -16.9954   21.6030 C   0  0  0  0  0  0  0  0  0  0  0  0
  -21.6880  -25.4453   22.6896 C   0  0  0  0  0  0  0  0  0  0  0  0
  -28.1181  -18.9607   21.7897 C   0  0  0  0  0  0  0  0  0  0  0  0
  -29.5973  -17.1854   20.8362 C   0  0  0  0  0  0  0  0  0  0  0  0
  -27.6564  -24.6019   19.4539 C   0  0  0  0  0  0  0  0  0  0  0  0
  -30.3941  -26.0418   20.4308 C   0  0  0  0  0  0  0  0  0  0  0  0
  -31.8955  -28.7797   21.8079 C   0  0  0  0  0  0  0  0  0  0  0  0
  -23.1290  -22.0951   22.1625 C   0  0  0  0  0  0  0  0  0  0  0  0
  -26.3597  -20.6762   16.4597 C   0  0  0  0  0  0  0  0  0  0  0  0
  -27.5035  -26.8256   18.2758 C   0  0  0  0  0  0  0  0  0  0  0  0
  -28.2314  -27.1405   21.1246 C   0  0  0  0  0  0  0  0  0  0  0  0
  -27.5864  -21.0640   17.2813 C   0  0  0  0  0  0  0  0  0  0  0  0
  -25.4411  -21.4578   24.8728 C   0  0  0  0  0  0  0  0  0  0  0  0
  -27.1760  -21.4762   18.6914 C   0  0  0  0  0  0  0  0  0  0  0  0
  -26.2595  -20.2956   24.3074 C   0  0  0  0  0  0  0  0  0  0  0  0
  -23.9736  -21.3483   24.4694 C   0  0  0  0  0  0  0  0  0  0  0  0
  -24.5611  -20.0905   22.4331 C   0  0  0  0  0  0  0  0  0  0  0  0
  -26.2568  -22.7033   18.6619 C   0  0  1  0  0  0  0  0  0  0  0  0
  -28.4022  -25.8214   18.9908 C   0  0  1  0  0  0  0  0  0  0  0  0
  -26.0580  -20.1558   22.7869 C   0  0  2  0  0  0  0  0  0  0  0  0
  -20.2929  -23.5475   21.7876 C   0  0  0  0  0  0  0  0  0  0  0  0
  -34.1410  -29.6472   22.5168 C   0  0  0  0  0  0  0  0  0  0  0  0
  -30.2908  -24.2723   22.9143 C   0  0  0  0  0  0  0  0  0  0  0  0
  -31.9523  -25.8053   23.9903 C   0  0  0  0  0  0  0  0  0  0  0  0
  -32.5710  -24.5500   21.9253 C   0  0  0  0  0  0  0  0  0  0  0  0
  -31.7538  -31.0391   19.9015 C   0  0  0  0  0  0  0  0  0  0  0  0
  -22.7975  -29.7670   23.7234 C   0  0  0  0  0  0  0  0  0  0  0  0
  -21.6341  -29.0769   23.0077 C   0  0  0  0  0  0  0  0  0  0  0  0
  -24.1601  -29.4194   23.1353 C   0  0  0  0  0  0  0  0  0  1  0  0
  -21.7019  -24.1218   22.0482 C   0  0  2  0  0  0  0  0  0  0  0  0
  -30.9527  -26.4855   21.7612 C   0  0  1  0  0  0  0  0  0  0  0  0
  -33.1210  -29.5728   21.3913 C   0  0  2  0  0  0  0  0  0  0  0  0
  -31.4170  -25.2884   22.6379 C   0  0  0  0  0  0  0  0  0  0  0  0
  -21.7026  -25.5590   24.0573 N   0  0  0  0  0  0  0  0  0  0  0  0
  -26.2062  -17.7854   22.1225 N   0  0  0  0  0  0  0  0  0  0  0  0
  -21.6559  -27.5737   23.1241 N   0  0  0  0  0  0  0  0  0  0  0  0
  -26.8255  -18.9737   22.2244 N   0  0  0  0  0  0  0  0  0  0  0  0
  -29.0619  -26.3909   20.1675 N   0  0  0  0  0  0  0  0  0  0  0  0
  -23.8503  -21.2369   23.0091 N   0  0  0  0  0  0  0  0  0  0  0  0
  -28.8858  -20.0707   21.8214 N   0  0  0  0  0  0  0  0  0  0  0  0
  -30.5515  -16.6633   21.7201 N   0  0  0  0  0  0  0  0  0  0  0  0
  -27.0280  -23.9072   18.4380 N   0  0  0  0  0  0  0  0  0  0  0  0
  -32.0054  -27.4498   21.4608 N   0  0  0  0  0  0  0  0  0  0  0  0
  -22.4788  -23.1520   22.7878 N   0  0  0  0  0  0  0  0  0  0  0  0
  -32.7354  -30.9620   21.0139 N   0  3  0  0  0  0  0  0  0  0  0  0
  -29.8545  -17.2260   19.6091 O   0  0  0  0  0  0  0  0  0  0  0  0
  -27.6527  -24.3119   20.6445 O   0  0  0  0  0  0  0  0  0  0  0  0
  -31.1154  -25.4151   19.6507 O   0  0  0  0  0  0  0  0  0  0  0  0
  -30.9381  -29.2883   22.3869 O   0  0  0  0  0  0  0  0  0  0  0  0
  -23.0729  -21.9346   20.9385 O   0  0  0  0  0  0  0  0  0  0  0  0
  -26.0503  -11.6101   20.5755 O   0  0  0  0  0  0  0  0  0  0  0  0
  -24.1785  -29.8061   21.7618 O   0  0  0  0  0  0  0  0  0  1  0  0
  -21.5469   -9.4232   22.8866 F   0  0  0  0  0  0  0  0  0  0  0  0
  -23.5391  -12.6307   20.0322 F   0  0  0  0  0  0  0  0  0  0  0  0
  1  2  1  0  0  0  0
  1  5  2  0  0  0  0
  2  6  2  0  0  0  0
  3  8  2  0  0  0  0
  3 17  1  0  0  0  0
  4  9  1  0  0  0  0
  4 17  2  0  0  0  0
  5 19  1  0  0  0  0
  6 21  1  0  0  0  0
  7 10  2  0  0  0  0
  7 20  1  0  0  0  0
  8 23  1  0  0  0  0
  9 23  2  0  0  0  0
 10 24  1  0  0  0  0
 11 12  2  0  0  0  0
 11 25  1  0  0  0  0
 12 26  1  0  0  0  0
 13 22  1  0  0  0  0
 13 24  2  0  0  0  0
 14 26  2  0  0  0  0
 14 27  1  0  0  0  0
 15 29  2  0  0  0  0
 15 63  1  0  0  0  0
 16 61  2  0  0  0  0
 16 63  1  0  0  0  0
 17 28  1  0  0  0  0
 18 28  1  0  0  0  0
 18 30  2  0  0  0  0
 18 31  1  0  0  0  0
 19 21  2  0  0  0  0
 19 36  1  0  0  0  0
 20 22  2  0  0  0  0
 20 37  1  0  0  0  0
 21 45  1  0  0  0  0
 22 38  1  0  0  0  0
 23 78  1  0  0  0  0
 24 79  1  0  0  0  0
 25 27  2  0  0  0  0
 25 78  1  0  0  0  0
 26 80  1  0  0  0  0
 27 81  1  0  0  0  0
 28 62  2  0  0  0  0
 29 57  1  0  0  0  0
 29 61  1  0  0  0  0
 30 64  1  0  0  0  0
 30 67  1  0  0  0  0
 31 68  1  0  0  0  0
 31 73  2  0  0  0  0
 32 46  1  0  0  0  0
 32 69  1  0  0  0  0
 32 74  2  0  0  0  0
 33 58  1  0  0  0  0
 33 65  1  0  0  0  0
 33 75  2  0  0  0  0
 34 59  1  0  0  0  0
 34 70  1  0  0  0  0
 34 76  2  0  0  0  0
 35 66  1  0  0  0  0
 35 71  1  0  0  0  0
 35 77  2  0  0  0  0
 36 39  1  0  0  0  0
 37 46  1  0  0  0  0
 38 65  1  0  0  0  0
 39 41  1  0  0  0  0
 40 42  1  0  0  0  0
 40 43  1  0  0  0  0
 41 45  1  0  0  0  0
 42 47  1  0  0  0  0
 43 66  1  0  0  0  0
 44 47  1  0  0  0  0
 44 66  1  0  0  0  0
 45 69  1  0  0  0  0
 46 65  1  0  0  0  0
 47 64  1  0  0  0  0
 48 57  1  0  0  0  0
 49 59  1  0  0  0  0
 50 60  1  0  0  0  0
 51 60  1  0  0  0  0
 52 60  1  0  0  0  0
 53 72  1  0  0  0  0
 54 55  1  0  0  0  0
 54 56  1  0  0  0  0
 55 63  1  0  0  0  0
 56 79  1  0  0  0  0
 57 71  1  0  0  0  0
 58 60  1  0  0  0  0
 58 70  1  0  0  0  0
 59 72  1  0  0  0  0
 62 64  1  0  0  0  0
M  CHG  1  72   1
M  ISO  4  35 100  56 101  71 100  79 101
M  END
> <Batch ID>
0061

> <Smiles>
CNC(C)C(=O)NC(C(=O)N1Cc2cc([101O:1][101CH2:1]CCn3cnc(C(C)[100NH:0][100C:0](=O)N4CCCC(n5nc(-c6ccc(Oc7ccc(F)cc7F)cc6)c(C(N)=O)c5N)C4)c3)ccc2CC1C(=O)NC1CCCc2ccccc21)C(C)(C)C

> <Shape>
0.188

> <Color>
0.066

> <Negative vol penalty>
0.000

$$$$

  -OEChem-04052317583D

 86 94  0     1  0  0  0  0  0999 V2000
  -18.5651  -26.9471   23.1190 C   0  0  0  0  0  0  0  0  0  0  0  0
  -19.4317  -26.3355   22.2188 C   0  0  0  0  0  0  0  0  0  0  0  0
  -26.6368  -11.9279   21.1779 C   0  0  0  0  0  0  0  0  0  0  0  0
  -25.7777  -14.0247   20.3397 C   0  0  0  0  0  0  0  0  0  0  0  0
  -18.6045  -28.3299   23.2930 C   0  0  0  0  0  0  0  0  0  0  0  0
  -20.3376  -27.1064   21.4913 C   0  0  0  0  0  0  0  0  0  0  0  0
  -24.9745  -25.0735   21.3872 C   0  0  0  0  0  0  0  0  0  0  0  0
  -25.3544  -11.3818   21.1263 C   0  0  0  0  0  0  0  0  0  0  0  0
  -24.4952  -13.4785   20.2880 C   0  0  0  0  0  0  0  0  0  0  0  0
  -25.1844  -24.0112   20.5090 C   0  0  0  0  0  0  0  0  0  0  0  0
  -22.5295  -11.4797   22.9795 C   0  0  0  0  0  0  0  0  0  0  0  0
  -22.0978  -10.7360   24.0778 C   0  0  0  0  0  0  0  0  0  0  0  0
  -26.2142  -25.5227   18.9361 C   0  0  0  0  0  0  0  0  0  0  0  0
  -21.8128   -8.8029   22.6569 C   0  0  0  0  0  0  0  0  0  0  0  0
  -26.8485  -13.2494   20.7847 C   0  0  0  0  0  0  0  0  0  0  0  0
  -29.1433  -13.8045   19.8185 C   0  0  0  0  0  0  0  0  0  0  0  0
  -19.5180  -29.1171   22.5743 C   0  0  0  0  0  0  0  0  0  0  0  0
  -25.3737  -26.3725   21.0412 C   0  0  0  0  0  0  0  0  0  0  0  0
  -20.3884  -28.5012   21.6548 C   0  0  0  0  0  0  0  0  0  0  0  0
  -26.0105  -26.5994   19.8128 C   0  0  0  0  0  0  0  0  0  0  0  0
  -29.2578  -19.4947   20.3435 C   0  0  0  0  0  0  0  0  0  0  0  0
  -24.2836  -12.1571   20.6813 C   0  0  0  0  0  0  0  0  0  0  0  0
  -25.8017  -24.2362   19.2821 C   0  0  0  0  0  0  0  0  0  0  0  0
  -22.6027  -10.8850   21.7198 C   0  0  0  0  0  0  0  0  0  0  0  0
  -21.7395   -9.3976   23.9165 C   0  0  0  0  0  0  0  0  0  0  0  0
  -22.2444   -9.5466   21.5585 C   0  0  0  0  0  0  0  0  0  0  0  0
  -28.1729  -13.8143   20.8383 C   0  0  0  0  0  0  0  0  0  0  0  0
  -29.2713  -19.3297   21.7415 C   0  0  0  0  0  0  0  0  0  0  0  0
  -27.9264  -19.4669   20.0074 C   0  0  0  0  0  0  0  0  0  0  0  0
  -30.2190  -14.4634   20.3617 C   0  0  0  0  0  0  0  0  0  0  0  0
  -29.0781  -13.2494   18.4981 C   0  0  0  0  0  0  0  0  0  0  0  0
  -23.8698  -29.1367   20.5925 C   0  0  0  0  0  0  0  0  0  0  0  0
  -26.8896  -30.2879   20.3135 C   0  0  0  0  0  0  0  0  0  0  0  0
  -30.1699  -29.6738   19.5995 C   0  0  0  0  0  0  0  0  0  0  0  0
  -30.2901  -18.4455   25.0175 C   0  0  0  0  0  0  0  0  0  0  0  0
  -19.4912  -30.6135   22.7613 C   0  0  0  0  0  0  0  0  0  0  0  0
  -25.1642  -27.5031   22.0109 C   0  0  0  0  0  0  0  0  0  0  0  0
  -26.4762  -27.9717   19.4025 C   0  0  0  0  0  0  0  0  0  0  0  0
  -20.7367  -31.3164   22.2276 C   0  0  0  0  0  0  0  0  0  0  0  0
  -32.3321  -15.3944   24.5454 C   0  0  0  0  0  0  0  0  0  0  0  0
  -21.0852  -30.8008   20.8350 C   0  0  0  0  0  0  0  0  0  0  0  0
  -31.5313  -14.6156   23.5032 C   0  0  0  0  0  0  0  0  0  0  0  0
  -31.4368  -16.2925   25.3936 C   0  0  0  0  0  0  0  0  0  0  0  0
  -29.7891  -16.4439   23.5561 C   0  0  0  0  0  0  0  0  0  0  0  0
  -21.4022  -29.3007   20.8654 C   0  0  1  0  0  0  0  0  0  0  0  0
  -25.1473  -28.8721   21.3379 C   0  0  1  0  0  0  0  0  0  0  0  0
  -30.6675  -15.5642   22.6539 C   0  0  2  0  0  0  0  0  0  0  0  0
  -31.4029  -18.4933   19.5176 C   0  0  0  0  0  0  0  0  0  0  0  0
  -32.3947  -30.8205   19.4189 C   0  0  0  0  0  0  0  0  0  0  0  0
  -26.0505  -31.4892   17.6372 C   0  0  0  0  0  0  0  0  0  0  0  0
  -28.4755  -31.7757   17.0845 C   0  0  0  0  0  0  0  0  0  0  0  0
  -27.4939  -32.9734   19.0402 C   0  0  0  0  0  0  0  0  0  0  0  0
  -28.4530  -21.6884   17.8667 C   0  0  0  0  0  0  0  0  0  0  0  0
  -26.4009  -20.8894   16.7011 C   0  0  0  0  0  0  0  0  0  0  0  0
  -25.8183  -19.1998   21.3491 C   0  0  0  0  0  0  0  0  0  0  0  0
  -29.7836  -20.7954   24.4692 C   0  0  0  0  0  0  0  0  0  0  0  0
  -31.3404  -27.9920   21.7350 C   0  0  0  0  0  0  0  0  0  0  0  0
  -30.4103  -19.6598   19.4409 C   0  0  0  0  0  0  0  0  0  0  0  0
  -30.4424  -19.2833   22.6347 C   0  0  0  0  0  0  0  0  0  0  0  0
  -27.2321  -19.5888   18.6710 C   0  0  0  0  0  0  0  0  0  0  0  0
  -26.2046  -21.9097   18.9969 C   0  0  0  0  0  0  0  0  0  1  0  0
  -27.8612  -30.4755   19.1733 C   0  0  1  0  0  0  0  0  0  0  0  0
  -31.4471  -30.0525   20.3273 C   0  0  2  0  0  0  0  0  0  0  0  0
  -27.4599  -31.6528   18.2404 C   0  0  0  0  0  0  0  0  0  0  0  0
  -27.0802  -21.0227   18.0831 C   0  0  0  0  0  0  0  0  0  0  0  0
  -28.5950  -14.4305   21.9457 N   0  0  0  0  0  0  0  0  0  0  0  0
  -28.0458  -19.2063   22.2581 N   0  0  0  0  0  0  0  0  0  0  0  0
  -27.2497  -19.2939   21.1789 N   0  0  0  0  0  0  0  0  0  0  0  0
  -29.8424  -14.8139   21.6248 N   0  0  0  0  0  0  0  0  0  0  0  0
  -26.2431  -29.0456   20.3822 N   0  0  0  0  0  0  0  0  0  0  0  0
  -30.5957  -17.1528   24.5608 N   0  0  0  0  0  0  0  0  0  0  0  0
  -31.4409  -14.7712   19.8774 N   0  0  0  0  0  0  0  0  0  0  0  0
  -27.8977  -12.6063   18.1013 N   0  0  0  0  0  0  0  0  0  0  0  0
  -22.7360  -29.0763   21.3801 N   0  0  0  0  0  0  0  0  0  0  0  0
  -29.1803  -30.6169   19.7802 N   0  0  0  0  0  0  0  0  0  0  0  0
  -30.0914  -19.4371   24.0449 N   0  0  0  0  0  0  0  0  0  0  0  0
  -32.1486  -28.8305   20.8126 N   0  3  0  0  0  0  0  0  0  0  0  0
  -30.0439  -13.3072   17.6998 O   0  0  0  0  0  0  0  0  0  0  0  0
  -23.9099  -29.3791   19.3919 O   0  0  0  0  0  0  0  0  0  0  0  0
  -26.7163  -31.2070   21.1177 O   0  0  0  0  0  0  0  0  0  0  0  0
  -30.0621  -28.6462   18.9340 O   0  0  0  0  0  0  0  0  0  0  0  0
  -30.2095  -18.7009   26.2259 O   0  0  0  0  0  0  0  0  0  0  0  0
  -23.0321  -11.6244   20.6305 O   0  0  0  0  0  0  0  0  0  0  0  0
  -26.0072  -23.2012   18.4228 O   0  0  0  0  0  0  0  0  0  1  0  0
  -21.3266   -8.6832   24.9716 F   0  0  0  0  0  0  0  0  0  0  0  0
  -22.3138   -8.9695   20.3511 F   0  0  0  0  0  0  0  0  0  0  0  0
  1  2  1  0  0  0  0
  1  5  2  0  0  0  0
  2  6  2  0  0  0  0
  3  8  2  0  0  0  0
  3 15  1  0  0  0  0
  4  9  1  0  0  0  0
  4 15  2  0  0  0  0
  5 17  1  0  0  0  0
  6 19  1  0  0  0  0
  7 10  2  0  0  0  0
  7 18  1  0  0  0  0
  8 22  1  0  0  0  0
  9 22  2  0  0  0  0
 10 23  1  0  0  0  0
 11 12  2  0  0  0  0
 11 24  1  0  0  0  0
 12 25  1  0  0  0  0
 13 20  1  0  0  0  0
 13 23  2  0  0  0  0
 14 25  2  0  0  0  0
 14 26  1  0  0  0  0
 15 27  1  0  0  0  0
 16 27  1  0  0  0  0
 16 30  2  0  0  0  0
 16 31  1  0  0  0  0
 17 19  2  0  0  0  0
 17 36  1  0  0  0  0
 18 20  2  0  0  0  0
 18 37  1  0  0  0  0
 19 45  1  0  0  0  0
 20 38  1  0  0  0  0
 21 28  1  0  0  0  0
 21 29  2  0  0  0  0
 21 58  1  0  0  0  0
 22 83  1  0  0  0  0
 23 84  1  0  0  0  0
 24 26  2  0  0  0  0
 24 83  1  0  0  0  0
 25 85  1  0  0  0  0
 26 86  1  0  0  0  0
 27 66  2  0  0  0  0
 28 59  1  0  0  0  0
 28 67  2  0  0  0  0
 29 60  1  0  0  0  0
 29 68  1  0  0  0  0
 30 69  1  0  0  0  0
 30 72  1  0  0  0  0
 31 73  1  0  0  0  0
 31 78  2  0  0  0  0
 32 46  1  0  0  0  0
 32 74  1  0  0  0  0
 32 79  2  0  0  0  0
 33 62  1  0  0  0  0
 33 70  1  0  0  0  0
 33 80  2  0  0  0  0
 34 63  1  0  0  0  0
 34 75  1  0  0  0  0
 34 81  2  0  0  0  0
 35 71  1  0  0  0  0
 35 76  1  0  0  0  0
 35 82  2  0  0  0  0
 36 39  1  0  0  0  0
 37 46  1  0  0  0  0
 38 70  1  0  0  0  0
 39 41  1  0  0  0  0
 40 42  1  0  0  0  0
 40 43  1  0  0  0  0
 41 45  1  0  0  0  0
 42 47  1  0  0  0  0
 43 71  1  0  0  0  0
 44 47  1  0  0  0  0
 44 71  1  0  0  0  0
 45 74  1  0  0  0  0
 46 70  1  0  0  0  0
 47 69  1  0  0  0  0
 48 58  1  0  0  0  0
 49 63  1  0  0  0  0
 50 64  1  0  0  0  0
 51 64  1  0  0  0  0
 52 64  1  0  0  0  0
 53 65  1  0  0  0  0
 54 65  1  0  0  0  0
 55 68  1  0  0  0  0
 56 76  1  0  0  0  0
 57 77  1  0  0  0  0
 59 76  1  0  0  0  0
 60 65  1  0  0  0  0
 61 65  1  0  0  0  0
 61 84  1  0  0  0  0
 62 64  1  0  0  0  0
 62 75  1  0  0  0  0
 63 77  1  0  0  0  0
 66 69  1  0  0  0  0
 67 68  1  0  0  0  0
M  CHG  1  77   1
M  ISO  4  35 100  61 101  76 100  84 101
M  END
> <Batch ID>
0061

> <Smiles>
CCc1c(C[100N:0](C)[100C:0](=O)N2CCCC(n3nc(-c4ccc(Oc5ccc(F)cc5F)cc4)c(C(N)=O)c3N)C2)nn(C)c1CC(C)(C)[101CH2:1][101O:1]c1ccc2c(c1)CN(C(=O)C(NC(=O)C(C)NC)C(C)(C)C)C(C(=O)NC1CCCc3ccccc31)C2

> <Shape>
0.256

> <Color>
0.063

> <Negative vol penalty>
0.000

$$$$

  -OEChem-04052317583D

 82 90  0     1  0  0  0  0  0999 V2000
  -23.5853  -31.6110   26.9025 C   0  0  0  0  0  0  0  0  0  0  0  0
  -24.1606  -30.6091   26.1275 C   0  0  0  0  0  0  0  0  0  0  0  0
  -24.6601  -14.2843   20.9029 C   0  0  0  0  0  0  0  0  0  0  0  0
  -27.0350  -13.9282   21.1676 C   0  0  0  0  0  0  0  0  0  0  0  0
  -22.2921  -32.0509   26.6230 C   0  0  0  0  0  0  0  0  0  0  0  0
  -23.4427  -30.0457   25.0732 C   0  0  0  0  0  0  0  0  0  0  0  0
  -26.2276  -29.5486   20.8729 C   0  0  0  0  0  0  0  0  0  0  0  0
  -24.5020  -12.9505   20.5266 C   0  0  0  0  0  0  0  0  0  0  0  0
  -26.8770  -12.5944   20.7913 C   0  0  0  0  0  0  0  0  0  0  0  0
  -27.1223  -28.4804   20.8249 C   0  0  0  0  0  0  0  0  0  0  0  0
  -23.4205   -9.5475   19.8451 C   0  0  0  0  0  0  0  0  0  0  0  0
  -22.3615   -8.8358   20.4086 C   0  0  0  0  0  0  0  0  0  0  0  0
  -25.5508  -27.2321   19.4865 C   0  0  0  0  0  0  0  0  0  0  0  0
  -23.2738   -9.2232   22.6120 C   0  0  0  0  0  0  0  0  0  0  0  0
  -29.4410  -24.0432   21.2539 C   0  0  0  0  0  0  0  0  0  0  0  0
  -25.9266  -14.7732   21.2233 C   0  0  0  0  0  0  0  0  0  0  0  0
  -26.0251  -16.6808   22.9142 C   0  0  0  0  0  0  0  0  0  0  0  0
  -21.5615  -31.4994   25.5587 C   0  0  0  0  0  0  0  0  0  0  0  0
  -24.9812  -29.4622   20.2362 C   0  0  0  0  0  0  0  0  0  0  0  0
  -22.1380  -30.4777   24.7800 C   0  0  0  0  0  0  0  0  0  0  0  0
  -24.6432  -28.3016   19.5258 C   0  0  0  0  0  0  0  0  0  0  0  0
  -25.6104  -12.1055   20.4708 C   0  0  0  0  0  0  0  0  0  0  0  0
  -26.7828  -27.3209   20.1341 C   0  0  0  0  0  0  0  0  0  0  0  0
  -24.4062  -10.0970   20.6649 C   0  0  0  0  0  0  0  0  0  0  0  0
  -22.2881   -8.6737   21.7921 C   0  0  0  0  0  0  0  0  0  0  0  0
  -24.3328   -9.9348   22.0484 C   0  0  0  0  0  0  0  0  0  0  0  0
  -26.0907  -16.1510   21.6116 C   0  0  0  0  0  0  0  0  0  0  0  0
  -29.7246  -25.1995   20.5734 C   0  0  0  0  0  0  0  0  0  0  0  0
  -26.2461  -18.0263   22.7492 C   0  0  0  0  0  0  0  0  0  0  0  0
  -31.1837  -23.0455   20.2208 C   0  0  0  0  0  0  0  0  0  0  0  0
  -25.7860  -16.0160   24.1618 C   0  0  0  0  0  0  0  0  0  0  0  0
  -21.9556  -29.5600   21.2055 C   0  0  0  0  0  0  0  0  0  0  0  0
  -21.3416  -29.5110   18.0207 C   0  0  0  0  0  0  0  0  0  0  0  0
  -22.3943  -28.6917   14.8794 C   0  0  0  0  0  0  0  0  0  0  0  0
  -29.0746  -21.2076   18.5384 C   0  0  0  0  0  0  0  0  0  0  0  0
  -20.1493  -31.9742   25.3245 C   0  0  0  0  0  0  0  0  0  0  0  0
  -24.0383  -30.6335   20.2749 C   0  0  0  0  0  0  0  0  0  0  0  0
  -23.3258  -28.1664   18.8082 C   0  0  0  0  0  0  0  0  0  0  0  0
  -19.5959  -31.5878   23.9553 C   0  0  0  0  0  0  0  0  0  0  0  0
  -25.6820  -21.5505   19.5629 C   0  0  0  0  0  0  0  0  0  0  0  0
  -19.8901  -30.1215   23.6551 C   0  0  0  0  0  0  0  0  0  0  0  0
  -25.3961  -20.2534   20.3216 C   0  0  0  0  0  0  0  0  0  0  0  0
  -26.6055  -21.3146   18.3698 C   0  0  0  0  0  0  0  0  0  0  0  0
  -27.5823  -19.3264   19.4498 C   0  0  0  0  0  0  0  0  0  0  0  0
  -21.4003  -29.8593   23.6123 C   0  0  1  0  0  0  0  0  0  0  0  0
  -22.5860  -30.2399   20.0231 C   0  0  1  0  0  0  0  0  0  0  0  0
  -26.7002  -19.5229   20.6946 C   0  0  2  0  0  0  0  0  0  0  0  0
  -21.6588  -28.7383   12.4806 C   0  0  0  0  0  0  0  0  0  0  0  0
  -32.1572  -20.8695   21.2278 C   0  0  0  0  0  0  0  0  0  0  0  0
  -33.5007  -22.2553   19.6687 C   0  0  0  0  0  0  0  0  0  0  0  0
  -19.5178  -27.1197   18.5360 C   0  0  0  0  0  0  0  0  0  0  0  0
  -19.5773  -26.6338   16.0807 C   0  0  0  0  0  0  0  0  0  0  0  0
  -18.6178  -28.7851   16.9017 C   0  0  0  0  0  0  0  0  0  0  0  0
  -24.6382  -30.4591   14.1047 C   0  0  0  0  0  0  0  0  0  0  0  0
  -28.8983  -26.4370   20.7661 C   0  0  0  0  0  0  0  0  0  1  0  0
  -31.5310  -20.9630   18.7944 C   0  0  0  0  0  0  0  0  0  0  0  0
  -21.1193  -28.4294   16.9913 C   0  0  1  0  0  0  0  0  0  0  0  0
  -22.4009  -29.4795   13.5818 C   0  0  2  0  0  0  0  0  0  0  0  0
  -32.0296  -21.8391   20.0004 C   0  0  0  0  0  0  0  0  0  0  0  0
  -19.7321  -27.7435   17.1425 C   0  0  0  0  0  0  0  0  0  0  0  0
  -30.1707  -22.9290   21.0922 N   0  0  0  0  0  0  0  0  0  0  0  0
  -26.3341  -17.0839   20.6872 N   0  0  0  0  0  0  0  0  0  0  0  0
  -30.7552  -25.2566   19.7105 N   0  0  0  0  0  0  0  0  0  0  0  0
  -31.5087  -24.1528   19.5249 N   0  0  0  0  0  0  0  0  0  0  0  0
  -26.4234  -18.2135   21.4099 N   0  0  0  0  0  0  0  0  0  0  0  0
  -22.4352  -29.3365   18.8806 N   0  0  0  0  0  0  0  0  0  0  0  0
  -27.8242  -20.6198   18.7915 N   0  0  0  0  0  0  0  0  0  0  0  0
  -26.3041  -19.0558   23.6205 N   0  0  0  0  0  0  0  0  0  0  0  0
  -25.5785  -14.6299   24.1514 N   0  0  0  0  0  0  0  0  0  0  0  0
  -21.9581  -30.3206   22.3591 N   0  0  0  0  0  0  0  0  0  0  0  0
  -21.3392  -29.0524   15.6905 N   0  0  0  0  0  0  0  0  0  0  0  0
  -30.1782  -20.4859   18.9765 N   0  0  0  0  0  0  0  0  0  0  0  0
  -23.8001  -29.7177   13.1276 N   0  3  0  0  0  0  0  0  0  0  0  0
  -25.7407  -16.6353   25.2518 O   0  0  0  0  0  0  0  0  0  0  0  0
  -21.4992  -28.4297   21.0800 O   0  0  0  0  0  0  0  0  0  0  0  0
  -20.5775  -30.4788   18.0557 O   0  0  0  0  0  0  0  0  0  0  0  0
  -23.2384  -27.8389   15.1452 O   0  0  0  0  0  0  0  0  0  0  0  0
  -29.1980  -22.2975   17.9694 O   0  0  0  0  0  0  0  0  0  0  0  0
  -25.4565  -10.8039   20.1039 O   0  0  0  0  0  0  0  0  0  0  0  0
  -27.6540  -26.2765   20.0862 O   0  0  0  0  0  0  0  0  0  1  0  0
  -21.2703   -7.9915   22.3333 F   0  0  0  0  0  0  0  0  0  0  0  0
  -25.2762  -10.4614   22.8412 F   0  0  0  0  0  0  0  0  0  0  0  0
  1  2  1  0  0  0  0
  1  5  2  0  0  0  0
  2  6  2  0  0  0  0
  3  8  2  0  0  0  0
  3 16  1  0  0  0  0
  4  9  1  0  0  0  0
  4 16  2  0  0  0  0
  5 18  1  0  0  0  0
  6 20  1  0  0  0  0
  7 10  2  0  0  0  0
  7 19  1  0  0  0  0
  8 22  1  0  0  0  0
  9 22  2  0  0  0  0
 10 23  1  0  0  0  0
 11 12  2  0  0  0  0
 11 24  1  0  0  0  0
 12 25  1  0  0  0  0
 13 21  1  0  0  0  0
 13 23  2  0  0  0  0
 14 25  2  0  0  0  0
 14 26  1  0  0  0  0
 15 28  1  0  0  0  0
 15 61  2  0  0  0  0
 16 27  1  0  0  0  0
 17 27  1  0  0  0  0
 17 29  2  0  0  0  0
 17 31  1  0  0  0  0
 18 20  2  0  0  0  0
 18 36  1  0  0  0  0
 19 21  2  0  0  0  0
 19 37  1  0  0  0  0
 20 45  1  0  0  0  0
 21 38  1  0  0  0  0
 22 79  1  0  0  0  0
 23 80  1  0  0  0  0
 24 26  2  0  0  0  0
 24 79  1  0  0  0  0
 25 81  1  0  0  0  0
 26 82  1  0  0  0  0
 27 62  2  0  0  0  0
 28 55  1  0  0  0  0
 28 63  2  0  0  0  0
 29 65  1  0  0  0  0
 29 68  1  0  0  0  0
 30 59  1  0  0  0  0
 30 61  1  0  0  0  0
 30 64  2  0  0  0  0
 31 69  1  0  0  0  0
 31 74  2  0  0  0  0
 32 46  1  0  0  0  0
 32 70  1  0  0  0  0
 32 75  2  0  0  0  0
 33 57  1  0  0  0  0
 33 66  1  0  0  0  0
 33 76  2  0  0  0  0
 34 58  1  0  0  0  0
 34 71  1  0  0  0  0
 34 77  2  0  0  0  0
 35 67  1  0  0  0  0
 35 72  1  0  0  0  0
 35 78  2  0  0  0  0
 36 39  1  0  0  0  0
 37 46  1  0  0  0  0
 38 66  1  0  0  0  0
 39 41  1  0  0  0  0
 40 42  1  0  0  0  0
 40 43  1  0  0  0  0
 41 45  1  0  0  0  0
 42 47  1  0  0  0  0
 43 67  1  0  0  0  0
 44 47  1  0  0  0  0
 44 67  1  0  0  0  0
 45 70  1  0  0  0  0
 46 66  1  0  0  0  0
 47 65  1  0  0  0  0
 48 58  1  0  0  0  0
 49 59  1  0  0  0  0
 50 59  1  0  0  0  0
 51 60  1  0  0  0  0
 52 60  1  0  0  0  0
 53 60  1  0  0  0  0
 54 73  1  0  0  0  0
 55 80  1  0  0  0  0
 56 59  1  0  0  0  0
 56 72  1  0  0  0  0
 57 60  1  0  0  0  0
 57 71  1  0  0  0  0
 58 73  1  0  0  0  0
 62 65  1  0  0  0  0
 63 64  1  0  0  0  0
M  CHG  1  73   1
M  ISO  4  35 100  55 101  72 100  80 101
M  END
> <Batch ID>
0061

> <Smiles>
CNC(C)C(=O)NC(C(=O)N1Cc2cc([101O:1][101CH2:1]c3cnc(C(C)(C)C[100NH:0][100C:0](=O)N4CCCC(n5nc(-c6ccc(Oc7ccc(F)cc7F)cc6)c(C(N)=O)c5N)C4)nn3)ccc2CC1C(=O)NC1CCCc2ccccc21)C(C)(C)C

> <Shape>
0.215

> <Color>
0.088

> <Negative vol penalty>
0.000

$$$$

  -OEChem-04052317583D

 82 90  0     1  0  0  0  0  0999 V2000
  -23.4164  -21.2295   26.2074 C   0  0  0  0  0  0  0  0  0  0  0  0
  -24.5995  -21.1017   25.4868 C   0  0  0  0  0  0  0  0  0  0  0  0
  -23.0757   -9.8652   19.9624 C   0  0  0  0  0  0  0  0  0  0  0  0
  -23.7579   -9.9534   22.2784 C   0  0  0  0  0  0  0  0  0  0  0  0
  -22.5205  -22.2523   25.8987 C   0  0  0  0  0  0  0  0  0  0  0  0
  -24.8870  -21.9961   24.4563 C   0  0  0  0  0  0  0  0  0  0  0  0
  -29.6740  -23.6427   24.5918 C   0  0  0  0  0  0  0  0  0  0  0  0
  -22.3310   -8.7156   20.2255 C   0  0  0  0  0  0  0  0  0  0  0  0
  -23.0131   -8.8038   22.5416 C   0  0  0  0  0  0  0  0  0  0  0  0
  -30.6576  -22.7809   24.1086 C   0  0  0  0  0  0  0  0  0  0  0  0
  -23.3430   -5.4674   22.1050 C   0  0  0  0  0  0  0  0  0  0  0  0
  -23.9402   -4.4708   22.8768 C   0  0  0  0  0  0  0  0  0  0  0  0
  -30.6888  -23.9950   22.0243 C   0  0  0  0  0  0  0  0  0  0  0  0
  -22.1813   -4.6884   24.5188 C   0  0  0  0  0  0  0  0  0  0  0  0
  -30.0169  -19.6530   20.8925 C   0  0  0  0  0  0  0  0  0  0  0  0
  -32.6351  -20.0880   21.1803 C   0  0  0  0  0  0  0  0  0  0  0  0
  -23.7893  -10.4841   20.9888 C   0  0  0  0  0  0  0  0  0  0  0  0
  -24.1195  -13.0063   20.7964 C   0  0  0  0  0  0  0  0  0  0  0  0
  -22.8016  -23.1655   24.8703 C   0  0  0  0  0  0  0  0  0  0  0  0
  -29.1817  -24.6821   23.7895 C   0  0  0  0  0  0  0  0  0  0  0  0
  -23.9934  -23.0312   24.1327 C   0  0  0  0  0  0  0  0  0  0  0  0
  -29.7007  -24.8701   22.5006 C   0  0  0  0  0  0  0  0  0  0  0  0
  -22.2996   -8.1849   21.5151 C   0  0  0  0  0  0  0  0  0  0  0  0
  -31.1631  -22.9552   22.8236 C   0  0  0  0  0  0  0  0  0  0  0  0
  -22.1649   -6.0746   22.5401 C   0  0  0  0  0  0  0  0  0  0  0  0
  -23.3594   -4.0813   24.0837 C   0  0  0  0  0  0  0  0  0  0  0  0
  -21.5841   -5.6850   23.7469 C   0  0  0  0  0  0  0  0  0  0  0  0
  -24.5593  -11.6714   20.7175 C   0  0  0  0  0  0  0  0  0  0  0  0
  -30.9442  -18.7665   20.3905 C   0  0  0  0  0  0  0  0  0  0  0  0
  -31.7079  -20.9746   21.6821 C   0  0  0  0  0  0  0  0  0  1  0  0
  -25.2186  -13.7513   20.4452 C   0  0  0  0  0  0  0  0  0  0  0  0
  -22.8325  -13.5265   21.1552 C   0  0  0  0  0  0  0  0  0  0  0  0
  -26.3379  -25.4296   22.5821 C   0  0  0  0  0  0  0  0  0  0  0  0
  -27.8812  -28.1212   21.6356 C   0  0  0  0  0  0  0  0  0  0  0  0
  -30.8327  -29.6454   20.8535 C   0  0  0  0  0  0  0  0  0  0  0  0
  -30.7962  -14.5247   21.2263 C   0  0  0  0  0  0  0  0  0  0  0  0
  -21.7807  -24.2259   24.5419 C   0  0  0  0  0  0  0  0  0  0  0  0
  -28.1396  -25.6195   24.3353 C   0  0  0  0  0  0  0  0  0  0  0  0
  -29.2204  -25.9832   21.6068 C   0  0  0  0  0  0  0  0  0  0  0  0
  -22.3346  -25.3595   23.6825 C   0  0  0  0  0  0  0  0  0  0  0  0
  -29.6443  -12.3785   18.4390 C   0  0  0  0  0  0  0  0  0  0  0  0
  -23.1471  -24.7994   22.5193 C   0  0  0  0  0  0  0  0  0  0  0  0
  -28.2038  -12.0608   18.8366 C   0  0  0  0  0  0  0  0  0  0  0  0
  -30.5247  -12.6387   19.6575 C   0  0  0  0  0  0  0  0  0  0  0  0
  -28.5590  -13.3763   20.9636 C   0  0  0  0  0  0  0  0  0  0  0  0
  -24.3523  -23.9968   23.0241 C   0  0  1  0  0  0  0  0  0  0  0  0
  -27.3435  -26.3286   23.2441 C   0  0  1  0  0  0  0  0  0  0  0  0
  -27.6347  -13.1547   19.7569 C   0  0  2  0  0  0  0  0  0  0  0  0
  -31.7719  -31.8397   20.0786 C   0  0  0  0  0  0  0  0  0  0  0  0
  -31.6566  -16.6108   19.1489 C   0  0  0  0  0  0  0  0  0  0  0  0
  -29.6874  -17.9163   18.3917 C   0  0  0  0  0  0  0  0  0  0  0  0
  -26.8960  -27.5411   18.8067 C   0  0  0  0  0  0  0  0  0  0  0  0
  -28.6011  -29.1643   17.9549 C   0  0  0  0  0  0  0  0  0  0  0  0
  -26.7864  -29.9481   19.4764 C   0  0  0  0  0  0  0  0  0  0  0  0
  -30.7894  -16.5122   22.6855 C   0  0  0  0  0  0  0  0  0  0  0  0
  -32.4613  -29.9468   23.3063 C   0  0  0  0  0  0  0  0  0  0  0  0
  -29.5664  -16.6289   20.5463 C   0  0  0  0  0  0  0  0  0  0  0  0
  -28.6609  -28.5315   20.4098 C   0  0  1  0  0  0  0  0  0  0  0  0
  -31.4232  -30.9768   21.2814 C   0  0  2  0  0  0  0  0  0  0  0  0
  -30.5039  -17.5390   19.6720 C   0  0  0  0  0  0  0  0  0  0  0  0
  -27.7440  -28.7740   19.1778 C   0  0  0  0  0  0  0  0  0  0  0  0
  -32.2700  -18.9679   20.5256 N   0  0  0  0  0  0  0  0  0  0  0  0
  -30.3821  -20.7731   21.5473 N   0  0  0  0  0  0  0  0  0  0  0  0
  -25.8381  -11.5709   20.3452 N   0  0  0  0  0  0  0  0  0  0  0  0
  -26.2112  -12.8523   20.1869 N   0  0  0  0  0  0  0  0  0  0  0  0
  -28.1960  -26.8695   22.1835 N   0  0  0  0  0  0  0  0  0  0  0  0
  -29.9392  -13.6512   20.5368 N   0  0  0  0  0  0  0  0  0  0  0  0
  -25.4232  -15.0811   20.3350 N   0  0  0  0  0  0  0  0  0  0  0  0
  -21.8154  -12.6217   21.4885 N   0  0  0  0  0  0  0  0  0  0  0  0
  -25.4099  -24.8876   23.4509 N   0  0  0  0  0  0  0  0  0  0  0  0
  -29.4556  -29.6908   20.8007 N   0  0  0  0  0  0  0  0  0  0  0  0
  -30.3105  -15.8118   21.5023 N   0  0  0  0  0  0  0  0  0  0  0  0
  -32.6627  -30.7610   22.0801 N   0  3  0  0  0  0  0  0  0  0  0  0
  -22.5869  -14.7566   21.1637 O   0  0  0  0  0  0  0  0  0  0  0  0
  -26.3984  -25.2427   21.3726 O   0  0  0  0  0  0  0  0  0  0  0  0
  -27.0292  -28.8862   22.0945 O   0  0  0  0  0  0  0  0  0  0  0  0
  -31.5241  -28.6644   20.5887 O   0  0  0  0  0  0  0  0  0  0  0  0
  -31.9343  -14.1772   21.5667 O   0  0  0  0  0  0  0  0  0  0  0  0
  -21.5728   -7.0633   21.7723 O   0  0  0  0  0  0  0  0  0  0  0  0
  -32.1229  -22.1151   22.3492 O   0  0  0  0  0  0  0  0  0  1  0  0
  -23.9322   -3.1232   24.8240 F   0  0  0  0  0  0  0  0  0  0  0  0
  -20.4517   -6.2638   24.1695 F   0  0  0  0  0  0  0  0  0  0  0  0
  1  2  1  0  0  0  0
  1  5  2  0  0  0  0
  2  6  2  0  0  0  0
  3  8  2  0  0  0  0
  3 17  1  0  0  0  0
  4  9  1  0  0  0  0
  4 17  2  0  0  0  0
  5 19  1  0  0  0  0
  6 21  1  0  0  0  0
  7 10  2  0  0  0  0
  7 20  1  0  0  0  0
  8 23  1  0  0  0  0
  9 23  2  0  0  0  0
 10 24  1  0  0  0  0
 11 12  2  0  0  0  0
 11 25  1  0  0  0  0
 12 26  1  0  0  0  0
 13 22  1  0  0  0  0
 13 24  2  0  0  0  0
 14 26  2  0  0  0  0
 14 27  1  0  0  0  0
 15 29  2  0  0  0  0
 15 63  1  0  0  0  0
 16 30  1  0  0  0  0
 16 62  2  0  0  0  0
 17 28  1  0  0  0  0
 18 28  1  0  0  0  0
 18 31  2  0  0  0  0
 18 32  1  0  0  0  0
 19 21  2  0  0  0  0
 19 37  1  0  0  0  0
 20 22  2  0  0  0  0
 20 38  1  0  0  0  0
 21 46  1  0  0  0  0
 22 39  1  0  0  0  0
 23 79  1  0  0  0  0
 24 80  1  0  0  0  0
 25 27  2  0  0  0  0
 25 79  1  0  0  0  0
 26 81  1  0  0  0  0
 27 82  1  0  0  0  0
 28 64  2  0  0  0  0
 29 60  1  0  0  0  0
 29 62  1  0  0  0  0
 30 63  2  0  0  0  0
 30 80  1  0  0  0  0
 31 65  1  0  0  0  0
 31 68  1  0  0  0  0
 32 69  1  0  0  0  0
 32 74  2  0  0  0  0
 33 47  1  0  0  0  0
 33 70  1  0  0  0  0
 33 75  2  0  0  0  0
 34 58  1  0  0  0  0
 34 66  1  0  0  0  0
 34 76  2  0  0  0  0
 35 59  1  0  0  0  0
 35 71  1  0  0  0  0
 35 77  2  0  0  0  0
 36 67  1  0  0  0  0
 36 72  1  0  0  0  0
 36 78  2  0  0  0  0
 37 40  1  0  0  0  0
 38 47  1  0  0  0  0
 39 66  1  0  0  0  0
 40 42  1  0  0  0  0
 41 43  1  0  0  0  0
 41 44  1  0  0  0  0
 42 46  1  0  0  0  0
 43 48  1  0  0  0  0
 44 67  1  0  0  0  0
 45 48  1  0  0  0  0
 45 67  1  0  0  0  0
 46 70  1  0  0  0  0
 47 66  1  0  0  0  0
 48 65  1  0  0  0  0
 49 59  1  0  0  0  0
 50 60  1  0  0  0  0
 51 60  1  0  0  0  0
 52 61  1  0  0  0  0
 53 61  1  0  0  0  0
 54 61  1  0  0  0  0
 55 72  1  0  0  0  0
 56 73  1  0  0  0  0
 57 60  1  0  0  0  0
 57 72  1  0  0  0  0
 58 61  1  0  0  0  0
 58 71  1  0  0  0  0
 59 73  1  0  0  0  0
 64 65  1  0  0  0  0
M  CHG  1  73   1
M  ISO  4  30 101  36 100  72 100  80 101
M  END
> <Batch ID>
0061

> <Smiles>
CNC(C)C(=O)NC(C(=O)N1Cc2cc([101O:1][101c:1]3cnc(C(C)(C)C[100N:0](C)[100C:0](=O)N4CCCC(n5nc(-c6ccc(Oc7ccc(F)cc7F)cc6)c(C(N)=O)c5N)C4)cn3)ccc2CC1C(=O)NC1CCCc2ccccc21)C(C)(C)C

> <Shape>
0.231

> <Color>
0.177

> <Negative vol penalty>
0.000

$$$$

  -OEChem-04052317583D

 82 90  0     1  0  0  0  0  0999 V2000
  -16.5668  -28.6794   23.4972 C   0  0  0  0  0  0  0  0  0  0  0  0
  -17.5193  -27.8131   22.9702 C   0  0  0  0  0  0  0  0  0  0  0  0
  -21.3661  -18.5375   22.8865 C   0  0  0  0  0  0  0  0  0  0  0  0
  -21.5467  -19.3178   20.6072 C   0  0  0  0  0  0  0  0  0  0  0  0
  -16.9507  -29.9370   23.9609 C   0  0  0  0  0  0  0  0  0  0  0  0
  -18.8561  -28.2044   22.9056 C   0  0  0  0  0  0  0  0  0  0  0  0
  -23.7772  -24.6266   23.6041 C   0  0  0  0  0  0  0  0  0  0  0  0
  -20.2361  -19.3343   23.0699 C   0  0  0  0  0  0  0  0  0  0  0  0
  -20.4165  -20.1146   20.7905 C   0  0  0  0  0  0  0  0  0  0  0  0
  -24.6290  -24.0134   22.6864 C   0  0  0  0  0  0  0  0  0  0  0  0
  -19.6678  -23.0847   22.2219 C   0  0  0  0  0  0  0  0  0  0  0  0
  -19.7164  -24.3965   21.7505 C   0  0  0  0  0  0  0  0  0  0  0  0
  -26.1679  -25.8598   22.8899 C   0  0  0  0  0  0  0  0  0  0  0  0
  -17.8408  -23.9434   20.2965 C   0  0  0  0  0  0  0  0  0  0  0  0
  -29.3546  -22.7777   20.2635 C   0  0  0  0  0  0  0  0  0  0  0  0
  -22.0215  -18.5293   21.6552 C   0  0  0  0  0  0  0  0  0  0  0  0
  -23.2262  -16.3746   21.0120 C   0  0  0  0  0  0  0  0  0  0  0  0
  -18.2944  -30.3402   23.9108 C   0  0  0  0  0  0  0  0  0  0  0  0
  -24.1099  -25.8684   24.1643 C   0  0  0  0  0  0  0  0  0  0  0  0
  -19.2581  -29.4691   23.3678 C   0  0  0  0  0  0  0  0  0  0  0  0
  -25.3199  -26.4855   23.8165 C   0  0  0  0  0  0  0  0  0  0  0  0
  -19.7612  -20.1228   22.0218 C   0  0  0  0  0  0  0  0  0  0  0  0
  -25.8231  -24.6313   22.3269 C   0  0  0  0  0  0  0  0  0  0  0  0
  -18.7058  -22.2021   21.7306 C   0  0  0  0  0  0  0  0  0  0  0  0
  -18.8029  -24.8259   20.7878 C   0  0  0  0  0  0  0  0  0  0  0  0
  -17.7923  -22.6315   20.7679 C   0  0  0  0  0  0  0  0  0  0  0  0
  -23.1893  -17.7069   21.4654 C   0  0  0  0  0  0  0  0  0  0  0  0
  -28.6249  -23.9269   20.0906 C   0  0  0  0  0  0  0  0  0  0  0  0
  -24.5610  -16.0509   21.0060 C   0  0  0  0  0  0  0  0  0  0  0  0
  -22.1502  -15.5073   20.6304 C   0  0  0  0  0  0  0  0  0  0  0  0
  -22.8045  -28.7664   24.1306 C   0  0  0  0  0  0  0  0  0  0  0  0
  -25.1656  -29.4287   26.2541 C   0  0  0  0  0  0  0  0  0  0  0  0
  -28.2512  -28.6556   27.4901 C   0  0  0  0  0  0  0  0  0  0  0  0
  -29.5503  -19.3313   20.5631 C   0  0  0  0  0  0  0  0  0  0  0  0
  -18.6540  -31.7275   24.3804 C   0  0  0  0  0  0  0  0  0  0  0  0
  -23.1930  -26.5041   25.1731 C   0  0  0  0  0  0  0  0  0  0  0  0
  -25.7329  -27.8092   24.4046 C   0  0  0  0  0  0  0  0  0  0  0  0
  -20.1490  -31.9207   24.6212 C   0  0  0  0  0  0  0  0  0  0  0  0
  -28.6795  -17.1044   23.2012 C   0  0  0  0  0  0  0  0  0  0  0  0
  -20.9548  -31.3558   23.4556 C   0  0  0  0  0  0  0  0  0  0  0  0
  -27.1770  -16.8861   23.0145 C   0  0  0  0  0  0  0  0  0  0  0  0
  -29.0879  -18.5366   22.8633 C   0  0  0  0  0  0  0  0  0  0  0  0
  -27.1649  -18.7836   21.3418 C   0  0  0  0  0  0  0  0  0  0  0  0
  -20.7219  -29.8477   23.3035 C   0  0  1  0  0  0  0  0  0  0  0  0
  -23.3888  -28.0124   25.2915 C   0  0  1  0  0  0  0  0  0  0  0  0
  -26.7139  -17.3389   21.6168 C   0  0  2  0  0  0  0  0  0  0  0  0
  -29.9320  -29.3998   29.1985 C   0  0  0  0  0  0  0  0  0  0  0  0
  -31.6503  -21.8584   17.5253 C   0  0  0  0  0  0  0  0  0  0  0  0
  -25.9592  -31.7610   24.4539 C   0  0  0  0  0  0  0  0  0  0  0  0
  -28.1476  -31.8611   25.6660 C   0  0  0  0  0  0  0  0  0  0  0  0
  -26.0192  -32.2658   26.9025 C   0  0  0  0  0  0  0  0  0  0  0  0
  -28.9442  -20.3665   17.0091 C   0  0  0  0  0  0  0  0  0  0  0  0
  -30.8159  -18.9605   17.8379 C   0  0  0  0  0  0  0  0  0  0  0  0
  -28.1147  -26.0686   28.9211 C   0  0  0  0  0  0  0  0  0  0  0  0
  -27.8631  -24.7244   21.1080 C   0  0  0  0  0  0  0  0  0  1  0  0
  -26.5893  -29.9201   26.1510 C   0  0  1  0  0  0  0  0  0  0  0  0
  -28.7523  -28.4836   28.9127 C   0  0  2  0  0  0  0  0  0  0  0  0
  -30.6539  -21.4020   18.6068 C   0  0  2  0  0  0  0  0  0  0  0  0
  -26.6704  -31.4280   25.7806 C   0  0  0  0  0  0  0  0  0  0  0  0
  -29.8556  -20.1034   18.2244 C   0  0  0  0  0  0  0  0  0  0  0  0
  -24.4040  -18.1959   21.7285 N   0  0  0  0  0  0  0  0  0  0  0  0
  -28.6703  -24.3069   18.7780 N   0  0  0  0  0  0  0  0  0  0  0  0
  -29.4118  -23.4210   18.1220 N   0  0  0  0  0  0  0  0  0  0  0  0
  -29.8210  -22.5048   19.0145 N   0  0  0  0  0  0  0  0  0  0  0  0
  -25.2168  -17.1653   21.4396 N   0  0  0  0  0  0  0  0  0  0  0  0
  -24.7997  -28.3938   25.3818 N   0  0  0  0  0  0  0  0  0  0  0  0
  -28.6200  -18.9031   21.5244 N   0  0  0  0  0  0  0  0  0  0  0  0
  -25.2259  -14.9244   20.6723 N   0  0  0  0  0  0  0  0  0  0  0  0
  -20.8397  -15.9998   20.6960 N   0  0  0  0  0  0  0  0  0  0  0  0
  -21.4783  -29.1167   24.2974 N   0  0  0  0  0  0  0  0  0  0  0  0
  -27.2310  -29.5803   27.4163 N   0  0  0  0  0  0  0  0  0  0  0  0
  -29.0239  -19.6533   19.3182 N   0  0  0  0  0  0  0  0  0  0  0  0
  -29.1839  -27.0759   29.1432 N   0  3  0  0  0  0  0  0  0  0  0  0
  -22.3438  -14.3251   20.2583 O   0  0  0  0  0  0  0  0  0  0  0  0
  -23.5055  -29.0134   23.1563 O   0  0  0  0  0  0  0  0  0  0  0  0
  -24.4081  -29.9393   27.0831 O   0  0  0  0  0  0  0  0  0  0  0  0
  -28.7206  -28.0348   26.5389 O   0  0  0  0  0  0  0  0  0  0  0  0
  -30.7611  -19.4149   20.7953 O   0  0  0  0  0  0  0  0  0  0  0  0
  -18.6584  -20.9003   22.2003 O   0  0  0  0  0  0  0  0  0  0  0  0
  -26.6560  -24.0352   21.4309 O   0  0  0  0  0  0  0  0  0  1  0  0
  -18.8487  -26.0861   20.3362 F   0  0  0  0  0  0  0  0  0  0  0  0
  -16.8650  -21.7886   20.2931 F   0  0  0  0  0  0  0  0  0  0  0  0
  1  2  1  0  0  0  0
  1  5  2  0  0  0  0
  2  6  2  0  0  0  0
  3  8  2  0  0  0  0
  3 16  1  0  0  0  0
  4  9  1  0  0  0  0
  4 16  2  0  0  0  0
  5 18  1  0  0  0  0
  6 20  1  0  0  0  0
  7 10  2  0  0  0  0
  7 19  1  0  0  0  0
  8 22  1  0  0  0  0
  9 22  2  0  0  0  0
 10 23  1  0  0  0  0
 11 12  2  0  0  0  0
 11 24  1  0  0  0  0
 12 25  1  0  0  0  0
 13 21  1  0  0  0  0
 13 23  2  0  0  0  0
 14 25  2  0  0  0  0
 14 26  1  0  0  0  0
 15 28  2  0  0  0  0
 15 64  1  0  0  0  0
 16 27  1  0  0  0  0
 17 27  1  0  0  0  0
 17 29  2  0  0  0  0
 17 30  1  0  0  0  0
 18 20  2  0  0  0  0
 18 35  1  0  0  0  0
 19 21  2  0  0  0  0
 19 36  1  0  0  0  0
 20 44  1  0  0  0  0
 21 37  1  0  0  0  0
 22 79  1  0  0  0  0
 23 80  1  0  0  0  0
 24 26  2  0  0  0  0
 24 79  1  0  0  0  0
 25 81  1  0  0  0  0
 26 82  1  0  0  0  0
 27 61  2  0  0  0  0
 28 55  1  0  0  0  0
 28 62  1  0  0  0  0
 29 65  1  0  0  0  0
 29 68  1  0  0  0  0
 30 69  1  0  0  0  0
 30 74  2  0  0  0  0
 31 45  1  0  0  0  0
 31 70  1  0  0  0  0
 31 75  2  0  0  0  0
 32 56  1  0  0  0  0
 32 66  1  0  0  0  0
 32 76  2  0  0  0  0
 33 57  1  0  0  0  0
 33 71  1  0  0  0  0
 33 77  2  0  0  0  0
 34 67  1  0  0  0  0
 34 72  1  0  0  0  0
 34 78  2  0  0  0  0
 35 38  1  0  0  0  0
 36 45  1  0  0  0  0
 37 66  1  0  0  0  0
 38 40  1  0  0  0  0
 39 41  1  0  0  0  0
 39 42  1  0  0  0  0
 40 44  1  0  0  0  0
 41 46  1  0  0  0  0
 42 67  1  0  0  0  0
 43 46  1  0  0  0  0
 43 67  1  0  0  0  0
 44 70  1  0  0  0  0
 45 66  1  0  0  0  0
 46 65  1  0  0  0  0
 47 57  1  0  0  0  0
 48 58  1  0  0  0  0
 49 59  1  0  0  0  0
 50 59  1  0  0  0  0
 51 59  1  0  0  0  0
 52 60  1  0  0  0  0
 53 60  1  0  0  0  0
 54 73  1  0  0  0  0
 55 80  1  0  0  0  0
 56 59  1  0  0  0  0
 56 71  1  0  0  0  0
 57 73  1  0  0  0  0
 58 60  1  0  0  0  0
 58 64  1  0  0  0  0
 60 72  1  0  0  0  0
 61 65  1  0  0  0  0
 62 63  2  0  0  0  0
 63 64  1  0  0  0  0
M  CHG  1  73   1
M  ISO  4  34 100  55 101  72 100  80 101
M  END
> <Batch ID>
0061

> <Smiles>
CNC(C)C(=O)NC(C(=O)N1Cc2cc([101O:1][101CH2:1]c3cn(C(C)C(C)(C)[100NH:0][100C:0](=O)N4CCCC(n5nc(-c6ccc(Oc7ccc(F)cc7F)cc6)c(C(N)=O)c5N)C4)nn3)ccc2CC1C(=O)NC1CCCc2ccccc21)C(C)(C)C

> <Shape>
0.171

> <Color>
0.111

> <Negative vol penalty>
0.000

$$$$

  -OEChem-04052317583D

 84 92  0     1  0  0  0  0  0999 V2000
  -30.6708  -26.2361   27.2074 C   0  0  0  0  0  0  0  0  0  0  0  0
  -31.0606  -25.3257   26.2303 C   0  0  0  0  0  0  0  0  0  0  0  0
  -23.2195   -9.8696   19.8669 C   0  0  0  0  0  0  0  0  0  0  0  0
  -23.8724   -9.8734   22.1930 C   0  0  0  0  0  0  0  0  0  0  0  0
  -29.6123  -27.1097   26.9621 C   0  0  0  0  0  0  0  0  0  0  0  0
  -30.3912  -25.2877   25.0077 C   0  0  0  0  0  0  0  0  0  0  0  0
  -32.8179  -24.0693   19.5184 C   0  0  0  0  0  0  0  0  0  0  0  0
  -22.5251   -8.6760   20.0638 C   0  0  0  0  0  0  0  0  0  0  0  0
  -23.1780   -8.6799   22.3899 C   0  0  0  0  0  0  0  0  0  0  0  0
  -32.8597  -22.9080   18.7481 C   0  0  0  0  0  0  0  0  0  0  0  0
  -19.9708   -7.7093   22.8288 C   0  0  0  0  0  0  0  0  0  0  0  0
  -19.1642   -7.6101   23.9624 C   0  0  0  0  0  0  0  0  0  0  0  0
  -30.9219  -23.6582   17.5228 C   0  0  0  0  0  0  0  0  0  0  0  0
  -20.4683   -5.7248   24.7253 C   0  0  0  0  0  0  0  0  0  0  0  0
  -29.6165  -17.8563   19.1679 C   0  0  0  0  0  0  0  0  0  0  0  0
  -23.8932  -10.4683   20.9315 C   0  0  0  0  0  0  0  0  0  0  0  0
  -24.1103  -13.0092   20.8672 C   0  0  0  0  0  0  0  0  0  0  0  0
  -28.9359  -27.0890   25.7322 C   0  0  0  0  0  0  0  0  0  0  0  0
  -31.8196  -25.0304   19.3036 C   0  0  0  0  0  0  0  0  0  0  0  0
  -29.3218  -26.1610   24.7462 C   0  0  0  0  0  0  0  0  0  0  0  0
  -30.8712  -24.8321   18.2900 C   0  0  0  0  0  0  0  0  0  0  0  0
  -22.5043   -8.0812   21.3253 C   0  0  0  0  0  0  0  0  0  0  0  0
  -31.9098  -22.7009   17.7521 C   0  0  0  0  0  0  0  0  0  0  0  0
  -21.0262   -6.8163   22.6434 C   0  0  0  0  0  0  0  0  0  0  0  0
  -19.4129   -6.6178   24.9107 C   0  0  0  0  0  0  0  0  0  0  0  0
  -21.2749   -5.8240   23.5916 C   0  0  0  0  0  0  0  0  0  0  0  0
  -24.6112  -11.7009   20.7286 C   0  0  0  0  0  0  0  0  0  0  0  0
  -29.8257  -19.0893   18.5847 C   0  0  0  0  0  0  0  0  0  0  0  0
  -29.1941  -17.8810   20.4814 C   0  0  0  0  0  0  0  0  0  0  0  0
  -25.1780  -13.8193   20.5671 C   0  0  0  0  0  0  0  0  0  0  0  0
  -29.2267  -20.1538   20.5017 C   0  0  0  0  0  0  0  0  0  0  0  0
  -22.7972  -13.4526   21.2346 C   0  0  0  0  0  0  0  0  0  0  0  0
  -29.4614  -26.2451   21.0548 C   0  0  0  0  0  0  0  0  0  0  0  0
  -29.1086  -28.2196   18.5054 C   0  0  0  0  0  0  0  0  0  0  0  0
  -29.5824  -28.7554   15.1684 C   0  0  0  0  0  0  0  0  0  0  0  0
  -30.7060  -14.8030   21.4566 C   0  0  0  0  0  0  0  0  0  0  0  0
  -27.7671  -28.0206   25.5308 C   0  0  0  0  0  0  0  0  0  0  0  0
  -31.8044  -26.2902   20.1251 C   0  0  0  0  0  0  0  0  0  0  0  0
  -29.7911  -25.8426   18.0059 C   0  0  0  0  0  0  0  0  0  0  0  0
  -27.3528  -28.1709   24.0693 C   0  0  0  0  0  0  0  0  0  0  0  0
  -29.6825  -12.7480   18.5530 C   0  0  0  0  0  0  0  0  0  0  0  0
  -27.2717  -26.8053   23.3943 C   0  0  0  0  0  0  0  0  0  0  0  0
  -28.2539  -12.3465   18.9160 C   0  0  0  0  0  0  0  0  0  0  0  0
  -30.5373  -12.9868   19.7940 C   0  0  0  0  0  0  0  0  0  0  0  0
  -28.5263  -13.5696   21.1093 C   0  0  0  0  0  0  0  0  0  0  0  0
  -28.6364  -26.1061   23.3981 C   0  0  1  0  0  0  0  0  0  0  0  0
  -30.4353  -26.9622   20.1632 C   0  0  1  0  0  0  0  0  0  0  0  0
  -27.6259  -13.3668   19.8814 C   0  0  2  0  0  0  0  0  0  0  0  0
  -29.0065  -21.4296   21.2420 C   0  0  0  0  0  0  0  0  0  0  0  0
  -27.8443  -16.7156   22.2650 C   0  0  0  0  0  0  0  0  0  0  0  0
  -29.1544  -30.4467   13.3646 C   0  0  0  0  0  0  0  0  0  0  0  0
  -26.1729  -27.3917   18.4290 C   0  0  0  0  0  0  0  0  0  0  0  0
  -26.0407  -28.3298   16.1116 C   0  0  0  0  0  0  0  0  0  0  0  0
  -26.5806  -29.8270   18.0324 C   0  0  0  0  0  0  0  0  0  0  0  0
  -30.9635  -16.9989   22.5481 C   0  0  0  0  0  0  0  0  0  0  0  0
  -32.4738  -29.0824   14.6282 C   0  0  0  0  0  0  0  0  0  0  0  0
  -30.2876  -19.1646   17.1513 C   0  0  0  0  0  0  0  0  0  0  0  0
  -31.8098  -19.1727   16.9944 C   0  0  0  0  0  0  0  0  0  0  0  0
  -32.4745  -20.3946   17.6176 C   0  0  0  0  0  0  0  0  0  1  0  0
  -28.9398  -16.5961   21.1960 C   0  0  2  0  0  0  0  0  0  0  0  0
  -28.3157  -28.1766   17.2215 C   0  0  1  0  0  0  0  0  0  0  0  0
  -30.1401  -29.9453   14.4085 C   0  0  2  0  0  0  0  0  0  0  0  0
  -26.7966  -28.4111   17.4550 C   0  0  0  0  0  0  0  0  0  0  0  0
  -25.8971  -11.6767   20.3682 N   0  0  0  0  0  0  0  0  0  0  0  0
  -29.6398  -20.2624   19.2246 N   0  0  0  0  0  0  0  0  0  0  0  0
  -28.9885  -19.0159   21.1814 N   0  0  0  0  0  0  0  0  0  0  0  0
  -26.2132  -12.9797   20.2778 N   0  0  0  0  0  0  0  0  0  0  0  0
  -29.8145  -27.0554   18.8403 N   0  0  0  0  0  0  0  0  0  0  0  0
  -29.8969  -13.9271   20.7143 N   0  0  0  0  0  0  0  0  0  0  0  0
  -25.3230  -15.1608   20.5249 N   0  0  0  0  0  0  0  0  0  0  0  0
  -21.8189  -12.4875   21.5100 N   0  0  0  0  0  0  0  0  0  0  0  0
  -29.4920  -26.6622   22.3718 N   0  0  0  0  0  0  0  0  0  0  0  0
  -28.9387  -29.1438   16.3244 N   0  0  0  0  0  0  0  0  0  0  0  0
  -30.1593  -16.0517   21.7892 N   0  0  0  0  0  0  0  0  0  0  0  0
  -31.4065  -29.5713   13.7177 N   0  3  0  0  0  0  0  0  0  0  0  0
  -22.4958  -14.6684   21.3002 O   0  0  0  0  0  0  0  0  0  0  0  0
  -28.7348  -25.3787   20.5825 O   0  0  0  0  0  0  0  0  0  0  0  0
  -29.1077  -29.2507   19.1825 O   0  0  0  0  0  0  0  0  0  0  0  0
  -29.7022  -27.5976   14.7740 O   0  0  0  0  0  0  0  0  0  0  0  0
  -31.8550  -14.4906   21.7942 O   0  0  0  0  0  0  0  0  0  0  0  0
  -21.8266   -6.9166   21.5178 O   0  0  0  0  0  0  0  0  0  0  0  0
  -31.9479  -21.5679   16.9993 O   0  0  0  0  0  0  0  0  0  1  0  0
  -18.6392   -6.5236   26.0000 F   0  0  0  0  0  0  0  0  0  0  0  0
  -22.2881   -4.9639   23.4196 F   0  0  0  0  0  0  0  0  0  0  0  0
  1  2  1  0  0  0  0
  1  5  2  0  0  0  0
  2  6  2  0  0  0  0
  3  8  2  0  0  0  0
  3 16  1  0  0  0  0
  4  9  1  0  0  0  0
  4 16  2  0  0  0  0
  5 18  1  0  0  0  0
  6 20  1  0  0  0  0
  7 10  2  0  0  0  0
  7 19  1  0  0  0  0
  8 22  1  0  0  0  0
  9 22  2  0  0  0  0
 10 23  1  0  0  0  0
 11 12  2  0  0  0  0
 11 24  1  0  0  0  0
 12 25  1  0  0  0  0
 13 21  1  0  0  0  0
 13 23  2  0  0  0  0
 14 25  2  0  0  0  0
 14 26  1  0  0  0  0
 15 28  1  0  0  0  0
 15 29  2  0  0  0  0
 16 27  1  0  0  0  0
 17 27  1  0  0  0  0
 17 30  2  0  0  0  0
 17 32  1  0  0  0  0
 18 20  2  0  0  0  0
 18 37  1  0  0  0  0
 19 21  2  0  0  0  0
 19 38  1  0  0  0  0
 20 46  1  0  0  0  0
 21 39  1  0  0  0  0
 22 81  1  0  0  0  0
 23 82  1  0  0  0  0
 24 26  2  0  0  0  0
 24 81  1  0  0  0  0
 25 83  1  0  0  0  0
 26 84  1  0  0  0  0
 27 64  2  0  0  0  0
 28 57  1  0  0  0  0
 28 65  2  0  0  0  0
 29 60  1  0  0  0  0
 29 66  1  0  0  0  0
 30 67  1  0  0  0  0
 30 70  1  0  0  0  0
 31 49  1  0  0  0  0
 31 65  1  0  0  0  0
 31 66  2  0  0  0  0
 32 71  1  0  0  0  0
 32 76  2  0  0  0  0
 33 47  1  0  0  0  0
 33 72  1  0  0  0  0
 33 77  2  0  0  0  0
 34 61  1  0  0  0  0
 34 68  1  0  0  0  0
 34 78  2  0  0  0  0
 35 62  1  0  0  0  0
 35 73  1  0  0  0  0
 35 79  2  0  0  0  0
 36 69  1  0  0  0  0
 36 74  1  0  0  0  0
 36 80  2  0  0  0  0
 37 40  1  0  0  0  0
 38 47  1  0  0  0  0
 39 68  1  0  0  0  0
 40 42  1  0  0  0  0
 41 43  1  0  0  0  0
 41 44  1  0  0  0  0
 42 46  1  0  0  0  0
 43 48  1  0  0  0  0
 44 69  1  0  0  0  0
 45 48  1  0  0  0  0
 45 69  1  0  0  0  0
 46 72  1  0  0  0  0
 47 68  1  0  0  0  0
 48 67  1  0  0  0  0
 50 60  1  0  0  0  0
 51 62  1  0  0  0  0
 52 63  1  0  0  0  0
 53 63  1  0  0  0  0
 54 63  1  0  0  0  0
 55 74  1  0  0  0  0
 56 75  1  0  0  0  0
 57 58  1  0  0  0  0
 58 59  1  0  0  0  0
 59 82  1  0  0  0  0
 60 74  1  0  0  0  0
 61 63  1  0  0  0  0
 61 73  1  0  0  0  0
 62 75  1  0  0  0  0
 64 67  1  0  0  0  0
M  CHG  1  75   1
M  ISO  4  36 100  59 101  74 100  82 101
M  END
> <Batch ID>
0061

> <Smiles>
CNC(C)C(=O)NC(C(=O)N1Cc2cc([101O:1][101CH2:1]CCc3cc(C(C)[100N:0](C)[100C:0](=O)N4CCCC(n5nc(-c6ccc(Oc7ccc(F)cc7F)cc6)c(C(N)=O)c5N)C4)nc(C)n3)ccc2CC1C(=O)NC1CCCc2ccccc21)C(C)(C)C

> <Shape>
0.280

> <Color>
0.188

> <Negative vol penalty>
0.000

$$$$

  -OEChem-04052317583D

 90 98  0     1  0  0  0  0  0999 V2000
  -26.2722  -20.2034   18.5085 C   0  0  0  0  0  0  0  0  0  0  0  0
  -27.4007  -20.2932   19.3171 C   0  0  0  0  0  0  0  0  0  0  0  0
  -23.0722   -9.8474   19.9359 C   0  0  0  0  0  0  0  0  0  0  0  0
  -23.8069   -9.8731   22.2373 C   0  0  0  0  0  0  0  0  0  0  0  0
  -26.0157  -21.1917   17.5592 C   0  0  0  0  0  0  0  0  0  0  0  0
  -28.2740  -21.3711   19.1760 C   0  0  0  0  0  0  0  0  0  0  0  0
  -29.6724  -23.3343   23.6296 C   0  0  0  0  0  0  0  0  0  0  0  0
  -22.3443   -8.6832   20.1812 C   0  0  0  0  0  0  0  0  0  0  0  0
  -23.0790   -8.7088   22.4826 C   0  0  0  0  0  0  0  0  0  0  0  0
  -30.6483  -22.6472   24.3501 C   0  0  0  0  0  0  0  0  0  0  0  0
  -23.4294   -5.3904   21.9383 C   0  0  0  0  0  0  0  0  0  0  0  0
  -24.0535   -4.3771   22.6659 C   0  0  0  0  0  0  0  0  0  0  0  0
  -33.7865  -18.3897   22.4239 C   0  0  0  0  0  0  0  0  0  0  0  0
  -34.5106  -19.4572   22.9249 C   0  0  0  0  0  0  0  0  0  0  0  0
  -32.3164  -24.2006   23.5605 C   0  0  0  0  0  0  0  0  0  0  0  0
  -22.3311   -4.5281   24.3535 C   0  0  0  0  0  0  0  0  0  0  0  0
  -23.8036  -10.4424   20.9639 C   0  0  0  0  0  0  0  0  0  0  0  0
  -24.1060  -12.9724   20.8401 C   0  0  0  0  0  0  0  0  0  0  0  0
  -26.8812  -22.2873   17.4130 C   0  0  0  0  0  0  0  0  0  0  0  0
  -30.0136  -24.4552   22.8592 C   0  0  0  0  0  0  0  0  0  0  0  0
  -28.0296  -22.3744   18.2229 C   0  0  0  0  0  0  0  0  0  0  0  0
  -31.3425  -24.9018   22.8332 C   0  0  0  0  0  0  0  0  0  0  0  0
  -22.3477   -8.1138   21.4546 C   0  0  0  0  0  0  0  0  0  0  0  0
  -31.9711  -23.0785   24.3133 C   0  0  0  0  0  0  0  0  0  0  0  0
  -22.2562   -5.9726   22.4183 C   0  0  0  0  0  0  0  0  0  0  0  0
  -23.5044   -3.9460   23.8735 C   0  0  0  0  0  0  0  0  0  0  0  0
  -21.7070   -5.5414   23.6258 C   0  0  0  0  0  0  0  0  0  0  0  0
  -24.5561  -11.6448   20.7109 C   0  0  0  0  0  0  0  0  0  0  0  0
  -32.8071  -17.8399   23.2264 C   0  0  0  0  0  0  0  0  0  0  0  0
  -34.2072  -19.9044   24.1952 C   0  0  0  0  0  0  0  0  0  0  0  0
  -25.1898  -13.7384   20.4864 C   0  0  0  0  0  0  0  0  0  0  0  0
  -22.8229  -13.4688   21.2437 C   0  0  0  0  0  0  0  0  0  0  0  0
  -29.8766  -25.1776   19.7667 C   0  0  0  0  0  0  0  0  0  0  0  0
  -30.8155  -28.1029   20.8075 C   0  0  0  0  0  0  0  0  0  0  0  0
  -32.3647  -29.9622   23.2137 C   0  0  0  0  0  0  0  0  0  0  0  0
  -30.6541  -14.8463   20.7310 C   0  0  0  0  0  0  0  0  0  0  0  0
  -26.5875  -23.3064   16.3406 C   0  0  0  0  0  0  0  0  0  0  0  0
  -28.9445  -25.2014   22.1091 C   0  0  0  0  0  0  0  0  0  0  0  0
  -31.7572  -26.1116   22.0377 C   0  0  0  0  0  0  0  0  0  0  0  0
  -27.3629  -24.6102   16.5108 C   0  0  0  0  0  0  0  0  0  0  0  0
  -29.5810  -12.4371   18.3391 C   0  0  0  0  0  0  0  0  0  0  0  0
  -28.8315  -24.3232   16.8070 C   0  0  0  0  0  0  0  0  0  0  0  0
  -28.1438  -12.1214   18.7574 C   0  0  0  0  0  0  0  0  0  0  0  0
  -30.4813  -12.6760   19.5492 C   0  0  0  0  0  0  0  0  0  0  0  0
  -28.5531  -13.3802   20.9130 C   0  0  0  0  0  0  0  0  0  0  0  0
  -28.9875  -23.5411   18.1168 C   0  0  1  0  0  0  0  0  0  0  0  0
  -29.4931  -26.0241   20.9474 C   0  0  1  0  0  0  0  0  0  0  0  0
  -27.5947  -13.1866   19.7254 C   0  0  2  0  0  0  0  0  0  0  0  0
  -33.0110  -32.3230   23.7673 C   0  0  0  0  0  0  0  0  0  0  0  0
  -36.4366  -21.2085   24.2869 C   0  0  0  0  0  0  0  0  0  0  0  0
  -35.0559  -20.9184   26.3332 C   0  0  0  0  0  0  0  0  0  0  0  0
  -33.1066  -27.9441   18.7987 C   0  0  0  0  0  0  0  0  0  0  0  0
  -34.2233  -29.8165   20.0297 C   0  0  0  0  0  0  0  0  0  0  0  0
  -32.0049  -30.1842   18.9497 C   0  0  0  0  0  0  0  0  0  0  0  0
  -29.2555  -17.1282   24.1532 C   0  0  0  0  0  0  0  0  0  0  0  0
  -30.7125  -29.9617   25.6691 C   0  0  0  0  0  0  0  0  0  0  0  0
  -32.0000  -16.6874   22.7353 C   0  0  0  0  0  0  0  0  0  0  0  0
  -34.2508  -22.4235   24.4856 C   0  0  0  0  0  0  0  0  0  1  0  0
  -32.1451  -28.7770   21.0454 C   0  0  1  0  0  0  0  0  0  0  0  0
  -31.9525  -31.2417   23.9191 C   0  0  2  0  0  0  0  0  0  0  0  0
  -30.9595  -17.8337   20.6964 C   0  0  0  0  0  0  0  0  0  0  0  0
  -34.9806  -21.0918   24.7987 C   0  0  0  0  0  0  0  0  0  0  0  0
  -32.8628  -29.1565   19.7194 C   0  0  0  0  0  0  0  0  0  0  0  0
  -30.6719  -17.0011   21.9621 C   0  0  2  0  0  0  0  0  0  0  0  0
  -29.6939  -17.8012   22.8637 C   0  0  0  0  0  0  0  0  0  0  0  0
  -25.8268  -11.5682   20.3066 N   0  0  0  0  0  0  0  0  0  0  0  0
  -32.5316  -18.2980   24.4659 N   0  0  0  0  0  0  0  0  0  0  0  0
  -33.2430  -19.3474   24.9581 N   0  0  0  0  0  0  0  0  0  0  0  0
  -26.1844  -12.8573   20.1786 N   0  0  0  0  0  0  0  0  0  0  0  0
  -30.6765  -26.8037   21.3162 N   0  0  0  0  0  0  0  0  0  0  0  0
  -29.9047  -13.6980   20.4261 N   0  0  0  0  0  0  0  0  0  0  0  0
  -25.3795  -15.0729   20.4117 N   0  0  0  0  0  0  0  0  0  0  0  0
  -21.8221  -12.5444   21.5727 N   0  0  0  0  0  0  0  0  0  0  0  0
  -28.8381  -24.4242   19.2536 N   0  0  0  0  0  0  0  0  0  0  0  0
  -31.8770  -29.9096   21.9250 N   0  0  0  0  0  0  0  0  0  0  0  0
  -30.0309  -15.7677   21.5637 N   0  0  0  0  0  0  0  0  0  0  0  0
  -31.7450  -30.9879   25.3729 N   0  3  0  0  0  0  0  0  0  0  0  0
  -22.5662  -14.6956   21.2948 O   0  0  0  0  0  0  0  0  0  0  0  0
  -31.0291  -25.2069   19.3511 O   0  0  0  0  0  0  0  0  0  0  0  0
  -29.9302  -28.7095   20.1993 O   0  0  0  0  0  0  0  0  0  0  0  0
  -33.0537  -29.0978   23.7508 O   0  0  0  0  0  0  0  0  0  0  0  0
  -31.7919  -15.0388   20.2891 O   0  0  0  0  0  0  0  0  0  0  0  0
  -21.6373   -6.9779   21.6944 O   0  0  0  0  0  0  0  0  0  0  0  0
  -32.9258  -22.4092   25.0151 O   0  0  0  0  0  0  0  0  0  1  0  0
  -24.1029   -2.9719   24.5713 F   0  0  0  0  0  0  0  0  0  0  0  0
  -20.5795   -6.0960   24.0914 F   0  0  0  0  0  0  0  0  0  0  0  0
  -31.5267  -19.0222   21.0297 F   0  0  0  0  0  0  0  0  0  0  0  0
  -29.8099  -18.1425   20.0455 F   0  0  0  0  0  0  0  0  0  0  0  0
  -28.5689  -18.1036   22.1561 F   0  0  0  0  0  0  0  0  0  0  0  0
  -30.2618  -18.9965   23.1881 F   0  0  0  0  0  0  0  0  0  0  0  0
  1  2  1  0  0  0  0
  1  5  2  0  0  0  0
  2  6  2  0  0  0  0
  3  8  2  0  0  0  0
  3 17  1  0  0  0  0
  4  9  1  0  0  0  0
  4 17  2  0  0  0  0
  5 19  1  0  0  0  0
  6 21  1  0  0  0  0
  7 10  2  0  0  0  0
  7 20  1  0  0  0  0
  8 23  1  0  0  0  0
  9 23  2  0  0  0  0
 10 24  1  0  0  0  0
 11 12  2  0  0  0  0
 11 25  1  0  0  0  0
 12 26  1  0  0  0  0
 13 14  2  0  0  0  0
 13 29  1  0  0  0  0
 14 30  1  0  0  0  0
 15 22  1  0  0  0  0
 15 24  2  0  0  0  0
 16 26  2  0  0  0  0
 16 27  1  0  0  0  0
 17 28  1  0  0  0  0
 18 28  1  0  0  0  0
 18 31  2  0  0  0  0
 18 32  1  0  0  0  0
 19 21  2  0  0  0  0
 19 37  1  0  0  0  0
 20 22  2  0  0  0  0
 20 38  1  0  0  0  0
 21 46  1  0  0  0  0
 22 39  1  0  0  0  0
 23 83  1  0  0  0  0
 24 84  1  0  0  0  0
 25 27  2  0  0  0  0
 25 83  1  0  0  0  0
 26 85  1  0  0  0  0
 27 86  1  0  0  0  0
 28 66  2  0  0  0  0
 29 57  1  0  0  0  0
 29 67  2  0  0  0  0
 30 62  1  0  0  0  0
 30 68  2  0  0  0  0
 31 69  1  0  0  0  0
 31 72  1  0  0  0  0
 32 73  1  0  0  0  0
 32 78  2  0  0  0  0
 33 47  1  0  0  0  0
 33 74  1  0  0  0  0
 33 79  2  0  0  0  0
 34 59  1  0  0  0  0
 34 70  1  0  0  0  0
 34 80  2  0  0  0  0
 35 60  1  0  0  0  0
 35 75  1  0  0  0  0
 35 81  2  0  0  0  0
 36 71  1  0  0  0  0
 36 76  1  0  0  0  0
 36 82  2  0  0  0  0
 37 40  1  0  0  0  0
 38 47  1  0  0  0  0
 39 70  1  0  0  0  0
 40 42  1  0  0  0  0
 41 43  1  0  0  0  0
 41 44  1  0  0  0  0
 42 46  1  0  0  0  0
 43 48  1  0  0  0  0
 44 71  1  0  0  0  0
 45 48  1  0  0  0  0
 45 71  1  0  0  0  0
 46 74  1  0  0  0  0
 47 70  1  0  0  0  0
 48 69  1  0  0  0  0
 49 60  1  0  0  0  0
 50 62  1  0  0  0  0
 51 62  1  0  0  0  0
 52 63  1  0  0  0  0
 53 63  1  0  0  0  0
 54 63  1  0  0  0  0
 55 65  1  0  0  0  0
 56 77  1  0  0  0  0
 57 64  1  0  0  0  0
 58 62  1  0  0  0  0
 58 84  1  0  0  0  0
 59 63  1  0  0  0  0
 59 75  1  0  0  0  0
 60 77  1  0  0  0  0
 61 64  1  0  0  0  0
 61 87  1  0  0  0  0
 61 88  1  0  0  0  0
 64 65  1  0  0  0  0
 64 76  1  0  0  0  0
 65 89  1  0  0  0  0
 65 90  1  0  0  0  0
 66 69  1  0  0  0  0
 67 68  1  0  0  0  0
M  CHG  1  77   1
M  ISO  4  36 100  58 101  76 100  84 101
M  END
> <Batch ID>
0061

> <Smiles>
CNC(C)C(=O)NC(C(=O)N1Cc2cc([101O:1][101CH2:1]C(C)(C)c3ccc(CC([100NH:0][100C:0](=O)N4CCCC(n5nc(-c6ccc(Oc7ccc(F)cc7F)cc6)c(C(N)=O)c5N)C4)(C(F)F)C(C)(F)F)nn3)ccc2CC1C(=O)NC1CCCc2ccccc21)C(C)(C)C

> <Shape>
0.249

> <Color>
0.212

> <Negative vol penalty>
0.000

$$$$

  -OEChem-04052317583D

 88 96  0     1  0  0  0  0  0999 V2000
  -24.0536  -30.5127   16.7863 C   0  0  0  0  0  0  0  0  0  0  0  0
  -24.5607  -29.4348   17.5049 C   0  0  0  0  0  0  0  0  0  0  0  0
  -24.3794   -9.6656   21.4141 C   0  0  0  0  0  0  0  0  0  0  0  0
  -24.9099  -10.7912   23.4850 C   0  0  0  0  0  0  0  0  0  0  0  0
  -23.3693  -31.5308   17.4488 C   0  0  0  0  0  0  0  0  0  0  0  0
  -24.3845  -29.3750   18.8869 C   0  0  0  0  0  0  0  0  0  0  0  0
  -22.9475  -24.7827   20.4651 C   0  0  0  0  0  0  0  0  0  0  0  0
  -24.0768   -8.5033   22.1234 C   0  0  0  0  0  0  0  0  0  0  0  0
  -24.6072   -9.6289   24.1943 C   0  0  0  0  0  0  0  0  0  0  0  0
  -23.9350  -23.8027   20.5558 C   0  0  0  0  0  0  0  0  0  0  0  0
  -21.5021   -7.3036   23.9577 C   0  0  0  0  0  0  0  0  0  0  0  0
  -20.3379   -6.6177   23.6116 C   0  0  0  0  0  0  0  0  0  0  0  0
  -24.0735  -24.1711   22.9358 C   0  0  0  0  0  0  0  0  0  0  0  0
  -21.6504   -4.6620   23.0729 C   0  0  0  0  0  0  0  0  0  0  0  0
  -29.7517  -18.5925   20.7098 C   0  0  0  0  0  0  0  0  0  0  0  0
  -24.7960  -10.8095   22.0950 C   0  0  0  0  0  0  0  0  0  0  0  0
  -24.2269  -13.0530   21.0223 C   0  0  0  0  0  0  0  0  0  0  0  0
  -23.1763  -31.4786   18.8383 C   0  0  0  0  0  0  0  0  0  0  0  0
  -22.5226  -25.4730   21.6094 C   0  0  0  0  0  0  0  0  0  0  0  0
  -23.6981  -30.3940   19.5689 C   0  0  0  0  0  0  0  0  0  0  0  0
  -23.0786  -25.1575   22.8574 C   0  0  0  0  0  0  0  0  0  0  0  0
  -24.1907   -8.4849   23.5135 C   0  0  0  0  0  0  0  0  0  0  0  0
  -24.5002  -23.4988   21.7908 C   0  0  0  0  0  0  0  0  0  0  0  0
  -22.7404   -6.6689   23.8613 C   0  0  0  0  0  0  0  0  0  0  0  0
  -20.4120   -5.2969   23.1693 C   0  0  0  0  0  0  0  0  0  0  0  0
  -22.8145   -5.3481   23.4189 C   0  0  0  0  0  0  0  0  0  0  0  0
  -25.1093  -12.0103   21.3628 C   0  0  0  0  0  0  0  0  0  0  0  0
  -29.7512  -17.7053   21.7490 C   0  0  0  0  0  0  0  0  0  0  0  0
  -25.0060  -13.9516   20.3353 C   0  0  0  0  0  0  0  0  0  0  0  0
  -30.0429  -19.7349   22.5834 C   0  0  0  0  0  0  0  0  0  0  0  0
  -22.8280  -13.1965   21.3021 C   0  0  0  0  0  0  0  0  0  0  0  0
  -22.5596  -28.5127   22.5383 C   0  0  0  0  0  0  0  0  0  0  0  0
  -20.8413  -27.3637   25.0382 C   0  0  0  0  0  0  0  0  0  0  0  0
  -20.0088  -24.6983   27.0002 C   0  0  0  0  0  0  0  0  0  0  0  0
  -31.0915  -14.6373   20.5217 C   0  0  0  0  0  0  0  0  0  0  0  0
  -22.4711  -32.6262   19.5169 C   0  0  0  0  0  0  0  0  0  0  0  0
  -21.4374  -26.5087   21.4988 C   0  0  0  0  0  0  0  0  0  0  0  0
  -22.6429  -25.8554   24.1189 C   0  0  0  0  0  0  0  0  0  0  0  0
  -22.0016  -32.3011   20.9326 C   0  0  0  0  0  0  0  0  0  0  0  0
  -28.8964  -14.2075   17.5723 C   0  0  0  0  0  0  0  0  0  0  0  0
  -23.1125  -31.6117   21.7183 C   0  0  0  0  0  0  0  0  0  0  0  0
  -27.6281  -13.6155   18.1846 C   0  0  0  0  0  0  0  0  0  0  0  0
  -30.1378  -13.8521   18.3850 C   0  0  0  0  0  0  0  0  0  0  0  0
  -28.7740  -13.6299   20.4356 C   0  0  0  0  0  0  0  0  0  0  0  0
  -23.5058  -30.2810   21.0657 C   0  0  1  0  0  0  0  0  0  0  0  0
  -21.4468  -27.5093   22.6504 C   0  0  1  0  0  0  0  0  0  0  0  0
  -27.4993  -14.0083   19.6666 C   0  0  2  0  0  0  0  0  0  0  0  0
  -28.9347  -15.7174   23.0692 C   0  0  0  0  0  0  0  0  0  0  0  0
  -18.6092  -24.0766   28.9881 C   0  0  0  0  0  0  0  0  0  0  0  0
  -32.0874  -19.7800   24.9219 C   0  0  0  0  0  0  0  0  0  0  0  0
  -32.7205  -21.1890   22.9631 C   0  0  0  0  0  0  0  0  0  0  0  0
  -31.7925  -22.2548   25.0342 C   0  0  0  0  0  0  0  0  0  0  0  0
  -22.8846  -28.6773   26.8846 C   0  0  0  0  0  0  0  0  0  0  0  0
  -22.0052  -27.2597   28.7516 C   0  0  0  0  0  0  0  0  0  0  0  0
  -20.5076  -28.9077   27.6272 C   0  0  0  0  0  0  0  0  0  0  0  0
  -31.9906  -16.0355   22.3428 C   0  0  0  0  0  0  0  0  0  0  0  0
  -18.4071  -22.7776   25.4177 C   0  0  0  0  0  0  0  0  0  0  0  0
  -30.2480  -20.8405   23.5522 C   0  0  0  0  0  0  0  0  0  0  0  0
  -28.6272  -21.6604   20.0408 C   0  0  0  0  0  0  0  0  0  0  0  0
  -27.6676  -21.8638   21.2144 C   0  0  0  0  0  0  0  0  0  0  0  0
  -29.9983  -21.1278   20.4722 C   0  0  0  0  0  0  0  0  0  0  0  0
  -26.3066  -22.3593   20.7445 C   0  0  0  0  0  0  0  0  0  1  0  0
  -29.5986  -16.2484   21.7779 C   0  0  2  0  0  0  0  0  0  0  0  0
  -21.1777  -26.8021   26.3985 C   0  0  1  0  0  0  0  0  0  0  0  0
  -18.6638  -24.1756   27.4716 C   0  0  2  0  0  0  0  0  0  0  0  0
  -31.7019  -21.0316   24.1052 C   0  0  0  0  0  0  0  0  0  0  0  0
  -21.6536  -27.8997   27.3916 C   0  0  0  0  0  0  0  0  0  0  0  0
  -26.3537  -12.2253   20.9278 N   0  0  0  0  0  0  0  0  0  0  0  0
  -29.9334  -19.8405   21.2551 N   0  0  0  0  0  0  0  0  0  0  0  0
  -26.2588  -13.4133   20.3068 N   0  0  0  0  0  0  0  0  0  0  0  0
  -29.9335  -18.4396   22.8960 N   0  3  0  0  0  0  0  0  0  0  0  0
  -21.5832  -26.8648   23.9581 N   0  0  0  0  0  0  0  0  0  0  0  0
  -29.9717  -14.1965   19.7975 N   0  0  0  0  0  0  0  0  0  0  0  0
  -24.7348  -15.1417   19.7587 N   0  0  0  0  0  0  0  0  0  0  0  0
  -22.1824  -12.1800   22.0192 N   0  0  0  0  0  0  0  0  0  0  0  0
  -22.5298  -29.2583   21.3752 N   0  0  0  0  0  0  0  0  0  0  0  0
  -19.9971  -26.0678   26.8404 N   0  0  0  0  0  0  0  0  0  0  0  0
  -30.8601  -15.5407   21.5700 N   0  0  0  0  0  0  0  0  0  0  0  0
  -18.4056  -22.8227   26.9026 N   0  3  0  0  0  0  0  0  0  0  0  0
  -22.1665  -14.1888   20.9132 O   0  0  0  0  0  0  0  0  0  0  0  0
  -23.3834  -28.6047   23.4409 O   0  0  0  0  0  0  0  0  0  0  0  0
  -19.9482  -28.2084   24.9367 O   0  0  0  0  0  0  0  0  0  0  0  0
  -20.9745  -23.9654   26.7980 O   0  0  0  0  0  0  0  0  0  0  0  0
  -32.2341  -14.2531   20.2408 O   0  0  0  0  0  0  0  0  0  0  0  0
  -23.8952   -7.3510   24.2059 O   0  0  0  0  0  0  0  0  0  0  0  0
  -25.4648  -22.5431   21.8820 O   0  0  0  0  0  0  0  0  0  1  0  0
  -19.2938   -4.6378   22.8385 F   0  0  0  0  0  0  0  0  0  0  0  0
  -24.0012   -4.7326   23.3254 F   0  0  0  0  0  0  0  0  0  0  0  0
  1  2  1  0  0  0  0
  1  5  2  0  0  0  0
  2  6  2  0  0  0  0
  3  8  2  0  0  0  0
  3 16  1  0  0  0  0
  4  9  1  0  0  0  0
  4 16  2  0  0  0  0
  5 18  1  0  0  0  0
  6 20  1  0  0  0  0
  7 10  2  0  0  0  0
  7 19  1  0  0  0  0
  8 22  1  0  0  0  0
  9 22  2  0  0  0  0
 10 23  1  0  0  0  0
 11 12  2  0  0  0  0
 11 24  1  0  0  0  0
 12 25  1  0  0  0  0
 13 21  1  0  0  0  0
 13 23  2  0  0  0  0
 14 25  2  0  0  0  0
 14 26  1  0  0  0  0
 15 28  2  0  0  0  0
 15 69  1  0  0  0  0
 16 27  1  0  0  0  0
 17 27  1  0  0  0  0
 17 29  2  0  0  0  0
 17 31  1  0  0  0  0
 18 20  2  0  0  0  0
 18 36  1  0  0  0  0
 19 21  2  0  0  0  0
 19 37  1  0  0  0  0
 20 45  1  0  0  0  0
 21 38  1  0  0  0  0
 22 85  1  0  0  0  0
 23 86  1  0  0  0  0
 24 26  2  0  0  0  0
 24 85  1  0  0  0  0
 25 87  1  0  0  0  0
 26 88  1  0  0  0  0
 27 68  2  0  0  0  0
 28 63  1  0  0  0  0
 28 71  1  0  0  0  0
 29 70  1  0  0  0  0
 29 74  1  0  0  0  0
 30 58  1  0  0  0  0
 30 69  1  0  0  0  0
 30 71  2  0  0  0  0
 31 75  1  0  0  0  0
 31 80  2  0  0  0  0
 32 46  1  0  0  0  0
 32 76  1  0  0  0  0
 32 81  2  0  0  0  0
 33 64  1  0  0  0  0
 33 72  1  0  0  0  0
 33 82  2  0  0  0  0
 34 65  1  0  0  0  0
 34 77  1  0  0  0  0
 34 83  2  0  0  0  0
 35 73  1  0  0  0  0
 35 78  1  0  0  0  0
 35 84  2  0  0  0  0
 36 39  1  0  0  0  0
 37 46  1  0  0  0  0
 38 72  1  0  0  0  0
 39 41  1  0  0  0  0
 40 42  1  0  0  0  0
 40 43  1  0  0  0  0
 41 45  1  0  0  0  0
 42 47  1  0  0  0  0
 43 73  1  0  0  0  0
 44 47  1  0  0  0  0
 44 73  1  0  0  0  0
 45 76  1  0  0  0  0
 46 72  1  0  0  0  0
 47 70  1  0  0  0  0
 48 63  1  0  0  0  0
 49 65  1  0  0  0  0
 50 66  1  0  0  0  0
 51 66  1  0  0  0  0
 52 66  1  0  0  0  0
 53 67  1  0  0  0  0
 54 67  1  0  0  0  0
 55 67  1  0  0  0  0
 56 78  1  0  0  0  0
 57 79  1  0  0  0  0
 58 66  1  0  0  0  0
 59 60  1  0  0  0  0
 59 61  1  0  0  0  0
 60 62  1  0  0  0  0
 61 69  1  0  0  0  0
 62 86  1  0  0  0  0
 63 78  1  0  0  0  0
 64 67  1  0  0  0  0
 64 77  1  0  0  0  0
 65 79  1  0  0  0  0
 68 70  1  0  0  0  0
M  CHG  2  71   1  79   1
M  ISO  4  35 100  62 101  78 100  86 101
M  END
> <Batch ID>
0061

> <Smiles>
CNC(C)C(=O)NC(C(=O)N1Cc2cc([101O:1][101CH2:1]CCCn3cc(C(C)[100N:0](C)[100C:0](=O)N4CCCC(n5nc(-c6ccc(Oc7ccc(F)cc7F)cc6)c(C(N)=O)c5N)C4)nc3CC(C)(C)C)ccc2CC1C(=O)NC1CCCc2ccccc21)C(C)(C)C

> <Shape>
0.240

> <Color>
0.123

> <Negative vol penalty>
0.000

$$$$

  -OEChem-04052317583D

 83 91  0     1  0  0  0  0  0999 V2000
  -29.4755  -35.5179   22.7829 C   0  0  0  0  0  0  0  0  0  0  0  0
  -29.8751  -34.1993   22.5900 C   0  0  0  0  0  0  0  0  0  0  0  0
  -24.4032   -9.5562   21.4257 C   0  0  0  0  0  0  0  0  0  0  0  0
  -24.8827  -10.7787   23.4537 C   0  0  0  0  0  0  0  0  0  0  0  0
  -28.1589  -35.8002   23.1445 C   0  0  0  0  0  0  0  0  0  0  0  0
  -28.9586  -33.1622   22.7598 C   0  0  0  0  0  0  0  0  0  0  0  0
  -28.7041  -27.9204   19.6032 C   0  0  0  0  0  0  0  0  0  0  0  0
  -24.1504   -8.4086   22.1772 C   0  0  0  0  0  0  0  0  0  0  0  0
  -24.6298   -9.6311   24.2052 C   0  0  0  0  0  0  0  0  0  0  0  0
  -29.1654  -26.6345   19.8815 C   0  0  0  0  0  0  0  0  0  0  0  0
  -23.0277   -5.2518   23.5876 C   0  0  0  0  0  0  0  0  0  0  0  0
  -21.8966   -4.5018   23.2655 C   0  0  0  0  0  0  0  0  0  0  0  0
  -26.9783  -26.0342   20.7032 C   0  0  0  0  0  0  0  0  0  0  0  0
  -20.4958   -6.4142   23.7318 C   0  0  0  0  0  0  0  0  0  0  0  0
  -29.3746  -18.4592   20.1969 C   0  0  0  0  0  0  0  0  0  0  0  0
  -29.6996  -19.8885   22.4283 C   0  0  0  0  0  0  0  0  0  0  0  0
  -24.7694  -10.7412   22.0639 C   0  0  0  0  0  0  0  0  0  0  0  0
  -24.1049  -12.9173   20.9103 C   0  0  0  0  0  0  0  0  0  0  0  0
  -27.2233  -34.7667   23.3093 C   0  0  0  0  0  0  0  0  0  0  0  0
  -27.3771  -28.2767   19.8834 C   0  0  0  0  0  0  0  0  0  0  0  0
  -27.6286  -33.4310   23.1253 C   0  0  0  0  0  0  0  0  0  0  0  0
  -26.5019  -27.3245   20.4251 C   0  0  0  0  0  0  0  0  0  0  0  0
  -24.2636   -8.4460   23.5669 C   0  0  0  0  0  0  0  0  0  0  0  0
  -28.3033  -25.6921   20.4343 C   0  0  0  0  0  0  0  0  0  0  0  0
  -22.8928   -6.5830   23.9819 C   0  0  0  0  0  0  0  0  0  0  0  0
  -20.6307   -5.0830   23.3376 C   0  0  0  0  0  0  0  0  0  0  0  0
  -21.6269   -7.1642   24.0540 C   0  0  0  0  0  0  0  0  0  0  0  0
  -25.0312  -11.9268   21.2881 C   0  0  0  0  0  0  0  0  0  0  0  0
  -29.4413  -17.8476   21.4294 C   0  0  0  0  0  0  0  0  0  0  0  0
  -29.6336  -20.5001   21.1958 C   0  0  0  0  0  0  0  0  0  0  0  0
  -24.8451  -13.8229   20.1904 C   0  0  0  0  0  0  0  0  0  0  0  0
  -22.7009  -13.0104   21.1856 C   0  0  0  0  0  0  0  0  0  0  0  0
  -25.9802  -30.4091   21.7820 C   0  0  0  0  0  0  0  0  0  0  0  0
  -23.2840  -29.3877   20.2956 C   0  0  0  0  0  0  0  0  0  0  0  0
  -21.6843  -26.9113   18.5765 C   0  0  0  0  0  0  0  0  0  0  0  0
  -30.8952  -14.7771   20.3475 C   0  0  0  0  0  0  0  0  0  0  0  0
  -25.8234  -35.1179   23.7469 C   0  0  0  0  0  0  0  0  0  0  0  0
  -26.8877  -29.6600   19.5525 C   0  0  0  0  0  0  0  0  0  0  0  0
  -25.0626  -27.6507   20.7258 C   0  0  0  0  0  0  0  0  0  0  0  0
  -24.8191  -33.9867   23.5412 C   0  0  0  0  0  0  0  0  0  0  0  0
  -28.7234  -14.1453   17.4173 C   0  0  0  0  0  0  0  0  0  0  0  0
  -25.3906  -32.6666   24.0488 C   0  0  0  0  0  0  0  0  0  0  0  0
  -27.4813  -13.5219   18.0516 C   0  0  0  0  0  0  0  0  0  0  0  0
  -29.9782  -13.8738   18.2416 C   0  0  0  0  0  0  0  0  0  0  0  0
  -28.6234  -13.6681   20.2999 C   0  0  0  0  0  0  0  0  0  0  0  0
  -26.6573  -32.2803   23.2758 C   0  0  1  0  0  0  0  0  0  0  0  0
  -25.6559  -30.0660   20.3556 C   0  0  1  0  0  0  0  0  0  0  0  0
  -27.3343  -13.9627   19.5184 C   0  0  2  0  0  0  0  0  0  0  0  0
  -28.6984  -15.9145   22.8691 C   0  0  0  0  0  0  0  0  0  0  0  0
  -19.4739  -26.3522   17.5280 C   0  0  0  0  0  0  0  0  0  0  0  0
  -22.1066  -28.8658   23.0617 C   0  0  0  0  0  0  0  0  0  0  0  0
  -20.3450  -27.4609   21.9703 C   0  0  0  0  0  0  0  0  0  0  0  0
  -20.5150  -29.8895   21.4267 C   0  0  0  0  0  0  0  0  0  0  0  0
  -31.7314  -16.2785   22.1156 C   0  0  0  0  0  0  0  0  0  0  0  0
  -22.8956  -26.6422   15.8896 C   0  0  0  0  0  0  0  0  0  0  0  0
  -29.7927  -23.9235   19.8778 C   0  0  0  0  0  0  0  0  0  1  0  0
  -29.6564  -22.4159   19.7870 C   0  0  0  0  0  0  0  0  0  0  0  0
  -29.3330  -16.3671   21.5450 C   0  0  2  0  0  0  0  0  0  0  0  0
  -22.2714  -28.2970   20.5487 C   0  0  1  0  0  0  0  0  0  0  0  0
  -20.8581  -26.9407   17.3033 C   0  0  2  0  0  0  0  0  0  0  0  0
  -21.3371  -28.6224   21.7481 C   0  0  0  0  0  0  0  0  0  0  0  0
  -29.6047  -18.5512   22.5673 N   0  0  0  0  0  0  0  0  0  0  0  0
  -29.4699  -19.7964   20.0580 N   0  0  0  0  0  0  0  0  0  0  0  0
  -26.2656  -12.1792   20.8447 N   0  0  0  0  0  0  0  0  0  0  0  0
  -26.1201  -13.3386   20.1808 N   0  0  0  0  0  0  0  0  0  0  0  0
  -24.6333  -29.0185   20.3903 N   0  0  0  0  0  0  0  0  0  0  0  0
  -29.7961  -14.2621   19.6406 N   0  0  0  0  0  0  0  0  0  0  0  0
  -24.5233  -14.9784   19.5708 N   0  0  0  0  0  0  0  0  0  0  0  0
  -22.0991  -11.9939   21.9398 N   0  0  0  0  0  0  0  0  0  0  0  0
  -26.3123  -31.7358   21.9800 N   0  0  0  0  0  0  0  0  0  0  0  0
  -21.5717  -28.0885   19.2856 N   0  0  0  0  0  0  0  0  0  0  0  0
  -30.6240  -15.7074   21.3622 N   0  0  0  0  0  0  0  0  0  0  0  0
  -21.5330  -26.1578   16.2297 N   0  3  0  0  0  0  0  0  0  0  0  0
  -21.9975  -13.9583   20.7611 O   0  0  0  0  0  0  0  0  0  0  0  0
  -25.9312  -29.5353   22.6398 O   0  0  0  0  0  0  0  0  0  0  0  0
  -22.8922  -30.5237   20.0168 O   0  0  0  0  0  0  0  0  0  0  0  0
  -22.3588  -25.9398   18.9105 O   0  0  0  0  0  0  0  0  0  0  0  0
  -32.0535  -14.4326   20.0801 O   0  0  0  0  0  0  0  0  0  0  0  0
  -24.0168   -7.3265   24.3006 O   0  0  0  0  0  0  0  0  0  0  0  0
  -28.7512  -24.4364   20.7075 O   0  0  0  0  0  0  0  0  0  1  0  0
  -29.7341  -21.8628   21.0951 O   0  0  0  0  0  0  0  0  0  0  0  0
  -19.5447   -4.3631   23.0268 F   0  0  0  0  0  0  0  0  0  0  0  0
  -21.4911   -8.4430   24.4310 F   0  0  0  0  0  0  0  0  0  0  0  0
  1  2  1  0  0  0  0
  1  5  2  0  0  0  0
  2  6  2  0  0  0  0
  3  8  2  0  0  0  0
  3 17  1  0  0  0  0
  4  9  1  0  0  0  0
  4 17  2  0  0  0  0
  5 19  1  0  0  0  0
  6 21  1  0  0  0  0
  7 10  2  0  0  0  0
  7 20  1  0  0  0  0
  8 23  1  0  0  0  0
  9 23  2  0  0  0  0
 10 24  1  0  0  0  0
 11 12  2  0  0  0  0
 11 25  1  0  0  0  0
 12 26  1  0  0  0  0
 13 22  1  0  0  0  0
 13 24  2  0  0  0  0
 14 26  2  0  0  0  0
 14 27  1  0  0  0  0
 15 29  2  0  0  0  0
 15 63  1  0  0  0  0
 16 30  1  0  0  0  0
 16 62  2  0  0  0  0
 17 28  1  0  0  0  0
 18 28  1  0  0  0  0
 18 31  2  0  0  0  0
 18 32  1  0  0  0  0
 19 21  2  0  0  0  0
 19 37  1  0  0  0  0
 20 22  2  0  0  0  0
 20 38  1  0  0  0  0
 21 46  1  0  0  0  0
 22 39  1  0  0  0  0
 23 79  1  0  0  0  0
 24 80  1  0  0  0  0
 25 27  2  0  0  0  0
 25 79  1  0  0  0  0
 26 82  1  0  0  0  0
 27 83  1  0  0  0  0
 28 64  2  0  0  0  0
 29 58  1  0  0  0  0
 29 62  1  0  0  0  0
 30 63  2  0  0  0  0
 30 81  1  0  0  0  0
 31 65  1  0  0  0  0
 31 68  1  0  0  0  0
 32 69  1  0  0  0  0
 32 74  2  0  0  0  0
 33 47  1  0  0  0  0
 33 70  1  0  0  0  0
 33 75  2  0  0  0  0
 34 59  1  0  0  0  0
 34 66  1  0  0  0  0
 34 76  2  0  0  0  0
 35 60  1  0  0  0  0
 35 71  1  0  0  0  0
 35 77  2  0  0  0  0
 36 67  1  0  0  0  0
 36 72  1  0  0  0  0
 36 78  2  0  0  0  0
 37 40  1  0  0  0  0
 38 47  1  0  0  0  0
 39 66  1  0  0  0  0
 40 42  1  0  0  0  0
 41 43  1  0  0  0  0
 41 44  1  0  0  0  0
 42 46  1  0  0  0  0
 43 48  1  0  0  0  0
 44 67  1  0  0  0  0
 45 48  1  0  0  0  0
 45 67  1  0  0  0  0
 46 70  1  0  0  0  0
 47 66  1  0  0  0  0
 48 65  1  0  0  0  0
 49 58  1  0  0  0  0
 50 60  1  0  0  0  0
 51 61  1  0  0  0  0
 52 61  1  0  0  0  0
 53 61  1  0  0  0  0
 54 72  1  0  0  0  0
 55 73  1  0  0  0  0
 56 57  1  0  0  0  0
 56 80  1  0  0  0  0
 57 81  1  0  0  0  0
 58 72  1  0  0  0  0
 59 61  1  0  0  0  0
 59 71  1  0  0  0  0
 60 73  1  0  0  0  0
 64 65  1  0  0  0  0
M  CHG  1  73   1
M  ISO  4  36 100  56 101  72 100  80 101
M  END
> <Batch ID>
0061

> <Smiles>
CNC(C)C(=O)NC(C(=O)N1Cc2cc([101O:1][101CH2:1]COc3cnc(C(C)[100N:0](C)[100C:0](=O)N4CCCC(n5nc(-c6ccc(Oc7ccc(F)cc7F)cc6)c(C(N)=O)c5N)C4)cn3)ccc2CC1C(=O)NC1CCCc2ccccc21)C(C)(C)C

> <Shape>
0.357

> <Color>
0.128

> <Negative vol penalty>
0.000

$$$$

  -OEChem-04052317583D

 84 92  0     1  0  0  0  0  0999 V2000
  -17.7498  -30.1694   23.4572 C   0  0  0  0  0  0  0  0  0  0  0  0
  -19.1034  -30.3740   23.2095 C   0  0  0  0  0  0  0  0  0  0  0  0
  -25.1548  -16.5248   21.5155 C   0  0  0  0  0  0  0  0  0  0  0  0
  -25.1784  -16.1966   19.1220 C   0  0  0  0  0  0  0  0  0  0  0  0
  -17.2551  -28.8728   23.5913 C   0  0  0  0  0  0  0  0  0  0  0  0
  -19.9633  -29.2821   23.0968 C   0  0  0  0  0  0  0  0  0  0  0  0
  -24.8452  -28.8036   19.4303 C   0  0  0  0  0  0  0  0  0  0  0  0
  -23.9054  -15.9088   21.5876 C   0  0  0  0  0  0  0  0  0  0  0  0
  -23.9290  -15.5806   19.1941 C   0  0  0  0  0  0  0  0  0  0  0  0
  -26.2097  -28.9773   19.6577 C   0  0  0  0  0  0  0  0  0  0  0  0
  -20.8720  -14.0995   22.4479 C   0  0  0  0  0  0  0  0  0  0  0  0
  -20.6703  -13.1584   23.4574 C   0  0  0  0  0  0  0  0  0  0  0  0
  -26.4514  -26.5999   19.9872 C   0  0  0  0  0  0  0  0  0  0  0  0
  -22.4726  -11.8177   22.5678 C   0  0  0  0  0  0  0  0  0  0  0  0
  -31.8451  -27.8470   18.3380 C   0  0  0  0  0  0  0  0  0  0  0  0
  -31.9372  -25.8588   20.1172 C   0  0  0  0  0  0  0  0  0  0  0  0
  -25.7913  -16.6688   20.2826 C   0  0  0  0  0  0  0  0  0  0  0  0
  -28.3421  -16.6863   20.3046 C   0  0  0  0  0  0  0  0  0  0  0  0
  -18.1076  -27.7641   23.4707 C   0  0  0  0  0  0  0  0  0  0  0  0
  -24.2706  -27.5258   19.4905 C   0  0  0  0  0  0  0  0  0  0  0  0
  -19.4797  -27.9695   23.2308 C   0  0  0  0  0  0  0  0  0  0  0  0
  -25.0798  -26.4123   19.7577 C   0  0  0  0  0  0  0  0  0  0  0  0
  -23.2925  -15.4367   20.4269 C   0  0  0  0  0  0  0  0  0  0  0  0
  -27.0125  -27.8757   19.9391 C   0  0  0  0  0  0  0  0  0  0  0  0
  -21.8740  -13.8997   21.4982 C   0  0  0  0  0  0  0  0  0  0  0  0
  -21.4706  -12.0176   23.5174 C   0  0  0  0  0  0  0  0  0  0  0  0
  -22.6743  -12.7588   21.5582 C   0  0  0  0  0  0  0  0  0  0  0  0
  -27.0816  -17.3055   20.2074 C   0  0  0  0  0  0  0  0  0  0  0  0
  -31.2117  -27.9537   19.5565 C   0  0  0  0  0  0  0  0  0  0  0  0
  -32.5701  -25.7517   18.8984 C   0  0  0  0  0  0  0  0  0  0  0  0
  -29.2416  -17.7157   20.1715 C   0  0  0  0  0  0  0  0  0  0  0  0
  -28.6706  -15.3041   20.4978 C   0  0  0  0  0  0  0  0  0  0  0  0
  -22.0499  -26.1479   21.2998 C   0  0  0  0  0  0  0  0  0  0  0  0
  -22.4562  -23.6786   19.2358 C   0  0  0  0  0  0  0  0  0  0  0  0
  -24.4753  -22.0716   17.0025 C   0  0  0  0  0  0  0  0  0  0  0  0
  -31.0699  -22.1789   17.7843 C   0  0  0  0  0  0  0  0  0  0  0  0
  -17.5352  -26.3831   23.6703 C   0  0  0  0  0  0  0  0  0  0  0  0
  -22.8020  -27.3520   19.2164 C   0  0  0  0  0  0  0  0  0  0  0  0
  -24.5154  -25.0170   19.8136 C   0  0  0  0  0  0  0  0  0  0  0  0
  -18.4460  -25.2673   23.1648 C   0  0  0  0  0  0  0  0  0  0  0  0
  -28.5676  -22.7192   20.2171 C   0  0  0  0  0  0  0  0  0  0  0  0
  -19.8797  -25.4949   23.6334 C   0  0  0  0  0  0  0  0  0  0  0  0
  -28.0479  -21.2992   20.4372 C   0  0  0  0  0  0  0  0  0  0  0  0
  -28.8679  -22.9992   18.7434 C   0  0  0  0  0  0  0  0  0  0  0  0
  -29.2544  -20.5888   18.3393 C   0  0  0  0  0  0  0  0  0  0  0  0
  -20.4397  -26.8097   23.0774 C   0  0  1  0  0  0  0  0  0  0  0  0
  -22.2311  -26.0679   19.8103 C   0  0  1  0  0  0  0  0  0  0  0  0
  -29.0019  -20.2623   19.8193 C   0  0  2  0  0  0  0  0  0  0  0  0
  -24.5468  -20.0591   15.5051 C   0  0  0  0  0  0  0  0  0  0  0  0
  -33.3352  -23.3931   19.6389 C   0  0  0  0  0  0  0  0  0  0  0  0
  -34.8345  -24.8493   18.3020 C   0  0  0  0  0  0  0  0  0  0  0  0
  -22.9370  -21.8929   21.6627 C   0  0  0  0  0  0  0  0  0  0  0  0
  -23.9177  -20.1809   20.1215 C   0  0  0  0  0  0  0  0  0  0  0  0
  -21.5308  -20.8610   19.8705 C   0  0  0  0  0  0  0  0  0  0  0  0
  -30.4570  -24.3484   16.6344 C   0  0  0  0  0  0  0  0  0  0  0  0
  -24.7817  -23.7419   14.5786 C   0  0  0  0  0  0  0  0  0  0  0  0
  -30.4472  -29.2046   19.9160 C   0  0  0  0  0  0  0  0  0  0  0  0
  -32.7989  -23.8447   17.2242 C   0  0  0  0  0  0  0  0  0  0  0  0
  -28.9834  -29.1305   19.4954 C   0  0  0  0  0  0  0  0  0  1  0  0
  -23.3566  -22.4682   19.1810 C   0  0  1  0  0  0  0  0  0  0  0  0
  -24.2091  -21.5385   15.6063 C   0  0  2  0  0  0  0  0  0  0  0  0
  -33.3244  -24.5181   18.5441 C   0  0  0  0  0  0  0  0  0  0  0  0
  -22.9461  -21.3771   20.2099 C   0  0  0  0  0  0  0  0  0  0  0  0
  -31.2466  -26.9617   20.4682 N   0  0  0  0  0  0  0  0  0  0  0  0
  -32.5354  -26.7439   17.9869 N   0  0  0  0  0  0  0  0  0  0  0  0
  -27.1684  -18.6261   20.0267 N   0  0  0  0  0  0  0  0  0  0  0  0
  -28.4942  -18.8451   20.0093 N   0  0  0  0  0  0  0  0  0  0  0  0
  -23.0727  -24.8994   19.5447 N   0  0  0  0  0  0  0  0  0  0  0  0
  -29.7422  -21.9610   18.1807 N   0  0  0  0  0  0  0  0  0  0  0  0
  -30.5909  -17.7560   20.1786 N   0  0  0  0  0  0  0  0  0  0  0  0
  -27.6245  -14.3788   20.6150 N   0  0  0  0  0  0  0  0  0  0  0  0
  -20.8233  -26.6496   21.6912 N   0  0  0  0  0  0  0  0  0  0  0  0
  -23.3477  -22.0153   17.7942 N   0  0  0  0  0  0  0  0  0  0  0  0
  -31.3976  -23.4591   17.3131 N   0  0  0  0  0  0  0  0  0  0  0  0
  -25.0290  -22.2772   14.6048 N   0  3  0  0  0  0  0  0  0  0  0  0
  -29.8565  -14.9038   20.5808 O   0  0  0  0  0  0  0  0  0  0  0  0
  -22.9554  -25.7802   22.0392 O   0  0  0  0  0  0  0  0  0  0  0  0
  -21.2515  -23.5471   19.0058 O   0  0  0  0  0  0  0  0  0  0  0  0
  -25.5744  -22.4922   17.3567 O   0  0  0  0  0  0  0  0  0  0  0  0
  -31.9159  -21.2771   17.8402 O   0  0  0  0  0  0  0  0  0  0  0  0
  -22.0735  -14.8353   20.4970 O   0  0  0  0  0  0  0  0  0  0  0  0
  -28.3445  -28.0426   20.1622 O   0  0  0  0  0  0  0  0  0  1  0  0
  -21.2777  -11.1147   24.4879 F   0  0  0  0  0  0  0  0  0  0  0  0
  -23.6392  -12.5620   20.6494 F   0  0  0  0  0  0  0  0  0  0  0  0
  1  2  1  0  0  0  0
  1  5  2  0  0  0  0
  2  6  2  0  0  0  0
  3  8  2  0  0  0  0
  3 17  1  0  0  0  0
  4  9  1  0  0  0  0
  4 17  2  0  0  0  0
  5 19  1  0  0  0  0
  6 21  1  0  0  0  0
  7 10  2  0  0  0  0
  7 20  1  0  0  0  0
  8 23  1  0  0  0  0
  9 23  2  0  0  0  0
 10 24  1  0  0  0  0
 11 12  2  0  0  0  0
 11 25  1  0  0  0  0
 12 26  1  0  0  0  0
 13 22  1  0  0  0  0
 13 24  2  0  0  0  0
 14 26  2  0  0  0  0
 14 27  1  0  0  0  0
 15 29  1  0  0  0  0
 15 65  2  0  0  0  0
 16 30  2  0  0  0  0
 16 64  1  0  0  0  0
 17 28  1  0  0  0  0
 18 28  1  0  0  0  0
 18 31  2  0  0  0  0
 18 32  1  0  0  0  0
 19 21  2  0  0  0  0
 19 37  1  0  0  0  0
 20 22  2  0  0  0  0
 20 38  1  0  0  0  0
 21 46  1  0  0  0  0
 22 39  1  0  0  0  0
 23 81  1  0  0  0  0
 24 82  1  0  0  0  0
 25 27  2  0  0  0  0
 25 81  1  0  0  0  0
 26 83  1  0  0  0  0
 27 84  1  0  0  0  0
 28 66  2  0  0  0  0
 29 57  1  0  0  0  0
 29 64  2  0  0  0  0
 30 62  1  0  0  0  0
 30 65  1  0  0  0  0
 31 67  1  0  0  0  0
 31 70  1  0  0  0  0
 32 71  1  0  0  0  0
 32 76  2  0  0  0  0
 33 47  1  0  0  0  0
 33 72  1  0  0  0  0
 33 77  2  0  0  0  0
 34 60  1  0  0  0  0
 34 68  1  0  0  0  0
 34 78  2  0  0  0  0
 35 61  1  0  0  0  0
 35 73  1  0  0  0  0
 35 79  2  0  0  0  0
 36 69  1  0  0  0  0
 36 74  1  0  0  0  0
 36 80  2  0  0  0  0
 37 40  1  0  0  0  0
 38 47  1  0  0  0  0
 39 68  1  0  0  0  0
 40 42  1  0  0  0  0
 41 43  1  0  0  0  0
 41 44  1  0  0  0  0
 42 46  1  0  0  0  0
 43 48  1  0  0  0  0
 44 69  1  0  0  0  0
 45 48  1  0  0  0  0
 45 69  1  0  0  0  0
 46 72  1  0  0  0  0
 47 68  1  0  0  0  0
 48 67  1  0  0  0  0
 49 61  1  0  0  0  0
 50 62  1  0  0  0  0
 51 62  1  0  0  0  0
 52 63  1  0  0  0  0
 53 63  1  0  0  0  0
 54 63  1  0  0  0  0
 55 74  1  0  0  0  0
 56 75  1  0  0  0  0
 57 59  1  0  0  0  0
 58 62  1  0  0  0  0
 58 74  1  0  0  0  0
 59 82  1  0  0  0  0
 60 63  1  0  0  0  0
 60 73  1  0  0  0  0
 61 75  1  0  0  0  0
 66 67  1  0  0  0  0
M  CHG  1  75   1
M  ISO  4  36 100  59 101  74 100  82 101
M  END
> <Batch ID>
0061

> <Smiles>
CNC(C)C(=O)NC(C(=O)N1Cc2cc([101O:1][101CH2:1]Cc3cnc(C(C)(C)C[100N:0](C)[100C:0](=O)N4CCCC(n5nc(-c6ccc(Oc7ccc(F)cc7F)cc6)c(C(N)=O)c5N)C4)cn3)ccc2CC1C(=O)NC1CCCc2ccccc21)C(C)(C)C

> <Shape>
0.236

> <Color>
0.060

> <Negative vol penalty>
0.000

$$$$

  -OEChem-04052317583D

 82 90  0     1  0  0  0  0  0999 V2000
  -28.3012  -18.0033   19.8398 C   0  0  0  0  0  0  0  0  0  0  0  0
  -27.2179  -18.8326   19.5671 C   0  0  0  0  0  0  0  0  0  0  0  0
  -24.3114  -15.1772   20.2606 C   0  0  0  0  0  0  0  0  0  0  0  0
  -24.4147  -15.2130   22.6741 C   0  0  0  0  0  0  0  0  0  0  0  0
  -29.3167  -18.4416   20.6887 C   0  0  0  0  0  0  0  0  0  0  0  0
  -27.1490  -20.1002   20.1441 C   0  0  0  0  0  0  0  0  0  0  0  0
  -24.7942  -26.7290   18.7917 C   0  0  0  0  0  0  0  0  0  0  0  0
  -25.3003  -14.1940   20.2328 C   0  0  0  0  0  0  0  0  0  0  0  0
  -25.4037  -14.2297   22.6463 C   0  0  0  0  0  0  0  0  0  0  0  0
  -23.9996  -27.7259   19.3563 C   0  0  0  0  0  0  0  0  0  0  0  0
  -28.6627  -14.0344   20.5382 C   0  0  0  0  0  0  0  0  0  0  0  0
  -29.6998  -14.1852   19.6177 C   0  0  0  0  0  0  0  0  0  0  0  0
  -25.8513  -28.4072   20.7442 C   0  0  0  0  0  0  0  0  0  0  0  0
  -29.0935  -12.0842   18.5904 C   0  0  0  0  0  0  0  0  0  0  0  0
  -23.8686  -15.6868   21.4812 C   0  0  0  0  0  0  0  0  0  0  0  0
  -21.4548  -16.5070   21.5733 C   0  0  0  0  0  0  0  0  0  0  0  0
  -29.2650  -19.7189   21.2687 C   0  0  0  0  0  0  0  0  0  0  0  0
  -26.1222  -26.5565   19.2077 C   0  0  0  0  0  0  0  0  0  0  0  0
  -28.1642  -20.5554   21.0025 C   0  0  0  0  0  0  0  0  0  0  0  0
  -26.6613  -27.4091   20.1816 C   0  0  0  0  0  0  0  0  0  0  0  0
  -25.8465  -13.7202   21.4257 C   0  0  0  0  0  0  0  0  0  0  0  0
  -24.5273  -28.5633   20.3348 C   0  0  0  0  0  0  0  0  0  0  0  0
  -27.8410  -12.9084   20.4849 C   0  0  0  0  0  0  0  0  0  0  0  0
  -29.9152  -13.2101   18.6438 C   0  0  0  0  0  0  0  0  0  0  0  0
  -28.0564  -11.9334   19.5110 C   0  0  0  0  0  0  0  0  0  0  0  0
  -22.8475  -16.7029   21.5105 C   0  0  0  0  0  0  0  0  0  0  0  0
  -20.9294  -17.7760   21.5778 C   0  0  0  0  0  0  0  0  0  0  0  0
  -19.8901  -28.3685   22.4980 C   0  0  0  0  0  0  0  0  0  0  0  0
  -19.8053  -26.4159   23.2308 C   0  0  0  0  0  0  0  0  0  0  0  0
  -20.7033  -15.2870   21.6231 C   0  0  0  0  0  0  0  0  0  0  0  0
  -27.7515  -24.2042   20.5918 C   0  0  0  0  0  0  0  0  0  0  0  0
  -30.2779  -26.1699   20.0668 C   0  0  0  0  0  0  0  0  0  0  0  0
  -31.4217  -29.3446   19.5567 C   0  0  0  0  0  0  0  0  0  0  0  0
  -20.9013  -22.9059   23.4832 C   0  0  0  0  0  0  0  0  0  0  0  0
  -30.3630  -20.1304   22.2172 C   0  0  0  0  0  0  0  0  0  0  0  0
  -26.9742  -25.4937   18.5697 C   0  0  0  0  0  0  0  0  0  0  0  0
  -28.0873  -27.2783   20.6483 C   0  0  0  0  0  0  0  0  0  0  0  0
  -30.4002  -21.6317   22.4913 C   0  0  0  0  0  0  0  0  0  0  0  0
  -23.1183  -22.2512   20.6986 C   0  0  0  0  0  0  0  0  0  0  0  0
  -28.9986  -22.1549   22.7889 C   0  0  0  0  0  0  0  0  0  0  0  0
  -23.1275  -20.7217   20.6702 C   0  0  0  0  0  0  0  0  0  0  0  0
  -23.0799  -22.7773   22.1304 C   0  0  0  0  0  0  0  0  0  0  0  0
  -21.9516  -20.7331   22.9191 C   0  0  0  0  0  0  0  0  0  0  0  0
  -28.0659  -21.9467   21.5896 C   0  0  1  0  0  0  0  0  0  0  0  0
  -28.1575  -25.0759   19.4372 C   0  0  1  0  0  0  0  0  0  0  0  0
  -21.9673  -20.1390   21.4989 C   0  0  2  0  0  0  0  0  0  0  0  0
  -20.2860  -25.3555   25.4682 C   0  0  0  0  0  0  0  0  0  0  0  0
  -33.5400  -30.6414   19.1983 C   0  0  0  0  0  0  0  0  0  0  0  0
  -30.9347  -25.9128   23.0354 C   0  0  0  0  0  0  0  0  0  0  0  0
  -32.4191  -27.9163   22.8092 C   0  0  0  0  0  0  0  0  0  0  0  0
  -32.9211  -25.8421   21.5176 C   0  0  0  0  0  0  0  0  0  0  0  0
  -18.1526  -25.5432   21.5366 C   0  0  0  0  0  0  0  0  0  0  0  0
  -30.5278  -30.2942   16.9000 C   0  0  0  0  0  0  0  0  0  0  0  0
  -20.2850  -29.8178   22.3669 C   0  0  0  0  0  0  0  0  0  0  0  0
  -21.7874  -30.0315   22.1706 C   0  0  0  0  0  0  0  0  0  0  0  0
  -22.3513  -29.2853   20.9670 C   0  0  0  0  0  0  0  0  0  1  0  0
  -19.9687  -25.1526   23.9724 C   0  0  2  0  0  0  0  0  0  0  0  0
  -30.9512  -27.2761   20.8429 C   0  0  1  0  0  0  0  0  0  0  0  0
  -32.3825  -29.9162   18.5297 C   0  0  2  0  0  0  0  0  0  0  0  0
  -31.7790  -26.7383   22.0441 C   0  0  0  0  0  0  0  0  0  0  0  0
  -23.1855  -17.9947   21.4774 N   0  0  0  0  0  0  0  0  0  0  0  0
  -20.3950  -27.5625   23.4778 N   0  0  0  0  0  0  0  0  0  0  0  0
  -19.0250  -27.7928   21.6604 N   0  0  0  0  0  0  0  0  0  0  0  0
  -21.9977  -18.6220   21.5194 N   0  0  0  0  0  0  0  0  0  0  0  0
  -18.9885  -26.5446   22.1510 N   0  0  0  0  0  0  0  0  0  0  0  0
  -28.8784  -26.2201   19.9989 N   0  0  0  0  0  0  0  0  0  0  0  0
  -21.9421  -22.1985   22.8589 N   0  0  0  0  0  0  0  0  0  0  0  0
  -19.6625  -18.2397   21.6259 N   0  0  0  0  0  0  0  0  0  0  0  0
  -21.4010  -14.0715   21.6106 N   0  0  0  0  0  0  0  0  0  0  0  0
  -28.3197  -22.9447   20.5727 N   0  0  0  0  0  0  0  0  0  0  0  0
  -31.7306  -28.0387   19.8737 N   0  0  0  0  0  0  0  0  0  0  0  0
  -20.9702  -24.2903   23.3858 N   0  0  0  0  0  0  0  0  0  0  0  0
  -31.6757  -30.8797   17.6392 N   0  3  0  0  0  0  0  0  0  0  0  0
  -19.4495  -15.2748   21.6607 O   0  0  0  0  0  0  0  0  0  0  0  0
  -26.9811  -24.6424   21.4380 O   0  0  0  0  0  0  0  0  0  0  0  0
  -30.9688  -25.2977   19.5344 O   0  0  0  0  0  0  0  0  0  0  0  0
  -30.4926  -29.9929   20.0330 O   0  0  0  0  0  0  0  0  0  0  0  0
  -19.9754  -22.3449   24.0791 O   0  0  0  0  0  0  0  0  0  0  0  0
  -26.8113  -12.7606   21.3990 O   0  0  0  0  0  0  0  0  0  0  0  0
  -23.7537  -29.5367   20.8879 O   0  0  0  0  0  0  0  0  0  1  0  0
  -30.9102  -13.3558   17.7590 F   0  0  0  0  0  0  0  0  0  0  0  0
  -27.2696  -10.8501   19.4540 F   0  0  0  0  0  0  0  0  0  0  0  0
  1  2  1  0  0  0  0
  1  5  2  0  0  0  0
  2  6  2  0  0  0  0
  3  8  2  0  0  0  0
  3 15  1  0  0  0  0
  4  9  1  0  0  0  0
  4 15  2  0  0  0  0
  5 17  1  0  0  0  0
  6 19  1  0  0  0  0
  7 10  2  0  0  0  0
  7 18  1  0  0  0  0
  8 21  1  0  0  0  0
  9 21  2  0  0  0  0
 10 22  1  0  0  0  0
 11 12  2  0  0  0  0
 11 23  1  0  0  0  0
 12 24  1  0  0  0  0
 13 20  1  0  0  0  0
 13 22  2  0  0  0  0
 14 24  2  0  0  0  0
 14 25  1  0  0  0  0
 15 26  1  0  0  0  0
 16 26  1  0  0  0  0
 16 27  2  0  0  0  0
 16 30  1  0  0  0  0
 17 19  2  0  0  0  0
 17 35  1  0  0  0  0
 18 20  2  0  0  0  0
 18 36  1  0  0  0  0
 19 44  1  0  0  0  0
 20 37  1  0  0  0  0
 21 79  1  0  0  0  0
 22 80  1  0  0  0  0
 23 25  2  0  0  0  0
 23 79  1  0  0  0  0
 24 81  1  0  0  0  0
 25 82  1  0  0  0  0
 26 61  2  0  0  0  0
 27 64  1  0  0  0  0
 27 68  1  0  0  0  0
 28 54  1  0  0  0  0
 28 62  1  0  0  0  0
 28 63  2  0  0  0  0
 29 57  1  0  0  0  0
 29 62  2  0  0  0  0
 29 65  1  0  0  0  0
 30 69  1  0  0  0  0
 30 74  2  0  0  0  0
 31 45  1  0  0  0  0
 31 70  1  0  0  0  0
 31 75  2  0  0  0  0
 32 58  1  0  0  0  0
 32 66  1  0  0  0  0
 32 76  2  0  0  0  0
 33 59  1  0  0  0  0
 33 71  1  0  0  0  0
 33 77  2  0  0  0  0
 34 67  1  0  0  0  0
 34 72  1  0  0  0  0
 34 78  2  0  0  0  0
 35 38  1  0  0  0  0
 36 45  1  0  0  0  0
 37 66  1  0  0  0  0
 38 40  1  0  0  0  0
 39 41  1  0  0  0  0
 39 42  1  0  0  0  0
 40 44  1  0  0  0  0
 41 46  1  0  0  0  0
 42 67  1  0  0  0  0
 43 46  1  0  0  0  0
 43 67  1  0  0  0  0
 44 70  1  0  0  0  0
 45 66  1  0  0  0  0
 46 64  1  0  0  0  0
 47 57  1  0  0  0  0
 48 59  1  0  0  0  0
 49 60  1  0  0  0  0
 50 60  1  0  0  0  0
 51 60  1  0  0  0  0
 52 65  1  0  0  0  0
 53 73  1  0  0  0  0
 54 55  1  0  0  0  0
 55 56  1  0  0  0  0
 56 80  1  0  0  0  0
 57 72  1  0  0  0  0
 58 60  1  0  0  0  0
 58 71  1  0  0  0  0
 59 73  1  0  0  0  0
 61 64  1  0  0  0  0
 63 65  1  0  0  0  0
M  CHG  1  73   1
M  ISO  4  34 100  56 101  72 100  80 101
M  END
> <Batch ID>
0061

> <Smiles>
CNC(C)C(=O)NC(C(=O)N1Cc2cc([101O:1][101CH2:1]CCc3nc(C(C)[100NH:0][100C:0](=O)N4CCCC(n5nc(-c6ccc(Oc7ccc(F)cc7F)cc6)c(C(N)=O)c5N)C4)n(C)n3)ccc2CC1C(=O)NC1CCCc2ccccc21)C(C)(C)C

> <Shape>
0.246

> <Color>
0.061

> <Negative vol penalty>
0.000

$$$$

  -OEChem-04052317583D

 84 92  0     1  0  0  0  0  0999 V2000
  -19.2290  -24.0359   23.5060 C   0  0  0  0  0  0  0  0  0  0  0  0
  -20.6076  -24.1429   23.3527 C   0  0  0  0  0  0  0  0  0  0  0  0
  -26.7046  -12.8203   20.7051 C   0  0  0  0  0  0  0  0  0  0  0  0
  -25.3197  -14.1239   19.2153 C   0  0  0  0  0  0  0  0  0  0  0  0
  -18.4091  -25.1232   23.2071 C   0  0  0  0  0  0  0  0  0  0  0  0
  -21.1670  -25.3370   22.8993 C   0  0  0  0  0  0  0  0  0  0  0  0
  -25.2425  -26.7116   25.5724 C   0  0  0  0  0  0  0  0  0  0  0  0
  -25.9099  -11.6997   20.4634 C   0  0  0  0  0  0  0  0  0  0  0  0
  -24.5250  -13.0033   18.9735 C   0  0  0  0  0  0  0  0  0  0  0  0
  -26.4392  -26.0533   25.2926 C   0  0  0  0  0  0  0  0  0  0  0  0
  -24.0306   -8.5870   20.5167 C   0  0  0  0  0  0  0  0  0  0  0  0
  -23.6475   -7.8132   21.6122 C   0  0  0  0  0  0  0  0  0  0  0  0
  -27.1479  -27.9259   23.9471 C   0  0  0  0  0  0  0  0  0  0  0  0
  -22.5313   -9.7279   22.5742 C   0  0  0  0  0  0  0  0  0  0  0  0
  -26.3113  -24.4097   19.6747 C   0  0  0  0  0  0  0  0  0  0  0  0
  -26.4095  -14.0324   20.0811 C   0  0  0  0  0  0  0  0  0  0  0  0
  -28.3748  -15.5911   19.6167 C   0  0  0  0  0  0  0  0  0  0  0  0
  -18.9594  -26.3344   22.7590 C   0  0  0  0  0  0  0  0  0  0  0  0
  -24.9845  -27.9796   25.0318 C   0  0  0  0  0  0  0  0  0  0  0  0
  -20.3535  -26.4411   22.5928 C   0  0  0  0  0  0  0  0  0  0  0  0
  -25.9482  -28.5993   24.2236 C   0  0  0  0  0  0  0  0  0  0  0  0
  -27.4702  -24.9372   20.2066 C   0  0  0  0  0  0  0  0  0  0  0  0
  -24.8201  -11.7912   19.5976 C   0  0  0  0  0  0  0  0  0  0  0  0
  -27.3909  -26.6591   24.4776 C   0  0  0  0  0  0  0  0  0  0  0  0
  -23.6641   -9.9313   20.4500 C   0  0  0  0  0  0  0  0  0  0  0  0
  -22.8978   -8.3836   22.6409 C   0  0  0  0  0  0  0  0  0  0  0  0
  -22.9145  -10.5017   21.4787 C   0  0  0  0  0  0  0  0  0  0  0  0
  -27.2297  -15.1904   20.3308 C   0  0  0  0  0  0  0  0  0  0  0  0
  -28.1197  -24.1422   21.1287 C   0  0  0  0  0  0  0  0  0  0  0  0
  -28.7842  -16.7430   20.2427 C   0  0  0  0  0  0  0  0  0  0  0  0
  -26.5399  -22.5213   20.9192 C   0  0  0  0  0  0  0  0  0  0  0  0
  -29.0114  -14.9770   18.4883 C   0  0  0  0  0  0  0  0  0  0  0  0
  -22.7939  -29.1754   23.0633 C   0  0  0  0  0  0  0  0  0  0  0  0
  -24.2276  -31.9893   23.8041 C   0  0  0  0  0  0  0  0  0  0  0  0
  -27.0225  -33.6193   24.8896 C   0  0  0  0  0  0  0  0  0  0  0  0
  -25.4877  -20.5695   23.7111 C   0  0  0  0  0  0  0  0  0  0  0  0
  -18.0291  -27.4669   22.4033 C   0  0  0  0  0  0  0  0  0  0  0  0
  -23.7000  -28.6879   25.3649 C   0  0  0  0  0  0  0  0  0  0  0  0
  -25.7283  -29.9682   23.6352 C   0  0  0  0  0  0  0  0  0  0  0  0
  -18.7307  -28.8175   22.2858 C   0  0  0  0  0  0  0  0  0  0  0  0
  -28.7190  -18.9387   24.4864 C   0  0  0  0  0  0  0  0  0  0  0  0
  -20.0062  -28.6863   21.4596 C   0  0  0  0  0  0  0  0  0  0  0  0
  -28.7570  -17.7831   23.4879 C   0  0  0  0  0  0  0  0  0  0  0  0
  -27.2893  -19.3262   24.8515 C   0  0  0  0  0  0  0  0  0  0  0  0
  -26.4684  -18.4806   22.6777 C   0  0  0  0  0  0  0  0  0  0  0  0
  -20.9998  -27.7278   22.1270 C   0  0  1  0  0  0  0  0  0  0  0  0
  -23.3248  -29.7568   24.3431 C   0  0  1  0  0  0  0  0  0  0  0  0
  -27.8938  -18.0962   22.2534 C   0  0  2  0  0  0  0  0  0  0  0  0
  -27.9644  -26.2763   19.7967 C   0  0  0  0  0  0  0  0  0  0  0  0
  -25.2531  -20.4800   20.1851 C   0  0  0  0  0  0  0  0  0  0  0  0
  -27.9034  -35.9222   25.3566 C   0  0  0  0  0  0  0  0  0  0  0  0
  -24.5437  -32.4732   20.8082 C   0  0  0  0  0  0  0  0  0  0  0  0
  -26.2235  -34.2509   21.3433 C   0  0  0  0  0  0  0  0  0  0  0  0
  -23.8665  -34.4888   22.1248 C   0  0  0  0  0  0  0  0  0  0  0  0
  -24.1830  -22.2915   22.5230 C   0  0  0  0  0  0  0  0  0  0  0  0
  -27.4765  -32.9923   27.7461 C   0  0  0  0  0  0  0  0  0  0  0  0
  -29.3967  -24.6145   21.7767 C   0  0  0  0  0  0  0  0  0  0  0  0
  -29.5915  -24.0966   23.2034 C   0  0  0  0  0  0  0  0  0  0  0  0
  -28.5276  -24.5920   24.1761 C   0  0  0  0  0  0  0  0  0  1  0  0
  -26.0237  -21.1792   21.3145 C   0  0  2  0  0  0  0  0  0  0  0  0
  -25.3740  -32.7881   23.2326 C   0  0  1  0  0  0  0  0  0  0  0  0
  -27.2153  -34.6980   25.9402 C   0  0  2  0  0  0  0  0  0  0  0  0
  -25.0055  -33.4736   21.8866 C   0  0  0  0  0  0  0  0  0  0  0  0
  -25.8154  -23.2005   20.0096 N   0  0  0  0  0  0  0  0  0  0  0  0
  -26.9309  -16.0203   21.3339 N   0  0  0  0  0  0  0  0  0  0  0  0
  -27.6810  -22.9246   21.5098 N   0  0  0  0  0  0  0  0  0  0  0  0
  -27.8943  -16.9539   21.2545 N   0  0  0  0  0  0  0  0  0  0  0  0
  -24.4540  -30.6174   23.9849 N   0  0  0  0  0  0  0  0  0  0  0  0
  -26.4794  -19.5762   23.6586 N   0  0  0  0  0  0  0  0  0  0  0  0
  -29.8150  -17.5860   20.0208 N   0  0  0  0  0  0  0  0  0  0  0  0
  -28.4597  -13.7973   17.9701 N   0  0  0  0  0  0  0  0  0  0  0  0
  -21.6733  -28.3836   23.2274 N   0  0  0  0  0  0  0  0  0  0  0  0
  -25.7889  -33.7140   24.2808 N   0  0  0  0  0  0  0  0  0  0  0  0
  -25.1956  -21.2453   22.5167 N   0  0  0  0  0  0  0  0  0  0  0  0
  -28.0467  -34.1830   27.0648 N   0  3  0  0  0  0  0  0  0  0  0  0
  -30.0484  -15.4510   17.9655 O   0  0  0  0  0  0  0  0  0  0  0  0
  -23.3581  -29.4277   22.0052 O   0  0  0  0  0  0  0  0  0  0  0  0
  -23.1726  -32.5626   24.0867 O   0  0  0  0  0  0  0  0  0  0  0  0
  -27.8818  -32.7792   24.6320 O   0  0  0  0  0  0  0  0  0  0  0  0
  -24.9039  -20.8435   24.7675 O   0  0  0  0  0  0  0  0  0  0  0  0
  -24.0446  -10.6979   19.3613 O   0  0  0  0  0  0  0  0  0  0  0  0
  -28.5595  -26.0184   24.2024 O   0  0  0  0  0  0  0  0  0  1  0  0
  -22.5287   -7.6401   23.6921 F   0  0  0  0  0  0  0  0  0  0  0  0
  -22.5584  -11.7922   21.4196 F   0  0  0  0  0  0  0  0  0  0  0  0
  1  2  1  0  0  0  0
  1  5  2  0  0  0  0
  2  6  2  0  0  0  0
  3  8  2  0  0  0  0
  3 16  1  0  0  0  0
  4  9  1  0  0  0  0
  4 16  2  0  0  0  0
  5 18  1  0  0  0  0
  6 20  1  0  0  0  0
  7 10  2  0  0  0  0
  7 19  1  0  0  0  0
  8 23  1  0  0  0  0
  9 23  2  0  0  0  0
 10 24  1  0  0  0  0
 11 12  2  0  0  0  0
 11 25  1  0  0  0  0
 12 26  1  0  0  0  0
 13 21  1  0  0  0  0
 13 24  2  0  0  0  0
 14 26  2  0  0  0  0
 14 27  1  0  0  0  0
 15 22  1  0  0  0  0
 15 64  2  0  0  0  0
 16 28  1  0  0  0  0
 17 28  1  0  0  0  0
 17 30  2  0  0  0  0
 17 32  1  0  0  0  0
 18 20  2  0  0  0  0
 18 37  1  0  0  0  0
 19 21  2  0  0  0  0
 19 38  1  0  0  0  0
 20 46  1  0  0  0  0
 21 39  1  0  0  0  0
 22 29  2  0  0  0  0
 22 49  1  0  0  0  0
 23 81  1  0  0  0  0
 24 82  1  0  0  0  0
 25 27  2  0  0  0  0
 25 81  1  0  0  0  0
 26 83  1  0  0  0  0
 27 84  1  0  0  0  0
 28 65  2  0  0  0  0
 29 57  1  0  0  0  0
 29 66  1  0  0  0  0
 30 67  1  0  0  0  0
 30 70  1  0  0  0  0
 31 60  1  0  0  0  0
 31 64  1  0  0  0  0
 31 66  2  0  0  0  0
 32 71  1  0  0  0  0
 32 76  2  0  0  0  0
 33 47  1  0  0  0  0
 33 72  1  0  0  0  0
 33 77  2  0  0  0  0
 34 61  1  0  0  0  0
 34 68  1  0  0  0  0
 34 78  2  0  0  0  0
 35 62  1  0  0  0  0
 35 73  1  0  0  0  0
 35 79  2  0  0  0  0
 36 69  1  0  0  0  0
 36 74  1  0  0  0  0
 36 80  2  0  0  0  0
 37 40  1  0  0  0  0
 38 47  1  0  0  0  0
 39 68  1  0  0  0  0
 40 42  1  0  0  0  0
 41 43  1  0  0  0  0
 41 44  1  0  0  0  0
 42 46  1  0  0  0  0
 43 48  1  0  0  0  0
 44 69  1  0  0  0  0
 45 48  1  0  0  0  0
 45 69  1  0  0  0  0
 46 72  1  0  0  0  0
 47 68  1  0  0  0  0
 48 67  1  0  0  0  0
 50 60  1  0  0  0  0
 51 62  1  0  0  0  0
 52 63  1  0  0  0  0
 53 63  1  0  0  0  0
 54 63  1  0  0  0  0
 55 74  1  0  0  0  0
 56 75  1  0  0  0  0
 57 58  1  0  0  0  0
 58 59  1  0  0  0  0
 59 82  1  0  0  0  0
 60 74  1  0  0  0  0
 61 63  1  0  0  0  0
 61 73  1  0  0  0  0
 62 75  1  0  0  0  0
 65 67  1  0  0  0  0
M  CHG  1  75   1
M  ISO  4  36 100  59 101  74 100  82 101
M  END
> <Batch ID>
0061

> <Smiles>
CNC(C)C(=O)NC(C(=O)N1Cc2cc([101O:1][101CH2:1]CCc3nc(C(C)[100N:0](C)[100C:0](=O)N4CCCC(n5nc(-c6ccc(Oc7ccc(F)cc7F)cc6)c(C(N)=O)c5N)C4)ncc3C)ccc2CC1C(=O)NC1CCCc2ccccc21)C(C)(C)C

> <Shape>
0.224

> <Color>
0.096

> <Negative vol penalty>
0.000

$$$$

  -OEChem-04052317583D

 80 88  0     1  0  0  0  0  0999 V2000
  -20.5545  -27.8362   19.2397 C   0  0  0  0  0  0  0  0  0  0  0  0
  -20.7850  -26.6747   18.5095 C   0  0  0  0  0  0  0  0  0  0  0  0
  -29.9805  -23.6432   20.7130 C   0  0  0  0  0  0  0  0  0  0  0  0
  -27.6826  -23.1059   20.1955 C   0  0  0  0  0  0  0  0  0  0  0  0
  -20.7761  -27.8485   20.6161 C   0  0  0  0  0  0  0  0  0  0  0  0
  -21.2384  -25.5250   19.1553 C   0  0  0  0  0  0  0  0  0  0  0  0
  -20.7579  -18.3848   18.8351 C   0  0  0  0  0  0  0  0  0  0  0  0
  -29.7548  -24.9681   20.3400 C   0  0  0  0  0  0  0  0  0  0  0  0
  -27.4568  -24.4308   19.8225 C   0  0  0  0  0  0  0  0  0  0  0  0
  -21.5689  -17.2515   18.7940 C   0  0  0  0  0  0  0  0  0  0  0  0
  -26.1791  -27.7518   19.0760 C   0  0  0  0  0  0  0  0  0  0  0  0
  -25.0136  -28.3657   19.5345 C   0  0  0  0  0  0  0  0  0  0  0  0
  -23.7049  -12.7581   20.6367 C   0  0  0  0  0  0  0  0  0  0  0  0
  -21.8412  -17.3668   21.1881 C   0  0  0  0  0  0  0  0  0  0  0  0
  -25.7203  -28.0032   21.8163 C   0  0  0  0  0  0  0  0  0  0  0  0
  -24.5746  -11.7090   20.4191 C   0  0  0  0  0  0  0  0  0  0  0  0
  -28.9445  -22.7120   20.6407 C   0  0  0  0  0  0  0  0  0  0  0  0
  -29.0197  -20.7816   22.3066 C   0  0  0  0  0  0  0  0  0  0  0  0
  -21.2231  -26.6956   21.2806 C   0  0  0  0  0  0  0  0  0  0  0  0
  -20.4909  -19.0251   20.0538 C   0  0  0  0  0  0  0  0  0  0  0  0
  -21.4674  -25.5222   20.5417 C   0  0  0  0  0  0  0  0  0  0  0  0
  -21.0244  -18.5066   21.2423 C   0  0  0  0  0  0  0  0  0  0  0  0
  -28.4929  -25.3620   19.8947 C   0  0  0  0  0  0  0  0  0  0  0  0
  -22.1130  -16.7440   19.9702 C   0  0  0  0  0  0  0  0  0  0  0  0
  -27.1152  -27.2634   19.9876 C   0  0  0  0  0  0  0  0  0  0  0  0
  -24.7842  -28.4915   20.9046 C   0  0  0  0  0  0  0  0  0  0  0  0
  -26.8858  -27.3892   21.3577 C   0  0  0  0  0  0  0  0  0  0  0  0
  -29.1772  -21.3431   21.0254 C   0  0  0  0  0  0  0  0  0  0  0  0
  -24.2943  -13.9725   20.9233 C   0  0  0  0  0  0  0  0  0  0  0  0
  -29.3634  -19.4613   22.1475 C   0  0  0  0  0  0  0  0  0  0  0  0
  -26.3700  -13.0602   20.7623 C   0  0  0  0  0  0  0  0  0  0  0  0
  -28.6002  -21.3983   23.5312 C   0  0  0  0  0  0  0  0  0  0  0  0
  -21.0674  -21.9163   21.2421 C   0  0  0  0  0  0  0  0  0  0  0  0
  -19.2589  -20.8362   23.7089 C   0  0  0  0  0  0  0  0  0  0  0  0
  -18.0514  -18.1720   25.4669 C   0  0  0  0  0  0  0  0  0  0  0  0
  -29.1233  -14.6818   19.2763 C   0  0  0  0  0  0  0  0  0  0  0  0
  -21.4937  -26.7706   22.7625 C   0  0  0  0  0  0  0  0  0  0  0  0
  -19.5924  -20.2310   20.0845 C   0  0  0  0  0  0  0  0  0  0  0  0
  -20.7517  -19.1451   22.5789 C   0  0  0  0  0  0  0  0  0  0  0  0
  -21.6160  -25.4030   23.4294 C   0  0  0  0  0  0  0  0  0  0  0  0
  -31.5570  -17.0753   18.2641 C   0  0  0  0  0  0  0  0  0  0  0  0
  -22.5184  -24.4874   22.6082 C   0  0  0  0  0  0  0  0  0  0  0  0
  -31.1382  -18.3535   18.9927 C   0  0  0  0  0  0  0  0  0  0  0  0
  -30.3468  -16.2612   17.8117 C   0  0  0  0  0  0  0  0  0  0  0  0
  -28.9601  -17.2235   19.6075 C   0  0  0  0  0  0  0  0  0  0  0  0
  -21.9357  -24.2478   21.2102 C   0  0  1  0  0  0  0  0  0  0  0  0
  -19.8057  -21.1038   21.3174 C   0  0  1  0  0  0  0  0  0  0  0  0
  -30.1467  -18.0501   20.1321 C   0  0  2  0  0  0  0  0  0  0  0  0
  -28.4129  -12.9733   22.2390 C   0  0  0  0  0  0  0  0  0  0  0  0
  -16.6295  -17.6053   27.4555 C   0  0  0  0  0  0  0  0  0  0  0  0
  -21.5503  -21.6163   25.5665 C   0  0  0  0  0  0  0  0  0  0  0  0
  -20.5035  -20.1939   27.3411 C   0  0  0  0  0  0  0  0  0  0  0  0
  -19.2701  -22.1641   26.4356 C   0  0  0  0  0  0  0  0  0  0  0  0
  -16.1011  -16.6984   23.7984 C   0  0  0  0  0  0  0  0  0  0  0  0
  -23.4296  -15.1726   21.1756 C   0  0  0  0  0  0  0  0  0  1  0  0
  -27.8499  -13.2278   20.8330 C   0  0  2  0  0  0  0  0  0  0  0  0
  -19.5381  -20.1018   24.9979 C   0  0  1  0  0  0  0  0  0  0  0  0
  -16.6529  -17.8359   25.9525 C   0  0  2  0  0  0  0  0  0  0  0  0
  -20.2224  -21.0079   26.0600 C   0  0  0  0  0  0  0  0  0  0  0  0
  -25.9176  -11.8250   20.4742 N   0  0  0  0  0  0  0  0  0  0  0  0
  -29.5891  -20.4525   20.1192 N   0  0  0  0  0  0  0  0  0  0  0  0
  -25.6285  -14.1601   20.9945 N   0  0  0  0  0  0  0  0  0  0  0  0
  -29.6934  -19.3180   20.8320 N   0  0  0  0  0  0  0  0  0  0  0  0
  -19.8723  -20.3257   22.5561 N   0  0  0  0  0  0  0  0  0  0  0  0
  -29.4471  -16.0065   18.9394 N   0  0  0  0  0  0  0  0  0  0  0  0
  -29.4126  -18.4207   23.0061 N   0  0  0  0  0  0  0  0  0  0  0  0
  -28.2847  -22.7638   23.5177 N   0  0  0  0  0  0  0  0  0  0  0  0
  -20.8594  -23.2822   21.2699 N   0  0  0  0  0  0  0  0  0  0  0  0
  -18.2651  -19.5336   25.4280 N   0  0  0  0  0  0  0  0  0  0  0  0
  -28.2695  -14.5288   20.3618 N   0  0  0  0  0  0  0  0  0  0  0  0
  -16.1533  -16.6034   25.2800 N   0  3  0  0  0  0  0  0  0  0  0  0
  -28.5236  -20.7610   24.6089 O   0  0  0  0  0  0  0  0  0  0  0  0
  -22.1495  -21.3463   21.1659 O   0  0  0  0  0  0  0  0  0  0  0  0
  -18.5178  -21.8223   23.7230 O   0  0  0  0  0  0  0  0  0  0  0  0
  -18.8733  -17.3124   25.1568 O   0  0  0  0  0  0  0  0  0  0  0  0
  -29.5667  -13.7075   18.6590 O   0  0  0  0  0  0  0  0  0  0  0  0
  -28.2722  -26.6548   19.5309 O   0  0  0  0  0  0  0  0  0  0  0  0
  -22.9055  -15.6383   19.9328 O   0  0  0  0  0  0  0  0  0  1  0  0
  -23.6656  -29.0825   21.3447 F   0  0  0  0  0  0  0  0  0  0  0  0
  -27.7819  -26.9231   22.2383 F   0  0  0  0  0  0  0  0  0  0  0  0
  1  2  1  0  0  0  0
  1  5  2  0  0  0  0
  2  6  2  0  0  0  0
  3  8  2  0  0  0  0
  3 17  1  0  0  0  0
  4  9  1  0  0  0  0
  4 17  2  0  0  0  0
  5 19  1  0  0  0  0
  6 21  1  0  0  0  0
  7 10  2  0  0  0  0
  7 20  1  0  0  0  0
  8 23  1  0  0  0  0
  9 23  2  0  0  0  0
 10 24  1  0  0  0  0
 11 12  2  0  0  0  0
 11 25  1  0  0  0  0
 12 26  1  0  0  0  0
 13 16  2  0  0  0  0
 13 29  1  0  0  0  0
 14 22  1  0  0  0  0
 14 24  2  0  0  0  0
 15 26  2  0  0  0  0
 15 27  1  0  0  0  0
 16 60  1  0  0  0  0
 17 28  1  0  0  0  0
 18 28  1  0  0  0  0
 18 30  2  0  0  0  0
 18 32  1  0  0  0  0
 19 21  2  0  0  0  0
 19 37  1  0  0  0  0
 20 22  2  0  0  0  0
 20 38  1  0  0  0  0
 21 46  1  0  0  0  0
 22 39  1  0  0  0  0
 23 77  1  0  0  0  0
 24 78  1  0  0  0  0
 25 27  2  0  0  0  0
 25 77  1  0  0  0  0
 26 79  1  0  0  0  0
 27 80  1  0  0  0  0
 28 61  2  0  0  0  0
 29 55  1  0  0  0  0
 29 62  2  0  0  0  0
 30 63  1  0  0  0  0
 30 66  1  0  0  0  0
 31 56  1  0  0  0  0
 31 60  2  0  0  0  0
 31 62  1  0  0  0  0
 32 67  1  0  0  0  0
 32 72  2  0  0  0  0
 33 47  1  0  0  0  0
 33 68  1  0  0  0  0
 33 73  2  0  0  0  0
 34 57  1  0  0  0  0
 34 64  1  0  0  0  0
 34 74  2  0  0  0  0
 35 58  1  0  0  0  0
 35 69  1  0  0  0  0
 35 75  2  0  0  0  0
 36 65  1  0  0  0  0
 36 70  1  0  0  0  0
 36 76  2  0  0  0  0
 37 40  1  0  0  0  0
 38 47  1  0  0  0  0
 39 64  1  0  0  0  0
 40 42  1  0  0  0  0
 41 43  1  0  0  0  0
 41 44  1  0  0  0  0
 42 46  1  0  0  0  0
 43 48  1  0  0  0  0
 44 65  1  0  0  0  0
 45 48  1  0  0  0  0
 45 65  1  0  0  0  0
 46 68  1  0  0  0  0
 47 64  1  0  0  0  0
 48 63  1  0  0  0  0
 49 56  1  0  0  0  0
 50 58  1  0  0  0  0
 51 59  1  0  0  0  0
 52 59  1  0  0  0  0
 53 59  1  0  0  0  0
 54 71  1  0  0  0  0
 55 78  1  0  0  0  0
 56 70  1  0  0  0  0
 57 59  1  0  0  0  0
 57 69  1  0  0  0  0
 58 71  1  0  0  0  0
 61 63  1  0  0  0  0
M  CHG  1  71   1
M  ISO  4  36 100  55 101  70 100  78 101
M  END
> <Batch ID>
0061

> <Smiles>
CNC(C)C(=O)NC(C(=O)N1Cc2cc([101O:1][101CH2:1]c3ccnc(C(C)[100NH:0][100C:0](=O)N4CCCC(n5nc(-c6ccc(Oc7ccc(F)cc7F)cc6)c(C(N)=O)c5N)C4)n3)ccc2CC1C(=O)NC1CCCc2ccccc21)C(C)(C)C

> <Shape>
0.173

> <Color>
0.092

> <Negative vol penalty>
0.000

$$$$

  -OEChem-04052317583D

 82 90  0     1  0  0  0  0  0999 V2000
  -28.1797  -10.7265   21.2428 C   0  0  0  0  0  0  0  0  0  0  0  0
  -28.7442  -11.7913   20.5478 C   0  0  0  0  0  0  0  0  0  0  0  0
  -22.1084  -28.0564   21.0860 C   0  0  0  0  0  0  0  0  0  0  0  0
  -23.5480  -28.1427   23.0243 C   0  0  0  0  0  0  0  0  0  0  0  0
  -26.8031  -10.6889   21.4601 C   0  0  0  0  0  0  0  0  0  0  0  0
  -27.9321  -12.8186   20.0688 C   0  0  0  0  0  0  0  0  0  0  0  0
  -29.3663  -18.7584   19.6596 C   0  0  0  0  0  0  0  0  0  0  0  0
  -20.9902  -28.0099   21.9185 C   0  0  0  0  0  0  0  0  0  0  0  0
  -22.4298  -28.0962   23.8569 C   0  0  0  0  0  0  0  0  0  0  0  0
  -29.8090  -19.5455   18.5973 C   0  0  0  0  0  0  0  0  0  0  0  0
  -19.1525  -30.1823   23.7451 C   0  0  0  0  0  0  0  0  0  0  0  0
  -18.0714  -31.0033   23.4249 C   0  0  0  0  0  0  0  0  0  0  0  0
  -27.5398  -20.2515   18.1828 C   0  0  0  0  0  0  0  0  0  0  0  0
  -16.6566  -29.0567   23.2103 C   0  0  0  0  0  0  0  0  0  0  0  0
  -32.3173  -23.3855   15.7090 C   0  0  0  0  0  0  0  0  0  0  0  0
  -23.3873  -28.1228   21.6389 C   0  0  0  0  0  0  0  0  0  0  0  0
  -25.1708  -29.3191   20.2621 C   0  0  0  0  0  0  0  0  0  0  0  0
  -25.9749  -11.7211   20.9919 C   0  0  0  0  0  0  0  0  0  0  0  0
  -28.0034  -18.7034   19.9851 C   0  0  0  0  0  0  0  0  0  0  0  0
  -26.5429  -12.7941   20.2789 C   0  0  0  0  0  0  0  0  0  0  0  0
  -27.0828  -19.4650   19.2513 C   0  0  0  0  0  0  0  0  0  0  0  0
  -21.1509  -28.0298   23.3040 C   0  0  0  0  0  0  0  0  0  0  0  0
  -28.8953  -20.2899   17.8569 C   0  0  0  0  0  0  0  0  0  0  0  0
  -18.9858  -28.7984   23.7978 C   0  0  0  0  0  0  0  0  0  0  0  0
  -16.8234  -30.4405   23.1576 C   0  0  0  0  0  0  0  0  0  0  0  0
  -17.7379  -28.2356   23.5305 C   0  0  0  0  0  0  0  0  0  0  0  0
  -24.5428  -28.1703   20.7794 C   0  0  0  0  0  0  0  0  0  0  0  0
  -31.0464  -22.9671   15.4092 C   0  0  0  0  0  0  0  0  0  0  0  0
  -26.2126  -28.8321   19.5111 C   0  0  0  0  0  0  0  0  0  0  0  0
  -31.4941  -25.4302   16.2002 C   0  0  0  0  0  0  0  0  0  0  0  0
  -24.8420  -30.7027   20.4442 C   0  0  0  0  0  0  0  0  0  0  0  0
  -25.8057  -16.4081   20.0592 C   0  0  0  0  0  0  0  0  0  0  0  0
  -23.9672  -18.7479   21.3506 C   0  0  0  0  0  0  0  0  0  0  0  0
  -23.3640  -22.0865   21.7203 C   0  0  0  0  0  0  0  0  0  0  0  0
  -30.5790  -25.1948   19.3616 C   0  0  0  0  0  0  0  0  0  0  0  0
  -24.4864  -11.6131   21.2100 C   0  0  0  0  0  0  0  0  0  0  0  0
  -27.5454  -17.8704   21.1507 C   0  0  0  0  0  0  0  0  0  0  0  0
  -25.6114  -19.4565   19.5730 C   0  0  0  0  0  0  0  0  0  0  0  0
  -23.7423  -12.9285   20.9953 C   0  0  0  0  0  0  0  0  0  0  0  0
  -27.2996  -24.1350   18.0110 C   0  0  0  0  0  0  0  0  0  0  0  0
  -24.2043  -13.5988   19.7053 C   0  0  0  0  0  0  0  0  0  0  0  0
  -26.3402  -25.1488   18.6321 C   0  0  0  0  0  0  0  0  0  0  0  0
  -28.5281  -23.9065   18.8864 C   0  0  0  0  0  0  0  0  0  0  0  0
  -28.2990  -26.1687   19.8580 C   0  0  0  0  0  0  0  0  0  0  0  0
  -25.6982  -13.9398   19.7651 C   0  0  1  0  0  0  0  0  0  0  0  0
  -26.0706  -17.4885   21.0693 C   0  0  1  0  0  0  0  0  0  0  0  0
  -27.0729  -26.4565   18.9787 C   0  0  2  0  0  0  0  0  0  0  0  0
  -21.7672  -23.6918   22.8022 C   0  0  0  0  0  0  0  0  0  0  0  0
  -21.8976  -18.1399   19.1925 C   0  0  0  0  0  0  0  0  0  0  0  0
  -20.8104  -20.3337   19.7152 C   0  0  0  0  0  0  0  0  0  0  0  0
  -20.9423  -18.5608   21.4651 C   0  0  0  0  0  0  0  0  0  0  0  0
  -32.4749  -26.7306   19.7167 C   0  0  0  0  0  0  0  0  0  0  0  0
  -25.5095  -23.2950   23.3620 C   0  0  0  0  0  0  0  0  0  0  0  0
  -30.7758  -21.5538   14.9534 C   0  0  0  0  0  0  0  0  0  0  0  0
  -31.7175  -26.8338   16.6469 C   0  0  0  0  0  0  0  0  0  0  0  0
  -30.8988  -27.2240   17.8841 C   0  0  0  0  0  0  0  0  0  0  0  0
  -30.4859  -20.6142   16.1188 C   0  0  0  0  0  0  0  0  0  1  0  0
  -23.0404  -19.8052   20.8008 C   0  0  1  0  0  0  0  0  0  0  0  0
  -23.0735  -22.9274   22.9503 C   0  0  2  0  0  0  0  0  0  0  0  0
  -21.7001  -19.2088   20.2859 C   0  0  0  0  0  0  0  0  0  0  0  0
  -32.5733  -24.6382   16.1154 N   0  0  0  0  0  0  0  0  0  0  0  0
  -25.1360  -27.0387   20.3899 N   0  0  0  0  0  0  0  0  0  0  0  0
  -30.0012  -23.8078   15.5130 N   0  0  0  0  0  0  0  0  0  0  0  0
  -30.2250  -25.0750   15.9190 N   0  0  0  0  0  0  0  0  0  0  0  0
  -26.1476  -27.4741   19.6197 N   0  0  0  0  0  0  0  0  0  0  0  0
  -25.2120  -18.6214   20.7178 N   0  0  0  0  0  0  0  0  0  0  0  0
  -29.1802  -25.1688   19.2365 N   0  0  0  0  0  0  0  0  0  0  0  0
  -27.1687  -29.4373   18.7749 N   0  0  0  0  0  0  0  0  0  0  0  0
  -23.7401  -31.0274   21.2472 N   0  0  0  0  0  0  0  0  0  0  0  0
  -25.9141  -15.1266   20.5646 N   0  0  0  0  0  0  0  0  0  0  0  0
  -22.8852  -20.8006   21.8561 N   0  0  0  0  0  0  0  0  0  0  0  0
  -31.2272  -26.3980   19.0440 N   0  0  0  0  0  0  0  0  0  0  0  0
  -24.1703  -23.9107   23.1764 N   0  3  0  0  0  0  0  0  0  0  0  0
  -25.4957  -31.6231   19.8974 O   0  0  0  0  0  0  0  0  0  0  0  0
  -25.5225  -16.7145   18.9070 O   0  0  0  0  0  0  0  0  0  0  0  0
  -23.6030  -18.0644   22.3107 O   0  0  0  0  0  0  0  0  0  0  0  0
  -23.9532  -22.5274   20.7359 O   0  0  0  0  0  0  0  0  0  0  0  0
  -31.2130  -24.1965   19.7266 O   0  0  0  0  0  0  0  0  0  0  0  0
  -20.0600  -27.9847   24.1166 O   0  0  0  0  0  0  0  0  0  0  0  0
  -29.3246  -21.0585   16.8192 O   0  0  0  0  0  0  0  0  0  1  0  0
  -15.7849  -31.2292   22.8516 F   0  0  0  0  0  0  0  0  0  0  0  0
  -17.5713  -26.9069   23.5807 F   0  0  0  0  0  0  0  0  0  0  0  0
  1  2  1  0  0  0  0
  1  5  2  0  0  0  0
  2  6  2  0  0  0  0
  3  8  2  0  0  0  0
  3 16  1  0  0  0  0
  4  9  1  0  0  0  0
  4 16  2  0  0  0  0
  5 18  1  0  0  0  0
  6 20  1  0  0  0  0
  7 10  2  0  0  0  0
  7 19  1  0  0  0  0
  8 22  1  0  0  0  0
  9 22  2  0  0  0  0
 10 23  1  0  0  0  0
 11 12  2  0  0  0  0
 11 24  1  0  0  0  0
 12 25  1  0  0  0  0
 13 21  1  0  0  0  0
 13 23  2  0  0  0  0
 14 25  2  0  0  0  0
 14 26  1  0  0  0  0
 15 28  1  0  0  0  0
 15 61  2  0  0  0  0
 16 27  1  0  0  0  0
 17 27  1  0  0  0  0
 17 29  2  0  0  0  0
 17 31  1  0  0  0  0
 18 20  2  0  0  0  0
 18 36  1  0  0  0  0
 19 21  2  0  0  0  0
 19 37  1  0  0  0  0
 20 45  1  0  0  0  0
 21 38  1  0  0  0  0
 22 79  1  0  0  0  0
 23 80  1  0  0  0  0
 24 26  2  0  0  0  0
 24 79  1  0  0  0  0
 25 81  1  0  0  0  0
 26 82  1  0  0  0  0
 27 62  2  0  0  0  0
 28 54  1  0  0  0  0
 28 63  2  0  0  0  0
 29 65  1  0  0  0  0
 29 68  1  0  0  0  0
 30 55  1  0  0  0  0
 30 61  1  0  0  0  0
 30 64  2  0  0  0  0
 31 69  1  0  0  0  0
 31 74  2  0  0  0  0
 32 46  1  0  0  0  0
 32 70  1  0  0  0  0
 32 75  2  0  0  0  0
 33 58  1  0  0  0  0
 33 66  1  0  0  0  0
 33 76  2  0  0  0  0
 34 59  1  0  0  0  0
 34 71  1  0  0  0  0
 34 77  2  0  0  0  0
 35 67  1  0  0  0  0
 35 72  1  0  0  0  0
 35 78  2  0  0  0  0
 36 39  1  0  0  0  0
 37 46  1  0  0  0  0
 38 66  1  0  0  0  0
 39 41  1  0  0  0  0
 40 42  1  0  0  0  0
 40 43  1  0  0  0  0
 41 45  1  0  0  0  0
 42 47  1  0  0  0  0
 43 67  1  0  0  0  0
 44 47  1  0  0  0  0
 44 67  1  0  0  0  0
 45 70  1  0  0  0  0
 46 66  1  0  0  0  0
 47 65  1  0  0  0  0
 48 59  1  0  0  0  0
 49 60  1  0  0  0  0
 50 60  1  0  0  0  0
 51 60  1  0  0  0  0
 52 72  1  0  0  0  0
 53 73  1  0  0  0  0
 54 57  1  0  0  0  0
 55 56  1  0  0  0  0
 56 72  1  0  0  0  0
 57 80  1  0  0  0  0
 58 60  1  0  0  0  0
 58 71  1  0  0  0  0
 59 73  1  0  0  0  0
 62 65  1  0  0  0  0
 63 64  1  0  0  0  0
M  CHG  1  73   1
M  ISO  4  35 100  57 101  72 100  80 101
M  END
> <Batch ID>
0061

> <Smiles>
CNC(C)C(=O)NC(C(=O)N1Cc2cc([101O:1][101CH2:1]Cc3cnc(CC[100N:0](C)[100C:0](=O)N4CCCC(n5nc(-c6ccc(Oc7ccc(F)cc7F)cc6)c(C(N)=O)c5N)C4)nn3)ccc2CC1C(=O)NC1CCCc2ccccc21)C(C)(C)C

> <Shape>
0.240

> <Color>
0.068

> <Negative vol penalty>
0.000

$$$$

  -OEChem-04052317583D

 82 90  0     1  0  0  0  0  0999 V2000
  -30.4807  -26.7104   17.7629 C   0  0  0  0  0  0  0  0  0  0  0  0
  -29.5439  -25.7315   18.0782 C   0  0  0  0  0  0  0  0  0  0  0  0
  -26.5788  -12.5541   21.7034 C   0  0  0  0  0  0  0  0  0  0  0  0
  -25.9955  -13.8130   19.7256 C   0  0  0  0  0  0  0  0  0  0  0  0
  -30.6802  -27.7867   18.6265 C   0  0  0  0  0  0  0  0  0  0  0  0
  -28.8068  -25.8277   19.2580 C   0  0  0  0  0  0  0  0  0  0  0  0
  -23.8891  -24.8388   18.5622 C   0  0  0  0  0  0  0  0  0  0  0  0
  -25.3079  -11.9793   21.7124 C   0  0  0  0  0  0  0  0  0  0  0  0
  -24.7246  -13.2382   19.7345 C   0  0  0  0  0  0  0  0  0  0  0  0
  -23.5188  -23.4995   18.4486 C   0  0  0  0  0  0  0  0  0  0  0  0
  -23.6789   -9.5105   20.0741 C   0  0  0  0  0  0  0  0  0  0  0  0
  -23.5910   -8.1352   20.2896 C   0  0  0  0  0  0  0  0  0  0  0  0
  -22.8119  -23.5055   20.7550 C   0  0  0  0  0  0  0  0  0  0  0  0
  -22.2511   -8.5298   22.2609 C   0  0  0  0  0  0  0  0  0  0  0  0
  -26.0170  -19.9870   21.5870 C   0  0  0  0  0  0  0  0  0  0  0  0
  -26.9226  -13.4710   20.7100 C   0  0  0  0  0  0  0  0  0  0  0  0
  -29.3846  -13.5775   20.0507 C   0  0  0  0  0  0  0  0  0  0  0  0
  -29.9383  -27.9012   19.8127 C   0  0  0  0  0  0  0  0  0  0  0  0
  -23.7334  -25.5196   19.7783 C   0  0  0  0  0  0  0  0  0  0  0  0
  -28.9975  -26.9058   20.1389 C   0  0  0  0  0  0  0  0  0  0  0  0
  -23.1786  -24.8541   20.8807 C   0  0  0  0  0  0  0  0  0  0  0  0
  -24.3808  -12.3214   20.7280 C   0  0  0  0  0  0  0  0  0  0  0  0
  -22.9828  -22.8318   19.5458 C   0  0  0  0  0  0  0  0  0  0  0  0
  -23.0531  -10.3955   20.9520 C   0  0  0  0  0  0  0  0  0  0  0  0
  -22.8770   -7.6449   21.3829 C   0  0  0  0  0  0  0  0  0  0  0  0
  -22.3391   -9.9051   22.0454 C   0  0  0  0  0  0  0  0  0  0  0  0
  -28.2351  -14.0654   20.7005 C   0  0  0  0  0  0  0  0  0  0  0  0
  -25.4484  -19.4860   20.4442 C   0  0  0  0  0  0  0  0  0  0  0  0
  -30.3620  -14.4962   20.3462 C   0  0  0  0  0  0  0  0  0  0  0  0
  -27.9966  -20.1150   20.5078 C   0  0  0  0  0  0  0  0  0  0  0  0
  -29.5538  -12.3993   19.2514 C   0  0  0  0  0  0  0  0  0  0  0  0
  -25.7107  -26.9331   21.8268 C   0  0  0  0  0  0  0  0  0  0  0  0
  -22.9483  -27.8312   23.2708 C   0  0  0  0  0  0  0  0  0  0  0  0
  -30.0829  -20.3021   21.8709 C   0  0  0  0  0  0  0  0  0  0  0  0
  -19.6309  -27.2337   23.8046 C   0  0  0  0  0  0  0  0  0  0  0  0
  -30.2226  -29.0578   20.7380 C   0  0  0  0  0  0  0  0  0  0  0  0
  -24.1129  -26.9717   19.8770 C   0  0  0  0  0  0  0  0  0  0  0  0
  -22.9721  -25.5455   22.2027 C   0  0  0  0  0  0  0  0  0  0  0  0
  -29.1343  -29.2823   21.7846 C   0  0  0  0  0  0  0  0  0  0  0  0
  -31.6601  -17.6493   23.6915 C   0  0  0  0  0  0  0  0  0  0  0  0
  -28.7370  -27.9603   22.4337 C   0  0  0  0  0  0  0  0  0  0  0  0
  -31.0439  -16.3862   23.0914 C   0  0  0  0  0  0  0  0  0  0  0  0
  -30.6508  -18.7919   23.7446 C   0  0  0  0  0  0  0  0  0  0  0  0
  -29.4081  -17.8498   21.8238 C   0  0  0  0  0  0  0  0  0  0  0  0
  -28.1608  -26.9880   21.3972 C   0  0  1  0  0  0  0  0  0  0  0  0
  -24.3876  -27.4215   21.3086 C   0  0  1  0  0  0  0  0  0  0  0  0
  -30.4030  -16.6800   21.7234 C   0  0  2  0  0  0  0  0  0  0  0  0
  -17.6476  -28.1178   25.0625 C   0  0  0  0  0  0  0  0  0  0  0  0
  -29.7034  -21.8848   19.9837 C   0  0  0  0  0  0  0  0  0  0  0  0
  -24.0549  -26.6359   25.8509 C   0  0  0  0  0  0  0  0  0  0  0  0
  -21.7331  -26.6832   26.7865 C   0  0  0  0  0  0  0  0  0  0  0  0
  -22.8585  -28.8131   26.1389 C   0  0  0  0  0  0  0  0  0  0  0  0
  -18.1280  -27.7440   21.3067 C   0  0  0  0  0  0  0  0  0  0  0  0
  -23.9862  -19.1209   20.3948 C   0  0  0  0  0  0  0  0  0  0  0  0
  -23.3578  -19.2816   19.0089 C   0  0  0  0  0  0  0  0  0  0  0  0
  -23.3529  -20.7225   18.5115 C   0  0  0  0  0  0  0  0  0  1  0  0
  -22.0549  -27.2370   24.3328 C   0  0  1  0  0  0  0  0  0  0  0  0
  -18.4215  -28.1498   23.7537 C   0  0  2  0  0  0  0  0  0  0  0  0
  -29.4451  -20.4633   20.5139 C   0  0  2  0  0  0  0  0  0  0  0  0
  -22.6809  -27.3285   25.7531 C   0  0  0  0  0  0  0  0  0  0  0  0
  -27.3162  -20.3165   21.6461 N   0  0  0  0  0  0  0  0  0  0  0  0
  -28.4599  -15.2054   21.3593 N   0  0  0  0  0  0  0  0  0  0  0  0
  -26.1821  -19.3052   19.3311 N   0  0  0  0  0  0  0  0  0  0  0  0
  -27.4923  -19.6265   19.3576 N   0  0  0  0  0  0  0  0  0  0  0  0
  -29.7620  -15.4414   21.1250 N   0  0  0  0  0  0  0  0  0  0  0  0
  -23.3646  -26.9637   22.2510 N   0  0  0  0  0  0  0  0  0  0  0  0
  -30.0482  -19.0250   22.4310 N   0  0  0  0  0  0  0  0  0  0  0  0
  -31.6677  -14.5794   20.0133 N   0  0  0  0  0  0  0  0  0  0  0  0
  -28.4460  -11.5652   19.0481 N   0  0  0  0  0  0  0  0  0  0  0  0
  -26.7953  -27.3433   21.0753 N   0  0  0  0  0  0  0  0  0  0  0  0
  -20.7657  -27.9077   24.2037 N   0  0  0  0  0  0  0  0  0  0  0  0
  -17.5039  -27.7357   22.6549 N   0  3  0  0  0  0  0  0  0  0  0  0
  -30.6587  -12.0866   18.7465 O   0  0  0  0  0  0  0  0  0  0  0  0
  -25.7451  -26.2369   22.8347 O   0  0  0  0  0  0  0  0  0  0  0  0
  -23.2594  -29.0229   23.3396 O   0  0  0  0  0  0  0  0  0  0  0  0
  -30.5987  -21.2826   22.4139 O   0  0  0  0  0  0  0  0  0  0  0  0
  -19.5739  -26.0389   23.5225 O   0  0  0  0  0  0  0  0  0  0  0  0
  -30.2300  -19.5485   19.7270 O   0  0  0  0  0  0  0  0  0  0  0  0
  -23.1407  -11.7606   20.7363 O   0  0  0  0  0  0  0  0  0  0  0  0
  -22.6212  -21.5244   19.4378 O   0  0  0  0  0  0  0  0  0  1  0  0
  -22.7913   -6.3241   21.5889 F   0  0  0  0  0  0  0  0  0  0  0  0
  -21.7347  -10.7504   22.8916 F   0  0  0  0  0  0  0  0  0  0  0  0
  1  2  1  0  0  0  0
  1  5  2  0  0  0  0
  2  6  2  0  0  0  0
  3  8  2  0  0  0  0
  3 16  1  0  0  0  0
  4  9  1  0  0  0  0
  4 16  2  0  0  0  0
  5 18  1  0  0  0  0
  6 20  1  0  0  0  0
  7 10  2  0  0  0  0
  7 19  1  0  0  0  0
  8 22  1  0  0  0  0
  9 22  2  0  0  0  0
 10 23  1  0  0  0  0
 11 12  2  0  0  0  0
 11 24  1  0  0  0  0
 12 25  1  0  0  0  0
 13 21  1  0  0  0  0
 13 23  2  0  0  0  0
 14 25  2  0  0  0  0
 14 26  1  0  0  0  0
 15 28  1  0  0  0  0
 15 61  2  0  0  0  0
 16 27  1  0  0  0  0
 17 27  1  0  0  0  0
 17 29  2  0  0  0  0
 17 31  1  0  0  0  0
 18 20  2  0  0  0  0
 18 36  1  0  0  0  0
 19 21  2  0  0  0  0
 19 37  1  0  0  0  0
 20 45  1  0  0  0  0
 21 38  1  0  0  0  0
 22 79  1  0  0  0  0
 23 80  1  0  0  0  0
 24 26  2  0  0  0  0
 24 79  1  0  0  0  0
 25 81  1  0  0  0  0
 26 82  1  0  0  0  0
 27 62  2  0  0  0  0
 28 54  1  0  0  0  0
 28 63  2  0  0  0  0
 29 65  1  0  0  0  0
 29 68  1  0  0  0  0
 30 59  1  0  0  0  0
 30 61  1  0  0  0  0
 30 64  2  0  0  0  0
 31 69  1  0  0  0  0
 31 73  2  0  0  0  0
 32 46  1  0  0  0  0
 32 70  1  0  0  0  0
 32 74  2  0  0  0  0
 33 57  1  0  0  0  0
 33 66  1  0  0  0  0
 33 75  2  0  0  0  0
 34 59  1  0  0  0  0
 34 67  1  0  0  0  0
 34 76  2  0  0  0  0
 35 58  1  0  0  0  0
 35 71  1  0  0  0  0
 35 77  2  0  0  0  0
 36 39  1  0  0  0  0
 37 46  1  0  0  0  0
 38 66  1  0  0  0  0
 39 41  1  0  0  0  0
 40 42  1  0  0  0  0
 40 43  1  0  0  0  0
 41 45  1  0  0  0  0
 42 47  1  0  0  0  0
 43 67  1  0  0  0  0
 44 47  1  0  0  0  0
 44 67  1  0  0  0  0
 45 70  1  0  0  0  0
 46 66  1  0  0  0  0
 47 65  1  0  0  0  0
 48 58  1  0  0  0  0
 49 59  1  0  0  0  0
 50 60  1  0  0  0  0
 51 60  1  0  0  0  0
 52 60  1  0  0  0  0
 53 72  1  0  0  0  0
 54 55  1  0  0  0  0
 55 56  1  0  0  0  0
 56 80  1  0  0  0  0
 57 60  1  0  0  0  0
 57 71  1  0  0  0  0
 58 72  1  0  0  0  0
 59 78  1  0  0  0  0
 62 65  1  0  0  0  0
 63 64  1  0  0  0  0
M  CHG  1  72   1
M  ISO  4  34 100  56 101  59 100  80 101
M  END
> <Batch ID>
0061

> <Smiles>
CNC(C)C(=O)NC(C(=O)N1Cc2cc([101O:1][101CH2:1]CCc3cnc([100C:0](C)(O)[100C:0](=O)N4CCCC(n5nc(-c6ccc(Oc7ccc(F)cc7F)cc6)c(C(N)=O)c5N)C4)nn3)ccc2CC1C(=O)NC1CCCc2ccccc21)C(C)(C)C

> <Shape>
0.263

> <Color>
0.071

> <Negative vol penalty>
0.000

$$$$

  -OEChem-04052317583D

 93102  0     1  0  0  0  0  0999 V2000
  -30.4812  -12.1852   19.2237 C   0  0  0  0  0  0  0  0  0  0  0  0
  -30.3840  -13.5120   19.6308 C   0  0  0  0  0  0  0  0  0  0  0  0
  -29.2250  -23.0968   21.3893 C   0  0  0  0  0  0  0  0  0  0  0  0
  -27.5023  -23.2533   19.7027 C   0  0  0  0  0  0  0  0  0  0  0  0
  -29.3247  -11.4419   18.9917 C   0  0  0  0  0  0  0  0  0  0  0  0
  -29.1300  -14.0965   19.8051 C   0  0  0  0  0  0  0  0  0  0  0  0
  -25.7469  -18.9545   23.8387 C   0  0  0  0  0  0  0  0  0  0  0  0
  -29.3047  -21.7200   21.1802 C   0  0  0  0  0  0  0  0  0  0  0  0
  -27.5820  -21.8765   19.4935 C   0  0  0  0  0  0  0  0  0  0  0  0
  -24.9477  -20.0901   23.7136 C   0  0  0  0  0  0  0  0  0  0  0  0
  -30.6943  -19.6194   18.9242 C   0  0  0  0  0  0  0  0  0  0  0  0
  -31.9642  -19.0516   18.8231 C   0  0  0  0  0  0  0  0  0  0  0  0
  -23.0184  -18.6859   23.3599 C   0  0  0  0  0  0  0  0  0  0  0  0
  -31.4890  -17.6491   20.7322 C   0  0  0  0  0  0  0  0  0  0  0  0
  -20.4184  -27.1116   21.6054 C   0  0  0  0  0  0  0  0  0  0  0  0
  -28.3237  -23.8634   20.6506 C   0  0  0  0  0  0  0  0  0  0  0  0
  -28.9757  -26.2898   20.2086 C   0  0  0  0  0  0  0  0  0  0  0  0
  -28.0559  -12.0147   19.1725 C   0  0  0  0  0  0  0  0  0  0  0  0
  -25.1888  -17.6741   23.7143 C   0  0  0  0  0  0  0  0  0  0  0  0
  -27.9554  -13.3605   19.5739 C   0  0  0  0  0  0  0  0  0  0  0  0
  -23.8122  -17.5357   23.4864 C   0  0  0  0  0  0  0  0  0  0  0  0
  -28.4832  -21.1099   20.2323 C   0  0  0  0  0  0  0  0  0  0  0  0
  -23.5837  -19.9559   23.4713 C   0  0  0  0  0  0  0  0  0  0  0  0
  -29.8216  -19.2022   19.9293 C   0  0  0  0  0  0  0  0  0  0  0  0
  -32.3616  -18.0664   19.7271 C   0  0  0  0  0  0  0  0  0  0  0  0
  -30.2190  -18.2170   20.8332 C   0  0  0  0  0  0  0  0  0  0  0  0
  -28.2406  -25.2856   20.8666 C   0  0  0  0  0  0  0  0  0  0  0  0
  -20.4584  -28.3912   22.1206 C   0  0  0  0  0  0  0  0  0  0  0  0
  -19.3120  -26.3630   21.9512 C   0  0  0  0  0  0  0  0  0  0  0  0
  -28.5325  -27.4628   20.7690 C   0  0  0  0  0  0  0  0  0  0  0  0
  -19.7792  -23.9230   22.3198 C   0  0  0  0  0  0  0  0  0  0  0  0
  -18.4701  -28.0815   23.1780 C   0  0  0  0  0  0  0  0  0  0  0  0
  -20.7310  -22.1820   22.9680 C   0  0  0  0  0  0  0  0  0  0  0  0
  -29.9703  -26.1727   19.1825 C   0  0  0  0  0  0  0  0  0  0  0  0
  -25.6035  -15.2300   21.7249 C   0  0  0  0  0  0  0  0  0  0  0  0
  -23.5807  -13.7284   23.7683 C   0  0  0  0  0  0  0  0  0  0  0  0
  -21.1136  -13.9834   26.1126 C   0  0  0  0  0  0  0  0  0  0  0  0
  -23.4236  -29.0111   23.4806 C   0  0  0  0  0  0  0  0  0  0  0  0
  -26.8344  -11.1857   18.8638 C   0  0  0  0  0  0  0  0  0  0  0  0
  -26.0597  -16.4589   23.8784 C   0  0  0  0  0  0  0  0  0  0  0  0
  -23.1606  -16.1832   23.3649 C   0  0  0  0  0  0  0  0  0  0  0  0
  -25.5433  -11.7679   19.4332 C   0  0  0  0  0  0  0  0  0  0  0  0
  -26.7119  -29.2192   24.8299 C   0  0  0  0  0  0  0  0  0  0  0  0
  -25.4561  -13.2620   19.1388 C   0  0  0  0  0  0  0  0  0  0  0  0
  -27.5428  -28.3252   23.9078 C   0  0  0  0  0  0  0  0  0  0  0  0
  -25.3091  -28.6563   25.0476 C   0  0  0  0  0  0  0  0  0  0  0  0
  -25.3912  -27.4701   22.8889 C   0  0  0  0  0  0  0  0  0  0  0  0
  -26.6132  -14.0226   19.7978 C   0  0  1  0  0  0  0  0  0  0  0  0
  -25.4754  -15.2119   23.2219 C   0  0  1  0  0  0  0  0  0  0  0  0
  -26.7953  -28.0254   22.5946 C   0  0  2  0  0  0  0  0  0  0  0  0
  -21.9304  -23.5477   25.9110 C   0  0  0  0  0  0  0  0  0  0  0  0
  -19.6333  -12.5808   27.5750 C   0  0  0  0  0  0  0  0  0  0  0  0
  -17.6826  -24.6108   21.0654 C   0  0  0  0  0  0  0  0  0  0  0  0
  -21.8523  -13.0363   21.3509 C   0  0  0  0  0  0  0  0  0  0  0  0
  -19.9828  -12.5020   22.9282 C   0  0  0  0  0  0  0  0  0  0  0  0
  -22.1018  -11.1890   23.0181 C   0  0  0  0  0  0  0  0  0  0  0  0
  -22.2263  -15.1767   28.5817 C   0  0  0  0  0  0  0  0  0  0  0  0
  -21.6159  -29.2767   21.8011 C   0  0  0  0  0  0  0  0  0  0  0  0
  -21.4121  -20.8517   23.1003 C   0  0  0  0  0  0  0  0  0  1  0  0
  -20.7315  -22.7511   25.4256 C   0  0  0  0  0  0  0  0  0  0  0  0
  -22.0825  -13.5706   23.8664 C   0  0  1  0  0  0  0  0  0  0  0  0
  -20.9491  -13.3368   27.4762 C   0  0  2  0  0  0  0  0  0  0  0  0
  -19.1745  -24.9119   21.4196 C   0  0  1  0  0  0  0  0  0  0  0  0
  -17.3860  -28.6208   24.0484 C   0  0  0  0  0  0  0  0  0  0  0  0
  -21.5172  -12.6001   22.7912 C   0  0  0  0  0  0  0  0  0  0  0  0
  -27.3946  -25.7776   21.7756 N   0  0  0  0  0  0  0  0  0  0  0  0
  -19.4979  -28.9104   22.9132 N   0  0  0  0  0  0  0  0  0  0  0  0
  -18.3153  -26.8180   22.7386 N   0  0  0  0  0  0  0  0  0  0  0  0
  -20.3151  -22.7536   21.8617 N   0  0  0  0  0  0  0  0  0  0  0  0
  -19.8374  -24.1110   23.6399 N   0  0  0  0  0  0  0  0  0  0  0  0
  -27.5955  -27.1039   21.6928 N   0  0  0  0  0  0  0  0  0  0  0  0
  -20.4506  -22.9834   24.0305 N   0  0  0  0  0  0  0  0  0  0  0  0
  -24.0554  -15.0253   23.5266 N   0  0  0  0  0  0  0  0  0  0  0  0
  -24.6540  -28.3955   23.7636 N   0  0  0  0  0  0  0  0  0  0  0  0
  -28.8567  -28.7559   20.5568 N   0  0  0  0  0  0  0  0  0  0  0  0
  -30.3068  -24.8928   18.7211 N   0  0  0  0  0  0  0  0  0  0  0  0
  -26.3634  -14.1957   21.2128 N   0  0  0  0  0  0  0  0  0  0  0  0
  -21.8036  -13.1679   25.2406 N   0  0  0  0  0  0  0  0  0  0  0  0
  -22.8743  -28.7152   22.2391 N   0  0  0  0  0  0  0  0  0  0  0  0
  -20.9776  -14.3725   28.5473 N   0  3  0  0  0  0  0  0  0  0  0  0
  -30.5554  -27.1724   18.7011 O   0  0  0  0  0  0  0  0  0  0  0  0
  -25.0525  -16.1158   21.0820 O   0  0  0  0  0  0  0  0  0  0  0  0
  -24.3034  -12.7386   23.9083 O   0  0  0  0  0  0  0  0  0  0  0  0
  -20.6709  -15.0986   25.8464 O   0  0  0  0  0  0  0  0  0  0  0  0
  -22.8591  -29.7726   24.2734 O   0  0  0  0  0  0  0  0  0  0  0  0
  -28.5608  -19.7665   20.0278 O   0  0  0  0  0  0  0  0  0  0  0  0
  -22.8015  -21.0626   23.3481 O   0  0  0  0  0  0  0  0  0  1  0  0
  -33.5806  -17.5200   19.6290 F   0  0  0  0  0  0  0  0  0  0  0  0
  -29.3846  -17.8113   21.8002 F   0  0  0  0  0  0  0  0  0  0  0  0
  -19.7538  -24.8877   20.1413 F   0  0  0  0  0  0  0  0  0  0  0  0
  -17.6008  -29.9062   24.4580 F   0  0  0  0  0  0  0  0  0  0  0  0
  -16.1598  -28.6394   23.4466 F   0  0  0  0  0  0  0  0  0  0  0  0
  -17.2211  -27.8951   25.1926 F   0  0  0  0  0  0  0  0  0  0  0  0
  1  2  1  0  0  0  0
  1  5  2  0  0  0  0
  2  6  2  0  0  0  0
  3  8  2  0  0  0  0
  3 16  1  0  0  0  0
  4  9  1  0  0  0  0
  4 16  2  0  0  0  0
  5 18  1  0  0  0  0
  6 20  1  0  0  0  0
  7 10  2  0  0  0  0
  7 19  1  0  0  0  0
  8 22  1  0  0  0  0
  9 22  2  0  0  0  0
 10 23  1  0  0  0  0
 11 12  2  0  0  0  0
 11 24  1  0  0  0  0
 12 25  1  0  0  0  0
 13 21  1  0  0  0  0
 13 23  2  0  0  0  0
 14 25  2  0  0  0  0
 14 26  1  0  0  0  0
 15 28  2  0  0  0  0
 15 29  1  0  0  0  0
 16 27  1  0  0  0  0
 17 27  1  0  0  0  0
 17 30  2  0  0  0  0
 17 34  1  0  0  0  0
 18 20  2  0  0  0  0
 18 39  1  0  0  0  0
 19 21  2  0  0  0  0
 19 40  1  0  0  0  0
 20 48  1  0  0  0  0
 21 41  1  0  0  0  0
 22 86  1  0  0  0  0
 23 87  1  0  0  0  0
 24 26  2  0  0  0  0
 24 86  1  0  0  0  0
 25 88  1  0  0  0  0
 26 89  1  0  0  0  0
 27 66  2  0  0  0  0
 28 58  1  0  0  0  0
 28 67  1  0  0  0  0
 29 63  1  0  0  0  0
 29 68  2  0  0  0  0
 30 71  1  0  0  0  0
 30 75  1  0  0  0  0
 31 63  1  0  0  0  0
 31 69  1  0  0  0  0
 31 70  2  0  0  0  0
 32 64  1  0  0  0  0
 32 67  2  0  0  0  0
 32 68  1  0  0  0  0
 33 59  1  0  0  0  0
 33 69  2  0  0  0  0
 33 72  1  0  0  0  0
 34 76  1  0  0  0  0
 34 81  2  0  0  0  0
 35 49  1  0  0  0  0
 35 77  1  0  0  0  0
 35 82  2  0  0  0  0
 36 61  1  0  0  0  0
 36 73  1  0  0  0  0
 36 83  2  0  0  0  0
 37 62  1  0  0  0  0
 37 78  1  0  0  0  0
 37 84  2  0  0  0  0
 38 74  1  0  0  0  0
 38 79  1  0  0  0  0
 38 85  2  0  0  0  0
 39 42  1  0  0  0  0
 40 49  1  0  0  0  0
 41 73  1  0  0  0  0
 42 44  1  0  0  0  0
 43 45  1  0  0  0  0
 43 46  1  0  0  0  0
 44 48  1  0  0  0  0
 45 50  1  0  0  0  0
 46 74  1  0  0  0  0
 47 50  1  0  0  0  0
 47 74  1  0  0  0  0
 48 77  1  0  0  0  0
 49 73  1  0  0  0  0
 50 71  1  0  0  0  0
 51 60  1  0  0  0  0
 52 62  1  0  0  0  0
 53 63  1  0  0  0  0
 54 65  1  0  0  0  0
 55 65  1  0  0  0  0
 56 65  1  0  0  0  0
 57 80  1  0  0  0  0
 58 79  1  0  0  0  0
 59 87  1  0  0  0  0
 60 72  1  0  0  0  0
 61 65  1  0  0  0  0
 61 78  1  0  0  0  0
 62 80  1  0  0  0  0
 63 90  1  0  0  0  0
 64 91  1  0  0  0  0
 64 92  1  0  0  0  0
 64 93  1  0  0  0  0
 66 71  1  0  0  0  0
 70 72  1  0  0  0  0
M  CHG  1  80   1
M  ISO  4  38 100  59 101  79 100  87 101
M  END
> <Batch ID>
0061

> <Smiles>
CCn1nc(C(C)(F)c2cc(C[100NH:0][100C:0](=O)N3CCCC(n4nc(-c5ccc(Oc6ccc(F)cc6F)cc5)c(C(N)=O)c4N)C3)nc(C(F)(F)F)n2)nc1[101CH2:1][101O:1]c1ccc2c(c1)CN(C(=O)C(NC(=O)C(C)NC)C(C)(C)C)C(C(=O)NC1CCCc3ccccc31)C2

> <Shape>
0.254

> <Color>
0.050

> <Negative vol penalty>
0.000

$$$$

  -OEChem-04052317583D

 80 88  0     1  0  0  0  0  0999 V2000
  -35.7868  -28.4101   20.4224 C   0  0  0  0  0  0  0  0  0  0  0  0
  -35.0030  -27.2850   20.6573 C   0  0  0  0  0  0  0  0  0  0  0  0
  -23.6246   -9.5825   21.5066 C   0  0  0  0  0  0  0  0  0  0  0  0
  -24.1339  -10.6480   23.6143 C   0  0  0  0  0  0  0  0  0  0  0  0
  -35.1857  -29.6604   20.2832 C   0  0  0  0  0  0  0  0  0  0  0  0
  -33.6175  -27.4098   20.7543 C   0  0  0  0  0  0  0  0  0  0  0  0
  -31.1575  -23.8221   18.1617 C   0  0  0  0  0  0  0  0  0  0  0  0
  -23.0485   -8.5103   22.1877 C   0  0  0  0  0  0  0  0  0  0  0  0
  -23.5577   -9.5758   24.2955 C   0  0  0  0  0  0  0  0  0  0  0  0
  -31.0771  -22.5578   18.7439 C   0  0  0  0  0  0  0  0  0  0  0  0
  -24.4204   -6.4251   25.1671 C   0  0  0  0  0  0  0  0  0  0  0  0
  -25.1115   -5.9063   26.2621 C   0  0  0  0  0  0  0  0  0  0  0  0
  -28.8321  -23.0457   19.4793 C   0  0  0  0  0  0  0  0  0  0  0  0
  -23.2373   -6.4312   27.6936 C   0  0  0  0  0  0  0  0  0  0  0  0
  -30.1735  -16.5541   20.3431 C   0  0  0  0  0  0  0  0  0  0  0  0
  -30.6729  -18.6711   21.8912 C   0  0  0  0  0  0  0  0  0  0  0  0
  -24.1674  -10.6514   22.2198 C   0  0  0  0  0  0  0  0  0  0  0  0
  -24.1206  -12.9326   21.0790 C   0  0  0  0  0  0  0  0  0  0  0  0
  -33.7914  -29.7991   20.3690 C   0  0  0  0  0  0  0  0  0  0  0  0
  -30.0779  -24.7133   18.2436 C   0  0  0  0  0  0  0  0  0  0  0  0
  -32.9973  -28.6634   20.6175 C   0  0  0  0  0  0  0  0  0  0  0  0
  -28.9003  -24.3198   18.8952 C   0  0  0  0  0  0  0  0  0  0  0  0
  -23.0150   -8.5069   23.5822 C   0  0  0  0  0  0  0  0  0  0  0  0
  -29.9154  -22.1705   19.4052 C   0  0  0  0  0  0  0  0  0  0  0  0
  -23.1378   -6.9470   25.3354 C   0  0  0  0  0  0  0  0  0  0  0  0
  -24.5199   -5.9094   27.5253 C   0  0  0  0  0  0  0  0  0  0  0  0
  -22.5463   -6.9500   26.5986 C   0  0  0  0  0  0  0  0  0  0  0  0
  -24.7631  -11.7590   21.5168 C   0  0  0  0  0  0  0  0  0  0  0  0
  -30.1634  -16.4486   21.7165 C   0  0  0  0  0  0  0  0  0  0  0  0
  -30.6837  -18.7766   20.5178 C   0  0  0  0  0  0  0  0  0  0  0  0
  -25.1136  -13.6616   20.4716 C   0  0  0  0  0  0  0  0  0  0  0  0
  -22.7488  -13.3285   21.2098 C   0  0  0  0  0  0  0  0  0  0  0  0
  -29.6359  -27.5902   19.5211 C   0  0  0  0  0  0  0  0  0  0  0  0
  -26.7516  -27.3698   18.0534 C   0  0  0  0  0  0  0  0  0  0  0  0
  -24.3032  -25.3741   16.7613 C   0  0  0  0  0  0  0  0  0  0  0  0
  -31.1725  -13.2635   21.2897 C   0  0  0  0  0  0  0  0  0  0  0  0
  -33.1910  -31.1783   20.2590 C   0  0  0  0  0  0  0  0  0  0  0  0
  -30.1706  -26.0635   17.5873 C   0  0  0  0  0  0  0  0  0  0  0  0
  -27.7057  -25.2318   18.9934 C   0  0  0  0  0  0  0  0  0  0  0  0
  -31.6863  -31.1688   20.0020 C   0  0  0  0  0  0  0  0  0  0  0  0
  -29.2481  -13.1553   18.1296 C   0  0  0  0  0  0  0  0  0  0  0  0
  -30.9910  -30.1857   20.9385 C   0  0  0  0  0  0  0  0  0  0  0  0
  -27.8387  -12.8127   18.6094 C   0  0  0  0  0  0  0  0  0  0  0  0
  -30.3166  -12.6062   19.0701 C   0  0  0  0  0  0  0  0  0  0  0  0
  -28.7333  -12.6805   20.9680 C   0  0  0  0  0  0  0  0  0  0  0  0
  -31.4893  -28.7544   20.7045 C   0  0  1  0  0  0  0  0  0  0  0  0
  -29.1993  -27.0820   18.1762 C   0  0  1  0  0  0  0  0  0  0  0  0
  -27.6318  -13.2592   20.0673 C   0  0  2  0  0  0  0  0  0  0  0  0
  -22.0484  -25.4814   15.6651 C   0  0  0  0  0  0  0  0  0  0  0  0
  -25.4707  -27.9844   20.7537 C   0  0  0  0  0  0  0  0  0  0  0  0
  -23.2961  -27.1529   19.8330 C   0  0  0  0  0  0  0  0  0  0  0  0
  -24.4053  -29.1377   18.8071 C   0  0  0  0  0  0  0  0  0  0  0  0
  -32.1166  -14.5256   23.1859 C   0  0  0  0  0  0  0  0  0  0  0  0
  -25.3047  -24.0566   14.3077 C   0  0  0  0  0  0  0  0  0  0  0  0
  -29.8714  -15.1444   22.3723 C   0  0  0  0  0  0  0  0  0  0  0  0
  -30.9776  -20.0912   19.8568 C   0  0  0  0  0  0  0  0  0  1  0  0
  -25.3925  -26.8391   18.4411 C   0  0  1  0  0  0  0  0  0  0  0  0
  -23.5519  -25.4266   15.4433 C   0  0  2  0  0  0  0  0  0  0  0  0
  -24.6642  -27.7618   19.4587 C   0  0  0  0  0  0  0  0  0  0  0  0
  -30.4126  -17.5052   22.5152 N   0  0  0  0  0  0  0  0  0  0  0  0
  -30.4342  -17.7200   19.7191 N   0  0  0  0  0  0  0  0  0  0  0  0
  -26.0637  -11.7393   21.2131 N   0  0  0  0  0  0  0  0  0  0  0  0
  -26.2464  -12.9094   20.5779 N   0  0  0  0  0  0  0  0  0  0  0  0
  -27.8475  -26.5440   18.3413 N   0  0  0  0  0  0  0  0  0  0  0  0
  -30.0717  -13.0098   20.4551 N   0  0  0  0  0  0  0  0  0  0  0  0
  -25.1196  -14.8661   19.8621 N   0  0  0  0  0  0  0  0  0  0  0  0
  -21.8622  -12.4606   21.8619 N   0  0  0  0  0  0  0  0  0  0  0  0
  -30.8787  -28.1944   19.5180 N   0  0  0  0  0  0  0  0  0  0  0  0
  -24.6640  -26.6326   17.1940 N   0  0  0  0  0  0  0  0  0  0  0  0
  -31.0006  -14.2195   22.3022 N   0  0  0  0  0  0  0  0  0  0  0  0
  -23.8622  -24.2225   14.6219 N   0  3  0  0  0  0  0  0  0  0  0  0
  -22.3183  -14.4121   20.7474 O   0  0  0  0  0  0  0  0  0  0  0  0
  -28.8992  -27.4461   20.4897 O   0  0  0  0  0  0  0  0  0  0  0  0
  -26.8370  -28.4732   17.5085 O   0  0  0  0  0  0  0  0  0  0  0  0
  -24.5426  -24.3222   17.3501 O   0  0  0  0  0  0  0  0  0  0  0  0
  -32.2506  -12.6762   21.1325 O   0  0  0  0  0  0  0  0  0  0  0  0
  -22.4527   -7.4609   24.2472 O   0  0  0  0  0  0  0  0  0  0  0  0
  -29.8346  -20.9373   19.9749 O   0  0  0  0  0  0  0  0  0  1  0  0
  -25.1831   -5.4098   28.5764 F   0  0  0  0  0  0  0  0  0  0  0  0
  -21.3139   -7.4490   26.7662 F   0  0  0  0  0  0  0  0  0  0  0  0
  1  2  1  0  0  0  0
  1  5  2  0  0  0  0
  2  6  2  0  0  0  0
  3  8  2  0  0  0  0
  3 17  1  0  0  0  0
  4  9  1  0  0  0  0
  4 17  2  0  0  0  0
  5 19  1  0  0  0  0
  6 21  1  0  0  0  0
  7 10  2  0  0  0  0
  7 20  1  0  0  0  0
  8 23  1  0  0  0  0
  9 23  2  0  0  0  0
 10 24  1  0  0  0  0
 11 12  2  0  0  0  0
 11 25  1  0  0  0  0
 12 26  1  0  0  0  0
 13 22  1  0  0  0  0
 13 24  2  0  0  0  0
 14 26  2  0  0  0  0
 14 27  1  0  0  0  0
 15 29  2  0  0  0  0
 15 61  1  0  0  0  0
 16 30  1  0  0  0  0
 16 60  2  0  0  0  0
 17 28  1  0  0  0  0
 18 28  1  0  0  0  0
 18 31  2  0  0  0  0
 18 32  1  0  0  0  0
 19 21  2  0  0  0  0
 19 37  1  0  0  0  0
 20 22  2  0  0  0  0
 20 38  1  0  0  0  0
 21 46  1  0  0  0  0
 22 39  1  0  0  0  0
 23 77  1  0  0  0  0
 24 78  1  0  0  0  0
 25 27  2  0  0  0  0
 25 77  1  0  0  0  0
 26 79  1  0  0  0  0
 27 80  1  0  0  0  0
 28 62  2  0  0  0  0
 29 55  1  0  0  0  0
 29 60  1  0  0  0  0
 30 56  1  0  0  0  0
 30 61  2  0  0  0  0
 31 63  1  0  0  0  0
 31 66  1  0  0  0  0
 32 67  1  0  0  0  0
 32 72  2  0  0  0  0
 33 47  1  0  0  0  0
 33 68  1  0  0  0  0
 33 73  2  0  0  0  0
 34 57  1  0  0  0  0
 34 64  1  0  0  0  0
 34 74  2  0  0  0  0
 35 58  1  0  0  0  0
 35 69  1  0  0  0  0
 35 75  2  0  0  0  0
 36 65  1  0  0  0  0
 36 70  1  0  0  0  0
 36 76  2  0  0  0  0
 37 40  1  0  0  0  0
 38 47  1  0  0  0  0
 39 64  1  0  0  0  0
 40 42  1  0  0  0  0
 41 43  1  0  0  0  0
 41 44  1  0  0  0  0
 42 46  1  0  0  0  0
 43 48  1  0  0  0  0
 44 65  1  0  0  0  0
 45 48  1  0  0  0  0
 45 65  1  0  0  0  0
 46 68  1  0  0  0  0
 47 64  1  0  0  0  0
 48 63  1  0  0  0  0
 49 58  1  0  0  0  0
 50 59  1  0  0  0  0
 51 59  1  0  0  0  0
 52 59  1  0  0  0  0
 53 70  1  0  0  0  0
 54 71  1  0  0  0  0
 55 70  1  0  0  0  0
 56 78  1  0  0  0  0
 57 59  1  0  0  0  0
 57 69  1  0  0  0  0
 58 71  1  0  0  0  0
 62 63  1  0  0  0  0
M  CHG  1  71   1
M  ISO  4  36 100  56 101  70 100  78 101
M  END
> <Batch ID>
0061

> <Smiles>
CNC(C)C(=O)NC(C(=O)N1Cc2cc([101O:1][101CH2:1]c3cnc(C[100N:0](C)[100C:0](=O)N4CCCC(n5nc(-c6ccc(Oc7ccc(F)cc7F)cc6)c(C(N)=O)c5N)C4)cn3)ccc2CC1C(=O)NC1CCCc2ccccc21)C(C)(C)C

> <Shape>
0.248

> <Color>
0.159

> <Negative vol penalty>
0.000

$$$$

  -OEChem-04052317583D

 86 94  0     1  0  0  0  0  0999 V2000
  -31.2632  -22.9749   17.4709 C   0  0  0  0  0  0  0  0  0  0  0  0
  -30.0439  -23.5171   17.0775 C   0  0  0  0  0  0  0  0  0  0  0  0
  -22.6373  -14.3141   20.3093 C   0  0  0  0  0  0  0  0  0  0  0  0
  -24.4360  -15.1663   21.6787 C   0  0  0  0  0  0  0  0  0  0  0  0
  -31.5519  -22.8220   18.8263 C   0  0  0  0  0  0  0  0  0  0  0  0
  -29.1121  -23.9058   18.0394 C   0  0  0  0  0  0  0  0  0  0  0  0
  -25.2376  -28.6372   17.7116 C   0  0  0  0  0  0  0  0  0  0  0  0
  -23.3003  -13.0919   20.1989 C   0  0  0  0  0  0  0  0  0  0  0  0
  -25.0991  -13.9441   21.5683 C   0  0  0  0  0  0  0  0  0  0  0  0
  -23.8895  -28.7235   17.3668 C   0  0  0  0  0  0  0  0  0  0  0  0
  -23.7671  -10.3311   22.0943 C   0  0  0  0  0  0  0  0  0  0  0  0
  -23.0161   -9.1683   22.2662 C   0  0  0  0  0  0  0  0  0  0  0  0
  -23.2925  -28.6309   19.7022 C   0  0  0  0  0  0  0  0  0  0  0  0
  -23.5962   -8.4629   20.0295 C   0  0  0  0  0  0  0  0  0  0  0  0
  -19.7845  -25.1029   19.8686 C   0  0  0  0  0  0  0  0  0  0  0  0
  -23.2051  -15.3513   21.0492 C   0  0  0  0  0  0  0  0  0  0  0  0
  -21.5909  -16.9912   22.1505 C   0  0  0  0  0  0  0  0  0  0  0  0
  -30.6272  -23.2179   19.8055 C   0  0  0  0  0  0  0  0  0  0  0  0
  -25.6234  -28.5360   19.0560 C   0  0  0  0  0  0  0  0  0  0  0  0
  -29.3883  -23.7568   19.4092 C   0  0  0  0  0  0  0  0  0  0  0  0
  -24.6463  -28.5460   20.0616 C   0  0  0  0  0  0  0  0  0  0  0  0
  -24.5312  -12.9069   20.8284 C   0  0  0  0  0  0  0  0  0  0  0  0
  -22.9165  -28.7174   18.3620 C   0  0  0  0  0  0  0  0  0  0  0  0
  -24.4326  -10.5598   20.8899 C   0  0  0  0  0  0  0  0  0  0  0  0
  -22.9307   -8.2342   21.2339 C   0  0  0  0  0  0  0  0  0  0  0  0
  -24.3472   -9.6257   19.8576 C   0  0  0  0  0  0  0  0  0  0  0  0
  -22.5209  -16.6143   21.1632 C   0  0  0  0  0  0  0  0  0  0  0  0
  -20.0978  -24.6072   21.1027 C   0  0  0  0  0  0  0  0  0  0  0  0
  -21.2375  -18.2758   21.8168 C   0  0  0  0  0  0  0  0  0  0  0  0
  -18.7693  -26.3552   21.3856 C   0  0  0  0  0  0  0  0  0  0  0  0
  -21.0913  -16.2468   23.2693 C   0  0  0  0  0  0  0  0  0  0  0  0
  -27.1606  -26.3609   20.7909 C   0  0  0  0  0  0  0  0  0  0  0  0
  -26.9714  -28.6341   23.0972 C   0  0  0  0  0  0  0  0  0  0  0  0
  -25.3731  -31.3870   24.3276 C   0  0  0  0  0  0  0  0  0  0  0  0
  -23.1405  -23.4058   20.2742 C   0  0  0  0  0  0  0  0  0  0  0  0
  -30.9648  -22.9893   21.2575 C   0  0  0  0  0  0  0  0  0  0  0  0
  -27.0831  -28.4707   19.4129 C   0  0  0  0  0  0  0  0  0  0  0  0
  -25.0092  -28.4597   21.5208 C   0  0  0  0  0  0  0  0  0  0  0  0
  -30.0760  -23.7726   22.2202 C   0  0  0  0  0  0  0  0  0  0  0  0
  -22.1508  -20.9849   17.6548 C   0  0  0  0  0  0  0  0  0  0  0  0
  -28.6095  -23.6373   21.8227 C   0  0  0  0  0  0  0  0  0  0  0  0
  -22.1552  -19.6568   18.4099 C   0  0  0  0  0  0  0  0  0  0  0  0
  -23.1347  -21.9832   18.2574 C   0  0  0  0  0  0  0  0  0  0  0  0
  -22.9405  -20.8927   20.4681 C   0  0  0  0  0  0  0  0  0  0  0  0
  -28.3618  -24.2132   20.4232 C   0  0  1  0  0  0  0  0  0  0  0  0
  -27.3358  -27.8532   20.7848 C   0  0  1  0  0  0  0  0  0  0  0  0
  -21.9261  -19.8806   19.9148 C   0  0  2  0  0  0  0  0  0  0  0  0
  -25.4244  -32.9999   26.2494 C   0  0  0  0  0  0  0  0  0  0  0  0
  -17.4212  -26.2175   18.0947 C   0  0  0  0  0  0  0  0  0  0  0  0
  -16.4528  -27.3242   21.5877 C   0  0  0  0  0  0  0  0  0  0  0  0
  -18.4617  -28.8380   21.6818 C   0  0  0  0  0  0  0  0  0  0  0  0
  -17.9075  -27.3615   23.6038 C   0  0  0  0  0  0  0  0  0  0  0  0
  -25.7090  -26.5214   24.9007 C   0  0  0  0  0  0  0  0  0  0  0  0
  -24.9313  -28.3679   26.4020 C   0  0  0  0  0  0  0  0  0  0  0  0
  -27.3719  -28.0041   26.0367 C   0  0  0  0  0  0  0  0  0  0  0  0
  -22.9136  -24.6422   22.3954 C   0  0  0  0  0  0  0  0  0  0  0  0
  -25.8628  -33.6892   22.5334 C   0  0  0  0  0  0  0  0  0  0  0  0
  -20.9317  -23.4724   21.5069 C   0  0  0  0  0  0  0  0  0  0  0  0
  -19.4278  -27.7477   18.1103 C   0  0  0  0  0  0  0  0  0  0  0  0
  -20.6673  -28.1624   18.8994 C   0  0  0  0  0  0  0  0  0  1  0  0
  -25.9724  -28.9846   24.1734 C   0  0  1  0  0  0  0  0  0  0  0  0
  -25.9023  -32.7168   24.8337 C   0  0  2  0  0  0  0  0  0  0  0  0
  -18.3631  -27.0467   18.9760 C   0  0  2  0  0  0  0  0  0  0  0  0
  -17.9475  -27.4056   22.0370 C   0  0  0  0  0  0  0  0  0  0  0  0
  -25.9889  -27.9692   25.3507 C   0  0  0  0  0  0  0  0  0  0  0  0
  -22.7442  -17.5812   20.2691 N   0  0  0  0  0  0  0  0  0  0  0  0
  -18.9610  -26.1836   20.0736 N   0  0  0  0  0  0  0  0  0  0  0  0
  -21.9493  -18.5783   20.6934 N   0  0  0  0  0  0  0  0  0  0  0  0
  -19.4563  -25.4014   22.0224 N   0  3  0  0  0  0  0  0  0  0  0  0
  -26.4494  -28.3913   21.8187 N   0  0  0  0  0  0  0  0  0  0  0  0
  -22.9226  -22.1443   19.6962 N   0  0  0  0  0  0  0  0  0  0  0  0
  -20.3904  -19.1648   22.3775 N   0  0  0  0  0  0  0  0  0  0  0  0
  -21.5597  -14.9405   23.4656 N   0  0  0  0  0  0  0  0  0  0  0  0
  -28.3076  -25.6585   20.4738 N   0  0  0  0  0  0  0  0  0  0  0  0
  -26.2613  -30.3597   24.5662 N   0  0  0  0  0  0  0  0  0  0  0  0
  -22.3641  -23.7386   21.3946 N   0  0  0  0  0  0  0  0  0  0  0  0
  -25.4428  -33.8267   23.9517 N   0  3  0  0  0  0  0  0  0  0  0  0
  -20.2418  -16.7199   24.0619 O   0  0  0  0  0  0  0  0  0  0  0  0
  -26.0662  -25.8821   21.0644 O   0  0  0  0  0  0  0  0  0  0  0  0
  -28.1713  -28.5847   23.3788 O   0  0  0  0  0  0  0  0  0  0  0  0
  -24.2795  -31.2707   23.7789 O   0  0  0  0  0  0  0  0  0  0  0  0
  -23.9742  -24.1936   19.8093 O   0  0  0  0  0  0  0  0  0  0  0  0
  -25.1784  -11.7144   20.7211 O   0  0  0  0  0  0  0  0  0  0  0  0
  -21.5999  -28.8008   18.0282 O   0  0  0  0  0  0  0  0  0  1  0  0
  -22.2108   -7.1169   21.3997 F   0  0  0  0  0  0  0  0  0  0  0  0
  -24.9853   -9.8394   18.6987 F   0  0  0  0  0  0  0  0  0  0  0  0
  1  2  1  0  0  0  0
  1  5  2  0  0  0  0
  2  6  2  0  0  0  0
  3  8  2  0  0  0  0
  3 16  1  0  0  0  0
  4  9  1  0  0  0  0
  4 16  2  0  0  0  0
  5 18  1  0  0  0  0
  6 20  1  0  0  0  0
  7 10  2  0  0  0  0
  7 19  1  0  0  0  0
  8 22  1  0  0  0  0
  9 22  2  0  0  0  0
 10 23  1  0  0  0  0
 11 12  2  0  0  0  0
 11 24  1  0  0  0  0
 12 25  1  0  0  0  0
 13 21  1  0  0  0  0
 13 23  2  0  0  0  0
 14 25  2  0  0  0  0
 14 26  1  0  0  0  0
 15 28  2  0  0  0  0
 15 67  1  0  0  0  0
 16 27  1  0  0  0  0
 17 27  1  0  0  0  0
 17 29  2  0  0  0  0
 17 31  1  0  0  0  0
 18 20  2  0  0  0  0
 18 36  1  0  0  0  0
 19 21  2  0  0  0  0
 19 37  1  0  0  0  0
 20 45  1  0  0  0  0
 21 38  1  0  0  0  0
 22 83  1  0  0  0  0
 23 84  1  0  0  0  0
 24 26  2  0  0  0  0
 24 83  1  0  0  0  0
 25 85  1  0  0  0  0
 26 86  1  0  0  0  0
 27 66  2  0  0  0  0
 28 58  1  0  0  0  0
 28 69  1  0  0  0  0
 29 68  1  0  0  0  0
 29 72  1  0  0  0  0
 30 64  1  0  0  0  0
 30 67  1  0  0  0  0
 30 69  2  0  0  0  0
 31 73  1  0  0  0  0
 31 78  2  0  0  0  0
 32 46  1  0  0  0  0
 32 74  1  0  0  0  0
 32 79  2  0  0  0  0
 33 61  1  0  0  0  0
 33 70  1  0  0  0  0
 33 80  2  0  0  0  0
 34 62  1  0  0  0  0
 34 75  1  0  0  0  0
 34 81  2  0  0  0  0
 35 71  1  0  0  0  0
 35 76  1  0  0  0  0
 35 82  2  0  0  0  0
 36 39  1  0  0  0  0
 37 46  1  0  0  0  0
 38 70  1  0  0  0  0
 39 41  1  0  0  0  0
 40 42  1  0  0  0  0
 40 43  1  0  0  0  0
 41 45  1  0  0  0  0
 42 47  1  0  0  0  0
 43 71  1  0  0  0  0
 44 47  1  0  0  0  0
 44 71  1  0  0  0  0
 45 74  1  0  0  0  0
 46 70  1  0  0  0  0
 47 68  1  0  0  0  0
 48 62  1  0  0  0  0
 49 63  1  0  0  0  0
 50 64  1  0  0  0  0
 51 64  1  0  0  0  0
 52 64  1  0  0  0  0
 53 65  1  0  0  0  0
 54 65  1  0  0  0  0
 55 65  1  0  0  0  0
 56 76  1  0  0  0  0
 57 77  1  0  0  0  0
 58 76  1  0  0  0  0
 59 60  1  0  0  0  0
 59 63  1  0  0  0  0
 60 84  1  0  0  0  0
 61 65  1  0  0  0  0
 61 75  1  0  0  0  0
 62 77  1  0  0  0  0
 63 67  1  0  0  0  0
 66 68  1  0  0  0  0
M  CHG  2  69   1  77   1
M  ISO  4  35 100  60 101  76 100  84 101
M  END
> <Batch ID>
0061

> <Smiles>
CNC(C)C(=O)NC(C(=O)N1Cc2cc([101O:1][101CH2:1]CC(C)n3cc(C[100N:0](C)[100C:0](=O)N4CCCC(n5nc(-c6ccc(Oc7ccc(F)cc7F)cc6)c(C(N)=O)c5N)C4)nc3C(C)(C)C)ccc2CC1C(=O)NC1CCCc2ccccc21)C(C)(C)C

> <Shape>
0.217

> <Color>
0.065

> <Negative vol penalty>
0.000

$$$$

  -OEChem-04052317583D

 85 93  0     1  0  0  0  0  0999 V2000
  -16.8276  -28.8522   24.1895 C   0  0  0  0  0  0  0  0  0  0  0  0
  -17.4796  -27.9597   23.3446 C   0  0  0  0  0  0  0  0  0  0  0  0
  -22.9777  -12.6801   20.6391 C   0  0  0  0  0  0  0  0  0  0  0  0
  -24.4029  -12.6102   22.5887 C   0  0  0  0  0  0  0  0  0  0  0  0
  -17.2589  -30.1756   24.2704 C   0  0  0  0  0  0  0  0  0  0  0  0
  -18.5627  -28.3904   22.5793 C   0  0  0  0  0  0  0  0  0  0  0  0
  -22.4312  -25.1239   22.6762 C   0  0  0  0  0  0  0  0  0  0  0  0
  -22.5433  -11.3827   20.9102 C   0  0  0  0  0  0  0  0  0  0  0  0
  -23.9684  -11.3128   22.8598 C   0  0  0  0  0  0  0  0  0  0  0  0
  -22.3257  -23.9881   21.8746 C   0  0  0  0  0  0  0  0  0  0  0  0
  -23.7006   -8.2330   20.5046 C   0  0  0  0  0  0  0  0  0  0  0  0
  -23.6355   -7.3361   19.4384 C   0  0  0  0  0  0  0  0  0  0  0  0
  -23.7328  -25.0341   20.2177 C   0  0  0  0  0  0  0  0  0  0  0  0
  -21.2658   -7.0569   19.8180 C   0  0  0  0  0  0  0  0  0  0  0  0
  -26.4681  -22.6886   19.3090 C   0  0  0  0  0  0  0  0  0  0  0  0
  -23.9076  -13.2938   21.4783 C   0  0  0  0  0  0  0  0  0  0  0  0
  -23.7866  -15.8356   21.6590 C   0  0  0  0  0  0  0  0  0  0  0  0
  -18.3540  -30.6203   23.5129 C   0  0  0  0  0  0  0  0  0  0  0  0
  -23.1806  -26.2295   22.2490 C   0  0  0  0  0  0  0  0  0  0  0  0
  -19.0083  -29.7213   22.6491 C   0  0  0  0  0  0  0  0  0  0  0  0
  -23.8483  -26.1818   21.0169 C   0  0  0  0  0  0  0  0  0  0  0  0
  -23.0386  -10.6990   22.0205 C   0  0  0  0  0  0  0  0  0  0  0  0
  -22.9742  -23.9442   20.6439 C   0  0  0  0  0  0  0  0  0  0  0  0
  -22.5484   -8.5418   21.2277 C   0  0  0  0  0  0  0  0  0  0  0  0
  -22.4181   -6.7481   19.0950 C   0  0  0  0  0  0  0  0  0  0  0  0
  -21.3310   -7.9538   20.8843 C   0  0  0  0  0  0  0  0  0  0  0  0
  -24.3573  -14.6339   21.1985 C   0  0  0  0  0  0  0  0  0  0  0  0
  -25.2419  -22.3363   19.8116 C   0  0  0  0  0  0  0  0  0  0  0  0
  -24.5766  -16.8203   21.1179 C   0  0  0  0  0  0  0  0  0  0  0  0
  -27.4239  -21.9724   21.2256 C   0  0  0  0  0  0  0  0  0  0  0  0
  -22.6446  -16.0432   22.5007 C   0  0  0  0  0  0  0  0  0  0  0  0
  -22.5205  -29.2691   21.5943 C   0  0  0  0  0  0  0  0  0  0  0  0
  -25.7411  -29.4948   21.2799 C   0  0  0  0  0  0  0  0  0  0  0  0
  -28.7079  -27.9284   20.6541 C   0  0  0  0  0  0  0  0  0  0  0  0
  -29.6088  -18.8891   19.8760 C   0  0  0  0  0  0  0  0  0  0  0  0
  -18.7541  -32.0720   23.5982 C   0  0  0  0  0  0  0  0  0  0  0  0
  -23.3064  -27.4368   23.1373 C   0  0  0  0  0  0  0  0  0  0  0  0
  -24.6819  -27.3342   20.5215 C   0  0  0  0  0  0  0  0  0  0  0  0
  -20.1447  -32.3546   23.0355 C   0  0  0  0  0  0  0  0  0  0  0  0
  -28.1809  -16.5753   17.5773 C   0  0  0  0  0  0  0  0  0  0  0  0
  -20.3242  -31.6671   21.6858 C   0  0  0  0  0  0  0  0  0  0  0  0
  -27.0163  -15.9590   18.3545 C   0  0  0  0  0  0  0  0  0  0  0  0
  -29.3788  -16.8540   18.4825 C   0  0  0  0  0  0  0  0  0  0  0  0
  -27.9126  -17.0491   20.4538 C   0  0  0  0  0  0  0  0  0  0  0  0
  -20.2025  -30.1445   21.8216 C   0  0  1  0  0  0  0  0  0  0  0  0
  -23.6748  -28.7049   22.3733 C   0  0  1  0  0  0  0  0  0  0  0  0
  -26.6611  -16.8018   19.5942 C   0  0  2  0  0  0  0  0  0  0  0  0
  -23.6280  -21.3192   18.1671 C   0  0  0  0  0  0  0  0  0  0  0  0
  -31.1655  -28.3820   20.4272 C   0  0  0  0  0  0  0  0  0  0  0  0
  -25.2615  -30.6985   18.5174 C   0  0  0  0  0  0  0  0  0  0  0  0
  -27.6648  -30.2469   17.9801 C   0  0  0  0  0  0  0  0  0  0  0  0
  -27.0752  -31.8049   19.8369 C   0  0  0  0  0  0  0  0  0  0  0  0
  -29.3656  -26.1342   22.9140 C   0  0  0  0  0  0  0  0  0  0  0  0
  -28.6447  -21.7538   22.0511 C   0  0  0  0  0  0  0  0  0  0  0  0
  -23.9783  -22.5406   19.0076 C   0  0  1  0  0  0  0  0  0  1  0  0
  -26.7191  -29.3207   20.1431 C   0  0  1  0  0  0  0  0  0  0  0  0
  -30.0444  -27.9784   21.3721 C   0  0  2  0  0  0  0  0  0  0  0  0
  -29.7119  -20.8755   21.3602 C   0  0  1  0  0  0  0  0  0  0  0  0
  -26.6629  -30.4966   19.1275 C   0  0  0  0  0  0  0  0  0  0  0  0
  -30.9329  -20.6751   22.2421 C   0  0  0  0  0  0  0  0  0  0  0  0
  -27.5982  -22.5133   20.0106 N   0  0  0  0  0  0  0  0  0  0  0  0
  -25.4270  -14.8345   20.4243 N   0  0  0  0  0  0  0  0  0  0  0  0
  -25.1289  -21.7971   21.0390 N   0  0  0  0  0  0  0  0  0  0  0  0
  -26.2466  -21.6077   21.7706 N   0  0  0  0  0  0  0  0  0  0  0  0
  -25.5348  -16.1737   20.3941 N   0  0  0  0  0  0  0  0  0  0  0  0
  -24.7690  -28.4947   21.4233 N   0  0  0  0  0  0  0  0  0  0  0  0
  -28.9747  -17.6585   19.6381 N   0  0  0  0  0  0  0  0  0  0  0  0
  -24.5380  -18.1675   21.1952 N   0  0  0  0  0  0  0  0  0  0  0  0
  -21.9473  -14.9214   22.9693 N   0  0  0  0  0  0  0  0  0  0  0  0
  -21.4209  -29.5869   22.3685 N   0  0  0  0  0  0  0  0  0  0  0  0
  -28.0278  -29.1235   20.7572 N   0  0  0  0  0  0  0  0  0  0  0  0
  -29.1614  -19.5912   20.9885 N   0  0  0  0  0  0  0  0  0  0  0  0
  -30.3730  -26.6438   21.9483 N   0  3  0  0  0  0  0  0  0  0  0  0
  -22.2444  -17.1900   22.8141 O   0  0  0  0  0  0  0  0  0  0  0  0
  -22.6206  -29.4074   20.3808 O   0  0  0  0  0  0  0  0  0  0  0  0
  -25.8406  -30.4783   22.0178 O   0  0  0  0  0  0  0  0  0  0  0  0
  -28.3088  -26.9305   20.0580 O   0  0  0  0  0  0  0  0  0  0  0  0
  -30.5034  -19.3320   19.1477 O   0  0  0  0  0  0  0  0  0  0  0  0
  -22.6146   -9.4330   22.2855 O   0  0  0  0  0  0  0  0  0  0  0  0
  -22.8723  -22.8370   19.8593 O   0  0  0  0  0  0  0  0  0  1  0  0
  -22.3553   -5.8880   18.0701 F   0  0  0  0  0  0  0  0  0  0  0  0
  -20.2205   -8.2475   21.5745 F   0  0  0  0  0  0  0  0  0  0  0  0
  -31.5355  -21.8473   22.5352 F   0  0  0  0  0  0  0  0  0  0  0  0
  -30.5980  -20.0788   23.4081 F   0  0  0  0  0  0  0  0  0  0  0  0
  -31.8446  -19.8839   21.6338 F   0  0  0  0  0  0  0  0  0  0  0  0
  1  2  1  0  0  0  0
  1  5  2  0  0  0  0
  2  6  2  0  0  0  0
  3  8  2  0  0  0  0
  3 16  1  0  0  0  0
  4  9  1  0  0  0  0
  4 16  2  0  0  0  0
  5 18  1  0  0  0  0
  6 20  1  0  0  0  0
  7 10  2  0  0  0  0
  7 19  1  0  0  0  0
  8 22  1  0  0  0  0
  9 22  2  0  0  0  0
 10 23  1  0  0  0  0
 11 12  2  0  0  0  0
 11 24  1  0  0  0  0
 12 25  1  0  0  0  0
 13 21  1  0  0  0  0
 13 23  2  0  0  0  0
 14 25  2  0  0  0  0
 14 26  1  0  0  0  0
 15 28  1  0  0  0  0
 15 61  2  0  0  0  0
 16 27  1  0  0  0  0
 17 27  1  0  0  0  0
 17 29  2  0  0  0  0
 17 31  1  0  0  0  0
 18 20  2  0  0  0  0
 18 36  1  0  0  0  0
 19 21  2  0  0  0  0
 19 37  1  0  0  0  0
 20 45  1  0  0  0  0
 21 38  1  0  0  0  0
 22 79  1  0  0  0  0
 23 80  1  0  0  0  0
 24 26  2  0  0  0  0
 24 79  1  0  0  0  0
 25 81  1  0  0  0  0
 26 82  1  0  0  0  0
 27 62  2  0  0  0  0
 28 55  1  0  0  0  0
 28 63  2  0  0  0  0
 29 65  1  0  0  0  0
 29 68  1  0  0  0  0
 30 54  1  0  0  0  0
 30 61  1  0  0  0  0
 30 64  2  0  0  0  0
 31 69  1  0  0  0  0
 31 74  2  0  0  0  0
 32 46  1  0  0  0  0
 32 70  1  0  0  0  0
 32 75  2  0  0  0  0
 33 56  1  0  0  0  0
 33 66  1  0  0  0  0
 33 76  2  0  0  0  0
 34 57  1  0  0  0  0
 34 71  1  0  0  0  0
 34 77  2  0  0  0  0
 35 67  1  0  0  0  0
 35 72  1  0  0  0  0
 35 78  2  0  0  0  0
 36 39  1  0  0  0  0
 37 46  1  0  0  0  0
 38 66  1  0  0  0  0
 39 41  1  0  0  0  0
 40 42  1  0  0  0  0
 40 43  1  0  0  0  0
 41 45  1  0  0  0  0
 42 47  1  0  0  0  0
 43 67  1  0  0  0  0
 44 47  1  0  0  0  0
 44 67  1  0  0  0  0
 45 70  1  0  0  0  0
 46 66  1  0  0  0  0
 47 65  1  0  0  0  0
 48 55  1  0  0  0  0
 49 57  1  0  0  0  0
 50 59  1  0  0  0  0
 51 59  1  0  0  0  0
 52 59  1  0  0  0  0
 53 73  1  0  0  0  0
 54 58  1  0  0  0  0
 55 80  1  0  0  0  0
 56 59  1  0  0  0  0
 56 71  1  0  0  0  0
 57 73  1  0  0  0  0
 58 60  1  0  0  0  0
 58 72  1  0  0  0  0
 60 83  1  0  0  0  0
 60 84  1  0  0  0  0
 60 85  1  0  0  0  0
 62 65  1  0  0  0  0
 63 64  1  0  0  0  0
M  CHG  1  73   1
M  ISO  4  35 100  55 101  72 100  80 101
M  END
> <Batch ID>
0061

> <Smiles>
CNC(C)C(=O)NC(C(=O)N1Cc2cc([101O:1][101CH:1](C)c3cnc(CC([100NH:0][100C:0](=O)N4CCCC(n5nc(-c6ccc(Oc7ccc(F)cc7F)cc6)c(C(N)=O)c5N)C4)C(F)(F)F)nn3)ccc2CC1C(=O)NC1CCCc2ccccc21)C(C)(C)C

> <Shape>
0.228

> <Color>
0.073

> <Negative vol penalty>
0.000

$$$$

  -OEChem-04052317583D

 83 91  0     1  0  0  0  0  0999 V2000
  -23.6261  -21.0074   26.3949 C   0  0  0  0  0  0  0  0  0  0  0  0
  -24.7625  -20.9341   25.5957 C   0  0  0  0  0  0  0  0  0  0  0  0
  -23.1131   -9.8535   19.9897 C   0  0  0  0  0  0  0  0  0  0  0  0
  -23.9579   -9.9103   22.2524 C   0  0  0  0  0  0  0  0  0  0  0  0
  -22.6795  -22.0059   26.1687 C   0  0  0  0  0  0  0  0  0  0  0  0
  -24.9524  -21.8585   24.5692 C   0  0  0  0  0  0  0  0  0  0  0  0
  -29.6828  -23.6609   24.4286 C   0  0  0  0  0  0  0  0  0  0  0  0
  -22.4142   -8.6819   20.2800 C   0  0  0  0  0  0  0  0  0  0  0  0
  -23.2590   -8.7386   22.5428 C   0  0  0  0  0  0  0  0  0  0  0  0
  -30.6594  -22.8426   23.8627 C   0  0  0  0  0  0  0  0  0  0  0  0
  -20.0812   -7.8524   23.2756 C   0  0  0  0  0  0  0  0  0  0  0  0
  -19.3703   -7.8039   24.4747 C   0  0  0  0  0  0  0  0  0  0  0  0
  -30.5139  -24.0995   21.8089 C   0  0  0  0  0  0  0  0  0  0  0  0
  -20.6963   -5.9131   25.1843 C   0  0  0  0  0  0  0  0  0  0  0  0
  -29.8897  -19.7786   20.6368 C   0  0  0  0  0  0  0  0  0  0  0  0
  -23.8850  -10.4678   20.9759 C   0  0  0  0  0  0  0  0  0  0  0  0
  -24.1458  -13.0003   20.8159 C   0  0  0  0  0  0  0  0  0  0  0  0
  -22.8627  -22.9488   25.1451 C   0  0  0  0  0  0  0  0  0  0  0  0
  -29.1056  -24.6996   23.6841 C   0  0  0  0  0  0  0  0  0  0  0  0
  -24.0068  -22.8696   24.3282 C   0  0  0  0  0  0  0  0  0  0  0  0
  -29.5320  -24.9312   22.3685 C   0  0  0  0  0  0  0  0  0  0  0  0
  -22.4871   -8.1244   21.5565 C   0  0  0  0  0  0  0  0  0  0  0  0
  -31.0731  -23.0600   22.5517 C   0  0  0  0  0  0  0  0  0  0  0  0
  -21.0997   -6.9312   23.0308 C   0  0  0  0  0  0  0  0  0  0  0  0
  -19.6778   -6.8343   25.4290 C   0  0  0  0  0  0  0  0  0  0  0  0
  -21.4072   -5.9616   23.9852 C   0  0  0  0  0  0  0  0  0  0  0  0
  -24.6076  -11.6778   20.6765 C   0  0  0  0  0  0  0  0  0  0  0  0
  -30.7974  -18.9242   20.0505 C   0  0  0  0  0  0  0  0  0  0  0  0
  -32.5119  -20.2679   20.7462 C   0  0  0  0  0  0  0  0  0  0  0  0
  -31.6042  -21.1225   21.3323 C   0  0  0  0  0  0  0  0  0  1  0  0
  -25.2005  -13.7776   20.4035 C   0  0  0  0  0  0  0  0  0  0  0  0
  -22.8770  -13.4831   21.2771 C   0  0  0  0  0  0  0  0  0  0  0  0
  -26.1658  -25.3763   22.6825 C   0  0  0  0  0  0  0  0  0  0  0  0
  -27.5562  -28.1368   21.6984 C   0  0  0  0  0  0  0  0  0  0  0  0
  -30.3994  -29.7745   20.7597 C   0  0  0  0  0  0  0  0  0  0  0  0
  -30.8017  -14.6639   20.8012 C   0  0  0  0  0  0  0  0  0  0  0  0
  -21.7889  -23.9811   24.9083 C   0  0  0  0  0  0  0  0  0  0  0  0
  -28.0725  -25.5902   24.3179 C   0  0  0  0  0  0  0  0  0  0  0  0
  -28.9583  -26.0457   21.5336 C   0  0  0  0  0  0  0  0  0  0  0  0
  -22.2483  -25.1499   24.0405 C   0  0  0  0  0  0  0  0  0  0  0  0
  -29.4991  -12.5489   18.0568 C   0  0  0  0  0  0  0  0  0  0  0  0
  -22.9996  -24.6413   22.8142 C   0  0  0  0  0  0  0  0  0  0  0  0
  -28.0982  -12.1899   18.5492 C   0  0  0  0  0  0  0  0  0  0  0  0
  -30.4591  -12.8045   19.2147 C   0  0  0  0  0  0  0  0  0  0  0  0
  -28.5768  -13.4695   20.6738 C   0  0  0  0  0  0  0  0  0  0  0  0
  -24.2605  -23.8692   23.2207 C   0  0  1  0  0  0  0  0  0  0  0  0
  -27.1837  -26.2946   23.2975 C   0  0  1  0  0  0  0  0  0  0  0  0
  -27.5732  -13.2513   19.5315 C   0  0  2  0  0  0  0  0  0  0  0  0
  -33.9764  -20.5375   20.8051 C   0  0  0  0  0  0  0  0  0  0  0  0
  -31.2147  -32.0143   19.9750 C   0  0  0  0  0  0  0  0  0  0  0  0
  -31.4652  -16.8112   18.7140 C   0  0  0  0  0  0  0  0  0  0  0  0
  -29.4188  -18.0860   18.1283 C   0  0  0  0  0  0  0  0  0  0  0  0
  -26.4052  -27.5823   18.9276 C   0  0  0  0  0  0  0  0  0  0  0  0
  -27.9976  -29.2787   18.0030 C   0  0  0  0  0  0  0  0  0  0  0  0
  -26.2633  -29.9701   19.6574 C   0  0  0  0  0  0  0  0  0  0  0  0
  -30.8568  -16.6205   22.3006 C   0  0  0  0  0  0  0  0  0  0  0  0
  -32.1760  -30.0796   23.1069 C   0  0  0  0  0  0  0  0  0  0  0  0
  -29.4809  -16.7525   20.2572 C   0  0  0  0  0  0  0  0  0  0  0  0
  -28.2398  -28.5979   20.4339 C   0  0  1  0  0  0  0  0  0  0  0  0
  -30.9740  -31.1158   21.1781 C   0  0  2  0  0  0  0  0  0  0  0  0
  -30.3333  -17.7017   19.3385 C   0  0  0  0  0  0  0  0  0  0  0  0
  -27.2361  -28.8350   19.2703 C   0  0  0  0  0  0  0  0  0  0  0  0
  -30.2768  -20.8931   21.2884 N   0  0  0  0  0  0  0  0  0  0  0  0
  -25.8582  -11.6146   20.2116 N   0  0  0  0  0  0  0  0  0  0  0  0
  -32.1248  -19.1534   20.0947 N   0  0  0  0  0  0  0  0  0  0  0  0
  -26.1912  -12.9072   20.0554 N   0  0  0  0  0  0  0  0  0  0  0  0
  -27.9464  -26.8854   22.1959 N   0  0  0  0  0  0  0  0  0  0  0  0
  -29.9164  -13.7850   20.1557 N   0  0  0  0  0  0  0  0  0  0  0  0
  -25.3678  -15.1137   20.3083 N   0  0  0  0  0  0  0  0  0  0  0  0
  -21.9063  -12.5483   21.6622 N   0  0  0  0  0  0  0  0  0  0  0  0
  -25.3151  -24.7859   23.5976 N   0  0  0  0  0  0  0  0  0  0  0  0
  -29.0211  -29.7749   20.7981 N   0  0  0  0  0  0  0  0  0  0  0  0
  -30.3093  -15.9335   21.1395 N   0  0  0  0  0  0  0  0  0  0  0  0
  -32.2699  -30.9251   21.8890 N   0  3  0  0  0  0  0  0  0  0  0  0
  -22.6061  -14.7068   21.3301 O   0  0  0  0  0  0  0  0  0  0  0  0
  -26.1521  -25.2163   21.4676 O   0  0  0  0  0  0  0  0  0  0  0  0
  -26.7125  -28.8634   22.2293 O   0  0  0  0  0  0  0  0  0  0  0  0
  -31.1028  -28.8227   20.4281 O   0  0  0  0  0  0  0  0  0  0  0  0
  -31.9686  -14.3360   21.0518 O   0  0  0  0  0  0  0  0  0  0  0  0
  -21.8051   -6.9812   21.8402 O   0  0  0  0  0  0  0  0  0  0  0  0
  -32.0257  -22.2623   21.9966 O   0  0  0  0  0  0  0  0  0  1  0  0
  -18.9961   -6.7888   26.5811 F   0  0  0  0  0  0  0  0  0  0  0  0
  -22.3853   -5.0746   23.7562 F   0  0  0  0  0  0  0  0  0  0  0  0
  1  2  1  0  0  0  0
  1  5  2  0  0  0  0
  2  6  2  0  0  0  0
  3  8  2  0  0  0  0
  3 16  1  0  0  0  0
  4  9  1  0  0  0  0
  4 16  2  0  0  0  0
  5 18  1  0  0  0  0
  6 20  1  0  0  0  0
  7 10  2  0  0  0  0
  7 19  1  0  0  0  0
  8 22  1  0  0  0  0
  9 22  2  0  0  0  0
 10 23  1  0  0  0  0
 11 12  2  0  0  0  0
 11 24  1  0  0  0  0
 12 25  1  0  0  0  0
 13 21  1  0  0  0  0
 13 23  2  0  0  0  0
 14 25  2  0  0  0  0
 14 26  1  0  0  0  0
 15 28  1  0  0  0  0
 15 63  2  0  0  0  0
 16 27  1  0  0  0  0
 17 27  1  0  0  0  0
 17 31  2  0  0  0  0
 17 32  1  0  0  0  0
 18 20  2  0  0  0  0
 18 37  1  0  0  0  0
 19 21  2  0  0  0  0
 19 38  1  0  0  0  0
 20 46  1  0  0  0  0
 21 39  1  0  0  0  0
 22 80  1  0  0  0  0
 23 81  1  0  0  0  0
 24 26  2  0  0  0  0
 24 80  1  0  0  0  0
 25 82  1  0  0  0  0
 26 83  1  0  0  0  0
 27 64  2  0  0  0  0
 28 61  1  0  0  0  0
 28 65  2  0  0  0  0
 29 30  2  0  0  0  0
 29 49  1  0  0  0  0
 29 65  1  0  0  0  0
 30 63  1  0  0  0  0
 30 81  1  0  0  0  0
 31 66  1  0  0  0  0
 31 69  1  0  0  0  0
 32 70  1  0  0  0  0
 32 75  2  0  0  0  0
 33 47  1  0  0  0  0
 33 71  1  0  0  0  0
 33 76  2  0  0  0  0
 34 59  1  0  0  0  0
 34 67  1  0  0  0  0
 34 77  2  0  0  0  0
 35 60  1  0  0  0  0
 35 72  1  0  0  0  0
 35 78  2  0  0  0  0
 36 68  1  0  0  0  0
 36 73  1  0  0  0  0
 36 79  2  0  0  0  0
 37 40  1  0  0  0  0
 38 47  1  0  0  0  0
 39 67  1  0  0  0  0
 40 42  1  0  0  0  0
 41 43  1  0  0  0  0
 41 44  1  0  0  0  0
 42 46  1  0  0  0  0
 43 48  1  0  0  0  0
 44 68  1  0  0  0  0
 45 48  1  0  0  0  0
 45 68  1  0  0  0  0
 46 71  1  0  0  0  0
 47 67  1  0  0  0  0
 48 66  1  0  0  0  0
 50 60  1  0  0  0  0
 51 61  1  0  0  0  0
 52 61  1  0  0  0  0
 53 62  1  0  0  0  0
 54 62  1  0  0  0  0
 55 62  1  0  0  0  0
 56 73  1  0  0  0  0
 57 74  1  0  0  0  0
 58 61  1  0  0  0  0
 58 73  1  0  0  0  0
 59 62  1  0  0  0  0
 59 72  1  0  0  0  0
 60 74  1  0  0  0  0
 64 66  1  0  0  0  0
M  CHG  1  74   1
M  ISO  4  30 101  36 100  73 100  81 101
M  END
> <Batch ID>
0061

> <Smiles>
CNC(C)C(=O)NC(C(=O)N1Cc2cc([101O:1][101c:1]3ncc(C(C)(C)C[100N:0](C)[100C:0](=O)N4CCCC(n5nc(-c6ccc(Oc7ccc(F)cc7F)cc6)c(C(N)=O)c5N)C4)nc3C)ccc2CC1C(=O)NC1CCCc2ccccc21)C(C)(C)C

> <Shape>
0.234

> <Color>
0.174

> <Negative vol penalty>
0.000

$$$$

  -OEChem-04052317583D

 85 93  0     1  0  0  0  0  0999 V2000
  -30.5548  -30.5437   13.3427 C   0  0  0  0  0  0  0  0  0  0  0  0
  -30.4768  -29.3857   14.1098 C   0  0  0  0  0  0  0  0  0  0  0  0
  -26.5048  -13.2983   20.1436 C   0  0  0  0  0  0  0  0  0  0  0  0
  -25.4472  -14.9844   21.5132 C   0  0  0  0  0  0  0  0  0  0  0  0
  -30.3155  -31.7852   13.9304 C   0  0  0  0  0  0  0  0  0  0  0  0
  -30.1605  -29.4687   15.4653 C   0  0  0  0  0  0  0  0  0  0  0  0
  -26.8977  -25.4492   18.7369 C   0  0  0  0  0  0  0  0  0  0  0  0
  -25.3123  -12.5753   20.1129 C   0  0  0  0  0  0  0  0  0  0  0  0
  -24.2547  -14.2614   21.4824 C   0  0  0  0  0  0  0  0  0  0  0  0
  -27.2708  -24.4148   19.5940 C   0  0  0  0  0  0  0  0  0  0  0  0
  -23.6119  -10.4884   22.1569 C   0  0  0  0  0  0  0  0  0  0  0  0
  -23.6842   -9.1115   22.3678 C   0  0  0  0  0  0  0  0  0  0  0  0
  -27.0050  -25.8918   21.4826 C   0  0  0  0  0  0  0  0  0  0  0  0
  -22.7202   -8.7266   20.1861 C   0  0  0  0  0  0  0  0  0  0  0  0
  -29.5884  -20.7871   22.3193 C   0  0  0  0  0  0  0  0  0  0  0  0
  -26.5722  -14.5028   20.8438 C   0  0  0  0  0  0  0  0  0  0  0  0
  -28.2185  -16.2453   19.9714 C   0  0  0  0  0  0  0  0  0  0  0  0
  -29.9866  -31.8826   15.2917 C   0  0  0  0  0  0  0  0  0  0  0  0
  -26.5855  -26.7178   19.2463 C   0  0  0  0  0  0  0  0  0  0  0  0
  -29.9179  -30.7127   16.0721 C   0  0  0  0  0  0  0  0  0  0  0  0
  -26.6257  -26.9399   20.6302 C   0  0  0  0  0  0  0  0  0  0  0  0
  -24.1873  -13.0568   20.7823 C   0  0  0  0  0  0  0  0  0  0  0  0
  -27.3273  -24.6368   20.9668 C   0  0  0  0  0  0  0  0  0  0  0  0
  -23.0938  -10.9844   20.9606 C   0  0  0  0  0  0  0  0  0  0  0  0
  -23.2383   -8.2306   21.3825 C   0  0  0  0  0  0  0  0  0  0  0  0
  -22.6480  -10.1036   19.9752 C   0  0  0  0  0  0  0  0  0  0  0  0
  -27.8039  -15.2499   20.8764 C   0  0  0  0  0  0  0  0  0  0  0  0
  -28.3501  -21.3899   22.2931 C   0  0  0  0  0  0  0  0  0  0  0  0
  -28.9913  -19.6422   24.2066 C   0  0  0  0  0  0  0  0  0  0  0  0
  -27.7532  -20.2456   24.1810 C   0  0  0  0  0  0  0  0  0  0  0  0
  -29.4490  -16.6408   20.4362 C   0  0  0  0  0  0  0  0  0  0  0  0
  -27.5511  -16.7660   18.8142 C   0  0  0  0  0  0  0  0  0  0  0  0
  -27.8014  -29.6345   18.9024 C   0  0  0  0  0  0  0  0  0  0  0  0
  -25.2183  -30.4961   20.6653 C   0  0  0  0  0  0  0  0  0  0  0  0
  -22.8205  -29.5982   22.9216 C   0  0  0  0  0  0  0  0  0  0  0  0
  -31.7413  -16.0866   26.0910 C   0  0  0  0  0  0  0  0  0  0  0  0
  -29.7828  -33.2506   15.8932 C   0  0  0  0  0  0  0  0  0  0  0  0
  -26.1589  -27.8157   18.3107 C   0  0  0  0  0  0  0  0  0  0  0  0
  -26.2804  -28.2780   21.2290 C   0  0  0  0  0  0  0  0  0  0  0  0
  -29.0858  -33.2213   17.2509 C   0  0  0  0  0  0  0  0  0  0  0  0
  -33.2368  -15.0404   22.8706 C   0  0  0  0  0  0  0  0  0  0  0  0
  -29.7106  -32.1582   18.1489 C   0  0  0  0  0  0  0  0  0  0  0  0
  -32.0258  -14.9941   21.9404 C   0  0  0  0  0  0  0  0  0  0  0  0
  -32.8485  -14.7701   24.3211 C   0  0  0  0  0  0  0  0  0  0  0  0
  -30.5633  -15.6173   23.9035 C   0  0  0  0  0  0  0  0  0  0  0  0
  -29.5532  -30.7597   17.5400 C   0  0  1  0  0  0  0  0  0  0  0  0
  -26.3599  -29.2105   18.8952 C   0  0  1  0  0  0  0  0  0  0  0  0
  -30.9132  -15.9315   22.4412 C   0  0  2  0  0  0  0  0  0  0  0  0
  -20.8724  -30.5286   24.2011 C   0  0  0  0  0  0  0  0  0  0  0  0
  -27.1436  -31.9010   22.5704 C   0  0  0  0  0  0  0  0  0  0  0  0
  -25.3027  -31.9744   24.2656 C   0  0  0  0  0  0  0  0  0  0  0  0
  -25.0411  -33.1674   22.0905 C   0  0  0  0  0  0  0  0  0  0  0  0
  -31.1383  -17.8501   27.7053 C   0  0  0  0  0  0  0  0  0  0  0  0
  -20.9322  -27.7092   21.6469 C   0  0  0  0  0  0  0  0  0  0  0  0
  -29.3580  -18.6655   25.2712 C   0  0  0  0  0  0  0  0  0  0  0  0
  -28.0031  -22.3697   21.2110 C   0  0  0  0  0  0  0  0  0  1  0  0
  -30.8519  -18.3197   25.3005 C   0  0  0  0  0  0  0  0  0  0  0  0
  -24.9310  -30.6420   22.1401 C   0  0  1  0  0  0  0  0  0  0  0  0
  -21.3180  -29.8145   22.9345 C   0  0  2  0  0  0  0  0  0  0  0  0
  -26.7228  -19.9496   25.2166 C   0  0  0  0  0  0  0  0  0  0  0  0
  -25.6130  -31.8964   22.7555 C   0  0  0  0  0  0  0  0  0  0  0  0
  -29.9312  -19.9024   23.2765 N   0  0  0  0  0  0  0  0  0  0  0  0
  -28.6984  -15.0266   21.8428 N   0  0  0  0  0  0  0  0  0  0  0  0
  -27.4103  -21.1300   23.2235 N   0  0  0  0  0  0  0  0  0  0  0  0
  -29.6874  -15.8873   21.5477 N   0  0  0  0  0  0  0  0  0  0  0  0
  -25.8753  -29.3214   20.2725 N   0  0  0  0  0  0  0  0  0  0  0  0
  -31.7601  -15.6453   24.7577 N   0  0  0  0  0  0  0  0  0  0  0  0
  -30.3395  -17.5560   19.9983 N   0  0  0  0  0  0  0  0  0  0  0  0
  -26.2927  -16.2478   18.4791 N   0  0  0  0  0  0  0  0  0  0  0  0
  -28.2072  -30.2684   17.7436 N   0  0  0  0  0  0  0  0  0  0  0  0
  -23.4786  -30.6241   22.2768 N   0  0  0  0  0  0  0  0  0  0  0  0
  -31.1707  -17.3440   26.3405 N   0  0  0  0  0  0  0  0  0  0  0  0
  -20.6059  -28.5076   22.8565 N   0  3  0  0  0  0  0  0  0  0  0  0
  -28.0629  -17.6525   18.0892 O   0  0  0  0  0  0  0  0  0  0  0  0
  -28.4938  -29.4050   19.8871 O   0  0  0  0  0  0  0  0  0  0  0  0
  -24.8662  -31.3881   19.8894 O   0  0  0  0  0  0  0  0  0  0  0  0
  -23.3570  -28.6193   23.4357 O   0  0  0  0  0  0  0  0  0  0  0  0
  -32.2164  -15.4003   27.0048 O   0  0  0  0  0  0  0  0  0  0  0  0
  -23.0235  -12.3517   20.7523 O   0  0  0  0  0  0  0  0  0  0  0  0
  -27.6918  -23.6290   21.8055 O   0  0  0  0  0  0  0  0  0  1  0  0
  -23.3092   -6.9084   21.5846 F   0  0  0  0  0  0  0  0  0  0  0  0
  -22.1503  -10.5742   18.8234 F   0  0  0  0  0  0  0  0  0  0  0  0
  -27.1333  -19.0465   26.1562 F   0  0  0  0  0  0  0  0  0  0  0  0
  -26.3297  -21.0480   25.9276 F   0  0  0  0  0  0  0  0  0  0  0  0
  -25.5778  -19.4291   24.6856 F   0  0  0  0  0  0  0  0  0  0  0  0
  1  2  1  0  0  0  0
  1  5  2  0  0  0  0
  2  6  2  0  0  0  0
  3  8  2  0  0  0  0
  3 16  1  0  0  0  0
  4  9  1  0  0  0  0
  4 16  2  0  0  0  0
  5 18  1  0  0  0  0
  6 20  1  0  0  0  0
  7 10  2  0  0  0  0
  7 19  1  0  0  0  0
  8 22  1  0  0  0  0
  9 22  2  0  0  0  0
 10 23  1  0  0  0  0
 11 12  2  0  0  0  0
 11 24  1  0  0  0  0
 12 25  1  0  0  0  0
 13 21  1  0  0  0  0
 13 23  2  0  0  0  0
 14 25  2  0  0  0  0
 14 26  1  0  0  0  0
 15 28  1  0  0  0  0
 15 62  2  0  0  0  0
 16 27  1  0  0  0  0
 17 27  1  0  0  0  0
 17 31  2  0  0  0  0
 17 32  1  0  0  0  0
 18 20  2  0  0  0  0
 18 37  1  0  0  0  0
 19 21  2  0  0  0  0
 19 38  1  0  0  0  0
 20 46  1  0  0  0  0
 21 39  1  0  0  0  0
 22 79  1  0  0  0  0
 23 80  1  0  0  0  0
 24 26  2  0  0  0  0
 24 79  1  0  0  0  0
 25 81  1  0  0  0  0
 26 82  1  0  0  0  0
 27 63  2  0  0  0  0
 28 56  1  0  0  0  0
 28 64  2  0  0  0  0
 29 30  2  0  0  0  0
 29 55  1  0  0  0  0
 29 62  1  0  0  0  0
 30 60  1  0  0  0  0
 30 64  1  0  0  0  0
 31 65  1  0  0  0  0
 31 68  1  0  0  0  0
 32 69  1  0  0  0  0
 32 74  2  0  0  0  0
 33 47  1  0  0  0  0
 33 70  1  0  0  0  0
 33 75  2  0  0  0  0
 34 58  1  0  0  0  0
 34 66  1  0  0  0  0
 34 76  2  0  0  0  0
 35 59  1  0  0  0  0
 35 71  1  0  0  0  0
 35 77  2  0  0  0  0
 36 67  1  0  0  0  0
 36 72  1  0  0  0  0
 36 78  2  0  0  0  0
 37 40  1  0  0  0  0
 38 47  1  0  0  0  0
 39 66  1  0  0  0  0
 40 42  1  0  0  0  0
 41 43  1  0  0  0  0
 41 44  1  0  0  0  0
 42 46  1  0  0  0  0
 43 48  1  0  0  0  0
 44 67  1  0  0  0  0
 45 48  1  0  0  0  0
 45 67  1  0  0  0  0
 46 70  1  0  0  0  0
 47 66  1  0  0  0  0
 48 65  1  0  0  0  0
 49 59  1  0  0  0  0
 50 61  1  0  0  0  0
 51 61  1  0  0  0  0
 52 61  1  0  0  0  0
 53 72  1  0  0  0  0
 54 73  1  0  0  0  0
 55 57  1  0  0  0  0
 56 80  1  0  0  0  0
 57 72  1  0  0  0  0
 58 61  1  0  0  0  0
 58 71  1  0  0  0  0
 59 73  1  0  0  0  0
 60 83  1  0  0  0  0
 60 84  1  0  0  0  0
 60 85  1  0  0  0  0
 63 65  1  0  0  0  0
M  CHG  1  73   1
M  ISO  4  36 100  56 101  72 100  80 101
M  END
> <Batch ID>
0061

> <Smiles>
CNC(C)C(=O)NC(C(=O)N1Cc2cc([101O:1][101CH2:1]c3cnc(CC[100N:0](C)[100C:0](=O)N4CCCC(n5nc(-c6ccc(Oc7ccc(F)cc7F)cc6)c(C(N)=O)c5N)C4)c(C(F)(F)F)n3)ccc2CC1C(=O)NC1CCCc2ccccc21)C(C)(C)C

> <Shape>
0.225

> <Color>
0.079

> <Negative vol penalty>
0.000

$$$$

  -OEChem-04052317583D

 89 98  0     1  0  0  0  0  0999 V2000
  -28.7995  -11.3165   20.5774 C   0  0  0  0  0  0  0  0  0  0  0  0
  -29.0794  -12.5702   20.0430 C   0  0  0  0  0  0  0  0  0  0  0  0
  -20.2772  -29.0376   21.9390 C   0  0  0  0  0  0  0  0  0  0  0  0
  -21.3158  -26.8980   22.3641 C   0  0  0  0  0  0  0  0  0  0  0  0
  -27.4815  -10.9573   20.8562 C   0  0  0  0  0  0  0  0  0  0  0  0
  -28.0411  -13.4649   19.7861 C   0  0  0  0  0  0  0  0  0  0  0  0
  -28.2238  -19.5641   20.3074 C   0  0  0  0  0  0  0  0  0  0  0  0
  -19.0310  -28.4165   21.8572 C   0  0  0  0  0  0  0  0  0  0  0  0
  -20.0695  -26.2769   22.2823 C   0  0  0  0  0  0  0  0  0  0  0  0
  -28.4086  -20.5804   19.3711 C   0  0  0  0  0  0  0  0  0  0  0  0
  -17.9435  -25.2676   19.8549 C   0  0  0  0  0  0  0  0  0  0  0  0
  -17.8534  -24.0912   19.1109 C   0  0  0  0  0  0  0  0  0  0  0  0
  -26.0175  -20.8486   19.1991 C   0  0  0  0  0  0  0  0  0  0  0  0
  -17.1199  -22.9012   21.0814 C   0  0  0  0  0  0  0  0  0  0  0  0
  -28.6904  -23.6790   22.4541 C   0  0  0  0  0  0  0  0  0  0  0  0
  -28.3399  -25.8354   22.7037 C   0  0  0  0  0  0  0  0  0  0  0  0
  -30.4811  -25.1205   18.2129 C   0  0  0  0  0  0  0  0  0  0  0  0
  -21.4197  -28.2784   22.1924 C   0  0  0  0  0  0  0  0  0  0  0  0
  -23.3525  -29.6659   21.2724 C   0  0  0  0  0  0  0  0  0  0  0  0
  -26.4276  -11.8517   20.6116 C   0  0  0  0  0  0  0  0  0  0  0  0
  -26.9320  -19.1743   20.6891 C   0  0  0  0  0  0  0  0  0  0  0  0
  -26.7077  -13.1167   20.0607 C   0  0  0  0  0  0  0  0  0  0  0  0
  -25.8190  -19.8288   20.1424 C   0  0  0  0  0  0  0  0  0  0  0  0
  -28.2127  -24.8220   21.7854 C   0  0  0  0  0  0  0  0  0  0  0  0
  -18.9271  -27.0361   22.0288 C   0  0  0  0  0  0  0  0  0  0  0  0
  -27.3053  -21.2209   18.8146 C   0  0  0  0  0  0  0  0  0  0  0  0
  -17.6219  -25.2608   21.2122 C   0  0  0  0  0  0  0  0  0  0  0  0
  -17.4415  -22.9080   19.7241 C   0  0  0  0  0  0  0  0  0  0  0  0
  -17.2101  -24.0776   21.8254 C   0  0  0  0  0  0  0  0  0  0  0  0
  -22.7074  -28.9194   22.2765 C   0  0  0  0  0  0  0  0  0  0  0  0
  -24.5391  -30.0561   21.8435 C   0  0  0  0  0  0  0  0  0  0  0  0
  -28.7180  -24.9707   19.3201 C   0  0  0  0  0  0  0  0  0  0  0  0
  -22.9180  -29.9789   19.9424 C   0  0  0  0  0  0  0  0  0  0  0  0
  -25.2497  -16.4847   20.4900 C   0  0  0  0  0  0  0  0  0  0  0  0
  -23.0991  -18.1583   22.2496 C   0  0  0  0  0  0  0  0  0  0  0  0
  -21.8771  -21.1979   23.2059 C   0  0  0  0  0  0  0  0  0  0  0  0
  -28.0098  -27.9634   25.9755 C   0  0  0  0  0  0  0  0  0  0  0  0
  -25.0146  -11.4007   20.8851 C   0  0  0  0  0  0  0  0  0  0  0  0
  -26.7500  -18.0945   21.7203 C   0  0  0  0  0  0  0  0  0  0  0  0
  -24.4117  -19.4616   20.5337 C   0  0  0  0  0  0  0  0  0  0  0  0
  -24.0079  -12.5473   20.9334 C   0  0  0  0  0  0  0  0  0  0  0  0
  -26.5329  -31.0445   26.0810 C   0  0  0  0  0  0  0  0  0  0  0  0
  -24.2154  -13.4900   19.7523 C   0  0  0  0  0  0  0  0  0  0  0  0
  -25.4433  -30.9487   25.0119 C   0  0  0  0  0  0  0  0  0  0  0  0
  -26.5981  -29.7682   26.9140 C   0  0  0  0  0  0  0  0  0  0  0  0
  -25.7024  -28.4217   25.0486 C   0  0  0  0  0  0  0  0  0  0  0  0
  -25.6111  -14.1242   19.7912 C   0  0  1  0  0  0  0  0  0  0  0  0
  -25.3794  -17.4281   21.6522 C   0  0  1  0  0  0  0  0  0  0  0  0
  -25.6153  -29.6782   24.1595 C   0  0  1  0  0  0  0  0  0  0  0  0
  -26.4425  -27.0936   17.1297 C   0  0  0  0  0  0  0  0  0  0  0  0
  -20.0908  -22.2455   24.6233 C   0  0  0  0  0  0  0  0  0  0  0  0
  -21.0157  -17.4679   20.1300 C   0  0  0  0  0  0  0  0  0  0  0  0
  -19.5620  -19.2769   21.0695 C   0  0  0  0  0  0  0  0  0  0  0  0
  -20.1930  -17.3238   22.4873 C   0  0  0  0  0  0  0  0  0  0  0  0
  -27.1798  -24.4480   15.7722 C   0  0  0  0  0  0  0  0  0  0  0  0
  -26.9410  -25.6776   26.1456 C   0  0  0  0  0  0  0  0  0  0  0  0
  -23.8711  -22.5635   24.9141 C   0  0  0  0  0  0  0  0  0  0  0  0
  -27.6777  -24.9168   20.3629 C   0  0  0  0  0  0  0  0  0  0  0  0
  -26.0807  -25.7107   17.6644 C   0  0  0  0  0  0  0  0  0  0  0  0
  -26.4900  -23.2365   17.8511 C   0  0  0  0  0  0  0  0  0  1  0  0
  -29.1948  -25.9599   25.1183 C   0  0  0  0  0  0  0  0  0  0  0  0
  -21.9370  -19.0687   21.9341 C   0  0  1  0  0  0  0  0  0  0  0  0
  -21.5310  -21.7595   24.5731 C   0  0  2  0  0  0  0  0  0  0  0  0
  -20.7033  -18.2902   21.3962 C   0  0  0  0  0  0  0  0  0  0  0  0
  -27.0896  -24.5695   17.3148 C   0  0  1  0  0  0  0  0  0  0  0  0
  -29.0913  -23.9410   23.7010 N   0  0  0  0  0  0  0  0  0  0  0  0
  -30.0048  -25.1652   19.4919 N   0  0  0  0  0  0  0  0  0  0  0  0
  -29.5699  -24.9106   17.2606 N   0  0  0  0  0  0  0  0  0  0  0  0
  -23.4248  -28.8385   23.4002 N   0  0  0  0  0  0  0  0  0  0  0  0
  -28.8659  -25.2603   23.8230 N   0  0  0  0  0  0  0  0  0  0  0  0
  -24.5330  -29.5393   23.1057 N   0  0  0  0  0  0  0  0  0  0  0  0
  -28.4510  -24.8183   17.9952 N   0  0  0  0  0  0  0  0  0  0  0  0
  -24.2856  -18.3953   21.5411 N   0  0  0  0  0  0  0  0  0  0  0  0
  -26.7570  -28.5922   26.0591 N   0  0  0  0  0  0  0  0  0  0  0  0
  -25.5768  -30.7872   21.3841 N   0  0  0  0  0  0  0  0  0  0  0  0
  -23.2538  -29.0981   18.9052 N   0  0  0  0  0  0  0  0  0  0  0  0
  -25.6538  -15.1925   20.7666 N   0  0  0  0  0  0  0  0  0  0  0  0
  -21.6772  -19.8348   23.1482 N   0  0  0  0  0  0  0  0  0  0  0  0
  -28.0086  -26.5832   25.7152 N   0  0  0  0  0  0  0  0  0  0  0  0
  -22.4253  -22.9048   24.9041 N   0  3  0  0  0  0  0  0  0  0  0  0
  -22.2657  -31.0174   19.6789 O   0  0  0  0  0  0  0  0  0  0  0  0
  -24.8140  -16.8981   19.4219 O   0  0  0  0  0  0  0  0  0  0  0  0
  -22.9615  -17.2742   23.0987 O   0  0  0  0  0  0  0  0  0  0  0  0
  -22.2806  -21.8988   22.2805 O   0  0  0  0  0  0  0  0  0  0  0  0
  -29.0620  -28.5989   26.1145 O   0  0  0  0  0  0  0  0  0  0  0  0
  -17.7112  -26.4297   21.9493 O   0  0  0  0  0  0  0  0  0  0  0  0
  -27.4829  -22.2127   17.9000 O   0  0  0  0  0  0  0  0  0  1  0  0
  -17.3535  -21.7787   19.0091 F   0  0  0  0  0  0  0  0  0  0  0  0
  -16.8987  -24.0651   23.1288 F   0  0  0  0  0  0  0  0  0  0  0  0
  1  2  1  0  0  0  0
  1  5  2  0  0  0  0
  2  6  2  0  0  0  0
  3  8  2  0  0  0  0
  3 18  1  0  0  0  0
  4  9  1  0  0  0  0
  4 18  2  0  0  0  0
  5 20  1  0  0  0  0
  6 22  1  0  0  0  0
  7 10  2  0  0  0  0
  7 21  1  0  0  0  0
  8 25  1  0  0  0  0
  9 25  2  0  0  0  0
 10 26  1  0  0  0  0
 11 12  2  0  0  0  0
 11 27  1  0  0  0  0
 12 28  1  0  0  0  0
 13 23  1  0  0  0  0
 13 26  2  0  0  0  0
 14 28  2  0  0  0  0
 14 29  1  0  0  0  0
 15 24  1  0  0  0  0
 15 66  2  0  0  0  0
 16 24  2  0  0  0  0
 16 70  1  0  0  0  0
 17 67  1  0  0  0  0
 17 68  2  0  0  0  0
 18 30  1  0  0  0  0
 19 30  1  0  0  0  0
 19 31  2  0  0  0  0
 19 33  1  0  0  0  0
 20 22  2  0  0  0  0
 20 38  1  0  0  0  0
 21 23  2  0  0  0  0
 21 39  1  0  0  0  0
 22 47  1  0  0  0  0
 23 40  1  0  0  0  0
 24 58  1  0  0  0  0
 25 86  1  0  0  0  0
 26 87  1  0  0  0  0
 27 29  2  0  0  0  0
 27 86  1  0  0  0  0
 28 88  1  0  0  0  0
 29 89  1  0  0  0  0
 30 69  2  0  0  0  0
 31 71  1  0  0  0  0
 31 75  1  0  0  0  0
 32 58  1  0  0  0  0
 32 67  2  0  0  0  0
 32 72  1  0  0  0  0
 33 76  1  0  0  0  0
 33 81  2  0  0  0  0
 34 48  1  0  0  0  0
 34 77  1  0  0  0  0
 34 82  2  0  0  0  0
 35 62  1  0  0  0  0
 35 73  1  0  0  0  0
 35 83  2  0  0  0  0
 36 63  1  0  0  0  0
 36 78  1  0  0  0  0
 36 84  2  0  0  0  0
 37 74  1  0  0  0  0
 37 79  1  0  0  0  0
 37 85  2  0  0  0  0
 38 41  1  0  0  0  0
 39 48  1  0  0  0  0
 40 73  1  0  0  0  0
 41 43  1  0  0  0  0
 42 44  1  0  0  0  0
 42 45  1  0  0  0  0
 43 47  1  0  0  0  0
 44 49  1  0  0  0  0
 45 74  1  0  0  0  0
 46 49  1  0  0  0  0
 46 74  1  0  0  0  0
 47 77  1  0  0  0  0
 48 73  1  0  0  0  0
 49 71  1  0  0  0  0
 50 59  1  0  0  0  0
 51 63  1  0  0  0  0
 52 64  1  0  0  0  0
 53 64  1  0  0  0  0
 54 64  1  0  0  0  0
 55 65  1  0  0  0  0
 56 79  1  0  0  0  0
 57 80  1  0  0  0  0
 59 65  1  0  0  0  0
 60 65  1  0  0  0  0
 60 87  1  0  0  0  0
 61 70  1  0  0  0  0
 61 79  1  0  0  0  0
 62 64  1  0  0  0  0
 62 78  1  0  0  0  0
 63 80  1  0  0  0  0
 65 72  1  0  0  0  0
 66 70  1  0  0  0  0
 68 72  1  0  0  0  0
 69 71  1  0  0  0  0
M  CHG  1  80   1
M  ISO  4  37 100  60 101  79 100  87 101
M  END
> <Batch ID>
0061

> <Smiles>
CCC(C)(n1ncnc1Cc1cnn(C[100N:0](C)[100C:0](=O)N2CCCC(n3nc(-c4ccc(Oc5ccc(F)cc5F)cc4)c(C(N)=O)c3N)C2)c1)[101CH2:1][101O:1]c1ccc2c(c1)CN(C(=O)C(NC(=O)C(C)NC)C(C)(C)C)C(C(=O)NC1CCCc3ccccc31)C2

> <Shape>
0.217

> <Color>
0.070

> <Negative vol penalty>
0.000

$$$$

  -OEChem-04052317583D

 81 89  0     1  0  0  0  0  0999 V2000
  -19.1517  -29.6100   22.3871 C   0  0  0  0  0  0  0  0  0  0  0  0
  -20.5014  -29.2739   22.3568 C   0  0  0  0  0  0  0  0  0  0  0  0
  -26.7510  -12.4154   20.4386 C   0  0  0  0  0  0  0  0  0  0  0  0
  -25.2009  -14.1212   19.7145 C   0  0  0  0  0  0  0  0  0  0  0  0
  -18.1884  -28.6106   22.5175 C   0  0  0  0  0  0  0  0  0  0  0  0
  -20.8885  -27.9381   22.4581 C   0  0  0  0  0  0  0  0  0  0  0  0
  -24.4717  -26.6942   19.1027 C   0  0  0  0  0  0  0  0  0  0  0  0
  -25.7152  -11.7541   21.0984 C   0  0  0  0  0  0  0  0  0  0  0  0
  -24.1650  -13.4598   20.3742 C   0  0  0  0  0  0  0  0  0  0  0  0
  -25.7779  -27.0871   19.3910 C   0  0  0  0  0  0  0  0  0  0  0  0
  -23.1477   -9.7099   20.2845 C   0  0  0  0  0  0  0  0  0  0  0  0
  -23.0578   -8.3269   20.1276 C   0  0  0  0  0  0  0  0  0  0  0  0
  -26.2665  -24.8611   20.1819 C   0  0  0  0  0  0  0  0  0  0  0  0
  -23.3180   -8.0394   22.5123 C   0  0  0  0  0  0  0  0  0  0  0  0
  -30.8758  -24.6463   17.3744 C   0  0  0  0  0  0  0  0  0  0  0  0
  -26.4939  -13.5990   19.7467 C   0  0  0  0  0  0  0  0  0  0  0  0
  -27.9800  -14.0961   17.7337 C   0  0  0  0  0  0  0  0  0  0  0  0
  -18.5634  -27.2610   22.6107 C   0  0  0  0  0  0  0  0  0  0  0  0
  -24.0492  -25.3825   19.3624 C   0  0  0  0  0  0  0  0  0  0  0  0
  -19.9293  -26.9198   22.5912 C   0  0  0  0  0  0  0  0  0  0  0  0
  -24.9551  -24.4534   19.8936 C   0  0  0  0  0  0  0  0  0  0  0  0
  -24.4222  -12.2763   21.0661 C   0  0  0  0  0  0  0  0  0  0  0  0
  -26.6747  -26.1713   19.9334 C   0  0  0  0  0  0  0  0  0  0  0  0
  -23.3228  -10.2578   21.5554 C   0  0  0  0  0  0  0  0  0  0  0  0
  -23.1430   -7.4916   21.2415 C   0  0  0  0  0  0  0  0  0  0  0  0
  -23.4080   -9.4225   22.6692 C   0  0  0  0  0  0  0  0  0  0  0  0
  -27.5637  -14.2828   19.0655 C   0  0  0  0  0  0  0  0  0  0  0  0
  -31.1635  -24.1667   18.6600 C   0  0  0  0  0  0  0  0  0  0  0  0
  -29.0222  -14.9762   17.5732 C   0  0  0  0  0  0  0  0  0  0  0  0
  -27.4702  -13.2067   16.7314 C   0  0  0  0  0  0  0  0  0  0  0  0
  -21.8440  -24.0655   21.2350 C   0  0  0  0  0  0  0  0  0  0  0  0
  -22.7355  -21.3440   19.7114 C   0  0  0  0  0  0  0  0  0  0  0  0
  -25.1351  -19.6487   17.9751 C   0  0  0  0  0  0  0  0  0  0  0  0
  -30.3297  -20.0594   20.2762 C   0  0  0  0  0  0  0  0  0  0  0  0
  -17.4883  -26.2200   22.7979 C   0  0  0  0  0  0  0  0  0  0  0  0
  -22.6444  -24.9672   19.0209 C   0  0  0  0  0  0  0  0  0  0  0  0
  -24.5570  -23.0278   20.1721 C   0  0  0  0  0  0  0  0  0  0  0  0
  -17.9646  -24.7961   22.5225 C   0  0  0  0  0  0  0  0  0  0  0  0
  -32.4894  -17.1650   20.0420 C   0  0  0  0  0  0  0  0  0  0  0  0
  -19.3022  -24.5385   23.2091 C   0  0  0  0  0  0  0  0  0  0  0  0
  -31.4954  -16.0759   19.6346 C   0  0  0  0  0  0  0  0  0  0  0  0
  -31.8630  -18.1433   21.0312 C   0  0  0  0  0  0  0  0  0  0  0  0
  -29.6073  -17.6922   20.1469 C   0  0  0  0  0  0  0  0  0  0  0  0
  -20.3876  -25.4799   22.6734 C   0  0  1  0  0  0  0  0  0  0  0  0
  -22.1753  -23.7454   19.8047 C   0  0  1  0  0  0  0  0  0  0  0  0
  -30.1733  -16.6842   19.1302 C   0  0  2  0  0  0  0  0  0  0  0  0
  -33.2288  -22.7832   19.0399 C   0  0  0  0  0  0  0  0  0  0  0  0
  -25.5874  -17.4289   16.8956 C   0  0  0  0  0  0  0  0  0  0  0  0
  -23.1895  -20.1019   22.4612 C   0  0  0  0  0  0  0  0  0  0  0  0
  -24.5089  -18.2889   21.3474 C   0  0  0  0  0  0  0  0  0  0  0  0
  -22.0935  -18.5871   20.8004 C   0  0  0  0  0  0  0  0  0  0  0  0
  -25.4725  -20.8843   15.3071 C   0  0  0  0  0  0  0  0  0  0  0  0
  -30.0335  -27.4282   19.3655 C   0  0  0  0  0  0  0  0  0  0  0  0
  -31.1899  -22.3791   20.4661 C   0  0  0  0  0  0  0  0  0  0  0  0
  -28.5167  -27.5792   19.4033 C   0  0  0  0  0  0  0  0  0  1  0  0
  -31.6790  -22.8525   19.0656 C   0  0  1  0  0  0  0  0  0  0  0  0
  -23.7739  -20.2750   19.9523 C   0  0  1  0  0  0  0  0  0  0  0  0
  -25.0689  -18.8437   16.6898 C   0  0  2  0  0  0  0  0  0  0  0  0
  -23.3987  -19.3405   21.1370 C   0  0  0  0  0  0  0  0  0  0  0  0
  -30.4232  -25.9010   17.4497 N   0  0  0  0  0  0  0  0  0  0  0  0
  -28.2828  -15.2087   19.7055 N   0  0  0  0  0  0  0  0  0  0  0  0
  -30.8980  -25.1120   19.5659 N   0  0  0  0  0  0  0  0  0  0  0  0
  -29.1615  -15.6116   18.7719 N   0  0  0  0  0  0  0  0  0  0  0  0
  -30.4644  -26.1073   18.7759 N   0  0  0  0  0  0  0  0  0  0  0  0
  -23.1708  -22.6717   19.8270 N   0  0  0  0  0  0  0  0  0  0  0  0
  -30.6183  -18.7003   20.4829 N   0  0  0  0  0  0  0  0  0  0  0  0
  -29.8239  -15.2607   16.5250 N   0  0  0  0  0  0  0  0  0  0  0  0
  -26.3958  -12.3705   17.0641 N   0  0  0  0  0  0  0  0  0  0  0  0
  -20.8602  -25.0243   21.3836 N   0  0  0  0  0  0  0  0  0  0  0  0
  -23.9515  -19.5843   18.6796 N   0  0  0  0  0  0  0  0  0  0  0  0
  -31.3374  -20.9496   20.6266 N   0  0  0  0  0  0  0  0  0  0  0  0
  -25.8878  -19.4946   15.6283 N   0  3  0  0  0  0  0  0  0  0  0  0
  -27.9638  -13.1432   15.5799 O   0  0  0  0  0  0  0  0  0  0  0  0
  -22.4361  -23.4844   22.1369 O   0  0  0  0  0  0  0  0  0  0  0  0
  -21.5824  -21.0131   19.4241 O   0  0  0  0  0  0  0  0  0  0  0  0
  -26.1378  -20.2693   18.3215 O   0  0  0  0  0  0  0  0  0  0  0  0
  -29.2549  -20.4509   19.8085 O   0  0  0  0  0  0  0  0  0  0  0  0
  -23.4111  -11.6311   21.7096 O   0  0  0  0  0  0  0  0  0  0  0  0
  -27.9501  -26.5524   20.2163 O   0  0  0  0  0  0  0  0  0  1  0  0
  -23.0551   -6.1636   21.0908 F   0  0  0  0  0  0  0  0  0  0  0  0
  -23.5750   -9.9430   23.8927 F   0  0  0  0  0  0  0  0  0  0  0  0
  1  2  1  0  0  0  0
  1  5  2  0  0  0  0
  2  6  2  0  0  0  0
  3  8  2  0  0  0  0
  3 16  1  0  0  0  0
  4  9  1  0  0  0  0
  4 16  2  0  0  0  0
  5 18  1  0  0  0  0
  6 20  1  0  0  0  0
  7 10  2  0  0  0  0
  7 19  1  0  0  0  0
  8 22  1  0  0  0  0
  9 22  2  0  0  0  0
 10 23  1  0  0  0  0
 11 12  2  0  0  0  0
 11 24  1  0  0  0  0
 12 25  1  0  0  0  0
 13 21  1  0  0  0  0
 13 23  2  0  0  0  0
 14 25  2  0  0  0  0
 14 26  1  0  0  0  0
 15 28  1  0  0  0  0
 15 60  2  0  0  0  0
 16 27  1  0  0  0  0
 17 27  1  0  0  0  0
 17 29  2  0  0  0  0
 17 30  1  0  0  0  0
 18 20  2  0  0  0  0
 18 35  1  0  0  0  0
 19 21  2  0  0  0  0
 19 36  1  0  0  0  0
 20 44  1  0  0  0  0
 21 37  1  0  0  0  0
 22 78  1  0  0  0  0
 23 79  1  0  0  0  0
 24 26  2  0  0  0  0
 24 78  1  0  0  0  0
 25 80  1  0  0  0  0
 26 81  1  0  0  0  0
 27 61  2  0  0  0  0
 28 56  1  0  0  0  0
 28 62  2  0  0  0  0
 29 63  1  0  0  0  0
 29 67  1  0  0  0  0
 30 68  1  0  0  0  0
 30 73  2  0  0  0  0
 31 45  1  0  0  0  0
 31 69  1  0  0  0  0
 31 74  2  0  0  0  0
 32 57  1  0  0  0  0
 32 65  1  0  0  0  0
 32 75  2  0  0  0  0
 33 58  1  0  0  0  0
 33 70  1  0  0  0  0
 33 76  2  0  0  0  0
 34 66  1  0  0  0  0
 34 71  1  0  0  0  0
 34 77  2  0  0  0  0
 35 38  1  0  0  0  0
 36 45  1  0  0  0  0
 37 65  1  0  0  0  0
 38 40  1  0  0  0  0
 39 41  1  0  0  0  0
 39 42  1  0  0  0  0
 40 44  1  0  0  0  0
 41 46  1  0  0  0  0
 42 66  1  0  0  0  0
 43 46  1  0  0  0  0
 43 66  1  0  0  0  0
 44 69  1  0  0  0  0
 45 65  1  0  0  0  0
 46 63  1  0  0  0  0
 47 56  1  0  0  0  0
 48 58  1  0  0  0  0
 49 59  1  0  0  0  0
 50 59  1  0  0  0  0
 51 59  1  0  0  0  0
 52 72  1  0  0  0  0
 53 55  1  0  0  0  0
 53 64  1  0  0  0  0
 54 56  1  0  0  0  0
 54 71  1  0  0  0  0
 55 79  1  0  0  0  0
 57 59  1  0  0  0  0
 57 70  1  0  0  0  0
 58 72  1  0  0  0  0
 60 64  1  0  0  0  0
 61 63  1  0  0  0  0
 62 64  1  0  0  0  0
M  CHG  1  72   1
M  ISO  4  34 100  55 101  71 100  79 101
M  END
> <Batch ID>
0061

> <Smiles>
CNC(C)C(=O)NC(C(=O)N1Cc2cc([101O:1][101CH2:1]Cn3ncc(C(C)C[100NH:0][100C:0](=O)N4CCCC(n5nc(-c6ccc(Oc7ccc(F)cc7F)cc6)c(C(N)=O)c5N)C4)n3)ccc2CC1C(=O)NC1CCCc2ccccc21)C(C)(C)C

> <Shape>
0.226

> <Color>
0.097

> <Negative vol penalty>
0.000

$$$$
