
  -OEChem-04052318003D

 86 94  0     1  0  0  0  0  0999 V2000
  -17.1968  -29.6534   24.2352 C   0  0  0  0  0  0  0  0  0  0  0  0
  -18.5546  -29.9283   24.3625 C   0  0  0  0  0  0  0  0  0  0  0  0
  -24.1328  -14.0131   20.9768 C   0  0  0  0  0  0  0  0  0  0  0  0
  -26.5074  -13.6802   21.2729 C   0  0  0  0  0  0  0  0  0  0  0  0
  -16.7762  -28.5562   23.4847 C   0  0  0  0  0  0  0  0  0  0  0  0
  -19.4927  -29.1053   23.7403 C   0  0  0  0  0  0  0  0  0  0  0  0
  -25.9345  -29.3509   20.6162 C   0  0  0  0  0  0  0  0  0  0  0  0
  -23.9961  -12.6836   20.5778 C   0  0  0  0  0  0  0  0  0  0  0  0
  -26.3707  -12.3506   20.8739 C   0  0  0  0  0  0  0  0  0  0  0  0
  -27.1833  -28.7337   20.6731 C   0  0  0  0  0  0  0  0  0  0  0  0
  -22.9650   -9.2793   19.8277 C   0  0  0  0  0  0  0  0  0  0  0  0
  -21.9059   -8.5469   20.3638 C   0  0  0  0  0  0  0  0  0  0  0  0
  -26.3374  -26.9124   19.3365 C   0  0  0  0  0  0  0  0  0  0  0  0
  -22.7796   -8.9107   22.5868 C   0  0  0  0  0  0  0  0  0  0  0  0
  -31.4766  -26.3083   21.8969 C   0  0  0  0  0  0  0  0  0  0  0  0
  -25.3884  -14.5115   21.3243 C   0  0  0  0  0  0  0  0  0  0  0  0
  -25.4386  -16.3937   23.0454 C   0  0  0  0  0  0  0  0  0  0  0  0
  -17.7092  -27.7250   22.8451 C   0  0  0  0  0  0  0  0  0  0  0  0
  -24.8729  -28.7471   19.9271 C   0  0  0  0  0  0  0  0  0  0  0  0
  -19.0843  -27.9952   22.9817 C   0  0  0  0  0  0  0  0  0  0  0  0
  -25.0768  -27.5251   19.2703 C   0  0  0  0  0  0  0  0  0  0  0  0
  -25.1150  -11.8523   20.5264 C   0  0  0  0  0  0  0  0  0  0  0  0
  -27.3842  -27.5129   20.0356 C   0  0  0  0  0  0  0  0  0  0  0  0
  -23.9315   -9.8273   20.6711 C   0  0  0  0  0  0  0  0  0  0  0  0
  -21.8132   -8.3626   21.7433 C   0  0  0  0  0  0  0  0  0  0  0  0
  -23.8388   -9.6430   22.0506 C   0  0  0  0  0  0  0  0  0  0  0  0
  -25.5304  -15.8849   21.7360 C   0  0  0  0  0  0  0  0  0  0  0  0
  -32.6345  -25.5765   21.7298 C   0  0  0  0  0  0  0  0  0  0  0  0
  -30.8929  -26.7755   20.7371 C   0  0  0  0  0  0  0  0  0  0  0  0
  -25.6464  -17.7441   22.9044 C   0  0  0  0  0  0  0  0  0  0  0  0
  -32.5254  -25.8247   19.4729 C   0  0  0  0  0  0  0  0  0  0  0  0
  -25.1881  -15.7071   24.2788 C   0  0  0  0  0  0  0  0  0  0  0  0
  -22.0042  -27.6485   20.7442 C   0  0  0  0  0  0  0  0  0  0  0  0
  -21.6761  -27.2470   17.5421 C   0  0  0  0  0  0  0  0  0  0  0  0
  -23.1767  -26.8153   14.5075 C   0  0  0  0  0  0  0  0  0  0  0  0
  -28.5445  -20.9583   19.0473 C   0  0  0  0  0  0  0  0  0  0  0  0
  -17.2087  -26.5232   22.0837 C   0  0  0  0  0  0  0  0  0  0  0  0
  -23.5393  -29.4387   19.8526 C   0  0  0  0  0  0  0  0  0  0  0  0
  -23.9753  -26.8454   18.5001 C   0  0  0  0  0  0  0  0  0  0  0  0
  -18.2511  -25.9184   21.1467 C   0  0  0  0  0  0  0  0  0  0  0  0
  -25.1093  -21.3191   19.7831 C   0  0  0  0  0  0  0  0  0  0  0  0
  -19.5913  -25.7743   21.8608 C   0  0  0  0  0  0  0  0  0  0  0  0
  -24.8121  -19.9998   20.4946 C   0  0  0  0  0  0  0  0  0  0  0  0
  -26.0532  -21.1307   18.5940 C   0  0  0  0  0  0  0  0  0  0  0  0
  -27.0128  -19.1067   19.6455 C   0  0  0  0  0  0  0  0  0  0  0  0
  -20.1313  -27.1403   22.3013 C   0  0  1  0  0  0  0  0  0  0  0  0
  -22.3869  -28.4841   19.5555 C   0  0  1  0  0  0  0  0  0  0  0  0
  -26.1144  -19.2772   20.8802 C   0  0  2  0  0  0  0  0  0  0  0  0
  -33.3374  -25.0288   22.9265 C   0  0  0  0  0  0  0  0  0  0  0  0
  -22.6466  -26.4790   12.0779 C   0  0  0  0  0  0  0  0  0  0  0  0
  -20.9337  -24.3422   18.1087 C   0  0  0  0  0  0  0  0  0  0  0  0
  -21.3472  -23.8379   15.6915 C   0  0  0  0  0  0  0  0  0  0  0  0
  -19.5532  -25.4457   16.3392 C   0  0  0  0  0  0  0  0  0  0  0  0
  -28.2162  -22.1178   16.8218 C   0  0  0  0  0  0  0  0  0  0  0  0
  -24.5705  -29.3103   13.7386 C   0  0  0  0  0  0  0  0  0  0  0  0
  -33.7260  -22.4576   17.8102 C   0  0  0  0  0  0  0  0  0  0  0  0
  -29.6291  -27.5802   20.8179 C   0  0  0  0  0  0  0  0  0  1  0  0
  -33.1053  -25.5534   18.1261 C   0  0  0  0  0  0  0  0  0  0  0  0
  -29.9921  -22.8376   18.3756 C   0  0  0  0  0  0  0  0  0  0  0  0
  -32.3604  -24.4830   17.3270 C   0  0  0  0  0  0  0  0  0  0  0  0
  -31.2431  -22.2914   17.7131 C   0  0  0  0  0  0  0  0  0  0  0  0
  -21.9754  -26.1331   16.5681 C   0  0  1  0  0  0  0  0  0  0  0  0
  -22.9538  -27.4938   13.1680 C   0  0  2  0  0  0  0  0  0  0  0  0
  -20.9728  -24.9513   16.6929 C   0  0  0  0  0  0  0  0  0  0  0  0
  -25.7770  -16.8347   20.8298 N   0  0  0  0  0  0  0  0  0  0  0  0
  -33.1888  -25.3146   20.5279 N   0  0  0  0  0  0  0  0  0  0  0  0
  -31.3922  -26.5518   19.5038 N   0  0  0  0  0  0  0  0  0  0  0  0
  -25.8420  -17.9539   21.5710 N   0  0  0  0  0  0  0  0  0  0  0  0
  -22.6877  -27.5581   18.4617 N   0  0  0  0  0  0  0  0  0  0  0  0
  -27.2606  -20.3958   18.9952 N   0  0  0  0  0  0  0  0  0  0  0  0
  -25.6789  -18.7606   23.7921 N   0  0  0  0  0  0  0  0  0  0  0  0
  -24.9971  -14.3191   24.2440 N   0  0  0  0  0  0  0  0  0  0  0  0
  -20.7058  -27.8438   21.1746 N   0  0  0  0  0  0  0  0  0  0  0  0
  -22.0138  -26.7470   15.2452 N   0  0  0  0  0  0  0  0  0  0  0  0
  -28.8301  -21.9916   18.1422 N   0  0  0  0  0  0  0  0  0  0  0  0
  -24.1673  -28.2608   12.7676 N   0  3  0  0  0  0  0  0  0  0  0  0
  -32.4200  -23.1798   18.0338 N   0  3  1  0  0  0  0  0  0  0  0  0
  -25.1189  -16.3090   25.3772 O   0  0  0  0  0  0  0  0  0  0  0  0
  -22.8257  -26.8822   21.2337 O   0  0  0  0  0  0  0  0  0  0  0  0
  -20.5877  -27.8246   17.4843 O   0  0  0  0  0  0  0  0  0  0  0  0
  -24.2720  -26.3853   14.8623 O   0  0  0  0  0  0  0  0  0  0  0  0
  -29.3932  -20.5548   19.8528 O   0  0  0  0  0  0  0  0  0  0  0  0
  -24.9820  -10.5548   20.1373 O   0  0  0  0  0  0  0  0  0  0  0  0
  -28.6020  -26.9080   20.0901 O   0  0  0  0  0  0  0  0  0  1  0  0
  -20.7952   -7.6606   22.2582 F   0  0  0  0  0  0  0  0  0  0  0  0
  -24.7636  -10.1681   22.8659 F   0  0  0  0  0  0  0  0  0  0  0  0
  1  2  1  0  0  0  0
  1  5  2  0  0  0  0
  2  6  2  0  0  0  0
  3  8  2  0  0  0  0
  3 16  1  0  0  0  0
  4  9  1  0  0  0  0
  4 16  2  0  0  0  0
  5 18  1  0  0  0  0
  6 20  1  0  0  0  0
  7 10  2  0  0  0  0
  7 19  1  0  0  0  0
  8 22  1  0  0  0  0
  9 22  2  0  0  0  0
 10 23  1  0  0  0  0
 11 12  2  0  0  0  0
 11 24  1  0  0  0  0
 12 25  1  0  0  0  0
 13 21  1  0  0  0  0
 13 23  2  0  0  0  0
 14 25  2  0  0  0  0
 14 26  1  0  0  0  0
 15 28  2  0  0  0  0
 15 29  1  0  0  0  0
 16 27  1  0  0  0  0
 17 27  1  0  0  0  0
 17 30  2  0  0  0  0
 17 32  1  0  0  0  0
 18 20  2  0  0  0  0
 18 37  1  0  0  0  0
 19 21  2  0  0  0  0
 19 38  1  0  0  0  0
 20 46  1  0  0  0  0
 21 39  1  0  0  0  0
 22 83  1  0  0  0  0
 23 84  1  0  0  0  0
 24 26  2  0  0  0  0
 24 83  1  0  0  0  0
 25 85  1  0  0  0  0
 26 86  1  0  0  0  0
 27 65  2  0  0  0  0
 28 49  1  0  0  0  0
 28 66  1  0  0  0  0
 29 57  1  0  0  0  0
 29 67  2  0  0  0  0
 30 68  1  0  0  0  0
 30 71  1  0  0  0  0
 31 58  1  0  0  0  0
 31 66  2  0  0  0  0
 31 67  1  0  0  0  0
 32 72  1  0  0  0  0
 32 78  2  0  0  0  0
 33 47  1  0  0  0  0
 33 73  1  0  0  0  0
 33 79  2  0  0  0  0
 34 62  1  0  0  0  0
 34 69  1  0  0  0  0
 34 80  2  0  0  0  0
 35 63  1  0  0  0  0
 35 74  1  0  0  0  0
 35 81  2  0  0  0  0
 36 70  1  0  0  0  0
 36 75  1  0  0  0  0
 36 82  2  0  0  0  0
 37 40  1  0  0  0  0
 38 47  1  0  0  0  0
 39 69  1  0  0  0  0
 40 42  1  0  0  0  0
 41 43  1  0  0  0  0
 41 44  1  0  0  0  0
 42 46  1  0  0  0  0
 43 48  1  0  0  0  0
 44 70  1  0  0  0  0
 45 48  1  0  0  0  0
 45 70  1  0  0  0  0
 46 73  1  0  0  0  0
 47 69  1  0  0  0  0
 48 68  1  0  0  0  0
 50 63  1  0  0  0  0
 51 64  1  0  0  0  0
 52 64  1  0  0  0  0
 53 64  1  0  0  0  0
 54 75  1  0  0  0  0
 55 76  1  0  0  0  0
 56 77  1  0  0  0  0
 57 84  1  0  0  0  0
 58 60  1  0  0  0  0
 59 61  1  0  0  0  0
 59 75  1  0  0  0  0
 60 77  1  0  0  0  0
 61 77  1  0  0  0  0
 62 64  1  0  0  0  0
 62 74  1  0  0  0  0
 63 76  1  0  0  0  0
 65 68  1  0  0  0  0
M  CHG  2  76   1  77   1
M  ISO  4  36 100  57 101  75 100  84 101
M  END
> <Batch ID>
0062

> <Smiles>
CNC(C)C(=O)NC(C(=O)N1Cc2cc([101O:1][101CH2:1]c3cc(C)nc(CCN(C)CC[100N:0](C)[100C:0](=O)N4CCCC(n5nc(-c6ccc(Oc7ccc(F)cc7F)cc6)c(C(N)=O)c5N)C4)n3)ccc2CC1C(=O)NC1CCCc2ccccc21)C(C)(C)C

> <Shape>
0.248

> <Color>
0.111

> <Negative vol penalty>
0.000

$$$$

  -OEChem-04052318003D

 83 91  0     1  0  0  0  0  0999 V2000
  -21.5378  -11.9497   19.6211 C   0  0  0  0  0  0  0  0  0  0  0  0
  -21.3599  -13.2659   20.0349 C   0  0  0  0  0  0  0  0  0  0  0  0
  -23.9584  -25.4275   19.7124 C   0  0  0  0  0  0  0  0  0  0  0  0
  -24.0611  -27.3727   21.1415 C   0  0  0  0  0  0  0  0  0  0  0  0
  -22.7875  -11.3441   19.7449 C   0  0  0  0  0  0  0  0  0  0  0  0
  -22.4315  -13.9771   20.5736 C   0  0  0  0  0  0  0  0  0  0  0  0
  -23.5643  -19.9630   19.9476 C   0  0  0  0  0  0  0  0  0  0  0  0
  -22.5711  -25.5530   19.6411 C   0  0  0  0  0  0  0  0  0  0  0  0
  -22.6737  -27.4984   21.0702 C   0  0  0  0  0  0  0  0  0  0  0  0
  -23.3161  -21.0563   20.7763 C   0  0  0  0  0  0  0  0  0  0  0  0
  -19.9651  -26.0488   22.4820 C   0  0  0  0  0  0  0  0  0  0  0  0
  -19.2750  -26.2967   23.6685 C   0  0  0  0  0  0  0  0  0  0  0  0
  -25.5643  -20.9062   21.6377 C   0  0  0  0  0  0  0  0  0  0  0  0
  -18.4343  -28.3659   22.7472 C   0  0  0  0  0  0  0  0  0  0  0  0
  -27.0757  -24.1200   26.4706 C   0  0  0  0  0  0  0  0  0  0  0  0
  -24.7034  -26.3373   20.4627 C   0  0  0  0  0  0  0  0  0  0  0  0
  -27.0884  -26.7889   19.6781 C   0  0  0  0  0  0  0  0  0  0  0  0
  -23.8774  -12.0513   20.2765 C   0  0  0  0  0  0  0  0  0  0  0  0
  -24.8131  -19.3252   19.9656 C   0  0  0  0  0  0  0  0  0  0  0  0
  -23.6967  -13.3800   20.7058 C   0  0  0  0  0  0  0  0  0  0  0  0
  -25.8267  -19.8066   20.8063 C   0  0  0  0  0  0  0  0  0  0  0  0
  -21.9287  -26.5885   20.3200 C   0  0  0  0  0  0  0  0  0  0  0  0
  -24.3152  -21.5263   21.6236 C   0  0  0  0  0  0  0  0  0  0  0  0
  -19.8899  -26.9594   21.4281 C   0  0  0  0  0  0  0  0  0  0  0  0
  -18.5096  -27.4552   23.8011 C   0  0  0  0  0  0  0  0  0  0  0  0
  -19.1244  -28.1179   21.5606 C   0  0  0  0  0  0  0  0  0  0  0  0
  -26.1365  -26.2077   20.5372 C   0  0  0  0  0  0  0  0  0  0  0  0
  -25.7951  -24.4045   26.0676 C   0  0  0  0  0  0  0  0  0  0  0  0
  -28.2988  -26.3648   20.1697 C   0  0  0  0  0  0  0  0  0  0  0  0
  -26.8958  -27.6363   18.5377 C   0  0  0  0  0  0  0  0  0  0  0  0
  -25.8271  -16.3989   20.6813 C   0  0  0  0  0  0  0  0  0  0  0  0
  -28.6668  -17.5423   19.6084 C   0  0  0  0  0  0  0  0  0  0  0  0
  -29.9927  -24.5468   25.6412 C   0  0  0  0  0  0  0  0  0  0  0  0
  -30.6637  -20.2454   19.0149 C   0  0  0  0  0  0  0  0  0  0  0  0
  -25.1975  -11.3392   20.4342 C   0  0  0  0  0  0  0  0  0  0  0  0
  -25.0736  -18.1637   19.0462 C   0  0  0  0  0  0  0  0  0  0  0  0
  -27.1910  -19.1699   20.8487 C   0  0  0  0  0  0  0  0  0  0  0  0
  -26.3743  -12.2828   20.6689 C   0  0  0  0  0  0  0  0  0  0  0  0
  -30.3231  -22.7554   22.5555 C   0  0  0  0  0  0  0  0  0  0  0  0
  -26.0209  -13.3243   21.7259 C   0  0  0  0  0  0  0  0  0  0  0  0
  -29.3524  -23.4726   21.6183 C   0  0  0  0  0  0  0  0  0  0  0  0
  -29.7949  -22.7203   23.9862 C   0  0  0  0  0  0  0  0  0  0  0  0
  -28.4850  -24.7846   23.6061 C   0  0  0  0  0  0  0  0  0  0  0  0
  -24.8410  -14.1923   21.2723 C   0  0  1  0  0  0  0  0  0  0  0  0
  -26.2157  -17.2705   19.5207 C   0  0  1  0  0  0  0  0  0  0  0  0
  -28.9947  -24.8693   22.1565 C   0  0  2  0  0  0  0  0  0  0  0  0
  -32.9448  -20.8618   18.1700 C   0  0  0  0  0  0  0  0  0  0  0  0
  -24.7993  -22.1061   26.7123 C   0  0  0  0  0  0  0  0  0  0  0  0
  -23.4972  -24.1898   27.0398 C   0  0  0  0  0  0  0  0  0  0  0  0
  -29.4828  -25.3768   27.9158 C   0  0  0  0  0  0  0  0  0  0  0  0
  -29.6257  -26.9271   25.9662 C   0  0  0  0  0  0  0  0  0  0  0  0
  -29.8886  -16.6360   22.2534 C   0  0  0  0  0  0  0  0  0  0  0  0
  -31.8652  -18.0910   21.7587 C   0  0  0  0  0  0  0  0  0  0  0  0
  -31.3068  -16.1907   20.2422 C   0  0  0  0  0  0  0  0  0  0  0  0
  -29.5364  -21.8262   16.7812 C   0  0  0  0  0  0  0  0  0  0  0  0
  -23.9074  -23.3490   24.7045 C   0  0  0  0  0  0  0  0  0  0  0  0
  -24.7829  -22.6399   23.6723 C   0  0  0  0  0  0  0  0  0  1  0  0
  -29.8411  -18.2507   20.2393 C   0  0  1  0  0  0  0  0  0  0  0  0
  -31.4854  -20.6439   17.8023 C   0  0  2  0  0  0  0  0  0  0  0  0
  -24.5420  -23.5118   26.1186 C   0  0  0  0  0  0  0  0  0  0  0  0
  -29.1567  -25.5313   26.4195 C   0  0  0  0  0  0  0  0  0  0  0  0
  -30.6992  -17.3031   21.1242 C   0  0  0  0  0  0  0  0  0  0  0  0
  -26.6942  -25.4706   21.5013 N   0  0  0  0  0  0  0  0  0  0  0  0
  -25.7410  -25.6788   25.5749 N   0  0  0  0  0  0  0  0  0  0  0  0
  -26.9598  -26.2009   25.6585 N   0  0  0  0  0  0  0  0  0  0  0  0
  -27.7586  -25.2646   26.1957 N   0  0  0  0  0  0  0  0  0  0  0  0
  -28.0095  -25.5856   21.2511 N   0  0  0  0  0  0  0  0  0  0  0  0
  -27.3949  -18.0332   19.9355 N   0  0  0  0  0  0  0  0  0  0  0  0
  -29.4455  -24.0633   24.4526 N   0  0  0  0  0  0  0  0  0  0  0  0
  -29.5716  -26.5862   19.7782 N   0  0  0  0  0  0  0  0  0  0  0  0
  -25.5862  -27.9744   18.1702 N   0  0  0  0  0  0  0  0  0  0  0  0
  -25.2816  -15.1835   20.3143 N   0  0  0  0  0  0  0  0  0  0  0  0
  -30.5767  -18.8755   19.1452 N   0  0  0  0  0  0  0  0  0  0  0  0
  -30.9566  -21.9051   17.2100 N   0  3  0  0  0  0  0  0  0  0  0  0
  -27.8557  -28.0670   17.8547 O   0  0  0  0  0  0  0  0  0  0  0  0
  -26.0101  -16.7988   21.8251 O   0  0  0  0  0  0  0  0  0  0  0  0
  -28.8708  -16.5929   18.8476 O   0  0  0  0  0  0  0  0  0  0  0  0
  -31.1000  -24.2207   26.0767 O   0  0  0  0  0  0  0  0  0  0  0  0
  -30.1534  -21.0672   19.7730 O   0  0  0  0  0  0  0  0  0  0  0  0
  -20.5750  -26.7115   20.2504 O   0  0  0  0  0  0  0  0  0  0  0  0
  -24.0753  -22.5929   22.4340 O   0  0  0  0  0  0  0  0  0  1  0  0
  -17.8457  -27.6924   24.9400 F   0  0  0  0  0  0  0  0  0  0  0  0
  -19.0473  -28.9959   20.5511 F   0  0  0  0  0  0  0  0  0  0  0  0
  1  2  1  0  0  0  0
  1  5  2  0  0  0  0
  2  6  2  0  0  0  0
  3  8  2  0  0  0  0
  3 16  1  0  0  0  0
  4  9  1  0  0  0  0
  4 16  2  0  0  0  0
  5 18  1  0  0  0  0
  6 20  1  0  0  0  0
  7 10  2  0  0  0  0
  7 19  1  0  0  0  0
  8 22  1  0  0  0  0
  9 22  2  0  0  0  0
 10 23  1  0  0  0  0
 11 12  2  0  0  0  0
 11 24  1  0  0  0  0
 12 25  1  0  0  0  0
 13 21  1  0  0  0  0
 13 23  2  0  0  0  0
 14 25  2  0  0  0  0
 14 26  1  0  0  0  0
 15 28  2  0  0  0  0
 15 66  1  0  0  0  0
 16 27  1  0  0  0  0
 17 27  1  0  0  0  0
 17 29  2  0  0  0  0
 17 30  1  0  0  0  0
 18 20  2  0  0  0  0
 18 35  1  0  0  0  0
 19 21  2  0  0  0  0
 19 36  1  0  0  0  0
 20 44  1  0  0  0  0
 21 37  1  0  0  0  0
 22 80  1  0  0  0  0
 23 81  1  0  0  0  0
 24 26  2  0  0  0  0
 24 80  1  0  0  0  0
 25 82  1  0  0  0  0
 26 83  1  0  0  0  0
 27 63  2  0  0  0  0
 28 60  1  0  0  0  0
 28 64  1  0  0  0  0
 29 67  1  0  0  0  0
 29 70  1  0  0  0  0
 30 71  1  0  0  0  0
 30 75  2  0  0  0  0
 31 45  1  0  0  0  0
 31 72  1  0  0  0  0
 31 76  2  0  0  0  0
 32 58  1  0  0  0  0
 32 68  1  0  0  0  0
 32 77  2  0  0  0  0
 33 61  1  0  0  0  0
 33 69  1  0  0  0  0
 33 78  2  0  0  0  0
 34 59  1  0  0  0  0
 34 73  1  0  0  0  0
 34 79  2  0  0  0  0
 35 38  1  0  0  0  0
 36 45  1  0  0  0  0
 37 68  1  0  0  0  0
 38 40  1  0  0  0  0
 39 41  1  0  0  0  0
 39 42  1  0  0  0  0
 40 44  1  0  0  0  0
 41 46  1  0  0  0  0
 42 69  1  0  0  0  0
 43 46  1  0  0  0  0
 43 69  1  0  0  0  0
 44 72  1  0  0  0  0
 45 68  1  0  0  0  0
 46 67  1  0  0  0  0
 47 59  1  0  0  0  0
 48 60  1  0  0  0  0
 49 60  1  0  0  0  0
 50 61  1  0  0  0  0
 51 61  1  0  0  0  0
 52 62  1  0  0  0  0
 53 62  1  0  0  0  0
 54 62  1  0  0  0  0
 55 74  1  0  0  0  0
 56 57  1  0  0  0  0
 56 60  1  0  0  0  0
 57 81  1  0  0  0  0
 58 62  1  0  0  0  0
 58 73  1  0  0  0  0
 59 74  1  0  0  0  0
 61 66  1  0  0  0  0
 63 67  1  0  0  0  0
 64 65  2  0  0  0  0
 65 66  1  0  0  0  0
M  CHG  1  74   1
M  ISO  4  33 100  57 101  61 100  81 101
M  END
> <Batch ID>
0062

> <Smiles>
CNC(C)C(=O)NC(C(=O)N1Cc2cc([101O:1][101CH2:1]CC(C)(C)c3cn([100C:0](C)(C)[100C:0](=O)N4CCCC(n5nc(-c6ccc(Oc7ccc(F)cc7F)cc6)c(C(N)=O)c5N)C4)nn3)ccc2CC1C(=O)NC1CCCc2ccccc21)C(C)(C)C

> <Shape>
0.174

> <Color>
0.061

> <Negative vol penalty>
0.000

$$$$

  -OEChem-04052318003D

 84 92  0     1  0  0  0  0  0999 V2000
  -22.1268  -11.3327   19.5222 C   0  0  0  0  0  0  0  0  0  0  0  0
  -21.7199  -12.6417   19.7595 C   0  0  0  0  0  0  0  0  0  0  0  0
  -31.4391  -25.9260   19.2764 C   0  0  0  0  0  0  0  0  0  0  0  0
  -31.2231  -28.2977   18.8696 C   0  0  0  0  0  0  0  0  0  0  0  0
  -23.4303  -10.9430   19.8270 C   0  0  0  0  0  0  0  0  0  0  0  0
  -22.6161  -13.5616   20.3028 C   0  0  0  0  0  0  0  0  0  0  0  0
  -22.9404  -19.5524   19.0738 C   0  0  0  0  0  0  0  0  0  0  0  0
  -32.4566  -25.8555   18.3249 C   0  0  0  0  0  0  0  0  0  0  0  0
  -32.2406  -28.2272   17.9181 C   0  0  0  0  0  0  0  0  0  0  0  0
  -22.4524  -20.6747   19.7417 C   0  0  0  0  0  0  0  0  0  0  0  0
  -34.8655  -24.9852   15.7436 C   0  0  0  0  0  0  0  0  0  0  0  0
  -34.8266  -23.9346   14.8268 C   0  0  0  0  0  0  0  0  0  0  0  0
  -24.5958  -20.9631   20.8103 C   0  0  0  0  0  0  0  0  0  0  0  0
  -32.6764  -24.7033   14.0374 C   0  0  0  0  0  0  0  0  0  0  0  0
  -23.1575  -24.8967   24.0049 C   0  0  0  0  0  0  0  0  0  0  0  0
  -30.8223  -27.1471   19.5487 C   0  0  0  0  0  0  0  0  0  0  0  0
  -29.9110  -27.4699   21.9094 C   0  0  0  0  0  0  0  0  0  0  0  0
  -24.3458  -11.8611   20.3653 C   0  0  0  0  0  0  0  0  0  0  0  0
  -24.2586  -19.1199   19.2778 C   0  0  0  0  0  0  0  0  0  0  0  0
  -23.9327  -13.1835   20.6163 C   0  0  0  0  0  0  0  0  0  0  0  0
  -25.0988  -19.8365   20.1418 C   0  0  0  0  0  0  0  0  0  0  0  0
  -32.8574  -27.0060   17.6458 C   0  0  0  0  0  0  0  0  0  0  0  0
  -23.2793  -21.3786   20.6124 C   0  0  0  0  0  0  0  0  0  0  0  0
  -33.8099  -25.8947   15.8073 C   0  0  0  0  0  0  0  0  0  0  0  0
  -33.7320  -23.7937   13.9737 C   0  0  0  0  0  0  0  0  0  0  0  0
  -32.7154  -25.7538   14.9542 C   0  0  0  0  0  0  0  0  0  0  0  0
  -29.7707  -27.2205   20.5310 C   0  0  0  0  0  0  0  0  0  0  0  0
  -22.9949  -24.3013   22.7859 C   0  0  0  0  0  0  0  0  0  0  0  0
  -28.6272  -27.4374   22.3966 C   0  0  0  0  0  0  0  0  0  0  0  0
  -21.5243  -25.9484   22.9432 C   0  0  0  0  0  0  0  0  0  0  0  0
  -31.0958  -27.7096   22.6805 C   0  0  0  0  0  0  0  0  0  0  0  0
  -25.5999  -16.4752   20.4224 C   0  0  0  0  0  0  0  0  0  0  0  0
  -28.3437  -17.9243   19.4769 C   0  0  0  0  0  0  0  0  0  0  0  0
  -29.9846  -20.8260   18.7460 C   0  0  0  0  0  0  0  0  0  0  0  0
  -23.2861  -28.4656   21.9123 C   0  0  0  0  0  0  0  0  0  0  0  0
  -25.7302  -11.3811   20.7226 C   0  0  0  0  0  0  0  0  0  0  0  0
  -24.7779  -17.9231   18.5293 C   0  0  0  0  0  0  0  0  0  0  0  0
  -26.5281  -19.4253   20.3799 C   0  0  0  0  0  0  0  0  0  0  0  0
  -26.7286  -12.5138   20.9468 C   0  0  0  0  0  0  0  0  0  0  0  0
  -25.0649  -26.7165   19.1059 C   0  0  0  0  0  0  0  0  0  0  0  0
  -26.1207  -13.5928   21.8374 C   0  0  0  0  0  0  0  0  0  0  0  0
  -25.8018  -26.0346   20.2588 C   0  0  0  0  0  0  0  0  0  0  0  0
  -23.9155  -27.5989   19.6061 C   0  0  0  0  0  0  0  0  0  0  0  0
  -25.6442  -28.4195   21.1726 C   0  0  0  0  0  0  0  0  0  0  0  0
  -24.8830  -14.2168   21.1815 C   0  0  1  0  0  0  0  0  0  0  0  0
  -25.9797  -17.2707   19.2056 C   0  0  1  0  0  0  0  0  0  0  0  0
  -26.3148  -27.0419   21.3151 C   0  0  2  0  0  0  0  0  0  0  0  0
  -21.3124  -26.1472   26.3487 C   0  0  0  0  0  0  0  0  0  0  0  0
  -32.2302  -21.6949   18.0391 C   0  0  0  0  0  0  0  0  0  0  0  0
  -19.1869  -26.8642   23.5711 C   0  0  0  0  0  0  0  0  0  0  0  0
  -19.8347  -26.5686   21.1944 C   0  0  0  0  0  0  0  0  0  0  0  0
  -29.3976  -17.4973   22.3084 C   0  0  0  0  0  0  0  0  0  0  0  0
  -31.1866  -19.1797   21.8215 C   0  0  0  0  0  0  0  0  0  0  0  0
  -31.0685  -17.0687   20.4977 C   0  0  0  0  0  0  0  0  0  0  0  0
  -21.4781  -29.1892   20.2919 C   0  0  0  0  0  0  0  0  0  0  0  0
  -28.8841  -21.9732   16.2496 C   0  0  0  0  0  0  0  0  0  0  0  0
  -23.7072  -23.1475   22.1433 C   0  0  0  0  0  0  0  0  0  1  0  0
  -22.0630  -26.8056   25.2039 C   0  0  0  0  0  0  0  0  0  0  0  0
  -20.9074  -28.3896   22.5537 C   0  0  0  0  0  0  0  0  0  0  0  0
  -29.3317  -18.8669   20.1207 C   0  0  1  0  0  0  0  0  0  0  0  0
  -30.8638  -21.2179   17.5721 C   0  0  2  0  0  0  0  0  0  0  0  0
  -20.4284  -26.8913   22.6076 C   0  0  0  0  0  0  0  0  0  0  0  0
  -30.2186  -18.1600   21.1843 C   0  0  0  0  0  0  0  0  0  0  0  0
  -28.4983  -27.0425   20.1661 N   0  0  0  0  0  0  0  0  0  0  0  0
  -22.2350  -25.9127   24.0751 N   0  0  0  0  0  0  0  0  0  0  0  0
  -27.8273  -27.1801   21.3223 N   0  0  0  0  0  0  0  0  0  0  0  0
  -21.9778  -24.9720   22.1505 N   0  3  0  0  0  0  0  0  0  0  0  0
  -26.9874  -18.2448   19.6297 N   0  0  0  0  0  0  0  0  0  0  0  0
  -24.2201  -28.2619   20.8825 N   0  0  0  0  0  0  0  0  0  0  0  0
  -28.1159  -27.6039   23.6348 N   0  0  0  0  0  0  0  0  0  0  0  0
  -32.3330  -27.7086   22.0220 N   0  0  0  0  0  0  0  0  0  0  0  0
  -25.2756  -15.1588   20.1554 N   0  0  0  0  0  0  0  0  0  0  0  0
  -30.0813  -19.4801   19.0297 N   0  0  0  0  0  0  0  0  0  0  0  0
  -21.9392  -28.6089   21.5493 N   0  0  0  0  0  0  0  0  0  0  0  0
  -30.2253  -22.3140   16.7900 N   0  3  0  0  0  0  0  0  0  0  0  0
  -31.0598  -27.9022   23.9195 O   0  0  0  0  0  0  0  0  0  0  0  0
  -25.6024  -17.0154   21.5224 O   0  0  0  0  0  0  0  0  0  0  0  0
  -28.7604  -16.9437   18.8552 O   0  0  0  0  0  0  0  0  0  0  0  0
  -29.2850  -21.6338   19.3531 O   0  0  0  0  0  0  0  0  0  0  0  0
  -23.6360  -28.5015   23.0995 O   0  0  0  0  0  0  0  0  0  0  0  0
  -33.8504  -26.9376   16.7175 O   0  0  0  0  0  0  0  0  0  0  0  0
  -22.8054  -22.4740   21.2661 O   0  0  0  0  0  0  0  0  0  1  0  0
  -33.6955  -22.7857   13.0923 F   0  0  0  0  0  0  0  0  0  0  0  0
  -31.6988  -26.6252   15.0100 F   0  0  0  0  0  0  0  0  0  0  0  0
  1  2  1  0  0  0  0
  1  5  2  0  0  0  0
  2  6  2  0  0  0  0
  3  8  2  0  0  0  0
  3 16  1  0  0  0  0
  4  9  1  0  0  0  0
  4 16  2  0  0  0  0
  5 18  1  0  0  0  0
  6 20  1  0  0  0  0
  7 10  2  0  0  0  0
  7 19  1  0  0  0  0
  8 22  1  0  0  0  0
  9 22  2  0  0  0  0
 10 23  1  0  0  0  0
 11 12  2  0  0  0  0
 11 24  1  0  0  0  0
 12 25  1  0  0  0  0
 13 21  1  0  0  0  0
 13 23  2  0  0  0  0
 14 25  2  0  0  0  0
 14 26  1  0  0  0  0
 15 28  2  0  0  0  0
 15 65  1  0  0  0  0
 16 27  1  0  0  0  0
 17 27  1  0  0  0  0
 17 29  2  0  0  0  0
 17 31  1  0  0  0  0
 18 20  2  0  0  0  0
 18 36  1  0  0  0  0
 19 21  2  0  0  0  0
 19 37  1  0  0  0  0
 20 45  1  0  0  0  0
 21 38  1  0  0  0  0
 22 81  1  0  0  0  0
 23 82  1  0  0  0  0
 24 26  2  0  0  0  0
 24 81  1  0  0  0  0
 25 83  1  0  0  0  0
 26 84  1  0  0  0  0
 27 64  2  0  0  0  0
 28 57  1  0  0  0  0
 28 67  1  0  0  0  0
 29 66  1  0  0  0  0
 29 70  1  0  0  0  0
 30 62  1  0  0  0  0
 30 65  1  0  0  0  0
 30 67  2  0  0  0  0
 31 71  1  0  0  0  0
 31 76  2  0  0  0  0
 32 46  1  0  0  0  0
 32 72  1  0  0  0  0
 32 77  2  0  0  0  0
 33 60  1  0  0  0  0
 33 68  1  0  0  0  0
 33 78  2  0  0  0  0
 34 61  1  0  0  0  0
 34 73  1  0  0  0  0
 34 79  2  0  0  0  0
 35 69  1  0  0  0  0
 35 74  1  0  0  0  0
 35 80  2  0  0  0  0
 36 39  1  0  0  0  0
 37 46  1  0  0  0  0
 38 68  1  0  0  0  0
 39 41  1  0  0  0  0
 40 42  1  0  0  0  0
 40 43  1  0  0  0  0
 41 45  1  0  0  0  0
 42 47  1  0  0  0  0
 43 69  1  0  0  0  0
 44 47  1  0  0  0  0
 44 69  1  0  0  0  0
 45 72  1  0  0  0  0
 46 68  1  0  0  0  0
 47 66  1  0  0  0  0
 48 58  1  0  0  0  0
 49 61  1  0  0  0  0
 50 62  1  0  0  0  0
 51 62  1  0  0  0  0
 52 63  1  0  0  0  0
 53 63  1  0  0  0  0
 54 63  1  0  0  0  0
 55 74  1  0  0  0  0
 56 75  1  0  0  0  0
 57 82  1  0  0  0  0
 58 65  1  0  0  0  0
 59 62  1  0  0  0  0
 59 74  1  0  0  0  0
 60 63  1  0  0  0  0
 60 73  1  0  0  0  0
 61 75  1  0  0  0  0
 64 66  1  0  0  0  0
M  CHG  2  67   1  75   1
M  ISO  4  35 100  57 101  74 100  82 101
M  END
> <Batch ID>
0062

> <Smiles>
CCn1cc([101CH2:1][101O:1]c2ccc3c(c2)CN(C(=O)C(NC(=O)C(C)NC)C(C)(C)C)C(C(=O)NC2CCCc4ccccc42)C3)nc1C(C)(C)C[100N:0](C)[100C:0](=O)N1CCCC(n2nc(-c3ccc(Oc4ccc(F)cc4F)cc3)c(C(N)=O)c2N)C1

> <Shape>
0.211

> <Color>
0.077

> <Negative vol penalty>
0.000

$$$$

  -OEChem-04052318003D

 89 97  0     1  0  0  0  0  0999 V2000
  -20.3873  -17.9044   18.6937 C   0  0  0  0  0  0  0  0  0  0  0  0
  -21.1094  -19.0091   18.2537 C   0  0  0  0  0  0  0  0  0  0  0  0
  -27.1042  -16.7379   19.1632 C   0  0  0  0  0  0  0  0  0  0  0  0
  -29.2651  -16.4773   20.2119 C   0  0  0  0  0  0  0  0  0  0  0  0
  -19.3003  -18.0792   19.5491 C   0  0  0  0  0  0  0  0  0  0  0  0
  -20.7441  -20.2895   18.6680 C   0  0  0  0  0  0  0  0  0  0  0  0
  -24.7262  -23.0900   20.0625 C   0  0  0  0  0  0  0  0  0  0  0  0
  -26.9170  -15.3563   19.2056 C   0  0  0  0  0  0  0  0  0  0  0  0
  -29.0779  -15.0957   20.2542 C   0  0  0  0  0  0  0  0  0  0  0  0
  -25.4999  -23.6477   19.0456 C   0  0  0  0  0  0  0  0  0  0  0  0
  -26.0270  -13.0321   21.4945 C   0  0  0  0  0  0  0  0  0  0  0  0
  -24.7871  -12.5588   21.9234 C   0  0  0  0  0  0  0  0  0  0  0  0
  -24.3750  -25.7590   19.3557 C   0  0  0  0  0  0  0  0  0  0  0  0
  -24.4729  -11.4550   19.7974 C   0  0  0  0  0  0  0  0  0  0  0  0
  -28.2782  -17.2984   19.6663 C   0  0  0  0  0  0  0  0  0  0  0  0
  -28.1081  -19.6637   20.6067 C   0  0  0  0  0  0  0  0  0  0  0  0
  -18.9274  -19.3615   19.9818 C   0  0  0  0  0  0  0  0  0  0  0  0
  -23.7619  -23.8610   20.7274 C   0  0  0  0  0  0  0  0  0  0  0  0
  -19.6502  -20.4817   19.5289 C   0  0  0  0  0  0  0  0  0  0  0  0
  -23.5921  -25.2094   20.3825 C   0  0  0  0  0  0  0  0  0  0  0  0
  -27.9039  -14.5352   19.7511 C   0  0  0  0  0  0  0  0  0  0  0  0
  -25.3224  -24.9815   18.6901 C   0  0  0  0  0  0  0  0  0  0  0  0
  -26.4899  -12.7170   20.2169 C   0  0  0  0  0  0  0  0  0  0  0  0
  -24.0100  -11.7702   21.0749 C   0  0  0  0  0  0  0  0  0  0  0  0
  -25.7129  -11.9284   19.3684 C   0  0  0  0  0  0  0  0  0  0  0  0
  -28.4724  -18.7255   19.6224 C   0  0  0  0  0  0  0  0  0  0  0  0
  -28.5049  -20.8735   20.0915 C   0  0  0  0  0  0  0  0  0  0  0  0
  -29.0524  -26.9151   19.2310 C   0  0  0  0  0  0  0  0  0  0  0  0
  -28.7883  -26.5092   21.4224 C   0  0  0  0  0  0  0  0  0  0  0  0
  -30.8294  -26.3891   20.4970 C   0  0  0  0  0  0  0  0  0  0  0  0
  -27.4683  -19.4598   21.8735 C   0  0  0  0  0  0  0  0  0  0  0  0
  -20.6035  -23.7103   21.0523 C   0  0  0  0  0  0  0  0  0  0  0  0
  -21.0883  -26.1714   23.1090 C   0  0  0  0  0  0  0  0  0  0  0  0
  -23.0643  -28.7705   24.1025 C   0  0  0  0  0  0  0  0  0  0  0  0
  -32.2828  -24.0510   17.4884 C   0  0  0  0  0  0  0  0  0  0  0  0
  -17.7161  -19.5047   20.8688 C   0  0  0  0  0  0  0  0  0  0  0  0
  -22.9540  -23.2519   21.8404 C   0  0  0  0  0  0  0  0  0  0  0  0
  -22.5844  -26.0855   21.0793 C   0  0  0  0  0  0  0  0  0  0  0  0
  -17.6244  -20.8626   21.5601 C   0  0  0  0  0  0  0  0  0  0  0  0
  -30.0961  -22.1139   15.4530 C   0  0  0  0  0  0  0  0  0  0  0  0
  -17.8876  -21.9875   20.5640 C   0  0  0  0  0  0  0  0  0  0  0  0
  -29.4539  -21.1336   16.4360 C   0  0  0  0  0  0  0  0  0  0  0  0
  -31.5573  -22.3875   15.8022 C   0  0  0  0  0  0  0  0  0  0  0  0
  -31.1477  -21.8510   18.1725 C   0  0  0  0  0  0  0  0  0  0  0  0
  -19.3001  -21.8844   19.9760 C   0  0  1  0  0  0  0  0  0  0  0  0
  -21.6437  -23.9889   22.1001 C   0  0  1  0  0  0  0  0  0  0  0  0
  -29.6580  -21.5871   17.8941 C   0  0  2  0  0  0  0  0  0  0  0  0
  -23.8607  -30.6791   25.5239 C   0  0  0  0  0  0  0  0  0  0  0  0
  -27.7805  -26.5700   15.5770 C   0  0  0  0  0  0  0  0  0  0  0  0
  -26.4650  -25.9485   22.2184 C   0  0  0  0  0  0  0  0  0  0  0  0
  -27.7795  -27.7681   23.3574 C   0  0  0  0  0  0  0  0  0  0  0  0
  -28.3722  -25.3792   23.7084 C   0  0  0  0  0  0  0  0  0  0  0  0
  -32.7085  -25.1207   21.7447 C   0  0  0  0  0  0  0  0  0  0  0  0
  -33.0405  -27.4641   21.0002 C   0  0  0  0  0  0  0  0  0  0  0  0
  -19.0179  -27.7470   21.5150 C   0  0  0  0  0  0  0  0  0  0  0  0
  -19.8574  -29.8318   22.6183 C   0  0  0  0  0  0  0  0  0  0  0  0
  -18.8481  -28.0135   23.9959 C   0  0  0  0  0  0  0  0  0  0  0  0
  -24.6627  -26.9721   25.8259 C   0  0  0  0  0  0  0  0  0  0  0  0
  -28.4650  -27.2770   17.8885 C   0  0  0  0  0  0  0  0  0  0  0  0
  -32.9400  -25.6239   19.2920 C   0  0  0  0  0  0  0  0  0  0  0  0
  -27.3877  -24.9985   17.5110 C   0  0  0  0  0  0  0  0  0  1  0  0
  -21.1401  -27.6749   22.9838 C   0  0  1  0  0  0  0  0  0  0  0  0
  -23.5655  -29.1881   25.4732 C   0  0  2  0  0  0  0  0  0  0  0  0
  -28.3108  -26.0791   16.9302 C   0  0  1  0  0  0  0  0  0  0  0  0
  -27.9043  -26.3997   22.6179 C   0  0  0  0  0  0  0  0  0  0  0  0
  -32.2937  -26.1413   20.6276 C   0  0  0  0  0  0  0  0  0  0  0  0
  -19.7336  -28.3000   22.7636 C   0  0  0  0  0  0  0  0  0  0  0  0
  -29.0557  -19.2907   18.5620 N   0  0  0  0  0  0  0  0  0  0  0  0
  -28.1960  -26.8348   20.2623 N   0  0  0  0  0  0  0  0  0  0  0  0
  -30.3783  -26.7064   19.2728 N   0  0  0  0  0  0  0  0  0  0  0  0
  -30.0958  -26.2723   21.6156 N   0  0  0  0  0  0  0  0  0  0  0  0
  -29.0608  -20.5971   18.8770 N   0  0  0  0  0  0  0  0  0  0  0  0
  -21.8143  -25.4422   22.1566 N   0  0  0  0  0  0  0  0  0  0  0  0
  -31.6817  -22.8152   17.1978 N   0  0  0  0  0  0  0  0  0  0  0  0
  -28.4290  -22.1360   20.5633 N   0  0  0  0  0  0  0  0  0  0  0  0
  -27.1283  -18.1526   22.2476 N   0  0  0  0  0  0  0  0  0  0  0  0
  -20.2789  -22.3733   20.9234 N   0  0  0  0  0  0  0  0  0  0  0  0
  -21.8300  -28.1602   24.1742 N   0  0  0  0  0  0  0  0  0  0  0  0
  -32.3549  -24.3828   18.8357 N   0  0  0  0  0  0  0  0  0  0  0  0
  -24.8142  -28.4499   25.8152 N   0  3  0  0  0  0  0  0  0  0  0  0
  -27.1910  -20.4105   22.6434 O   0  0  0  0  0  0  0  0  0  0  0  0
  -20.1293  -24.6396   20.4095 O   0  0  0  0  0  0  0  0  0  0  0  0
  -20.4339  -25.6628   24.0227 O   0  0  0  0  0  0  0  0  0  0  0  0
  -23.7022  -28.9693   23.0710 O   0  0  0  0  0  0  0  0  0  0  0  0
  -32.7178  -24.8054   16.6116 O   0  0  0  0  0  0  0  0  0  0  0  0
  -27.7215  -13.1871   19.7928 O   0  0  0  0  0  0  0  0  0  0  0  0
  -26.0758  -25.5281   17.6973 O   0  0  0  0  0  0  0  0  0  1  0  0
  -22.8200  -11.3144   21.4876 F   0  0  0  0  0  0  0  0  0  0  0  0
  -26.1528  -11.6213   18.1404 F   0  0  0  0  0  0  0  0  0  0  0  0
  1  2  1  0  0  0  0
  1  5  2  0  0  0  0
  2  6  2  0  0  0  0
  3  8  2  0  0  0  0
  3 15  1  0  0  0  0
  4  9  1  0  0  0  0
  4 15  2  0  0  0  0
  5 17  1  0  0  0  0
  6 19  1  0  0  0  0
  7 10  2  0  0  0  0
  7 18  1  0  0  0  0
  8 21  1  0  0  0  0
  9 21  2  0  0  0  0
 10 22  1  0  0  0  0
 11 12  2  0  0  0  0
 11 23  1  0  0  0  0
 12 24  1  0  0  0  0
 13 20  1  0  0  0  0
 13 22  2  0  0  0  0
 14 24  2  0  0  0  0
 14 25  1  0  0  0  0
 15 26  1  0  0  0  0
 16 26  1  0  0  0  0
 16 27  2  0  0  0  0
 16 31  1  0  0  0  0
 17 19  2  0  0  0  0
 17 36  1  0  0  0  0
 18 20  2  0  0  0  0
 18 37  1  0  0  0  0
 19 45  1  0  0  0  0
 20 38  1  0  0  0  0
 21 86  1  0  0  0  0
 22 87  1  0  0  0  0
 23 25  2  0  0  0  0
 23 86  1  0  0  0  0
 24 88  1  0  0  0  0
 25 89  1  0  0  0  0
 26 68  2  0  0  0  0
 27 72  1  0  0  0  0
 27 75  1  0  0  0  0
 28 59  1  0  0  0  0
 28 69  1  0  0  0  0
 28 70  2  0  0  0  0
 29 65  1  0  0  0  0
 29 69  2  0  0  0  0
 29 71  1  0  0  0  0
 30 66  1  0  0  0  0
 30 70  1  0  0  0  0
 30 71  2  0  0  0  0
 31 76  1  0  0  0  0
 31 81  2  0  0  0  0
 32 46  1  0  0  0  0
 32 77  1  0  0  0  0
 32 82  2  0  0  0  0
 33 62  1  0  0  0  0
 33 73  1  0  0  0  0
 33 83  2  0  0  0  0
 34 63  1  0  0  0  0
 34 78  1  0  0  0  0
 34 84  2  0  0  0  0
 35 74  1  0  0  0  0
 35 79  1  0  0  0  0
 35 85  2  0  0  0  0
 36 39  1  0  0  0  0
 37 46  1  0  0  0  0
 38 73  1  0  0  0  0
 39 41  1  0  0  0  0
 40 42  1  0  0  0  0
 40 43  1  0  0  0  0
 41 45  1  0  0  0  0
 42 47  1  0  0  0  0
 43 74  1  0  0  0  0
 44 47  1  0  0  0  0
 44 74  1  0  0  0  0
 45 77  1  0  0  0  0
 46 73  1  0  0  0  0
 47 72  1  0  0  0  0
 48 63  1  0  0  0  0
 49 64  1  0  0  0  0
 50 65  1  0  0  0  0
 51 65  1  0  0  0  0
 52 65  1  0  0  0  0
 53 66  1  0  0  0  0
 54 66  1  0  0  0  0
 55 67  1  0  0  0  0
 56 67  1  0  0  0  0
 57 67  1  0  0  0  0
 58 80  1  0  0  0  0
 59 64  1  0  0  0  0
 60 66  1  0  0  0  0
 60 79  1  0  0  0  0
 61 64  1  0  0  0  0
 61 87  1  0  0  0  0
 62 67  1  0  0  0  0
 62 78  1  0  0  0  0
 63 80  1  0  0  0  0
 68 72  1  0  0  0  0
M  CHG  1  80   1
M  ISO  4  35 100  61 101  79 100  87 101
M  END
> <Batch ID>
0062

> <Smiles>
CNC(C)C(=O)NC(C(=O)N1Cc2cc([101O:1][101CH2:1]C(C)Cc3nc(C(C)(C)C)nc(C(C)(C)C[100NH:0][100C:0](=O)N4CCCC(n5nc(-c6ccc(Oc7ccc(F)cc7F)cc6)c(C(N)=O)c5N)C4)n3)ccc2CC1C(=O)NC1CCCc2ccccc21)C(C)(C)C

> <Shape>
0.199

> <Color>
0.049

> <Negative vol penalty>
0.000

$$$$

  -OEChem-04052318003D

 95103  0     1  0  0  0  0  0999 V2000
  -36.1469  -30.9264   15.7197 C   0  0  0  0  0  0  0  0  0  0  0  0
  -34.9061  -30.6617   16.2906 C   0  0  0  0  0  0  0  0  0  0  0  0
  -22.9874  -10.0823   19.8634 C   0  0  0  0  0  0  0  0  0  0  0  0
  -23.9242   -9.6931   22.0561 C   0  0  0  0  0  0  0  0  0  0  0  0
  -36.3776  -30.6143   14.3806 C   0  0  0  0  0  0  0  0  0  0  0  0
  -33.8950  -30.0857   15.5223 C   0  0  0  0  0  0  0  0  0  0  0  0
  -31.4956  -26.3487   17.9558 C   0  0  0  0  0  0  0  0  0  0  0  0
  -22.2202   -8.9238   19.9855 C   0  0  0  0  0  0  0  0  0  0  0  0
  -23.1570   -8.5346   22.1782 C   0  0  0  0  0  0  0  0  0  0  0  0
  -30.5498  -26.7158   18.9122 C   0  0  0  0  0  0  0  0  0  0  0  0
  -21.1758   -5.6687   23.2174 C   0  0  0  0  0  0  0  0  0  0  0  0
  -20.5125   -5.4537   24.4254 C   0  0  0  0  0  0  0  0  0  0  0  0
  -28.7871  -26.3091   17.3163 C   0  0  0  0  0  0  0  0  0  0  0  0
  -19.2922   -7.5168   24.1226 C   0  0  0  0  0  0  0  0  0  0  0  0
  -30.1647  -19.2969   19.7078 C   0  0  0  0  0  0  0  0  0  0  0  0
  -23.8395  -10.4669   20.8987 C   0  0  0  0  0  0  0  0  0  0  0  0
  -24.2707  -12.9677   21.1592 C   0  0  0  0  0  0  0  0  0  0  0  0
  -35.3719  -30.0253   13.5981 C   0  0  0  0  0  0  0  0  0  0  0  0
  -31.0942  -25.9688   16.6670 C   0  0  0  0  0  0  0  0  0  0  0  0
  -34.1121  -29.7667   14.1711 C   0  0  0  0  0  0  0  0  0  0  0  0
  -29.7296  -25.9351   16.3463 C   0  0  0  0  0  0  0  0  0  0  0  0
  -30.1327  -17.9268   19.6166 C   0  0  0  0  0  0  0  0  0  0  0  0
  -22.3050   -8.1500   21.1429 C   0  0  0  0  0  0  0  0  0  0  0  0
  -29.1956  -26.6989   18.5916 C   0  0  0  0  0  0  0  0  0  0  0  0
  -20.8975   -6.8079   22.4620 C   0  0  0  0  0  0  0  0  0  0  0  0
  -19.5706   -6.3777   24.8780 C   0  0  0  0  0  0  0  0  0  0  0  0
  -19.9557   -7.7319   22.9146 C   0  0  0  0  0  0  0  0  0  0  0  0
  -24.6326  -11.6633   20.7729 C   0  0  0  0  0  0  0  0  0  0  0  0
  -29.6404  -17.5024   20.8653 C   0  0  0  0  0  0  0  0  0  0  0  0
  -25.3599  -13.7375   20.8315 C   0  0  0  0  0  0  0  0  0  0  0  0
  -23.0584  -13.4412   21.7607 C   0  0  0  0  0  0  0  0  0  0  0  0
  -31.5930  -27.0984   13.7381 C   0  0  0  0  0  0  0  0  0  0  0  0
  -30.0158  -24.4058   12.8523 C   0  0  0  0  0  0  0  0  0  0  0  0
  -27.8112  -21.9351   13.6784 C   0  0  0  0  0  0  0  0  0  0  0  0
  -31.0210  -14.1912   21.0848 C   0  0  0  0  0  0  0  0  0  0  0  0
  -35.6530  -29.7493   12.1422 C   0  0  0  0  0  0  0  0  0  0  0  0
  -32.1251  -25.5499   15.6551 C   0  0  0  0  0  0  0  0  0  0  0  0
  -29.2455  -25.5156   14.9831 C   0  0  0  0  0  0  0  0  0  0  0  0
  -34.6494  -28.7963   11.4981 C   0  0  0  0  0  0  0  0  0  0  0  0
  -29.4642  -12.6694   18.0912 C   0  0  0  0  0  0  0  0  0  0  0  0
  -33.2233  -29.1972   11.8621 C   0  0  0  0  0  0  0  0  0  0  0  0
  -28.0624  -12.3183   18.5868 C   0  0  0  0  0  0  0  0  0  0  0  0
  -30.4854  -12.6601   19.2246 C   0  0  0  0  0  0  0  0  0  0  0  0
  -28.7144  -13.1779   20.8707 C   0  0  0  0  0  0  0  0  0  0  0  0
  -32.9981  -29.1199   13.3769 C   0  0  1  0  0  0  0  0  0  0  0  0
  -31.6347  -25.6745   14.2158 C   0  0  1  0  0  0  0  0  0  0  0  0
  -27.6529  -13.2238   19.7613 C   0  0  2  0  0  0  0  0  0  0  0  0
  -26.6919  -19.8972   12.7342 C   0  0  0  0  0  0  0  0  0  0  0  0
  -24.9484  -25.7275   20.7457 C   0  0  0  0  0  0  0  0  0  0  0  0
  -28.1324  -26.1881   11.2443 C   0  0  0  0  0  0  0  0  0  0  0  0
  -26.5320  -24.2667   11.1208 C   0  0  0  0  0  0  0  0  0  0  0  0
  -28.7974  -24.0685   10.0955 C   0  0  0  0  0  0  0  0  0  0  0  0
  -28.3576  -22.0852   19.5927 C   0  0  0  0  0  0  0  0  0  0  0  0
  -27.0110  -21.0050   21.3829 C   0  0  0  0  0  0  0  0  0  0  0  0
  -28.1995  -23.0135   23.4656 C   0  0  0  0  0  0  0  0  0  0  0  0
  -29.5457  -24.0697   21.6593 C   0  0  0  0  0  0  0  0  0  0  0  0
  -31.6064  -16.1760   22.4254 C   0  0  0  0  0  0  0  0  0  0  0  0
  -29.0298  -20.1763   15.7230 C   0  0  0  0  0  0  0  0  0  0  0  0
  -27.0038  -25.9374   23.1600 C   0  0  0  0  0  0  0  0  0  0  0  0
  -29.4017  -16.1214   21.3200 C   0  0  0  0  0  0  0  0  0  0  0  0
  -29.5525  -20.9847   21.5473 C   0  0  0  0  0  0  0  0  0  0  0  0
  -27.0209  -24.0854   21.4955 C   0  0  0  0  0  0  0  0  0  0  0  0
  -26.9863  -26.4419   19.4335 C   0  0  0  0  0  0  0  0  0  1  0  0
  -28.5700  -24.0434   12.6134 C   0  0  1  0  0  0  0  0  0  0  0  0
  -27.8820  -20.4272   13.5188 C   0  0  2  0  0  0  0  0  0  0  0  0
  -26.3231  -26.3736   20.8046 C   0  0  2  0  0  0  0  0  0  0  0  0
  -30.5281  -17.0990   18.4646 C   0  0  0  0  0  0  0  0  0  0  0  0
  -28.0168  -24.6515   11.2937 C   0  0  0  0  0  0  0  0  0  0  0  0
  -28.2965  -21.8334   21.1222 C   0  0  0  0  0  0  0  0  0  0  0  0
  -28.2608  -23.2430   21.9312 C   0  0  0  0  0  0  0  0  0  0  0  0
  -25.8560  -11.6040   20.2402 N   0  0  0  0  0  0  0  0  0  0  0  0
  -29.3786  -18.5204   21.6894 N   0  0  0  0  0  0  0  0  0  0  0  0
  -29.7078  -19.5981   20.9570 N   0  0  0  0  0  0  0  0  0  0  0  0
  -26.2724  -12.8808   20.2895 N   0  0  0  0  0  0  0  0  0  0  0  0
  -30.2924  -25.1210   14.0262 N   0  0  0  0  0  0  0  0  0  0  0  0
  -30.0510  -13.4944   20.3456 N   0  0  0  0  0  0  0  0  0  0  0  0
  -25.6166  -15.0569   20.9568 N   0  0  0  0  0  0  0  0  0  0  0  0
  -22.0407  -12.5160   22.0305 N   0  0  0  0  0  0  0  0  0  0  0  0
  -32.8128  -27.7455   13.7908 N   0  0  0  0  0  0  0  0  0  0  0  0
  -28.4982  -22.5876   12.6766 N   0  0  0  0  0  0  0  0  0  0  0  0
  -30.6329  -15.4111   21.6594 N   0  0  0  0  0  0  0  0  0  0  0  0
  -27.8973  -19.7652   14.8539 N   0  3  0  0  0  0  0  0  0  0  0  0
  -27.1931  -25.5457   21.7163 N   0  3  1  0  0  0  0  0  0  0  0  0
  -22.8764  -14.6515   22.0353 O   0  0  0  0  0  0  0  0  0  0  0  0
  -30.5329  -27.5743   13.3489 O   0  0  0  0  0  0  0  0  0  0  0  0
  -30.8694  -24.0607   12.0314 O   0  0  0  0  0  0  0  0  0  0  0  0
  -27.2038  -22.4799   14.5975 O   0  0  0  0  0  0  0  0  0  0  0  0
  -32.1711  -13.7530   21.2154 O   0  0  0  0  0  0  0  0  0  0  0  0
  -21.5564   -7.0196   21.2625 O   0  0  0  0  0  0  0  0  0  0  0  0
  -28.2641  -27.0598   19.5293 O   0  0  0  0  0  0  0  0  0  1  0  0
  -18.9326   -6.1702   26.0373 F   0  0  0  0  0  0  0  0  0  0  0  0
  -19.6832   -8.8275   22.1927 F   0  0  0  0  0  0  0  0  0  0  0  0
  -30.9730  -17.8142   17.3795 F   0  0  0  0  0  0  0  0  0  0  0  0
  -31.5449  -16.2137   18.7268 F   0  0  0  0  0  0  0  0  0  0  0  0
  -29.5069  -16.3232   17.9763 F   0  0  0  0  0  0  0  0  0  0  0  0
  1  2  1  0  0  0  0
  1  5  2  0  0  0  0
  2  6  2  0  0  0  0
  3  8  2  0  0  0  0
  3 16  1  0  0  0  0
  4  9  1  0  0  0  0
  4 16  2  0  0  0  0
  5 18  1  0  0  0  0
  6 20  1  0  0  0  0
  7 10  2  0  0  0  0
  7 19  1  0  0  0  0
  8 23  1  0  0  0  0
  9 23  2  0  0  0  0
 10 24  1  0  0  0  0
 11 12  2  0  0  0  0
 11 25  1  0  0  0  0
 12 26  1  0  0  0  0
 13 21  1  0  0  0  0
 13 24  2  0  0  0  0
 14 26  2  0  0  0  0
 14 27  1  0  0  0  0
 15 22  2  0  0  0  0
 15 73  1  0  0  0  0
 16 28  1  0  0  0  0
 17 28  1  0  0  0  0
 17 30  2  0  0  0  0
 17 31  1  0  0  0  0
 18 20  2  0  0  0  0
 18 36  1  0  0  0  0
 19 21  2  0  0  0  0
 19 37  1  0  0  0  0
 20 45  1  0  0  0  0
 21 38  1  0  0  0  0
 22 29  1  0  0  0  0
 22 67  1  0  0  0  0
 23 89  1  0  0  0  0
 24 90  1  0  0  0  0
 25 27  2  0  0  0  0
 25 89  1  0  0  0  0
 26 91  1  0  0  0  0
 27 92  1  0  0  0  0
 28 71  2  0  0  0  0
 29 60  1  0  0  0  0
 29 72  2  0  0  0  0
 30 74  1  0  0  0  0
 30 77  1  0  0  0  0
 31 78  1  0  0  0  0
 31 84  2  0  0  0  0
 32 46  1  0  0  0  0
 32 79  1  0  0  0  0
 32 85  2  0  0  0  0
 33 64  1  0  0  0  0
 33 75  1  0  0  0  0
 33 86  2  0  0  0  0
 34 65  1  0  0  0  0
 34 80  1  0  0  0  0
 34 87  2  0  0  0  0
 35 76  1  0  0  0  0
 35 81  1  0  0  0  0
 35 88  2  0  0  0  0
 36 39  1  0  0  0  0
 37 46  1  0  0  0  0
 38 75  1  0  0  0  0
 39 41  1  0  0  0  0
 40 42  1  0  0  0  0
 40 43  1  0  0  0  0
 41 45  1  0  0  0  0
 42 47  1  0  0  0  0
 43 76  1  0  0  0  0
 44 47  1  0  0  0  0
 44 76  1  0  0  0  0
 45 79  1  0  0  0  0
 46 75  1  0  0  0  0
 47 74  1  0  0  0  0
 48 65  1  0  0  0  0
 49 66  1  0  0  0  0
 50 68  1  0  0  0  0
 51 68  1  0  0  0  0
 52 68  1  0  0  0  0
 53 69  1  0  0  0  0
 54 69  1  0  0  0  0
 55 70  1  0  0  0  0
 56 70  1  0  0  0  0
 57 81  1  0  0  0  0
 58 82  1  0  0  0  0
 59 83  1  0  0  0  0
 60 81  1  0  0  0  0
 61 69  1  0  0  0  0
 61 73  1  0  0  0  0
 62 70  1  0  0  0  0
 62 83  1  0  0  0  0
 63 66  1  0  0  0  0
 63 90  1  0  0  0  0
 64 68  1  0  0  0  0
 64 80  1  0  0  0  0
 65 82  1  0  0  0  0
 66 83  1  0  0  0  0
 67 93  1  0  0  0  0
 67 94  1  0  0  0  0
 67 95  1  0  0  0  0
 69 70  1  0  0  0  0
 71 74  1  0  0  0  0
 72 73  1  0  0  0  0
M  CHG  2  82   1  83   1
M  ISO  4  35 100  63 101  81 100  90 101
M  END
> <Batch ID>
0062

> <Smiles>
CNC(C)C(=O)NC(C(=O)N1Cc2cc([101O:1][101CH2:1]C(C)N(C)CC(C)(C)C(C)(C)Cn3cc(C(F)(F)F)c(C[100N:0](C)[100C:0](=O)N4CCCC(n5nc(-c6ccc(Oc7ccc(F)cc7F)cc6)c(C(N)=O)c5N)C4)n3)ccc2CC1C(=O)NC1CCCc2ccccc21)C(C)(C)C

> <Shape>
0.245

> <Color>
0.160

> <Negative vol penalty>
0.000

$$$$

  -OEChem-04052318003D

 81 89  0     1  0  0  0  0  0999 V2000
  -29.6353  -12.1085   19.9432 C   0  0  0  0  0  0  0  0  0  0  0  0
  -29.5943  -13.4306   19.5121 C   0  0  0  0  0  0  0  0  0  0  0  0
  -19.8089  -26.5164   23.0949 C   0  0  0  0  0  0  0  0  0  0  0  0
  -19.6952  -28.2061   21.3718 C   0  0  0  0  0  0  0  0  0  0  0  0
  -28.4507  -11.4373   20.2433 C   0  0  0  0  0  0  0  0  0  0  0  0
  -28.3685  -14.0819   19.3798 C   0  0  0  0  0  0  0  0  0  0  0  0
  -28.4381  -18.7639   21.3085 C   0  0  0  0  0  0  0  0  0  0  0  0
  -18.8636  -27.2168   23.8442 C   0  0  0  0  0  0  0  0  0  0  0  0
  -18.7498  -28.9065   22.1211 C   0  0  0  0  0  0  0  0  0  0  0  0
  -29.0417  -19.7595   20.5416 C   0  0  0  0  0  0  0  0  0  0  0  0
  -16.2130  -28.3743   26.0463 C   0  0  0  0  0  0  0  0  0  0  0  0
  -15.1747  -27.6448   26.6255 C   0  0  0  0  0  0  0  0  0  0  0  0
  -26.8682  -20.4964   19.7986 C   0  0  0  0  0  0  0  0  0  0  0  0
  -14.4696  -26.9092   24.4348 C   0  0  0  0  0  0  0  0  0  0  0  0
  -29.0321  -24.5951   18.0032 C   0  0  0  0  0  0  0  0  0  0  0  0
  -20.2248  -27.0111   21.8587 C   0  0  0  0  0  0  0  0  0  0  0  0
  -20.9550  -25.2908   20.1223 C   0  0  0  0  0  0  0  0  0  0  0  0
  -27.2104  -12.0838   20.1239 C   0  0  0  0  0  0  0  0  0  0  0  0
  -27.0433  -18.6198   21.3177 C   0  0  0  0  0  0  0  0  0  0  0  0
  -27.1661  -13.4183   19.6773 C   0  0  0  0  0  0  0  0  0  0  0  0
  -26.2492  -19.4998   20.5684 C   0  0  0  0  0  0  0  0  0  0  0  0
  -18.3340  -28.4118   23.3572 C   0  0  0  0  0  0  0  0  0  0  0  0
  -28.2569  -20.6241   19.7842 C   0  0  0  0  0  0  0  0  0  0  0  0
  -16.3796  -28.3713   24.6614 C   0  0  0  0  0  0  0  0  0  0  0  0
  -14.3030  -26.9123   25.8198 C   0  0  0  0  0  0  0  0  0  0  0  0
  -15.5079  -27.6387   23.8557 C   0  0  0  0  0  0  0  0  0  0  0  0
  -21.2017  -26.2883   21.0845 C   0  0  0  0  0  0  0  0  0  0  0  0
  -30.2211  -24.1292   18.5029 C   0  0  0  0  0  0  0  0  0  0  0  0
  -22.2026  -24.9246   19.6797 C   0  0  0  0  0  0  0  0  0  0  0  0
  -29.3221  -26.5017   19.1782 C   0  0  0  0  0  0  0  0  0  0  0  0
  -19.7094  -24.7441   19.6691 C   0  0  0  0  0  0  0  0  0  0  0  0
  -25.0200  -16.3206   20.4670 C   0  0  0  0  0  0  0  0  0  0  0  0
  -22.8172  -18.3139   21.7697 C   0  0  0  0  0  0  0  0  0  0  0  0
  -27.3309  -27.9188   19.5776 C   0  0  0  0  0  0  0  0  0  0  0  0
  -21.9505  -21.4948   22.6514 C   0  0  0  0  0  0  0  0  0  0  0  0
  -25.9535  -11.3024   20.4144 C   0  0  0  0  0  0  0  0  0  0  0  0
  -26.4061  -17.5578   22.1712 C   0  0  0  0  0  0  0  0  0  0  0  0
  -24.7464  -19.4001   20.5599 C   0  0  0  0  0  0  0  0  0  0  0  0
  -24.7206  -12.1815   20.6071 C   0  0  0  0  0  0  0  0  0  0  0  0
  -26.7584  -24.6629   21.0937 C   0  0  0  0  0  0  0  0  0  0  0  0
  -24.6395  -13.2357   19.5076 C   0  0  0  0  0  0  0  0  0  0  0  0
  -25.2342  -24.6385   21.1989 C   0  0  0  0  0  0  0  0  0  0  0  0
  -27.3142  -26.0667   21.3186 C   0  0  0  0  0  0  0  0  0  0  0  0
  -25.2023  -27.0770   20.5166 C   0  0  0  0  0  0  0  0  0  0  0  0
  -25.8574  -14.1667   19.5451 C   0  0  1  0  0  0  0  0  0  0  0  0
  -25.0055  -17.1754   21.7027 C   0  0  1  0  0  0  0  0  0  0  0  0
  -24.5997  -25.6846   20.2657 C   0  0  2  0  0  0  0  0  0  0  0  0
  -20.0713  -22.8165   23.6609 C   0  0  0  0  0  0  0  0  0  0  0  0
  -29.3481  -28.9419   18.5973 C   0  0  0  0  0  0  0  0  0  0  0  0
  -29.2249  -28.3216   21.0127 C   0  0  0  0  0  0  0  0  0  0  0  0
  -21.2769  -18.1258   19.1426 C   0  0  0  0  0  0  0  0  0  0  0  0
  -19.9749  -20.1468   19.8418 C   0  0  0  0  0  0  0  0  0  0  0  0
  -19.8504  -18.0552   21.1956 C   0  0  0  0  0  0  0  0  0  0  0  0
  -23.6352  -22.3778   24.9188 C   0  0  0  0  0  0  0  0  0  0  0  0
  -30.7488  -22.7672   18.1224 C   0  0  0  0  0  0  0  0  0  0  0  0
  -30.2680  -21.6736   19.0700 C   0  0  0  0  0  0  0  0  0  1  0  0
  -21.9614  -19.4453   21.2536 C   0  0  1  0  0  0  0  0  0  0  0  0
  -21.3628  -22.0606   23.9316 C   0  0  2  0  0  0  0  0  0  0  0  0
  -28.8374  -27.8522   19.5792 C   0  0  0  0  0  0  0  0  0  0  0  0
  -20.7943  -18.9442   20.3568 C   0  0  0  0  0  0  0  0  0  0  0  0
  -28.5504  -25.8033   18.3320 N   0  0  0  0  0  0  0  0  0  0  0  0
  -22.5037  -26.5398   21.2444 N   0  0  0  0  0  0  0  0  0  0  0  0
  -30.9530  -24.8758   19.3495 N   0  0  0  0  0  0  0  0  0  0  0  0
  -30.4962  -26.0960   19.7004 N   0  0  0  0  0  0  0  0  0  0  0  0
  -23.0863  -25.6949   20.3768 N   0  0  0  0  0  0  0  0  0  0  0  0
  -24.1709  -18.3413   21.4057 N   0  0  0  0  0  0  0  0  0  0  0  0
  -26.6649  -27.0379   20.4301 N   0  0  0  0  0  0  0  0  0  0  0  0
  -22.6189  -24.0221   18.7662 N   0  0  0  0  0  0  0  0  0  0  0  0
  -18.5216  -25.2340   20.2289 N   0  0  0  0  0  0  0  0  0  0  0  0
  -25.7191  -15.1373   20.6096 N   0  0  0  0  0  0  0  0  0  0  0  0
  -21.5325  -20.2004   22.4259 N   0  0  0  0  0  0  0  0  0  0  0  0
  -22.3283  -22.9953   24.5759 N   0  3  0  0  0  0  0  0  0  0  0  0
  -19.6523  -23.8362   18.8054 O   0  0  0  0  0  0  0  0  0  0  0  0
  -24.4385  -16.7055   19.4593 O   0  0  0  0  0  0  0  0  0  0  0  0
  -22.3050  -17.4419   22.4761 O   0  0  0  0  0  0  0  0  0  0  0  0
  -26.7649  -28.7281   18.8382 O   0  0  0  0  0  0  0  0  0  0  0  0
  -22.7021  -22.1383   21.9222 O   0  0  0  0  0  0  0  0  0  0  0  0
  -17.4114  -29.0954   24.0880 O   0  0  0  0  0  0  0  0  0  0  0  0
  -28.8435  -21.5964   19.0342 O   0  0  0  0  0  0  0  0  0  1  0  0
  -13.3070  -26.2106   26.3762 F   0  0  0  0  0  0  0  0  0  0  0  0
  -15.6636  -27.6310   22.5247 F   0  0  0  0  0  0  0  0  0  0  0  0
  1  2  1  0  0  0  0
  1  5  2  0  0  0  0
  2  6  2  0  0  0  0
  3  8  2  0  0  0  0
  3 16  1  0  0  0  0
  4  9  1  0  0  0  0
  4 16  2  0  0  0  0
  5 18  1  0  0  0  0
  6 20  1  0  0  0  0
  7 10  2  0  0  0  0
  7 19  1  0  0  0  0
  8 22  1  0  0  0  0
  9 22  2  0  0  0  0
 10 23  1  0  0  0  0
 11 12  2  0  0  0  0
 11 24  1  0  0  0  0
 12 25  1  0  0  0  0
 13 21  1  0  0  0  0
 13 23  2  0  0  0  0
 14 25  2  0  0  0  0
 14 26  1  0  0  0  0
 15 28  1  0  0  0  0
 15 61  2  0  0  0  0
 16 27  1  0  0  0  0
 17 27  1  0  0  0  0
 17 29  2  0  0  0  0
 17 31  1  0  0  0  0
 18 20  2  0  0  0  0
 18 36  1  0  0  0  0
 19 21  2  0  0  0  0
 19 37  1  0  0  0  0
 20 45  1  0  0  0  0
 21 38  1  0  0  0  0
 22 78  1  0  0  0  0
 23 79  1  0  0  0  0
 24 26  2  0  0  0  0
 24 78  1  0  0  0  0
 25 80  1  0  0  0  0
 26 81  1  0  0  0  0
 27 62  2  0  0  0  0
 28 55  1  0  0  0  0
 28 63  2  0  0  0  0
 29 65  1  0  0  0  0
 29 68  1  0  0  0  0
 30 59  1  0  0  0  0
 30 61  1  0  0  0  0
 30 64  2  0  0  0  0
 31 69  1  0  0  0  0
 31 73  2  0  0  0  0
 32 46  1  0  0  0  0
 32 70  1  0  0  0  0
 32 74  2  0  0  0  0
 33 57  1  0  0  0  0
 33 66  1  0  0  0  0
 33 75  2  0  0  0  0
 34 59  1  0  0  0  0
 34 67  1  0  0  0  0
 34 76  2  0  0  0  0
 35 58  1  0  0  0  0
 35 71  1  0  0  0  0
 35 77  2  0  0  0  0
 36 39  1  0  0  0  0
 37 46  1  0  0  0  0
 38 66  1  0  0  0  0
 39 41  1  0  0  0  0
 40 42  1  0  0  0  0
 40 43  1  0  0  0  0
 41 45  1  0  0  0  0
 42 47  1  0  0  0  0
 43 67  1  0  0  0  0
 44 47  1  0  0  0  0
 44 67  1  0  0  0  0
 45 70  1  0  0  0  0
 46 66  1  0  0  0  0
 47 65  1  0  0  0  0
 48 58  1  0  0  0  0
 49 59  1  0  0  0  0
 50 59  1  0  0  0  0
 51 60  1  0  0  0  0
 52 60  1  0  0  0  0
 53 60  1  0  0  0  0
 54 72  1  0  0  0  0
 55 56  1  0  0  0  0
 56 79  1  0  0  0  0
 57 60  1  0  0  0  0
 57 71  1  0  0  0  0
 58 72  1  0  0  0  0
 62 65  1  0  0  0  0
 63 64  1  0  0  0  0
M  CHG  1  72   1
M  ISO  4  34 100  56 101  59 100  79 101
M  END
> <Batch ID>
0062

> <Smiles>
CNC(C)C(=O)NC(C(=O)N1Cc2cc([101O:1][101CH2:1]Cc3cnc([100C:0](C)(C)[100C:0](=O)N4CCCC(n5nc(-c6ccc(Oc7ccc(F)cc7F)cc6)c(C(N)=O)c5N)C4)nn3)ccc2CC1C(=O)NC1CCCc2ccccc21)C(C)(C)C

> <Shape>
0.210

> <Color>
0.084

> <Negative vol penalty>
0.000

$$$$

  -OEChem-04052318003D

 86 94  0     1  0  0  0  0  0999 V2000
  -30.1039  -25.5995   28.2285 C   0  0  0  0  0  0  0  0  0  0  0  0
  -30.5662  -24.6858   27.2868 C   0  0  0  0  0  0  0  0  0  0  0  0
  -23.2487   -9.8640   19.8337 C   0  0  0  0  0  0  0  0  0  0  0  0
  -23.7962   -9.8632   22.1869 C   0  0  0  0  0  0  0  0  0  0  0  0
  -29.2495  -26.6297   27.8376 C   0  0  0  0  0  0  0  0  0  0  0  0
  -30.1736  -24.8011   25.9538 C   0  0  0  0  0  0  0  0  0  0  0  0
  -33.5262  -23.4826   21.0013 C   0  0  0  0  0  0  0  0  0  0  0  0
  -22.5300   -8.6803   20.0005 C   0  0  0  0  0  0  0  0  0  0  0  0
  -23.0774   -8.6795   22.3537 C   0  0  0  0  0  0  0  0  0  0  0  0
  -33.5740  -22.3631   20.1718 C   0  0  0  0  0  0  0  0  0  0  0  0
  -19.8408   -7.7532   22.6488 C   0  0  0  0  0  0  0  0  0  0  0  0
  -18.9826   -7.6669   23.7450 C   0  0  0  0  0  0  0  0  0  0  0  0
  -32.0606  -23.4443   18.6355 C   0  0  0  0  0  0  0  0  0  0  0  0
  -20.2253   -5.7654   24.5680 C   0  0  0  0  0  0  0  0  0  0  0  0
  -23.8819  -10.4554   20.9269 C   0  0  0  0  0  0  0  0  0  0  0  0
  -24.1361  -12.9931   20.8696 C   0  0  0  0  0  0  0  0  0  0  0  0
  -28.8539  -26.7634   26.4974 C   0  0  0  0  0  0  0  0  0  0  0  0
  -32.7354  -24.5889   20.6589 C   0  0  0  0  0  0  0  0  0  0  0  0
  -29.3121  -25.8332   25.5448 C   0  0  0  0  0  0  0  0  0  0  0  0
  -32.0066  -24.5777   19.4611 C   0  0  0  0  0  0  0  0  0  0  0  0
  -22.4443   -8.0880   21.2605 C   0  0  0  0  0  0  0  0  0  0  0  0
  -32.8389  -22.3426   18.9901 C   0  0  0  0  0  0  0  0  0  0  0  0
  -20.8912   -6.8456   22.5121 C   0  0  0  0  0  0  0  0  0  0  0  0
  -19.1749   -6.6730   24.7046 C   0  0  0  0  0  0  0  0  0  0  0  0
  -21.0835   -5.8518   23.4718 C   0  0  0  0  0  0  0  0  0  0  0  0
  -24.6250  -11.6779   20.7552 C   0  0  0  0  0  0  0  0  0  0  0  0
  -25.2272  -13.7882   20.6169 C   0  0  0  0  0  0  0  0  0  0  0  0
  -30.1578  -19.0444   19.1088 C   0  0  0  0  0  0  0  0  0  0  0  0
  -29.2664  -17.8361   20.7768 C   0  0  0  0  0  0  0  0  0  0  0  0
  -29.0840  -20.0730   20.7899 C   0  0  0  0  0  0  0  0  0  0  0  0
  -22.8140  -13.4548   21.1769 C   0  0  0  0  0  0  0  0  0  0  0  0
  -30.2443  -26.0592   21.9765 C   0  0  0  0  0  0  0  0  0  0  0  0
  -30.7118  -28.1751   19.5626 C   0  0  0  0  0  0  0  0  0  0  0  0
  -31.9527  -28.7825   16.4421 C   0  0  0  0  0  0  0  0  0  0  0  0
  -30.7224  -14.6985   21.7535 C   0  0  0  0  0  0  0  0  0  0  0  0
  -27.8913  -27.8651   26.1310 C   0  0  0  0  0  0  0  0  0  0  0  0
  -32.7157  -25.7996   21.5513 C   0  0  0  0  0  0  0  0  0  0  0  0
  -31.1581  -25.7479   19.0381 C   0  0  0  0  0  0  0  0  0  0  0  0
  -27.8217  -28.1393   24.6310 C   0  0  0  0  0  0  0  0  0  0  0  0
  -29.8029  -12.6524   18.8091 C   0  0  0  0  0  0  0  0  0  0  0  0
  -27.7027  -26.8319   23.8542 C   0  0  0  0  0  0  0  0  0  0  0  0
  -28.3540  -12.2710   19.1078 C   0  0  0  0  0  0  0  0  0  0  0  0
  -30.6041  -12.8818   20.0870 C   0  0  0  0  0  0  0  0  0  0  0  0
  -28.5439  -13.4941   21.3097 C   0  0  0  0  0  0  0  0  0  0  0  0
  -28.9284  -25.9397   24.0849 C   0  0  1  0  0  0  0  0  0  0  0  0
  -31.4733  -26.6637   21.3585 C   0  0  1  0  0  0  0  0  0  0  0  0
  -27.6971  -13.3013   20.0428 C   0  0  2  0  0  0  0  0  0  0  0  0
  -32.1505  -30.5966   14.7195 C   0  0  0  0  0  0  0  0  0  0  0  0
  -27.7753  -27.7932   18.8267 C   0  0  0  0  0  0  0  0  0  0  0  0
  -28.2672  -28.8422   16.6073 C   0  0  0  0  0  0  0  0  0  0  0  0
  -28.5827  -30.1569   18.7036 C   0  0  0  0  0  0  0  0  0  0  0  0
  -30.9603  -16.8926   22.8530 C   0  0  0  0  0  0  0  0  0  0  0  0
  -34.9099  -28.7033   16.5299 C   0  0  0  0  0  0  0  0  0  0  0  0
  -30.9201  -19.1141   17.8097 C   0  0  0  0  0  0  0  0  0  0  0  0
  -28.9943  -16.5149   21.4115 C   0  0  0  0  0  0  0  0  0  0  0  0
  -32.4276  -18.9047   17.9682 C   0  0  0  0  0  0  0  0  0  0  0  0
  -33.1030  -19.9865   18.8030 C   0  0  0  0  0  0  0  0  0  1  0  0
  -30.2119  -28.3063   18.1442 C   0  0  1  0  0  0  0  0  0  0  0  0
  -32.8147  -29.9096   15.9026 C   0  0  2  0  0  0  0  0  0  0  0  0
  -28.6023  -21.3253   21.4397 C   0  0  0  0  0  0  0  0  0  0  0  0
  -28.7237  -28.7516   18.0791 C   0  0  0  0  0  0  0  0  0  0  0  0
  -25.9254  -11.6356   20.4532 N   0  0  0  0  0  0  0  0  0  0  0  0
  -29.9503  -17.8206   19.6215 N   0  0  0  0  0  0  0  0  0  0  0  0
  -29.7553  -20.2123   19.6354 N   0  0  0  0  0  0  0  0  0  0  0  0
  -28.8025  -18.9204   21.4187 N   0  0  0  0  0  0  0  0  0  0  0  0
  -26.2629  -12.9341   20.3756 N   0  0  0  0  0  0  0  0  0  0  0  0
  -31.1665  -26.9058   19.9473 N   0  0  0  0  0  0  0  0  0  0  0  0
  -29.9358  -13.8323   20.9765 N   0  0  0  0  0  0  0  0  0  0  0  0
  -25.3922  -15.1275   20.5798 N   0  0  0  0  0  0  0  0  0  0  0  0
  -21.8112  -12.5036   21.4091 N   0  0  0  0  0  0  0  0  0  0  0  0
  -30.0498  -26.4085   23.2993 N   0  0  0  0  0  0  0  0  0  0  0  0
  -31.1362  -29.2099   17.4676 N   0  0  0  0  0  0  0  0  0  0  0  0
  -30.1783  -15.9550   22.0597 N   0  0  0  0  0  0  0  0  0  0  0  0
  -34.1369  -29.3840   15.4594 N   0  3  0  0  0  0  0  0  0  0  0  0
  -22.5265  -14.6748   21.2275 O   0  0  0  0  0  0  0  0  0  0  0  0
  -29.5249  -25.3311   21.3027 O   0  0  0  0  0  0  0  0  0  0  0  0
  -30.7058  -29.1641   20.2998 O   0  0  0  0  0  0  0  0  0  0  0  0
  -31.9965  -27.6382   15.9956 O   0  0  0  0  0  0  0  0  0  0  0  0
  -31.8507  -14.3712   22.1429 O   0  0  0  0  0  0  0  0  0  0  0  0
  -21.7428   -6.9331   21.4236 O   0  0  0  0  0  0  0  0  0  0  0  0
  -32.8832  -21.2508   18.1790 O   0  0  0  0  0  0  0  0  0  1  0  0
  -18.3517   -6.5912   25.7581 F   0  0  0  0  0  0  0  0  0  0  0  0
  -22.0916   -4.9777   23.3465 F   0  0  0  0  0  0  0  0  0  0  0  0
  -28.9222  -22.4595   20.7484 F   0  0  0  0  0  0  0  0  0  0  0  0
  -27.2459  -21.3744   21.5951 F   0  0  0  0  0  0  0  0  0  0  0  0
  -29.1202  -21.5014   22.6904 F   0  0  0  0  0  0  0  0  0  0  0  0
  1  2  1  0  0  0  0
  1  5  2  0  0  0  0
  2  6  2  0  0  0  0
  3  8  2  0  0  0  0
  3 15  1  0  0  0  0
  4  9  1  0  0  0  0
  4 15  2  0  0  0  0
  5 17  1  0  0  0  0
  6 19  1  0  0  0  0
  7 10  2  0  0  0  0
  7 18  1  0  0  0  0
  8 21  1  0  0  0  0
  9 21  2  0  0  0  0
 10 22  1  0  0  0  0
 11 12  2  0  0  0  0
 11 23  1  0  0  0  0
 12 24  1  0  0  0  0
 13 20  1  0  0  0  0
 13 22  2  0  0  0  0
 14 24  2  0  0  0  0
 14 25  1  0  0  0  0
 15 26  1  0  0  0  0
 16 26  1  0  0  0  0
 16 27  2  0  0  0  0
 16 31  1  0  0  0  0
 17 19  2  0  0  0  0
 17 36  1  0  0  0  0
 18 20  2  0  0  0  0
 18 37  1  0  0  0  0
 19 45  1  0  0  0  0
 20 38  1  0  0  0  0
 21 80  1  0  0  0  0
 22 81  1  0  0  0  0
 23 25  2  0  0  0  0
 23 80  1  0  0  0  0
 24 82  1  0  0  0  0
 25 83  1  0  0  0  0
 26 62  2  0  0  0  0
 27 66  1  0  0  0  0
 27 69  1  0  0  0  0
 28 54  1  0  0  0  0
 28 63  1  0  0  0  0
 28 64  2  0  0  0  0
 29 55  1  0  0  0  0
 29 63  2  0  0  0  0
 29 65  1  0  0  0  0
 30 60  1  0  0  0  0
 30 64  1  0  0  0  0
 30 65  2  0  0  0  0
 31 70  1  0  0  0  0
 31 75  2  0  0  0  0
 32 46  1  0  0  0  0
 32 71  1  0  0  0  0
 32 76  2  0  0  0  0
 33 58  1  0  0  0  0
 33 67  1  0  0  0  0
 33 77  2  0  0  0  0
 34 59  1  0  0  0  0
 34 72  1  0  0  0  0
 34 78  2  0  0  0  0
 35 68  1  0  0  0  0
 35 73  1  0  0  0  0
 35 79  2  0  0  0  0
 36 39  1  0  0  0  0
 37 46  1  0  0  0  0
 38 67  1  0  0  0  0
 39 41  1  0  0  0  0
 40 42  1  0  0  0  0
 40 43  1  0  0  0  0
 41 45  1  0  0  0  0
 42 47  1  0  0  0  0
 43 68  1  0  0  0  0
 44 47  1  0  0  0  0
 44 68  1  0  0  0  0
 45 71  1  0  0  0  0
 46 67  1  0  0  0  0
 47 66  1  0  0  0  0
 48 59  1  0  0  0  0
 49 61  1  0  0  0  0
 50 61  1  0  0  0  0
 51 61  1  0  0  0  0
 52 73  1  0  0  0  0
 53 74  1  0  0  0  0
 54 56  1  0  0  0  0
 55 73  1  0  0  0  0
 56 57  1  0  0  0  0
 57 81  1  0  0  0  0
 58 61  1  0  0  0  0
 58 72  1  0  0  0  0
 59 74  1  0  0  0  0
 60 84  1  0  0  0  0
 60 85  1  0  0  0  0
 60 86  1  0  0  0  0
 62 66  1  0  0  0  0
M  CHG  1  74   1
M  ISO  4  35 100  57 101  73 100  81 101
M  END
> <Batch ID>
0062

> <Smiles>
CNC(C)C(=O)NC(C(=O)N1Cc2cc([101O:1][101CH2:1]CCc3nc(C[100N:0](C)[100C:0](=O)N4CCCC(n5nc(-c6ccc(Oc7ccc(F)cc7F)cc6)c(C(N)=O)c5N)C4)nc(C(F)(F)F)n3)ccc2CC1C(=O)NC1CCCc2ccccc21)C(C)(C)C

> <Shape>
0.255

> <Color>
0.203

> <Negative vol penalty>
0.000

$$$$

  -OEChem-04052318003D

 91 99  0     1  0  0  0  0  0999 V2000
  -22.3130  -10.9765   20.7203 C   0  0  0  0  0  0  0  0  0  0  0  0
  -22.0902  -12.0465   21.5811 C   0  0  0  0  0  0  0  0  0  0  0  0
  -28.1869  -29.5912   20.0938 C   0  0  0  0  0  0  0  0  0  0  0  0
  -27.2732  -27.4307   20.6721 C   0  0  0  0  0  0  0  0  0  0  0  0
  -23.5334  -10.8600   20.0562 C   0  0  0  0  0  0  0  0  0  0  0  0
  -23.0881  -13.0001   21.7791 C   0  0  0  0  0  0  0  0  0  0  0  0
  -22.3100  -18.9981   22.7403 C   0  0  0  0  0  0  0  0  0  0  0  0
  -29.4339  -29.0055   19.8758 C   0  0  0  0  0  0  0  0  0  0  0  0
  -28.5202  -26.8450   20.4541 C   0  0  0  0  0  0  0  0  0  0  0  0
  -22.3031  -19.7687   23.9021 C   0  0  0  0  0  0  0  0  0  0  0  0
  -32.7700  -28.0228   18.8176 C   0  0  0  0  0  0  0  0  0  0  0  0
  -33.4708  -28.3973   17.6713 C   0  0  0  0  0  0  0  0  0  0  0  0
  -24.6268  -20.3118   23.5486 C   0  0  0  0  0  0  0  0  0  0  0  0
  -31.6557  -27.5882   16.2973 C   0  0  0  0  0  0  0  0  0  0  0  0
  -27.1065  -28.8038   20.4920 C   0  0  0  0  0  0  0  0  0  0  0  0
  -24.7882  -29.5916   19.7760 C   0  0  0  0  0  0  0  0  0  0  0  0
  -24.5432  -11.8179   20.2387 C   0  0  0  0  0  0  0  0  0  0  0  0
  -23.4803  -18.8695   21.9785 C   0  0  0  0  0  0  0  0  0  0  0  0
  -24.3237  -12.8956   21.1178 C   0  0  0  0  0  0  0  0  0  0  0  0
  -24.6452  -19.5410   22.3761 C   0  0  0  0  0  0  0  0  0  0  0  0
  -21.3201  -26.7995   23.4311 C   0  0  0  0  0  0  0  0  0  0  0  0
  -29.6005  -27.6324   20.0559 C   0  0  0  0  0  0  0  0  0  0  0  0
  -23.4623  -20.4234   24.3080 C   0  0  0  0  0  0  0  0  0  0  0  0
  -31.5120  -27.4310   18.7039 C   0  0  0  0  0  0  0  0  0  0  0  0
  -32.9137  -28.1800   16.4111 C   0  0  0  0  0  0  0  0  0  0  0  0
  -30.9549  -27.2137   17.4437 C   0  0  0  0  0  0  0  0  0  0  0  0
  -25.8183  -29.4084   20.7180 C   0  0  0  0  0  0  0  0  0  0  0  0
  -21.9768  -27.4347   24.4653 C   0  0  0  0  0  0  0  0  0  0  0  0
  -21.9021  -25.6316   22.9822 C   0  0  0  0  0  0  0  0  0  0  0  0
  -23.7824  -30.2050   20.4820 C   0  0  0  0  0  0  0  0  0  0  0  0
  -23.5827  -25.8262   24.5004 C   0  0  0  0  0  0  0  0  0  0  0  0
  -24.7445  -29.2388   18.3870 C   0  0  0  0  0  0  0  0  0  0  0  0
  -25.3549  -16.4437   21.1387 C   0  0  0  0  0  0  0  0  0  0  0  0
  -26.8284  -18.7112   19.3473 C   0  0  0  0  0  0  0  0  0  0  0  0
  -27.5182  -22.0167   18.8527 C   0  0  0  0  0  0  0  0  0  0  0  0
  -22.8277  -30.1988   26.5341 C   0  0  0  0  0  0  0  0  0  0  0  0
  -25.8633  -11.6240   19.5355 C   0  0  0  0  0  0  0  0  0  0  0  0
  -23.4642  -18.0562   20.7133 C   0  0  0  0  0  0  0  0  0  0  0  0
  -25.9222  -19.4516   21.5825 C   0  0  0  0  0  0  0  0  0  0  0  0
  -26.7309  -12.8798   19.5116 C   0  0  0  0  0  0  0  0  0  0  0  0
  -23.0340  -33.0828   24.2228 C   0  0  0  0  0  0  0  0  0  0  0  0
  -26.7726  -13.5262   20.8927 C   0  0  0  0  0  0  0  0  0  0  0  0
  -23.7509  -32.4884   23.0117 C   0  0  0  0  0  0  0  0  0  0  0  0
  -23.4167  -32.3684   25.5154 C   0  0  0  0  0  0  0  0  0  0  0  0
  -23.9304  -30.3004   24.2610 C   0  0  0  0  0  0  0  0  0  0  0  0
  -25.3725  -13.9637   21.3395 C   0  0  1  0  0  0  0  0  0  0  0  0
  -24.8505  -17.5782   20.2925 C   0  0  1  0  0  0  0  0  0  0  0  0
  -23.5314  -30.9675   22.9361 C   0  0  2  0  0  0  0  0  0  0  0  0
  -28.7799  -23.5590   17.3272 C   0  0  0  0  0  0  0  0  0  0  0  0
  -29.4454  -17.8871   20.6824 C   0  0  0  0  0  0  0  0  0  0  0  0
  -30.4559  -20.0263   19.8635 C   0  0  0  0  0  0  0  0  0  0  0  0
  -29.6224  -18.3366   18.2286 C   0  0  0  0  0  0  0  0  0  0  0  0
  -21.5979  -28.2711   27.4566 C   0  0  0  0  0  0  0  0  0  0  0  0
  -25.0449  -23.4240   18.0397 C   0  0  0  0  0  0  0  0  0  0  0  0
  -21.4398  -28.7071   25.0337 C   0  0  0  0  0  0  0  0  0  0  0  0
  -24.8518  -25.2781   25.1028 C   0  0  0  0  0  0  0  0  0  0  0  0
  -24.6488  -24.5979   26.4613 C   0  0  0  0  0  0  0  0  0  0  0  0
  -23.7493  -23.3635   26.3843 C   0  0  0  0  0  0  0  0  0  0  0  0
  -24.3479  -22.2908   25.4846 C   0  0  0  0  0  0  0  0  0  1  0  0
  -27.9598  -19.6846   19.5742 C   0  0  1  0  0  0  0  0  0  0  0  0
  -27.4458  -22.8859   17.6102 C   0  0  2  0  0  0  0  0  0  0  0  0
  -20.0656  -27.3381   22.8402 C   0  0  0  0  0  0  0  0  0  0  0  0
  -21.2819  -24.8572   21.8662 C   0  0  0  0  0  0  0  0  0  0  0  0
  -29.3475  -18.9840   19.6034 C   0  0  0  0  0  0  0  0  0  0  0  0
  -25.4965  -29.8683   21.9299 N   0  0  0  0  0  0  0  0  0  0  0  0
  -23.1145  -26.9743   25.0259 N   0  0  0  0  0  0  0  0  0  0  0  0
  -23.0375  -25.1142   23.4957 N   0  0  0  0  0  0  0  0  0  0  0  0
  -24.2529  -30.3468   21.7543 N   0  0  0  0  0  0  0  0  0  0  0  0
  -25.8577  -18.6392   20.3564 N   0  0  0  0  0  0  0  0  0  0  0  0
  -23.2393  -30.9204   25.4015 N   0  0  0  0  0  0  0  0  0  0  0  0
  -22.5503  -30.6317   20.1325 N   0  0  0  0  0  0  0  0  0  0  0  0
  -25.8643  -28.6144   17.8207 N   0  0  0  0  0  0  0  0  0  0  0  0
  -24.9916  -15.1928   20.6773 N   0  0  0  0  0  0  0  0  0  0  0  0
  -27.8294  -20.7094   18.5440 N   0  0  0  0  0  0  0  0  0  0  0  0
  -22.0583  -29.0465   26.3134 N   0  0  0  0  0  0  0  0  0  0  0  0
  -26.4113  -23.9453   17.7787 N   0  3  0  0  0  0  0  0  0  0  0  0
  -23.7485  -29.4851   17.6654 O   0  0  0  0  0  0  0  0  0  0  0  0
  -26.0253  -16.6852   22.1356 O   0  0  0  0  0  0  0  0  0  0  0  0
  -26.8030  -18.0448   18.3096 O   0  0  0  0  0  0  0  0  0  0  0  0
  -27.3223  -22.4546   19.9842 O   0  0  0  0  0  0  0  0  0  0  0  0
  -23.1226  -30.5691   27.6777 O   0  0  0  0  0  0  0  0  0  0  0  0
  -30.8171  -27.0605   19.8430 O   0  0  0  0  0  0  0  0  0  0  0  0
  -23.4585  -21.1757   25.4420 O   0  0  0  0  0  0  0  0  0  1  0  0
  -33.5862  -28.5410   15.3104 F   0  0  0  0  0  0  0  0  0  0  0  0
  -29.7462  -26.6466   17.3281 F   0  0  0  0  0  0  0  0  0  0  0  0
  -19.6406  -28.5031   23.4165 F   0  0  0  0  0  0  0  0  0  0  0  0
  -20.1624  -27.6199   21.5056 F   0  0  0  0  0  0  0  0  0  0  0  0
  -19.0139  -26.4731   22.9530 F   0  0  0  0  0  0  0  0  0  0  0  0
  -20.1374  -25.4213   21.3807 F   0  0  0  0  0  0  0  0  0  0  0  0
  -22.0987  -24.7154   20.7816 F   0  0  0  0  0  0  0  0  0  0  0  0
  -20.9387  -23.5898   22.2362 F   0  0  0  0  0  0  0  0  0  0  0  0
  1  2  1  0  0  0  0
  1  5  2  0  0  0  0
  2  6  2  0  0  0  0
  3  8  2  0  0  0  0
  3 15  1  0  0  0  0
  4  9  1  0  0  0  0
  4 15  2  0  0  0  0
  5 17  1  0  0  0  0
  6 19  1  0  0  0  0
  7 10  2  0  0  0  0
  7 18  1  0  0  0  0
  8 22  1  0  0  0  0
  9 22  2  0  0  0  0
 10 23  1  0  0  0  0
 11 12  2  0  0  0  0
 11 24  1  0  0  0  0
 12 25  1  0  0  0  0
 13 20  1  0  0  0  0
 13 23  2  0  0  0  0
 14 25  2  0  0  0  0
 14 26  1  0  0  0  0
 15 27  1  0  0  0  0
 16 27  1  0  0  0  0
 16 30  2  0  0  0  0
 16 32  1  0  0  0  0
 17 19  2  0  0  0  0
 17 37  1  0  0  0  0
 18 20  2  0  0  0  0
 18 38  1  0  0  0  0
 19 46  1  0  0  0  0
 20 39  1  0  0  0  0
 21 28  1  0  0  0  0
 21 29  2  0  0  0  0
 21 62  1  0  0  0  0
 22 82  1  0  0  0  0
 23 83  1  0  0  0  0
 24 26  2  0  0  0  0
 24 82  1  0  0  0  0
 25 84  1  0  0  0  0
 26 85  1  0  0  0  0
 27 65  2  0  0  0  0
 28 55  1  0  0  0  0
 28 66  2  0  0  0  0
 29 63  1  0  0  0  0
 29 67  1  0  0  0  0
 30 68  1  0  0  0  0
 30 71  1  0  0  0  0
 31 56  1  0  0  0  0
 31 66  1  0  0  0  0
 31 67  2  0  0  0  0
 32 72  1  0  0  0  0
 32 77  2  0  0  0  0
 33 47  1  0  0  0  0
 33 73  1  0  0  0  0
 33 78  2  0  0  0  0
 34 60  1  0  0  0  0
 34 69  1  0  0  0  0
 34 79  2  0  0  0  0
 35 61  1  0  0  0  0
 35 74  1  0  0  0  0
 35 80  2  0  0  0  0
 36 70  1  0  0  0  0
 36 75  1  0  0  0  0
 36 81  2  0  0  0  0
 37 40  1  0  0  0  0
 38 47  1  0  0  0  0
 39 69  1  0  0  0  0
 40 42  1  0  0  0  0
 41 43  1  0  0  0  0
 41 44  1  0  0  0  0
 42 46  1  0  0  0  0
 43 48  1  0  0  0  0
 44 70  1  0  0  0  0
 45 48  1  0  0  0  0
 45 70  1  0  0  0  0
 46 73  1  0  0  0  0
 47 69  1  0  0  0  0
 48 68  1  0  0  0  0
 49 61  1  0  0  0  0
 50 64  1  0  0  0  0
 51 64  1  0  0  0  0
 52 64  1  0  0  0  0
 53 75  1  0  0  0  0
 54 76  1  0  0  0  0
 55 75  1  0  0  0  0
 56 57  1  0  0  0  0
 57 58  1  0  0  0  0
 58 59  1  0  0  0  0
 59 83  1  0  0  0  0
 60 64  1  0  0  0  0
 60 74  1  0  0  0  0
 61 76  1  0  0  0  0
 62 86  1  0  0  0  0
 62 87  1  0  0  0  0
 62 88  1  0  0  0  0
 63 89  1  0  0  0  0
 63 90  1  0  0  0  0
 63 91  1  0  0  0  0
 65 68  1  0  0  0  0
M  CHG  1  76   1
M  ISO  4  36 100  59 101  75 100  83 101
M  END
> <Batch ID>
0062

> <Smiles>
CNC(C)C(=O)NC(C(=O)N1Cc2cc([101O:1][101CH2:1]CCCc3nc(C[100N:0](C)[100C:0](=O)N4CCCC(n5nc(-c6ccc(Oc7ccc(F)cc7F)cc6)c(C(N)=O)c5N)C4)c(C(F)(F)F)c(C(F)(F)F)n3)ccc2CC1C(=O)NC1CCCc2ccccc21)C(C)(C)C

> <Shape>
0.242

> <Color>
0.050

> <Negative vol penalty>
0.000

$$$$

  -OEChem-04052318003D

 89 97  0     1  0  0  0  0  0999 V2000
  -33.1150  -27.0382   17.8089 C   0  0  0  0  0  0  0  0  0  0  0  0
  -32.0005  -26.4762   18.4232 C   0  0  0  0  0  0  0  0  0  0  0  0
  -22.9681  -10.0225   19.9435 C   0  0  0  0  0  0  0  0  0  0  0  0
  -23.8163   -9.8778   22.2010 C   0  0  0  0  0  0  0  0  0  0  0  0
  -33.6231  -28.2533   18.2664 C   0  0  0  0  0  0  0  0  0  0  0  0
  -31.3940  -27.1284   19.4962 C   0  0  0  0  0  0  0  0  0  0  0  0
  -26.3444  -27.2032   19.1213 C   0  0  0  0  0  0  0  0  0  0  0  0
  -22.1697   -8.9017   20.1716 C   0  0  0  0  0  0  0  0  0  0  0  0
  -23.0179   -8.7571   22.4292 C   0  0  0  0  0  0  0  0  0  0  0  0
  -25.6636  -26.0337   19.4568 C   0  0  0  0  0  0  0  0  0  0  0  0
  -19.7754   -8.1116   23.1292 C   0  0  0  0  0  0  0  0  0  0  0  0
  -19.0638   -8.0579   24.3277 C   0  0  0  0  0  0  0  0  0  0  0  0
  -25.1471  -26.9628   21.6223 C   0  0  0  0  0  0  0  0  0  0  0  0
  -20.2199   -6.0216   24.9228 C   0  0  0  0  0  0  0  0  0  0  0  0
  -28.8372  -17.7884   21.0737 C   0  0  0  0  0  0  0  0  0  0  0  0
  -28.2348  -17.1893   23.2496 C   0  0  0  0  0  0  0  0  0  0  0  0
  -23.7915  -10.5105   20.9582 C   0  0  0  0  0  0  0  0  0  0  0  0
  -24.2726  -13.0157   20.9389 C   0  0  0  0  0  0  0  0  0  0  0  0
  -33.0167  -28.9256   19.3392 C   0  0  0  0  0  0  0  0  0  0  0  0
  -26.4411  -28.2588   20.0393 C   0  0  0  0  0  0  0  0  0  0  0  0
  -31.8953  -28.3530   19.9693 C   0  0  0  0  0  0  0  0  0  0  0  0
  -25.8275  -28.1456   21.2950 C   0  0  0  0  0  0  0  0  0  0  0  0
  -28.0567  -18.0457   22.1823 C   0  0  0  0  0  0  0  0  0  0  0  0
  -22.1945   -8.2690   21.4145 C   0  0  0  0  0  0  0  0  0  0  0  0
  -25.0673  -25.9122   20.7086 C   0  0  0  0  0  0  0  0  0  0  0  0
  -20.7092   -7.1204   22.8274 C   0  0  0  0  0  0  0  0  0  0  0  0
  -19.2861   -7.0129   25.2245 C   0  0  0  0  0  0  0  0  0  0  0  0
  -20.9315   -6.0754   23.7242 C   0  0  0  0  0  0  0  0  0  0  0  0
  -24.6169  -11.6678   20.7229 C   0  0  0  0  0  0  0  0  0  0  0  0
  -25.3909  -13.7199   20.5648 C   0  0  0  0  0  0  0  0  0  0  0  0
  -29.8078  -16.0115   22.1070 C   0  0  0  0  0  0  0  0  0  0  0  0
  -23.0512  -13.5805   21.4335 C   0  0  0  0  0  0  0  0  0  0  0  0
  -28.8376  -29.7321   21.5190 C   0  0  0  0  0  0  0  0  0  0  0  0
  -26.4746  -31.6988   22.5539 C   0  0  0  0  0  0  0  0  0  0  0  0
  -30.9480  -14.3511   20.6629 C   0  0  0  0  0  0  0  0  0  0  0  0
  -23.1573  -32.1393   23.2236 C   0  0  0  0  0  0  0  0  0  0  0  0
  -33.6303  -30.2134   19.8289 C   0  0  0  0  0  0  0  0  0  0  0  0
  -27.1561  -29.5242   19.6522 C   0  0  0  0  0  0  0  0  0  0  0  0
  -25.8851  -29.2579   22.3089 C   0  0  0  0  0  0  0  0  0  0  0  0
  -32.7037  -31.0255   20.7301 C   0  0  0  0  0  0  0  0  0  0  0  0
  -29.5567  -12.2442   18.1201 C   0  0  0  0  0  0  0  0  0  0  0  0
  -32.0562  -30.1267   21.7787 C   0  0  0  0  0  0  0  0  0  0  0  0
  -28.1292  -11.9926   18.6038 C   0  0  0  0  0  0  0  0  0  0  0  0
  -30.5336  -12.3380   19.2880 C   0  0  0  0  0  0  0  0  0  0  0  0
  -28.7318  -13.1095   20.7980 C   0  0  0  0  0  0  0  0  0  0  0  0
  -31.1947  -29.0425   21.1199 C   0  0  1  0  0  0  0  0  0  0  0  0
  -27.6316  -30.3337   20.8547 C   0  0  1  0  0  0  0  0  0  0  0  0
  -27.7080  -13.0386   19.6512 C   0  0  2  0  0  0  0  0  0  0  0  0
  -21.5328  -33.8417   24.0952 C   0  0  0  0  0  0  0  0  0  0  0  0
  -27.4550  -31.1757   25.3956 C   0  0  0  0  0  0  0  0  0  0  0  0
  -25.2830  -32.0920   26.2390 C   0  0  0  0  0  0  0  0  0  0  0  0
  -26.8257  -33.5509   24.9297 C   0  0  0  0  0  0  0  0  0  0  0  0
  -21.6383  -32.1605   20.6837 C   0  0  0  0  0  0  0  0  0  0  0  0
  -23.3032  -19.5406   21.8538 C   0  0  0  0  0  0  0  0  0  0  0  0
  -27.0760  -19.1818   22.2230 C   0  0  0  0  0  0  0  0  0  0  0  0
  -24.5619  -22.4040   21.3896 C   0  0  0  0  0  0  0  0  0  0  0  0
  -25.6805  -18.8096   21.7323 C   0  0  0  0  0  0  0  0  0  0  0  0
  -25.0215  -21.0505   20.8692 C   0  0  0  0  0  0  0  0  0  0  0  0
  -24.8572  -23.5585   20.4400 C   0  0  0  0  0  0  0  0  0  1  0  0
  -25.5465  -31.7205   23.7443 C   0  0  1  0  0  0  0  0  0  0  0  0
  -22.1956  -33.2555   22.8584 C   0  0  2  0  0  0  0  0  0  0  0  0
  -30.7777  -14.8797   22.0648 C   0  0  1  0  0  0  0  0  0  0  0  0
  -26.2779  -32.1129   25.0590 C   0  0  0  0  0  0  0  0  0  0  0  0
  -32.1580  -15.2653   22.6119 C   0  0  0  0  0  0  0  0  0  0  0  0
  -29.7263  -16.7762   21.0015 N   0  0  0  0  0  0  0  0  0  0  0  0
  -29.1046  -16.1579   23.2462 N   0  0  0  0  0  0  0  0  0  0  0  0
  -25.8569  -11.5221   20.2483 N   0  0  0  0  0  0  0  0  0  0  0  0
  -26.3014  -12.7874   20.1628 N   0  0  0  0  0  0  0  0  0  0  0  0
  -26.6011  -30.4727   21.8856 N   0  0  0  0  0  0  0  0  0  0  0  0
  -30.0866  -13.3259   20.2717 N   0  0  0  0  0  0  0  0  0  0  0  0
  -25.6743  -15.0396   20.5436 N   0  0  0  0  0  0  0  0  0  0  0  0
  -22.0028  -12.7138   21.7711 N   0  0  0  0  0  0  0  0  0  0  0  0
  -29.9307  -29.5966   20.6845 N   0  0  0  0  0  0  0  0  0  0  0  0
  -24.4443  -32.6068   23.3864 N   0  0  0  0  0  0  0  0  0  0  0  0
  -21.1292  -32.7444   21.9514 N   0  3  0  0  0  0  0  0  0  0  0  0
  -24.7453  -19.9876   21.8640 N   0  3  1  0  0  0  0  0  0  0  0  0
  -22.8883  -14.8182   21.5566 O   0  0  0  0  0  0  0  0  0  0  0  0
  -28.7812  -29.4159   22.7016 O   0  0  0  0  0  0  0  0  0  0  0  0
  -27.0602  -32.7333   22.2247 O   0  0  0  0  0  0  0  0  0  0  0  0
  -31.8192  -14.8381   19.9375 O   0  0  0  0  0  0  0  0  0  0  0  0
  -22.8018  -30.9701   23.3552 O   0  0  0  0  0  0  0  0  0  0  0  0
  -21.4154   -7.1756   21.6375 O   0  0  0  0  0  0  0  0  0  0  0  0
  -24.4028  -24.7715   21.0389 O   0  0  0  0  0  0  0  0  0  1  0  0
  -18.6038   -6.9623   26.3760 F   0  0  0  0  0  0  0  0  0  0  0  0
  -21.8282   -5.1208   23.4404 F   0  0  0  0  0  0  0  0  0  0  0  0
  -30.3782  -13.8103   22.8429 F   0  0  0  0  0  0  0  0  0  0  0  0
  -32.0889  -15.6700   23.9014 F   0  0  0  0  0  0  0  0  0  0  0  0
  -33.0327  -14.2385   22.5580 F   0  0  0  0  0  0  0  0  0  0  0  0
  -32.6815  -16.2883   21.8990 F   0  0  0  0  0  0  0  0  0  0  0  0
  1  2  1  0  0  0  0
  1  5  2  0  0  0  0
  2  6  2  0  0  0  0
  3  8  2  0  0  0  0
  3 17  1  0  0  0  0
  4  9  1  0  0  0  0
  4 17  2  0  0  0  0
  5 19  1  0  0  0  0
  6 21  1  0  0  0  0
  7 10  2  0  0  0  0
  7 20  1  0  0  0  0
  8 24  1  0  0  0  0
  9 24  2  0  0  0  0
 10 25  1  0  0  0  0
 11 12  2  0  0  0  0
 11 26  1  0  0  0  0
 12 27  1  0  0  0  0
 13 22  1  0  0  0  0
 13 25  2  0  0  0  0
 14 27  2  0  0  0  0
 14 28  1  0  0  0  0
 15 23  1  0  0  0  0
 15 65  2  0  0  0  0
 16 23  2  0  0  0  0
 16 66  1  0  0  0  0
 17 29  1  0  0  0  0
 18 29  1  0  0  0  0
 18 30  2  0  0  0  0
 18 32  1  0  0  0  0
 19 21  2  0  0  0  0
 19 37  1  0  0  0  0
 20 22  2  0  0  0  0
 20 38  1  0  0  0  0
 21 46  1  0  0  0  0
 22 39  1  0  0  0  0
 23 55  1  0  0  0  0
 24 82  1  0  0  0  0
 25 83  1  0  0  0  0
 26 28  2  0  0  0  0
 26 82  1  0  0  0  0
 27 84  1  0  0  0  0
 28 85  1  0  0  0  0
 29 67  2  0  0  0  0
 30 68  1  0  0  0  0
 30 71  1  0  0  0  0
 31 62  1  0  0  0  0
 31 65  1  0  0  0  0
 31 66  2  0  0  0  0
 32 72  1  0  0  0  0
 32 77  2  0  0  0  0
 33 47  1  0  0  0  0
 33 73  1  0  0  0  0
 33 78  2  0  0  0  0
 34 60  1  0  0  0  0
 34 69  1  0  0  0  0
 34 79  2  0  0  0  0
 35 62  1  0  0  0  0
 35 70  1  0  0  0  0
 35 80  2  0  0  0  0
 36 61  1  0  0  0  0
 36 74  1  0  0  0  0
 36 81  2  0  0  0  0
 37 40  1  0  0  0  0
 38 47  1  0  0  0  0
 39 69  1  0  0  0  0
 40 42  1  0  0  0  0
 41 43  1  0  0  0  0
 41 44  1  0  0  0  0
 42 46  1  0  0  0  0
 43 48  1  0  0  0  0
 44 70  1  0  0  0  0
 45 48  1  0  0  0  0
 45 70  1  0  0  0  0
 46 73  1  0  0  0  0
 47 69  1  0  0  0  0
 48 68  1  0  0  0  0
 49 61  1  0  0  0  0
 50 63  1  0  0  0  0
 51 63  1  0  0  0  0
 52 63  1  0  0  0  0
 53 75  1  0  0  0  0
 54 76  1  0  0  0  0
 55 57  1  0  0  0  0
 56 58  1  0  0  0  0
 56 59  1  0  0  0  0
 57 76  1  0  0  0  0
 58 76  1  0  0  0  0
 59 83  1  0  0  0  0
 60 63  1  0  0  0  0
 60 74  1  0  0  0  0
 61 75  1  0  0  0  0
 62 64  1  0  0  0  0
 62 86  1  0  0  0  0
 64 87  1  0  0  0  0
 64 88  1  0  0  0  0
 64 89  1  0  0  0  0
 67 68  1  0  0  0  0
M  CHG  2  75   1  76   1
M  ISO  4  35 100  59 101  62 100  83 101
M  END
> <Batch ID>
0062

> <Smiles>
CNC(C)C(=O)NC(C(=O)N1Cc2cc([101O:1][101CH2:1]CCN(C)CCc3cnc([100C:0](F)([100C:0](=O)N4CCCC(n5nc(-c6ccc(Oc7ccc(F)cc7F)cc6)c(C(N)=O)c5N)C4)C(F)(F)F)nc3)ccc2CC1C(=O)NC1CCCc2ccccc21)C(C)(C)C

> <Shape>
0.310

> <Color>
0.206

> <Negative vol penalty>
0.000

$$$$

  -OEChem-04052318003D

 82 90  0     1  0  0  0  0  0999 V2000
  -27.2481  -34.2134   22.1991 C   0  0  0  0  0  0  0  0  0  0  0  0
  -27.5051  -32.8472   22.1453 C   0  0  0  0  0  0  0  0  0  0  0  0
  -31.1542  -22.5396   20.9775 C   0  0  0  0  0  0  0  0  0  0  0  0
  -24.2115  -14.0196   21.0232 C   0  0  0  0  0  0  0  0  0  0  0  0
  -26.4372  -13.7063   20.1370 C   0  0  0  0  0  0  0  0  0  0  0  0
  -26.0280  -34.6732   22.6929 C   0  0  0  0  0  0  0  0  0  0  0  0
  -26.5423  -31.9400   22.5862 C   0  0  0  0  0  0  0  0  0  0  0  0
  -25.9567  -28.0347   19.4159 C   0  0  0  0  0  0  0  0  0  0  0  0
  -23.8744  -12.7229   20.6350 C   0  0  0  0  0  0  0  0  0  0  0  0
  -26.1001  -12.4096   19.7489 C   0  0  0  0  0  0  0  0  0  0  0  0
  -26.9183  -27.0264   19.4633 C   0  0  0  0  0  0  0  0  0  0  0  0
  -22.5390   -9.3698   20.2012 C   0  0  0  0  0  0  0  0  0  0  0  0
  -21.8428   -8.5795   21.1156 C   0  0  0  0  0  0  0  0  0  0  0  0
  -30.3431  -23.6643   20.8764 C   0  0  0  0  0  0  0  0  0  0  0  0
  -31.3013  -21.6947   19.8831 C   0  0  0  0  0  0  0  0  0  0  0  0
  -25.4328  -25.6813   20.8061 C   0  0  0  0  0  0  0  0  0  0  0  0
  -23.6694   -8.7844   22.6836 C   0  0  0  0  0  0  0  0  0  0  0  0
  -25.4929  -14.5113   20.7741 C   0  0  0  0  0  0  0  0  0  0  0  0
  -26.3893  -16.2545   22.4067 C   0  0  0  0  0  0  0  0  0  0  0  0
  -25.0460  -33.7708   23.1311 C   0  0  0  0  0  0  0  0  0  0  0  0
  -24.7281  -27.8781   20.0734 C   0  0  0  0  0  0  0  0  0  0  0  0
  -25.3084  -32.3881   23.0875 C   0  0  0  0  0  0  0  0  0  0  0  0
  -24.4563  -26.6881   20.7633 C   0  0  0  0  0  0  0  0  0  0  0  0
  -24.8187  -11.9179   19.9979 C   0  0  0  0  0  0  0  0  0  0  0  0
  -26.6576  -25.8506   20.1609 C   0  0  0  0  0  0  0  0  0  0  0  0
  -23.8006   -9.8673   20.5279 C   0  0  0  0  0  0  0  0  0  0  0  0
  -22.4079   -8.2868   22.3568 C   0  0  0  0  0  0  0  0  0  0  0  0
  -24.3657   -9.5747   21.7691 C   0  0  0  0  0  0  0  0  0  0  0  0
  -25.8415  -15.8508   21.1743 C   0  0  0  0  0  0  0  0  0  0  0  0
  -29.7058  -23.8978   19.6685 C   0  0  0  0  0  0  0  0  0  0  0  0
  -30.6209  -22.0163   18.7197 C   0  0  0  0  0  0  0  0  0  0  0  0
  -26.5347  -17.6151   22.2886 C   0  0  0  0  0  0  0  0  0  0  0  0
  -26.7357  -15.4697   23.5555 C   0  0  0  0  0  0  0  0  0  0  0  0
  -23.2358  -29.4004   22.4313 C   0  0  0  0  0  0  0  0  0  0  0  0
  -20.8072  -27.3897   21.6689 C   0  0  0  0  0  0  0  0  0  0  0  0
  -19.8219  -24.4332   20.2779 C   0  0  0  0  0  0  0  0  0  0  0  0
  -27.1792  -21.2532   17.5769 C   0  0  0  0  0  0  0  0  0  0  0  0
  -23.7607  -34.3167   23.7008 C   0  0  0  0  0  0  0  0  0  0  0  0
  -23.6909  -28.9643   19.9903 C   0  0  0  0  0  0  0  0  0  0  0  0
  -23.1450  -26.4623   21.4690 C   0  0  0  0  0  0  0  0  0  0  0  0
  -22.6478  -33.2766   23.7992 C   0  0  0  0  0  0  0  0  0  0  0  0
  -24.6389  -21.4047   20.0669 C   0  0  0  0  0  0  0  0  0  0  0  0
  -23.1786  -31.9828   24.4086 C   0  0  0  0  0  0  0  0  0  0  0  0
  -24.7085  -20.0349   20.7443 C   0  0  0  0  0  0  0  0  0  0  0  0
  -24.9092  -21.3070   18.5671 C   0  0  0  0  0  0  0  0  0  0  0  0
  -26.2357  -19.2544   18.8849 C   0  0  0  0  0  0  0  0  0  0  0  0
  -24.2796  -31.3719   23.5334 C   0  0  1  0  0  0  0  0  0  0  0  0
  -22.6750  -28.9087   21.1270 C   0  0  1  0  0  0  0  0  0  0  0  0
  -26.0250  -19.3092   20.4077 C   0  0  2  0  0  0  0  0  0  0  0  0
  -17.7758  -23.0490   19.8363 C   0  0  0  0  0  0  0  0  0  0  0  0
  -31.9339  -21.5766   16.6338 C   0  0  0  0  0  0  0  0  0  0  0  0
  -20.7329  -26.5668   24.6061 C   0  0  0  0  0  0  0  0  0  0  0  0
  -19.3847  -24.5654   23.9392 C   0  0  0  0  0  0  0  0  0  0  0  0
  -18.4861  -26.8592   23.5475 C   0  0  0  0  0  0  0  0  0  0  0  0
  -20.2405  -24.5389   17.3500 C   0  0  0  0  0  0  0  0  0  0  0  0
  -28.8230  -25.1024   19.5230 C   0  0  0  0  0  0  0  0  0  1  0  0
  -29.4754  -21.0540   16.6564 C   0  0  0  0  0  0  0  0  0  0  0  0
  -20.3838  -26.0093   22.1095 C   0  0  1  0  0  0  0  0  0  0  0  0
  -18.7218  -24.1043   19.2848 C   0  0  2  0  0  0  0  0  0  0  0  0
  -30.7555  -21.1321   17.5249 C   0  0  2  0  0  0  0  0  0  0  0  0
  -19.7724  -26.0049   23.5390 C   0  0  0  0  0  0  0  0  0  0  0  0
  -25.6518  -16.8724   20.3350 N   0  0  0  0  0  0  0  0  0  0  0  0
  -29.8242  -23.1000   18.5836 N   0  0  0  0  0  0  0  0  0  0  0  0
  -26.0825  -17.9315   21.0413 N   0  0  0  0  0  0  0  0  0  0  0  0
  -22.1655  -27.5564   21.3639 N   0  0  0  0  0  0  0  0  0  0  0  0
  -26.1729  -20.6099   18.3161 N   0  0  0  0  0  0  0  0  0  0  0  0
  -27.0039  -18.5599   23.1311 N   0  0  0  0  0  0  0  0  0  0  0  0
  -26.5213  -14.0854   23.5084 N   0  0  0  0  0  0  0  0  0  0  0  0
  -23.7014  -30.7007   22.3890 N   0  0  0  0  0  0  0  0  0  0  0  0
  -19.4865  -25.5077   21.0743 N   0  0  0  0  0  0  0  0  0  0  0  0
  -28.3476  -20.5246   17.3903 N   0  0  0  0  0  0  0  0  0  0  0  0
  -19.3076  -23.5923   18.0137 N   0  3  0  0  0  0  0  0  0  0  0  0
  -27.2057  -15.9829   24.5991 O   0  0  0  0  0  0  0  0  0  0  0  0
  -23.2441  -28.6557   23.4045 O   0  0  0  0  0  0  0  0  0  0  0  0
  -19.9624  -28.2853   21.5911 O   0  0  0  0  0  0  0  0  0  0  0  0
  -20.8720  -23.7979   20.3433 O   0  0  0  0  0  0  0  0  0  0  0  0
  -27.0483  -22.3945   17.1217 O   0  0  0  0  0  0  0  0  0  0  0  0
  -24.4902  -10.6525   19.6193 O   0  0  0  0  0  0  0  0  0  0  0  0
  -27.5947  -24.8650   20.2094 O   0  0  0  0  0  0  0  0  0  1  0  0
  -21.7385   -7.5291   23.2354 F   0  0  0  0  0  0  0  0  0  0  0  0
  -25.5768  -10.0508   22.0891 F   0  0  0  0  0  0  0  0  0  0  0  0
  -31.0475  -19.8184   17.8539 F   0  0  0  0  0  0  0  0  0  0  0  0
  1  2  1  0  0  0  0
  1  6  2  0  0  0  0
  2  7  2  0  0  0  0
  3 14  2  0  0  0  0
  3 15  1  0  0  0  0
  4  9  2  0  0  0  0
  4 18  1  0  0  0  0
  5 10  1  0  0  0  0
  5 18  2  0  0  0  0
  6 20  1  0  0  0  0
  7 22  1  0  0  0  0
  8 11  2  0  0  0  0
  8 21  1  0  0  0  0
  9 24  1  0  0  0  0
 10 24  2  0  0  0  0
 11 25  1  0  0  0  0
 12 13  2  0  0  0  0
 12 26  1  0  0  0  0
 13 27  1  0  0  0  0
 14 30  1  0  0  0  0
 15 31  2  0  0  0  0
 16 23  1  0  0  0  0
 16 25  2  0  0  0  0
 17 27  2  0  0  0  0
 17 28  1  0  0  0  0
 18 29  1  0  0  0  0
 19 29  1  0  0  0  0
 19 32  2  0  0  0  0
 19 33  1  0  0  0  0
 20 22  2  0  0  0  0
 20 38  1  0  0  0  0
 21 23  2  0  0  0  0
 21 39  1  0  0  0  0
 22 47  1  0  0  0  0
 23 40  1  0  0  0  0
 24 78  1  0  0  0  0
 25 79  1  0  0  0  0
 26 28  2  0  0  0  0
 26 78  1  0  0  0  0
 27 80  1  0  0  0  0
 28 81  1  0  0  0  0
 29 62  2  0  0  0  0
 30 56  1  0  0  0  0
 30 63  2  0  0  0  0
 31 60  1  0  0  0  0
 31 63  1  0  0  0  0
 32 64  1  0  0  0  0
 32 67  1  0  0  0  0
 33 68  1  0  0  0  0
 33 73  2  0  0  0  0
 34 48  1  0  0  0  0
 34 69  1  0  0  0  0
 34 74  2  0  0  0  0
 35 58  1  0  0  0  0
 35 65  1  0  0  0  0
 35 75  2  0  0  0  0
 36 59  1  0  0  0  0
 36 70  1  0  0  0  0
 36 76  2  0  0  0  0
 37 66  1  0  0  0  0
 37 71  1  0  0  0  0
 37 77  2  0  0  0  0
 38 41  1  0  0  0  0
 39 48  1  0  0  0  0
 40 65  1  0  0  0  0
 41 43  1  0  0  0  0
 42 44  1  0  0  0  0
 42 45  1  0  0  0  0
 43 47  1  0  0  0  0
 44 49  1  0  0  0  0
 45 66  1  0  0  0  0
 46 49  1  0  0  0  0
 46 66  1  0  0  0  0
 47 69  1  0  0  0  0
 48 65  1  0  0  0  0
 49 64  1  0  0  0  0
 50 59  1  0  0  0  0
 51 60  1  0  0  0  0
 52 61  1  0  0  0  0
 53 61  1  0  0  0  0
 54 61  1  0  0  0  0
 55 72  1  0  0  0  0
 56 79  1  0  0  0  0
 57 60  1  0  0  0  0
 57 71  1  0  0  0  0
 58 61  1  0  0  0  0
 58 70  1  0  0  0  0
 59 72  1  0  0  0  0
 60 82  1  0  0  0  0
 62 64  1  0  0  0  0
M  CHG  1  72   1
M  ISO  4  37 100  56 101  71 100  79 101
M  END
> <Batch ID>
0062

> <Smiles>
CNC(C)C(=O)NC(C(=O)N1Cc2cc([101O:1][101CH2:1]c3cccc(C(C)(F)C[100NH:0][100C:0](=O)N4CCCC(n5nc(-c6ccc(Oc7ccc(F)cc7F)cc6)c(C(N)=O)c5N)C4)n3)ccc2CC1C(=O)NC1CCCc2ccccc21)C(C)(C)C

> <Shape>
0.243

> <Color>
0.061

> <Negative vol penalty>
0.000

$$$$

  -OEChem-04052318003D

 88 96  0     1  0  0  0  0  0999 V2000
  -25.8243  -29.9624   24.6740 C   0  0  0  0  0  0  0  0  0  0  0  0
  -26.3211  -28.7153   24.3086 C   0  0  0  0  0  0  0  0  0  0  0  0
  -23.6897  -10.0665   22.1041 C   0  0  0  0  0  0  0  0  0  0  0  0
  -24.3284  -11.4516   23.9778 C   0  0  0  0  0  0  0  0  0  0  0  0
  -25.0711  -30.7049   23.7655 C   0  0  0  0  0  0  0  0  0  0  0  0
  -26.0640  -28.2096   23.0348 C   0  0  0  0  0  0  0  0  0  0  0  0
  -30.1759  -26.1836   20.8825 C   0  0  0  0  0  0  0  0  0  0  0  0
  -23.1338   -9.1357   22.9816 C   0  0  0  0  0  0  0  0  0  0  0  0
  -23.7724  -10.5207   24.8554 C   0  0  0  0  0  0  0  0  0  0  0  0
  -30.5531  -24.9095   21.3044 C   0  0  0  0  0  0  0  0  0  0  0  0
  -21.8653   -6.2218   24.7490 C   0  0  0  0  0  0  0  0  0  0  0  0
  -22.1410   -4.8728   24.5260 C   0  0  0  0  0  0  0  0  0  0  0  0
  -29.5137  -23.9598   19.3456 C   0  0  0  0  0  0  0  0  0  0  0  0
  -24.5022   -5.3120   24.7887 C   0  0  0  0  0  0  0  0  0  0  0  0
  -29.5015  -16.4132   22.7225 C   0  0  0  0  0  0  0  0  0  0  0  0
  -24.2870  -11.2245   22.6022 C   0  0  0  0  0  0  0  0  0  0  0  0
  -24.2158  -13.2872   21.1029 C   0  0  0  0  0  0  0  0  0  0  0  0
  -24.8128  -30.2122   22.4767 C   0  0  0  0  0  0  0  0  0  0  0  0
  -29.4541  -26.3547   19.6925 C   0  0  0  0  0  0  0  0  0  0  0  0
  -25.3055  -28.9456   22.1087 C   0  0  0  0  0  0  0  0  0  0  0  0
  -29.1307  -25.2374   18.9095 C   0  0  0  0  0  0  0  0  0  0  0  0
  -29.2596  -17.6506   22.1778 C   0  0  0  0  0  0  0  0  0  0  0  0
  -23.1751   -9.3628   24.3573 C   0  0  0  0  0  0  0  0  0  0  0  0
  -30.2195  -23.7970   20.5374 C   0  0  0  0  0  0  0  0  0  0  0  0
  -22.9080   -7.1159   24.9918 C   0  0  0  0  0  0  0  0  0  0  0  0
  -23.4595   -4.4179   24.5458 C   0  0  0  0  0  0  0  0  0  0  0  0
  -24.2265   -6.6610   25.0117 C   0  0  0  0  0  0  0  0  0  0  0  0
  -24.8620  -12.1861   21.6963 C   0  0  0  0  0  0  0  0  0  0  0  0
  -30.0537  -17.6850   21.0159 C   0  0  0  0  0  0  0  0  0  0  0  0
  -25.1864  -13.8814   20.3339 C   0  0  0  0  0  0  0  0  0  0  0  0
  -22.8596  -13.7330   21.2351 C   0  0  0  0  0  0  0  0  0  0  0  0
  -26.5835  -27.5041   18.9557 C   0  0  0  0  0  0  0  0  0  0  0  0
  -31.1843  -13.8354   20.7019 C   0  0  0  0  0  0  0  0  0  0  0  0
  -27.6223  -27.0742   15.9130 C   0  0  0  0  0  0  0  0  0  0  0  0
  -29.7163  -25.4401   13.7701 C   0  0  0  0  0  0  0  0  0  0  0  0
  -23.9538  -31.0305   21.5454 C   0  0  0  0  0  0  0  0  0  0  0  0
  -29.0779  -27.7382   19.2377 C   0  0  0  0  0  0  0  0  0  0  0  0
  -28.3744  -25.3691   17.6137 C   0  0  0  0  0  0  0  0  0  0  0  0
  -24.0426  -30.5871   20.0874 C   0  0  0  0  0  0  0  0  0  0  0  0
  -29.1708  -12.8880   17.8934 C   0  0  0  0  0  0  0  0  0  0  0  0
  -23.9235  -29.0700   19.9826 C   0  0  0  0  0  0  0  0  0  0  0  0
  -27.7853  -12.6730   18.5011 C   0  0  0  0  0  0  0  0  0  0  0  0
  -30.2750  -12.4636   18.8565 C   0  0  0  0  0  0  0  0  0  0  0  0
  -28.8165  -12.9110   20.8044 C   0  0  0  0  0  0  0  0  0  0  0  0
  -25.0688  -28.3739   20.7277 C   0  0  1  0  0  0  0  0  0  0  0  0
  -27.8981  -27.7491   18.2705 C   0  0  1  0  0  0  0  0  0  0  0  0
  -27.6727  -13.3557   19.8758 C   0  0  2  0  0  0  0  0  0  0  0  0
  -26.2053  -17.2330   22.6382 C   0  0  0  0  0  0  0  0  0  0  0  0
  -32.2400  -14.4843   22.8559 C   0  0  0  0  0  0  0  0  0  0  0  0
  -30.3077  -25.2747   11.3369 C   0  0  0  0  0  0  0  0  0  0  0  0
  -32.2725  -20.1850   20.7822 C   0  0  0  0  0  0  0  0  0  0  0  0
  -28.7798  -20.1843   22.3784 C   0  0  0  0  0  0  0  0  0  0  0  0
  -28.3210  -18.6528   24.2725 C   0  0  0  0  0  0  0  0  0  0  0  0
  -28.7756  -19.0984   19.4021 C   0  0  0  0  0  0  0  0  0  0  0  0
  -31.0887  -18.4715   18.7853 C   0  0  0  0  0  0  0  0  0  0  0  0
  -25.0873  -25.4524   15.4095 C   0  0  0  0  0  0  0  0  0  0  0  0
  -26.1631  -24.5439   13.3394 C   0  0  0  0  0  0  0  0  0  0  0  0
  -25.7284  -26.9916   13.5456 C   0  0  0  0  0  0  0  0  0  0  0  0
  -32.5018  -26.3067   14.2690 C   0  0  0  0  0  0  0  0  0  0  0  0
  -26.8628  -18.5465   22.2244 C   0  0  0  0  0  0  0  0  0  0  0  0
  -30.2110  -21.4571   20.1125 C   0  0  0  0  0  0  0  0  0  1  0  0
  -30.9477  -14.4828   22.0431 C   0  0  1  0  0  0  0  0  0  0  0  0
  -27.5742  -25.9408   14.9169 C   0  0  1  0  0  0  0  0  0  0  0  0
  -30.6223  -25.9488   12.6633 C   0  0  2  0  0  0  0  0  0  0  0  0
  -30.7324  -20.1367   20.7159 C   0  0  1  0  0  0  0  0  0  0  0  0
  -28.3671  -18.6981   22.7021 C   0  0  0  0  0  0  0  0  0  0  0  0
  -30.1884  -18.8390   19.9921 C   0  0  0  0  0  0  0  0  0  0  0  0
  -26.1508  -25.7292   14.3282 C   0  0  0  0  0  0  0  0  0  0  0  0
  -26.1439  -12.0845   21.3351 N   0  0  0  0  0  0  0  0  0  0  0  0
  -30.7482  -16.5589   20.8325 N   0  0  0  0  0  0  0  0  0  0  0  0
  -30.3914  -15.8054   21.8865 N   0  0  0  0  0  0  0  0  0  0  0  0
  -26.3110  -13.1292   20.5064 N   0  0  0  0  0  0  0  0  0  0  0  0
  -28.0235  -26.7421   17.2147 N   0  0  0  0  0  0  0  0  0  0  0  0
  -30.1199  -13.1165   20.1576 N   0  0  0  0  0  0  0  0  0  0  0  0
  -25.1791  -14.9686   19.5337 N   0  0  0  0  0  0  0  0  0  0  0  0
  -21.9954  -13.0065   22.0657 N   0  0  0  0  0  0  0  0  0  0  0  0
  -26.2847  -28.4222   19.9442 N   0  0  0  0  0  0  0  0  0  0  0  0
  -28.5969  -26.2316   13.9180 N   0  0  0  0  0  0  0  0  0  0  0  0
  -32.0497  -25.6825   12.9990 N   0  3  0  0  0  0  0  0  0  0  0  0
  -22.4224  -14.7360   20.6216 O   0  0  0  0  0  0  0  0  0  0  0  0
  -25.8910  -26.5534   18.6120 O   0  0  0  0  0  0  0  0  0  0  0  0
  -32.2820  -13.9682   20.1546 O   0  0  0  0  0  0  0  0  0  0  0  0
  -27.3221  -28.2135   15.5476 O   0  0  0  0  0  0  0  0  0  0  0  0
  -29.9738  -24.4386   14.4343 O   0  0  0  0  0  0  0  0  0  0  0  0
  -22.6326   -8.4548   25.2139 O   0  0  0  0  0  0  0  0  0  0  0  0
  -30.5858  -22.5522   20.9472 O   0  0  0  0  0  0  0  0  0  1  0  0
  -23.7240   -3.1221   24.3332 F   0  0  0  0  0  0  0  0  0  0  0  0
  -25.2323   -7.5151   25.2456 F   0  0  0  0  0  0  0  0  0  0  0  0
  1  2  1  0  0  0  0
  1  5  2  0  0  0  0
  2  6  2  0  0  0  0
  3  8  2  0  0  0  0
  3 16  1  0  0  0  0
  4  9  1  0  0  0  0
  4 16  2  0  0  0  0
  5 18  1  0  0  0  0
  6 20  1  0  0  0  0
  7 10  2  0  0  0  0
  7 19  1  0  0  0  0
  8 23  1  0  0  0  0
  9 23  2  0  0  0  0
 10 24  1  0  0  0  0
 11 12  2  0  0  0  0
 11 25  1  0  0  0  0
 12 26  1  0  0  0  0
 13 21  1  0  0  0  0
 13 24  2  0  0  0  0
 14 26  2  0  0  0  0
 14 27  1  0  0  0  0
 15 22  2  0  0  0  0
 15 71  1  0  0  0  0
 16 28  1  0  0  0  0
 17 28  1  0  0  0  0
 17 30  2  0  0  0  0
 17 31  1  0  0  0  0
 18 20  2  0  0  0  0
 18 36  1  0  0  0  0
 19 21  2  0  0  0  0
 19 37  1  0  0  0  0
 20 45  1  0  0  0  0
 21 38  1  0  0  0  0
 22 29  1  0  0  0  0
 22 66  1  0  0  0  0
 23 85  1  0  0  0  0
 24 86  1  0  0  0  0
 25 27  2  0  0  0  0
 25 85  1  0  0  0  0
 26 87  1  0  0  0  0
 27 88  1  0  0  0  0
 28 69  2  0  0  0  0
 29 67  1  0  0  0  0
 29 70  2  0  0  0  0
 30 72  1  0  0  0  0
 30 75  1  0  0  0  0
 31 76  1  0  0  0  0
 31 80  2  0  0  0  0
 32 46  1  0  0  0  0
 32 77  1  0  0  0  0
 32 81  2  0  0  0  0
 33 62  1  0  0  0  0
 33 74  1  0  0  0  0
 33 82  2  0  0  0  0
 34 63  1  0  0  0  0
 34 73  1  0  0  0  0
 34 83  2  0  0  0  0
 35 64  1  0  0  0  0
 35 78  1  0  0  0  0
 35 84  2  0  0  0  0
 36 39  1  0  0  0  0
 37 46  1  0  0  0  0
 38 73  1  0  0  0  0
 39 41  1  0  0  0  0
 40 42  1  0  0  0  0
 40 43  1  0  0  0  0
 41 45  1  0  0  0  0
 42 47  1  0  0  0  0
 43 74  1  0  0  0  0
 44 47  1  0  0  0  0
 44 74  1  0  0  0  0
 45 77  1  0  0  0  0
 46 73  1  0  0  0  0
 47 72  1  0  0  0  0
 48 60  1  0  0  0  0
 49 62  1  0  0  0  0
 50 64  1  0  0  0  0
 51 65  1  0  0  0  0
 52 66  1  0  0  0  0
 53 66  1  0  0  0  0
 54 67  1  0  0  0  0
 55 67  1  0  0  0  0
 56 68  1  0  0  0  0
 57 68  1  0  0  0  0
 58 68  1  0  0  0  0
 59 79  1  0  0  0  0
 60 66  1  0  0  0  0
 61 65  1  0  0  0  0
 61 86  1  0  0  0  0
 62 71  1  0  0  0  0
 63 68  1  0  0  0  0
 63 78  1  0  0  0  0
 64 79  1  0  0  0  0
 65 67  1  0  0  0  0
 69 72  1  0  0  0  0
 70 71  1  0  0  0  0
M  CHG  1  79   1
M  ISO  4  33 100  61 101  62 100  86 101
M  END
> <Batch ID>
0062

> <Smiles>
CCC(C)(C)c1cn([100CH:0](C)[100C:0](=O)N2CCCC(n3nc(-c4ccc(Oc5ccc(F)cc5F)cc4)c(C(N)=O)c3N)C2)nc1C(C)(C)C(C)[101CH2:1][101O:1]c1ccc2c(c1)CN(C(=O)C(NC(=O)C(C)NC)C(C)(C)C)C(C(=O)NC1CCCc3ccccc31)C2

> <Shape>
0.282

> <Color>
0.123

> <Negative vol penalty>
0.000

$$$$

  -OEChem-04052318003D

 84 92  0     1  0  0  0  0  0999 V2000
  -31.0673  -25.2043   17.9273 C   0  0  0  0  0  0  0  0  0  0  0  0
  -30.0872  -24.3222   18.3709 C   0  0  0  0  0  0  0  0  0  0  0  0
  -27.2490  -17.0995   19.0581 C   0  0  0  0  0  0  0  0  0  0  0  0
  -27.6090  -17.0704   21.4470 C   0  0  0  0  0  0  0  0  0  0  0  0
  -31.1936  -26.4598   18.5204 C   0  0  0  0  0  0  0  0  0  0  0  0
  -29.2335  -24.6947   19.4086 C   0  0  0  0  0  0  0  0  0  0  0  0
  -23.3408  -23.1588   20.0589 C   0  0  0  0  0  0  0  0  0  0  0  0
  -27.7853  -18.3854   18.9930 C   0  0  0  0  0  0  0  0  0  0  0  0
  -28.1454  -18.3563   21.3818 C   0  0  0  0  0  0  0  0  0  0  0  0
  -22.7061  -22.1733   20.8137 C   0  0  0  0  0  0  0  0  0  0  0  0
  -26.9949  -21.5264   21.1417 C   0  0  0  0  0  0  0  0  0  0  0  0
  -26.5773  -22.4520   22.0980 C   0  0  0  0  0  0  0  0  0  0  0  0
  -22.2901  -23.7861   22.5587 C   0  0  0  0  0  0  0  0  0  0  0  0
  -28.8584  -22.6991   22.8548 C   0  0  0  0  0  0  0  0  0  0  0  0
  -27.1607  -16.4420   20.2852 C   0  0  0  0  0  0  0  0  0  0  0  0
  -27.3010  -13.8953   20.2338 C   0  0  0  0  0  0  0  0  0  0  0  0
  -30.3347  -26.8516   19.5594 C   0  0  0  0  0  0  0  0  0  0  0  0
  -23.4647  -24.4650   20.5539 C   0  0  0  0  0  0  0  0  0  0  0  0
  -29.3493  -25.9561   20.0170 C   0  0  0  0  0  0  0  0  0  0  0  0
  -22.9245  -24.7870   21.8071 C   0  0  0  0  0  0  0  0  0  0  0  0
  -28.2336  -19.0138   20.1548 C   0  0  0  0  0  0  0  0  0  0  0  0
  -22.1832  -22.4861   22.0650 C   0  0  0  0  0  0  0  0  0  0  0  0
  -28.3442  -21.1871   21.0420 C   0  0  0  0  0  0  0  0  0  0  0  0
  -27.5091  -23.0384   22.9545 C   0  0  0  0  0  0  0  0  0  0  0  0
  -29.2759  -21.7734   21.8985 C   0  0  0  0  0  0  0  0  0  0  0  0
  -26.6062  -15.1138   20.3532 C   0  0  0  0  0  0  0  0  0  0  0  0
  -26.3311  -12.9323   20.3691 C   0  0  0  0  0  0  0  0  0  0  0  0
  -22.5563  -15.7452   25.0228 C   0  0  0  0  0  0  0  0  0  0  0  0
  -22.5983  -13.5836   24.8366 C   0  0  0  0  0  0  0  0  0  0  0  0
  -28.6983  -13.6555   20.0198 C   0  0  0  0  0  0  0  0  0  0  0  0
  -25.9061  -26.3606   21.2954 C   0  0  0  0  0  0  0  0  0  0  0  0
  -23.5608  -28.5577   21.7363 C   0  0  0  0  0  0  0  0  0  0  0  0
  -21.4296  -11.9982   23.3439 C   0  0  0  0  0  0  0  0  0  0  0  0
  -20.2769  -29.1939   22.4128 C   0  0  0  0  0  0  0  0  0  0  0  0
  -30.5402  -28.2007   20.2014 C   0  0  0  0  0  0  0  0  0  0  0  0
  -24.1285  -25.5231   19.7159 C   0  0  0  0  0  0  0  0  0  0  0  0
  -23.0134  -26.1791   22.3750 C   0  0  0  0  0  0  0  0  0  0  0  0
  -29.3531  -28.6620   21.0429 C   0  0  0  0  0  0  0  0  0  0  0  0
  -21.4236  -12.8202   19.8561 C   0  0  0  0  0  0  0  0  0  0  0  0
  -28.8695  -27.5333   21.9478 C   0  0  0  0  0  0  0  0  0  0  0  0
  -22.8153  -13.4065   19.6231 C   0  0  0  0  0  0  0  0  0  0  0  0
  -20.8907  -13.1796   21.2396 C   0  0  0  0  0  0  0  0  0  0  0  0
  -23.1910  -13.3747   22.1297 C   0  0  0  0  0  0  0  0  0  0  0  0
  -28.3882  -26.3331   21.1235 C   0  0  1  0  0  0  0  0  0  0  0  0
  -24.6519  -26.6961   20.5391 C   0  0  1  0  0  0  0  0  0  0  0  0
  -23.7791  -13.0094   20.7553 C   0  0  2  0  0  0  0  0  0  0  0  0
  -19.5974  -14.8281   25.9984 C   0  0  0  0  0  0  0  0  0  0  0  0
  -18.6655  -31.0885   22.7465 C   0  0  0  0  0  0  0  0  0  0  0  0
  -21.1215  -11.7864   25.7757 C   0  0  0  0  0  0  0  0  0  0  0  0
  -23.2344  -11.0844   24.6457 C   0  0  0  0  0  0  0  0  0  0  0  0
  -24.7091  -29.0404   24.5217 C   0  0  0  0  0  0  0  0  0  0  0  0
  -22.5674  -30.1854   25.1301 C   0  0  0  0  0  0  0  0  0  0  0  0
  -24.0018  -31.1116   23.3116 C   0  0  0  0  0  0  0  0  0  0  0  0
  -18.6189  -28.3419   20.1141 C   0  0  0  0  0  0  0  0  0  0  0  0
  -22.0262  -17.1553   25.0896 C   0  0  0  0  0  0  0  0  0  0  0  0
  -22.2673  -17.9685   23.8130 C   0  0  0  0  0  0  0  0  0  0  0  0
  -21.7921  -19.4177   23.9276 C   0  0  0  0  0  0  0  0  0  0  0  0
  -20.3252  -14.6428   24.6780 C   0  0  0  0  0  0  0  0  0  0  0  0
  -22.0113  -20.1822   22.6292 C   0  0  0  0  0  0  0  0  0  1  0  0
  -22.7000  -28.9835   22.9011 C   0  0  1  0  0  0  0  0  0  0  0  0
  -19.2715  -30.1159   21.7468 C   0  0  2  0  0  0  0  0  0  0  0  0
  -22.1335  -12.1959   24.6628 C   0  0  0  0  0  0  0  0  0  0  0  0
  -23.4944  -29.8035   23.9565 C   0  0  0  0  0  0  0  0  0  0  0  0
  -25.2960  -14.9432   20.5491 N   0  0  0  0  0  0  0  0  0  0  0  0
  -23.8094  -15.3642   25.1281 N   0  0  0  0  0  0  0  0  0  0  0  0
  -23.8361  -13.9889   25.0097 N   0  0  0  0  0  0  0  0  0  0  0  0
  -25.1599  -13.6062   20.5537 N   0  0  0  0  0  0  0  0  0  0  0  0
  -21.7593  -14.6564   24.8383 N   0  0  0  0  0  0  0  0  0  0  0  0
  -23.6774  -27.1773   21.5204 N   0  0  0  0  0  0  0  0  0  0  0  0
  -21.8446  -12.8068   22.2856 N   0  0  0  0  0  0  0  0  0  0  0  0
  -26.3744  -11.5832   20.3468 N   0  0  0  0  0  0  0  0  0  0  0  0
  -29.5554  -14.7583   19.9034 N   0  0  0  0  0  0  0  0  0  0  0  0
  -27.0693  -26.5866   20.5844 N   0  0  0  0  0  0  0  0  0  0  0  0
  -21.5600  -29.6916   22.3288 N   0  0  0  0  0  0  0  0  0  0  0  0
  -18.1681  -29.3232   21.1343 N   0  3  0  0  0  0  0  0  0  0  0  0
  -29.1703  -12.4977   19.9181 O   0  0  0  0  0  0  0  0  0  0  0  0
  -25.8247  -25.9301   22.4398 O   0  0  0  0  0  0  0  0  0  0  0  0
  -24.1038  -29.4184   21.0392 O   0  0  0  0  0  0  0  0  0  0  0  0
  -20.5398  -11.1479   23.2579 O   0  0  0  0  0  0  0  0  0  0  0  0
  -19.9555  -28.1396   22.9566 O   0  0  0  0  0  0  0  0  0  0  0  0
  -28.7573  -20.2685   20.0915 O   0  0  0  0  0  0  0  0  0  0  0  0
  -21.5638  -21.5259   22.8040 O   0  0  0  0  0  0  0  0  0  1  0  0
  -27.1081  -23.9283   23.8718 F   0  0  0  0  0  0  0  0  0  0  0  0
  -30.5737  -21.4523   21.8067 F   0  0  0  0  0  0  0  0  0  0  0  0
  1  2  1  0  0  0  0
  1  5  2  0  0  0  0
  2  6  2  0  0  0  0
  3  8  2  0  0  0  0
  3 15  1  0  0  0  0
  4  9  1  0  0  0  0
  4 15  2  0  0  0  0
  5 17  1  0  0  0  0
  6 19  1  0  0  0  0
  7 10  2  0  0  0  0
  7 18  1  0  0  0  0
  8 21  1  0  0  0  0
  9 21  2  0  0  0  0
 10 22  1  0  0  0  0
 11 12  2  0  0  0  0
 11 23  1  0  0  0  0
 12 24  1  0  0  0  0
 13 20  1  0  0  0  0
 13 22  2  0  0  0  0
 14 24  2  0  0  0  0
 14 25  1  0  0  0  0
 15 26  1  0  0  0  0
 16 26  1  0  0  0  0
 16 27  2  0  0  0  0
 16 30  1  0  0  0  0
 17 19  2  0  0  0  0
 17 35  1  0  0  0  0
 18 20  2  0  0  0  0
 18 36  1  0  0  0  0
 19 44  1  0  0  0  0
 20 37  1  0  0  0  0
 21 81  1  0  0  0  0
 22 82  1  0  0  0  0
 23 25  2  0  0  0  0
 23 81  1  0  0  0  0
 24 83  1  0  0  0  0
 25 84  1  0  0  0  0
 26 64  2  0  0  0  0
 27 67  1  0  0  0  0
 27 71  1  0  0  0  0
 28 55  1  0  0  0  0
 28 65  2  0  0  0  0
 28 68  1  0  0  0  0
 29 62  1  0  0  0  0
 29 66  2  0  0  0  0
 29 68  1  0  0  0  0
 30 72  1  0  0  0  0
 30 76  2  0  0  0  0
 31 45  1  0  0  0  0
 31 73  1  0  0  0  0
 31 77  2  0  0  0  0
 32 60  1  0  0  0  0
 32 69  1  0  0  0  0
 32 78  2  0  0  0  0
 33 62  1  0  0  0  0
 33 70  1  0  0  0  0
 33 79  2  0  0  0  0
 34 61  1  0  0  0  0
 34 74  1  0  0  0  0
 34 80  2  0  0  0  0
 35 38  1  0  0  0  0
 36 45  1  0  0  0  0
 37 69  1  0  0  0  0
 38 40  1  0  0  0  0
 39 41  1  0  0  0  0
 39 42  1  0  0  0  0
 40 44  1  0  0  0  0
 41 46  1  0  0  0  0
 42 70  1  0  0  0  0
 43 46  1  0  0  0  0
 43 70  1  0  0  0  0
 44 73  1  0  0  0  0
 45 69  1  0  0  0  0
 46 67  1  0  0  0  0
 47 58  1  0  0  0  0
 48 61  1  0  0  0  0
 49 62  1  0  0  0  0
 50 62  1  0  0  0  0
 51 63  1  0  0  0  0
 52 63  1  0  0  0  0
 53 63  1  0  0  0  0
 54 75  1  0  0  0  0
 55 56  1  0  0  0  0
 56 57  1  0  0  0  0
 57 59  1  0  0  0  0
 58 68  1  0  0  0  0
 59 82  1  0  0  0  0
 60 63  1  0  0  0  0
 60 74  1  0  0  0  0
 61 75  1  0  0  0  0
 64 67  1  0  0  0  0
 65 66  1  0  0  0  0
M  CHG  1  75   1
M  ISO  4  33 100  59 101  62 100  82 101
M  END
> <Batch ID>
0062

> <Smiles>
CCn1c(CCC[101CH2:1][101O:1]c2ccc3c(c2)CN(C(=O)C(NC(=O)C(C)NC)C(C)(C)C)C(C(=O)NC2CCCc4ccccc42)C3)nnc1[100C:0](C)(C)[100C:0](=O)N1CCCC(n2nc(-c3ccc(Oc4ccc(F)cc4F)cc3)c(C(N)=O)c2N)C1

> <Shape>
0.231

> <Color>
0.062

> <Negative vol penalty>
0.000

$$$$

  -OEChem-04052318003D

 81 89  0     1  0  0  0  0  0999 V2000
  -22.1295  -34.5596   19.4973 C   0  0  0  0  0  0  0  0  0  0  0  0
  -23.2437  -33.7393   19.6425 C   0  0  0  0  0  0  0  0  0  0  0  0
  -28.2287  -12.2804   22.7742 C   0  0  0  0  0  0  0  0  0  0  0  0
  -27.1864  -12.8459   20.6693 C   0  0  0  0  0  0  0  0  0  0  0  0
  -21.0476  -34.4243   20.3663 C   0  0  0  0  0  0  0  0  0  0  0  0
  -23.2771  -32.7838   20.6576 C   0  0  0  0  0  0  0  0  0  0  0  0
  -24.9915  -28.2988   19.0482 C   0  0  0  0  0  0  0  0  0  0  0  0
  -27.5784  -11.0464   22.7648 C   0  0  0  0  0  0  0  0  0  0  0  0
  -26.5361  -11.6119   20.6598 C   0  0  0  0  0  0  0  0  0  0  0  0
  -26.3698  -28.1648   18.8865 C   0  0  0  0  0  0  0  0  0  0  0  0
  -23.8363  -10.2072   22.1325 C   0  0  0  0  0  0  0  0  0  0  0  0
  -22.4824  -10.1907   21.7975 C   0  0  0  0  0  0  0  0  0  0  0  0
  -26.5035  -27.0363   21.0144 C   0  0  0  0  0  0  0  0  0  0  0  0
  -22.9635   -8.7424   19.9245 C   0  0  0  0  0  0  0  0  0  0  0  0
  -28.9202  -24.1945   18.2344 C   0  0  0  0  0  0  0  0  0  0  0  0
  -28.0327  -13.1801   21.7265 C   0  0  0  0  0  0  0  0  0  0  0  0
  -29.9665  -14.7553   21.1910 C   0  0  0  0  0  0  0  0  0  0  0  0
  -21.0638  -33.4601   21.3865 C   0  0  0  0  0  0  0  0  0  0  0  0
  -24.3594  -27.8115   20.2011 C   0  0  0  0  0  0  0  0  0  0  0  0
  -22.1950  -32.6363   21.5419 C   0  0  0  0  0  0  0  0  0  0  0  0
  -25.1168  -27.1631   21.1871 C   0  0  0  0  0  0  0  0  0  0  0  0
  -26.7321  -10.7122   21.7075 C   0  0  0  0  0  0  0  0  0  0  0  0
  -27.1265  -27.5360   19.8710 C   0  0  0  0  0  0  0  0  0  0  0  0
  -24.7539   -9.4913   21.3635 C   0  0  0  0  0  0  0  0  0  0  0  0
  -22.0460   -9.4583   20.6935 C   0  0  0  0  0  0  0  0  0  0  0  0
  -24.3175   -8.7589   20.2595 C   0  0  0  0  0  0  0  0  0  0  0  0
  -28.7037  -14.4552   21.7360 C   0  0  0  0  0  0  0  0  0  0  0  0
  -29.8626  -24.9720   18.8570 C   0  0  0  0  0  0  0  0  0  0  0  0
  -30.1477  -16.0901   21.4590 C   0  0  0  0  0  0  0  0  0  0  0  0
  -29.2822  -22.5805   19.7718 C   0  0  0  0  0  0  0  0  0  0  0  0
  -30.8930  -13.9036   20.5040 C   0  0  0  0  0  0  0  0  0  0  0  0
  -22.6908  -29.1216   22.5682 C   0  0  0  0  0  0  0  0  0  0  0  0
  -28.1270  -21.3051   21.5594 C   0  0  0  0  0  0  0  0  0  0  0  0
  -22.2429  -26.0300   23.4422 C   0  0  0  0  0  0  0  0  0  0  0  0
  -23.3447  -22.8016   23.3399 C   0  0  0  0  0  0  0  0  0  0  0  0
  -19.8905  -33.3830   22.3310 C   0  0  0  0  0  0  0  0  0  0  0  0
  -22.8680  -27.9402   20.3481 C   0  0  0  0  0  0  0  0  0  0  0  0
  -24.4833  -26.6045   22.4341 C   0  0  0  0  0  0  0  0  0  0  0  0
  -19.8485  -32.0930   23.1461 C   0  0  0  0  0  0  0  0  0  0  0  0
  -27.5529  -19.2420   24.4323 C   0  0  0  0  0  0  0  0  0  0  0  0
  -21.2245  -31.7839   23.7275 C   0  0  0  0  0  0  0  0  0  0  0  0
  -27.8756  -17.8341   23.9335 C   0  0  0  0  0  0  0  0  0  0  0  0
  -26.9125  -20.0892   23.3372 C   0  0  0  0  0  0  0  0  0  0  0  0
  -28.0427  -18.7627   21.5809 C   0  0  0  0  0  0  0  0  0  0  0  0
  -22.2584  -31.5714   22.6152 C   0  0  1  0  0  0  0  0  0  0  0  0
  -22.4017  -27.8638   21.7987 C   0  0  1  0  0  0  0  0  0  0  0  0
  -28.7192  -17.8832   22.6473 C   0  0  2  0  0  0  0  0  0  0  0  0
  -22.7898  -20.5032   24.1806 C   0  0  0  0  0  0  0  0  0  0  0  0
  -30.7535  -26.3787   16.8805 C   0  0  0  0  0  0  0  0  0  0  0  0
  -31.3151  -26.9909   19.2230 C   0  0  0  0  0  0  0  0  0  0  0  0
  -23.2922  -26.7898   26.2048 C   0  0  0  0  0  0  0  0  0  0  0  0
  -23.6112  -24.3519   26.6774 C   0  0  0  0  0  0  0  0  0  0  0  0
  -21.3262  -25.2442   26.2244 C   0  0  0  0  0  0  0  0  0  0  0  0
  -23.0337  -21.7456   20.5927 C   0  0  0  0  0  0  0  0  0  0  0  0
  -28.9737  -21.2275   20.3140 C   0  0  0  0  0  0  0  0  0  0  0  0
  -28.9645  -27.2956   18.3812 C   0  0  0  0  0  0  0  0  0  1  0  0
  -22.9807  -25.0502   24.3225 C   0  0  1  0  0  0  0  0  0  0  0  0
  -22.6223  -21.4996   23.0440 C   0  0  2  0  0  0  0  0  0  0  0  0
  -30.2123  -26.3765   18.3305 C   0  0  0  0  0  0  0  0  0  0  0  0
  -22.8151  -25.3712   25.8348 C   0  0  0  0  0  0  0  0  0  0  0  0
  -28.6049  -22.9694   18.6814 N   0  0  0  0  0  0  0  0  0  0  0  0
  -28.1237  -15.5141   22.3071 N   0  0  0  0  0  0  0  0  0  0  0  0
  -30.5107  -24.5278   19.9491 N   0  0  0  0  0  0  0  0  0  0  0  0
  -30.2169  -23.2995   20.4240 N   0  0  0  0  0  0  0  0  0  0  0  0
  -29.0262  -16.4927   22.1226 N   0  0  0  0  0  0  0  0  0  0  0  0
  -23.0228  -26.7607   22.5346 N   0  0  0  0  0  0  0  0  0  0  0  0
  -27.7330  -20.0923   22.1248 N   0  0  0  0  0  0  0  0  0  0  0  0
  -31.1553  -16.9471   21.1894 N   0  0  0  0  0  0  0  0  0  0  0  0
  -30.5491  -12.5583   20.3137 N   0  0  0  0  0  0  0  0  0  0  0  0
  -22.1102  -30.2551   22.0321 N   0  0  0  0  0  0  0  0  0  0  0  0
  -22.5118  -23.7232   23.9384 N   0  0  0  0  0  0  0  0  0  0  0  0
  -23.1556  -20.8834   21.7963 N   0  3  0  0  0  0  0  0  0  0  0  0
  -32.0002  -14.3192   20.0861 O   0  0  0  0  0  0  0  0  0  0  0  0
  -23.3877  -29.0674   23.5747 O   0  0  0  0  0  0  0  0  0  0  0  0
  -27.8281  -22.4116   22.0162 O   0  0  0  0  0  0  0  0  0  0  0  0
  -21.0189  -26.1377   23.5508 O   0  0  0  0  0  0  0  0  0  0  0  0
  -24.5303  -22.9816   23.0706 O   0  0  0  0  0  0  0  0  0  0  0  0
  -26.0976   -9.5081   21.6979 O   0  0  0  0  0  0  0  0  0  0  0  0
  -28.4720  -27.4044   19.7161 O   0  0  0  0  0  0  0  0  0  1  0  0
  -20.7456   -9.4413   20.3728 F   0  0  0  0  0  0  0  0  0  0  0  0
  -25.1941   -8.0683   19.5177 F   0  0  0  0  0  0  0  0  0  0  0  0
  1  2  1  0  0  0  0
  1  5  2  0  0  0  0
  2  6  2  0  0  0  0
  3  8  2  0  0  0  0
  3 16  1  0  0  0  0
  4  9  1  0  0  0  0
  4 16  2  0  0  0  0
  5 18  1  0  0  0  0
  6 20  1  0  0  0  0
  7 10  2  0  0  0  0
  7 19  1  0  0  0  0
  8 22  1  0  0  0  0
  9 22  2  0  0  0  0
 10 23  1  0  0  0  0
 11 12  2  0  0  0  0
 11 24  1  0  0  0  0
 12 25  1  0  0  0  0
 13 21  1  0  0  0  0
 13 23  2  0  0  0  0
 14 25  2  0  0  0  0
 14 26  1  0  0  0  0
 15 28  1  0  0  0  0
 15 61  2  0  0  0  0
 16 27  1  0  0  0  0
 17 27  1  0  0  0  0
 17 29  2  0  0  0  0
 17 31  1  0  0  0  0
 18 20  2  0  0  0  0
 18 36  1  0  0  0  0
 19 21  2  0  0  0  0
 19 37  1  0  0  0  0
 20 45  1  0  0  0  0
 21 38  1  0  0  0  0
 22 78  1  0  0  0  0
 23 79  1  0  0  0  0
 24 26  2  0  0  0  0
 24 78  1  0  0  0  0
 25 80  1  0  0  0  0
 26 81  1  0  0  0  0
 27 62  2  0  0  0  0
 28 59  1  0  0  0  0
 28 63  2  0  0  0  0
 29 65  1  0  0  0  0
 29 68  1  0  0  0  0
 30 55  1  0  0  0  0
 30 61  1  0  0  0  0
 30 64  2  0  0  0  0
 31 69  1  0  0  0  0
 31 73  2  0  0  0  0
 32 46  1  0  0  0  0
 32 70  1  0  0  0  0
 32 74  2  0  0  0  0
 33 55  1  0  0  0  0
 33 67  1  0  0  0  0
 33 75  2  0  0  0  0
 34 57  1  0  0  0  0
 34 66  1  0  0  0  0
 34 76  2  0  0  0  0
 35 58  1  0  0  0  0
 35 71  1  0  0  0  0
 35 77  2  0  0  0  0
 36 39  1  0  0  0  0
 37 46  1  0  0  0  0
 38 66  1  0  0  0  0
 39 41  1  0  0  0  0
 40 42  1  0  0  0  0
 40 43  1  0  0  0  0
 41 45  1  0  0  0  0
 42 47  1  0  0  0  0
 43 67  1  0  0  0  0
 44 47  1  0  0  0  0
 44 67  1  0  0  0  0
 45 70  1  0  0  0  0
 46 66  1  0  0  0  0
 47 65  1  0  0  0  0
 48 58  1  0  0  0  0
 49 59  1  0  0  0  0
 50 59  1  0  0  0  0
 51 60  1  0  0  0  0
 52 60  1  0  0  0  0
 53 60  1  0  0  0  0
 54 72  1  0  0  0  0
 56 59  1  0  0  0  0
 56 79  1  0  0  0  0
 57 60  1  0  0  0  0
 57 71  1  0  0  0  0
 58 72  1  0  0  0  0
 62 65  1  0  0  0  0
 63 64  1  0  0  0  0
M  CHG  1  72   1
M  ISO  4  33 100  55 100  56 101  79 101
M  END
> <Batch ID>
0062

> <Smiles>
CNC(C)C(=O)NC(C(=O)N1Cc2cc([101O:1][101CH2:1]C(C)(C)c3cnc([100CH2:0][100C:0](=O)N4CCCC(n5nc(-c6ccc(Oc7ccc(F)cc7F)cc6)c(C(N)=O)c5N)C4)nn3)ccc2CC1C(=O)NC1CCCc2ccccc21)C(C)(C)C

> <Shape>
0.226

> <Color>
0.104

> <Negative vol penalty>
0.000

$$$$

  -OEChem-04052318003D

 88 96  0     1  0  0  0  0  0999 V2000
  -23.4847  -13.1799   20.3342 C   0  0  0  0  0  0  0  0  0  0  0  0
  -23.0752  -14.1844   21.2038 C   0  0  0  0  0  0  0  0  0  0  0  0
  -29.7930  -17.9865   19.3212 C   0  0  0  0  0  0  0  0  0  0  0  0
  -27.4834  -18.6516   19.5666 C   0  0  0  0  0  0  0  0  0  0  0  0
  -23.8588  -13.5010   19.0311 C   0  0  0  0  0  0  0  0  0  0  0  0
  -23.0283  -15.5088   20.7670 C   0  0  0  0  0  0  0  0  0  0  0  0
  -22.0211  -22.3015   22.8296 C   0  0  0  0  0  0  0  0  0  0  0  0
  -29.5077  -16.7682   19.9374 C   0  0  0  0  0  0  0  0  0  0  0  0
  -27.1980  -17.4332   20.1828 C   0  0  0  0  0  0  0  0  0  0  0  0
  -22.5962  -23.5703   22.8836 C   0  0  0  0  0  0  0  0  0  0  0  0
  -28.0981  -13.8154   19.0848 C   0  0  0  0  0  0  0  0  0  0  0  0
  -28.6149  -12.6579   18.5028 C   0  0  0  0  0  0  0  0  0  0  0  0
  -22.0965  -23.8898   20.5454 C   0  0  0  0  0  0  0  0  0  0  0  0
  -29.8271  -12.1765   20.5366 C   0  0  0  0  0  0  0  0  0  0  0  0
  -27.6771  -28.7707   22.9039 C   0  0  0  0  0  0  0  0  0  0  0  0
  -28.7809  -18.9283   19.1359 C   0  0  0  0  0  0  0  0  0  0  0  0
  -29.0130  -20.4799   17.1243 C   0  0  0  0  0  0  0  0  0  0  0  0
  -23.8281  -14.8318   18.5828 C   0  0  0  0  0  0  0  0  0  0  0  0
  -21.4882  -21.8121   21.6284 C   0  0  0  0  0  0  0  0  0  0  0  0
  -23.3791  -15.8500   19.4483 C   0  0  0  0  0  0  0  0  0  0  0  0
  -21.5129  -22.6154   20.4794 C   0  0  0  0  0  0  0  0  0  0  0  0
  -28.2102  -16.4915   20.3682 C   0  0  0  0  0  0  0  0  0  0  0  0
  -22.6366  -24.3636   21.7407 C   0  0  0  0  0  0  0  0  0  0  0  0
  -28.4458  -14.1535   20.3927 C   0  0  0  0  0  0  0  0  0  0  0  0
  -29.4794  -11.8384   19.2287 C   0  0  0  0  0  0  0  0  0  0  0  0
  -29.3103  -13.3341   21.1185 C   0  0  0  0  0  0  0  0  0  0  0  0
  -29.0751  -20.1873   18.4999 C   0  0  0  0  0  0  0  0  0  0  0  0
  -28.2994  -29.1536   21.7494 C   0  0  0  0  0  0  0  0  0  0  0  0
  -29.3829  -21.7997   17.0369 C   0  0  0  0  0  0  0  0  0  0  0  0
  -26.3916  -30.2664   21.8986 C   0  0  0  0  0  0  0  0  0  0  0  0
  -28.6530  -19.6342   16.0239 C   0  0  0  0  0  0  0  0  0  0  0  0
  -22.1340  -19.3478   19.7273 C   0  0  0  0  0  0  0  0  0  0  0  0
  -19.4699  -20.3504   18.1719 C   0  0  0  0  0  0  0  0  0  0  0  0
  -17.3241  -22.9045   17.4514 C   0  0  0  0  0  0  0  0  0  0  0  0
  -29.4485  -26.3304   20.6697 C   0  0  0  0  0  0  0  0  0  0  0  0
  -24.2362  -15.1222   17.1600 C   0  0  0  0  0  0  0  0  0  0  0  0
  -20.8473  -20.4518   21.5932 C   0  0  0  0  0  0  0  0  0  0  0  0
  -20.9363  -22.1445   19.1701 C   0  0  0  0  0  0  0  0  0  0  0  0
  -24.5772  -16.5904   16.9272 C   0  0  0  0  0  0  0  0  0  0  0  0
  -32.2160  -23.8449   20.1582 C   0  0  0  0  0  0  0  0  0  0  0  0
  -23.4729  -17.4754   17.4856 C   0  0  0  0  0  0  0  0  0  0  0  0
  -31.6158  -23.7599   18.7548 C   0  0  0  0  0  0  0  0  0  0  0  0
  -31.5586  -24.9491   20.9938 C   0  0  0  0  0  0  0  0  0  0  0  0
  -29.4769  -23.9139   20.1509 C   0  0  0  0  0  0  0  0  0  0  0  0
  -23.3493  -17.3014   19.0047 C   0  0  1  0  0  0  0  0  0  0  0  0
  -20.7966  -19.8512   20.1917 C   0  0  1  0  0  0  0  0  0  0  0  0
  -30.0794  -23.5794   18.7750 C   0  0  2  0  0  0  0  0  0  0  0  0
  -26.5848  -31.2351   25.4612 C   0  0  0  0  0  0  0  0  0  0  0  0
  -15.2619  -23.4289   16.1212 C   0  0  0  0  0  0  0  0  0  0  0  0
  -25.0938  -32.2739   22.6934 C   0  0  0  0  0  0  0  0  0  0  0  0
  -23.9176  -30.4274   21.4512 C   0  0  0  0  0  0  0  0  0  0  0  0
  -25.4208  -31.9974   20.2443 C   0  0  0  0  0  0  0  0  0  0  0  0
  -21.1364  -20.4113   15.6167 C   0  0  0  0  0  0  0  0  0  0  0  0
  -19.3466  -21.8112   14.5655 C   0  0  0  0  0  0  0  0  0  0  0  0
  -18.8264  -19.4957   15.3339 C   0  0  0  0  0  0  0  0  0  0  0  0
  -30.6193  -27.1797   22.7496 C   0  0  0  0  0  0  0  0  0  0  0  0
  -15.7960  -23.6174   19.8835 C   0  0  0  0  0  0  0  0  0  0  0  0
  -29.5744  -28.7437   21.1551 C   0  0  0  0  0  0  0  0  0  0  0  0
  -26.0690  -29.8008   25.4559 C   0  0  0  0  0  0  0  0  0  0  0  0
  -24.2860  -27.4341   22.8953 C   0  0  0  0  0  0  0  0  0  0  0  0
  -24.8860  -27.9442   24.2088 C   0  0  0  0  0  0  0  0  0  0  0  0
  -23.7265  -26.0257   23.0465 C   0  0  0  0  0  0  0  0  0  1  0  0
  -19.1886  -21.3185   17.0481 C   0  0  1  0  0  0  0  0  0  0  0  0
  -15.8081  -22.9816   17.4681 C   0  0  2  0  0  0  0  0  0  0  0  0
  -25.4792  -29.3685   24.0938 C   0  0  2  0  0  0  0  0  0  0  0  0
  -25.2749  -31.1912   21.5811 C   0  0  0  0  0  0  0  0  0  0  0  0
  -19.6372  -20.7676   15.6651 C   0  0  0  0  0  0  0  0  0  0  0  0
  -29.4548  -21.2369   19.2337 N   0  0  0  0  0  0  0  0  0  0  0  0
  -26.4993  -29.4753   22.9710 N   0  0  0  0  0  0  0  0  0  0  0  0
  -29.6346  -22.2017   18.3157 N   0  0  0  0  0  0  0  0  0  0  0  0
  -27.4816  -30.0794   21.1475 N   0  3  0  0  0  0  0  0  0  0  0  0
  -20.3262  -20.8047   19.1849 N   0  0  0  0  0  0  0  0  0  0  0  0
  -30.1234  -25.0988   20.7122 N   0  0  0  0  0  0  0  0  0  0  0  0
  -29.5142  -22.6440   15.9917 N   0  0  0  0  0  0  0  0  0  0  0  0
  -28.2993  -18.3046   16.2909 N   0  0  0  0  0  0  0  0  0  0  0  0
  -22.1642  -17.9916   19.4640 N   0  0  0  0  0  0  0  0  0  0  0  0
  -17.7677  -21.6388   17.1314 N   0  0  0  0  0  0  0  0  0  0  0  0
  -29.9421  -27.3702   21.4707 N   0  0  0  0  0  0  0  0  0  0  0  0
  -15.3500  -23.9483   18.5056 N   0  3  0  0  0  0  0  0  0  0  0  0
  -28.6612  -20.0409   14.8372 O   0  0  0  0  0  0  0  0  0  0  0  0
  -23.0689  -20.1320   19.6147 O   0  0  0  0  0  0  0  0  0  0  0  0
  -18.9434  -19.2350   18.1552 O   0  0  0  0  0  0  0  0  0  0  0  0
  -18.0430  -23.8715   17.6940 O   0  0  0  0  0  0  0  0  0  0  0  0
  -28.4625  -26.4982   19.9397 O   0  0  0  0  0  0  0  0  0  0  0  0
  -27.9313  -15.3026   20.9693 O   0  0  0  0  0  0  0  0  0  0  0  0
  -23.1980  -25.6022   21.7905 O   0  0  0  0  0  0  0  0  0  1  0  0
  -29.9744  -10.7261   18.6703 F   0  0  0  0  0  0  0  0  0  0  0  0
  -29.6470  -13.6531   22.3758 F   0  0  0  0  0  0  0  0  0  0  0  0
  1  2  1  0  0  0  0
  1  5  2  0  0  0  0
  2  6  2  0  0  0  0
  3  8  2  0  0  0  0
  3 16  1  0  0  0  0
  4  9  1  0  0  0  0
  4 16  2  0  0  0  0
  5 18  1  0  0  0  0
  6 20  1  0  0  0  0
  7 10  2  0  0  0  0
  7 19  1  0  0  0  0
  8 22  1  0  0  0  0
  9 22  2  0  0  0  0
 10 23  1  0  0  0  0
 11 12  2  0  0  0  0
 11 24  1  0  0  0  0
 12 25  1  0  0  0  0
 13 21  1  0  0  0  0
 13 23  2  0  0  0  0
 14 25  2  0  0  0  0
 14 26  1  0  0  0  0
 15 28  2  0  0  0  0
 15 69  1  0  0  0  0
 16 27  1  0  0  0  0
 17 27  1  0  0  0  0
 17 29  2  0  0  0  0
 17 31  1  0  0  0  0
 18 20  2  0  0  0  0
 18 36  1  0  0  0  0
 19 21  2  0  0  0  0
 19 37  1  0  0  0  0
 20 45  1  0  0  0  0
 21 38  1  0  0  0  0
 22 85  1  0  0  0  0
 23 86  1  0  0  0  0
 24 26  2  0  0  0  0
 24 85  1  0  0  0  0
 25 87  1  0  0  0  0
 26 88  1  0  0  0  0
 27 68  2  0  0  0  0
 28 58  1  0  0  0  0
 28 71  1  0  0  0  0
 29 70  1  0  0  0  0
 29 74  1  0  0  0  0
 30 66  1  0  0  0  0
 30 69  1  0  0  0  0
 30 71  2  0  0  0  0
 31 75  1  0  0  0  0
 31 80  2  0  0  0  0
 32 46  1  0  0  0  0
 32 76  1  0  0  0  0
 32 81  2  0  0  0  0
 33 63  1  0  0  0  0
 33 72  1  0  0  0  0
 33 82  2  0  0  0  0
 34 64  1  0  0  0  0
 34 77  1  0  0  0  0
 34 83  2  0  0  0  0
 35 73  1  0  0  0  0
 35 78  1  0  0  0  0
 35 84  2  0  0  0  0
 36 39  1  0  0  0  0
 37 46  1  0  0  0  0
 38 72  1  0  0  0  0
 39 41  1  0  0  0  0
 40 42  1  0  0  0  0
 40 43  1  0  0  0  0
 41 45  1  0  0  0  0
 42 47  1  0  0  0  0
 43 73  1  0  0  0  0
 44 47  1  0  0  0  0
 44 73  1  0  0  0  0
 45 76  1  0  0  0  0
 46 72  1  0  0  0  0
 47 70  1  0  0  0  0
 48 59  1  0  0  0  0
 49 64  1  0  0  0  0
 50 66  1  0  0  0  0
 51 66  1  0  0  0  0
 52 66  1  0  0  0  0
 53 67  1  0  0  0  0
 54 67  1  0  0  0  0
 55 67  1  0  0  0  0
 56 78  1  0  0  0  0
 57 79  1  0  0  0  0
 58 78  1  0  0  0  0
 59 65  1  0  0  0  0
 60 61  1  0  0  0  0
 60 62  1  0  0  0  0
 61 65  1  0  0  0  0
 62 86  1  0  0  0  0
 63 67  1  0  0  0  0
 63 77  1  0  0  0  0
 64 79  1  0  0  0  0
 65 69  1  0  0  0  0
 68 70  1  0  0  0  0
M  CHG  2  71   1  79   1
M  ISO  4  35 100  62 101  78 100  86 101
M  END
> <Batch ID>
0062

> <Smiles>
CCC(CC[101CH2:1][101O:1]c1ccc2c(c1)CN(C(=O)C(NC(=O)C(C)NC)C(C)(C)C)C(C(=O)NC1CCCc3ccccc31)C2)n1cc(C[100N:0](C)[100C:0](=O)N2CCCC(n3nc(-c4ccc(Oc5ccc(F)cc5F)cc4)c(C(N)=O)c3N)C2)nc1C(C)(C)C

> <Shape>
0.199

> <Color>
0.058

> <Negative vol penalty>
0.000

$$$$

  -OEChem-04052318003D

 84 92  0     1  0  0  0  0  0999 V2000
  -24.2132  -17.6390   22.0984 C   0  0  0  0  0  0  0  0  0  0  0  0
  -24.9462  -18.6401   22.7257 C   0  0  0  0  0  0  0  0  0  0  0  0
  -26.3598  -12.7380   21.6762 C   0  0  0  0  0  0  0  0  0  0  0  0
  -25.6281  -13.9806   19.7377 C   0  0  0  0  0  0  0  0  0  0  0  0
  -23.4388  -17.9436   20.9810 C   0  0  0  0  0  0  0  0  0  0  0  0
  -24.8957  -19.9483   22.2430 C   0  0  0  0  0  0  0  0  0  0  0  0
  -27.9179  -24.9386   24.0011 C   0  0  0  0  0  0  0  0  0  0  0  0
  -25.1660  -12.0166   21.6644 C   0  0  0  0  0  0  0  0  0  0  0  0
  -24.4343  -13.2592   19.7259 C   0  0  0  0  0  0  0  0  0  0  0  0
  -29.1013  -25.5959   23.6675 C   0  0  0  0  0  0  0  0  0  0  0  0
  -23.8385   -9.4249   19.9457 C   0  0  0  0  0  0  0  0  0  0  0  0
  -23.9146   -8.0428   20.1176 C   0  0  0  0  0  0  0  0  0  0  0  0
  -27.8639  -27.0754   22.2186 C   0  0  0  0  0  0  0  0  0  0  0  0
  -22.5406   -8.2135   22.0975 C   0  0  0  0  0  0  0  0  0  0  0  0
  -26.5908  -13.7200   20.7129 C   0  0  0  0  0  0  0  0  0  0  0  0
  -29.1288  -13.9529   20.6024 C   0  0  0  0  0  0  0  0  0  0  0  0
  -23.3891  -19.2540   20.4775 C   0  0  0  0  0  0  0  0  0  0  0  0
  -26.6981  -25.3384   23.4366 C   0  0  0  0  0  0  0  0  0  0  0  0
  -24.1012  -20.2804   21.1309 C   0  0  0  0  0  0  0  0  0  0  0  0
  -26.6661  -26.4231   22.5486 C   0  0  0  0  0  0  0  0  0  0  0  0
  -24.2033  -12.2772   20.6892 C   0  0  0  0  0  0  0  0  0  0  0  0
  -29.0748  -26.6627   22.7740 C   0  0  0  0  0  0  0  0  0  0  0  0
  -23.1136  -10.2014   20.8498 C   0  0  0  0  0  0  0  0  0  0  0  0
  -23.2656   -7.4371   21.1935 C   0  0  0  0  0  0  0  0  0  0  0  0
  -22.4646   -9.5957   21.9256 C   0  0  0  0  0  0  0  0  0  0  0  0
  -27.8235  -14.4659   20.7249 C   0  0  0  0  0  0  0  0  0  0  0  0
  -29.9404  -15.0586   20.6739 C   0  0  0  0  0  0  0  0  0  0  0  0
  -31.5868  -25.7370   19.4703 C   0  0  0  0  0  0  0  0  0  0  0  0
  -30.5466  -24.0327   18.8617 C   0  0  0  0  0  0  0  0  0  0  0  0
  -29.5682  -12.5980   20.4385 C   0  0  0  0  0  0  0  0  0  0  0  0
  -24.5275  -23.9526   21.5733 C   0  0  0  0  0  0  0  0  0  0  0  0
  -22.8738  -26.6876   22.1281 C   0  0  0  0  0  0  0  0  0  0  0  0
  -22.9410  -29.9919   22.9789 C   0  0  0  0  0  0  0  0  0  0  0  0
  -28.9799  -20.7344   19.3629 C   0  0  0  0  0  0  0  0  0  0  0  0
  -22.5285  -19.5295   19.2698 C   0  0  0  0  0  0  0  0  0  0  0  0
  -25.4267  -24.6360   23.8273 C   0  0  0  0  0  0  0  0  0  0  0  0
  -25.3797  -26.9043   21.9306 C   0  0  0  0  0  0  0  0  0  0  0  0
  -22.8856  -20.8374   18.5712 C   0  0  0  0  0  0  0  0  0  0  0  0
  -30.1193  -19.4574   22.5517 C   0  0  0  0  0  0  0  0  0  0  0  0
  -22.9665  -21.9651   19.5892 C   0  0  0  0  0  0  0  0  0  0  0  0
  -29.7778  -17.9718   22.4240 C   0  0  0  0  0  0  0  0  0  0  0  0
  -29.0511  -20.3285   21.8972 C   0  0  0  0  0  0  0  0  0  0  0  0
  -28.4413  -18.5203   20.3377 C   0  0  0  0  0  0  0  0  0  0  0  0
  -24.0857  -21.7044   20.6052 C   0  0  1  0  0  0  0  0  0  0  0  0
  -24.3136  -24.7983   22.7968 C   0  0  1  0  0  0  0  0  0  0  0  0
  -29.4946  -17.5858   20.9601 C   0  0  2  0  0  0  0  0  0  0  0  0
  -28.1739  -23.5891   18.1300 C   0  0  0  0  0  0  0  0  0  0  0  0
  -21.4348  -31.9711   23.3126 C   0  0  0  0  0  0  0  0  0  0  0  0
  -33.9438  -22.5154   18.7530 C   0  0  0  0  0  0  0  0  0  0  0  0
  -32.6454  -22.7632   16.5946 C   0  0  0  0  0  0  0  0  0  0  0  0
  -22.6100  -26.9937   19.1037 C   0  0  0  0  0  0  0  0  0  0  0  0
  -21.9682  -29.3855   19.4718 C   0  0  0  0  0  0  0  0  0  0  0  0
  -20.5429  -27.5575   20.3936 C   0  0  0  0  0  0  0  0  0  0  0  0
  -23.7269  -30.2575   25.8198 C   0  0  0  0  0  0  0  0  0  0  0  0
  -31.8510  -27.1161   20.0197 C   0  0  0  0  0  0  0  0  0  0  0  0
  -32.4017  -27.1153   21.4474 C   0  0  0  0  0  0  0  0  0  0  0  0
  -31.4300  -26.5361   22.4690 C   0  0  0  0  0  0  0  0  0  1  0  0
  -29.5429  -23.0043   18.5338 C   0  0  2  0  0  0  0  0  0  0  0  0
  -22.7851  -28.0377   21.4586 C   0  0  1  0  0  0  0  0  0  0  0  0
  -22.1254  -30.7913   23.9789 C   0  0  2  0  0  0  0  0  0  0  0  0
  -32.5642  -22.7119   18.1214 C   0  0  0  0  0  0  0  0  0  0  0  0
  -22.0012  -27.9835   20.1169 C   0  0  0  0  0  0  0  0  0  0  0  0
  -27.8025  -15.7942   20.8639 N   0  0  0  0  0  0  0  0  0  0  0  0
  -30.3262  -25.2207   19.3751 N   0  0  0  0  0  0  0  0  0  0  0  0
  -32.5732  -24.9432   19.0482 N   0  0  0  0  0  0  0  0  0  0  0  0
  -29.1045  -16.1251   20.8292 N   0  0  0  0  0  0  0  0  0  0  0  0
  -31.8811  -23.8598   18.6642 N   0  0  0  0  0  0  0  0  0  0  0  0
  -24.1641  -26.1812   22.3391 N   0  0  0  0  0  0  0  0  0  0  0  0
  -28.8428  -19.9215   20.5004 N   0  0  0  0  0  0  0  0  0  0  0  0
  -31.2804  -15.2129   20.6186 N   0  0  0  0  0  0  0  0  0  0  0  0
  -29.7081  -12.0936   19.1383 N   0  0  0  0  0  0  0  0  0  0  0  0
  -23.9952  -22.6810   21.6682 N   0  0  0  0  0  0  0  0  0  0  0  0
  -22.2154  -28.9469   22.4471 N   0  0  0  0  0  0  0  0  0  0  0  0
  -29.3561  -22.0501   19.6041 N   0  0  0  0  0  0  0  0  0  0  0  0
  -23.0032  -31.3125   25.0646 N   0  3  0  0  0  0  0  0  0  0  0  0
  -29.8134  -11.8515   21.4163 O   0  0  0  0  0  0  0  0  0  0  0  0
  -25.1296  -24.4198   20.6137 O   0  0  0  0  0  0  0  0  0  0  0  0
  -21.8368  -26.1070   22.4582 O   0  0  0  0  0  0  0  0  0  0  0  0
  -24.1042  -30.2691   22.6948 O   0  0  0  0  0  0  0  0  0  0  0  0
  -28.7865  -20.3170   18.2160 O   0  0  0  0  0  0  0  0  0  0  0  0
  -23.0384  -11.5733   20.6773 O   0  0  0  0  0  0  0  0  0  0  0  0
  -30.2285  -27.3056   22.4461 O   0  0  0  0  0  0  0  0  0  1  0  0
  -23.3374   -6.1097   21.3576 F   0  0  0  0  0  0  0  0  0  0  0  0
  -21.7656  -10.3362   22.7968 F   0  0  0  0  0  0  0  0  0  0  0  0
  1  2  1  0  0  0  0
  1  5  2  0  0  0  0
  2  6  2  0  0  0  0
  3  8  2  0  0  0  0
  3 15  1  0  0  0  0
  4  9  1  0  0  0  0
  4 15  2  0  0  0  0
  5 17  1  0  0  0  0
  6 19  1  0  0  0  0
  7 10  2  0  0  0  0
  7 18  1  0  0  0  0
  8 21  1  0  0  0  0
  9 21  2  0  0  0  0
 10 22  1  0  0  0  0
 11 12  2  0  0  0  0
 11 23  1  0  0  0  0
 12 24  1  0  0  0  0
 13 20  1  0  0  0  0
 13 22  2  0  0  0  0
 14 24  2  0  0  0  0
 14 25  1  0  0  0  0
 15 26  1  0  0  0  0
 16 26  1  0  0  0  0
 16 27  2  0  0  0  0
 16 30  1  0  0  0  0
 17 19  2  0  0  0  0
 17 35  1  0  0  0  0
 18 20  2  0  0  0  0
 18 36  1  0  0  0  0
 19 44  1  0  0  0  0
 20 37  1  0  0  0  0
 21 81  1  0  0  0  0
 22 82  1  0  0  0  0
 23 25  2  0  0  0  0
 23 81  1  0  0  0  0
 24 83  1  0  0  0  0
 25 84  1  0  0  0  0
 26 63  2  0  0  0  0
 27 66  1  0  0  0  0
 27 70  1  0  0  0  0
 28 55  1  0  0  0  0
 28 64  1  0  0  0  0
 28 65  2  0  0  0  0
 29 58  1  0  0  0  0
 29 64  2  0  0  0  0
 29 67  1  0  0  0  0
 30 71  1  0  0  0  0
 30 76  2  0  0  0  0
 31 45  1  0  0  0  0
 31 72  1  0  0  0  0
 31 77  2  0  0  0  0
 32 59  1  0  0  0  0
 32 68  1  0  0  0  0
 32 78  2  0  0  0  0
 33 60  1  0  0  0  0
 33 73  1  0  0  0  0
 33 79  2  0  0  0  0
 34 69  1  0  0  0  0
 34 74  1  0  0  0  0
 34 80  2  0  0  0  0
 35 38  1  0  0  0  0
 36 45  1  0  0  0  0
 37 68  1  0  0  0  0
 38 40  1  0  0  0  0
 39 41  1  0  0  0  0
 39 42  1  0  0  0  0
 40 44  1  0  0  0  0
 41 46  1  0  0  0  0
 42 69  1  0  0  0  0
 43 46  1  0  0  0  0
 43 69  1  0  0  0  0
 44 72  1  0  0  0  0
 45 68  1  0  0  0  0
 46 66  1  0  0  0  0
 47 58  1  0  0  0  0
 48 60  1  0  0  0  0
 49 61  1  0  0  0  0
 50 61  1  0  0  0  0
 51 62  1  0  0  0  0
 52 62  1  0  0  0  0
 53 62  1  0  0  0  0
 54 75  1  0  0  0  0
 55 56  1  0  0  0  0
 56 57  1  0  0  0  0
 57 82  1  0  0  0  0
 58 74  1  0  0  0  0
 59 62  1  0  0  0  0
 59 73  1  0  0  0  0
 60 75  1  0  0  0  0
 61 67  1  0  0  0  0
 63 66  1  0  0  0  0
 65 67  1  0  0  0  0
M  CHG  1  75   1
M  ISO  4  34 100  57 101  74 100  82 101
M  END
> <Batch ID>
0062

> <Smiles>
CNC(C)C(=O)NC(C(=O)N1Cc2cc([101O:1][101CH2:1]CCc3nc(C(C)[100NH:0][100C:0](=O)N4CCCC(n5nc(-c6ccc(Oc7ccc(F)cc7F)cc6)c(C(N)=O)c5N)C4)n(C(C)C)n3)ccc2CC1C(=O)NC1CCCc2ccccc21)C(C)(C)C

> <Shape>
0.230

> <Color>
0.065

> <Negative vol penalty>
0.000

$$$$

  -OEChem-04052318003D

 87 95  0     1  0  0  0  0  0999 V2000
  -26.8433  -18.2565   19.6872 C   0  0  0  0  0  0  0  0  0  0  0  0
  -25.9103  -19.2883   19.6679 C   0  0  0  0  0  0  0  0  0  0  0  0
  -23.9503  -14.6279   19.6911 C   0  0  0  0  0  0  0  0  0  0  0  0
  -25.0656  -14.2938   21.8081 C   0  0  0  0  0  0  0  0  0  0  0  0
  -28.0747  -18.4434   20.3140 C   0  0  0  0  0  0  0  0  0  0  0  0
  -26.2077  -20.5072   20.2764 C   0  0  0  0  0  0  0  0  0  0  0  0
  -24.9675  -27.5307   19.6065 C   0  0  0  0  0  0  0  0  0  0  0  0
  -24.8564  -13.7632   19.0772 C   0  0  0  0  0  0  0  0  0  0  0  0
  -25.9717  -13.4290   21.1942 C   0  0  0  0  0  0  0  0  0  0  0  0
  -24.5131  -28.6198   20.3489 C   0  0  0  0  0  0  0  0  0  0  0  0
  -28.7980  -11.4147   20.1151 C   0  0  0  0  0  0  0  0  0  0  0  0
  -30.1496  -11.5652   20.4249 C   0  0  0  0  0  0  0  0  0  0  0  0
  -26.7030  -28.8553   21.3327 C   0  0  0  0  0  0  0  0  0  0  0  0
  -30.0920  -13.8271   19.5779 C   0  0  0  0  0  0  0  0  0  0  0  0
  -24.0550  -14.8933   21.0565 C   0  0  0  0  0  0  0  0  0  0  0  0
  -21.8896  -15.4478   22.2858 C   0  0  0  0  0  0  0  0  0  0  0  0
  -28.3911  -19.6685   20.9220 C   0  0  0  0  0  0  0  0  0  0  0  0
  -26.2924  -27.0882   19.7300 C   0  0  0  0  0  0  0  0  0  0  0  0
  -27.4439  -20.7102   20.9130 C   0  0  0  0  0  0  0  0  0  0  0  0
  -27.1725  -27.7619   20.5889 C   0  0  0  0  0  0  0  0  0  0  0  0
  -25.8671  -13.1637   19.8288 C   0  0  0  0  0  0  0  0  0  0  0  0
  -25.3800  -29.2805   21.2143 C   0  0  0  0  0  0  0  0  0  0  0  0
  -28.0933  -12.4704   19.5365 C   0  0  0  0  0  0  0  0  0  0  0  0
  -30.7966  -12.7713   20.1564 C   0  0  0  0  0  0  0  0  0  0  0  0
  -28.7403  -13.6766   19.2680 C   0  0  0  0  0  0  0  0  0  0  0  0
  -23.1196  -15.7869   21.6911 C   0  0  0  0  0  0  0  0  0  0  0  0
  -21.3869  -16.6425   22.7402 C   0  0  0  0  0  0  0  0  0  0  0  0
  -23.5914  -24.9445   25.9722 C   0  0  0  0  0  0  0  0  0  0  0  0
  -22.3265  -26.2659   26.9778 C   0  0  0  0  0  0  0  0  0  0  0  0
  -21.2578  -14.1673   22.4160 C   0  0  0  0  0  0  0  0  0  0  0  0
  -27.6766  -24.3907   20.6848 C   0  0  0  0  0  0  0  0  0  0  0  0
  -30.3791  -25.8822   19.6876 C   0  0  0  0  0  0  0  0  0  0  0  0
  -31.9933  -28.8149   19.0240 C   0  0  0  0  0  0  0  0  0  0  0  0
  -24.0364  -21.6665   24.3512 C   0  0  0  0  0  0  0  0  0  0  0  0
  -29.7164  -19.8075   21.6282 C   0  0  0  0  0  0  0  0  0  0  0  0
  -26.7744  -25.9285   18.9023 C   0  0  0  0  0  0  0  0  0  0  0  0
  -28.6098  -27.3390   20.7425 C   0  0  0  0  0  0  0  0  0  0  0  0
  -30.1002  -21.2551   21.9240 C   0  0  0  0  0  0  0  0  0  0  0  0
  -21.4765  -21.3374   21.8143 C   0  0  0  0  0  0  0  0  0  0  0  0
  -28.9168  -22.0096   22.5216 C   0  0  0  0  0  0  0  0  0  0  0  0
  -21.4969  -19.8299   21.5553 C   0  0  0  0  0  0  0  0  0  0  0  0
  -22.8823  -21.8740   22.0670 C   0  0  0  0  0  0  0  0  0  0  0  0
  -23.6339  -19.6861   22.9164 C   0  0  0  0  0  0  0  0  0  0  0  0
  -27.7392  -22.0552   21.5405 C   0  0  1  0  0  0  0  0  0  0  0  0
  -28.0036  -25.2436   19.4917 C   0  0  1  0  0  0  0  0  0  0  0  0
  -22.2397  -19.0788   22.6761 C   0  0  2  0  0  0  0  0  0  0  0  0
  -25.8881  -23.9998   25.5316 C   0  0  0  0  0  0  0  0  0  0  0  0
  -34.2073  -29.7156   18.2595 C   0  0  0  0  0  0  0  0  0  0  0  0
  -21.1042  -26.0696   29.1717 C   0  0  0  0  0  0  0  0  0  0  0  0
  -20.0437  -27.2970   27.2469 C   0  0  0  0  0  0  0  0  0  0  0  0
  -21.9335  -28.3155   28.5011 C   0  0  0  0  0  0  0  0  0  0  0  0
  -31.5578  -25.3188   22.4450 C   0  0  0  0  0  0  0  0  0  0  0  0
  -33.3277  -27.0218   21.9596 C   0  0  0  0  0  0  0  0  0  0  0  0
  -33.1447  -24.9770   20.5425 C   0  0  0  0  0  0  0  0  0  0  0  0
  -30.7850  -30.0815   16.6377 C   0  0  0  0  0  0  0  0  0  0  0  0
  -23.3123  -30.3687   24.3745 C   0  0  0  0  0  0  0  0  0  0  0  0
  -23.6636  -29.0128   24.9904 C   0  0  0  0  0  0  0  0  0  0  0  0
  -24.5654  -31.2229   24.1609 C   0  0  0  0  0  0  0  0  0  0  0  0
  -22.4078  -28.1752   25.2415 C   0  0  0  0  0  0  0  0  0  0  0  0
  -25.5560  -30.5651   23.2080 C   0  0  0  0  0  0  0  0  0  1  0  0
  -24.3723  -23.7379   25.6754 C   0  0  2  0  0  0  0  0  0  0  0  0
  -31.3975  -26.7921   20.3309 C   0  0  1  0  0  0  0  0  0  0  0  0
  -32.8200  -29.2623   17.8320 C   0  0  2  0  0  0  0  0  0  0  0  0
  -21.4179  -26.9506   27.9148 C   0  0  0  0  0  0  0  0  0  0  0  0
  -32.3294  -26.0344   21.3183 C   0  0  0  0  0  0  0  0  0  0  0  0
  -23.3824  -17.0947   21.7597 N   0  0  0  0  0  0  0  0  0  0  0  0
  -22.8484  -25.0687   27.1112 N   0  0  0  0  0  0  0  0  0  0  0  0
  -23.5621  -25.9896   25.1426 N   0  0  0  0  0  0  0  0  0  0  0  0
  -22.3103  -17.5879   22.4028 N   0  0  0  0  0  0  0  0  0  0  0  0
  -22.7463  -26.8205   25.8091 N   0  0  0  0  0  0  0  0  0  0  0  0
  -29.0319  -26.1957   19.9164 N   0  0  0  0  0  0  0  0  0  0  0  0
  -23.5272  -21.1289   23.1574 N   0  0  0  0  0  0  0  0  0  0  0  0
  -20.2495  -16.9662   23.3913 N   0  0  0  0  0  0  0  0  0  0  0  0
  -21.9119  -13.0434   21.8932 N   0  0  0  0  0  0  0  0  0  0  0  0
  -27.9725  -23.0514   20.5169 N   0  0  0  0  0  0  0  0  0  0  0  0
  -32.0990  -27.4568   19.2380 N   0  0  0  0  0  0  0  0  0  0  0  0
  -23.9020  -23.0416   24.4985 N   0  0  0  0  0  0  0  0  0  0  0  0
  -32.1500  -30.3952   17.1329 N   0  3  0  0  0  0  0  0  0  0  0  0
  -20.1387  -14.0263   22.9648 O   0  0  0  0  0  0  0  0  0  0  0  0
  -27.1931  -24.9096   21.6841 O   0  0  0  0  0  0  0  0  0  0  0  0
  -30.7648  -24.9325   19.0014 O   0  0  0  0  0  0  0  0  0  0  0  0
  -31.3239  -29.5929   19.7001 O   0  0  0  0  0  0  0  0  0  0  0  0
  -24.5671  -20.9714   25.2243 O   0  0  0  0  0  0  0  0  0  0  0  0
  -26.7513  -12.3197   19.2301 O   0  0  0  0  0  0  0  0  0  0  0  0
  -24.9389  -30.3434   21.9406 O   0  0  0  0  0  0  0  0  0  1  0  0
  -32.0942  -12.9162   20.4555 F   0  0  0  0  0  0  0  0  0  0  0  0
  -28.0683  -14.6947   18.7134 F   0  0  0  0  0  0  0  0  0  0  0  0
  1  2  1  0  0  0  0
  1  5  2  0  0  0  0
  2  6  2  0  0  0  0
  3  8  2  0  0  0  0
  3 15  1  0  0  0  0
  4  9  1  0  0  0  0
  4 15  2  0  0  0  0
  5 17  1  0  0  0  0
  6 19  1  0  0  0  0
  7 10  2  0  0  0  0
  7 18  1  0  0  0  0
  8 21  1  0  0  0  0
  9 21  2  0  0  0  0
 10 22  1  0  0  0  0
 11 12  2  0  0  0  0
 11 23  1  0  0  0  0
 12 24  1  0  0  0  0
 13 20  1  0  0  0  0
 13 22  2  0  0  0  0
 14 24  2  0  0  0  0
 14 25  1  0  0  0  0
 15 26  1  0  0  0  0
 16 26  1  0  0  0  0
 16 27  2  0  0  0  0
 16 30  1  0  0  0  0
 17 19  2  0  0  0  0
 17 35  1  0  0  0  0
 18 20  2  0  0  0  0
 18 36  1  0  0  0  0
 19 44  1  0  0  0  0
 20 37  1  0  0  0  0
 21 84  1  0  0  0  0
 22 85  1  0  0  0  0
 23 25  2  0  0  0  0
 23 84  1  0  0  0  0
 24 86  1  0  0  0  0
 25 87  1  0  0  0  0
 26 66  2  0  0  0  0
 27 69  1  0  0  0  0
 27 73  1  0  0  0  0
 28 61  1  0  0  0  0
 28 67  1  0  0  0  0
 28 68  2  0  0  0  0
 29 64  1  0  0  0  0
 29 67  2  0  0  0  0
 29 70  1  0  0  0  0
 30 74  1  0  0  0  0
 30 79  2  0  0  0  0
 31 45  1  0  0  0  0
 31 75  1  0  0  0  0
 31 80  2  0  0  0  0
 32 62  1  0  0  0  0
 32 71  1  0  0  0  0
 32 81  2  0  0  0  0
 33 63  1  0  0  0  0
 33 76  1  0  0  0  0
 33 82  2  0  0  0  0
 34 72  1  0  0  0  0
 34 77  1  0  0  0  0
 34 83  2  0  0  0  0
 35 38  1  0  0  0  0
 36 45  1  0  0  0  0
 37 71  1  0  0  0  0
 38 40  1  0  0  0  0
 39 41  1  0  0  0  0
 39 42  1  0  0  0  0
 40 44  1  0  0  0  0
 41 46  1  0  0  0  0
 42 72  1  0  0  0  0
 43 46  1  0  0  0  0
 43 72  1  0  0  0  0
 44 75  1  0  0  0  0
 45 71  1  0  0  0  0
 46 69  1  0  0  0  0
 47 61  1  0  0  0  0
 48 63  1  0  0  0  0
 49 64  1  0  0  0  0
 50 64  1  0  0  0  0
 51 64  1  0  0  0  0
 52 65  1  0  0  0  0
 53 65  1  0  0  0  0
 54 65  1  0  0  0  0
 55 78  1  0  0  0  0
 56 57  1  0  0  0  0
 56 58  1  0  0  0  0
 57 59  1  0  0  0  0
 58 60  1  0  0  0  0
 59 70  1  0  0  0  0
 60 85  1  0  0  0  0
 61 77  1  0  0  0  0
 62 65  1  0  0  0  0
 62 76  1  0  0  0  0
 63 78  1  0  0  0  0
 66 69  1  0  0  0  0
 68 70  1  0  0  0  0
M  CHG  1  78   1
M  ISO  4  34 100  60 101  77 100  85 101
M  END
> <Batch ID>
0062

> <Smiles>
CNC(C)C(=O)NC(C(=O)N1Cc2cc([101O:1][101CH2:1]CCCCn3nc(C(C)[100NH:0][100C:0](=O)N4CCCC(n5nc(-c6ccc(Oc7ccc(F)cc7F)cc6)c(C(N)=O)c5N)C4)nc3C(C)(C)C)ccc2CC1C(=O)NC1CCCc2ccccc21)C(C)(C)C

> <Shape>
0.201

> <Color>
0.064

> <Negative vol penalty>
0.000

$$$$

  -OEChem-04052318003D

 85 93  0     1  0  0  0  0  0999 V2000
  -23.5298   -8.1459   22.6585 C   0  0  0  0  0  0  0  0  0  0  0  0
  -24.2992   -9.0443   21.9263 C   0  0  0  0  0  0  0  0  0  0  0  0
  -21.3809  -28.7339   20.1546 C   0  0  0  0  0  0  0  0  0  0  0  0
  -21.8107  -27.2418   22.0055 C   0  0  0  0  0  0  0  0  0  0  0  0
  -22.1834   -8.4170   22.8986 C   0  0  0  0  0  0  0  0  0  0  0  0
  -23.7224  -10.2139   21.4327 C   0  0  0  0  0  0  0  0  0  0  0  0
  -26.6408  -14.2845   22.1798 C   0  0  0  0  0  0  0  0  0  0  0  0
  -20.0896  -28.2192   20.0395 C   0  0  0  0  0  0  0  0  0  0  0  0
  -20.5194  -26.7271   21.8905 C   0  0  0  0  0  0  0  0  0  0  0  0
  -27.7207  -14.4610   21.3158 C   0  0  0  0  0  0  0  0  0  0  0  0
  -18.8812  -24.5272   19.9138 C   0  0  0  0  0  0  0  0  0  0  0  0
  -18.7281  -23.1419   19.9711 C   0  0  0  0  0  0  0  0  0  0  0  0
  -26.4401  -16.0692   20.0535 C   0  0  0  0  0  0  0  0  0  0  0  0
  -17.3054  -23.3793   21.9093 C   0  0  0  0  0  0  0  0  0  0  0  0
  -30.7714  -22.2728   20.8826 C   0  0  0  0  0  0  0  0  0  0  0  0
  -28.8805  -21.2150   21.2850 C   0  0  0  0  0  0  0  0  0  0  0  0
  -22.2415  -28.2451   21.1376 C   0  0  0  0  0  0  0  0  0  0  0  0
  -23.9889  -29.8688   22.0419 C   0  0  0  0  0  0  0  0  0  0  0  0
  -21.5922   -9.5952   22.4159 C   0  0  0  0  0  0  0  0  0  0  0  0
  -25.4466  -14.9921   21.9804 C   0  0  0  0  0  0  0  0  0  0  0  0
  -22.3665  -10.5004   21.6654 C   0  0  0  0  0  0  0  0  0  0  0  0
  -25.3474  -15.9017   20.9179 C   0  0  0  0  0  0  0  0  0  0  0  0
  -19.6588  -27.2159   20.9075 C   0  0  0  0  0  0  0  0  0  0  0  0
  -27.6194  -15.3513   20.2508 C   0  0  0  0  0  0  0  0  0  0  0  0
  -18.2464  -25.3385   20.8544 C   0  0  0  0  0  0  0  0  0  0  0  0
  -17.9403  -22.5680   20.9688 C   0  0  0  0  0  0  0  0  0  0  0  0
  -17.4585  -24.7645   21.8521 C   0  0  0  0  0  0  0  0  0  0  0  0
  -23.5757  -28.7759   21.2566 C   0  0  0  0  0  0  0  0  0  0  0  0
  -29.8695  -23.0837   21.5303 C   0  0  0  0  0  0  0  0  0  0  0  0
  -25.3390  -29.9678   21.8093 C   0  0  0  0  0  0  0  0  0  0  0  0
  -23.2211  -30.7185   22.9045 C   0  0  0  0  0  0  0  0  0  0  0  0
  -22.4362  -14.1821   21.3603 C   0  0  0  0  0  0  0  0  0  0  0  0
  -21.9108  -17.3592   21.7509 C   0  0  0  0  0  0  0  0  0  0  0  0
  -23.1657  -20.5323   21.6900 C   0  0  0  0  0  0  0  0  0  0  0  0
  -29.4780  -26.0063   20.0697 C   0  0  0  0  0  0  0  0  0  0  0  0
  -20.1213   -9.8222   22.6604 C   0  0  0  0  0  0  0  0  0  0  0  0
  -24.3003  -14.8103   22.9371 C   0  0  0  0  0  0  0  0  0  0  0  0
  -24.0945  -16.7007   20.6724 C   0  0  0  0  0  0  0  0  0  0  0  0
  -19.6797  -11.2639   22.4222 C   0  0  0  0  0  0  0  0  0  0  0  0
  -28.6376  -29.0699   18.4621 C   0  0  0  0  0  0  0  0  0  0  0  0
  -20.2499  -11.7867   21.1075 C   0  0  0  0  0  0  0  0  0  0  0  0
  -27.2823  -29.4406   19.0668 C   0  0  0  0  0  0  0  0  0  0  0  0
  -28.7775  -27.5611   18.2729 C   0  0  0  0  0  0  0  0  0  0  0  0
  -27.1684  -27.1296   20.0890 C   0  0  0  0  0  0  0  0  0  0  0  0
  -21.7831  -11.7919   21.1344 C   0  0  1  0  0  0  0  0  0  0  0  0
  -22.9533  -15.2005   22.3366 C   0  0  1  0  0  0  0  0  0  0  0  0
  -27.0023  -28.6363   20.3505 C   0  0  2  0  0  0  0  0  0  0  0  0
  -29.9062  -24.6948   23.4706 C   0  0  0  0  0  0  0  0  0  0  0  0
  -22.4862  -22.9259   22.0156 C   0  0  0  0  0  0  0  0  0  0  0  0
  -20.5569  -17.3443   19.0166 C   0  0  0  0  0  0  0  0  0  0  0  0
  -20.7591  -19.8395   18.9804 C   0  0  0  0  0  0  0  0  0  0  0  0
  -19.3960  -18.7260   20.7480 C   0  0  0  0  0  0  0  0  0  0  0  0
  -30.0250  -18.4617   16.4586 C   0  0  0  0  0  0  0  0  0  0  0  0
  -32.1695  -18.5085   17.7235 C   0  0  0  0  0  0  0  0  0  0  0  0
  -25.0548  -20.8835   23.9410 C   0  0  0  0  0  0  0  0  0  0  0  0
  -30.1087  -19.6603   18.6576 C   0  0  0  0  0  0  0  0  0  0  0  0
  -30.2933  -17.0778   18.5645 C   0  0  0  0  0  0  0  0  0  0  0  0
  -30.6759  -19.8391   20.0722 C   0  0  0  0  0  0  0  0  0  0  0  0
  -28.8092  -16.8072   18.7945 C   0  0  0  0  0  0  0  0  0  1  0  0
  -30.0402  -24.4838   21.9472 C   0  0  2  0  0  0  0  0  0  0  0  0
  -21.9173  -18.5637   20.8410 C   0  0  1  0  0  0  0  0  0  0  0  0
  -23.0524  -21.6794   22.6777 C   0  0  2  0  0  0  0  0  0  0  0  0
  -20.6804  -18.6021   19.8997 C   0  0  0  0  0  0  0  0  0  0  0  0
  -30.6360  -18.4250   17.8758 C   0  0  0  0  0  0  0  0  0  0  0  0
  -28.6945  -22.4192   21.7782 N   0  0  0  0  0  0  0  0  0  0  0  0
  -24.5818  -28.2205   20.5758 N   0  0  0  0  0  0  0  0  0  0  0  0
  -30.1238  -21.0789   20.7328 N   0  0  0  0  0  0  0  0  0  0  0  0
  -25.6405  -28.9674   20.9327 N   0  0  0  0  0  0  0  0  0  0  0  0
  -22.9990  -16.4831   21.6316 N   0  0  0  0  0  0  0  0  0  0  0  0
  -28.5007  -26.8571   19.5274 N   0  0  0  0  0  0  0  0  0  0  0  0
  -26.2857  -30.8122   22.2710 N   0  0  0  0  0  0  0  0  0  0  0  0
  -21.8460  -30.4774   23.0285 N   0  0  0  0  0  0  0  0  0  0  0  0
  -22.2713  -12.9200   21.8982 N   0  0  0  0  0  0  0  0  0  0  0  0
  -22.0445  -19.7299   21.7083 N   0  0  0  0  0  0  0  0  0  0  0  0
  -29.1372  -25.3830   21.2639 N   0  0  0  0  0  0  0  0  0  0  0  0
  -24.3917  -22.0130   23.2400 N   0  3  0  0  0  0  0  0  0  0  0  0
  -23.7361  -31.6737   23.5337 O   0  0  0  0  0  0  0  0  0  0  0  0
  -22.2025  -14.5170   20.2048 O   0  0  0  0  0  0  0  0  0  0  0  0
  -20.9783  -17.2052   22.5436 O   0  0  0  0  0  0  0  0  0  0  0  0
  -24.1488  -20.3668   20.9712 O   0  0  0  0  0  0  0  0  0  0  0  0
  -30.5750  -25.8203   19.5323 O   0  0  0  0  0  0  0  0  0  0  0  0
  -18.3987  -26.7136   20.7957 O   0  0  0  0  0  0  0  0  0  0  0  0
  -28.6717  -15.5250   19.4056 O   0  0  0  0  0  0  0  0  0  1  0  0
  -17.7921  -21.2378   21.0228 F   0  0  0  0  0  0  0  0  0  0  0  0
  -16.8453  -25.5389   22.7577 F   0  0  0  0  0  0  0  0  0  0  0  0
  1  2  1  0  0  0  0
  1  5  2  0  0  0  0
  2  6  2  0  0  0  0
  3  8  2  0  0  0  0
  3 17  1  0  0  0  0
  4  9  1  0  0  0  0
  4 17  2  0  0  0  0
  5 19  1  0  0  0  0
  6 21  1  0  0  0  0
  7 10  2  0  0  0  0
  7 20  1  0  0  0  0
  8 23  1  0  0  0  0
  9 23  2  0  0  0  0
 10 24  1  0  0  0  0
 11 12  2  0  0  0  0
 11 25  1  0  0  0  0
 12 26  1  0  0  0  0
 13 22  1  0  0  0  0
 13 24  2  0  0  0  0
 14 26  2  0  0  0  0
 14 27  1  0  0  0  0
 15 29  2  0  0  0  0
 15 67  1  0  0  0  0
 16 65  2  0  0  0  0
 16 67  1  0  0  0  0
 17 28  1  0  0  0  0
 18 28  1  0  0  0  0
 18 30  2  0  0  0  0
 18 31  1  0  0  0  0
 19 21  2  0  0  0  0
 19 36  1  0  0  0  0
 20 22  2  0  0  0  0
 20 37  1  0  0  0  0
 21 45  1  0  0  0  0
 22 38  1  0  0  0  0
 23 82  1  0  0  0  0
 24 83  1  0  0  0  0
 25 27  2  0  0  0  0
 25 82  1  0  0  0  0
 26 84  1  0  0  0  0
 27 85  1  0  0  0  0
 28 66  2  0  0  0  0
 29 60  1  0  0  0  0
 29 65  1  0  0  0  0
 30 68  1  0  0  0  0
 30 71  1  0  0  0  0
 31 72  1  0  0  0  0
 31 77  2  0  0  0  0
 32 46  1  0  0  0  0
 32 73  1  0  0  0  0
 32 78  2  0  0  0  0
 33 61  1  0  0  0  0
 33 69  1  0  0  0  0
 33 79  2  0  0  0  0
 34 62  1  0  0  0  0
 34 74  1  0  0  0  0
 34 80  2  0  0  0  0
 35 70  1  0  0  0  0
 35 75  1  0  0  0  0
 35 81  2  0  0  0  0
 36 39  1  0  0  0  0
 37 46  1  0  0  0  0
 38 69  1  0  0  0  0
 39 41  1  0  0  0  0
 40 42  1  0  0  0  0
 40 43  1  0  0  0  0
 41 45  1  0  0  0  0
 42 47  1  0  0  0  0
 43 70  1  0  0  0  0
 44 47  1  0  0  0  0
 44 70  1  0  0  0  0
 45 73  1  0  0  0  0
 46 69  1  0  0  0  0
 47 68  1  0  0  0  0
 48 60  1  0  0  0  0
 49 62  1  0  0  0  0
 50 63  1  0  0  0  0
 51 63  1  0  0  0  0
 52 63  1  0  0  0  0
 53 64  1  0  0  0  0
 54 64  1  0  0  0  0
 55 76  1  0  0  0  0
 56 58  1  0  0  0  0
 56 64  1  0  0  0  0
 57 59  1  0  0  0  0
 57 64  1  0  0  0  0
 58 67  1  0  0  0  0
 59 83  1  0  0  0  0
 60 75  1  0  0  0  0
 61 63  1  0  0  0  0
 61 74  1  0  0  0  0
 62 76  1  0  0  0  0
 66 68  1  0  0  0  0
M  CHG  1  76   1
M  ISO  4  35 100  59 101  75 100  83 101
M  END
> <Batch ID>
0062

> <Smiles>
CNC(C)C(=O)NC(C(=O)N1Cc2cc([101O:1][101CH2:1]CC(C)(C)CCn3cnc(C(C)[100NH:0][100C:0](=O)N4CCCC(n5nc(-c6ccc(Oc7ccc(F)cc7F)cc6)c(C(N)=O)c5N)C4)c3)ccc2CC1C(=O)NC1CCCc2ccccc21)C(C)(C)C

> <Shape>
0.219

> <Color>
0.078

> <Negative vol penalty>
0.000

$$$$

  -OEChem-04052318003D

 89 97  0     1  0  0  0  0  0999 V2000
  -31.0965  -26.1898   13.5122 C   0  0  0  0  0  0  0  0  0  0  0  0
  -30.4216  -25.2556   14.2914 C   0  0  0  0  0  0  0  0  0  0  0  0
  -28.4877  -16.7887   19.9129 C   0  0  0  0  0  0  0  0  0  0  0  0
  -28.0860  -16.6754   22.2926 C   0  0  0  0  0  0  0  0  0  0  0  0
  -31.4831  -27.4092   14.0666 C   0  0  0  0  0  0  0  0  0  0  0  0
  -30.1338  -25.5399   15.6259 C   0  0  0  0  0  0  0  0  0  0  0  0
  -25.1739  -23.8067   18.7725 C   0  0  0  0  0  0  0  0  0  0  0  0
  -29.3513  -17.8661   20.1099 C   0  0  0  0  0  0  0  0  0  0  0  0
  -28.9497  -17.7528   22.4896 C   0  0  0  0  0  0  0  0  0  0  0  0
  -24.9477  -22.7596   19.6647 C   0  0  0  0  0  0  0  0  0  0  0  0
  -31.3838  -20.8773   19.9515 C   0  0  0  0  0  0  0  0  0  0  0  0
  -31.2624  -21.9726   19.0964 C   0  0  0  0  0  0  0  0  0  0  0  0
  -25.3758  -24.2497   21.5128 C   0  0  0  0  0  0  0  0  0  0  0  0
  -28.9794  -22.2862   19.8222 C   0  0  0  0  0  0  0  0  0  0  0  0
  -24.7005  -18.7390   25.6507 C   0  0  0  0  0  0  0  0  0  0  0  0
  -27.8549  -16.1933   21.0042 C   0  0  0  0  0  0  0  0  0  0  0  0
  -27.2964  -13.7132   20.7928 C   0  0  0  0  0  0  0  0  0  0  0  0
  -31.1914  -27.7126   15.4058 C   0  0  0  0  0  0  0  0  0  0  0  0
  -25.5141  -25.0828   19.2442 C   0  0  0  0  0  0  0  0  0  0  0  0
  -30.5181  -26.7640   16.1991 C   0  0  0  0  0  0  0  0  0  0  0  0
  -25.6033  -25.3120   20.6246 C   0  0  0  0  0  0  0  0  0  0  0  0
  -29.5824  -18.3481   21.3983 C   0  0  0  0  0  0  0  0  0  0  0  0
  -25.0515  -22.9802   21.0350 C   0  0  0  0  0  0  0  0  0  0  0  0
  -30.3029  -20.4864   20.7419 C   0  0  0  0  0  0  0  0  0  0  0  0
  -30.0602  -22.6771   19.0317 C   0  0  0  0  0  0  0  0  0  0  0  0
  -29.1008  -21.1909   20.6773 C   0  0  0  0  0  0  0  0  0  0  0  0
  -26.9622  -15.0807   20.8012 C   0  0  0  0  0  0  0  0  0  0  0  0
  -24.1738  -18.1876   26.8008 C   0  0  0  0  0  0  0  0  0  0  0  0
  -23.7822  -19.2723   24.7695 C   0  0  0  0  0  0  0  0  0  0  0  0
  -26.1050  -13.0700   20.5619 C   0  0  0  0  0  0  0  0  0  0  0  0
  -22.0609  -18.7062   26.1421 C   0  0  0  0  0  0  0  0  0  0  0  0
  -28.5699  -13.0809   20.9772 C   0  0  0  0  0  0  0  0  0  0  0  0
  -28.0329  -26.9949   18.9237 C   0  0  0  0  0  0  0  0  0  0  0  0
  -26.1521  -29.0959   20.5270 C   0  0  0  0  0  0  0  0  0  0  0  0
  -23.5362  -29.5993   22.6602 C   0  0  0  0  0  0  0  0  0  0  0  0
  -20.3964  -14.5830   21.5486 C   0  0  0  0  0  0  0  0  0  0  0  0
  -31.6712  -29.0247   15.9740 C   0  0  0  0  0  0  0  0  0  0  0  0
  -25.7287  -26.2082   18.2697 C   0  0  0  0  0  0  0  0  0  0  0  0
  -25.9457  -26.6684   21.1827 C   0  0  0  0  0  0  0  0  0  0  0  0
  -30.9976  -29.4007   17.2913 C   0  0  0  0  0  0  0  0  0  0  0  0
  -21.8664  -13.6903   18.4311 C   0  0  0  0  0  0  0  0  0  0  0  0
  -30.9736  -28.2055   18.2388 C   0  0  0  0  0  0  0  0  0  0  0  0
  -23.3692  -13.8220   18.6843 C   0  0  0  0  0  0  0  0  0  0  0  0
  -21.0729  -14.7640   19.1725 C   0  0  0  0  0  0  0  0  0  0  0  0
  -22.8434  -14.9743   20.8739 C   0  0  0  0  0  0  0  0  0  0  0  0
  -30.1659  -27.0458   17.6436 C   0  0  1  0  0  0  0  0  0  0  0  0
  -26.5733  -27.3420   18.8429 C   0  0  1  0  0  0  0  0  0  0  0  0
  -23.6810  -13.8791   20.1919 C   0  0  2  0  0  0  0  0  0  0  0  0
  -25.0891  -17.5864   27.8138 C   0  0  0  0  0  0  0  0  0  0  0  0
  -22.2594  -31.4251   23.8151 C   0  0  0  0  0  0  0  0  0  0  0  0
  -19.9849  -20.1169   26.4693 C   0  0  0  0  0  0  0  0  0  0  0  0
  -20.2470  -17.9441   27.7351 C   0  0  0  0  0  0  0  0  0  0  0  0
  -28.4421  -29.4370   22.5143 C   0  0  0  0  0  0  0  0  0  0  0  0
  -26.8148  -30.4835   24.1033 C   0  0  0  0  0  0  0  0  0  0  0  0
  -27.2700  -31.5588   21.8990 C   0  0  0  0  0  0  0  0  0  0  0  0
  -21.0117  -28.8458   21.3117 C   0  0  0  0  0  0  0  0  0  0  0  0
  -19.4347  -18.8784   24.2198 C   0  0  0  0  0  0  0  0  0  0  0  0
  -19.2985  -15.7310   24.4640 C   0  0  0  0  0  0  0  0  0  0  0  0
  -19.8769  -14.4097   23.9692 C   0  0  0  0  0  0  0  0  0  0  0  0
  -20.3798  -16.6911   24.9431 C   0  0  0  0  0  0  0  0  0  0  0  0
  -23.9130  -20.9455   21.5037 C   0  0  0  0  0  0  0  0  0  1  0  0
  -23.2352  -20.3726   22.7333 C   0  0  0  0  0  0  0  0  0  0  0  0
  -25.9159  -29.4254   21.9812 C   0  0  1  0  0  0  0  0  0  0  0  0
  -22.3414  -30.5329   22.5862 C   0  0  2  0  0  0  0  0  0  0  0  0
  -20.5952  -18.6880   26.4150 C   0  0  0  0  0  0  0  0  0  0  0  0
  -27.1061  -30.2000   22.6142 C   0  0  0  0  0  0  0  0  0  0  0  0
  -25.6605  -15.2947   20.5922 N   0  0  0  0  0  0  0  0  0  0  0  0
  -22.8542  -18.1539   27.0797 N   0  0  0  0  0  0  0  0  0  0  0  0
  -22.4501  -19.2729   24.9841 N   0  0  0  0  0  0  0  0  0  0  0  0
  -25.1662  -14.0531   20.4501 N   0  0  0  0  0  0  0  0  0  0  0  0
  -26.1527  -27.7351   20.1893 N   0  0  0  0  0  0  0  0  0  0  0  0
  -21.4137  -14.7642   20.5972 N   0  0  0  0  0  0  0  0  0  0  0  0
  -25.7793  -11.7651   20.4455 N   0  0  0  0  0  0  0  0  0  0  0  0
  -29.6912  -13.8905   21.2043 N   0  0  0  0  0  0  0  0  0  0  0  0
  -28.7470  -27.2959   17.7796 N   0  0  0  0  0  0  0  0  0  0  0  0
  -24.6430  -30.1360   22.0372 N   0  0  0  0  0  0  0  0  0  0  0  0
  -20.8062  -14.5902   22.8763 N   0  0  0  0  0  0  0  0  0  0  0  0
  -21.0773  -29.7496   22.4889 N   0  3  0  0  0  0  0  0  0  0  0  0
  -19.7420  -17.9719   25.3632 N   0  3  1  0  0  0  0  0  0  0  0  0
  -28.7122  -11.8357   20.9254 O   0  0  0  0  0  0  0  0  0  0  0  0
  -28.4787  -26.4926   19.9487 O   0  0  0  0  0  0  0  0  0  0  0  0
  -26.3224  -30.0124   19.7192 O   0  0  0  0  0  0  0  0  0  0  0  0
  -23.4930  -28.5051   23.2183 O   0  0  0  0  0  0  0  0  0  0  0  0
  -19.2115  -14.4211   21.2377 O   0  0  0  0  0  0  0  0  0  0  0  0
  -30.4253  -19.3993   21.5910 O   0  0  0  0  0  0  0  0  0  0  0  0
  -24.8318  -21.9597   21.9080 O   0  0  0  0  0  0  0  0  0  1  0  0
  -24.2257  -19.8389   23.6036 O   0  0  0  0  0  0  0  0  0  0  0  0
  -29.9443  -23.7298   18.2117 F   0  0  0  0  0  0  0  0  0  0  0  0
  -28.0593  -20.8208   21.4351 F   0  0  0  0  0  0  0  0  0  0  0  0
  1  2  1  0  0  0  0
  1  5  2  0  0  0  0
  2  6  2  0  0  0  0
  3  8  2  0  0  0  0
  3 16  1  0  0  0  0
  4  9  1  0  0  0  0
  4 16  2  0  0  0  0
  5 18  1  0  0  0  0
  6 20  1  0  0  0  0
  7 10  2  0  0  0  0
  7 19  1  0  0  0  0
  8 22  1  0  0  0  0
  9 22  2  0  0  0  0
 10 23  1  0  0  0  0
 11 12  2  0  0  0  0
 11 24  1  0  0  0  0
 12 25  1  0  0  0  0
 13 21  1  0  0  0  0
 13 23  2  0  0  0  0
 14 25  2  0  0  0  0
 14 26  1  0  0  0  0
 15 28  2  0  0  0  0
 15 29  1  0  0  0  0
 16 27  1  0  0  0  0
 17 27  1  0  0  0  0
 17 30  2  0  0  0  0
 17 32  1  0  0  0  0
 18 20  2  0  0  0  0
 18 37  1  0  0  0  0
 19 21  2  0  0  0  0
 19 38  1  0  0  0  0
 20 46  1  0  0  0  0
 21 39  1  0  0  0  0
 22 85  1  0  0  0  0
 23 86  1  0  0  0  0
 24 26  2  0  0  0  0
 24 85  1  0  0  0  0
 25 88  1  0  0  0  0
 26 89  1  0  0  0  0
 27 67  2  0  0  0  0
 28 49  1  0  0  0  0
 28 68  1  0  0  0  0
 29 69  2  0  0  0  0
 29 87  1  0  0  0  0
 30 70  1  0  0  0  0
 30 73  1  0  0  0  0
 31 65  1  0  0  0  0
 31 68  2  0  0  0  0
 31 69  1  0  0  0  0
 32 74  1  0  0  0  0
 32 80  2  0  0  0  0
 33 47  1  0  0  0  0
 33 75  1  0  0  0  0
 33 81  2  0  0  0  0
 34 63  1  0  0  0  0
 34 71  1  0  0  0  0
 34 82  2  0  0  0  0
 35 64  1  0  0  0  0
 35 76  1  0  0  0  0
 35 83  2  0  0  0  0
 36 72  1  0  0  0  0
 36 77  1  0  0  0  0
 36 84  2  0  0  0  0
 37 40  1  0  0  0  0
 38 47  1  0  0  0  0
 39 71  1  0  0  0  0
 40 42  1  0  0  0  0
 41 43  1  0  0  0  0
 41 44  1  0  0  0  0
 42 46  1  0  0  0  0
 43 48  1  0  0  0  0
 44 72  1  0  0  0  0
 45 48  1  0  0  0  0
 45 72  1  0  0  0  0
 46 75  1  0  0  0  0
 47 71  1  0  0  0  0
 48 70  1  0  0  0  0
 50 64  1  0  0  0  0
 51 65  1  0  0  0  0
 52 65  1  0  0  0  0
 53 66  1  0  0  0  0
 54 66  1  0  0  0  0
 55 66  1  0  0  0  0
 56 78  1  0  0  0  0
 57 79  1  0  0  0  0
 58 59  1  0  0  0  0
 58 60  1  0  0  0  0
 59 77  1  0  0  0  0
 60 79  1  0  0  0  0
 61 62  1  0  0  0  0
 61 86  1  0  0  0  0
 62 87  1  0  0  0  0
 63 66  1  0  0  0  0
 63 76  1  0  0  0  0
 64 78  1  0  0  0  0
 65 79  1  0  0  0  0
 67 70  1  0  0  0  0
M  CHG  2  78   1  79   1
M  ISO  4  36 100  61 101  77 100  86 101
M  END
> <Batch ID>
0062

> <Smiles>
CNC(C)C(=O)NC(C(=O)N1Cc2cc([101O:1][101CH2:1]COc3cc(C)nc(C(C)(C)N(C)CCC[100NH:0][100C:0](=O)N4CCCC(n5nc(-c6ccc(Oc7ccc(F)cc7F)cc6)c(C(N)=O)c5N)C4)n3)ccc2CC1C(=O)NC1CCCc2ccccc21)C(C)(C)C

> <Shape>
0.215

> <Color>
0.081

> <Negative vol penalty>
0.000

$$$$

  -OEChem-04052318003D

 85 93  0     1  0  0  0  0  0999 V2000
  -23.4771  -23.9313   18.9939 C   0  0  0  0  0  0  0  0  0  0  0  0
  -24.5908  -23.1498   19.2847 C   0  0  0  0  0  0  0  0  0  0  0  0
  -23.4744  -26.3205   21.8573 C   0  0  0  0  0  0  0  0  0  0  0  0
  -23.1107  -28.7074   21.9436 C   0  0  0  0  0  0  0  0  0  0  0  0
  -22.2211  -23.5574   19.4697 C   0  0  0  0  0  0  0  0  0  0  0  0
  -24.4491  -21.9945   20.0526 C   0  0  0  0  0  0  0  0  0  0  0  0
  -26.9997  -18.0623   18.1351 C   0  0  0  0  0  0  0  0  0  0  0  0
  -22.2910  -26.1145   22.5663 C   0  0  0  0  0  0  0  0  0  0  0  0
  -21.9272  -28.5014   22.6526 C   0  0  0  0  0  0  0  0  0  0  0  0
  -28.3765  -18.0293   18.3525 C   0  0  0  0  0  0  0  0  0  0  0  0
  -18.6253  -28.5876   24.1718 C   0  0  0  0  0  0  0  0  0  0  0  0
  -17.5004  -29.3147   23.7826 C   0  0  0  0  0  0  0  0  0  0  0  0
  -28.0479  -16.4620   20.1566 C   0  0  0  0  0  0  0  0  0  0  0  0
  -17.6169  -28.3185   21.5846 C   0  0  0  0  0  0  0  0  0  0  0  0
  -23.8843  -27.6170   21.5460 C   0  0  0  0  0  0  0  0  0  0  0  0
  -25.2594  -27.9044   19.4166 C   0  0  0  0  0  0  0  0  0  0  0  0
  -22.0624  -22.3918   20.2357 C   0  0  0  0  0  0  0  0  0  0  0  0
  -26.1344  -17.3025   18.9352 C   0  0  0  0  0  0  0  0  0  0  0  0
  -23.1899  -21.6054   20.5403 C   0  0  0  0  0  0  0  0  0  0  0  0
  -26.6608  -16.4851   19.9456 C   0  0  0  0  0  0  0  0  0  0  0  0
  -21.5174  -27.2049   22.9639 C   0  0  0  0  0  0  0  0  0  0  0  0
  -28.9005  -17.2313   19.3652 C   0  0  0  0  0  0  0  0  0  0  0  0
  -19.2461  -27.7260   23.2673 C   0  0  0  0  0  0  0  0  0  0  0  0
  -16.9961  -29.1801   22.4890 C   0  0  0  0  0  0  0  0  0  0  0  0
  -18.7419  -27.5914   21.9738 C   0  0  0  0  0  0  0  0  0  0  0  0
  -25.1070  -27.8305   20.8142 C   0  0  0  0  0  0  0  0  0  0  0  0
  -26.6033  -28.1169   19.2285 C   0  0  0  0  0  0  0  0  0  0  0  0
  -31.4070  -25.4041   20.6737 C   0  0  0  0  0  0  0  0  0  0  0  0
  -30.6139  -24.5187   18.7702 C   0  0  0  0  0  0  0  0  0  0  0  0
  -31.4543  -23.1818   20.3648 C   0  0  0  0  0  0  0  0  0  0  0  0
  -24.2743  -27.7913   18.3811 C   0  0  0  0  0  0  0  0  0  0  0  0
  -31.6888  -26.5783   21.5096 C   0  0  0  0  0  0  0  0  0  0  0  0
  -23.7585  -17.9760   20.9365 C   0  0  0  0  0  0  0  0  0  0  0  0
  -23.4205  -14.7506   21.0042 C   0  0  0  0  0  0  0  0  0  0  0  0
  -24.8440  -11.6787   20.5750 C   0  0  0  0  0  0  0  0  0  0  0  0
  -20.6923  -22.0537   20.7678 C   0  0  0  0  0  0  0  0  0  0  0  0
  -24.6539  -17.3285   18.6705 C   0  0  0  0  0  0  0  0  0  0  0  0
  -25.7762  -15.6348   20.8191 C   0  0  0  0  0  0  0  0  0  0  0  0
  -20.5680  -20.6139   21.2595 C   0  0  0  0  0  0  0  0  0  0  0  0
  -30.2996  -29.8246   22.0325 C   0  0  0  0  0  0  0  0  0  0  0  0
  -21.7599  -20.2447   22.1369 C   0  0  0  0  0  0  0  0  0  0  0  0
  -28.8275  -29.6481   21.6558 C   0  0  0  0  0  0  0  0  0  0  0  0
  -30.8622  -28.5762   22.7075 C   0  0  0  0  0  0  0  0  0  0  0  0
  -29.2049  -27.1484   21.5588 C   0  0  0  0  0  0  0  0  0  0  0  0
  -23.0728  -20.3319   21.3493 C   0  0  1  0  0  0  0  0  0  0  0  0
  -23.8233  -16.9099   19.8796 C   0  0  1  0  0  0  0  0  0  0  0  0
  -28.6129  -28.3659   20.8299 C   0  0  1  0  0  0  0  0  0  0  0  0
  -29.9873  -24.6919   17.4283 C   0  0  0  0  0  0  0  0  0  0  0  0
  -24.3287   -9.2283   20.7403 C   0  0  0  0  0  0  0  0  0  0  0  0
  -23.5964  -14.9213   24.0455 C   0  0  0  0  0  0  0  0  0  0  0  0
  -24.0317  -12.4562   24.0891 C   0  0  0  0  0  0  0  0  0  0  0  0
  -21.8735  -13.3241   23.1882 C   0  0  0  0  0  0  0  0  0  0  0  0
  -29.5216  -20.7522   20.3042 C   0  0  0  0  0  0  0  0  0  0  0  0
  -29.9614  -21.6981   22.5759 C   0  0  0  0  0  0  0  0  0  0  0  0
  -25.4018  -11.2490   17.7004 C   0  0  0  0  0  0  0  0  0  0  0  0
  -31.7999  -21.7956   20.8656 C   0  0  0  0  0  0  0  0  0  0  0  0
  -32.0276  -17.6212   21.1487 C   0  0  0  0  0  0  0  0  0  0  0  0
  -30.6821  -16.9521   20.9157 C   0  0  0  0  0  0  0  0  0  1  0  0
  -31.9616  -19.1241   20.9270 C   0  0  0  0  0  0  0  0  0  0  0  0
  -23.9918  -13.6331   21.8432 C   0  0  1  0  0  0  0  0  0  0  0  0
  -24.3707  -10.4446   19.8284 C   0  0  2  0  0  0  0  0  0  0  0  0
  -23.3901  -13.6011   23.2765 C   0  0  0  0  0  0  0  0  0  0  0  0
  -30.5906  -20.9795   21.3753 C   0  0  0  0  0  0  0  0  0  0  0  0
  -26.2619  -27.9833   21.4676 N   0  0  0  0  0  0  0  0  0  0  0  0
  -30.8419  -25.6367   19.4780 N   0  0  0  0  0  0  0  0  0  0  0  0
  -31.7406  -24.2073   21.1830 N   0  0  0  0  0  0  0  0  0  0  0  0
  -30.8927  -23.2606   19.1477 N   0  0  0  0  0  0  0  0  0  0  0  0
  -27.1528  -28.1554   20.4762 N   0  0  0  0  0  0  0  0  0  0  0  0
  -30.6167  -27.3900   21.8882 N   0  0  0  0  0  0  0  0  0  0  0  0
  -24.3350  -15.6993   20.5252 N   0  0  0  0  0  0  0  0  0  0  0  0
  -27.3567  -28.2725   18.1193 N   0  0  0  0  0  0  0  0  0  0  0  0
  -22.9396  -27.5738   18.7495 N   0  0  0  0  0  0  0  0  0  0  0  0
  -23.2280  -19.1735   20.4958 N   0  0  0  0  0  0  0  0  0  0  0  0
  -23.7876  -12.4056   21.0818 N   0  0  0  0  0  0  0  0  0  0  0  0
  -25.2838  -10.1465   18.6890 N   0  3  0  0  0  0  0  0  0  0  0  0
  -24.5713  -27.8640   17.1645 O   0  0  0  0  0  0  0  0  0  0  0  0
  -32.8682  -26.7644   21.8054 O   0  0  0  0  0  0  0  0  0  0  0  0
  -24.1586  -17.7299   22.0683 O   0  0  0  0  0  0  0  0  0  0  0  0
  -22.2085  -14.7766   20.7760 O   0  0  0  0  0  0  0  0  0  0  0  0
  -26.0323  -11.9670   20.6995 O   0  0  0  0  0  0  0  0  0  0  0  0
  -20.3624  -27.0043   23.6555 O   0  0  0  0  0  0  0  0  0  0  0  0
  -30.2439  -17.1977   19.5800 O   0  0  0  0  0  0  0  0  0  1  0  0
  -31.0254  -19.7036   21.8257 O   0  0  0  0  0  0  0  0  0  0  0  0
  -15.9149  -29.8772   22.1159 F   0  0  0  0  0  0  0  0  0  0  0  0
  -19.3333  -26.7643   21.1009 F   0  0  0  0  0  0  0  0  0  0  0  0
  1  2  1  0  0  0  0
  1  5  2  0  0  0  0
  2  6  2  0  0  0  0
  3  8  2  0  0  0  0
  3 15  1  0  0  0  0
  4  9  1  0  0  0  0
  4 15  2  0  0  0  0
  5 17  1  0  0  0  0
  6 19  1  0  0  0  0
  7 10  2  0  0  0  0
  7 18  1  0  0  0  0
  8 21  1  0  0  0  0
  9 21  2  0  0  0  0
 10 22  1  0  0  0  0
 11 12  2  0  0  0  0
 11 23  1  0  0  0  0
 12 24  1  0  0  0  0
 13 20  1  0  0  0  0
 13 22  2  0  0  0  0
 14 24  2  0  0  0  0
 14 25  1  0  0  0  0
 15 26  1  0  0  0  0
 16 26  1  0  0  0  0
 16 27  2  0  0  0  0
 16 31  1  0  0  0  0
 17 19  2  0  0  0  0
 17 36  1  0  0  0  0
 18 20  2  0  0  0  0
 18 37  1  0  0  0  0
 19 45  1  0  0  0  0
 20 38  1  0  0  0  0
 21 81  1  0  0  0  0
 22 82  1  0  0  0  0
 23 25  2  0  0  0  0
 23 81  1  0  0  0  0
 24 84  1  0  0  0  0
 25 85  1  0  0  0  0
 26 64  2  0  0  0  0
 27 68  1  0  0  0  0
 27 71  1  0  0  0  0
 28 32  1  0  0  0  0
 28 65  2  0  0  0  0
 28 66  1  0  0  0  0
 29 48  1  0  0  0  0
 29 65  1  0  0  0  0
 29 67  2  0  0  0  0
 30 56  1  0  0  0  0
 30 66  2  0  0  0  0
 30 67  1  0  0  0  0
 31 72  1  0  0  0  0
 31 76  2  0  0  0  0
 32 69  1  0  0  0  0
 32 77  2  0  0  0  0
 33 46  1  0  0  0  0
 33 73  1  0  0  0  0
 33 78  2  0  0  0  0
 34 60  1  0  0  0  0
 34 70  1  0  0  0  0
 34 79  2  0  0  0  0
 35 61  1  0  0  0  0
 35 74  1  0  0  0  0
 35 80  2  0  0  0  0
 36 39  1  0  0  0  0
 37 46  1  0  0  0  0
 38 70  1  0  0  0  0
 39 41  1  0  0  0  0
 40 42  1  0  0  0  0
 40 43  1  0  0  0  0
 41 45  1  0  0  0  0
 42 47  1  0  0  0  0
 43 69  1  0  0  0  0
 44 47  1  0  0  0  0
 44 69  1  0  0  0  0
 45 73  1  0  0  0  0
 46 70  1  0  0  0  0
 47 68  1  0  0  0  0
 49 61  1  0  0  0  0
 50 62  1  0  0  0  0
 51 62  1  0  0  0  0
 52 62  1  0  0  0  0
 53 63  1  0  0  0  0
 54 63  1  0  0  0  0
 55 75  1  0  0  0  0
 56 63  1  0  0  0  0
 57 58  1  0  0  0  0
 57 59  1  0  0  0  0
 58 82  1  0  0  0  0
 59 83  1  0  0  0  0
 60 62  1  0  0  0  0
 60 74  1  0  0  0  0
 61 75  1  0  0  0  0
 63 83  1  0  0  0  0
 64 68  1  0  0  0  0
M  CHG  1  75   1
M  ISO  4  28 100  32 100  58 101  82 101
M  END
> <Batch ID>
0062

> <Smiles>
CNC(C)C(=O)NC(C(=O)N1Cc2cc([101O:1][101CH2:1]CCOC(C)(C)Cc3nc(C)n[100c:0]([100C:0](=O)N4CCCC(n5nc(-c6ccc(Oc7ccc(F)cc7F)cc6)c(C(N)=O)c5N)C4)n3)ccc2CC1C(=O)NC1CCCc2ccccc21)C(C)(C)C

> <Shape>
0.233

> <Color>
0.089

> <Negative vol penalty>
0.000

$$$$

  -OEChem-04052318003D

 84 92  0     1  0  0  0  0  0999 V2000
  -25.3482  -18.4958   23.9692 C   0  0  0  0  0  0  0  0  0  0  0  0
  -25.8640  -19.4979   23.1536 C   0  0  0  0  0  0  0  0  0  0  0  0
  -25.4194  -13.2129   19.4567 C   0  0  0  0  0  0  0  0  0  0  0  0
  -25.7892  -13.5679   21.8177 C   0  0  0  0  0  0  0  0  0  0  0  0
  -23.9841  -18.4653   24.2561 C   0  0  0  0  0  0  0  0  0  0  0  0
  -25.0157  -20.4694   22.6234 C   0  0  0  0  0  0  0  0  0  0  0  0
  -26.9318  -25.1411   23.0083 C   0  0  0  0  0  0  0  0  0  0  0  0
  -24.8656  -11.9625   19.7314 C   0  0  0  0  0  0  0  0  0  0  0  0
  -25.2353  -12.3175   22.0924 C   0  0  0  0  0  0  0  0  0  0  0  0
  -27.9127  -25.5049   22.0867 C   0  0  0  0  0  0  0  0  0  0  0  0
  -23.0247   -8.8297   19.8397 C   0  0  0  0  0  0  0  0  0  0  0  0
  -21.8442   -8.4846   19.1818 C   0  0  0  0  0  0  0  0  0  0  0  0
  -26.2536  -26.6910   20.7983 C   0  0  0  0  0  0  0  0  0  0  0  0
  -20.7342  -10.3863   20.1760 C   0  0  0  0  0  0  0  0  0  0  0  0
  -29.0726  -23.7822   17.3214 C   0  0  0  0  0  0  0  0  0  0  0  0
  -30.5422  -24.4059   18.8335 C   0  0  0  0  0  0  0  0  0  0  0  0
  -25.8812  -14.0156   20.4998 C   0  0  0  0  0  0  0  0  0  0  0  0
  -25.7765  -16.5386   20.1378 C   0  0  0  0  0  0  0  0  0  0  0  0
  -23.1202  -19.4424   23.7371 C   0  0  0  0  0  0  0  0  0  0  0  0
  -25.6002  -25.5410   22.8257 C   0  0  0  0  0  0  0  0  0  0  0  0
  -23.6386  -20.4510   22.9025 C   0  0  0  0  0  0  0  0  0  0  0  0
  -25.2582  -26.3330   21.7204 C   0  0  0  0  0  0  0  0  0  0  0  0
  -29.6076  -24.9143   17.9648 C   0  0  0  0  0  0  0  0  0  0  0  0
  -24.7735  -11.5148   21.0492 C   0  0  0  0  0  0  0  0  0  0  0  0
  -27.5731  -26.2775   20.9800 C   0  0  0  0  0  0  0  0  0  0  0  0
  -23.0600   -9.9531   20.6658 C   0  0  0  0  0  0  0  0  0  0  0  0
  -20.6990   -9.2629   19.3499 C   0  0  0  0  0  0  0  0  0  0  0  0
  -21.9147  -10.7314   20.8339 C   0  0  0  0  0  0  0  0  0  0  0  0
  -26.4539  -15.3071   20.2167 C   0  0  0  0  0  0  0  0  0  0  0  0
  -26.7592  -17.4531   19.8472 C   0  0  0  0  0  0  0  0  0  0  0  0
  -24.3834  -16.8299   20.3117 C   0  0  0  0  0  0  0  0  0  0  0  0
  -22.8416  -24.0227   22.3916 C   0  0  0  0  0  0  0  0  0  0  0  0
  -21.6059  -27.0124   22.6301 C   0  0  0  0  0  0  0  0  0  0  0  0
  -22.0872  -30.3782   22.3358 C   0  0  0  0  0  0  0  0  0  0  0  0
  -31.9726  -19.3013   21.1595 C   0  0  0  0  0  0  0  0  0  0  0  0
  -21.6456  -19.3407   24.0366 C   0  0  0  0  0  0  0  0  0  0  0  0
  -24.5590  -25.1627   23.8431 C   0  0  0  0  0  0  0  0  0  0  0  0
  -23.8467  -26.8052   21.4895 C   0  0  0  0  0  0  0  0  0  0  0  0
  -20.8738  -20.6239   23.7399 C   0  0  0  0  0  0  0  0  0  0  0  0
  -31.5688  -16.8120   18.4499 C   0  0  0  0  0  0  0  0  0  0  0  0
  -21.2642  -21.1778   22.3733 C   0  0  0  0  0  0  0  0  0  0  0  0
  -30.1708  -16.2555   18.7145 C   0  0  0  0  0  0  0  0  0  0  0  0
  -32.2344  -17.3059   19.7308 C   0  0  0  0  0  0  0  0  0  0  0  0
  -30.0250  -17.7412   20.7521 C   0  0  0  0  0  0  0  0  0  0  0  0
  -22.7544  -21.5369   22.3287 C   0  0  1  0  0  0  0  0  0  0  0  0
  -23.1394  -25.1934   23.2851 C   0  0  1  0  0  0  0  0  0  0  0  0
  -29.3083  -17.2778   19.4750 C   0  0  2  0  0  0  0  0  0  0  0  0
  -20.8814  -32.5676   22.5599 C   0  0  0  0  0  0  0  0  0  0  0  0
  -32.2363  -21.3320   18.3895 C   0  0  0  0  0  0  0  0  0  0  0  0
  -28.7565  -26.7029   16.3048 C   0  0  0  0  0  0  0  0  0  0  0  0
  -30.4763  -27.2730   18.0063 C   0  0  0  0  0  0  0  0  0  0  0  0
  -20.2047  -26.5106   19.9665 C   0  0  0  0  0  0  0  0  0  0  0  0
  -19.8208  -28.9778   19.7832 C   0  0  0  0  0  0  0  0  0  0  0  0
  -18.8114  -27.6972   21.6710 C   0  0  0  0  0  0  0  0  0  0  0  0
  -31.4342  -21.3376   22.4414 C   0  0  0  0  0  0  0  0  0  0  0  0
  -23.9148  -31.2985   24.4739 C   0  0  0  0  0  0  0  0  0  0  0  0
  -30.4783  -21.0933   20.1804 C   0  0  0  0  0  0  0  0  0  0  0  0
  -28.1102  -26.8143   18.7262 C   0  0  0  0  0  0  0  0  0  1  0  0
  -21.3031  -28.1250   21.6557 C   0  0  1  0  0  0  0  0  0  0  0  0
  -21.7426  -31.5299   23.2629 C   0  0  2  0  0  0  0  0  0  0  0  0
  -31.3218  -22.0840   19.3624 C   0  0  2  0  0  0  0  0  0  0  0  0
  -29.2332  -26.3919   17.7441 C   0  0  0  0  0  0  0  0  0  0  0  0
  -20.0613  -27.8173   20.7721 C   0  0  0  0  0  0  0  0  0  0  0  0
  -29.6218  -22.6407   17.7451 N   0  0  0  0  0  0  0  0  0  0  0  0
  -27.7656  -15.4249   19.9940 N   0  0  0  0  0  0  0  0  0  0  0  0
  -30.5117  -23.0530   18.6639 N   0  0  0  0  0  0  0  0  0  0  0  0
  -27.9203  -16.7414   19.7723 N   0  0  0  0  0  0  0  0  0  0  0  0
  -22.8633  -26.4040   22.5090 N   0  0  0  0  0  0  0  0  0  0  0  0
  -31.3753  -18.2427   20.4557 N   0  0  0  0  0  0  0  0  0  0  0  0
  -26.7348  -18.7885   19.6510 N   0  0  0  0  0  0  0  0  0  0  0  0
  -23.5115  -15.7729   20.6064 N   0  0  0  0  0  0  0  0  0  0  0  0
  -22.9918  -22.7939   23.0055 N   0  0  0  0  0  0  0  0  0  0  0  0
  -21.1841  -29.3426   22.4505 N   0  0  0  0  0  0  0  0  0  0  0  0
  -31.2350  -20.4893   21.2750 N   0  0  0  0  0  0  0  0  0  0  0  0
  -22.9853  -32.1978   23.7431 N   0  3  0  0  0  0  0  0  0  0  0  0
  -23.9229  -17.9906   20.1926 O   0  0  0  0  0  0  0  0  0  0  0  0
  -22.4994  -24.2197   21.2315 O   0  0  0  0  0  0  0  0  0  0  0  0
  -20.7608  -26.6997   23.4725 O   0  0  0  0  0  0  0  0  0  0  0  0
  -23.0580  -30.3971   21.5824 O   0  0  0  0  0  0  0  0  0  0  0  0
  -33.1047  -19.1941   21.6482 O   0  0  0  0  0  0  0  0  0  0  0  0
  -24.2330  -10.2949   21.3177 O   0  0  0  0  0  0  0  0  0  0  0  0
  -28.5284  -26.6335   20.0786 O   0  0  0  0  0  0  0  0  0  1  0  0
  -19.5658   -8.9322   18.7168 F   0  0  0  0  0  0  0  0  0  0  0  0
  -21.9428  -11.8125   21.6253 F   0  0  0  0  0  0  0  0  0  0  0  0
  1  2  1  0  0  0  0
  1  5  2  0  0  0  0
  2  6  2  0  0  0  0
  3  8  2  0  0  0  0
  3 17  1  0  0  0  0
  4  9  1  0  0  0  0
  4 17  2  0  0  0  0
  5 19  1  0  0  0  0
  6 21  1  0  0  0  0
  7 10  2  0  0  0  0
  7 20  1  0  0  0  0
  8 24  1  0  0  0  0
  9 24  2  0  0  0  0
 10 25  1  0  0  0  0
 11 12  2  0  0  0  0
 11 26  1  0  0  0  0
 12 27  1  0  0  0  0
 13 22  1  0  0  0  0
 13 25  2  0  0  0  0
 14 27  2  0  0  0  0
 14 28  1  0  0  0  0
 15 23  1  0  0  0  0
 15 64  2  0  0  0  0
 16 23  2  0  0  0  0
 16 66  1  0  0  0  0
 17 29  1  0  0  0  0
 18 29  1  0  0  0  0
 18 30  2  0  0  0  0
 18 31  1  0  0  0  0
 19 21  2  0  0  0  0
 19 36  1  0  0  0  0
 20 22  2  0  0  0  0
 20 37  1  0  0  0  0
 21 45  1  0  0  0  0
 22 38  1  0  0  0  0
 23 62  1  0  0  0  0
 24 81  1  0  0  0  0
 25 82  1  0  0  0  0
 26 28  2  0  0  0  0
 26 81  1  0  0  0  0
 27 83  1  0  0  0  0
 28 84  1  0  0  0  0
 29 65  2  0  0  0  0
 30 67  1  0  0  0  0
 30 70  1  0  0  0  0
 31 71  1  0  0  0  0
 31 76  2  0  0  0  0
 32 46  1  0  0  0  0
 32 72  1  0  0  0  0
 32 77  2  0  0  0  0
 33 59  1  0  0  0  0
 33 68  1  0  0  0  0
 33 78  2  0  0  0  0
 34 60  1  0  0  0  0
 34 73  1  0  0  0  0
 34 79  2  0  0  0  0
 35 69  1  0  0  0  0
 35 74  1  0  0  0  0
 35 80  2  0  0  0  0
 36 39  1  0  0  0  0
 37 46  1  0  0  0  0
 38 68  1  0  0  0  0
 39 41  1  0  0  0  0
 40 42  1  0  0  0  0
 40 43  1  0  0  0  0
 41 45  1  0  0  0  0
 42 47  1  0  0  0  0
 43 69  1  0  0  0  0
 44 47  1  0  0  0  0
 44 69  1  0  0  0  0
 45 72  1  0  0  0  0
 46 68  1  0  0  0  0
 47 67  1  0  0  0  0
 48 60  1  0  0  0  0
 49 61  1  0  0  0  0
 50 62  1  0  0  0  0
 51 62  1  0  0  0  0
 52 63  1  0  0  0  0
 53 63  1  0  0  0  0
 54 63  1  0  0  0  0
 55 74  1  0  0  0  0
 56 75  1  0  0  0  0
 57 61  1  0  0  0  0
 57 74  1  0  0  0  0
 58 62  1  0  0  0  0
 58 82  1  0  0  0  0
 59 63  1  0  0  0  0
 59 73  1  0  0  0  0
 60 75  1  0  0  0  0
 61 66  1  0  0  0  0
 64 66  1  0  0  0  0
 65 67  1  0  0  0  0
M  CHG  1  75   1
M  ISO  4  35 100  58 101  74 100  82 101
M  END
> <Batch ID>
0062

> <Smiles>
CNC(C)C(=O)NC(C(=O)N1Cc2cc([101O:1][101CH2:1]C(C)(C)c3cnn(C(C)C[100N:0](C)[100C:0](=O)N4CCCC(n5nc(-c6ccc(Oc7ccc(F)cc7F)cc6)c(C(N)=O)c5N)C4)c3)ccc2CC1C(=O)NC1CCCc2ccccc21)C(C)(C)C

> <Shape>
0.208

> <Color>
0.060

> <Negative vol penalty>
0.000

$$$$

  -OEChem-04052318003D

 84 92  0     1  0  0  0  0  0999 V2000
  -30.4533  -24.3793   17.1057 C   0  0  0  0  0  0  0  0  0  0  0  0
  -29.0806  -24.2917   17.3138 C   0  0  0  0  0  0  0  0  0  0  0  0
  -25.2625  -12.1157   21.1777 C   0  0  0  0  0  0  0  0  0  0  0  0
  -25.2517  -13.4337   23.2025 C   0  0  0  0  0  0  0  0  0  0  0  0
  -31.2666  -24.9749   18.0690 C   0  0  0  0  0  0  0  0  0  0  0  0
  -28.5204  -24.7986   18.4858 C   0  0  0  0  0  0  0  0  0  0  0  0
  -23.0387  -27.4605   19.0947 C   0  0  0  0  0  0  0  0  0  0  0  0
  -25.5850  -10.9792   21.9191 C   0  0  0  0  0  0  0  0  0  0  0  0
  -25.5741  -12.2970   23.9440 C   0  0  0  0  0  0  0  0  0  0  0  0
  -21.8053  -26.9787   19.5309 C   0  0  0  0  0  0  0  0  0  0  0  0
  -23.9774   -8.7541   23.8933 C   0  0  0  0  0  0  0  0  0  0  0  0
  -23.2801   -7.5787   23.6144 C   0  0  0  0  0  0  0  0  0  0  0  0
  -22.2616  -27.8295   21.7416 C   0  0  0  0  0  0  0  0  0  0  0  0
  -25.3562   -6.4820   23.0450 C   0  0  0  0  0  0  0  0  0  0  0  0
  -21.0567  -22.1659   22.1427 C   0  0  0  0  0  0  0  0  0  0  0  0
  -25.0960  -13.3430   21.8193 C   0  0  0  0  0  0  0  0  0  0  0  0
  -23.4754  -14.9908   20.7393 C   0  0  0  0  0  0  0  0  0  0  0  0
  -30.7150  -25.4980   19.2491 C   0  0  0  0  0  0  0  0  0  0  0  0
  -23.8990  -28.1220   19.9828 C   0  0  0  0  0  0  0  0  0  0  0  0
  -29.3273  -25.4005   19.4664 C   0  0  0  0  0  0  0  0  0  0  0  0
  -23.5043  -28.3210   21.3135 C   0  0  0  0  0  0  0  0  0  0  0  0
  -25.7408  -11.0698   23.3023 C   0  0  0  0  0  0  0  0  0  0  0  0
  -21.4178  -27.1606   20.8553 C   0  0  0  0  0  0  0  0  0  0  0  0
  -25.3642   -8.7934   23.7481 C   0  0  0  0  0  0  0  0  0  0  0  0
  -23.9694   -6.4427   23.1903 C   0  0  0  0  0  0  0  0  0  0  0  0
  -26.0535   -7.6574   23.3239 C   0  0  0  0  0  0  0  0  0  0  0  0
  -24.7634  -14.5176   21.0539 C   0  0  0  0  0  0  0  0  0  0  0  0
  -23.6980  -16.1277   20.0015 C   0  0  0  0  0  0  0  0  0  0  0  0
  -23.0070  -22.9098   22.1446 C   0  0  0  0  0  0  0  0  0  0  0  0
  -22.1925  -14.4509   21.0833 C   0  0  0  0  0  0  0  0  0  0  0  0
  -26.8246  -27.5744   21.0984 C   0  0  0  0  0  0  0  0  0  0  0  0
  -26.4369  -30.5001   22.4447 C   0  0  0  0  0  0  0  0  0  0  0  0
  -24.3001  -32.9092   23.5747 C   0  0  0  0  0  0  0  0  0  0  0  0
  -26.4109  -20.9322   19.1637 C   0  0  0  0  0  0  0  0  0  0  0  0
  -31.6401  -26.0902   20.2825 C   0  0  0  0  0  0  0  0  0  0  0  0
  -25.2146  -28.6592   19.4900 C   0  0  0  0  0  0  0  0  0  0  0  0
  -24.3826  -29.0425   22.3017 C   0  0  0  0  0  0  0  0  0  0  0  0
  -30.9215  -26.9385   21.3286 C   0  0  0  0  0  0  0  0  0  0  0  0
  -27.9560  -17.9542   17.9718 C   0  0  0  0  0  0  0  0  0  0  0  0
  -29.6831  -26.2131   21.8452 C   0  0  0  0  0  0  0  0  0  0  0  0
  -27.1612  -16.8346   18.6461 C   0  0  0  0  0  0  0  0  0  0  0  0
  -28.1219  -19.1617   18.8919 C   0  0  0  0  0  0  0  0  0  0  0  0
  -26.0691  -18.5742   20.1225 C   0  0  0  0  0  0  0  0  0  0  0  0
  -28.6792  -25.9610   20.7138 C   0  0  1  0  0  0  0  0  0  0  0  0
  -26.2323  -28.8652   20.6077 C   0  0  1  0  0  0  0  0  0  0  0  0
  -25.8276  -17.3570   19.2135 C   0  0  2  0  0  0  0  0  0  0  0  0
  -24.2788  -35.1734   24.6566 C   0  0  0  0  0  0  0  0  0  0  0  0
  -27.1542  -29.2248   25.1223 C   0  0  0  0  0  0  0  0  0  0  0  0
  -26.2076  -31.2448   26.2589 C   0  0  0  0  0  0  0  0  0  0  0  0
  -28.1686  -31.4776   24.7347 C   0  0  0  0  0  0  0  0  0  0  0  0
  -22.8856  -34.1226   21.2756 C   0  0  0  0  0  0  0  0  0  0  0  0
  -18.8648  -24.7384   21.6336 C   0  0  0  0  0  0  0  0  0  0  0  0
  -24.9688  -23.5363   20.6492 C   0  0  0  0  0  0  0  0  0  0  0  0
  -19.6598  -24.2655   22.8526 C   0  0  0  0  0  0  0  0  0  0  0  0
  -24.5998  -22.5942   19.5053 C   0  0  0  0  0  0  0  0  0  0  0  0
  -19.7031  -25.5275   20.6347 C   0  0  0  0  0  0  0  0  0  1  0  0
  -25.8856  -31.0097   23.7545 C   0  0  1  0  0  0  0  0  0  0  0  0
  -24.2590  -34.4088   23.3422 C   0  0  2  0  0  0  0  0  0  0  0  0
  -24.4527  -23.0912   22.0483 C   0  0  0  0  0  0  0  0  0  0  0  0
  -26.8381  -30.7239   24.9497 C   0  0  0  0  0  0  0  0  0  0  0  0
  -22.3509  -21.7968   21.9120 N   0  0  0  0  0  0  0  0  0  0  0  0
  -25.7325  -15.2906   20.5565 N   0  0  0  0  0  0  0  0  0  0  0  0
  -22.1334  -23.8909   22.4970 N   0  0  0  0  0  0  0  0  0  0  0  0
  -20.8706  -23.4374   22.5035 N   0  0  0  0  0  0  0  0  0  0  0  0
  -25.0530  -16.2610   19.9218 N   0  0  0  0  0  0  0  0  0  0  0  0
  -25.6621  -29.5437   21.7733 N   0  0  0  0  0  0  0  0  0  0  0  0
  -26.8205  -19.6086   19.3944 N   0  0  0  0  0  0  0  0  0  0  0  0
  -22.8649  -17.0163   19.4195 N   0  0  0  0  0  0  0  0  0  0  0  0
  -22.1447  -13.2764   21.8466 N   0  0  0  0  0  0  0  0  0  0  0  0
  -27.9505  -27.1727   20.4053 N   0  0  0  0  0  0  0  0  0  0  0  0
  -25.5904  -32.4238   23.5505 N   0  0  0  0  0  0  0  0  0  0  0  0
  -25.1615  -21.2718   19.6680 N   0  0  0  0  0  0  0  0  0  0  0  0
  -23.0231  -34.7840   22.5987 N   0  3  0  0  0  0  0  0  0  0  0  0
  -21.1204  -14.9849   20.7105 O   0  0  0  0  0  0  0  0  0  0  0  0
  -26.2999  -26.9873   22.0373 O   0  0  0  0  0  0  0  0  0  0  0  0
  -27.5119  -30.9398   22.0291 O   0  0  0  0  0  0  0  0  0  0  0  0
  -23.2889  -32.2364   23.7630 O   0  0  0  0  0  0  0  0  0  0  0  0
  -27.1047  -21.7492   18.5488 O   0  0  0  0  0  0  0  0  0  0  0  0
  -26.0552   -9.9609   24.0261 O   0  0  0  0  0  0  0  0  0  0  0  0
  -20.2147  -26.6907   21.2839 O   0  0  0  0  0  0  0  0  0  1  0  0
  -23.2998   -5.3136   22.9239 F   0  0  0  0  0  0  0  0  0  0  0  0
  -27.3859   -7.6888   23.1837 F   0  0  0  0  0  0  0  0  0  0  0  0
  -24.9331  -24.0548   22.9243 F   0  0  0  0  0  0  0  0  0  0  0  0
  -25.1986  -21.9760   22.3947 F   0  0  0  0  0  0  0  0  0  0  0  0
  1  2  1  0  0  0  0
  1  5  2  0  0  0  0
  2  6  2  0  0  0  0
  3  8  2  0  0  0  0
  3 16  1  0  0  0  0
  4  9  1  0  0  0  0
  4 16  2  0  0  0  0
  5 18  1  0  0  0  0
  6 20  1  0  0  0  0
  7 10  2  0  0  0  0
  7 19  1  0  0  0  0
  8 22  1  0  0  0  0
  9 22  2  0  0  0  0
 10 23  1  0  0  0  0
 11 12  2  0  0  0  0
 11 24  1  0  0  0  0
 12 25  1  0  0  0  0
 13 21  1  0  0  0  0
 13 23  2  0  0  0  0
 14 25  2  0  0  0  0
 14 26  1  0  0  0  0
 15 61  2  0  0  0  0
 15 64  1  0  0  0  0
 16 27  1  0  0  0  0
 17 27  1  0  0  0  0
 17 28  2  0  0  0  0
 17 30  1  0  0  0  0
 18 20  2  0  0  0  0
 18 35  1  0  0  0  0
 19 21  2  0  0  0  0
 19 36  1  0  0  0  0
 20 44  1  0  0  0  0
 21 37  1  0  0  0  0
 22 79  1  0  0  0  0
 23 80  1  0  0  0  0
 24 26  2  0  0  0  0
 24 79  1  0  0  0  0
 25 81  1  0  0  0  0
 26 82  1  0  0  0  0
 27 62  2  0  0  0  0
 28 65  1  0  0  0  0
 28 68  1  0  0  0  0
 29 59  1  0  0  0  0
 29 61  1  0  0  0  0
 29 63  2  0  0  0  0
 30 69  1  0  0  0  0
 30 74  2  0  0  0  0
 31 45  1  0  0  0  0
 31 70  1  0  0  0  0
 31 75  2  0  0  0  0
 32 57  1  0  0  0  0
 32 66  1  0  0  0  0
 32 76  2  0  0  0  0
 33 58  1  0  0  0  0
 33 71  1  0  0  0  0
 33 77  2  0  0  0  0
 34 67  1  0  0  0  0
 34 72  1  0  0  0  0
 34 78  2  0  0  0  0
 35 38  1  0  0  0  0
 36 45  1  0  0  0  0
 37 66  1  0  0  0  0
 38 40  1  0  0  0  0
 39 41  1  0  0  0  0
 39 42  1  0  0  0  0
 40 44  1  0  0  0  0
 41 46  1  0  0  0  0
 42 67  1  0  0  0  0
 43 46  1  0  0  0  0
 43 67  1  0  0  0  0
 44 70  1  0  0  0  0
 45 66  1  0  0  0  0
 46 65  1  0  0  0  0
 47 58  1  0  0  0  0
 48 60  1  0  0  0  0
 49 60  1  0  0  0  0
 50 60  1  0  0  0  0
 51 73  1  0  0  0  0
 52 54  1  0  0  0  0
 52 56  1  0  0  0  0
 53 55  1  0  0  0  0
 53 59  1  0  0  0  0
 54 64  1  0  0  0  0
 55 72  1  0  0  0  0
 56 80  1  0  0  0  0
 57 60  1  0  0  0  0
 57 71  1  0  0  0  0
 58 73  1  0  0  0  0
 59 83  1  0  0  0  0
 59 84  1  0  0  0  0
 62 65  1  0  0  0  0
 63 64  1  0  0  0  0
M  CHG  1  73   1
M  ISO  4  34 100  56 101  72 100  80 101
M  END
> <Batch ID>
0062

> <Smiles>
CNC(C)C(=O)NC(C(=O)N1Cc2cc([101O:1][101CH2:1]CCn3cnc(C(F)(F)CC[100NH:0][100C:0](=O)N4CCCC(n5nc(-c6ccc(Oc7ccc(F)cc7F)cc6)c(C(N)=O)c5N)C4)n3)ccc2CC1C(=O)NC1CCCc2ccccc21)C(C)(C)C

> <Shape>
0.244

> <Color>
0.067

> <Negative vol penalty>
0.000

$$$$

  -OEChem-04052318003D

 89 98  0     1  0  0  0  0  0999 V2000
  -29.8050  -36.6949   23.9064 C   0  0  0  0  0  0  0  0  0  0  0  0
  -29.9368  -35.8110   22.8402 C   0  0  0  0  0  0  0  0  0  0  0  0
  -25.3981  -13.1189   22.7103 C   0  0  0  0  0  0  0  0  0  0  0  0
  -27.3552  -12.9526   21.3035 C   0  0  0  0  0  0  0  0  0  0  0  0
  -29.1655  -36.2848   25.0755 C   0  0  0  0  0  0  0  0  0  0  0  0
  -29.4301  -34.5159   22.9430 C   0  0  0  0  0  0  0  0  0  0  0  0
  -26.4628  -29.3499   18.9650 C   0  0  0  0  0  0  0  0  0  0  0  0
  -24.7073  -12.2652   21.8503 C   0  0  0  0  0  0  0  0  0  0  0  0
  -26.6644  -12.0988   20.4435 C   0  0  0  0  0  0  0  0  0  0  0  0
  -26.6171  -27.9965   18.6680 C   0  0  0  0  0  0  0  0  0  0  0  0
  -24.5406   -8.9434   21.2417 C   0  0  0  0  0  0  0  0  0  0  0  0
  -23.7880   -7.9175   21.8132 C   0  0  0  0  0  0  0  0  0  0  0  0
  -28.5989  -17.7595   18.4064 C   0  0  0  0  0  0  0  0  0  0  0  0
  -25.4616  -27.4236   20.7066 C   0  0  0  0  0  0  0  0  0  0  0  0
  -21.7905   -8.8134   20.7912 C   0  0  0  0  0  0  0  0  0  0  0  0
  -29.7706  -17.2942   18.9677 C   0  0  0  0  0  0  0  0  0  0  0  0
  -26.7220  -13.4627   22.4369 C   0  0  0  0  0  0  0  0  0  0  0  0
  -28.2095  -13.9818   24.4433 C   0  0  0  0  0  0  0  0  0  0  0  0
  -28.6423  -34.9871   25.1890 C   0  0  0  0  0  0  0  0  0  0  0  0
  -25.8153  -29.7509   20.1424 C   0  0  0  0  0  0  0  0  0  0  0  0
  -28.7843  -34.0876   24.1152 C   0  0  0  0  0  0  0  0  0  0  0  0
  -25.2981  -28.7828   21.0150 C   0  0  0  0  0  0  0  0  0  0  0  0
  -25.3405  -11.7552   20.7169 C   0  0  0  0  0  0  0  0  0  0  0  0
  -26.1190  -27.0331   19.5402 C   0  0  0  0  0  0  0  0  0  0  0  0
  -23.9181   -9.9044   20.4450 C   0  0  0  0  0  0  0  0  0  0  0  0
  -22.4130   -7.8524   21.5880 C   0  0  0  0  0  0  0  0  0  0  0  0
  -22.5431   -9.8394   20.2197 C   0  0  0  0  0  0  0  0  0  0  0  0
  -27.4359  -14.3450   23.3245 C   0  0  0  0  0  0  0  0  0  0  0  0
  -28.1089  -18.9356   18.9364 C   0  0  0  0  0  0  0  0  0  0  0  0
  -25.3749  -22.2937   20.2493 C   0  0  0  0  0  0  0  0  0  0  0  0
  -26.0232  -23.3852   19.7146 C   0  0  0  0  0  0  0  0  0  0  0  0
  -26.5478  -20.9131   18.8538 C   0  0  0  0  0  0  0  0  0  0  0  0
  -27.1956  -22.0045   18.3184 C   0  0  0  0  0  0  0  0  0  0  0  0
  -28.6713  -15.1747   24.9433 C   0  0  0  0  0  0  0  0  0  0  0  0
  -29.8441  -19.0580   20.3997 C   0  0  0  0  0  0  0  0  0  0  0  0
  -28.4859  -12.6822   24.9822 C   0  0  0  0  0  0  0  0  0  0  0  0
  -26.6717  -31.3934   22.7256 C   0  0  0  0  0  0  0  0  0  0  0  0
  -23.5235  -31.1275   23.4607 C   0  0  0  0  0  0  0  0  0  0  0  0
  -29.5530  -20.5324   22.3684 C   0  0  0  0  0  0  0  0  0  0  0  0
  -20.5916  -29.4245   23.0727 C   0  0  0  0  0  0  0  0  0  0  0  0
  -28.0011  -34.5742   26.4902 C   0  0  0  0  0  0  0  0  0  0  0  0
  -25.6334  -31.2151   20.4352 C   0  0  0  0  0  0  0  0  0  0  0  0
  -24.5771  -29.1613   22.2820 C   0  0  0  0  0  0  0  0  0  0  0  0
  -27.1609  -33.3046   26.3793 C   0  0  0  0  0  0  0  0  0  0  0  0
  -27.5415  -19.8063   25.2436 C   0  0  0  0  0  0  0  0  0  0  0  0
  -27.9202  -32.2273   25.6114 C   0  0  0  0  0  0  0  0  0  0  0  0
  -27.3330  -18.2946   25.1634 C   0  0  0  0  0  0  0  0  0  0  0  0
  -27.5801  -20.4391   23.8561 C   0  0  0  0  0  0  0  0  0  0  0  0
  -28.3895  -18.3241   22.8594 C   0  0  0  0  0  0  0  0  0  0  0  0
  -28.2259  -32.6825   24.1793 C   0  0  1  0  0  0  0  0  0  0  0  0
  -25.4107  -31.5051   21.9162 C   0  0  1  0  0  0  0  0  0  0  0  0
  -28.3751  -17.6412   24.2385 C   0  0  2  0  0  0  0  0  0  0  0  0
  -24.3563  -22.4457   21.3265 C   0  0  0  0  0  0  0  0  0  0  0  0
  -18.1990  -29.4235   23.8297 C   0  0  0  0  0  0  0  0  0  0  0  0
  -31.5498  -20.8132   20.9498 C   0  0  0  0  0  0  0  0  0  0  0  0
  -31.3100  -18.8895   22.5232 C   0  0  0  0  0  0  0  0  0  0  0  0
  -24.3779  -29.9709   26.1518 C   0  0  0  0  0  0  0  0  0  0  0  0
  -22.0397  -29.1283   26.4534 C   0  0  0  0  0  0  0  0  0  0  0  0
  -22.4661  -31.5790   26.2672 C   0  0  0  0  0  0  0  0  0  0  0  0
  -19.5964  -29.8011   20.3111 C   0  0  0  0  0  0  0  0  0  0  0  0
  -26.8260  -19.5255   18.3854 C   0  0  0  0  0  0  0  0  0  0  0  0
  -25.7340  -24.7783   20.1910 C   0  0  0  0  0  0  0  0  0  1  0  0
  -22.6819  -30.1237   24.2111 C   0  0  1  0  0  0  0  0  0  0  0  0
  -19.1820  -29.9011   22.7722 C   0  0  2  0  0  0  0  0  0  0  0  0
  -30.5349  -19.7786   21.5072 C   0  0  0  0  0  0  0  0  0  0  0  0
  -22.9067  -30.1930   25.7480 C   0  0  0  0  0  0  0  0  0  0  0  0
  -30.4223  -17.9205   19.9694 N   0  0  0  0  0  0  0  0  0  0  0  0
  -27.4056  -15.6653   23.1253 N   0  0  0  0  0  0  0  0  0  0  0  0
  -25.6256  -21.0381   19.8286 N   0  0  0  0  0  0  0  0  0  0  0  0
  -26.9452  -23.2601   18.7394 N   0  0  0  0  0  0  0  0  0  0  0  0
  -28.7079  -19.6137   19.9372 N   0  0  0  0  0  0  0  0  0  0  0  0
  -28.1658  -16.1423   24.1257 N   0  0  0  0  0  0  0  0  0  0  0  0
  -24.4301  -30.6055   22.5272 N   0  0  0  0  0  0  0  0  0  0  0  0
  -28.5662  -19.7760   23.0011 N   0  0  0  0  0  0  0  0  0  0  0  0
  -29.4565  -15.4800   25.9982 N   0  0  0  0  0  0  0  0  0  0  0  0
  -27.9321  -11.5632   24.3454 N   0  0  0  0  0  0  0  0  0  0  0  0
  -27.0456  -32.5681   23.3498 N   0  0  0  0  0  0  0  0  0  0  0  0
  -21.3024  -30.3573   23.7978 N   0  0  0  0  0  0  0  0  0  0  0  0
  -18.7330  -29.3876   21.4472 N   0  3  0  0  0  0  0  0  0  0  0  0
  -29.1893  -12.5194   26.0080 O   0  0  0  0  0  0  0  0  0  0  0  0
  -27.2610  -30.3204   22.7809 O   0  0  0  0  0  0  0  0  0  0  0  0
  -23.3766  -32.3308   23.6890 O   0  0  0  0  0  0  0  0  0  0  0  0
  -29.6630  -21.7565   22.4767 O   0  0  0  0  0  0  0  0  0  0  0  0
  -21.0181  -28.3322   22.7046 O   0  0  0  0  0  0  0  0  0  0  0  0
  -24.6668  -10.9219   19.8776 O   0  0  0  0  0  0  0  0  0  0  0  0
  -26.2688  -25.7114   19.2530 O   0  0  0  0  0  0  0  0  0  1  0  0
  -21.6906   -6.8663   22.1356 F   0  0  0  0  0  0  0  0  0  0  0  0
  -21.9397  -10.7591   19.4543 F   0  0  0  0  0  0  0  0  0  0  0  0
  -28.3746  -21.8894   17.0788 Cl  0  0  0  0  0  0  0  0  0  0  0  0
  1  2  1  0  0  0  0
  1  5  2  0  0  0  0
  2  6  2  0  0  0  0
  3  8  2  0  0  0  0
  3 17  1  0  0  0  0
  4  9  1  0  0  0  0
  4 17  2  0  0  0  0
  5 19  1  0  0  0  0
  6 21  1  0  0  0  0
  7 10  2  0  0  0  0
  7 20  1  0  0  0  0
  8 23  1  0  0  0  0
  9 23  2  0  0  0  0
 10 24  1  0  0  0  0
 11 12  2  0  0  0  0
 11 25  1  0  0  0  0
 12 26  1  0  0  0  0
 13 16  2  0  0  0  0
 13 29  1  0  0  0  0
 14 22  1  0  0  0  0
 14 24  2  0  0  0  0
 15 26  2  0  0  0  0
 15 27  1  0  0  0  0
 16 67  1  0  0  0  0
 17 28  1  0  0  0  0
 18 28  1  0  0  0  0
 18 34  2  0  0  0  0
 18 36  1  0  0  0  0
 19 21  2  0  0  0  0
 19 41  1  0  0  0  0
 20 22  2  0  0  0  0
 20 42  1  0  0  0  0
 21 50  1  0  0  0  0
 22 43  1  0  0  0  0
 23 85  1  0  0  0  0
 24 86  1  0  0  0  0
 25 27  2  0  0  0  0
 25 85  1  0  0  0  0
 26 87  1  0  0  0  0
 27 88  1  0  0  0  0
 28 68  2  0  0  0  0
 29 61  1  0  0  0  0
 29 71  2  0  0  0  0
 30 31  2  0  0  0  0
 30 53  1  0  0  0  0
 30 69  1  0  0  0  0
 31 62  1  0  0  0  0
 31 70  1  0  0  0  0
 32 33  1  0  0  0  0
 32 61  1  0  0  0  0
 32 69  2  0  0  0  0
 33 70  2  0  0  0  0
 33 89  1  0  0  0  0
 34 72  1  0  0  0  0
 34 75  1  0  0  0  0
 35 65  1  0  0  0  0
 35 67  2  0  0  0  0
 35 71  1  0  0  0  0
 36 76  1  0  0  0  0
 36 80  2  0  0  0  0
 37 51  1  0  0  0  0
 37 77  1  0  0  0  0
 37 81  2  0  0  0  0
 38 63  1  0  0  0  0
 38 73  1  0  0  0  0
 38 82  2  0  0  0  0
 39 65  1  0  0  0  0
 39 74  1  0  0  0  0
 39 83  2  0  0  0  0
 40 64  1  0  0  0  0
 40 78  1  0  0  0  0
 40 84  2  0  0  0  0
 41 44  1  0  0  0  0
 42 51  1  0  0  0  0
 43 73  1  0  0  0  0
 44 46  1  0  0  0  0
 45 47  1  0  0  0  0
 45 48  1  0  0  0  0
 46 50  1  0  0  0  0
 47 52  1  0  0  0  0
 48 74  1  0  0  0  0
 49 52  1  0  0  0  0
 49 74  1  0  0  0  0
 50 77  1  0  0  0  0
 51 73  1  0  0  0  0
 52 72  1  0  0  0  0
 54 64  1  0  0  0  0
 55 65  1  0  0  0  0
 56 65  1  0  0  0  0
 57 66  1  0  0  0  0
 58 66  1  0  0  0  0
 59 66  1  0  0  0  0
 60 79  1  0  0  0  0
 62 86  1  0  0  0  0
 63 66  1  0  0  0  0
 63 78  1  0  0  0  0
 64 79  1  0  0  0  0
 68 72  1  0  0  0  0
M  CHG  1  79   1
M  ISO  4  39 100  62 101  65 100  86 101
M  END
> <Batch ID>
0062

> <Smiles>
CNC(C)C(=O)NC(C(=O)N1Cc2cc([101O:1][101CH2:1]c3nc(Cl)c(Cc4ccnc([100C:0](C)(C)[100C:0](=O)N5CCCC(n6nc(-c7ccc(Oc8ccc(F)cc8F)cc7)c(C(N)=O)c6N)C5)n4)nc3C)ccc2CC1C(=O)NC1CCCc2ccccc21)C(C)(C)C

> <Shape>
0.247

> <Color>
0.094

> <Negative vol penalty>
0.000

$$$$

  -OEChem-04052318003D

 85 93  0     1  0  0  0  0  0999 V2000
  -31.8118  -13.5582   21.8917 C   0  0  0  0  0  0  0  0  0  0  0  0
  -31.1323  -14.7540   22.1013 C   0  0  0  0  0  0  0  0  0  0  0  0
  -26.5644  -28.1417   18.9443 C   0  0  0  0  0  0  0  0  0  0  0  0
  -26.5626  -27.4104   21.2469 C   0  0  0  0  0  0  0  0  0  0  0  0
  -31.2645  -12.5835   21.0585 C   0  0  0  0  0  0  0  0  0  0  0  0
  -29.9055  -14.9761   21.4768 C   0  0  0  0  0  0  0  0  0  0  0  0
  -26.4548  -16.9435   24.6180 C   0  0  0  0  0  0  0  0  0  0  0  0
  -25.3860  -28.8533   19.1694 C   0  0  0  0  0  0  0  0  0  0  0  0
  -25.3843  -28.1221   21.4720 C   0  0  0  0  0  0  0  0  0  0  0  0
  -26.5513  -18.3061   24.8970 C   0  0  0  0  0  0  0  0  0  0  0  0
  -22.0805  -27.7240   20.8739 C   0  0  0  0  0  0  0  0  0  0  0  0
  -21.0644  -27.0866   21.5858 C   0  0  0  0  0  0  0  0  0  0  0  0
  -24.8051  -18.7520   23.2935 C   0  0  0  0  0  0  0  0  0  0  0  0
  -21.1632  -28.8132   23.2729 C   0  0  0  0  0  0  0  0  0  0  0  0
  -27.1527  -27.4202   19.9830 C   0  0  0  0  0  0  0  0  0  0  0  0
  -29.6884  -27.1534   19.9012 C   0  0  0  0  0  0  0  0  0  0  0  0
  -30.0257  -12.7898   20.4312 C   0  0  0  0  0  0  0  0  0  0  0  0
  -25.5388  -16.4753   23.6651 C   0  0  0  0  0  0  0  0  0  0  0  0
  -29.3417  -14.0037   20.6334 C   0  0  0  0  0  0  0  0  0  0  0  0
  -24.6972  -17.3827   23.0060 C   0  0  0  0  0  0  0  0  0  0  0  0
  -24.7960  -28.8436   20.4332 C   0  0  0  0  0  0  0  0  0  0  0  0
  -25.7284  -19.2109   24.2326 C   0  0  0  0  0  0  0  0  0  0  0  0
  -22.6381  -28.9060   21.3616 C   0  0  0  0  0  0  0  0  0  0  0  0
  -20.6057  -27.6312   22.7852 C   0  0  0  0  0  0  0  0  0  0  0  0
  -22.1794  -29.4506   22.5610 C   0  0  0  0  0  0  0  0  0  0  0  0
  -28.3696  -26.6844   19.7510 C   0  0  0  0  0  0  0  0  0  0  0  0
  -29.8190  -21.9266   22.5179 C   0  0  0  0  0  0  0  0  0  0  0  0
  -30.4571  -22.7541   23.4524 C   0  0  0  0  0  0  0  0  0  0  0  0
  -30.4753  -26.0801   19.5618 C   0  0  0  0  0  0  0  0  0  0  0  0
  -30.1599  -28.4440   20.3110 C   0  0  0  0  0  0  0  0  0  0  0  0
  -25.7739  -14.9276   20.8986 C   0  0  0  0  0  0  0  0  0  0  0  0
  -22.5374  -14.8617   21.1065 C   0  0  0  0  0  0  0  0  0  0  0  0
  -19.6865  -16.2492   22.3689 C   0  0  0  0  0  0  0  0  0  0  0  0
  -29.0119  -20.1306   19.5759 C   0  0  0  0  0  0  0  0  0  0  0  0
  -29.4966  -11.7263   19.5019 C   0  0  0  0  0  0  0  0  0  0  0  0
  -25.4284  -14.9997   23.3949 C   0  0  0  0  0  0  0  0  0  0  0  0
  -23.6831  -16.9290   21.9891 C   0  0  0  0  0  0  0  0  0  0  0  0
  -28.0141  -11.8861   19.1746 C   0  0  0  0  0  0  0  0  0  0  0  0
  -30.4959  -22.1463   16.8489 C   0  0  0  0  0  0  0  0  0  0  0  0
  -27.6997  -13.3350   18.8161 C   0  0  0  0  0  0  0  0  0  0  0  0
  -30.1618  -23.5759   17.2717 C   0  0  0  0  0  0  0  0  0  0  0  0
  -29.4707  -21.1455   17.3734 C   0  0  0  0  0  0  0  0  0  0  0  0
  -28.9311  -22.6390   19.2687 C   0  0  0  0  0  0  0  0  0  0  0  0
  -27.9968  -14.2716   19.9934 C   0  0  1  0  0  0  0  0  0  0  0  0
  -24.8181  -14.6857   22.0324 C   0  0  1  0  0  0  0  0  0  0  0  0
  -29.9701  -23.6667   18.7956 C   0  0  2  0  0  0  0  0  0  0  0  0
  -17.1898  -15.9988   22.3312 C   0  0  0  0  0  0  0  0  0  0  0  0
  -22.4580  -16.0973   18.3178 C   0  0  0  0  0  0  0  0  0  0  0  0
  -20.0599  -16.6902   18.7248 C   0  0  0  0  0  0  0  0  0  0  0  0
  -20.7662  -14.2978   18.7101 C   0  0  0  0  0  0  0  0  0  0  0  0
  -29.2217  -18.9463   21.7283 C   0  0  0  0  0  0  0  0  0  0  0  0
  -19.5738  -15.7746   25.2880 C   0  0  0  0  0  0  0  0  0  0  0  0
  -30.4031  -21.0948   21.4566 C   0  0  0  0  0  0  0  0  0  0  0  0
  -26.7376  -22.4580   25.6175 C   0  0  0  0  0  0  0  0  0  0  0  0
  -27.0728  -23.1967   24.3199 C   0  0  0  0  0  0  0  0  0  0  0  0
  -26.7830  -20.9408   25.4780 C   0  0  0  0  0  0  0  0  0  1  0  0
  -21.4186  -15.7708   20.6586 C   0  0  1  0  0  0  0  0  0  0  0  0
  -18.4790  -15.6282   23.0477 C   0  0  2  0  0  0  0  0  0  0  0  0
  -31.8906  -23.0230   23.6350 C   0  0  0  0  0  0  0  0  0  0  0  0
  -21.1960  -15.7231   19.1205 C   0  0  0  0  0  0  0  0  0  0  0  0
  -28.3176  -25.4122   19.3474 N   0  0  0  0  0  0  0  0  0  0  0  0
  -28.4966  -21.9703   22.7025 N   0  0  0  0  0  0  0  0  0  0  0  0
  -29.5469  -23.3336   24.2401 N   0  0  0  0  0  0  0  0  0  0  0  0
  -29.6136  -25.0728   19.2411 N   0  0  0  0  0  0  0  0  0  0  0  0
  -28.4120  -22.8222   23.7370 N   0  0  0  0  0  0  0  0  0  0  0  0
  -23.6176  -15.4770   21.7550 N   0  0  0  0  0  0  0  0  0  0  0  0
  -29.2762  -21.2827   18.8172 N   0  0  0  0  0  0  0  0  0  0  0  0
  -31.8134  -25.9092   19.5093 N   0  0  0  0  0  0  0  0  0  0  0  0
  -29.2161  -29.4319   20.6232 N   0  0  0  0  0  0  0  0  0  0  0  0
  -26.9414  -14.1929   20.9806 N   0  0  0  0  0  0  0  0  0  0  0  0
  -20.2479  -15.3948   21.4437 N   0  0  0  0  0  0  0  0  0  0  0  0
  -29.4617  -20.1229   20.9049 N   0  0  0  0  0  0  0  0  0  0  0  0
  -18.3823  -16.0939   24.4601 N   0  3  0  0  0  0  0  0  0  0  0  0
  -31.3819  -28.7180   20.3818 O   0  0  0  0  0  0  0  0  0  0  0  0
  -25.4738  -15.7209   20.0141 O   0  0  0  0  0  0  0  0  0  0  0  0
  -22.4527  -13.6493   20.8954 O   0  0  0  0  0  0  0  0  0  0  0  0
  -20.0890  -17.3807   22.6304 O   0  0  0  0  0  0  0  0  0  0  0  0
  -28.4166  -19.1603   19.0900 O   0  0  0  0  0  0  0  0  0  0  0  0
  -23.6463  -29.5381   20.6533 O   0  0  0  0  0  0  0  0  0  0  0  0
  -25.8210  -20.5414   24.5026 O   0  0  0  0  0  0  0  0  0  1  0  0
  -19.6289  -27.0198   23.4679 F   0  0  0  0  0  0  0  0  0  0  0  0
  -22.7104  -30.5865   23.0340 F   0  0  0  0  0  0  0  0  0  0  0  0
  -32.7108  -22.3593   22.7537 F   0  0  0  0  0  0  0  0  0  0  0  0
  -32.2436  -24.3440   23.4930 F   0  0  0  0  0  0  0  0  0  0  0  0
  -32.3591  -22.6706   24.8769 F   0  0  0  0  0  0  0  0  0  0  0  0
  1  2  1  0  0  0  0
  1  5  2  0  0  0  0
  2  6  2  0  0  0  0
  3  8  2  0  0  0  0
  3 15  1  0  0  0  0
  4  9  1  0  0  0  0
  4 15  2  0  0  0  0
  5 17  1  0  0  0  0
  6 19  1  0  0  0  0
  7 10  2  0  0  0  0
  7 18  1  0  0  0  0
  8 21  1  0  0  0  0
  9 21  2  0  0  0  0
 10 22  1  0  0  0  0
 11 12  2  0  0  0  0
 11 23  1  0  0  0  0
 12 24  1  0  0  0  0
 13 20  1  0  0  0  0
 13 22  2  0  0  0  0
 14 24  2  0  0  0  0
 14 25  1  0  0  0  0
 15 26  1  0  0  0  0
 16 26  1  0  0  0  0
 16 29  2  0  0  0  0
 16 30  1  0  0  0  0
 17 19  2  0  0  0  0
 17 35  1  0  0  0  0
 18 20  2  0  0  0  0
 18 36  1  0  0  0  0
 19 44  1  0  0  0  0
 20 37  1  0  0  0  0
 21 79  1  0  0  0  0
 22 80  1  0  0  0  0
 23 25  2  0  0  0  0
 23 79  1  0  0  0  0
 24 81  1  0  0  0  0
 25 82  1  0  0  0  0
 26 61  2  0  0  0  0
 27 28  1  0  0  0  0
 27 53  1  0  0  0  0
 27 62  2  0  0  0  0
 28 59  1  0  0  0  0
 28 63  2  0  0  0  0
 29 64  1  0  0  0  0
 29 68  1  0  0  0  0
 30 69  1  0  0  0  0
 30 74  2  0  0  0  0
 31 45  1  0  0  0  0
 31 70  1  0  0  0  0
 31 75  2  0  0  0  0
 32 57  1  0  0  0  0
 32 66  1  0  0  0  0
 32 76  2  0  0  0  0
 33 58  1  0  0  0  0
 33 71  1  0  0  0  0
 33 77  2  0  0  0  0
 34 67  1  0  0  0  0
 34 72  1  0  0  0  0
 34 78  2  0  0  0  0
 35 38  1  0  0  0  0
 36 45  1  0  0  0  0
 37 66  1  0  0  0  0
 38 40  1  0  0  0  0
 39 41  1  0  0  0  0
 39 42  1  0  0  0  0
 40 44  1  0  0  0  0
 41 46  1  0  0  0  0
 42 67  1  0  0  0  0
 43 46  1  0  0  0  0
 43 67  1  0  0  0  0
 44 70  1  0  0  0  0
 45 66  1  0  0  0  0
 46 64  1  0  0  0  0
 47 58  1  0  0  0  0
 48 60  1  0  0  0  0
 49 60  1  0  0  0  0
 50 60  1  0  0  0  0
 51 72  1  0  0  0  0
 52 73  1  0  0  0  0
 53 72  1  0  0  0  0
 54 55  1  0  0  0  0
 54 56  1  0  0  0  0
 55 65  1  0  0  0  0
 56 80  1  0  0  0  0
 57 60  1  0  0  0  0
 57 71  1  0  0  0  0
 58 73  1  0  0  0  0
 59 83  1  0  0  0  0
 59 84  1  0  0  0  0
 59 85  1  0  0  0  0
 61 64  1  0  0  0  0
 62 65  1  0  0  0  0
 63 65  1  0  0  0  0
M  CHG  1  73   1
M  ISO  4  34 100  56 101  72 100  80 101
M  END
> <Batch ID>
0062

> <Smiles>
CNC(C)C(=O)NC(C(=O)N1Cc2cc([101O:1][101CH2:1]CCn3nc(C[100N:0](C)[100C:0](=O)N4CCCC(n5nc(-c6ccc(Oc7ccc(F)cc7F)cc6)c(C(N)=O)c5N)C4)c(C(F)(F)F)n3)ccc2CC1C(=O)NC1CCCc2ccccc21)C(C)(C)C

> <Shape>
0.244

> <Color>
0.064

> <Negative vol penalty>
0.000

$$$$

  -OEChem-04052318003D

 83 91  0     1  0  0  0  0  0999 V2000
  -30.3470  -23.2134   14.8772 C   0  0  0  0  0  0  0  0  0  0  0  0
  -29.3570  -22.6357   15.6656 C   0  0  0  0  0  0  0  0  0  0  0  0
  -27.9018  -16.7818   18.8996 C   0  0  0  0  0  0  0  0  0  0  0  0
  -27.7519  -17.1375   21.2846 C   0  0  0  0  0  0  0  0  0  0  0  0
  -31.0599  -24.3140   15.3508 C   0  0  0  0  0  0  0  0  0  0  0  0
  -29.0800  -23.1577   16.9286 C   0  0  0  0  0  0  0  0  0  0  0  0
  -23.6158  -23.4354   19.6801 C   0  0  0  0  0  0  0  0  0  0  0  0
  -28.6238  -17.9680   18.7681 C   0  0  0  0  0  0  0  0  0  0  0  0
  -28.4740  -18.3237   21.1531 C   0  0  0  0  0  0  0  0  0  0  0  0
  -23.0062  -22.6274   20.6389 C   0  0  0  0  0  0  0  0  0  0  0  0
  -31.7032  -19.2424   20.7675 C   0  0  0  0  0  0  0  0  0  0  0  0
  -32.7300  -19.4790   21.6814 C   0  0  0  0  0  0  0  0  0  0  0  0
  -23.7521  -24.1309   22.3715 C   0  0  0  0  0  0  0  0  0  0  0  0
  -31.6179  -21.4967   22.4087 C   0  0  0  0  0  0  0  0  0  0  0  0
  -27.4658  -16.3666   20.1579 C   0  0  0  0  0  0  0  0  0  0  0  0
  -27.2365  -13.8518   20.5194 C   0  0  0  0  0  0  0  0  0  0  0  0
  -30.7849  -24.8558   16.6163 C   0  0  0  0  0  0  0  0  0  0  0  0
  -24.3085  -24.5934   20.0615 C   0  0  0  0  0  0  0  0  0  0  0  0
  -29.7908  -24.2658   17.4201 C   0  0  0  0  0  0  0  0  0  0  0  0
  -24.3674  -24.9534   21.4154 C   0  0  0  0  0  0  0  0  0  0  0  0
  -28.9099  -18.7389   19.8948 C   0  0  0  0  0  0  0  0  0  0  0  0
  -23.0768  -22.9735   21.9851 C   0  0  0  0  0  0  0  0  0  0  0  0
  -30.6337  -20.1330   20.6741 C   0  0  0  0  0  0  0  0  0  0  0  0
  -32.6874  -20.6061   22.5020 C   0  0  0  0  0  0  0  0  0  0  0  0
  -30.5911  -21.2602   21.4947 C   0  0  0  0  0  0  0  0  0  0  0  0
  -26.7195  -15.1417   20.2943 C   0  0  0  0  0  0  0  0  0  0  0  0
  -22.3076  -16.2064   24.8033 C   0  0  0  0  0  0  0  0  0  0  0  0
  -21.4111  -15.4258   24.1177 C   0  0  0  0  0  0  0  0  0  0  0  0
  -26.1283  -13.0420   20.5714 C   0  0  0  0  0  0  0  0  0  0  0  0
  -28.5968  -13.4239   20.6682 C   0  0  0  0  0  0  0  0  0  0  0  0
  -27.3199  -25.5844   19.8302 C   0  0  0  0  0  0  0  0  0  0  0  0
  -26.0933  -28.3431   21.0166 C   0  0  0  0  0  0  0  0  0  0  0  0
  -20.6347  -13.2019   22.4533 C   0  0  0  0  0  0  0  0  0  0  0  0
  -23.6273  -29.8858   22.8014 C   0  0  0  0  0  0  0  0  0  0  0  0
  -31.6143  -26.0169   17.1047 C   0  0  0  0  0  0  0  0  0  0  0  0
  -24.9378  -25.4687   19.0126 C   0  0  0  0  0  0  0  0  0  0  0  0
  -25.0816  -26.1972   21.8750 C   0  0  0  0  0  0  0  0  0  0  0  0
  -31.0027  -26.7417   18.3009 C   0  0  0  0  0  0  0  0  0  0  0  0
  -21.4711  -13.3870   18.9740 C   0  0  0  0  0  0  0  0  0  0  0  0
  -30.5335  -25.7388   19.3501 C   0  0  0  0  0  0  0  0  0  0  0  0
  -22.9520  -13.7642   18.9803 C   0  0  0  0  0  0  0  0  0  0  0  0
  -20.7228  -14.0434   20.1299 C   0  0  0  0  0  0  0  0  0  0  0  0
  -22.7924  -14.1364   21.4825 C   0  0  0  0  0  0  0  0  0  0  0  0
  -29.4443  -24.8188   18.7855 C   0  0  1  0  0  0  0  0  0  0  0  0
  -26.0553  -26.3502   19.5618 C   0  0  1  0  0  0  0  0  0  0  0  0
  -23.5915  -13.4697   20.3488 C   0  0  2  0  0  0  0  0  0  0  0  0
  -20.1809  -15.7402   23.3739 C   0  0  0  0  0  0  0  0  0  0  0  0
  -22.9166  -32.1438   23.6345 C   0  0  0  0  0  0  0  0  0  0  0  0
  -20.3914  -12.3252   24.7544 C   0  0  0  0  0  0  0  0  0  0  0  0
  -22.4338  -11.8677   23.3964 C   0  0  0  0  0  0  0  0  0  0  0  0
  -28.2257  -28.2080   23.1948 C   0  0  0  0  0  0  0  0  0  0  0  0
  -26.9055  -29.8920   24.4945 C   0  0  0  0  0  0  0  0  0  0  0  0
  -27.8340  -30.4938   22.2588 C   0  0  0  0  0  0  0  0  0  0  0  0
  -21.0969  -29.7830   21.2698 C   0  0  0  0  0  0  0  0  0  0  0  0
  -22.3068  -17.6993   25.0151 C   0  0  0  0  0  0  0  0  0  0  0  0
  -22.3334  -18.5093   23.7142 C   0  0  0  0  0  0  0  0  0  0  0  0
  -22.4101  -20.0184   23.9500 C   0  0  0  0  0  0  0  0  0  0  0  0
  -22.3944  -20.7908   22.6379 C   0  0  0  0  0  0  0  0  0  1  0  0
  -25.8709  -28.9067   22.3993 C   0  0  1  0  0  0  0  0  0  0  0  0
  -22.7987  -31.1245   22.5120 C   0  0  2  0  0  0  0  0  0  0  0  0
  -21.3754  -12.9335   23.7392 C   0  0  0  0  0  0  0  0  0  0  0  0
  -27.1972  -29.3506   23.0787 C   0  0  0  0  0  0  0  0  0  0  0  0
  -25.3866  -15.1553   20.2090 N   0  0  0  0  0  0  0  0  0  0  0  0
  -23.2963  -15.4196   25.3258 N   0  0  0  0  0  0  0  0  0  0  0  0
  -23.0411  -14.1617   24.9827 N   0  0  0  0  0  0  0  0  0  0  0  0
  -21.9104  -14.1676   24.2582 N   0  0  0  0  0  0  0  0  0  0  0  0
  -25.0567  -13.8640   20.3813 N   0  0  0  0  0  0  0  0  0  0  0  0
  -25.6863  -27.0171   20.8122 N   0  0  0  0  0  0  0  0  0  0  0  0
  -21.3742  -13.7585   21.4096 N   0  0  0  0  0  0  0  0  0  0  0  0
  -25.9758  -11.7141   20.7605 N   0  0  0  0  0  0  0  0  0  0  0  0
  -29.6125  -14.3862   20.5878 N   0  0  0  0  0  0  0  0  0  0  0  0
  -28.1720  -25.5074   18.7452 N   0  0  0  0  0  0  0  0  0  0  0  0
  -24.8886  -29.9751   22.2515 N   0  0  0  0  0  0  0  0  0  0  0  0
  -21.3618  -30.7616   22.3557 N   0  3  0  0  0  0  0  0  0  0  0  0
  -28.9035  -12.2212   20.8503 O   0  0  0  0  0  0  0  0  0  0  0  0
  -27.5091  -25.1005   20.9401 O   0  0  0  0  0  0  0  0  0  0  0  0
  -26.6025  -29.0556   20.1479 O   0  0  0  0  0  0  0  0  0  0  0  0
  -19.4354  -12.9218   22.3797 O   0  0  0  0  0  0  0  0  0  0  0  0
  -23.1997  -28.9358   23.4534 O   0  0  0  0  0  0  0  0  0  0  0  0
  -29.6147  -19.8963   19.7668 O   0  0  0  0  0  0  0  0  0  0  0  0
  -22.4832  -22.1862   22.9230 O   0  0  0  0  0  0  0  0  0  1  0  0
  -33.6728  -20.8324   23.3807 F   0  0  0  0  0  0  0  0  0  0  0  0
  -29.5656  -22.1187   21.4103 F   0  0  0  0  0  0  0  0  0  0  0  0
  1  2  1  0  0  0  0
  1  5  2  0  0  0  0
  2  6  2  0  0  0  0
  3  8  2  0  0  0  0
  3 15  1  0  0  0  0
  4  9  1  0  0  0  0
  4 15  2  0  0  0  0
  5 17  1  0  0  0  0
  6 19  1  0  0  0  0
  7 10  2  0  0  0  0
  7 18  1  0  0  0  0
  8 21  1  0  0  0  0
  9 21  2  0  0  0  0
 10 22  1  0  0  0  0
 11 12  2  0  0  0  0
 11 23  1  0  0  0  0
 12 24  1  0  0  0  0
 13 20  1  0  0  0  0
 13 22  2  0  0  0  0
 14 24  2  0  0  0  0
 14 25  1  0  0  0  0
 15 26  1  0  0  0  0
 16 26  1  0  0  0  0
 16 29  2  0  0  0  0
 16 30  1  0  0  0  0
 17 19  2  0  0  0  0
 17 35  1  0  0  0  0
 18 20  2  0  0  0  0
 18 36  1  0  0  0  0
 19 44  1  0  0  0  0
 20 37  1  0  0  0  0
 21 80  1  0  0  0  0
 22 81  1  0  0  0  0
 23 25  2  0  0  0  0
 23 80  1  0  0  0  0
 24 82  1  0  0  0  0
 25 83  1  0  0  0  0
 26 63  2  0  0  0  0
 27 28  2  0  0  0  0
 27 55  1  0  0  0  0
 27 64  1  0  0  0  0
 28 47  1  0  0  0  0
 28 66  1  0  0  0  0
 29 67  1  0  0  0  0
 29 70  1  0  0  0  0
 30 71  1  0  0  0  0
 30 75  2  0  0  0  0
 31 45  1  0  0  0  0
 31 72  1  0  0  0  0
 31 76  2  0  0  0  0
 32 59  1  0  0  0  0
 32 68  1  0  0  0  0
 32 77  2  0  0  0  0
 33 61  1  0  0  0  0
 33 69  1  0  0  0  0
 33 78  2  0  0  0  0
 34 60  1  0  0  0  0
 34 73  1  0  0  0  0
 34 79  2  0  0  0  0
 35 38  1  0  0  0  0
 36 45  1  0  0  0  0
 37 68  1  0  0  0  0
 38 40  1  0  0  0  0
 39 41  1  0  0  0  0
 39 42  1  0  0  0  0
 40 44  1  0  0  0  0
 41 46  1  0  0  0  0
 42 69  1  0  0  0  0
 43 46  1  0  0  0  0
 43 69  1  0  0  0  0
 44 72  1  0  0  0  0
 45 68  1  0  0  0  0
 46 67  1  0  0  0  0
 48 60  1  0  0  0  0
 49 61  1  0  0  0  0
 50 61  1  0  0  0  0
 51 62  1  0  0  0  0
 52 62  1  0  0  0  0
 53 62  1  0  0  0  0
 54 74  1  0  0  0  0
 55 56  1  0  0  0  0
 56 57  1  0  0  0  0
 57 58  1  0  0  0  0
 58 81  1  0  0  0  0
 59 62  1  0  0  0  0
 59 73  1  0  0  0  0
 60 74  1  0  0  0  0
 61 66  1  0  0  0  0
 63 67  1  0  0  0  0
 64 65  2  0  0  0  0
 65 66  1  0  0  0  0
M  CHG  1  74   1
M  ISO  4  33 100  58 101  61 100  81 101
M  END
> <Batch ID>
0062

> <Smiles>
CNC(C)C(=O)NC(C(=O)N1Cc2cc([101O:1][101CH2:1]CCCc3nnn([100C:0](C)(C)[100C:0](=O)N4CCCC(n5nc(-c6ccc(Oc7ccc(F)cc7F)cc6)c(C(N)=O)c5N)C4)c3C)ccc2CC1C(=O)NC1CCCc2ccccc21)C(C)(C)C

> <Shape>
0.219

> <Color>
0.071

> <Negative vol penalty>
0.000

$$$$

  -OEChem-04052318003D

 88 96  0     1  0  0  0  0  0999 V2000
  -17.2941  -14.4382   21.9587 C   0  0  0  0  0  0  0  0  0  0  0  0
  -18.3568  -15.1297   22.5313 C   0  0  0  0  0  0  0  0  0  0  0  0
  -27.0325  -29.6250   20.3483 C   0  0  0  0  0  0  0  0  0  0  0  0
  -25.6129  -27.7757   20.9819 C   0  0  0  0  0  0  0  0  0  0  0  0
  -17.4163  -13.0765   21.6856 C   0  0  0  0  0  0  0  0  0  0  0  0
  -19.5420  -14.4595   22.8322 C   0  0  0  0  0  0  0  0  0  0  0  0
  -23.6542  -17.0551   21.4188 C   0  0  0  0  0  0  0  0  0  0  0  0
  -25.9101  -30.4433   20.2216 C   0  0  0  0  0  0  0  0  0  0  0  0
  -24.4904  -28.5940   20.8553 C   0  0  0  0  0  0  0  0  0  0  0  0
  -24.0525  -18.1117   22.2366 C   0  0  0  0  0  0  0  0  0  0  0  0
  -21.2815  -30.2921   21.0488 C   0  0  0  0  0  0  0  0  0  0  0  0
  -20.3191  -30.2347   22.0569 C   0  0  0  0  0  0  0  0  0  0  0  0
  -25.7383  -16.7001   23.2289 C   0  0  0  0  0  0  0  0  0  0  0  0
  -21.9725  -30.9311   23.6750 C   0  0  0  0  0  0  0  0  0  0  0  0
  -28.5306  -21.6864   21.4432 C   0  0  0  0  0  0  0  0  0  0  0  0
  -26.8840  -28.2912   20.7284 C   0  0  0  0  0  0  0  0  0  0  0  0
  -28.8220  -27.2427   22.0138 C   0  0  0  0  0  0  0  0  0  0  0  0
  -18.6070  -12.3913   21.9743 C   0  0  0  0  0  0  0  0  0  0  0  0
  -24.2888  -15.8078   21.5077 C   0  0  0  0  0  0  0  0  0  0  0  0
  -19.6798  -13.0870   22.5639 C   0  0  0  0  0  0  0  0  0  0  0  0
  -25.3479  -15.6301   22.4093 C   0  0  0  0  0  0  0  0  0  0  0  0
  -24.6390  -29.9278   20.4751 C   0  0  0  0  0  0  0  0  0  0  0  0
  -25.0928  -17.9334   23.1439 C   0  0  0  0  0  0  0  0  0  0  0  0
  -22.5894  -30.6689   21.3539 C   0  0  0  0  0  0  0  0  0  0  0  0
  -20.6646  -30.5543   23.3699 C   0  0  0  0  0  0  0  0  0  0  0  0
  -22.9349  -30.9884   22.6669 C   0  0  0  0  0  0  0  0  0  0  0  0
  -28.0430  -27.4452   20.8589 C   0  0  0  0  0  0  0  0  0  0  0  0
  -28.0617  -20.6063   22.1581 C   0  0  0  0  0  0  0  0  0  0  0  0
  -28.4873  -20.4376   19.5279 C   0  0  0  0  0  0  0  0  0  0  0  0
  -28.0191  -19.3573   20.2429 C   0  0  0  0  0  0  0  0  0  0  0  0
  -29.7965  -26.3586   21.6201 C   0  0  0  0  0  0  0  0  0  0  0  0
  -28.6775  -27.8036   23.3254 C   0  0  0  0  0  0  0  0  0  0  0  0
  -23.3562  -12.8657   22.2681 C   0  0  0  0  0  0  0  0  0  0  0  0
  -26.3769  -12.0958   21.3708 C   0  0  0  0  0  0  0  0  0  0  0  0
  -29.6065  -13.0977   20.9098 C   0  0  0  0  0  0  0  0  0  0  0  0
  -30.1666  -22.2493   17.4185 C   0  0  0  0  0  0  0  0  0  0  0  0
  -18.6753  -10.9090   21.7047 C   0  0  0  0  0  0  0  0  0  0  0  0
  -23.8651  -14.6861   20.5997 C   0  0  0  0  0  0  0  0  0  0  0  0
  -26.0752  -14.3167   22.5293 C   0  0  0  0  0  0  0  0  0  0  0  0
  -20.0973  -10.3541   21.7087 C   0  0  0  0  0  0  0  0  0  0  0  0
  -32.2810  -24.9737   17.7837 C   0  0  0  0  0  0  0  0  0  0  0  0
  -20.8692  -10.8722   22.9181 C   0  0  0  0  0  0  0  0  0  0  0  0
  -31.5185  -25.9073   18.7228 C   0  0  0  0  0  0  0  0  0  0  0  0
  -31.3393  -24.3310   16.7723 C   0  0  0  0  0  0  0  0  0  0  0  0
  -29.4340  -24.4980   18.3416 C   0  0  0  0  0  0  0  0  0  0  0  0
  -20.9903  -12.4004   22.8819 C   0  0  1  0  0  0  0  0  0  0  0  0
  -24.2404  -13.3084   21.1367 C   0  0  1  0  0  0  0  0  0  0  0  0
  -30.3401  -25.1763   19.3896 C   0  0  2  0  0  0  0  0  0  0  0  0
  -32.0133  -12.9509   20.2146 C   0  0  0  0  0  0  0  0  0  0  0  0
  -27.7385  -21.4729   15.2904 C   0  0  0  0  0  0  0  0  0  0  0  0
  -26.4521  -21.8871   17.4110 C   0  0  0  0  0  0  0  0  0  0  0  0
  -26.6988  -10.7278   24.0791 C   0  0  0  0  0  0  0  0  0  0  0  0
  -29.1750  -10.7336   23.7095 C   0  0  0  0  0  0  0  0  0  0  0  0
  -27.6864   -9.4745   22.1534 C   0  0  0  0  0  0  0  0  0  0  0  0
  -28.9903  -14.0171   18.1650 C   0  0  0  0  0  0  0  0  0  0  0  0
  -27.8250  -20.7162   23.6432 C   0  0  0  0  0  0  0  0  0  0  0  0
  -28.7280  -20.3526   18.0594 C   0  0  0  0  0  0  0  0  0  0  0  0
  -26.4115  -21.1742   24.0093 C   0  0  0  0  0  0  0  0  0  0  0  0
  -25.3190  -20.2836   23.4291 C   0  0  0  0  0  0  0  0  0  1  0  0
  -27.7097  -12.0014   22.0736 C   0  0  1  0  0  0  0  0  0  0  0  0
  -30.5661  -12.9019   19.7499 C   0  0  2  0  0  0  0  0  0  0  0  0
  -27.7543  -22.1371   16.6615 C   0  0  0  0  0  0  0  0  0  0  0  0
  -27.7315  -18.0531   19.5810 C   0  0  0  0  0  0  0  0  0  0  0  0
  -27.8027  -10.7586   23.0032 C   0  0  0  0  0  0  0  0  0  0  0  0
  -28.7518  -21.6215   20.1153 N   0  0  0  0  0  0  0  0  0  0  0  0
  -28.4847  -26.7461   19.8099 N   0  0  0  0  0  0  0  0  0  0  0  0
  -27.7976  -19.4223   21.5707 N   0  0  0  0  0  0  0  0  0  0  0  0
  -29.5518  -26.0958   20.3043 N   0  0  0  0  0  0  0  0  0  0  0  0
  -25.6199  -13.2484   21.6243 N   0  0  0  0  0  0  0  0  0  0  0  0
  -30.2295  -23.6505   17.4400 N   0  0  0  0  0  0  0  0  0  0  0  0
  -30.8304  -25.7882   22.2744 N   0  0  0  0  0  0  0  0  0  0  0  0
  -27.6214  -28.6951   23.5582 N   0  0  0  0  0  0  0  0  0  0  0  0
  -22.0147  -12.8041   21.9427 N   0  0  0  0  0  0  0  0  0  0  0  0
  -28.7263  -12.0430   21.0280 N   0  0  0  0  0  0  0  0  0  0  0  0
  -28.8920  -21.6637   17.4477 N   0  0  0  0  0  0  0  0  0  0  0  0
  -30.3650  -13.9658   18.7259 N   0  3  0  0  0  0  0  0  0  0  0  0
  -29.4714  -27.5353   24.2588 O   0  0  0  0  0  0  0  0  0  0  0  0
  -23.8544  -12.5984   23.3553 O   0  0  0  0  0  0  0  0  0  0  0  0
  -26.0238  -11.1839   20.6189 O   0  0  0  0  0  0  0  0  0  0  0  0
  -29.6374  -14.0856   21.6403 O   0  0  0  0  0  0  0  0  0  0  0  0
  -31.1923  -21.5581   17.3682 O   0  0  0  0  0  0  0  0  0  0  0  0
  -23.5435  -30.7261   20.3518 O   0  0  0  0  0  0  0  0  0  0  0  0
  -25.4831  -18.9628   23.9438 O   0  0  0  0  0  0  0  0  0  1  0  0
  -19.7400  -30.5006   24.3376 F   0  0  0  0  0  0  0  0  0  0  0  0
  -24.1895  -31.3523   22.9658 F   0  0  0  0  0  0  0  0  0  0  0  0
  -27.9766  -18.0545   18.2368 F   0  0  0  0  0  0  0  0  0  0  0  0
  -28.4681  -17.0139   20.0752 F   0  0  0  0  0  0  0  0  0  0  0  0
  -26.4272  -17.6721   19.7139 F   0  0  0  0  0  0  0  0  0  0  0  0
  1  2  1  0  0  0  0
  1  5  2  0  0  0  0
  2  6  2  0  0  0  0
  3  8  2  0  0  0  0
  3 16  1  0  0  0  0
  4  9  1  0  0  0  0
  4 16  2  0  0  0  0
  5 18  1  0  0  0  0
  6 20  1  0  0  0  0
  7 10  2  0  0  0  0
  7 19  1  0  0  0  0
  8 22  1  0  0  0  0
  9 22  2  0  0  0  0
 10 23  1  0  0  0  0
 11 12  2  0  0  0  0
 11 24  1  0  0  0  0
 12 25  1  0  0  0  0
 13 21  1  0  0  0  0
 13 23  2  0  0  0  0
 14 25  2  0  0  0  0
 14 26  1  0  0  0  0
 15 28  1  0  0  0  0
 15 65  2  0  0  0  0
 16 27  1  0  0  0  0
 17 27  1  0  0  0  0
 17 31  2  0  0  0  0
 17 32  1  0  0  0  0
 18 20  2  0  0  0  0
 18 37  1  0  0  0  0
 19 21  2  0  0  0  0
 19 38  1  0  0  0  0
 20 46  1  0  0  0  0
 21 39  1  0  0  0  0
 22 82  1  0  0  0  0
 23 83  1  0  0  0  0
 24 26  2  0  0  0  0
 24 82  1  0  0  0  0
 25 84  1  0  0  0  0
 26 85  1  0  0  0  0
 27 66  2  0  0  0  0
 28 56  1  0  0  0  0
 28 67  2  0  0  0  0
 29 30  2  0  0  0  0
 29 57  1  0  0  0  0
 29 65  1  0  0  0  0
 30 63  1  0  0  0  0
 30 67  1  0  0  0  0
 31 68  1  0  0  0  0
 31 71  1  0  0  0  0
 32 72  1  0  0  0  0
 32 77  2  0  0  0  0
 33 47  1  0  0  0  0
 33 73  1  0  0  0  0
 33 78  2  0  0  0  0
 34 60  1  0  0  0  0
 34 69  1  0  0  0  0
 34 79  2  0  0  0  0
 35 61  1  0  0  0  0
 35 74  1  0  0  0  0
 35 80  2  0  0  0  0
 36 70  1  0  0  0  0
 36 75  1  0  0  0  0
 36 81  2  0  0  0  0
 37 40  1  0  0  0  0
 38 47  1  0  0  0  0
 39 69  1  0  0  0  0
 40 42  1  0  0  0  0
 41 43  1  0  0  0  0
 41 44  1  0  0  0  0
 42 46  1  0  0  0  0
 43 48  1  0  0  0  0
 44 70  1  0  0  0  0
 45 48  1  0  0  0  0
 45 70  1  0  0  0  0
 46 73  1  0  0  0  0
 47 69  1  0  0  0  0
 48 68  1  0  0  0  0
 49 61  1  0  0  0  0
 50 62  1  0  0  0  0
 51 62  1  0  0  0  0
 52 64  1  0  0  0  0
 53 64  1  0  0  0  0
 54 64  1  0  0  0  0
 55 76  1  0  0  0  0
 56 58  1  0  0  0  0
 57 75  1  0  0  0  0
 58 59  1  0  0  0  0
 59 83  1  0  0  0  0
 60 64  1  0  0  0  0
 60 74  1  0  0  0  0
 61 76  1  0  0  0  0
 62 75  1  0  0  0  0
 63 86  1  0  0  0  0
 63 87  1  0  0  0  0
 63 88  1  0  0  0  0
 66 68  1  0  0  0  0
M  CHG  1  76   1
M  ISO  4  36 100  59 101  75 100  83 101
M  END
> <Batch ID>
0062

> <Smiles>
CNC(C)C(=O)NC(C(=O)N1Cc2cc([101O:1][101CH2:1]CCc3cnc(C[100N:0](C(C)C)[100C:0](=O)N4CCCC(n5nc(-c6ccc(Oc7ccc(F)cc7F)cc6)c(C(N)=O)c5N)C4)c(C(F)(F)F)n3)ccc2CC1C(=O)NC1CCCc2ccccc21)C(C)(C)C

> <Shape>
0.259

> <Color>
0.064

> <Negative vol penalty>
0.000

$$$$

  -OEChem-04052318003D

 85 93  0     1  0  0  0  0  0999 V2000
  -16.8230  -30.2787   24.1668 C   0  0  0  0  0  0  0  0  0  0  0  0
  -18.0295  -30.6482   24.7526 C   0  0  0  0  0  0  0  0  0  0  0  0
  -27.3785  -13.9797   18.6933 C   0  0  0  0  0  0  0  0  0  0  0  0
  -27.7761  -14.2967   21.0552 C   0  0  0  0  0  0  0  0  0  0  0  0
  -16.7972  -29.2726   23.2018 C   0  0  0  0  0  0  0  0  0  0  0  0
  -19.2108  -30.0111   24.3746 C   0  0  0  0  0  0  0  0  0  0  0  0
  -26.2110  -31.2746   23.5277 C   0  0  0  0  0  0  0  0  0  0  0  0
  -28.3711  -13.0004   18.6576 C   0  0  0  0  0  0  0  0  0  0  0  0
  -28.7687  -13.3173   21.0196 C   0  0  0  0  0  0  0  0  0  0  0  0
  -27.4513  -30.7664   23.9113 C   0  0  0  0  0  0  0  0  0  0  0  0
  -30.5512  -10.1619   18.0208 C   0  0  0  0  0  0  0  0  0  0  0  0
  -30.2731   -8.9816   17.3317 C   0  0  0  0  0  0  0  0  0  0  0  0
  -27.2970  -29.0970   22.1768 C   0  0  0  0  0  0  0  0  0  0  0  0
  -28.4081   -8.5589   18.8082 C   0  0  0  0  0  0  0  0  0  0  0  0
  -28.1081  -23.5820   23.2683 C   0  0  0  0  0  0  0  0  0  0  0  0
  -27.0810  -14.6279   19.8921 C   0  0  0  0  0  0  0  0  0  0  0  0
  -24.6847  -15.4521   20.1858 C   0  0  0  0  0  0  0  0  0  0  0  0
  -17.9802  -28.6295   22.8048 C   0  0  0  0  0  0  0  0  0  0  0  0
  -25.4982  -30.6900   22.4711 C   0  0  0  0  0  0  0  0  0  0  0  0
  -19.2006  -28.9945   23.4044 C   0  0  0  0  0  0  0  0  0  0  0  0
  -26.0490  -29.6013   21.7801 C   0  0  0  0  0  0  0  0  0  0  0  0
  -29.0662  -12.6692   19.8207 C   0  0  0  0  0  0  0  0  0  0  0  0
  -27.9932  -29.6757   23.2377 C   0  0  0  0  0  0  0  0  0  0  0  0
  -29.7578  -10.5408   19.1037 C   0  0  0  0  0  0  0  0  0  0  0  0
  -29.2016   -8.1800   17.7253 C   0  0  0  0  0  0  0  0  0  0  0  0
  -28.6862   -9.7393   19.4973 C   0  0  0  0  0  0  0  0  0  0  0  0
  -26.0562  -15.6400   19.9295 C   0  0  0  0  0  0  0  0  0  0  0  0
  -27.8569  -24.4952   24.2531 C   0  0  0  0  0  0  0  0  0  0  0  0
  -24.1451  -16.7127   20.1083 C   0  0  0  0  0  0  0  0  0  0  0  0
  -26.0855  -23.1797   24.0731 C   0  0  0  0  0  0  0  0  0  0  0  0
  -23.9632  -14.2458   20.4687 C   0  0  0  0  0  0  0  0  0  0  0  0
  -22.6840  -29.2379   22.1961 C   0  0  0  0  0  0  0  0  0  0  0  0
  -26.5600  -22.1643   20.8570 C   0  0  0  0  0  0  0  0  0  0  0  0
  -23.4053  -29.2888   19.0339 C   0  0  0  0  0  0  0  0  0  0  0  0
  -25.8043  -29.4436   16.6116 C   0  0  0  0  0  0  0  0  0  0  0  0
  -17.8959  -27.5150   21.7921 C   0  0  0  0  0  0  0  0  0  0  0  0
  -24.1736  -31.2668   22.0523 C   0  0  0  0  0  0  0  0  0  0  0  0
  -25.3331  -28.9504   20.6258 C   0  0  0  0  0  0  0  0  0  0  0  0
  -19.2437  -27.1485   21.1762 C   0  0  0  0  0  0  0  0  0  0  0  0
  -24.7881  -20.9460   17.9907 C   0  0  0  0  0  0  0  0  0  0  0  0
  -20.3081  -27.0168   22.2608 C   0  0  0  0  0  0  0  0  0  0  0  0
  -24.8126  -19.4288   18.1716 C   0  0  0  0  0  0  0  0  0  0  0  0
  -26.0730  -21.5901   18.5017 C   0  0  0  0  0  0  0  0  0  0  0  0
  -26.4227  -19.7381   20.1047 C   0  0  0  0  0  0  0  0  0  0  0  0
  -20.5067  -28.3440   23.0030 C   0  0  1  0  0  0  0  0  0  0  0  0
  -23.3006  -30.2705   21.2955 C   0  0  1  0  0  0  0  0  0  0  0  0
  -25.1303  -19.0510   19.6293 C   0  0  2  0  0  0  0  0  0  0  0  0
  -26.0905  -29.4266   14.1186 C   0  0  0  0  0  0  0  0  0  0  0  0
  -22.9065  -26.2788   18.9996 C   0  0  0  0  0  0  0  0  0  0  0  0
  -24.1006  -26.1763   16.8015 C   0  0  0  0  0  0  0  0  0  0  0  0
  -22.0028  -27.5086   17.0183 C   0  0  0  0  0  0  0  0  0  0  0  0
  -28.5635  -28.7053   25.8756 C   0  0  0  0  0  0  0  0  0  0  0  0
  -30.6629  -27.7652   24.8766 C   0  0  0  0  0  0  0  0  0  0  0  0
  -23.6125  -24.3974   23.2063 C   0  0  0  0  0  0  0  0  0  0  0  0
  -22.4976  -22.2911   23.5109 C   0  0  0  0  0  0  0  0  0  0  0  0
  -27.0322  -32.1364   16.6179 C   0  0  0  0  0  0  0  0  0  0  0  0
  -28.6941  -25.6235   24.8036 C   0  0  0  0  0  0  0  0  0  0  0  0
  -24.7451  -22.5869   24.3071 C   0  0  0  0  0  0  0  0  0  0  0  0
  -26.8376  -21.6740   22.2558 C   0  0  0  0  0  0  0  0  0  0  0  0
  -28.4446  -26.9326   24.0413 C   0  0  0  0  0  0  0  0  0  0  0  0
  -24.1291  -28.3619   18.0874 C   0  0  1  0  0  0  0  0  0  0  0  0
  -25.9161  -30.2914   15.3573 C   0  0  2  0  0  0  0  0  0  0  0  0
  -23.2976  -27.0922   17.7497 C   0  0  0  0  0  0  0  0  0  0  0  0
  -29.2056  -28.1510   24.6020 C   0  0  0  0  0  0  0  0  0  1  0  0
  -26.3684  -16.9193   19.7058 N   0  0  0  0  0  0  0  0  0  0  0  0
  -26.9955  -22.7805   23.1787 N   0  0  0  0  0  0  0  0  0  0  0  0
  -25.1855  -17.5466   19.8212 N   0  0  0  0  0  0  0  0  0  0  0  0
  -26.5985  -24.2230   24.7333 N   0  3  0  0  0  0  0  0  0  0  0  0
  -24.0382  -29.5466   20.2581 N   0  0  0  0  0  0  0  0  0  0  0  0
  -26.3516  -21.1888   19.8818 N   0  0  0  0  0  0  0  0  0  0  0  0
  -22.8868  -17.1782   20.2584 N   0  0  0  0  0  0  0  0  0  0  0  0
  -24.6721  -13.0375   20.5108 N   0  0  0  0  0  0  0  0  0  0  0  0
  -21.3023  -29.2540   22.2071 N   0  0  0  0  0  0  0  0  0  0  0  0
  -24.4905  -29.1661   16.9251 N   0  0  0  0  0  0  0  0  0  0  0  0
  -23.7945  -22.9415   23.2801 N   0  0  0  0  0  0  0  0  0  0  0  0
  -27.0842  -31.2115   15.4564 N   0  3  0  0  0  0  0  0  0  0  0  0
  -22.7238  -14.2375   20.6617 O   0  0  0  0  0  0  0  0  0  0  0  0
  -23.4081  -28.4816   22.8327 O   0  0  0  0  0  0  0  0  0  0  0  0
  -26.5268  -23.3784   20.6402 O   0  0  0  0  0  0  0  0  0  0  0  0
  -22.3217  -29.7721   18.6964 O   0  0  0  0  0  0  0  0  0  0  0  0
  -26.7845  -29.0623   17.2474 O   0  0  0  0  0  0  0  0  0  0  0  0
  -30.0346  -11.7134   19.7864 O   0  0  0  0  0  0  0  0  0  0  0  0
  -29.2033  -29.1772   23.6104 O   0  0  0  0  0  0  0  0  0  1  0  0
  -28.9337   -7.0473   17.0625 F   0  0  0  0  0  0  0  0  0  0  0  0
  -27.9197  -10.0987   20.5361 F   0  0  0  0  0  0  0  0  0  0  0  0
  1  2  1  0  0  0  0
  1  5  2  0  0  0  0
  2  6  2  0  0  0  0
  3  8  2  0  0  0  0
  3 16  1  0  0  0  0
  4  9  1  0  0  0  0
  4 16  2  0  0  0  0
  5 18  1  0  0  0  0
  6 20  1  0  0  0  0
  7 10  2  0  0  0  0
  7 19  1  0  0  0  0
  8 22  1  0  0  0  0
  9 22  2  0  0  0  0
 10 23  1  0  0  0  0
 11 12  2  0  0  0  0
 11 24  1  0  0  0  0
 12 25  1  0  0  0  0
 13 21  1  0  0  0  0
 13 23  2  0  0  0  0
 14 25  2  0  0  0  0
 14 26  1  0  0  0  0
 15 28  2  0  0  0  0
 15 66  1  0  0  0  0
 16 27  1  0  0  0  0
 17 27  1  0  0  0  0
 17 29  2  0  0  0  0
 17 31  1  0  0  0  0
 18 20  2  0  0  0  0
 18 36  1  0  0  0  0
 19 21  2  0  0  0  0
 19 37  1  0  0  0  0
 20 45  1  0  0  0  0
 21 38  1  0  0  0  0
 22 82  1  0  0  0  0
 23 83  1  0  0  0  0
 24 26  2  0  0  0  0
 24 82  1  0  0  0  0
 25 84  1  0  0  0  0
 26 85  1  0  0  0  0
 27 65  2  0  0  0  0
 28 57  1  0  0  0  0
 28 68  1  0  0  0  0
 29 67  1  0  0  0  0
 29 71  1  0  0  0  0
 30 58  1  0  0  0  0
 30 66  1  0  0  0  0
 30 68  2  0  0  0  0
 31 72  1  0  0  0  0
 31 77  2  0  0  0  0
 32 46  1  0  0  0  0
 32 73  1  0  0  0  0
 32 78  2  0  0  0  0
 33 59  1  0  0  0  0
 33 70  1  0  0  0  0
 33 79  2  0  0  0  0
 34 61  1  0  0  0  0
 34 69  1  0  0  0  0
 34 80  2  0  0  0  0
 35 62  1  0  0  0  0
 35 74  1  0  0  0  0
 35 81  2  0  0  0  0
 36 39  1  0  0  0  0
 37 46  1  0  0  0  0
 38 69  1  0  0  0  0
 39 41  1  0  0  0  0
 40 42  1  0  0  0  0
 40 43  1  0  0  0  0
 41 45  1  0  0  0  0
 42 47  1  0  0  0  0
 43 70  1  0  0  0  0
 44 47  1  0  0  0  0
 44 70  1  0  0  0  0
 45 73  1  0  0  0  0
 46 69  1  0  0  0  0
 47 67  1  0  0  0  0
 48 62  1  0  0  0  0
 49 63  1  0  0  0  0
 50 63  1  0  0  0  0
 51 63  1  0  0  0  0
 52 64  1  0  0  0  0
 53 64  1  0  0  0  0
 54 75  1  0  0  0  0
 55 75  1  0  0  0  0
 56 76  1  0  0  0  0
 57 60  1  0  0  0  0
 58 75  1  0  0  0  0
 59 66  1  0  0  0  0
 60 64  1  0  0  0  0
 61 63  1  0  0  0  0
 61 74  1  0  0  0  0
 62 76  1  0  0  0  0
 64 83  1  0  0  0  0
 65 67  1  0  0  0  0
M  CHG  2  68   1  76   1
M  ISO  4  33 100  59 100  64 101  83 101
M  END
> <Batch ID>
0062

> <Smiles>
CNC(C)C(=O)NC(C(=O)N1Cc2cc([101O:1][101C:1](C)(C)CCc3cn([100CH2:0][100C:0](=O)N4CCCC(n5nc(-c6ccc(Oc7ccc(F)cc7F)cc6)c(C(N)=O)c5N)C4)c(CN(C)C)n3)ccc2CC1C(=O)NC1CCCc2ccccc21)C(C)(C)C

> <Shape>
0.222

> <Color>
0.100

> <Negative vol penalty>
0.000

$$$$

  -OEChem-04052318003D

 87 95  0     1  0  0  0  0  0999 V2000
  -19.0118  -27.3961   20.1771 C   0  0  0  0  0  0  0  0  0  0  0  0
  -19.6120  -26.5301   19.2687 C   0  0  0  0  0  0  0  0  0  0  0  0
  -27.9415  -25.9752   17.5705 C   0  0  0  0  0  0  0  0  0  0  0  0
  -28.4933  -26.2174   19.9102 C   0  0  0  0  0  0  0  0  0  0  0  0
  -19.4688  -27.4502   21.4933 C   0  0  0  0  0  0  0  0  0  0  0  0
  -20.6703  -25.7184   19.6757 C   0  0  0  0  0  0  0  0  0  0  0  0
  -21.4434  -17.9532   19.3148 C   0  0  0  0  0  0  0  0  0  0  0  0
  -27.3224  -27.2250   17.5871 C   0  0  0  0  0  0  0  0  0  0  0  0
  -27.8743  -27.4672   19.9268 C   0  0  0  0  0  0  0  0  0  0  0  0
  -21.6305  -16.5773   19.4493 C   0  0  0  0  0  0  0  0  0  0  0  0
  -26.1252  -30.5636   20.6772 C   0  0  0  0  0  0  0  0  0  0  0  0
  -25.2817  -30.8551   21.7492 C   0  0  0  0  0  0  0  0  0  0  0  0
  -28.2160  -14.2996   19.4637 C   0  0  0  0  0  0  0  0  0  0  0  0
  -23.1010  -16.9506   21.3324 C   0  0  0  0  0  0  0  0  0  0  0  0
  -23.8804  -28.9782   21.1571 C   0  0  0  0  0  0  0  0  0  0  0  0
  -27.0882  -13.5283   19.3237 C   0  0  0  0  0  0  0  0  0  0  0  0
  -28.5269  -25.4713   18.7321 C   0  0  0  0  0  0  0  0  0  0  0  0
  -30.5156  -23.9031   18.4263 C   0  0  0  0  0  0  0  0  0  0  0  0
  -20.5269  -26.6318   21.9190 C   0  0  0  0  0  0  0  0  0  0  0  0
  -22.0730  -18.8333   20.1993 C   0  0  0  0  0  0  0  0  0  0  0  0
  -21.1427  -25.7626   20.9984 C   0  0  0  0  0  0  0  0  0  0  0  0
  -22.9075  -18.3291   21.2104 C   0  0  0  0  0  0  0  0  0  0  0  0
  -27.2888  -27.9710   18.7652 C   0  0  0  0  0  0  0  0  0  0  0  0
  -22.4574  -16.0773   20.4555 C   0  0  0  0  0  0  0  0  0  0  0  0
  -25.8463  -29.4794   19.8451 C   0  0  0  0  0  0  0  0  0  0  0  0
  -24.1594  -30.0624   21.9892 C   0  0  0  0  0  0  0  0  0  0  0  0
  -24.7239  -28.6867   20.0851 C   0  0  0  0  0  0  0  0  0  0  0  0
  -29.1660  -24.1801   18.7157 C   0  0  0  0  0  0  0  0  0  0  0  0
  -28.4631  -14.3135   20.8496 C   0  0  0  0  0  0  0  0  0  0  0  0
  -30.6190  -22.5386   18.5440 C   0  0  0  0  0  0  0  0  0  0  0  0
  -31.5805  -24.7992   18.0819 C   0  0  0  0  0  0  0  0  0  0  0  0
  -22.6329  -22.3909   21.2511 C   0  0  0  0  0  0  0  0  0  0  0  0
  -22.3492  -20.7366   23.8189 C   0  0  0  0  0  0  0  0  0  0  0  0
  -21.5642  -18.6349   26.3887 C   0  0  0  0  0  0  0  0  0  0  0  0
  -28.8017  -18.2463   21.6282 C   0  0  0  0  0  0  0  0  0  0  0  0
  -21.0172  -26.7596   23.3396 C   0  0  0  0  0  0  0  0  0  0  0  0
  -21.9491  -20.3257   20.0535 C   0  0  0  0  0  0  0  0  0  0  0  0
  -23.5919  -19.3151   22.1173 C   0  0  0  0  0  0  0  0  0  0  0  0
  -21.8974  -25.5955   23.7871 C   0  0  0  0  0  0  0  0  0  0  0  0
  -27.4404  -18.7669   18.4114 C   0  0  0  0  0  0  0  0  0  0  0  0
  -22.9418  -25.2757   22.7223 C   0  0  0  0  0  0  0  0  0  0  0  0
  -27.8734  -20.2048   18.1287 C   0  0  0  0  0  0  0  0  0  0  0  0
  -27.0054  -18.5732   19.8652 C   0  0  0  0  0  0  0  0  0  0  0  0
  -28.4446  -20.4577   20.5723 C   0  0  0  0  0  0  0  0  0  0  0  0
  -22.2769  -24.8484   21.4082 C   0  0  1  0  0  0  0  0  0  0  0  0
  -21.9458  -21.0657   21.4032 C   0  0  1  0  0  0  0  0  0  0  0  0
  -28.9433  -20.6649   19.1339 C   0  0  2  0  0  0  0  0  0  0  0  0
  -26.8254   -9.9986   20.6555 C   0  0  0  0  0  0  0  0  0  0  0  0
  -21.3050  -18.5859   28.8842 C   0  0  0  0  0  0  0  0  0  0  0  0
  -30.5678  -15.8067   20.6576 C   0  0  0  0  0  0  0  0  0  0  0  0
  -30.4668  -13.9681   22.3205 C   0  0  0  0  0  0  0  0  0  0  0  0
  -25.3835  -20.7394   24.1304 C   0  0  0  0  0  0  0  0  0  0  0  0
  -25.0790  -19.7570   26.4130 C   0  0  0  0  0  0  0  0  0  0  0  0
  -24.1521  -22.0142   25.8948 C   0  0  0  0  0  0  0  0  0  0  0  0
  -25.4190  -12.0012   22.4965 C   0  0  0  0  0  0  0  0  0  0  0  0
  -26.7709  -16.8922   22.2969 C   0  0  0  0  0  0  0  0  0  0  0  0
  -18.7125  -17.8679   26.1937 C   0  0  0  0  0  0  0  0  0  0  0  0
  -25.6392  -10.8712   20.2531 C   0  0  0  0  0  0  0  0  0  0  0  0
  -24.2086  -12.9273   20.4903 C   0  0  0  0  0  0  0  0  0  0  0  0
  -29.0500  -16.0169   22.6511 C   0  0  0  0  0  0  0  0  0  0  0  0
  -23.8836  -14.2883   21.1059 C   0  0  0  0  0  0  0  0  0  1  0  0
  -23.0472  -19.9646   24.9098 C   0  0  1  0  0  0  0  0  0  0  0  0
  -20.5993  -18.7817   27.5514 C   0  0  2  0  0  0  0  0  0  0  0  0
  -29.5579  -14.9975   21.5584 C   0  0  0  0  0  0  0  0  0  0  0  0
  -24.4047  -20.6058   25.3141 C   0  0  0  0  0  0  0  0  0  0  0  0
  -25.5395  -12.2593   20.9732 C   0  0  1  0  0  0  0  0  0  0  0  0
  -28.4625  -23.0798   18.9961 N   0  0  0  0  0  0  0  0  0  0  0  0
  -27.5644  -13.6072   21.5406 N   0  0  0  0  0  0  0  0  0  0  0  0
  -26.7416  -13.1423   20.5851 N   0  0  0  0  0  0  0  0  0  0  0  0
  -29.3736  -22.0983   18.8833 N   0  0  0  0  0  0  0  0  0  0  0  0
  -22.6534  -20.3819   22.4990 N   0  0  0  0  0  0  0  0  0  0  0  0
  -28.0341  -19.0684   20.7901 N   0  0  0  0  0  0  0  0  0  0  0  0
  -31.6529  -21.6845   18.3893 N   0  0  0  0  0  0  0  0  0  0  0  0
  -31.3013  -26.1705   18.0050 N   0  0  0  0  0  0  0  0  0  0  0  0
  -21.8172  -23.4790   21.4964 N   0  0  0  0  0  0  0  0  0  0  0  0
  -22.0905  -19.8503   26.0053 N   0  0  0  0  0  0  0  0  0  0  0  0
  -28.2072  -17.0602   22.0841 N   0  0  0  0  0  0  0  0  0  0  0  0
  -19.5052  -17.7753   27.4467 N   0  3  0  0  0  0  0  0  0  0  0  0
  -32.7414  -24.3942   17.8331 O   0  0  0  0  0  0  0  0  0  0  0  0
  -23.8166  -22.4251   20.9360 O   0  0  0  0  0  0  0  0  0  0  0  0
  -21.5596  -21.6342   24.1258 O   0  0  0  0  0  0  0  0  0  0  0  0
  -21.8277  -17.5501   25.8746 O   0  0  0  0  0  0  0  0  0  0  0  0
  -29.9531  -18.5580   21.9587 O   0  0  0  0  0  0  0  0  0  0  0  0
  -26.6850  -29.1908   18.7817 O   0  0  0  0  0  0  0  0  0  0  0  0
  -22.6321  -14.7328   20.5840 O   0  0  0  0  0  0  0  0  0  1  0  0
  -23.3503  -30.3416   23.0195 F   0  0  0  0  0  0  0  0  0  0  0  0
  -24.4514  -27.6430   19.2898 F   0  0  0  0  0  0  0  0  0  0  0  0
  1  2  1  0  0  0  0
  1  5  2  0  0  0  0
  2  6  2  0  0  0  0
  3  8  2  0  0  0  0
  3 17  1  0  0  0  0
  4  9  1  0  0  0  0
  4 17  2  0  0  0  0
  5 19  1  0  0  0  0
  6 21  1  0  0  0  0
  7 10  2  0  0  0  0
  7 20  1  0  0  0  0
  8 23  1  0  0  0  0
  9 23  2  0  0  0  0
 10 24  1  0  0  0  0
 11 12  2  0  0  0  0
 11 25  1  0  0  0  0
 12 26  1  0  0  0  0
 13 16  2  0  0  0  0
 13 29  1  0  0  0  0
 14 22  1  0  0  0  0
 14 24  2  0  0  0  0
 15 26  2  0  0  0  0
 15 27  1  0  0  0  0
 16 69  1  0  0  0  0
 17 28  1  0  0  0  0
 18 28  1  0  0  0  0
 18 30  2  0  0  0  0
 18 31  1  0  0  0  0
 19 21  2  0  0  0  0
 19 36  1  0  0  0  0
 20 22  2  0  0  0  0
 20 37  1  0  0  0  0
 21 45  1  0  0  0  0
 22 38  1  0  0  0  0
 23 84  1  0  0  0  0
 24 85  1  0  0  0  0
 25 27  2  0  0  0  0
 25 84  1  0  0  0  0
 26 86  1  0  0  0  0
 27 87  1  0  0  0  0
 28 67  2  0  0  0  0
 29 64  1  0  0  0  0
 29 68  2  0  0  0  0
 30 70  1  0  0  0  0
 30 73  1  0  0  0  0
 31 74  1  0  0  0  0
 31 79  2  0  0  0  0
 32 46  1  0  0  0  0
 32 75  1  0  0  0  0
 32 80  2  0  0  0  0
 33 62  1  0  0  0  0
 33 71  1  0  0  0  0
 33 81  2  0  0  0  0
 34 63  1  0  0  0  0
 34 76  1  0  0  0  0
 34 82  2  0  0  0  0
 35 72  1  0  0  0  0
 35 77  1  0  0  0  0
 35 83  2  0  0  0  0
 36 39  1  0  0  0  0
 37 46  1  0  0  0  0
 38 71  1  0  0  0  0
 39 41  1  0  0  0  0
 40 42  1  0  0  0  0
 40 43  1  0  0  0  0
 41 45  1  0  0  0  0
 42 47  1  0  0  0  0
 43 72  1  0  0  0  0
 44 47  1  0  0  0  0
 44 72  1  0  0  0  0
 45 75  1  0  0  0  0
 46 71  1  0  0  0  0
 47 70  1  0  0  0  0
 48 58  1  0  0  0  0
 49 63  1  0  0  0  0
 50 64  1  0  0  0  0
 51 64  1  0  0  0  0
 52 65  1  0  0  0  0
 53 65  1  0  0  0  0
 54 65  1  0  0  0  0
 55 66  1  0  0  0  0
 56 77  1  0  0  0  0
 57 78  1  0  0  0  0
 58 66  1  0  0  0  0
 59 61  1  0  0  0  0
 59 66  1  0  0  0  0
 60 64  1  0  0  0  0
 60 77  1  0  0  0  0
 61 85  1  0  0  0  0
 62 65  1  0  0  0  0
 62 76  1  0  0  0  0
 63 78  1  0  0  0  0
 66 69  1  0  0  0  0
 67 70  1  0  0  0  0
 68 69  1  0  0  0  0
M  CHG  1  78   1
M  ISO  4  35 100  61 101  77 100  85 101
M  END
> <Batch ID>
0062

> <Smiles>
CCC(C)(C[101CH2:1][101O:1]c1ccc2c(c1)CN(C(=O)C(NC(=O)C(C)NC)C(C)(C)C)C(C(=O)NC1CCCc3ccccc31)C2)n1ccc(C(C)(C)C[100N:0](C)[100C:0](=O)N2CCCC(n3nc(-c4ccc(Oc5ccc(F)cc5F)cc4)c(C(N)=O)c3N)C2)n1

> <Shape>
0.231

> <Color>
0.047

> <Negative vol penalty>
0.000

$$$$

  -OEChem-04052318003D

 82 90  0     1  0  0  0  0  0999 V2000
  -18.8815   -9.4552   28.1260 C   0  0  0  0  0  0  0  0  0  0  0  0
  -20.0325  -10.1479   27.7643 C   0  0  0  0  0  0  0  0  0  0  0  0
  -23.0964   -9.8913   19.9758 C   0  0  0  0  0  0  0  0  0  0  0  0
  -23.9807   -9.8881   22.2242 C   0  0  0  0  0  0  0  0  0  0  0  0
  -18.6110   -9.2095   29.4715 C   0  0  0  0  0  0  0  0  0  0  0  0
  -20.9131  -10.5964   28.7481 C   0  0  0  0  0  0  0  0  0  0  0  0
  -25.7555   -9.6758   27.5870 C   0  0  0  0  0  0  0  0  0  0  0  0
  -22.3961   -8.7164   20.2496 C   0  0  0  0  0  0  0  0  0  0  0  0
  -23.2804   -8.7132   22.4979 C   0  0  0  0  0  0  0  0  0  0  0  0
  -26.3624  -10.5280   26.6654 C   0  0  0  0  0  0  0  0  0  0  0  0
  -20.1110   -7.8257   23.2644 C   0  0  0  0  0  0  0  0  0  0  0  0
  -19.4207   -7.7514   24.4741 C   0  0  0  0  0  0  0  0  0  0  0  0
  -27.4102  -11.7296   28.4758 C   0  0  0  0  0  0  0  0  0  0  0  0
  -20.7482   -5.8369   25.1140 C   0  0  0  0  0  0  0  0  0  0  0  0
  -28.6615  -15.5063   25.3168 C   0  0  0  0  0  0  0  0  0  0  0  0
  -30.1534  -13.7927   24.7742 C   0  0  0  0  0  0  0  0  0  0  0  0
  -23.8887  -10.4771   20.9631 C   0  0  0  0  0  0  0  0  0  0  0  0
  -24.1609  -13.0115   20.8607 C   0  0  0  0  0  0  0  0  0  0  0  0
  -19.4936   -9.6468   30.4717 C   0  0  0  0  0  0  0  0  0  0  0  0
  -25.9631   -9.8512   28.9627 C   0  0  0  0  0  0  0  0  0  0  0  0
  -20.6534  -10.3575   30.1084 C   0  0  0  0  0  0  0  0  0  0  0  0
  -26.8069  -10.8767   29.4126 C   0  0  0  0  0  0  0  0  0  0  0  0
  -29.1472  -14.2465   25.6023 C   0  0  0  0  0  0  0  0  0  0  0  0
  -22.4881   -8.1274   21.5106 C   0  0  0  0  0  0  0  0  0  0  0  0
  -27.1876  -11.5569   27.1099 C   0  0  0  0  0  0  0  0  0  0  0  0
  -21.1198   -6.9055   22.9793 C   0  0  0  0  0  0  0  0  0  0  0  0
  -19.7393   -6.7570   25.3990 C   0  0  0  0  0  0  0  0  0  0  0  0
  -21.4385   -5.9112   23.9042 C   0  0  0  0  0  0  0  0  0  0  0  0
  -24.6128  -11.6904   20.6808 C   0  0  0  0  0  0  0  0  0  0  0  0
  -25.2125  -13.7931   20.4490 C   0  0  0  0  0  0  0  0  0  0  0  0
  -30.0983  -15.7188   23.5682 C   0  0  0  0  0  0  0  0  0  0  0  0
  -22.9029  -13.4893   21.3556 C   0  0  0  0  0  0  0  0  0  0  0  0
  -24.0939  -10.5146   31.4466 C   0  0  0  0  0  0  0  0  0  0  0  0
  -26.8152   -9.9988   33.1352 C   0  0  0  0  0  0  0  0  0  0  0  0
  -30.2269   -9.9279   33.1810 C   0  0  0  0  0  0  0  0  0  0  0  0
  -30.8247  -14.6406   20.7702 C   0  0  0  0  0  0  0  0  0  0  0  0
  -19.1348   -9.3989   31.9155 C   0  0  0  0  0  0  0  0  0  0  0  0
  -25.3224   -8.9069   29.9426 C   0  0  0  0  0  0  0  0  0  0  0  0
  -27.0783  -11.0947   30.8779 C   0  0  0  0  0  0  0  0  0  0  0  0
  -20.3084   -9.5808   32.8747 C   0  0  0  0  0  0  0  0  0  0  0  0
  -29.4628  -12.6003   17.9981 C   0  0  0  0  0  0  0  0  0  0  0  0
  -21.0588  -10.8713   32.5614 C   0  0  0  0  0  0  0  0  0  0  0  0
  -28.0687  -12.2365   18.5060 C   0  0  0  0  0  0  0  0  0  0  0  0
  -30.4442  -12.8225   19.1450 C   0  0  0  0  0  0  0  0  0  0  0  0
  -28.5912  -13.4612   20.6525 C   0  0  0  0  0  0  0  0  0  0  0  0
  -21.6455  -10.8385   31.1450 C   0  0  1  0  0  0  0  0  0  0  0  0
  -25.1940   -9.4963   31.3438 C   0  0  1  0  0  0  0  0  0  0  0  0
  -27.5667  -13.2762   19.5230 C   0  0  2  0  0  0  0  0  0  0  0  0
  -32.1680   -9.5091   34.7153 C   0  0  0  0  0  0  0  0  0  0  0  0
  -26.3919  -12.7366   34.4140 C   0  0  0  0  0  0  0  0  0  0  0  0
  -28.7761  -12.6721   35.1756 C   0  0  0  0  0  0  0  0  0  0  0  0
  -27.1608  -10.9556   35.9924 C   0  0  0  0  0  0  0  0  0  0  0  0
  -29.2892  -16.5262   20.3622 C   0  0  0  0  0  0  0  0  0  0  0  0
  -31.1829   -7.6576   31.5408 C   0  0  0  0  0  0  0  0  0  0  0  0
  -28.6137  -13.4233   26.7377 C   0  0  0  0  0  0  0  0  0  1  0  0
  -32.1291  -16.8265   22.5801 C   0  0  0  0  0  0  0  0  0  0  0  0
  -30.6247  -16.5344   22.4364 C   0  0  1  0  0  0  0  0  0  0  0  0
  -27.9658  -10.8598   33.5976 C   0  0  1  0  0  0  0  0  0  0  0  0
  -31.2059   -8.8954   33.7101 C   0  0  2  0  0  0  0  0  0  0  0  0
  -27.5672  -11.8034   34.7673 C   0  0  0  0  0  0  0  0  0  0  0  0
  -29.1157  -16.2729   24.3037 N   0  0  0  0  0  0  0  0  0  0  0  0
  -30.6546  -14.5050   23.7437 N   0  0  0  0  0  0  0  0  0  0  0  0
  -25.8547  -11.6322   20.1928 N   0  0  0  0  0  0  0  0  0  0  0  0
  -26.1922  -12.9265   20.0624 N   0  0  0  0  0  0  0  0  0  0  0  0
  -26.4239  -10.1492   31.7972 N   0  0  0  0  0  0  0  0  0  0  0  0
  -29.9234  -13.7824   20.1190 N   0  0  0  0  0  0  0  0  0  0  0  0
  -25.3856  -15.1304   20.3836 N   0  0  0  0  0  0  0  0  0  0  0  0
  -21.9339  -12.5503   21.7346 N   0  0  0  0  0  0  0  0  0  0  0  0
  -22.8442  -10.0283   31.1131 N   0  0  0  0  0  0  0  0  0  0  0  0
  -29.0584   -9.9459   33.9129 N   0  0  0  0  0  0  0  0  0  0  0  0
  -30.3453  -15.9040   21.1480 N   0  0  0  0  0  0  0  0  0  0  0  0
  -32.6015  -17.6776   21.4580 N   0  3  0  0  0  0  0  0  0  0  0  0
  -32.0016   -8.3152   32.5916 N   0  3  0  0  0  0  0  0  0  0  0  0
  -22.6398  -14.7126   21.4433 O   0  0  0  0  0  0  0  0  0  0  0  0
  -24.3591  -11.6565   31.8035 O   0  0  0  0  0  0  0  0  0  0  0  0
  -26.2878   -9.2165   33.9298 O   0  0  0  0  0  0  0  0  0  0  0  0
  -30.4754  -10.6491   32.2174 O   0  0  0  0  0  0  0  0  0  0  0  0
  -31.9939  -14.3007   20.9922 O   0  0  0  0  0  0  0  0  0  0  0  0
  -21.8047   -6.9811   21.7781 O   0  0  0  0  0  0  0  0  0  0  0  0
  -27.7807  -12.3905   26.2126 O   0  0  0  0  0  0  0  0  0  1  0  0
  -19.0774   -6.6867   26.5614 F   0  0  0  0  0  0  0  0  0  0  0  0
  -22.4075   -5.0251   23.6365 F   0  0  0  0  0  0  0  0  0  0  0  0
  1  2  1  0  0  0  0
  1  5  2  0  0  0  0
  2  6  2  0  0  0  0
  3  8  2  0  0  0  0
  3 17  1  0  0  0  0
  4  9  1  0  0  0  0
  4 17  2  0  0  0  0
  5 19  1  0  0  0  0
  6 21  1  0  0  0  0
  7 10  2  0  0  0  0
  7 20  1  0  0  0  0
  8 24  1  0  0  0  0
  9 24  2  0  0  0  0
 10 25  1  0  0  0  0
 11 12  2  0  0  0  0
 11 26  1  0  0  0  0
 12 27  1  0  0  0  0
 13 22  1  0  0  0  0
 13 25  2  0  0  0  0
 14 27  2  0  0  0  0
 14 28  1  0  0  0  0
 15 23  1  0  0  0  0
 15 61  2  0  0  0  0
 16 23  2  0  0  0  0
 16 62  1  0  0  0  0
 17 29  1  0  0  0  0
 18 29  1  0  0  0  0
 18 30  2  0  0  0  0
 18 32  1  0  0  0  0
 19 21  2  0  0  0  0
 19 37  1  0  0  0  0
 20 22  2  0  0  0  0
 20 38  1  0  0  0  0
 21 46  1  0  0  0  0
 22 39  1  0  0  0  0
 23 55  1  0  0  0  0
 24 79  1  0  0  0  0
 25 80  1  0  0  0  0
 26 28  2  0  0  0  0
 26 79  1  0  0  0  0
 27 81  1  0  0  0  0
 28 82  1  0  0  0  0
 29 63  2  0  0  0  0
 30 64  1  0  0  0  0
 30 67  1  0  0  0  0
 31 57  1  0  0  0  0
 31 61  1  0  0  0  0
 31 62  2  0  0  0  0
 32 68  1  0  0  0  0
 32 74  2  0  0  0  0
 33 47  1  0  0  0  0
 33 69  1  0  0  0  0
 33 75  2  0  0  0  0
 34 58  1  0  0  0  0
 34 65  1  0  0  0  0
 34 76  2  0  0  0  0
 35 59  1  0  0  0  0
 35 70  1  0  0  0  0
 35 77  2  0  0  0  0
 36 66  1  0  0  0  0
 36 71  1  0  0  0  0
 36 78  2  0  0  0  0
 37 40  1  0  0  0  0
 38 47  1  0  0  0  0
 39 65  1  0  0  0  0
 40 42  1  0  0  0  0
 41 43  1  0  0  0  0
 41 44  1  0  0  0  0
 42 46  1  0  0  0  0
 43 48  1  0  0  0  0
 44 66  1  0  0  0  0
 45 48  1  0  0  0  0
 45 66  1  0  0  0  0
 46 69  1  0  0  0  0
 47 65  1  0  0  0  0
 48 64  1  0  0  0  0
 49 59  1  0  0  0  0
 50 60  1  0  0  0  0
 51 60  1  0  0  0  0
 52 60  1  0  0  0  0
 53 71  1  0  0  0  0
 54 73  1  0  0  0  0
 55 80  1  0  0  0  0
 56 57  1  0  0  0  0
 56 72  1  0  0  0  0
 57 71  1  0  0  0  0
 58 60  1  0  0  0  0
 58 70  1  0  0  0  0
 59 73  1  0  0  0  0
 63 64  1  0  0  0  0
M  CHG  2  72   1  73   1
M  ISO  4  36 100  55 101  71 100  80 101
M  END
> <Batch ID>
0062

> <Smiles>
CNC(C)C(=O)NC(C(=O)N1Cc2cc([101O:1][101CH2:1]c3cnc(C(CN)[100N:0](C)[100C:0](=O)N4CCCC(n5nc(-c6ccc(Oc7ccc(F)cc7F)cc6)c(C(N)=O)c5N)C4)nc3)ccc2CC1C(=O)NC1CCCc2ccccc21)C(C)(C)C

> <Shape>
0.174

> <Color>
0.169

> <Negative vol penalty>
0.000

$$$$

  -OEChem-04052318003D

 87 95  0     1  0  0  0  0  0999 V2000
  -29.8667  -35.2743   18.9271 C   0  0  0  0  0  0  0  0  0  0  0  0
  -29.8576  -33.9322   19.2930 C   0  0  0  0  0  0  0  0  0  0  0  0
  -23.9926  -15.8134   23.3371 C   0  0  0  0  0  0  0  0  0  0  0  0
  -23.0860  -16.4307   21.1845 C   0  0  0  0  0  0  0  0  0  0  0  0
  -28.9533  -36.1582   19.5003 C   0  0  0  0  0  0  0  0  0  0  0  0
  -28.9358  -33.4732   20.2333 C   0  0  0  0  0  0  0  0  0  0  0  0
  -26.7509  -29.1200   18.8476 C   0  0  0  0  0  0  0  0  0  0  0  0
  -23.2465  -16.8251   23.9415 C   0  0  0  0  0  0  0  0  0  0  0  0
  -22.3397  -17.4424   21.7889 C   0  0  0  0  0  0  0  0  0  0  0  0
  -27.4939  -27.9525   19.0169 C   0  0  0  0  0  0  0  0  0  0  0  0
  -22.8715  -20.5680   22.9631 C   0  0  0  0  0  0  0  0  0  0  0  0
  -22.8596  -21.8200   22.3483 C   0  0  0  0  0  0  0  0  0  0  0  0
  -26.2835  -27.4841   21.0503 C   0  0  0  0  0  0  0  0  0  0  0  0
  -20.4609  -21.6746   22.0989 C   0  0  0  0  0  0  0  0  0  0  0  0
  -28.7404  -17.6093   17.4819 C   0  0  0  0  0  0  0  0  0  0  0  0
  -26.7297  -16.9152   16.5166 C   0  0  0  0  0  0  0  0  0  0  0  0
  -23.9124  -15.6162   21.9586 C   0  0  0  0  0  0  0  0  0  0  0  0
  -24.2892  -13.2378   21.1168 C   0  0  0  0  0  0  0  0  0  0  0  0
  -28.0135  -35.7079   20.4409 C   0  0  0  0  0  0  0  0  0  0  0  0
  -25.7745  -29.4845   19.7858 C   0  0  0  0  0  0  0  0  0  0  0  0
  -28.0099  -34.3521   20.8207 C   0  0  0  0  0  0  0  0  0  0  0  0
  -25.5277  -28.6554   20.8893 C   0  0  0  0  0  0  0  0  0  0  0  0
  -28.0609  -16.6473   16.7627 C   0  0  0  0  0  0  0  0  0  0  0  0
  -22.4200  -17.6396   23.1674 C   0  0  0  0  0  0  0  0  0  0  0  0
  -27.2623  -27.1358   20.1199 C   0  0  0  0  0  0  0  0  0  0  0  0
  -21.6782  -19.8692   23.1457 C   0  0  0  0  0  0  0  0  0  0  0  0
  -21.6543  -22.3733   21.9162 C   0  0  0  0  0  0  0  0  0  0  0  0
  -20.4728  -20.4226   22.7136 C   0  0  0  0  0  0  0  0  0  0  0  0
  -24.6834  -14.5717   21.3335 C   0  0  0  0  0  0  0  0  0  0  0  0
  -25.3678  -12.6576   20.4952 C   0  0  0  0  0  0  0  0  0  0  0  0
  -26.8707  -18.8939   17.6264 C   0  0  0  0  0  0  0  0  0  0  0  0
  -23.0580  -12.5817   21.4478 C   0  0  0  0  0  0  0  0  0  0  0  0
  -25.3578  -31.9516   21.7463 C   0  0  0  0  0  0  0  0  0  0  0  0
  -22.5065  -30.5147   22.3190 C   0  0  0  0  0  0  0  0  0  0  0  0
  -29.8324  -14.9788   17.2101 C   0  0  0  0  0  0  0  0  0  0  0  0
  -20.6535  -27.6489   22.3129 C   0  0  0  0  0  0  0  0  0  0  0  0
  -27.0771  -36.7100   21.0684 C   0  0  0  0  0  0  0  0  0  0  0  0
  -24.9630  -30.7333   19.5747 C   0  0  0  0  0  0  0  0  0  0  0  0
  -24.4768  -28.9916   21.9145 C   0  0  0  0  0  0  0  0  0  0  0  0
  -25.8872  -36.0699   21.7788 C   0  0  0  0  0  0  0  0  0  0  0  0
  -30.1228  -12.9706   20.1635 C   0  0  0  0  0  0  0  0  0  0  0  0
  -26.3499  -34.9125   22.6580 C   0  0  0  0  0  0  0  0  0  0  0  0
  -28.7332  -13.0555   20.7935 C   0  0  0  0  0  0  0  0  0  0  0  0
  -30.5088  -14.2805   19.4837 C   0  0  0  0  0  0  0  0  0  0  0  0
  -28.1296  -14.8375   19.0948 C   0  0  0  0  0  0  0  0  0  0  0  0
  -27.0091  -33.8114   21.8187 C   0  0  1  0  0  0  0  0  0  0  0  0
  -24.3496  -31.2722   20.8634 C   0  0  1  0  0  0  0  0  0  0  0  0
  -27.6881  -13.5248   19.7658 C   0  0  2  0  0  0  0  0  0  0  0  0
  -18.3656  -26.7813   22.8700 C   0  0  0  0  0  0  0  0  0  0  0  0
  -29.3443  -15.6024   14.8777 C   0  0  0  0  0  0  0  0  0  0  0  0
  -27.8158  -14.1355   16.1991 C   0  0  0  0  0  0  0  0  0  0  0  0
  -23.1948  -30.6145   25.2899 C   0  0  0  0  0  0  0  0  0  0  0  0
  -21.3863  -28.9310   25.6941 C   0  0  0  0  0  0  0  0  0  0  0  0
  -20.8165  -31.1689   24.7509 C   0  0  0  0  0  0  0  0  0  0  0  0
  -20.1682  -26.8006   19.5193 C   0  0  0  0  0  0  0  0  0  0  0  0
  -29.2385  -20.7950   21.0732 C   0  0  0  0  0  0  0  0  0  0  0  0
  -26.2008  -20.1538   18.1139 C   0  0  0  0  0  0  0  0  0  0  0  0
  -25.7953  -20.1092   19.5931 C   0  0  0  0  0  0  0  0  0  0  0  0
  -27.9271  -23.6036   20.4481 C   0  0  0  0  0  0  0  0  0  0  0  0
  -26.9460  -19.9556   20.5830 C   0  0  0  0  0  0  0  0  0  0  0  0
  -27.3078  -22.3679   21.0836 C   0  0  0  0  0  0  0  0  0  0  0  0
  -27.3480  -24.9146   20.9654 C   0  0  0  0  0  0  0  0  0  1  0  0
  -22.0091  -29.4784   23.2976 C   0  0  1  0  0  0  0  0  0  0  0  0
  -19.2632  -27.3495   21.7818 C   0  0  2  0  0  0  0  0  0  0  0  0
  -28.7180  -15.4055   16.2880 C   0  0  0  0  0  0  0  0  0  0  0  0
  -21.8729  -30.0426   24.7400 C   0  0  0  0  0  0  0  0  0  0  0  0
  -28.1744  -18.7487   17.9309 N   0  0  0  0  0  0  0  0  0  0  0  0
  -26.1000  -18.0325   16.9352 N   0  0  0  0  0  0  0  0  0  0  0  0
  -25.9163  -14.8242   20.8861 N   0  0  0  0  0  0  0  0  0  0  0  0
  -26.3061  -13.6410   20.3821 N   0  0  0  0  0  0  0  0  0  0  0  0
  -23.7140  -30.2263   21.6673 N   0  0  0  0  0  0  0  0  0  0  0  0
  -29.4803  -14.7038   18.5316 N   0  0  0  0  0  0  0  0  0  0  0  0
  -25.5958  -11.4074   20.0399 N   0  0  0  0  0  0  0  0  0  0  0  0
  -22.0549  -13.3253   22.0843 N   0  0  0  0  0  0  0  0  0  0  0  0
  -26.0030  -33.0168   21.1474 N   0  0  0  0  0  0  0  0  0  0  0  0
  -20.7663  -28.9548   22.7410 N   0  0  0  0  0  0  0  0  0  0  0  0
  -19.3357  -26.3612   20.6687 N   0  3  0  0  0  0  0  0  0  0  0  0
  -27.8847  -21.1351   20.4979 N   0  3  1  0  0  0  0  0  0  0  0  0
  -22.8597  -11.3678   21.2015 O   0  0  0  0  0  0  0  0  0  0  0  0
  -25.5361  -31.5408   22.8870 O   0  0  0  0  0  0  0  0  0  0  0  0
  -21.8445  -31.5390   22.1342 O   0  0  0  0  0  0  0  0  0  0  0  0
  -30.9802  -14.8903   16.7665 O   0  0  0  0  0  0  0  0  0  0  0  0
  -21.5486  -26.8075   22.3481 O   0  0  0  0  0  0  0  0  0  0  0  0
  -21.6916  -18.6267   23.7569 O   0  0  0  0  0  0  0  0  0  0  0  0
  -27.9866  -25.9961   20.2878 O   0  0  0  0  0  0  0  0  0  1  0  0
  -21.6427  -23.5763   21.3272 F   0  0  0  0  0  0  0  0  0  0  0  0
  -19.3230  -19.7566   22.8874 F   0  0  0  0  0  0  0  0  0  0  0  0
  1  2  1  0  0  0  0
  1  5  2  0  0  0  0
  2  6  2  0  0  0  0
  3  8  2  0  0  0  0
  3 17  1  0  0  0  0
  4  9  1  0  0  0  0
  4 17  2  0  0  0  0
  5 19  1  0  0  0  0
  6 21  1  0  0  0  0
  7 10  2  0  0  0  0
  7 20  1  0  0  0  0
  8 24  1  0  0  0  0
  9 24  2  0  0  0  0
 10 25  1  0  0  0  0
 11 12  2  0  0  0  0
 11 26  1  0  0  0  0
 12 27  1  0  0  0  0
 13 22  1  0  0  0  0
 13 25  2  0  0  0  0
 14 27  2  0  0  0  0
 14 28  1  0  0  0  0
 15 23  1  0  0  0  0
 15 67  2  0  0  0  0
 16 23  2  0  0  0  0
 16 68  1  0  0  0  0
 17 29  1  0  0  0  0
 18 29  1  0  0  0  0
 18 30  2  0  0  0  0
 18 32  1  0  0  0  0
 19 21  2  0  0  0  0
 19 37  1  0  0  0  0
 20 22  2  0  0  0  0
 20 38  1  0  0  0  0
 21 46  1  0  0  0  0
 22 39  1  0  0  0  0
 23 65  1  0  0  0  0
 24 84  1  0  0  0  0
 25 85  1  0  0  0  0
 26 28  2  0  0  0  0
 26 84  1  0  0  0  0
 27 86  1  0  0  0  0
 28 87  1  0  0  0  0
 29 69  2  0  0  0  0
 30 70  1  0  0  0  0
 30 73  1  0  0  0  0
 31 57  1  0  0  0  0
 31 67  1  0  0  0  0
 31 68  2  0  0  0  0
 32 74  1  0  0  0  0
 32 79  2  0  0  0  0
 33 47  1  0  0  0  0
 33 75  1  0  0  0  0
 33 80  2  0  0  0  0
 34 63  1  0  0  0  0
 34 71  1  0  0  0  0
 34 81  2  0  0  0  0
 35 65  1  0  0  0  0
 35 72  1  0  0  0  0
 35 82  2  0  0  0  0
 36 64  1  0  0  0  0
 36 76  1  0  0  0  0
 36 83  2  0  0  0  0
 37 40  1  0  0  0  0
 38 47  1  0  0  0  0
 39 71  1  0  0  0  0
 40 42  1  0  0  0  0
 41 43  1  0  0  0  0
 41 44  1  0  0  0  0
 42 46  1  0  0  0  0
 43 48  1  0  0  0  0
 44 72  1  0  0  0  0
 45 48  1  0  0  0  0
 45 72  1  0  0  0  0
 46 75  1  0  0  0  0
 47 71  1  0  0  0  0
 48 70  1  0  0  0  0
 49 64  1  0  0  0  0
 50 65  1  0  0  0  0
 51 65  1  0  0  0  0
 52 66  1  0  0  0  0
 53 66  1  0  0  0  0
 54 66  1  0  0  0  0
 55 77  1  0  0  0  0
 56 78  1  0  0  0  0
 57 58  1  0  0  0  0
 58 60  1  0  0  0  0
 59 61  1  0  0  0  0
 59 62  1  0  0  0  0
 60 78  1  0  0  0  0
 61 78  1  0  0  0  0
 62 85  1  0  0  0  0
 63 66  1  0  0  0  0
 63 76  1  0  0  0  0
 64 77  1  0  0  0  0
 69 70  1  0  0  0  0
M  CHG  2  77   1  78   1
M  ISO  4  35 100  62 101  65 100  85 101
M  END
> <Batch ID>
0062

> <Smiles>
CNC(C)C(=O)NC(C(=O)N1Cc2cc([101O:1][101CH2:1]CCN(C)CCCc3ncc([100C:0](C)(C)[100C:0](=O)N4CCCC(n5nc(-c6ccc(Oc7ccc(F)cc7F)cc6)c(C(N)=O)c5N)C4)cn3)ccc2CC1C(=O)NC1CCCc2ccccc21)C(C)(C)C

> <Shape>
0.238

> <Color>
0.096

> <Negative vol penalty>
0.000

$$$$

  -OEChem-04052318003D

 88 96  0     1  0  0  0  0  0999 V2000
  -34.3469  -26.4946   10.8801 C   0  0  0  0  0  0  0  0  0  0  0  0
  -34.6912  -25.3744   11.6298 C   0  0  0  0  0  0  0  0  0  0  0  0
  -23.1461   -9.8770   19.9184 C   0  0  0  0  0  0  0  0  0  0  0  0
  -23.8822   -9.8898   22.2195 C   0  0  0  0  0  0  0  0  0  0  0  0
  -34.3986  -27.7620   11.4588 C   0  0  0  0  0  0  0  0  0  0  0  0
  -35.0884  -25.5211   12.9584 C   0  0  0  0  0  0  0  0  0  0  0  0
  -32.9172  -22.1231   16.0217 C   0  0  0  0  0  0  0  0  0  0  0  0
  -22.4260   -8.7061   20.1553 C   0  0  0  0  0  0  0  0  0  0  0  0
  -23.1620   -8.7190   22.4564 C   0  0  0  0  0  0  0  0  0  0  0  0
  -33.4429  -20.8319   16.0147 C   0  0  0  0  0  0  0  0  0  0  0  0
  -21.2261   -5.9311   23.7595 C   0  0  0  0  0  0  0  0  0  0  0  0
  -20.4591   -5.8646   24.9226 C   0  0  0  0  0  0  0  0  0  0  0  0
  -34.6641  -21.3246   18.0358 C   0  0  0  0  0  0  0  0  0  0  0  0
  -19.1785   -7.7769   24.1874 C   0  0  0  0  0  0  0  0  0  0  0  0
  -23.8742  -10.4689   20.9506 C   0  0  0  0  0  0  0  0  0  0  0  0
  -24.1600  -13.0017   20.8460 C   0  0  0  0  0  0  0  0  0  0  0  0
  -34.7873  -27.9234   12.7980 C   0  0  0  0  0  0  0  0  0  0  0  0
  -33.2701  -23.0298   17.0316 C   0  0  0  0  0  0  0  0  0  0  0  0
  -35.1466  -26.7920   13.5551 C   0  0  0  0  0  0  0  0  0  0  0  0
  -34.1395  -22.6259   18.0549 C   0  0  0  0  0  0  0  0  0  0  0  0
  -22.4340   -8.1271   21.4242 C   0  0  0  0  0  0  0  0  0  0  0  0
  -34.3188  -20.4333   17.0202 C   0  0  0  0  0  0  0  0  0  0  0  0
  -20.9694   -6.9205   22.8104 C   0  0  0  0  0  0  0  0  0  0  0  0
  -19.4352   -6.7875   25.1366 C   0  0  0  0  0  0  0  0  0  0  0  0
  -19.9455   -7.8434   23.0243 C   0  0  0  0  0  0  0  0  0  0  0  0
  -24.6187  -11.6781   20.7064 C   0  0  0  0  0  0  0  0  0  0  0  0
  -29.3382  -17.3049   19.7833 C   0  0  0  0  0  0  0  0  0  0  0  0
  -29.3235  -18.7030   19.6808 C   0  0  0  0  0  0  0  0  0  0  0  0
  -25.2385  -13.7774   20.4975 C   0  0  0  0  0  0  0  0  0  0  0  0
  -22.8739  -13.4865   21.2542 C   0  0  0  0  0  0  0  0  0  0  0  0
  -34.7462  -25.8439   17.1039 C   0  0  0  0  0  0  0  0  0  0  0  0
  -33.9215  -25.7574   20.2399 C   0  0  0  0  0  0  0  0  0  0  0  0
  -33.0915  -23.8805   22.9666 C   0  0  0  0  0  0  0  0  0  0  0  0
  -30.8203  -14.6137   21.1767 C   0  0  0  0  0  0  0  0  0  0  0  0
  -34.8734  -29.3180   13.3659 C   0  0  0  0  0  0  0  0  0  0  0  0
  -32.6733  -24.4105   17.0398 C   0  0  0  0  0  0  0  0  0  0  0  0
  -34.5340  -23.5547   19.1729 C   0  0  0  0  0  0  0  0  0  0  0  0
  -34.9445  -29.3515   14.8904 C   0  0  0  0  0  0  0  0  0  0  0  0
  -29.6358  -12.5544   18.3381 C   0  0  0  0  0  0  0  0  0  0  0  0
  -35.9609  -28.3346   15.3999 C   0  0  0  0  0  0  0  0  0  0  0  0
  -28.2104  -12.1982   18.7569 C   0  0  0  0  0  0  0  0  0  0  0  0
  -30.5410  -12.7835   19.5446 C   0  0  0  0  0  0  0  0  0  0  0  0
  -28.5958  -13.4389   20.9232 C   0  0  0  0  0  0  0  0  0  0  0  0
  -35.5587  -26.9080   15.0066 C   0  0  1  0  0  0  0  0  0  0  0  0
  -33.5036  -25.4156   17.8320 C   0  0  1  0  0  0  0  0  0  0  0  0
  -27.6464  -13.2473   19.7309 C   0  0  2  0  0  0  0  0  0  0  0  0
  -32.3430  -23.3810   25.3092 C   0  0  0  0  0  0  0  0  0  0  0  0
  -36.8593  -26.2548   20.8973 C   0  0  0  0  0  0  0  0  0  0  0  0
  -36.3876  -25.5154   23.2423 C   0  0  0  0  0  0  0  0  0  0  0  0
  -35.2423  -27.5292   22.3171 C   0  0  0  0  0  0  0  0  0  0  0  0
  -34.3777  -18.0681   14.9533 C   0  0  0  0  0  0  0  0  0  0  0  0
  -34.3950  -16.8241   17.1250 C   0  0  0  0  0  0  0  0  0  0  0  0
  -31.1784  -16.8141   22.2301 C   0  0  0  0  0  0  0  0  0  0  0  0
  -30.2377  -23.8991   22.1827 C   0  0  0  0  0  0  0  0  0  0  0  0
  -29.0969  -16.4532   20.9562 C   0  0  0  0  0  0  0  0  0  0  0  0
  -31.5663  -17.4266   16.0977 C   0  0  0  0  0  0  0  0  0  0  0  0
  -32.5382  -18.4649   16.6798 C   0  0  0  0  0  0  0  0  0  0  0  0
  -30.0959  -17.7658   16.3751 C   0  0  0  0  0  0  0  0  0  0  0  0
  -34.5659  -25.2339   21.5007 C   0  0  1  0  0  0  0  0  0  0  0  0
  -31.9688  -24.0167   23.9794 C   0  0  2  0  0  0  0  0  0  0  0  0
  -29.0620  -19.7116   20.7174 C   0  0  0  0  0  0  0  0  0  0  0  0
  -35.7581  -26.1162   21.9674 C   0  0  0  0  0  0  0  0  0  0  0  0
  -34.0293  -18.1452   16.4403 C   0  0  0  0  0  0  0  0  0  1  0  0
  -25.8896  -11.6129   20.3007 N   0  0  0  0  0  0  0  0  0  0  0  0
  -29.6207  -16.7663   18.5938 N   0  0  0  0  0  0  0  0  0  0  0  0
  -29.5977  -19.0679   18.4253 N   0  0  0  0  0  0  0  0  0  0  0  0
  -26.2386  -12.9053   20.1824 N   0  0  0  0  0  0  0  0  0  0  0  0
  -29.7612  -17.8698   17.8417 N   0  0  0  0  0  0  0  0  0  0  0  0
  -33.9289  -24.8963   19.1334 N   0  0  0  0  0  0  0  0  0  0  0  0
  -29.9608  -13.7525   20.4750 N   0  0  0  0  0  0  0  0  0  0  0  0
  -25.4194  -15.1137   20.4330 N   0  0  0  0  0  0  0  0  0  0  0  0
  -21.8794  -12.5531   21.5767 N   0  0  0  0  0  0  0  0  0  0  0  0
  -34.5054  -26.4229   15.8725 N   0  0  0  0  0  0  0  0  0  0  0  0
  -33.4955  -25.1073   22.4839 N   0  0  0  0  0  0  0  0  0  0  0  0
  -30.3211  -15.8813   21.5125 N   0  0  0  0  0  0  0  0  0  0  0  0
  -30.7323  -23.3560   23.4740 N   0  3  0  0  0  0  0  0  0  0  0  0
  -22.6093  -14.7112   21.3149 O   0  0  0  0  0  0  0  0  0  0  0  0
  -35.8423  -25.6639   17.6216 O   0  0  0  0  0  0  0  0  0  0  0  0
  -33.4234  -26.8859   20.2389 O   0  0  0  0  0  0  0  0  0  0  0  0
  -33.5653  -22.7947   22.6395 O   0  0  0  0  0  0  0  0  0  0  0  0
  -31.9716  -14.2728   21.4771 O   0  0  0  0  0  0  0  0  0  0  0  0
  -21.7312   -6.9847   21.6558 O   0  0  0  0  0  0  0  0  0  0  0  0
  -34.8340  -19.1738   17.0153 O   0  0  0  0  0  0  0  0  0  1  0  0
  -18.6977   -6.7226   26.2529 F   0  0  0  0  0  0  0  0  0  0  0  0
  -19.6934   -8.7954   22.1155 F   0  0  0  0  0  0  0  0  0  0  0  0
  -28.7949  -19.1925   21.9621 F   0  0  0  0  0  0  0  0  0  0  0  0
  -30.1000  -20.5865   20.9338 F   0  0  0  0  0  0  0  0  0  0  0  0
  -27.9838  -20.5153   20.4386 F   0  0  0  0  0  0  0  0  0  0  0  0
  1  2  1  0  0  0  0
  1  5  2  0  0  0  0
  2  6  2  0  0  0  0
  3  8  2  0  0  0  0
  3 15  1  0  0  0  0
  4  9  1  0  0  0  0
  4 15  2  0  0  0  0
  5 17  1  0  0  0  0
  6 19  1  0  0  0  0
  7 10  2  0  0  0  0
  7 18  1  0  0  0  0
  8 21  1  0  0  0  0
  9 21  2  0  0  0  0
 10 22  1  0  0  0  0
 11 12  2  0  0  0  0
 11 23  1  0  0  0  0
 12 24  1  0  0  0  0
 13 20  1  0  0  0  0
 13 22  2  0  0  0  0
 14 24  2  0  0  0  0
 14 25  1  0  0  0  0
 15 26  1  0  0  0  0
 16 26  1  0  0  0  0
 16 29  2  0  0  0  0
 16 30  1  0  0  0  0
 17 19  2  0  0  0  0
 17 35  1  0  0  0  0
 18 20  2  0  0  0  0
 18 36  1  0  0  0  0
 19 44  1  0  0  0  0
 20 37  1  0  0  0  0
 21 82  1  0  0  0  0
 22 83  1  0  0  0  0
 23 25  2  0  0  0  0
 23 82  1  0  0  0  0
 24 84  1  0  0  0  0
 25 85  1  0  0  0  0
 26 64  2  0  0  0  0
 27 28  1  0  0  0  0
 27 55  1  0  0  0  0
 27 65  2  0  0  0  0
 28 61  1  0  0  0  0
 28 66  2  0  0  0  0
 29 67  1  0  0  0  0
 29 71  1  0  0  0  0
 30 72  1  0  0  0  0
 30 77  2  0  0  0  0
 31 45  1  0  0  0  0
 31 73  1  0  0  0  0
 31 78  2  0  0  0  0
 32 59  1  0  0  0  0
 32 69  1  0  0  0  0
 32 79  2  0  0  0  0
 33 60  1  0  0  0  0
 33 74  1  0  0  0  0
 33 80  2  0  0  0  0
 34 70  1  0  0  0  0
 34 75  1  0  0  0  0
 34 81  2  0  0  0  0
 35 38  1  0  0  0  0
 36 45  1  0  0  0  0
 37 69  1  0  0  0  0
 38 40  1  0  0  0  0
 39 41  1  0  0  0  0
 39 42  1  0  0  0  0
 40 44  1  0  0  0  0
 41 46  1  0  0  0  0
 42 70  1  0  0  0  0
 43 46  1  0  0  0  0
 43 70  1  0  0  0  0
 44 73  1  0  0  0  0
 45 69  1  0  0  0  0
 46 67  1  0  0  0  0
 47 60  1  0  0  0  0
 48 62  1  0  0  0  0
 49 62  1  0  0  0  0
 50 62  1  0  0  0  0
 51 63  1  0  0  0  0
 52 63  1  0  0  0  0
 53 75  1  0  0  0  0
 54 76  1  0  0  0  0
 55 75  1  0  0  0  0
 56 57  1  0  0  0  0
 56 58  1  0  0  0  0
 57 63  1  0  0  0  0
 58 68  1  0  0  0  0
 59 62  1  0  0  0  0
 59 74  1  0  0  0  0
 60 76  1  0  0  0  0
 61 86  1  0  0  0  0
 61 87  1  0  0  0  0
 61 88  1  0  0  0  0
 63 83  1  0  0  0  0
 64 67  1  0  0  0  0
 65 68  1  0  0  0  0
 66 68  1  0  0  0  0
M  CHG  1  76   1
M  ISO  4  34 100  63 101  75 100  83 101
M  END
> <Batch ID>
0062

> <Smiles>
CNC(C)C(=O)NC(C(=O)N1Cc2cc([101O:1][101C:1](C)(C)CCCn3nc(C[100N:0](C)[100C:0](=O)N4CCCC(n5nc(-c6ccc(Oc7ccc(F)cc7F)cc6)c(C(N)=O)c5N)C4)c(C(F)(F)F)n3)ccc2CC1C(=O)NC1CCCc2ccccc21)C(C)(C)C

> <Shape>
0.204

> <Color>
0.174

> <Negative vol penalty>
0.000

$$$$

  -OEChem-04052318003D

 91 99  0     1  0  0  0  0  0999 V2000
  -27.8104  -29.6716   18.8690 C   0  0  0  0  0  0  0  0  0  0  0  0
  -27.5942  -28.3178   19.1055 C   0  0  0  0  0  0  0  0  0  0  0  0
  -30.7491  -21.8562   21.4501 C   0  0  0  0  0  0  0  0  0  0  0  0
  -28.7024  -21.6841   20.1780 C   0  0  0  0  0  0  0  0  0  0  0  0
  -26.9566  -30.6210   19.4290 C   0  0  0  0  0  0  0  0  0  0  0  0
  -26.5246  -27.9126   19.9031 C   0  0  0  0  0  0  0  0  0  0  0  0
  -23.9811  -24.0143   17.9084 C   0  0  0  0  0  0  0  0  0  0  0  0
  -30.9961  -23.1066   20.8836 C   0  0  0  0  0  0  0  0  0  0  0  0
  -28.9493  -22.9346   19.6115 C   0  0  0  0  0  0  0  0  0  0  0  0
  -24.5500  -22.7484   18.0407 C   0  0  0  0  0  0  0  0  0  0  0  0
  -29.9344  -26.2883   21.3105 C   0  0  0  0  0  0  0  0  0  0  0  0
  -30.3494  -27.3141   22.1597 C   0  0  0  0  0  0  0  0  0  0  0  0
  -23.0742  -22.2853   19.8919 C   0  0  0  0  0  0  0  0  0  0  0  0
  -32.3970  -27.5318   20.8959 C   0  0  0  0  0  0  0  0  0  0  0  0
  -26.3770  -14.6482   18.4867 C   0  0  0  0  0  0  0  0  0  0  0  0
  -29.6023  -21.1449   21.0973 C   0  0  0  0  0  0  0  0  0  0  0  0
  -28.6342  -19.5809   22.8649 C   0  0  0  0  0  0  0  0  0  0  0  0
  -25.8702  -30.2267   20.2259 C   0  0  0  0  0  0  0  0  0  0  0  0
  -22.9603  -24.4301   18.7753 C   0  0  0  0  0  0  0  0  0  0  0  0
  -25.6562  -28.8577   20.4754 C   0  0  0  0  0  0  0  0  0  0  0  0
  -22.4923  -23.5561   19.7668 C   0  0  0  0  0  0  0  0  0  0  0  0
  -30.0962  -23.6459   19.9643 C   0  0  0  0  0  0  0  0  0  0  0  0
  -24.0985  -21.8847   19.0344 C   0  0  0  0  0  0  0  0  0  0  0  0
  -30.7506  -25.8842   20.2541 C   0  0  0  0  0  0  0  0  0  0  0  0
  -31.5807  -27.9359   21.9523 C   0  0  0  0  0  0  0  0  0  0  0  0
  -31.9819  -26.5059   20.0467 C   0  0  0  0  0  0  0  0  0  0  0  0
  -29.3469  -19.8528   21.6817 C   0  0  0  0  0  0  0  0  0  0  0  0
  -26.2632  -14.4653   19.8359 C   0  0  0  0  0  0  0  0  0  0  0  0
  -28.6746  -18.2131   22.9833 C   0  0  0  0  0  0  0  0  0  0  0  0
  -25.3406  -16.4131   19.3302 C   0  0  0  0  0  0  0  0  0  0  0  0
  -27.9929  -20.4839   23.7754 C   0  0  0  0  0  0  0  0  0  0  0  0
  -22.6404  -26.7667   20.9064 C   0  0  0  0  0  0  0  0  0  0  0  0
  -19.5870  -25.6823   21.0579 C   0  0  0  0  0  0  0  0  0  0  0  0
  -28.1860  -13.1547   20.6460 C   0  0  0  0  0  0  0  0  0  0  0  0
  -17.4039  -23.0992   20.6014 C   0  0  0  0  0  0  0  0  0  0  0  0
  -25.0024  -31.2917   20.8484 C   0  0  0  0  0  0  0  0  0  0  0  0
  -22.3387  -25.7888   18.6023 C   0  0  0  0  0  0  0  0  0  0  0  0
  -21.3849  -23.9468   20.7100 C   0  0  0  0  0  0  0  0  0  0  0  0
  -23.6712  -30.7617   21.3749 C   0  0  0  0  0  0  0  0  0  0  0  0
  -31.3845  -14.7617   20.4828 C   0  0  0  0  0  0  0  0  0  0  0  0
  -23.8866  -29.4865   22.1838 C   0  0  0  0  0  0  0  0  0  0  0  0
  -31.0760  -16.2132   20.8478 C   0  0  0  0  0  0  0  0  0  0  0  0
  -30.2454  -14.1317   19.6876 C   0  0  0  0  0  0  0  0  0  0  0  0
  -28.6046  -15.6625   20.7299 C   0  0  0  0  0  0  0  0  0  0  0  0
  -24.4922  -28.3776   21.3148 C   0  0  1  0  0  0  0  0  0  0  0  0
  -21.6590  -26.3005   19.8686 C   0  0  1  0  0  0  0  0  0  0  0  0
  -29.7168  -16.3271   21.5604 C   0  0  2  0  0  0  0  0  0  0  0  0
  -14.9786  -22.5031   20.8463 C   0  0  0  0  0  0  0  0  0  0  0  0
  -19.9510  -25.4523   24.0786 C   0  0  0  0  0  0  0  0  0  0  0  0
  -17.9137  -23.9986   24.1433 C   0  0  0  0  0  0  0  0  0  0  0  0
  -17.7340  -26.3605   23.3611 C   0  0  0  0  0  0  0  0  0  0  0  0
  -26.3429  -15.5023   15.8408 C   0  0  0  0  0  0  0  0  0  0  0  0
  -26.4209  -17.8127   16.8585 C   0  0  0  0  0  0  0  0  0  0  0  0
  -24.2442  -16.7028   16.4122 C   0  0  0  0  0  0  0  0  0  0  0  0
  -17.1274  -22.5484   17.7068 C   0  0  0  0  0  0  0  0  0  0  0  0
  -24.6375  -17.7396   19.4701 C   0  0  0  0  0  0  0  0  0  0  0  0
  -25.3484  -18.7176   20.4081 C   0  0  0  0  0  0  0  0  0  0  0  0
  -24.6773  -20.0845   20.4766 C   0  0  0  0  0  0  0  0  0  1  0  0
  -18.8598  -24.6471   21.8816 C   0  0  1  0  0  0  0  0  0  0  0  0
  -16.0542  -23.0313   19.9099 C   0  0  2  0  0  0  0  0  0  0  0  0
  -26.6940  -13.3661   20.7035 C   0  0  0  0  0  0  0  0  0  0  0  0
  -18.6368  -25.1077   23.3498 C   0  0  0  0  0  0  0  0  0  0  0  0
  -25.6985  -16.4471   16.8794 C   0  0  0  0  0  0  0  0  0  0  0  0
  -26.4303  -13.5292   22.2428 C   0  0  0  0  0  0  0  0  0  0  0  0
  -26.0498  -12.0049   20.2913 C   0  0  0  0  0  0  0  0  0  0  0  0
  -29.8066  -18.7467   21.0908 N   0  0  0  0  0  0  0  0  0  0  0  0
  -25.7974  -15.8610   18.2015 N   0  0  0  0  0  0  0  0  0  0  0  0
  -29.3818  -17.7664   21.9061 N   0  0  0  0  0  0  0  0  0  0  0  0
  -25.6184  -15.5726   20.3321 N   0  3  0  0  0  0  0  0  0  0  0  0
  -20.8136  -25.2881   20.5048 N   0  0  0  0  0  0  0  0  0  0  0  0
  -28.9681  -14.2805   20.3873 N   0  0  0  0  0  0  0  0  0  0  0  0
  -28.1739  -17.3610   23.9029 N   0  0  0  0  0  0  0  0  0  0  0  0
  -28.0473  -21.8577   23.5033 N   0  0  0  0  0  0  0  0  0  0  0  0
  -23.4751  -27.7805   20.4762 N   0  0  0  0  0  0  0  0  0  0  0  0
  -17.6305  -24.3400   21.1585 N   0  0  0  0  0  0  0  0  0  0  0  0
  -16.1253  -22.1340   18.7222 N   0  3  0  0  0  0  0  0  0  0  0  0
  -27.4035  -20.0855   24.8085 O   0  0  0  0  0  0  0  0  0  0  0  0
  -22.6395  -26.2462   22.0158 O   0  0  0  0  0  0  0  0  0  0  0  0
  -19.0819  -26.7972   20.9048 O   0  0  0  0  0  0  0  0  0  0  0  0
  -28.6410  -12.0225   20.8287 O   0  0  0  0  0  0  0  0  0  0  0  0
  -18.1780  -22.1457   20.6464 O   0  0  0  0  0  0  0  0  0  0  0  0
  -30.3368  -24.8661   19.4115 O   0  0  0  0  0  0  0  0  0  0  0  0
  -24.6525  -20.6487   19.1661 O   0  0  0  0  0  0  0  0  0  1  0  0
  -31.9785  -28.9220   22.7669 F   0  0  0  0  0  0  0  0  0  0  0  0
  -32.7699  -26.1228   19.0328 F   0  0  0  0  0  0  0  0  0  0  0  0
  -25.1189  -13.6729   22.5534 F   0  0  0  0  0  0  0  0  0  0  0  0
  -26.8798  -12.4467   22.9173 F   0  0  0  0  0  0  0  0  0  0  0  0
  -27.0655  -14.6161   22.7356 F   0  0  0  0  0  0  0  0  0  0  0  0
  -26.3509  -11.6177   19.0298 F   0  0  0  0  0  0  0  0  0  0  0  0
  -26.4681  -11.0210   21.1209 F   0  0  0  0  0  0  0  0  0  0  0  0
  -24.7019  -12.0582   20.3784 F   0  0  0  0  0  0  0  0  0  0  0  0
  1  2  1  0  0  0  0
  1  5  2  0  0  0  0
  2  6  2  0  0  0  0
  3  8  2  0  0  0  0
  3 16  1  0  0  0  0
  4  9  1  0  0  0  0
  4 16  2  0  0  0  0
  5 18  1  0  0  0  0
  6 20  1  0  0  0  0
  7 10  2  0  0  0  0
  7 19  1  0  0  0  0
  8 22  1  0  0  0  0
  9 22  2  0  0  0  0
 10 23  1  0  0  0  0
 11 12  2  0  0  0  0
 11 24  1  0  0  0  0
 12 25  1  0  0  0  0
 13 21  1  0  0  0  0
 13 23  2  0  0  0  0
 14 25  2  0  0  0  0
 14 26  1  0  0  0  0
 15 28  2  0  0  0  0
 15 67  1  0  0  0  0
 16 27  1  0  0  0  0
 17 27  1  0  0  0  0
 17 29  2  0  0  0  0
 17 31  1  0  0  0  0
 18 20  2  0  0  0  0
 18 36  1  0  0  0  0
 19 21  2  0  0  0  0
 19 37  1  0  0  0  0
 20 45  1  0  0  0  0
 21 38  1  0  0  0  0
 22 82  1  0  0  0  0
 23 83  1  0  0  0  0
 24 26  2  0  0  0  0
 24 82  1  0  0  0  0
 25 84  1  0  0  0  0
 26 85  1  0  0  0  0
 27 66  2  0  0  0  0
 28 61  1  0  0  0  0
 28 69  1  0  0  0  0
 29 68  1  0  0  0  0
 29 72  1  0  0  0  0
 30 56  1  0  0  0  0
 30 67  1  0  0  0  0
 30 69  2  0  0  0  0
 31 73  1  0  0  0  0
 31 77  2  0  0  0  0
 32 46  1  0  0  0  0
 32 74  1  0  0  0  0
 32 78  2  0  0  0  0
 33 59  1  0  0  0  0
 33 70  1  0  0  0  0
 33 79  2  0  0  0  0
 34 61  1  0  0  0  0
 34 71  1  0  0  0  0
 34 80  2  0  0  0  0
 35 60  1  0  0  0  0
 35 75  1  0  0  0  0
 35 81  2  0  0  0  0
 36 39  1  0  0  0  0
 37 46  1  0  0  0  0
 38 70  1  0  0  0  0
 39 41  1  0  0  0  0
 40 42  1  0  0  0  0
 40 43  1  0  0  0  0
 41 45  1  0  0  0  0
 42 47  1  0  0  0  0
 43 71  1  0  0  0  0
 44 47  1  0  0  0  0
 44 71  1  0  0  0  0
 45 74  1  0  0  0  0
 46 70  1  0  0  0  0
 47 68  1  0  0  0  0
 48 60  1  0  0  0  0
 49 62  1  0  0  0  0
 50 62  1  0  0  0  0
 51 62  1  0  0  0  0
 52 63  1  0  0  0  0
 53 63  1  0  0  0  0
 54 63  1  0  0  0  0
 55 76  1  0  0  0  0
 56 57  1  0  0  0  0
 57 58  1  0  0  0  0
 58 83  1  0  0  0  0
 59 62  1  0  0  0  0
 59 75  1  0  0  0  0
 60 76  1  0  0  0  0
 61 64  1  0  0  0  0
 61 65  1  0  0  0  0
 63 67  1  0  0  0  0
 64 86  1  0  0  0  0
 64 87  1  0  0  0  0
 64 88  1  0  0  0  0
 65 89  1  0  0  0  0
 65 90  1  0  0  0  0
 65 91  1  0  0  0  0
 66 68  1  0  0  0  0
M  CHG  2  69   1  76   1
M  ISO  4  34 100  58 101  61 100  83 101
M  END
> <Batch ID>
0062

> <Smiles>
CNC(C)C(=O)NC(C(=O)N1Cc2cc([101O:1][101CH2:1]CCc3nc([100C:0]([100C:0](=O)N4CCCC(n5nc(-c6ccc(Oc7ccc(F)cc7F)cc6)c(C(N)=O)c5N)C4)(C(F)(F)F)C(F)(F)F)cn3C(C)(C)C)ccc2CC1C(=O)NC1CCCc2ccccc21)C(C)(C)C

> <Shape>
0.222

> <Color>
0.050

> <Negative vol penalty>
0.000

$$$$

  -OEChem-04052318002D

  0  0  0     0  0  0  0  0  0999 V2000
M  END
$$$$

  -OEChem-04052318003D

 87 95  0     1  0  0  0  0  0999 V2000
  -27.0392  -34.6322   24.7091 C   0  0  0  0  0  0  0  0  0  0  0  0
  -27.4136  -33.3739   24.2488 C   0  0  0  0  0  0  0  0  0  0  0  0
  -25.0642  -14.0381   21.5992 C   0  0  0  0  0  0  0  0  0  0  0  0
  -25.1798  -14.4814   19.2270 C   0  0  0  0  0  0  0  0  0  0  0  0
  -25.7315  -34.8557   25.1379 C   0  0  0  0  0  0  0  0  0  0  0  0
  -26.4806  -32.3380   24.2182 C   0  0  0  0  0  0  0  0  0  0  0  0
  -26.6364  -29.7108   19.8917 C   0  0  0  0  0  0  0  0  0  0  0  0
  -24.1923  -12.9763   21.3583 C   0  0  0  0  0  0  0  0  0  0  0  0
  -24.3080  -13.4195   18.9861 C   0  0  0  0  0  0  0  0  0  0  0  0
  -27.6642  -28.7797   19.7488 C   0  0  0  0  0  0  0  0  0  0  0  0
  -24.4038   -9.7677   20.3128 C   0  0  0  0  0  0  0  0  0  0  0  0
  -24.6385   -8.5702   20.9884 C   0  0  0  0  0  0  0  0  0  0  0  0
  -26.1345  -27.0097   20.3372 C   0  0  0  0  0  0  0  0  0  0  0  0
  -22.4567   -8.7219   22.0151 C   0  0  0  0  0  0  0  0  0  0  0  0
  -29.2296  -23.4016   16.2770 C   0  0  0  0  0  0  0  0  0  0  0  0
  -25.5579  -14.7907   20.5335 C   0  0  0  0  0  0  0  0  0  0  0  0
  -27.8637  -15.8379   20.8407 C   0  0  0  0  0  0  0  0  0  0  0  0
  -24.7795  -33.8246   25.1034 C   0  0  0  0  0  0  0  0  0  0  0  0
  -25.3503  -29.2989   20.2696 C   0  0  0  0  0  0  0  0  0  0  0  0
  -25.1593  -32.5476   24.6482 C   0  0  0  0  0  0  0  0  0  0  0  0
  -25.0914  -27.9373   20.4817 C   0  0  0  0  0  0  0  0  0  0  0  0
  -30.0033  -24.0787   17.1976 C   0  0  0  0  0  0  0  0  0  0  0  0
  -23.8143  -12.6670   20.0518 C   0  0  0  0  0  0  0  0  0  0  0  0
  -27.4141  -27.4293   19.9744 C   0  0  0  0  0  0  0  0  0  0  0  0
  -23.1956  -10.4424   20.4884 C   0  0  0  0  0  0  0  0  0  0  0  0
  -23.6650   -8.0473   21.8396 C   0  0  0  0  0  0  0  0  0  0  0  0
  -22.2221   -9.9194   21.3395 C   0  0  0  0  0  0  0  0  0  0  0  0
  -26.4581  -15.8881   20.7817 C   0  0  0  0  0  0  0  0  0  0  0  0
  -29.7372  -23.7985   18.5223 C   0  0  0  0  0  0  0  0  0  0  0  0
  -28.2429  -17.1322   21.1002 C   0  0  0  0  0  0  0  0  0  0  0  0
  -28.1044  -22.3297   17.9360 C   0  0  0  0  0  0  0  0  0  0  0  0
  -28.7476  -14.7211   20.6756 C   0  0  0  0  0  0  0  0  0  0  0  0
  -23.4444  -29.8847   22.7451 C   0  0  0  0  0  0  0  0  0  0  0  0
  -21.3103  -28.1646   21.0106 C   0  0  0  0  0  0  0  0  0  0  0  0
  -25.5254  -22.3924   20.0718 C   0  0  0  0  0  0  0  0  0  0  0  0
  -20.7622  -25.8167   18.5952 C   0  0  0  0  0  0  0  0  0  0  0  0
  -23.3905  -34.1014   25.6217 C   0  0  0  0  0  0  0  0  0  0  0  0
  -24.2460  -30.3126   20.3935 C   0  0  0  0  0  0  0  0  0  0  0  0
  -23.7232  -27.4412   20.8695 C   0  0  0  0  0  0  0  0  0  0  0  0
  -22.3645  -33.0505   25.2054 C   0  0  0  0  0  0  0  0  0  0  0  0
  -26.7181  -21.1378   23.2092 C   0  0  0  0  0  0  0  0  0  0  0  0
  -22.9176  -31.6466   25.4285 C   0  0  0  0  0  0  0  0  0  0  0  0
  -26.8872  -19.6403   22.9561 C   0  0  0  0  0  0  0  0  0  0  0  0
  -25.5236  -21.7017   22.4461 C   0  0  0  0  0  0  0  0  0  0  0  0
  -25.7318  -19.9412   20.7201 C   0  0  0  0  0  0  0  0  0  0  0  0
  -24.1695  -31.4051   24.5765 C   0  0  1  0  0  0  0  0  0  0  0  0
  -23.0998  -29.8417   21.2833 C   0  0  1  0  0  0  0  0  0  0  0  0
  -26.9459  -19.3377   21.4483 C   0  0  2  0  0  0  0  0  0  0  0  0
  -31.0474  -25.0418   16.7643 C   0  0  0  0  0  0  0  0  0  0  0  0
  -26.9780  -20.1380   17.3867 C   0  0  0  0  0  0  0  0  0  0  0  0
  -18.9126  -24.5913   17.4227 C   0  0  0  0  0  0  0  0  0  0  0  0
  -24.4589  -21.0147   18.3409 C   0  0  0  0  0  0  0  0  0  0  0  0
  -25.4099  -23.2707   17.8175 C   0  0  0  0  0  0  0  0  0  0  0  0
  -20.9255  -26.3983   23.4687 C   0  0  0  0  0  0  0  0  0  0  0  0
  -19.8458  -24.6926   21.9879 C   0  0  0  0  0  0  0  0  0  0  0  0
  -18.8179  -26.9513   22.2412 C   0  0  0  0  0  0  0  0  0  0  0  0
  -29.6560  -23.5415   21.8365 C   0  0  0  0  0  0  0  0  0  0  0  0
  -30.5801  -25.8520   21.7113 C   0  0  0  0  0  0  0  0  0  0  0  0
  -21.5457  -26.9170   15.9619 C   0  0  0  0  0  0  0  0  0  0  0  0
  -30.5215  -24.4798   19.6193 C   0  0  0  0  0  0  0  0  0  0  0  0
  -28.3487  -25.3505   20.6534 C   0  0  0  0  0  0  0  0  0  1  0  0
  -27.0503  -21.3577   18.3463 C   0  0  2  0  0  0  0  0  0  0  0  0
  -20.9497  -26.7025   20.9049 C   0  0  1  0  0  0  0  0  0  0  0  0
  -19.8310  -25.8032   17.3964 C   0  0  2  0  0  0  0  0  0  0  0  0
  -25.6210  -21.9774   18.6252 C   0  0  0  0  0  0  0  0  0  0  0  0
  -20.1611  -26.1954   22.1452 C   0  0  0  0  0  0  0  0  0  0  0  0
  -29.7604  -24.7916   20.9416 C   0  0  0  0  0  0  0  0  0  0  0  0
  -28.2679  -22.5168   16.6124 N   0  0  0  0  0  0  0  0  0  0  0  0
  -25.9769  -17.1170   20.9874 N   0  0  0  0  0  0  0  0  0  0  0  0
  -28.7914  -22.9264   18.9288 N   0  0  0  0  0  0  0  0  0  0  0  0
  -27.0864  -17.8509   21.1782 N   0  0  0  0  0  0  0  0  0  0  0  0
  -22.6781  -28.4717   20.9841 N   0  0  0  0  0  0  0  0  0  0  0  0
  -25.6052  -21.3738   21.0216 N   0  0  0  0  0  0  0  0  0  0  0  0
  -29.4495  -17.7143   21.2670 N   0  0  0  0  0  0  0  0  0  0  0  0
  -28.1912  -13.4616   20.4139 N   0  0  0  0  0  0  0  0  0  0  0  0
  -23.8019  -31.1388   23.2022 N   0  0  0  0  0  0  0  0  0  0  0  0
  -20.2386  -26.5478   19.6405 N   0  0  0  0  0  0  0  0  0  0  0  0
  -20.6167  -25.7701   16.1305 N   0  3  0  0  0  0  0  0  0  0  0  0
  -29.9931  -14.8336   20.7740 O   0  0  0  0  0  0  0  0  0  0  0  0
  -23.3887  -28.8565   23.4095 O   0  0  0  0  0  0  0  0  0  0  0  0
  -20.4112  -29.0038   21.1056 O   0  0  0  0  0  0  0  0  0  0  0  0
  -25.3870  -23.5870   20.3474 O   0  0  0  0  0  0  0  0  0  0  0  0
  -21.8442  -25.2338   18.6048 O   0  0  0  0  0  0  0  0  0  0  0  0
  -22.9638  -11.6308   19.8163 O   0  0  0  0  0  0  0  0  0  0  0  0
  -28.4156  -26.5185   19.8363 O   0  0  0  0  0  0  0  0  0  1  0  0
  -23.8899   -6.8965   22.4871 F   0  0  0  0  0  0  0  0  0  0  0  0
  -21.0589  -10.5624   21.5113 F   0  0  0  0  0  0  0  0  0  0  0  0
  1  2  1  0  0  0  0
  1  5  2  0  0  0  0
  2  6  2  0  0  0  0
  3  8  2  0  0  0  0
  3 16  1  0  0  0  0
  4  9  1  0  0  0  0
  4 16  2  0  0  0  0
  5 18  1  0  0  0  0
  6 20  1  0  0  0  0
  7 10  2  0  0  0  0
  7 19  1  0  0  0  0
  8 23  1  0  0  0  0
  9 23  2  0  0  0  0
 10 24  1  0  0  0  0
 11 12  2  0  0  0  0
 11 25  1  0  0  0  0
 12 26  1  0  0  0  0
 13 21  1  0  0  0  0
 13 24  2  0  0  0  0
 14 26  2  0  0  0  0
 14 27  1  0  0  0  0
 15 22  1  0  0  0  0
 15 68  2  0  0  0  0
 16 28  1  0  0  0  0
 17 28  1  0  0  0  0
 17 30  2  0  0  0  0
 17 32  1  0  0  0  0
 18 20  2  0  0  0  0
 18 37  1  0  0  0  0
 19 21  2  0  0  0  0
 19 38  1  0  0  0  0
 20 46  1  0  0  0  0
 21 39  1  0  0  0  0
 22 29  2  0  0  0  0
 22 49  1  0  0  0  0
 23 84  1  0  0  0  0
 24 85  1  0  0  0  0
 25 27  2  0  0  0  0
 25 84  1  0  0  0  0
 26 86  1  0  0  0  0
 27 87  1  0  0  0  0
 28 69  2  0  0  0  0
 29 60  1  0  0  0  0
 29 70  1  0  0  0  0
 30 71  1  0  0  0  0
 30 74  1  0  0  0  0
 31 62  1  0  0  0  0
 31 68  1  0  0  0  0
 31 70  2  0  0  0  0
 32 75  1  0  0  0  0
 32 79  2  0  0  0  0
 33 47  1  0  0  0  0
 33 76  1  0  0  0  0
 33 80  2  0  0  0  0
 34 63  1  0  0  0  0
 34 72  1  0  0  0  0
 34 81  2  0  0  0  0
 35 65  1  0  0  0  0
 35 73  1  0  0  0  0
 35 82  2  0  0  0  0
 36 64  1  0  0  0  0
 36 77  1  0  0  0  0
 36 83  2  0  0  0  0
 37 40  1  0  0  0  0
 38 47  1  0  0  0  0
 39 72  1  0  0  0  0
 40 42  1  0  0  0  0
 41 43  1  0  0  0  0
 41 44  1  0  0  0  0
 42 46  1  0  0  0  0
 43 48  1  0  0  0  0
 44 73  1  0  0  0  0
 45 48  1  0  0  0  0
 45 73  1  0  0  0  0
 46 76  1  0  0  0  0
 47 72  1  0  0  0  0
 48 71  1  0  0  0  0
 50 62  1  0  0  0  0
 51 64  1  0  0  0  0
 52 65  1  0  0  0  0
 53 65  1  0  0  0  0
 54 66  1  0  0  0  0
 55 66  1  0  0  0  0
 56 66  1  0  0  0  0
 57 67  1  0  0  0  0
 58 67  1  0  0  0  0
 59 78  1  0  0  0  0
 60 67  1  0  0  0  0
 61 67  1  0  0  0  0
 61 85  1  0  0  0  0
 62 65  1  0  0  0  0
 63 66  1  0  0  0  0
 63 77  1  0  0  0  0
 64 78  1  0  0  0  0
 69 71  1  0  0  0  0
M  CHG  1  78   1
M  ISO  4  35 100  61 101  65 100  85 101
M  END
> <Batch ID>
0062

> <Smiles>
CNC(C)C(=O)NC(C(=O)N1Cc2cc([101O:1][101CH2:1]C(C)(C)Cc3nc(C(C)[100C:0](C)(C)[100C:0](=O)N4CCCC(n5nc(-c6ccc(Oc7ccc(F)cc7F)cc6)c(C(N)=O)c5N)C4)ncc3C)ccc2CC1C(=O)NC1CCCc2ccccc21)C(C)(C)C

> <Shape>
0.289

> <Color>
0.097

> <Negative vol penalty>
0.000

$$$$

  -OEChem-04052318002D

  0  0  0     0  0  0  0  0  0999 V2000
M  END
$$$$

  -OEChem-04052318003D

 88 96  0     1  0  0  0  0  0999 V2000
  -29.6579  -35.3082   17.3577 C   0  0  0  0  0  0  0  0  0  0  0  0
  -29.5309  -34.0529   17.9437 C   0  0  0  0  0  0  0  0  0  0  0  0
  -23.1227   -9.8854   19.8888 C   0  0  0  0  0  0  0  0  0  0  0  0
  -23.8674   -9.8334   22.1866 C   0  0  0  0  0  0  0  0  0  0  0  0
  -29.4061  -35.4692   15.9958 C   0  0  0  0  0  0  0  0  0  0  0  0
  -29.1509  -32.9579   17.1684 C   0  0  0  0  0  0  0  0  0  0  0  0
  -31.0195  -27.1619   17.8169 C   0  0  0  0  0  0  0  0  0  0  0  0
  -22.3977   -8.7122   20.0972 C   0  0  0  0  0  0  0  0  0  0  0  0
  -23.1423   -8.6602   22.3950 C   0  0  0  0  0  0  0  0  0  0  0  0
  -30.4400  -26.0528   18.4317 C   0  0  0  0  0  0  0  0  0  0  0  0
  -19.9248   -7.7878   22.9494 C   0  0  0  0  0  0  0  0  0  0  0  0
  -19.1611   -7.6980   24.1131 C   0  0  0  0  0  0  0  0  0  0  0  0
  -29.5602  -25.3395   16.3018 C   0  0  0  0  0  0  0  0  0  0  0  0
  -20.4316   -5.7602   24.7972 C   0  0  0  0  0  0  0  0  0  0  0  0
  -23.8577  -10.4460   20.9334 C   0  0  0  0  0  0  0  0  0  0  0  0
  -24.1558  -12.9792   20.8950 C   0  0  0  0  0  0  0  0  0  0  0  0
  -29.0322  -34.3738   15.2015 C   0  0  0  0  0  0  0  0  0  0  0  0
  -30.8642  -27.3743   16.4395 C   0  0  0  0  0  0  0  0  0  0  0  0
  -28.8926  -33.1046   15.7949 C   0  0  0  0  0  0  0  0  0  0  0  0
  -30.1408  -26.4507   15.6715 C   0  0  0  0  0  0  0  0  0  0  0  0
  -22.4074   -8.0996   21.3503 C   0  0  0  0  0  0  0  0  0  0  0  0
  -29.7079  -25.1429   17.6746 C   0  0  0  0  0  0  0  0  0  0  0  0
  -20.9419   -6.8639   22.7096 C   0  0  0  0  0  0  0  0  0  0  0  0
  -19.4144   -6.6842   25.0370 C   0  0  0  0  0  0  0  0  0  0  0  0
  -21.1953   -5.8501   23.6335 C   0  0  0  0  0  0  0  0  0  0  0  0
  -24.6073  -11.6576   20.7186 C   0  0  0  0  0  0  0  0  0  0  0  0
  -29.3261  -17.7228   20.4706 C   0  0  0  0  0  0  0  0  0  0  0  0
  -29.9052  -18.0509   19.2368 C   0  0  0  0  0  0  0  0  0  0  0  0
  -25.2369  -13.7586   20.5631 C   0  0  0  0  0  0  0  0  0  0  0  0
  -22.8737  -13.4594   21.3209 C   0  0  0  0  0  0  0  0  0  0  0  0
  -29.5460  -29.6510   14.6555 C   0  0  0  0  0  0  0  0  0  0  0  0
  -30.8277  -27.9396   12.2161 C   0  0  0  0  0  0  0  0  0  0  0  0
  -31.9713  -24.9342   11.0729 C   0  0  0  0  0  0  0  0  0  0  0  0
  -30.8253  -14.5490   21.2428 C   0  0  0  0  0  0  0  0  0  0  0  0
  -28.7246  -34.6059   13.7433 C   0  0  0  0  0  0  0  0  0  0  0  0
  -31.5179  -28.5614   15.7869 C   0  0  0  0  0  0  0  0  0  0  0  0
  -29.9617  -26.6223   14.1860 C   0  0  0  0  0  0  0  0  0  0  0  0
  -28.6905  -33.3232   12.9163 C   0  0  0  0  0  0  0  0  0  0  0  0
  -29.6199  -12.5718   18.3551 C   0  0  0  0  0  0  0  0  0  0  0  0
  -27.8773  -32.2487   13.6311 C   0  0  0  0  0  0  0  0  0  0  0  0
  -28.1943  -12.2115   18.7698 C   0  0  0  0  0  0  0  0  0  0  0  0
  -30.5308  -12.7642   19.5638 C   0  0  0  0  0  0  0  0  0  0  0  0
  -28.5940  -13.3923   20.9668 C   0  0  0  0  0  0  0  0  0  0  0  0
  -28.5065  -31.8879   14.9821 C   0  0  1  0  0  0  0  0  0  0  0  0
  -30.8630  -28.9529   14.4659 C   0  0  1  0  0  0  0  0  0  0  0  0
  -27.6393  -13.2372   19.7735 C   0  0  2  0  0  0  0  0  0  0  0  0
  -32.9208  -23.8375    9.0252 C   0  0  0  0  0  0  0  0  0  0  0  0
  -28.0480  -27.8856   10.9592 C   0  0  0  0  0  0  0  0  0  0  0  0
  -28.8323  -26.0298    9.4728 C   0  0  0  0  0  0  0  0  0  0  0  0
  -29.9165  -28.2726    9.3426 C   0  0  0  0  0  0  0  0  0  0  0  0
  -26.3632  -23.6412   19.0548 C   0  0  0  0  0  0  0  0  0  0  0  0
  -27.1336  -23.5141   21.4272 C   0  0  0  0  0  0  0  0  0  0  0  0
  -31.1984  -16.7189   22.3528 C   0  0  0  0  0  0  0  0  0  0  0  0
  -34.4907  -24.2489   12.4664 C   0  0  0  0  0  0  0  0  0  0  0  0
  -29.1104  -16.4022   21.0778 C   0  0  0  0  0  0  0  0  0  0  0  0
  -27.8916  -21.7783   19.7237 C   0  0  0  0  0  0  0  0  0  0  0  0
  -29.0987  -21.2387   20.5023 C   0  0  0  0  0  0  0  0  0  0  0  0
  -28.7451  -24.2034   19.6358 C   0  0  0  0  0  0  0  0  0  1  0  0
  -30.3569  -26.7976   11.3483 C   0  0  1  0  0  0  0  0  0  0  0  0
  -33.2384  -24.5562   10.3272 C   0  0  2  0  0  0  0  0  0  0  0  0
  -30.4605  -17.1666   18.2023 C   0  0  0  0  0  0  0  0  0  0  0  0
  -29.2900  -27.2439   10.3090 C   0  0  0  0  0  0  0  0  0  0  0  0
  -27.5552  -23.2769   19.9662 C   0  0  0  0  0  0  0  0  0  0  0  0
  -25.8764  -11.5969   20.3065 N   0  0  0  0  0  0  0  0  0  0  0  0
  -28.9516  -18.8369   21.1059 N   0  0  0  0  0  0  0  0  0  0  0  0
  -29.9037  -19.3769   19.0741 N   0  0  0  0  0  0  0  0  0  0  0  0
  -26.2315  -12.8903   20.2211 N   0  0  0  0  0  0  0  0  0  0  0  0
  -29.3251  -19.7733   20.2190 N   0  0  0  0  0  0  0  0  0  0  0  0
  -30.6147  -27.8021   13.5951 N   0  0  0  0  0  0  0  0  0  0  0  0
  -29.9589  -13.7110   20.5218 N   0  0  0  0  0  0  0  0  0  0  0  0
  -25.4243  -15.0952   20.5334 N   0  0  0  0  0  0  0  0  0  0  0  0
  -21.8758  -12.5226   21.6223 N   0  0  0  0  0  0  0  0  0  0  0  0
  -29.6505  -31.0221   14.7917 N   0  0  0  0  0  0  0  0  0  0  0  0
  -31.5559  -26.2111   10.7594 N   0  0  0  0  0  0  0  0  0  0  0  0
  -30.3338  -15.8097   21.6140 N   0  0  0  0  0  0  0  0  0  0  0  0
  -34.0843  -23.6595   11.1647 N   0  3  0  0  0  0  0  0  0  0  0  0
  -22.6154  -14.6833   21.4151 O   0  0  0  0  0  0  0  0  0  0  0  0
  -28.5115  -28.9944   14.6752 O   0  0  0  0  0  0  0  0  0  0  0  0
  -31.3712  -28.9143   11.6906 O   0  0  0  0  0  0  0  0  0  0  0  0
  -31.4045  -24.1716   11.8524 O   0  0  0  0  0  0  0  0  0  0  0  0
  -31.9760  -14.1945   21.5296 O   0  0  0  0  0  0  0  0  0  0  0  0
  -21.6998   -6.9549   21.5541 O   0  0  0  0  0  0  0  0  0  0  0  0
  -29.1407  -24.0598   18.2723 O   0  0  0  0  0  0  0  0  0  1  0  0
  -18.6819   -6.5989   26.1552 F   0  0  0  0  0  0  0  0  0  0  0  0
  -22.1718   -4.9602   23.4091 F   0  0  0  0  0  0  0  0  0  0  0  0
  -30.3949  -15.8269   18.5038 F   0  0  0  0  0  0  0  0  0  0  0  0
  -29.8431  -17.2663   16.9782 F   0  0  0  0  0  0  0  0  0  0  0  0
  -31.7886  -17.3981   17.9406 F   0  0  0  0  0  0  0  0  0  0  0  0
  1  2  1  0  0  0  0
  1  5  2  0  0  0  0
  2  6  2  0  0  0  0
  3  8  2  0  0  0  0
  3 15  1  0  0  0  0
  4  9  1  0  0  0  0
  4 15  2  0  0  0  0
  5 17  1  0  0  0  0
  6 19  1  0  0  0  0
  7 10  2  0  0  0  0
  7 18  1  0  0  0  0
  8 21  1  0  0  0  0
  9 21  2  0  0  0  0
 10 22  1  0  0  0  0
 11 12  2  0  0  0  0
 11 23  1  0  0  0  0
 12 24  1  0  0  0  0
 13 20  1  0  0  0  0
 13 22  2  0  0  0  0
 14 24  2  0  0  0  0
 14 25  1  0  0  0  0
 15 26  1  0  0  0  0
 16 26  1  0  0  0  0
 16 29  2  0  0  0  0
 16 30  1  0  0  0  0
 17 19  2  0  0  0  0
 17 35  1  0  0  0  0
 18 20  2  0  0  0  0
 18 36  1  0  0  0  0
 19 44  1  0  0  0  0
 20 37  1  0  0  0  0
 21 82  1  0  0  0  0
 22 83  1  0  0  0  0
 23 25  2  0  0  0  0
 23 82  1  0  0  0  0
 24 84  1  0  0  0  0
 25 85  1  0  0  0  0
 26 64  2  0  0  0  0
 27 28  1  0  0  0  0
 27 55  1  0  0  0  0
 27 65  2  0  0  0  0
 28 61  1  0  0  0  0
 28 66  2  0  0  0  0
 29 67  1  0  0  0  0
 29 71  1  0  0  0  0
 30 72  1  0  0  0  0
 30 77  2  0  0  0  0
 31 45  1  0  0  0  0
 31 73  1  0  0  0  0
 31 78  2  0  0  0  0
 32 59  1  0  0  0  0
 32 69  1  0  0  0  0
 32 79  2  0  0  0  0
 33 60  1  0  0  0  0
 33 74  1  0  0  0  0
 33 80  2  0  0  0  0
 34 70  1  0  0  0  0
 34 75  1  0  0  0  0
 34 81  2  0  0  0  0
 35 38  1  0  0  0  0
 36 45  1  0  0  0  0
 37 69  1  0  0  0  0
 38 40  1  0  0  0  0
 39 41  1  0  0  0  0
 39 42  1  0  0  0  0
 40 44  1  0  0  0  0
 41 46  1  0  0  0  0
 42 70  1  0  0  0  0
 43 46  1  0  0  0  0
 43 70  1  0  0  0  0
 44 73  1  0  0  0  0
 45 69  1  0  0  0  0
 46 67  1  0  0  0  0
 47 60  1  0  0  0  0
 48 62  1  0  0  0  0
 49 62  1  0  0  0  0
 50 62  1  0  0  0  0
 51 63  1  0  0  0  0
 52 63  1  0  0  0  0
 53 75  1  0  0  0  0
 54 76  1  0  0  0  0
 55 75  1  0  0  0  0
 56 57  1  0  0  0  0
 56 63  1  0  0  0  0
 57 68  1  0  0  0  0
 58 63  1  0  0  0  0
 58 83  1  0  0  0  0
 59 62  1  0  0  0  0
 59 74  1  0  0  0  0
 60 76  1  0  0  0  0
 61 86  1  0  0  0  0
 61 87  1  0  0  0  0
 61 88  1  0  0  0  0
 64 67  1  0  0  0  0
 65 68  1  0  0  0  0
 66 68  1  0  0  0  0
M  CHG  1  76   1
M  ISO  4  34 100  58 101  75 100  83 101
M  END
> <Batch ID>
0062

> <Smiles>
CNC(C)C(=O)NC(C(=O)N1Cc2cc([101O:1][101CH2:1]C(C)(C)CCn3nc(C[100N:0](C)[100C:0](=O)N4CCCC(n5nc(-c6ccc(Oc7ccc(F)cc7F)cc6)c(C(N)=O)c5N)C4)c(C(F)(F)F)n3)ccc2CC1C(=O)NC1CCCc2ccccc21)C(C)(C)C

> <Shape>
0.245

> <Color>
0.181

> <Negative vol penalty>
0.000

$$$$

  -OEChem-04052318002D

  0  0  0     0  0  0  0  0  0999 V2000
M  END
$$$$

  -OEChem-04052318003D

 84 92  0     1  0  0  0  0  0999 V2000
  -29.0045  -12.1249   18.4340 C   0  0  0  0  0  0  0  0  0  0  0  0
  -29.4380  -13.4221   18.1795 C   0  0  0  0  0  0  0  0  0  0  0  0
  -23.7846  -12.3341   19.5067 C   0  0  0  0  0  0  0  0  0  0  0  0
  -24.9813  -12.0643   21.5881 C   0  0  0  0  0  0  0  0  0  0  0  0
  -29.0562  -11.6155   19.7308 C   0  0  0  0  0  0  0  0  0  0  0  0
  -29.9226  -14.2111   19.2221 C   0  0  0  0  0  0  0  0  0  0  0  0
  -34.1678  -16.6774   17.9808 C   0  0  0  0  0  0  0  0  0  0  0  0
  -23.7550  -10.9491   19.3442 C   0  0  0  0  0  0  0  0  0  0  0  0
  -24.9516  -10.6792   21.4256 C   0  0  0  0  0  0  0  0  0  0  0  0
  -34.0336  -17.8176   17.1898 C   0  0  0  0  0  0  0  0  0  0  0  0
  -22.7310   -8.1690   21.8596 C   0  0  0  0  0  0  0  0  0  0  0  0
  -22.3902   -7.3950   22.9688 C   0  0  0  0  0  0  0  0  0  0  0  0
  -34.2455  -19.1991   19.1560 C   0  0  0  0  0  0  0  0  0  0  0  0
  -24.5323   -6.2837   22.8514 C   0  0  0  0  0  0  0  0  0  0  0  0
  -29.4749  -22.9241   17.8547 C   0  0  0  0  0  0  0  0  0  0  0  0
  -30.9753  -23.0249   19.4590 C   0  0  0  0  0  0  0  0  0  0  0  0
  -24.3978  -12.8917   20.6287 C   0  0  0  0  0  0  0  0  0  0  0  0
  -23.4732  -15.1227   21.4505 C   0  0  0  0  0  0  0  0  0  0  0  0
  -29.5507  -12.3954   20.7881 C   0  0  0  0  0  0  0  0  0  0  0  0
  -34.3312  -16.7893   19.3690 C   0  0  0  0  0  0  0  0  0  0  0  0
  -29.9798  -13.7122   20.5346 C   0  0  0  0  0  0  0  0  0  0  0  0
  -34.3841  -18.0588   19.9620 C   0  0  0  0  0  0  0  0  0  0  0  0
  -30.8468  -23.1287   18.0954 C   0  0  0  0  0  0  0  0  0  0  0  0
  -24.3384  -10.1216   20.3036 C   0  0  0  0  0  0  0  0  0  0  0  0
  -34.0695  -19.0786   17.7777 C   0  0  0  0  0  0  0  0  0  0  0  0
  -23.9724   -8.0003   21.2462 C   0  0  0  0  0  0  0  0  0  0  0  0
  -23.2909   -6.4524   23.4647 C   0  0  0  0  0  0  0  0  0  0  0  0
  -24.8730   -7.0577   21.7421 C   0  0  0  0  0  0  0  0  0  0  0  0
  -24.4292  -14.3224   20.7969 C   0  0  0  0  0  0  0  0  0  0  0  0
  -23.9607  -16.4017   21.3370 C   0  0  0  0  0  0  0  0  0  0  0  0
  -22.2535  -14.7438   22.1021 C   0  0  0  0  0  0  0  0  0  0  0  0
  -32.6652  -15.8472   21.9069 C   0  0  0  0  0  0  0  0  0  0  0  0
  -35.2393  -16.9731   23.5283 C   0  0  0  0  0  0  0  0  0  0  0  0
  -37.9398  -19.0588   23.5889 C   0  0  0  0  0  0  0  0  0  0  0  0
  -28.7322  -19.3097   21.4562 C   0  0  0  0  0  0  0  0  0  0  0  0
  -29.5432  -11.8179   22.1814 C   0  0  0  0  0  0  0  0  0  0  0  0
  -34.5013  -15.5505   20.2049 C   0  0  0  0  0  0  0  0  0  0  0  0
  -34.5777  -18.2338   21.4454 C   0  0  0  0  0  0  0  0  0  0  0  0
  -30.4199  -12.5888   23.1650 C   0  0  0  0  0  0  0  0  0  0  0  0
  -27.1721  -18.6675   18.3537 C   0  0  0  0  0  0  0  0  0  0  0  0
  -30.1731  -14.0887   23.0379 C   0  0  0  0  0  0  0  0  0  0  0  0
  -26.2065  -17.5437   18.7274 C   0  0  0  0  0  0  0  0  0  0  0  0
  -28.5245  -18.5195   19.0533 C   0  0  0  0  0  0  0  0  0  0  0  0
  -27.4596  -17.2600   20.8979 C   0  0  0  0  0  0  0  0  0  0  0  0
  -30.5351  -14.5904   21.6348 C   0  0  1  0  0  0  0  0  0  0  0  0
  -34.1473  -15.7669   21.6730 C   0  0  1  0  0  0  0  0  0  0  0  0
  -26.0731  -17.4183   20.2550 C   0  0  2  0  0  0  0  0  0  0  0  0
  -39.8344  -19.7860   25.0651 C   0  0  0  0  0  0  0  0  0  0  0  0
  -33.3063  -18.6709   25.1687 C   0  0  0  0  0  0  0  0  0  0  0  0
  -35.2619  -20.0355   25.9316 C   0  0  0  0  0  0  0  0  0  0  0  0
  -35.1425  -17.6077   26.4924 C   0  0  0  0  0  0  0  0  0  0  0  0
  -29.6654  -23.8031   22.2194 C   0  0  0  0  0  0  0  0  0  0  0  0
  -27.8216  -22.3623   21.3947 C   0  0  0  0  0  0  0  0  0  0  0  0
  -30.9440  -19.7053   20.2915 C   0  0  0  0  0  0  0  0  0  0  0  0
  -39.9663  -18.0961   21.6588 C   0  0  0  0  0  0  0  0  0  0  0  0
  -31.9333  -23.3984   17.0853 C   0  0  0  0  0  0  0  0  0  0  0  0
  -32.6017  -22.1316   16.5467 C   0  0  0  0  0  0  0  0  0  0  0  0
  -30.0566  -21.3382   21.9139 C   0  0  0  0  0  0  0  0  0  0  0  0
  -33.3397  -21.3364   17.6174 C   0  0  0  0  0  0  0  0  0  1  0  0
  -35.6344  -18.3075   24.1132 C   0  0  1  0  0  0  0  0  0  0  0  0
  -39.3878  -18.8209   23.9780 C   0  0  2  0  0  0  0  0  0  0  0  0
  -34.8307  -18.6524   25.3987 C   0  0  0  0  0  0  0  0  0  0  0  0
  -29.3510  -22.5857   21.3157 C   0  0  0  0  0  0  0  0  0  0  0  0
  -28.7816  -22.7066   18.9754 N   0  0  0  0  0  0  0  0  0  0  0  0
  -25.4470  -15.0334   20.3045 N   0  0  0  0  0  0  0  0  0  0  0  0
  -29.7216  -22.7739   19.9335 N   0  0  0  0  0  0  0  0  0  0  0  0
  -25.1332  -16.2940   20.6488 N   0  0  0  0  0  0  0  0  0  0  0  0
  -34.7330  -16.9920   22.2209 N   0  0  0  0  0  0  0  0  0  0  0  0
  -28.3490  -18.3550   20.5027 N   0  0  0  0  0  0  0  0  0  0  0  0
  -23.4964  -17.5968   21.7597 N   0  0  0  0  0  0  0  0  0  0  0  0
  -21.9028  -13.3871   22.1270 N   0  0  0  0  0  0  0  0  0  0  0  0
  -31.9699  -14.7244   21.5005 N   0  0  0  0  0  0  0  0  0  0  0  0
  -37.0794  -18.2562   24.3077 N   0  0  0  0  0  0  0  0  0  0  0  0
  -29.8332  -20.1219   21.1452 N   0  0  0  0  0  0  0  0  0  0  0  0
  -40.2778  -18.9997   22.7961 N   0  3  0  0  0  0  0  0  0  0  0  0
  -21.4889  -15.5854   22.6319 O   0  0  0  0  0  0  0  0  0  0  0  0
  -32.1881  -16.8528   22.4195 O   0  0  0  0  0  0  0  0  0  0  0  0
  -35.3815  -15.9507   24.2037 O   0  0  0  0  0  0  0  0  0  0  0  0
  -37.6053  -19.8776   22.7355 O   0  0  0  0  0  0  0  0  0  0  0  0
  -28.1293  -19.4260   22.5309 O   0  0  0  0  0  0  0  0  0  0  0  0
  -24.3095   -8.7701   20.1455 O   0  0  0  0  0  0  0  0  0  0  0  0
  -33.9381  -20.1932   17.0081 O   0  0  0  0  0  0  0  0  0  1  0  0
  -22.9641   -5.7103   24.5309 F   0  0  0  0  0  0  0  0  0  0  0  0
  -26.0675   -6.8920   21.1578 F   0  0  0  0  0  0  0  0  0  0  0  0
  1  2  1  0  0  0  0
  1  5  2  0  0  0  0
  2  6  2  0  0  0  0
  3  8  2  0  0  0  0
  3 17  1  0  0  0  0
  4  9  1  0  0  0  0
  4 17  2  0  0  0  0
  5 19  1  0  0  0  0
  6 21  1  0  0  0  0
  7 10  2  0  0  0  0
  7 20  1  0  0  0  0
  8 24  1  0  0  0  0
  9 24  2  0  0  0  0
 10 25  1  0  0  0  0
 11 12  2  0  0  0  0
 11 26  1  0  0  0  0
 12 27  1  0  0  0  0
 13 22  1  0  0  0  0
 13 25  2  0  0  0  0
 14 27  2  0  0  0  0
 14 28  1  0  0  0  0
 15 23  1  0  0  0  0
 15 64  2  0  0  0  0
 16 23  2  0  0  0  0
 16 66  1  0  0  0  0
 17 29  1  0  0  0  0
 18 29  1  0  0  0  0
 18 30  2  0  0  0  0
 18 31  1  0  0  0  0
 19 21  2  0  0  0  0
 19 36  1  0  0  0  0
 20 22  2  0  0  0  0
 20 37  1  0  0  0  0
 21 45  1  0  0  0  0
 22 38  1  0  0  0  0
 23 56  1  0  0  0  0
 24 81  1  0  0  0  0
 25 82  1  0  0  0  0
 26 28  2  0  0  0  0
 26 81  1  0  0  0  0
 27 83  1  0  0  0  0
 28 84  1  0  0  0  0
 29 65  2  0  0  0  0
 30 67  1  0  0  0  0
 30 70  1  0  0  0  0
 31 71  1  0  0  0  0
 31 76  2  0  0  0  0
 32 46  1  0  0  0  0
 32 72  1  0  0  0  0
 32 77  2  0  0  0  0
 33 60  1  0  0  0  0
 33 68  1  0  0  0  0
 33 78  2  0  0  0  0
 34 61  1  0  0  0  0
 34 73  1  0  0  0  0
 34 79  2  0  0  0  0
 35 69  1  0  0  0  0
 35 74  1  0  0  0  0
 35 80  2  0  0  0  0
 36 39  1  0  0  0  0
 37 46  1  0  0  0  0
 38 68  1  0  0  0  0
 39 41  1  0  0  0  0
 40 42  1  0  0  0  0
 40 43  1  0  0  0  0
 41 45  1  0  0  0  0
 42 47  1  0  0  0  0
 43 69  1  0  0  0  0
 44 47  1  0  0  0  0
 44 69  1  0  0  0  0
 45 72  1  0  0  0  0
 46 68  1  0  0  0  0
 47 67  1  0  0  0  0
 48 61  1  0  0  0  0
 49 62  1  0  0  0  0
 50 62  1  0  0  0  0
 51 62  1  0  0  0  0
 52 63  1  0  0  0  0
 53 63  1  0  0  0  0
 54 74  1  0  0  0  0
 55 75  1  0  0  0  0
 56 57  1  0  0  0  0
 57 59  1  0  0  0  0
 58 63  1  0  0  0  0
 58 74  1  0  0  0  0
 59 82  1  0  0  0  0
 60 62  1  0  0  0  0
 60 73  1  0  0  0  0
 61 75  1  0  0  0  0
 63 66  1  0  0  0  0
 64 66  1  0  0  0  0
 65 67  1  0  0  0  0
M  CHG  1  75   1
M  ISO  4  35 100  59 101  74 100  82 101
M  END
> <Batch ID>
0062

> <Smiles>
CNC(C)C(=O)NC(C(=O)N1Cc2cc([101O:1][101CH2:1]CCc3cnn(C(C)(C)C[100N:0](C)[100C:0](=O)N4CCCC(n5nc(-c6ccc(Oc7ccc(F)cc7F)cc6)c(C(N)=O)c5N)C4)c3)ccc2CC1C(=O)NC1CCCc2ccccc21)C(C)(C)C

> <Shape>
0.192

> <Color>
0.067

> <Negative vol penalty>
0.000

$$$$

  -OEChem-04052318003D

 86 94  0     1  0  0  0  0  0999 V2000
  -26.8184  -33.7279   26.5175 C   0  0  0  0  0  0  0  0  0  0  0  0
  -27.1905  -32.5696   25.8428 C   0  0  0  0  0  0  0  0  0  0  0  0
  -22.2201  -12.2720   18.9771 C   0  0  0  0  0  0  0  0  0  0  0  0
  -23.9954  -11.2150   20.2293 C   0  0  0  0  0  0  0  0  0  0  0  0
  -25.4695  -33.9999   26.7416 C   0  0  0  0  0  0  0  0  0  0  0  0
  -26.2137  -31.6820   25.3927 C   0  0  0  0  0  0  0  0  0  0  0  0
  -27.0682  -30.0882   20.6625 C   0  0  0  0  0  0  0  0  0  0  0  0
  -21.7131  -11.0179   18.6370 C   0  0  0  0  0  0  0  0  0  0  0  0
  -23.4884   -9.9608   19.8893 C   0  0  0  0  0  0  0  0  0  0  0  0
  -28.0361  -29.1000   20.4886 C   0  0  0  0  0  0  0  0  0  0  0  0
  -20.9723   -7.9384   20.8892 C   0  0  0  0  0  0  0  0  0  0  0  0
  -20.8781   -6.9831   21.9012 C   0  0  0  0  0  0  0  0  0  0  0  0
  -26.2989  -27.4328   20.3421 C   0  0  0  0  0  0  0  0  0  0  0  0
  -22.3585   -5.5279   20.6652 C   0  0  0  0  0  0  0  0  0  0  0  0
  -23.3613  -12.3706   19.7732 C   0  0  0  0  0  0  0  0  0  0  0  0
  -23.5527  -14.4409   21.2513 C   0  0  0  0  0  0  0  0  0  0  0  0
  -24.4752  -33.1200   26.2855 C   0  0  0  0  0  0  0  0  0  0  0  0
  -25.7066  -29.7542   20.6884 C   0  0  0  0  0  0  0  0  0  0  0  0
  -24.8503  -31.9418   25.6121 C   0  0  0  0  0  0  0  0  0  0  0  0
  -25.3155  -28.4190   20.5138 C   0  0  0  0  0  0  0  0  0  0  0  0
  -22.3472   -9.8622   19.0932 C   0  0  0  0  0  0  0  0  0  0  0  0
  -27.6517  -27.7716   20.3313 C   0  0  0  0  0  0  0  0  0  0  0  0
  -21.7595   -7.6885   19.7652 C   0  0  0  0  0  0  0  0  0  0  0  0
  -21.5712   -5.7778   21.7892 C   0  0  0  0  0  0  0  0  0  0  0  0
  -22.4527   -6.4832   19.6532 C   0  0  0  0  0  0  0  0  0  0  0  0
  -23.8858  -13.6659   20.1243 C   0  0  0  0  0  0  0  0  0  0  0  0
  -24.3173  -15.5750   21.1262 C   0  0  0  0  0  0  0  0  0  0  0  0
  -25.8842  -22.4878   22.5625 C   0  0  0  0  0  0  0  0  0  0  0  0
  -27.9454  -22.4467   22.8889 C   0  0  0  0  0  0  0  0  0  0  0  0
  -22.6342  -14.1608   22.3160 C   0  0  0  0  0  0  0  0  0  0  0  0
  -23.3799  -29.9888   22.8414 C   0  0  0  0  0  0  0  0  0  0  0  0
  -21.5314  -28.9589   20.3828 C   0  0  0  0  0  0  0  0  0  0  0  0
  -21.3270  -27.2900   17.4130 C   0  0  0  0  0  0  0  0  0  0  0  0
  -29.5060  -17.6288   20.0417 C   0  0  0  0  0  0  0  0  0  0  0  0
  -23.0323  -33.4330   26.5929 C   0  0  0  0  0  0  0  0  0  0  0  0
  -24.6736  -30.8355   20.8501 C   0  0  0  0  0  0  0  0  0  0  0  0
  -23.8658  -28.0108   20.5137 C   0  0  0  0  0  0  0  0  0  0  0  0
  -22.0425  -32.6279   25.7548 C   0  0  0  0  0  0  0  0  0  0  0  0
  -27.0800  -17.2955   17.2659 C   0  0  0  0  0  0  0  0  0  0  0  0
  -22.4392  -31.1553   25.7287 C   0  0  0  0  0  0  0  0  0  0  0  0
  -26.0475  -16.3271   17.8404 C   0  0  0  0  0  0  0  0  0  0  0  0
  -28.4621  -17.0776   17.8742 C   0  0  0  0  0  0  0  0  0  0  0  0
  -27.4485  -16.1631   19.9359 C   0  0  0  0  0  0  0  0  0  0  0  0
  -23.8190  -30.9669   25.0867 C   0  0  1  0  0  0  0  0  0  0  0  0
  -23.3396  -30.3138   21.3750 C   0  0  1  0  0  0  0  0  0  0  0  0
  -26.0350  -16.3870   19.3778 C   0  0  2  0  0  0  0  0  0  0  0  0
  -24.4755  -22.8819   22.6823 C   0  0  0  0  0  0  0  0  0  0  0  0
  -19.6757  -26.5804   15.6617 C   0  0  0  0  0  0  0  0  0  0  0  0
  -28.4394  -20.8901   19.7378 C   0  0  0  0  0  0  0  0  0  0  0  0
  -20.5297  -26.7448   22.2279 C   0  0  0  0  0  0  0  0  0  0  0  0
  -19.6597  -25.5500   20.2070 C   0  0  0  0  0  0  0  0  0  0  0  0
  -18.7616  -27.7985   20.8072 C   0  0  0  0  0  0  0  0  0  0  0  0
  -30.2553  -18.2213   22.3148 C   0  0  0  0  0  0  0  0  0  0  0  0
  -22.7075  -28.8526   15.3126 C   0  0  0  0  0  0  0  0  0  0  0  0
  -29.3646  -22.6708   23.3471 C   0  0  0  0  0  0  0  0  0  0  0  0
  -30.2071  -23.4998   22.3711 C   0  0  0  0  0  0  0  0  0  0  0  0
  -29.5964  -24.8715   22.0676 C   0  0  0  0  0  0  0  0  0  0  0  0
  -30.4830  -25.6737   21.1166 C   0  0  0  0  0  0  0  0  0  0  0  0
  -28.1074  -19.1354   21.5170 C   0  0  0  0  0  0  0  0  0  0  0  0
  -29.8646  -27.0220   20.7752 C   0  0  0  0  0  0  0  0  0  1  0  0
  -21.0991  -27.6093   19.8626 C   0  0  1  0  0  0  0  0  0  0  0  0
  -20.6622  -27.6527   16.0974 C   0  0  2  0  0  0  0  0  0  0  0  0
  -28.4617  -20.6057   21.2434 C   0  0  2  0  0  0  0  0  0  0  0  0
  -20.0400  -26.9328   20.7781 C   0  0  0  0  0  0  0  0  0  0  0  0
  -24.7914  -14.2576   19.3409 N   0  0  0  0  0  0  0  0  0  0  0  0
  -26.8707  -23.0804   23.2974 N   0  0  0  0  0  0  0  0  0  0  0  0
  -26.2808  -21.5273   21.7249 N   0  0  0  0  0  0  0  0  0  0  0  0
  -25.0338  -15.4166   19.9766 N   0  0  0  0  0  0  0  0  0  0  0  0
  -27.6030  -21.5209   21.9533 N   0  0  0  0  0  0  0  0  0  0  0  0
  -22.8936  -29.1036   20.6815 N   0  0  0  0  0  0  0  0  0  0  0  0
  -28.4142  -17.0964   19.3366 N   0  0  0  0  0  0  0  0  0  0  0  0
  -24.4399  -16.6823   21.8886 N   0  0  0  0  0  0  0  0  0  0  0  0
  -21.9303  -12.9491   22.2896 N   0  0  0  0  0  0  0  0  0  0  0  0
  -23.7227  -31.0589   23.6456 N   0  0  0  0  0  0  0  0  0  0  0  0
  -20.6528  -27.8246   18.4904 N   0  0  0  0  0  0  0  0  0  0  0  0
  -29.2346  -18.2372   21.2766 N   0  0  0  0  0  0  0  0  0  0  0  0
  -21.6861  -27.8125   15.0264 N   0  3  0  0  0  0  0  0  0  0  0  0
  -22.4312  -14.9684   23.2541 O   0  0  0  0  0  0  0  0  0  0  0  0
  -23.1179  -28.8517   23.2156 O   0  0  0  0  0  0  0  0  0  0  0  0
  -20.6926  -29.8541   20.5123 O   0  0  0  0  0  0  0  0  0  0  0  0
  -22.3408  -26.5983   17.4786 O   0  0  0  0  0  0  0  0  0  0  0  0
  -30.6564  -17.5726   19.5886 O   0  0  0  0  0  0  0  0  0  0  0  0
  -21.8527   -8.6383   18.7618 O   0  0  0  0  0  0  0  0  0  0  0  0
  -28.5944  -26.8049   20.1621 O   0  0  0  0  0  0  0  0  0  1  0  0
  -21.4819   -4.8612   22.7618 F   0  0  0  0  0  0  0  0  0  0  0  0
  -23.2115   -6.2379   18.5763 F   0  0  0  0  0  0  0  0  0  0  0  0
  1  2  1  0  0  0  0
  1  5  2  0  0  0  0
  2  6  2  0  0  0  0
  3  8  2  0  0  0  0
  3 15  1  0  0  0  0
  4  9  1  0  0  0  0
  4 15  2  0  0  0  0
  5 17  1  0  0  0  0
  6 19  1  0  0  0  0
  7 10  2  0  0  0  0
  7 18  1  0  0  0  0
  8 21  1  0  0  0  0
  9 21  2  0  0  0  0
 10 22  1  0  0  0  0
 11 12  2  0  0  0  0
 11 23  1  0  0  0  0
 12 24  1  0  0  0  0
 13 20  1  0  0  0  0
 13 22  2  0  0  0  0
 14 24  2  0  0  0  0
 14 25  1  0  0  0  0
 15 26  1  0  0  0  0
 16 26  1  0  0  0  0
 16 27  2  0  0  0  0
 16 30  1  0  0  0  0
 17 19  2  0  0  0  0
 17 35  1  0  0  0  0
 18 20  2  0  0  0  0
 18 36  1  0  0  0  0
 19 44  1  0  0  0  0
 20 37  1  0  0  0  0
 21 83  1  0  0  0  0
 22 84  1  0  0  0  0
 23 25  2  0  0  0  0
 23 83  1  0  0  0  0
 24 85  1  0  0  0  0
 25 86  1  0  0  0  0
 26 65  2  0  0  0  0
 27 68  1  0  0  0  0
 27 72  1  0  0  0  0
 28 47  1  0  0  0  0
 28 66  1  0  0  0  0
 28 67  2  0  0  0  0
 29 55  1  0  0  0  0
 29 66  2  0  0  0  0
 29 69  1  0  0  0  0
 30 73  1  0  0  0  0
 30 78  2  0  0  0  0
 31 45  1  0  0  0  0
 31 74  1  0  0  0  0
 31 79  2  0  0  0  0
 32 61  1  0  0  0  0
 32 70  1  0  0  0  0
 32 80  2  0  0  0  0
 33 62  1  0  0  0  0
 33 75  1  0  0  0  0
 33 81  2  0  0  0  0
 34 71  1  0  0  0  0
 34 76  1  0  0  0  0
 34 82  2  0  0  0  0
 35 38  1  0  0  0  0
 36 45  1  0  0  0  0
 37 70  1  0  0  0  0
 38 40  1  0  0  0  0
 39 41  1  0  0  0  0
 39 42  1  0  0  0  0
 40 44  1  0  0  0  0
 41 46  1  0  0  0  0
 42 71  1  0  0  0  0
 43 46  1  0  0  0  0
 43 71  1  0  0  0  0
 44 74  1  0  0  0  0
 45 70  1  0  0  0  0
 46 68  1  0  0  0  0
 48 62  1  0  0  0  0
 49 63  1  0  0  0  0
 50 64  1  0  0  0  0
 51 64  1  0  0  0  0
 52 64  1  0  0  0  0
 53 76  1  0  0  0  0
 54 77  1  0  0  0  0
 55 56  1  0  0  0  0
 56 57  1  0  0  0  0
 57 58  1  0  0  0  0
 58 60  1  0  0  0  0
 59 63  1  0  0  0  0
 59 76  1  0  0  0  0
 60 84  1  0  0  0  0
 61 64  1  0  0  0  0
 61 75  1  0  0  0  0
 62 77  1  0  0  0  0
 63 69  1  0  0  0  0
 65 68  1  0  0  0  0
 67 69  1  0  0  0  0
M  CHG  1  77   1
M  ISO  4  34 100  60 101  76 100  84 101
M  END
> <Batch ID>
0062

> <Smiles>
CNC(C)C(=O)NC(C(=O)N1Cc2cc([101O:1][101CH2:1]CCCCc3nc(C)nn3C(C)C[100N:0](C)[100C:0](=O)N3CCCC(n4nc(-c5ccc(Oc6ccc(F)cc6F)cc5)c(C(N)=O)c4N)C3)ccc2CC1C(=O)NC1CCCc2ccccc21)C(C)(C)C

> <Shape>
0.277

> <Color>
0.088

> <Negative vol penalty>
0.000

$$$$

  -OEChem-04052318002D

  0  0  0     0  0  0  0  0  0999 V2000
M  END
$$$$

  -OEChem-04052318003D

 82 90  0     1  0  0  0  0  0999 V2000
  -18.6493  -24.7400   21.8592 C   0  0  0  0  0  0  0  0  0  0  0  0
  -19.8104  -24.9806   21.1317 C   0  0  0  0  0  0  0  0  0  0  0  0
  -27.1284  -11.5725   19.5897 C   0  0  0  0  0  0  0  0  0  0  0  0
  -27.3589  -12.4631   17.3557 C   0  0  0  0  0  0  0  0  0  0  0  0
  -17.9719  -25.8004   22.4597 C   0  0  0  0  0  0  0  0  0  0  0  0
  -20.2942  -26.2821   21.0032 C   0  0  0  0  0  0  0  0  0  0  0  0
  -25.2981  -26.5745   21.7247 C   0  0  0  0  0  0  0  0  0  0  0  0
  -26.1448  -10.6929   19.1376 C   0  0  0  0  0  0  0  0  0  0  0  0
  -26.3753  -11.5834   16.9035 C   0  0  0  0  0  0  0  0  0  0  0  0
  -26.1179  -26.1735   20.6707 C   0  0  0  0  0  0  0  0  0  0  0  0
  -26.1528   -8.3183   16.0610 C   0  0  0  0  0  0  0  0  0  0  0  0
  -26.3946   -7.6351   14.8692 C   0  0  0  0  0  0  0  0  0  0  0  0
  -26.4447  -28.4827   20.0542 C   0  0  0  0  0  0  0  0  0  0  0  0
  -24.4253   -8.6390   13.8940 C   0  0  0  0  0  0  0  0  0  0  0  0
  -27.5565  -21.8508   17.1537 C   0  0  0  0  0  0  0  0  0  0  0  0
  -27.7354  -12.4576   18.6987 C   0  0  0  0  0  0  0  0  0  0  0  0
  -30.1391  -13.1373   19.2167 C   0  0  0  0  0  0  0  0  0  0  0  0
  -18.4530  -27.1143   22.3466 C   0  0  0  0  0  0  0  0  0  0  0  0
  -25.0363  -27.9344   21.9451 C   0  0  0  0  0  0  0  0  0  0  0  0
  -19.6219  -27.3613   21.6016 C   0  0  0  0  0  0  0  0  0  0  0  0
  -25.6233  -28.8985   21.1133 C   0  0  0  0  0  0  0  0  0  0  0  0
  -25.7683  -10.6983   17.7945 C   0  0  0  0  0  0  0  0  0  0  0  0
  -26.6890  -27.1275   19.8335 C   0  0  0  0  0  0  0  0  0  0  0  0
  -25.0471   -9.1617   16.1693 C   0  0  0  0  0  0  0  0  0  0  0  0
  -25.5309   -7.7955   13.7857 C   0  0  0  0  0  0  0  0  0  0  0  0
  -24.1834   -9.3222   15.0859 C   0  0  0  0  0  0  0  0  0  0  0  0
  -28.7511  -13.3669   19.1653 C   0  0  0  0  0  0  0  0  0  0  0  0
  -28.6785  -21.1292   17.6034 C   0  0  0  0  0  0  0  0  0  0  0  0
  -28.0815  -22.9957   16.6060 C   0  0  0  0  0  0  0  0  0  0  0  0
  -30.6604  -14.2986   19.7325 C   0  0  0  0  0  0  0  0  0  0  0  0
  -30.8900  -11.9779   18.8324 C   0  0  0  0  0  0  0  0  0  0  0  0
  -22.4244  -29.7460   21.9360 C   0  0  0  0  0  0  0  0  0  0  0  0
  -28.6072  -19.9461   19.7771 C   0  0  0  0  0  0  0  0  0  0  0  0
  -24.4756  -32.0273   22.9898 C   0  0  0  0  0  0  0  0  0  0  0  0
  -27.6848  -33.1720   23.1834 C   0  0  0  0  0  0  0  0  0  0  0  0
  -17.6605  -28.2340   22.9736 C   0  0  0  0  0  0  0  0  0  0  0  0
  -24.1713  -28.3520   23.1027 C   0  0  0  0  0  0  0  0  0  0  0  0
  -25.3900  -30.3721   21.3197 C   0  0  0  0  0  0  0  0  0  0  0  0
  -18.4452  -29.5368   23.1040 C   0  0  0  0  0  0  0  0  0  0  0  0
  -29.5599  -17.9564   22.6009 C   0  0  0  0  0  0  0  0  0  0  0  0
  -19.1759  -29.8525   21.8027 C   0  0  0  0  0  0  0  0  0  0  0  0
  -29.5589  -16.5303   22.0518 C   0  0  0  0  0  0  0  0  0  0  0  0
  -28.4607  -18.8008   21.9637 C   0  0  0  0  0  0  0  0  0  0  0  0
  -28.5072  -17.4081   19.9191 C   0  0  0  0  0  0  0  0  0  0  0  0
  -20.1918  -28.7560   21.4604 C   0  0  1  0  0  0  0  0  0  0  0  0
  -23.5586  -29.7374   22.9215 C   0  0  1  0  0  0  0  0  0  0  0  0
  -29.6221  -16.5299   20.5142 C   0  0  2  0  0  0  0  0  0  0  0  0
  -29.0440  -35.0836   24.0755 C   0  0  0  0  0  0  0  0  0  0  0  0
  -27.8310  -24.4359   14.4721 C   0  0  0  0  0  0  0  0  0  0  0  0
  -25.8711  -23.9436   15.9078 C   0  0  0  0  0  0  0  0  0  0  0  0
  -23.4923  -33.7909   20.7022 C   0  0  0  0  0  0  0  0  0  0  0  0
  -25.4988  -35.2463   21.0544 C   0  0  0  0  0  0  0  0  0  0  0  0
  -23.8146  -34.9851   22.8758 C   0  0  0  0  0  0  0  0  0  0  0  0
  -30.4275  -23.8543   16.3346 C   0  0  0  0  0  0  0  0  0  0  0  0
  -29.2596  -31.3845   24.9394 C   0  0  0  0  0  0  0  0  0  0  0  0
  -28.6923  -19.8197   18.2768 C   0  0  0  0  0  0  0  0  0  0  0  0
  -27.6498  -25.5115   16.7486 C   0  0  0  0  0  0  0  0  0  0  0  0
  -27.2166  -25.4684   18.2133 C   0  0  0  0  0  0  0  0  0  1  0  0
  -25.3583  -33.0588   22.3296 C   0  0  1  0  0  0  0  0  0  0  0  0
  -28.5003  -33.6909   24.3539 C   0  0  2  0  0  0  0  0  0  0  0  0
  -27.3980  -24.2035   15.9396 C   0  0  0  0  0  0  0  0  0  0  0  0
  -24.5440  -34.2425   21.7352 C   0  0  0  0  0  0  0  0  0  0  0  0
  -28.4121  -14.5789   19.6129 N   0  0  0  0  0  0  0  0  0  0  0  0
  -29.8294  -21.7626   17.3622 N   0  0  0  0  0  0  0  0  0  0  0  0
  -29.4334  -22.8942   16.7548 N   0  0  0  0  0  0  0  0  0  0  0  0
  -29.5945  -15.1211   19.9505 N   0  0  0  0  0  0  0  0  0  0  0  0
  -24.5318  -30.7300   22.4612 N   0  0  0  0  0  0  0  0  0  0  0  0
  -28.5414  -18.7564   20.5026 N   0  0  0  0  0  0  0  0  0  0  0  0
  -31.9220  -14.6862   20.0164 N   0  0  0  0  0  0  0  0  0  0  0  0
  -30.1969  -10.8722   18.3210 N   0  0  0  0  0  0  0  0  0  0  0  0
  -21.3833  -28.9007   22.2691 N   0  0  0  0  0  0  0  0  0  0  0  0
  -26.3432  -33.4541   23.3306 N   0  0  0  0  0  0  0  0  0  0  0  0
  -29.6504  -32.7833   24.6267 N   0  3  0  0  0  0  0  0  0  0  0  0
  -32.1369  -11.9178   18.9548 O   0  0  0  0  0  0  0  0  0  0  0  0
  -22.4884  -30.4674   20.9475 O   0  0  0  0  0  0  0  0  0  0  0  0
  -28.6025  -21.0694   20.2873 O   0  0  0  0  0  0  0  0  0  0  0  0
  -23.7678  -32.3588   23.9442 O   0  0  0  0  0  0  0  0  0  0  0  0
  -28.1881  -32.5792   22.2316 O   0  0  0  0  0  0  0  0  0  0  0  0
  -24.8087   -9.8399   17.3530 O   0  0  0  0  0  0  0  0  0  0  0  0
  -27.4890  -26.7387   18.8036 O   0  0  0  0  0  0  0  0  0  1  0  0
  -25.7642   -7.1406   12.6408 F   0  0  0  0  0  0  0  0  0  0  0  0
  -23.1202  -10.1320   15.1836 F   0  0  0  0  0  0  0  0  0  0  0  0
  1  2  1  0  0  0  0
  1  5  2  0  0  0  0
  2  6  2  0  0  0  0
  3  8  2  0  0  0  0
  3 16  1  0  0  0  0
  4  9  1  0  0  0  0
  4 16  2  0  0  0  0
  5 18  1  0  0  0  0
  6 20  1  0  0  0  0
  7 10  2  0  0  0  0
  7 19  1  0  0  0  0
  8 22  1  0  0  0  0
  9 22  2  0  0  0  0
 10 23  1  0  0  0  0
 11 12  2  0  0  0  0
 11 24  1  0  0  0  0
 12 25  1  0  0  0  0
 13 21  1  0  0  0  0
 13 23  2  0  0  0  0
 14 25  2  0  0  0  0
 14 26  1  0  0  0  0
 15 28  1  0  0  0  0
 15 29  2  0  0  0  0
 16 27  1  0  0  0  0
 17 27  1  0  0  0  0
 17 30  2  0  0  0  0
 17 31  1  0  0  0  0
 18 20  2  0  0  0  0
 18 36  1  0  0  0  0
 19 21  2  0  0  0  0
 19 37  1  0  0  0  0
 20 45  1  0  0  0  0
 21 38  1  0  0  0  0
 22 79  1  0  0  0  0
 23 80  1  0  0  0  0
 24 26  2  0  0  0  0
 24 79  1  0  0  0  0
 25 81  1  0  0  0  0
 26 82  1  0  0  0  0
 27 63  2  0  0  0  0
 28 56  1  0  0  0  0
 28 64  2  0  0  0  0
 29 61  1  0  0  0  0
 29 65  1  0  0  0  0
 30 66  1  0  0  0  0
 30 69  1  0  0  0  0
 31 70  1  0  0  0  0
 31 74  2  0  0  0  0
 32 46  1  0  0  0  0
 32 71  1  0  0  0  0
 32 75  2  0  0  0  0
 33 56  1  0  0  0  0
 33 68  1  0  0  0  0
 33 76  2  0  0  0  0
 34 59  1  0  0  0  0
 34 67  1  0  0  0  0
 34 77  2  0  0  0  0
 35 60  1  0  0  0  0
 35 72  1  0  0  0  0
 35 78  2  0  0  0  0
 36 39  1  0  0  0  0
 37 46  1  0  0  0  0
 38 67  1  0  0  0  0
 39 41  1  0  0  0  0
 40 42  1  0  0  0  0
 40 43  1  0  0  0  0
 41 45  1  0  0  0  0
 42 47  1  0  0  0  0
 43 68  1  0  0  0  0
 44 47  1  0  0  0  0
 44 68  1  0  0  0  0
 45 71  1  0  0  0  0
 46 67  1  0  0  0  0
 47 66  1  0  0  0  0
 48 60  1  0  0  0  0
 49 61  1  0  0  0  0
 50 61  1  0  0  0  0
 51 62  1  0  0  0  0
 52 62  1  0  0  0  0
 53 62  1  0  0  0  0
 54 65  1  0  0  0  0
 55 73  1  0  0  0  0
 57 58  1  0  0  0  0
 57 61  1  0  0  0  0
 58 80  1  0  0  0  0
 59 62  1  0  0  0  0
 59 72  1  0  0  0  0
 60 73  1  0  0  0  0
 63 66  1  0  0  0  0
 64 65  1  0  0  0  0
M  CHG  1  73   1
M  ISO  4  33 100  56 100  58 101  80 101
M  END
> <Batch ID>
0062

> <Smiles>
CNC(C)C(=O)NC(C(=O)N1Cc2cc([101O:1][101CH2:1]CC(C)(C)c3cc([100CH2:0][100C:0](=O)N4CCCC(n5nc(-c6ccc(Oc7ccc(F)cc7F)cc6)c(C(N)=O)c5N)C4)nn3C)ccc2CC1C(=O)NC1CCCc2ccccc21)C(C)(C)C

> <Shape>
0.268

> <Color>
0.086

> <Negative vol penalty>
0.000

$$$$

  -OEChem-04052318003D

 84 92  0     1  0  0  0  0  0999 V2000
  -21.4897  -22.7253   22.5224 C   0  0  0  0  0  0  0  0  0  0  0  0
  -22.7857  -23.1700   22.2814 C   0  0  0  0  0  0  0  0  0  0  0  0
  -26.3041  -14.3977   21.7835 C   0  0  0  0  0  0  0  0  0  0  0  0
  -26.2447  -14.1588   19.3801 C   0  0  0  0  0  0  0  0  0  0  0  0
  -20.4208  -23.6163   22.4358 C   0  0  0  0  0  0  0  0  0  0  0  0
  -23.0134  -24.5058   21.9525 C   0  0  0  0  0  0  0  0  0  0  0  0
  -26.9351  -26.4854   24.4717 C   0  0  0  0  0  0  0  0  0  0  0  0
  -25.4187  -13.3276   21.9118 C   0  0  0  0  0  0  0  0  0  0  0  0
  -25.3593  -13.0886   19.5083 C   0  0  0  0  0  0  0  0  0  0  0  0
  -28.2127  -26.1629   24.0162 C   0  0  0  0  0  0  0  0  0  0  0  0
  -23.3647  -10.0628   19.2185 C   0  0  0  0  0  0  0  0  0  0  0  0
  -23.6046   -8.9256   18.4473 C   0  0  0  0  0  0  0  0  0  0  0  0
  -28.3403  -28.2905   22.8864 C   0  0  0  0  0  0  0  0  0  0  0  0
  -25.7602   -8.6623   19.5061 C   0  0  0  0  0  0  0  0  0  0  0  0
  -28.5776  -25.7561   19.5857 C   0  0  0  0  0  0  0  0  0  0  0  0
  -26.7171  -14.8134   20.5176 C   0  0  0  0  0  0  0  0  0  0  0  0
  -29.0375  -15.8607   20.3552 C   0  0  0  0  0  0  0  0  0  0  0  0
  -20.6366  -24.9659   22.1151 C   0  0  0  0  0  0  0  0  0  0  0  0
  -26.3451  -27.7104   24.1284 C   0  0  0  0  0  0  0  0  0  0  0  0
  -21.9463  -25.4154   21.8602 C   0  0  0  0  0  0  0  0  0  0  0  0
  -27.0561  -28.6272   23.3409 C   0  0  0  0  0  0  0  0  0  0  0  0
  -29.8332  -25.1877   19.5177 C   0  0  0  0  0  0  0  0  0  0  0  0
  -24.9463  -12.6730   20.7742 C   0  0  0  0  0  0  0  0  0  0  0  0
  -28.9143  -27.0643   23.2210 C   0  0  0  0  0  0  0  0  0  0  0  0
  -24.3226  -10.4998   20.1335 C   0  0  0  0  0  0  0  0  0  0  0  0
  -24.8023   -8.2253   18.5911 C   0  0  0  0  0  0  0  0  0  0  0  0
  -25.5203   -9.7996   20.2773 C   0  0  0  0  0  0  0  0  0  0  0  0
  -27.6313  -15.9191   20.3844 C   0  0  0  0  0  0  0  0  0  0  0  0
  -29.9044  -23.9737   18.8654 C   0  0  0  0  0  0  0  0  0  0  0  0
  -29.4326  -17.1686   20.2146 C   0  0  0  0  0  0  0  0  0  0  0  0
  -27.6698  -24.0085   18.4504 C   0  0  0  0  0  0  0  0  0  0  0  0
  -29.9087  -14.7257   20.4470 C   0  0  0  0  0  0  0  0  0  0  0  0
  -23.7492  -28.5744   22.5102 C   0  0  0  0  0  0  0  0  0  0  0  0
  -24.5871  -31.5431   23.5140 C   0  0  0  0  0  0  0  0  0  0  0  0
  -26.6249  -21.8542   17.8828 C   0  0  0  0  0  0  0  0  0  0  0  0
  -27.0447  -33.6494   24.5957 C   0  0  0  0  0  0  0  0  0  0  0  0
  -19.4447  -25.8811   21.9868 C   0  0  0  0  0  0  0  0  0  0  0  0
  -24.9769  -28.0544   24.6499 C   0  0  0  0  0  0  0  0  0  0  0  0
  -26.4755  -29.9640   22.9610 C   0  0  0  0  0  0  0  0  0  0  0  0
  -19.8104  -27.3631   22.0001 C   0  0  0  0  0  0  0  0  0  0  0  0
  -28.0576  -21.6325   21.2183 C   0  0  0  0  0  0  0  0  0  0  0  0
  -20.9895  -27.6303   21.0699 C   0  0  0  0  0  0  0  0  0  0  0  0
  -28.2110  -20.1213   21.3852 C   0  0  0  0  0  0  0  0  0  0  0  0
  -26.8083  -21.9845   20.4149 C   0  0  0  0  0  0  0  0  0  0  0  0
  -26.8962  -19.8060   19.2439 C   0  0  0  0  0  0  0  0  0  0  0  0
  -22.2363  -26.8623   21.5250 C   0  0  1  0  0  0  0  0  0  0  0  0
  -24.2676  -29.1145   23.8130 C   0  0  1  0  0  0  0  0  0  0  0  0
  -28.1609  -19.4077   20.0228 C   0  0  2  0  0  0  0  0  0  0  0  0
  -31.2119  -23.2654   18.7303 C   0  0  0  0  0  0  0  0  0  0  0  0
  -27.4324  -36.0261   25.3017 C   0  0  0  0  0  0  0  0  0  0  0  0
  -25.1223  -23.5724   18.6168 C   0  0  0  0  0  0  0  0  0  0  0  0
  -24.4722  -32.4261   20.5956 C   0  0  0  0  0  0  0  0  0  0  0  0
  -25.7586  -34.4758   21.2377 C   0  0  0  0  0  0  0  0  0  0  0  0
  -23.5030  -34.0625   22.2196 C   0  0  0  0  0  0  0  0  0  0  0  0
  -27.9234  -32.8252   27.2990 C   0  0  0  0  0  0  0  0  0  0  0  0
  -31.0329  -25.8697   20.1253 C   0  0  0  0  0  0  0  0  0  0  0  0
  -31.4865  -25.2530   21.4502 C   0  0  0  0  0  0  0  0  0  0  0  0
  -26.2525  -23.7331   16.3564 C   0  0  0  0  0  0  0  0  0  0  0  0
  -30.4465  -25.3703   22.5584 C   0  0  0  0  0  0  0  0  0  1  0  0
  -25.4598  -32.6487   22.9707 C   0  0  1  0  0  0  0  0  0  0  0  0
  -27.1003  -34.6162   25.7648 C   0  0  2  0  0  0  0  0  0  0  0  0
  -26.4685  -23.3538   17.8569 C   0  0  1  0  0  0  0  0  0  0  0  0
  -24.8088  -33.3773   21.7613 C   0  0  0  0  0  0  0  0  0  0  0  0
  -27.4700  -25.1920   19.0610 N   0  0  0  0  0  0  0  0  0  0  0  0
  -27.1645  -17.1654   20.2715 N   0  0  0  0  0  0  0  0  0  0  0  0
  -28.8388  -23.3531   18.3181 N   0  0  0  0  0  0  0  0  0  0  0  0
  -28.2837  -17.9023   20.1702 N   0  0  0  0  0  0  0  0  0  0  0  0
  -25.1321  -30.2514   23.4902 N   0  0  0  0  0  0  0  0  0  0  0  0
  -26.7847  -21.2635   19.1365 N   0  0  0  0  0  0  0  0  0  0  0  0
  -30.6472  -17.7512   20.1259 N   0  0  0  0  0  0  0  0  0  0  0  0
  -29.3367  -13.4541   20.5883 N   0  0  0  0  0  0  0  0  0  0  0  0
  -22.8575  -27.5282   22.6499 N   0  0  0  0  0  0  0  0  0  0  0  0
  -25.7645  -33.5205   24.1001 N   0  0  0  0  0  0  0  0  0  0  0  0
  -26.0549  -25.1963   16.1953 N   0  3  0  0  0  0  0  0  0  0  0  0
  -28.1386  -34.1862   26.7436 N   0  3  0  0  0  0  0  0  0  0  0  0
  -31.1579  -14.8376   20.4214 O   0  0  0  0  0  0  0  0  0  0  0  0
  -24.1291  -29.0712   21.4564 O   0  0  0  0  0  0  0  0  0  0  0  0
  -23.4661  -31.8165   23.9502 O   0  0  0  0  0  0  0  0  0  0  0  0
  -26.6080  -21.2287   16.8196 O   0  0  0  0  0  0  0  0  0  0  0  0
  -28.0383  -33.0697   24.1630 O   0  0  0  0  0  0  0  0  0  0  0  0
  -24.0825  -11.6286   20.8990 O   0  0  0  0  0  0  0  0  0  0  0  0
  -30.1613  -26.7518   22.7745 O   0  0  0  0  0  0  0  0  0  1  0  0
  -25.0319   -7.1324   17.8515 F   0  0  0  0  0  0  0  0  0  0  0  0
  -26.4438  -10.2139   21.1555 F   0  0  0  0  0  0  0  0  0  0  0  0
  1  2  1  0  0  0  0
  1  5  2  0  0  0  0
  2  6  2  0  0  0  0
  3  8  2  0  0  0  0
  3 16  1  0  0  0  0
  4  9  1  0  0  0  0
  4 16  2  0  0  0  0
  5 18  1  0  0  0  0
  6 20  1  0  0  0  0
  7 10  2  0  0  0  0
  7 19  1  0  0  0  0
  8 23  1  0  0  0  0
  9 23  2  0  0  0  0
 10 24  1  0  0  0  0
 11 12  2  0  0  0  0
 11 25  1  0  0  0  0
 12 26  1  0  0  0  0
 13 21  1  0  0  0  0
 13 24  2  0  0  0  0
 14 26  2  0  0  0  0
 14 27  1  0  0  0  0
 15 22  1  0  0  0  0
 15 64  2  0  0  0  0
 16 28  1  0  0  0  0
 17 28  1  0  0  0  0
 17 30  2  0  0  0  0
 17 32  1  0  0  0  0
 18 20  2  0  0  0  0
 18 37  1  0  0  0  0
 19 21  2  0  0  0  0
 19 38  1  0  0  0  0
 20 46  1  0  0  0  0
 21 39  1  0  0  0  0
 22 29  2  0  0  0  0
 22 56  1  0  0  0  0
 23 81  1  0  0  0  0
 24 82  1  0  0  0  0
 25 27  2  0  0  0  0
 25 81  1  0  0  0  0
 26 83  1  0  0  0  0
 27 84  1  0  0  0  0
 28 65  2  0  0  0  0
 29 49  1  0  0  0  0
 29 66  1  0  0  0  0
 30 67  1  0  0  0  0
 30 70  1  0  0  0  0
 31 62  1  0  0  0  0
 31 64  1  0  0  0  0
 31 66  2  0  0  0  0
 32 71  1  0  0  0  0
 32 76  2  0  0  0  0
 33 47  1  0  0  0  0
 33 72  1  0  0  0  0
 33 77  2  0  0  0  0
 34 60  1  0  0  0  0
 34 68  1  0  0  0  0
 34 78  2  0  0  0  0
 35 62  1  0  0  0  0
 35 69  1  0  0  0  0
 35 79  2  0  0  0  0
 36 61  1  0  0  0  0
 36 73  1  0  0  0  0
 36 80  2  0  0  0  0
 37 40  1  0  0  0  0
 38 47  1  0  0  0  0
 39 68  1  0  0  0  0
 40 42  1  0  0  0  0
 41 43  1  0  0  0  0
 41 44  1  0  0  0  0
 42 46  1  0  0  0  0
 43 48  1  0  0  0  0
 44 69  1  0  0  0  0
 45 48  1  0  0  0  0
 45 69  1  0  0  0  0
 46 72  1  0  0  0  0
 47 68  1  0  0  0  0
 48 67  1  0  0  0  0
 50 61  1  0  0  0  0
 51 62  1  0  0  0  0
 52 63  1  0  0  0  0
 53 63  1  0  0  0  0
 54 63  1  0  0  0  0
 55 75  1  0  0  0  0
 56 57  1  0  0  0  0
 57 59  1  0  0  0  0
 58 62  1  0  0  0  0
 58 74  1  0  0  0  0
 59 82  1  0  0  0  0
 60 63  1  0  0  0  0
 60 73  1  0  0  0  0
 61 75  1  0  0  0  0
 65 67  1  0  0  0  0
M  CHG  2  74   1  75   1
M  ISO  4  35 100  59 101  62 100  82 101
M  END
> <Batch ID>
0062

> <Smiles>
CNC(C)C(=O)NC(C(=O)N1Cc2cc([101O:1][101CH2:1]CCc3cnc([100C:0](C)(CN)[100C:0](=O)N4CCCC(n5nc(-c6ccc(Oc7ccc(F)cc7F)cc6)c(C(N)=O)c5N)C4)nc3C)ccc2CC1C(=O)NC1CCCc2ccccc21)C(C)(C)C

> <Shape>
0.244

> <Color>
0.076

> <Negative vol penalty>
0.000

$$$$

  -OEChem-04052318003D

 81 89  0     1  0  0  0  0  0999 V2000
  -29.2015  -11.6416   20.6197 C   0  0  0  0  0  0  0  0  0  0  0  0
  -29.2897  -12.9788   20.2462 C   0  0  0  0  0  0  0  0  0  0  0  0
  -22.8862  -26.4203   25.9087 C   0  0  0  0  0  0  0  0  0  0  0  0
  -21.5634  -28.4072   26.2819 C   0  0  0  0  0  0  0  0  0  0  0  0
  -27.9544  -11.0247   20.7088 C   0  0  0  0  0  0  0  0  0  0  0  0
  -28.1307  -13.6996   19.9603 C   0  0  0  0  0  0  0  0  0  0  0  0
  -28.1295  -18.2976   22.0823 C   0  0  0  0  0  0  0  0  0  0  0  0
  -22.8591  -26.1455   27.2760 C   0  0  0  0  0  0  0  0  0  0  0  0
  -21.5362  -28.1324   27.6491 C   0  0  0  0  0  0  0  0  0  0  0  0
  -28.8895  -19.2866   21.4593 C   0  0  0  0  0  0  0  0  0  0  0  0
  -20.6897  -24.8265   29.5091 C   0  0  0  0  0  0  0  0  0  0  0  0
  -20.4226  -23.5150   29.9015 C   0  0  0  0  0  0  0  0  0  0  0  0
  -26.8919  -20.1660   20.4319 C   0  0  0  0  0  0  0  0  0  0  0  0
  -22.5638  -23.4123   31.0159 C   0  0  0  0  0  0  0  0  0  0  0  0
  -30.9471  -27.3645   20.0440 C   0  0  0  0  0  0  0  0  0  0  0  0
  -22.2384  -27.5512   25.4117 C   0  0  0  0  0  0  0  0  0  0  0  0
  -21.3445  -27.4050   23.0269 C   0  0  0  0  0  0  0  0  0  0  0  0
  -26.7789  -11.7409   20.4333 C   0  0  0  0  0  0  0  0  0  0  0  0
  -26.7442  -18.2287   21.8758 C   0  0  0  0  0  0  0  0  0  0  0  0
  -26.8667  -13.0913   20.0445 C   0  0  0  0  0  0  0  0  0  0  0  0
  -26.1163  -19.1768   21.0555 C   0  0  0  0  0  0  0  0  0  0  0  0
  -22.1841  -27.0015   28.1462 C   0  0  0  0  0  0  0  0  0  0  0  0
  -28.2712  -20.2192   20.6317 C   0  0  0  0  0  0  0  0  0  0  0  0
  -21.8939  -25.4310   29.8700 C   0  0  0  0  0  0  0  0  0  0  0  0
  -21.3596  -22.8079   30.6549 C   0  0  0  0  0  0  0  0  0  0  0  0
  -22.8309  -24.7239   30.6234 C   0  0  0  0  0  0  0  0  0  0  0  0
  -22.2665  -27.8359   23.9995 C   0  0  0  0  0  0  0  0  0  0  0  0
  -21.8120  -27.9381   21.8506 C   0  0  0  0  0  0  0  0  0  0  0  0
  -28.9024  -27.7668   19.9237 C   0  0  0  0  0  0  0  0  0  0  0  0
  -20.1704  -26.5952   23.1736 C   0  0  0  0  0  0  0  0  0  0  0  0
  -24.7664  -16.0743   20.6306 C   0  0  0  0  0  0  0  0  0  0  0  0
  -22.4888  -18.1345   21.6747 C   0  0  0  0  0  0  0  0  0  0  0  0
  -21.6509  -21.3232   22.5559 C   0  0  0  0  0  0  0  0  0  0  0  0
  -27.4738  -29.7442   20.4177 C   0  0  0  0  0  0  0  0  0  0  0  0
  -25.4566  -11.0182   20.4972 C   0  0  0  0  0  0  0  0  0  0  0  0
  -25.9347  -17.1721   22.5763 C   0  0  0  0  0  0  0  0  0  0  0  0
  -24.6292  -19.1585   20.8172 C   0  0  0  0  0  0  0  0  0  0  0  0
  -24.2521  -11.9549   20.5413 C   0  0  0  0  0  0  0  0  0  0  0  0
  -24.3147  -31.6279   20.1317 C   0  0  0  0  0  0  0  0  0  0  0  0
  -24.3896  -13.0512   19.4897 C   0  0  0  0  0  0  0  0  0  0  0  0
  -23.3761  -30.8619   21.0625 C   0  0  0  0  0  0  0  0  0  0  0  0
  -25.7676  -31.5321   20.5876 C   0  0  0  0  0  0  0  0  0  0  0  0
  -25.3113  -29.3657   21.6962 C   0  0  0  0  0  0  0  0  0  0  0  0
  -25.6306  -13.9133   19.7506 C   0  0  1  0  0  0  0  0  0  0  0  0
  -24.6050  -16.8830   21.8866 C   0  0  1  0  0  0  0  0  0  0  0  0
  -23.8453  -29.4074   21.2393 C   0  0  1  0  0  0  0  0  0  0  0  0
  -19.7052  -22.7065   23.3293 C   0  0  0  0  0  0  0  0  0  0  0  0
  -21.3588  -18.1253   18.8405 C   0  0  0  0  0  0  0  0  0  0  0  0
  -20.0636  -20.1867   19.4250 C   0  0  0  0  0  0  0  0  0  0  0  0
  -19.6350  -18.0570   20.6511 C   0  0  0  0  0  0  0  0  0  0  0  0
  -26.4685  -27.7408   19.3474 C   0  0  0  0  0  0  0  0  0  0  0  0
  -23.0113  -22.0311   25.0871 C   0  0  0  0  0  0  0  0  0  0  0  0
  -30.4837  -23.6897   19.9798 C   0  0  0  0  0  0  0  0  0  0  0  0
  -31.0513  -22.3453   19.5219 C   0  0  0  0  0  0  0  0  0  0  0  0
  -31.0756  -24.8815   19.2188 C   0  0  0  0  0  0  0  0  0  0  0  0
  -30.4152  -21.1842   20.2744 C   0  0  0  0  0  0  0  0  0  1  0  0
  -21.7765  -19.3284   21.0864 C   0  0  1  0  0  0  0  0  0  0  0  0
  -20.9030  -21.8728   23.7571 C   0  0  2  0  0  0  0  0  0  0  0  0
  -20.7367  -18.9238   20.0035 C   0  0  0  0  0  0  0  0  0  0  0  0
  -30.0281  -28.3504   20.2636 N   0  0  0  0  0  0  0  0  0  0  0  0
  -23.2457  -28.5850   23.4857 N   0  0  0  0  0  0  0  0  0  0  0  0
  -29.1512  -26.4916   19.5214 N   0  0  0  0  0  0  0  0  0  0  0  0
  -30.4608  -26.2076   19.5895 N   0  0  0  0  0  0  0  0  0  0  0  0
  -22.9417  -28.6288   22.1773 N   0  0  0  0  0  0  0  0  0  0  0  0
  -23.8819  -18.1022   21.5194 N   0  0  0  0  0  0  0  0  0  0  0  0
  -26.1744  -30.1413   20.7920 N   0  0  0  0  0  0  0  0  0  0  0  0
  -21.3628  -27.8787   20.5789 N   0  0  0  0  0  0  0  0  0  0  0  0
  -19.8348  -26.1307   24.4526 N   0  0  0  0  0  0  0  0  0  0  0  0
  -25.3785  -14.8506   20.8241 N   0  0  0  0  0  0  0  0  0  0  0  0
  -21.2107  -20.0622   22.2133 N   0  0  0  0  0  0  0  0  0  0  0  0
  -27.6104  -28.4089   19.9802 N   0  0  0  0  0  0  0  0  0  0  0  0
  -21.8027  -22.7302   24.5796 N   0  3  0  0  0  0  0  0  0  0  0  0
  -19.4497  -26.2790   22.1969 O   0  0  0  0  0  0  0  0  0  0  0  0
  -24.3641  -16.5263   19.5650 O   0  0  0  0  0  0  0  0  0  0  0  0
  -21.8341  -17.2661   22.2570 O   0  0  0  0  0  0  0  0  0  0  0  0
  -22.5345  -21.9514   21.9768 O   0  0  0  0  0  0  0  0  0  0  0  0
  -28.4290  -30.5293   20.4442 O   0  0  0  0  0  0  0  0  0  0  0  0
  -22.1573  -26.7335   29.4803 O   0  0  0  0  0  0  0  0  0  0  0  0
  -29.0108  -21.1852   20.0219 O   0  0  0  0  0  0  0  0  0  1  0  0
  -21.1023  -21.5489   31.0330 F   0  0  0  0  0  0  0  0  0  0  0  0
  -23.9890  -25.2997   30.9742 F   0  0  0  0  0  0  0  0  0  0  0  0
  1  2  1  0  0  0  0
  1  5  2  0  0  0  0
  2  6  2  0  0  0  0
  3  8  2  0  0  0  0
  3 16  1  0  0  0  0
  4  9  1  0  0  0  0
  4 16  2  0  0  0  0
  5 18  1  0  0  0  0
  6 20  1  0  0  0  0
  7 10  2  0  0  0  0
  7 19  1  0  0  0  0
  8 22  1  0  0  0  0
  9 22  2  0  0  0  0
 10 23  1  0  0  0  0
 11 12  2  0  0  0  0
 11 24  1  0  0  0  0
 12 25  1  0  0  0  0
 13 21  1  0  0  0  0
 13 23  2  0  0  0  0
 14 25  2  0  0  0  0
 14 26  1  0  0  0  0
 15 60  2  0  0  0  0
 15 63  1  0  0  0  0
 16 27  1  0  0  0  0
 17 27  1  0  0  0  0
 17 28  2  0  0  0  0
 17 30  1  0  0  0  0
 18 20  2  0  0  0  0
 18 35  1  0  0  0  0
 19 21  2  0  0  0  0
 19 36  1  0  0  0  0
 20 44  1  0  0  0  0
 21 37  1  0  0  0  0
 22 78  1  0  0  0  0
 23 79  1  0  0  0  0
 24 26  2  0  0  0  0
 24 78  1  0  0  0  0
 25 80  1  0  0  0  0
 26 81  1  0  0  0  0
 27 61  2  0  0  0  0
 28 64  1  0  0  0  0
 28 67  1  0  0  0  0
 29 60  1  0  0  0  0
 29 62  2  0  0  0  0
 29 71  1  0  0  0  0
 30 68  1  0  0  0  0
 30 73  2  0  0  0  0
 31 45  1  0  0  0  0
 31 69  1  0  0  0  0
 31 74  2  0  0  0  0
 32 57  1  0  0  0  0
 32 65  1  0  0  0  0
 32 75  2  0  0  0  0
 33 58  1  0  0  0  0
 33 70  1  0  0  0  0
 33 76  2  0  0  0  0
 34 66  1  0  0  0  0
 34 71  1  0  0  0  0
 34 77  2  0  0  0  0
 35 38  1  0  0  0  0
 36 45  1  0  0  0  0
 37 65  1  0  0  0  0
 38 40  1  0  0  0  0
 39 41  1  0  0  0  0
 39 42  1  0  0  0  0
 40 44  1  0  0  0  0
 41 46  1  0  0  0  0
 42 66  1  0  0  0  0
 43 46  1  0  0  0  0
 43 66  1  0  0  0  0
 44 69  1  0  0  0  0
 45 65  1  0  0  0  0
 46 64  1  0  0  0  0
 47 58  1  0  0  0  0
 48 59  1  0  0  0  0
 49 59  1  0  0  0  0
 50 59  1  0  0  0  0
 51 71  1  0  0  0  0
 52 72  1  0  0  0  0
 53 54  1  0  0  0  0
 53 55  1  0  0  0  0
 54 56  1  0  0  0  0
 55 63  1  0  0  0  0
 56 79  1  0  0  0  0
 57 59  1  0  0  0  0
 57 70  1  0  0  0  0
 58 72  1  0  0  0  0
 61 64  1  0  0  0  0
 62 63  1  0  0  0  0
M  CHG  1  72   1
M  ISO  4  34 100  56 101  71 100  79 101
M  END
> <Batch ID>
0062

> <Smiles>
CNC(C)C(=O)NC(C(=O)N1Cc2cc([101O:1][101CH2:1]CCCn3cnc([100N:0](C)[100C:0](=O)N4CCCC(n5nc(-c6ccc(Oc7ccc(F)cc7F)cc6)c(C(N)=O)c5N)C4)n3)ccc2CC1C(=O)NC1CCCc2ccccc21)C(C)(C)C

> <Shape>
0.214

> <Color>
0.085

> <Negative vol penalty>
0.000

$$$$

  -OEChem-04052318003D

 86 94  0     1  0  0  0  0  0999 V2000
  -19.1117  -23.8199   22.2523 C   0  0  0  0  0  0  0  0  0  0  0  0
  -20.4947  -23.9620   22.2585 C   0  0  0  0  0  0  0  0  0  0  0  0
  -25.8473  -14.4704   18.5094 C   0  0  0  0  0  0  0  0  0  0  0  0
  -23.8224  -14.5847   19.8223 C   0  0  0  0  0  0  0  0  0  0  0  0
  -18.2991  -24.9393   22.4191 C   0  0  0  0  0  0  0  0  0  0  0  0
  -21.0657  -25.2217   22.4434 C   0  0  0  0  0  0  0  0  0  0  0  0
  -25.9554  -25.4062   22.9531 C   0  0  0  0  0  0  0  0  0  0  0  0
  -26.1840  -13.2691   19.1332 C   0  0  0  0  0  0  0  0  0  0  0  0
  -24.1590  -13.3834   20.4461 C   0  0  0  0  0  0  0  0  0  0  0  0
  -26.8327  -25.1869   21.8920 C   0  0  0  0  0  0  0  0  0  0  0  0
  -24.0366  -10.0842   19.7245 C   0  0  0  0  0  0  0  0  0  0  0  0
  -23.0329   -9.1262   19.8669 C   0  0  0  0  0  0  0  0  0  0  0  0
  -27.2280  -27.5615   21.7360 C   0  0  0  0  0  0  0  0  0  0  0  0
  -23.3000   -9.2030   22.2669 C   0  0  0  0  0  0  0  0  0  0  0  0
  -25.7248  -25.8172   16.0920 C   0  0  0  0  0  0  0  0  0  0  0  0
  -24.6665  -15.1282   18.8540 C   0  0  0  0  0  0  0  0  0  0  0  0
  -23.5643  -16.5344   17.0331 C   0  0  0  0  0  0  0  0  0  0  0  0
  -18.8611  -26.2147   22.5936 C   0  0  0  0  0  0  0  0  0  0  0  0
  -25.6991  -26.7079   23.4074 C   0  0  0  0  0  0  0  0  0  0  0  0
  -20.2626  -26.3602   22.6373 C   0  0  0  0  0  0  0  0  0  0  0  0
  -26.3491  -27.7944   22.8048 C   0  0  0  0  0  0  0  0  0  0  0  0
  -25.3398  -12.7256   20.1015 C   0  0  0  0  0  0  0  0  0  0  0  0
  -27.4669  -26.2648   21.2813 C   0  0  0  0  0  0  0  0  0  0  0  0
  -24.6721  -10.6016   20.8533 C   0  0  0  0  0  0  0  0  0  0  0  0
  -22.6646   -8.6856   21.1381 C   0  0  0  0  0  0  0  0  0  0  0  0
  -24.3038  -10.1610   22.1244 C   0  0  0  0  0  0  0  0  0  0  0  0
  -24.3185  -16.3695   18.2103 C   0  0  0  0  0  0  0  0  0  0  0  0
  -26.4357  -26.2957   17.1562 C   0  0  0  0  0  0  0  0  0  0  0  0
  -23.5170  -17.8939   16.8433 C   0  0  0  0  0  0  0  0  0  0  0  0
  -24.2838  -26.4195   17.6607 C   0  0  0  0  0  0  0  0  0  0  0  0
  -22.9604  -15.5470   16.1870 C   0  0  0  0  0  0  0  0  0  0  0  0
  -23.1177  -28.5541   23.5851 C   0  0  0  0  0  0  0  0  0  0  0  0
  -25.1314  -30.5496   25.1616 C   0  0  0  0  0  0  0  0  0  0  0  0
  -28.3380  -31.5588   25.7495 C   0  0  0  0  0  0  0  0  0  0  0  0
  -22.7042  -22.9432   18.7904 C   0  0  0  0  0  0  0  0  0  0  0  0
  -17.9349  -27.3909   22.7775 C   0  0  0  0  0  0  0  0  0  0  0  0
  -24.7707  -26.9255   24.5706 C   0  0  0  0  0  0  0  0  0  0  0  0
  -26.1237  -29.2097   23.2681 C   0  0  0  0  0  0  0  0  0  0  0  0
  -18.6174  -28.7308   22.5221 C   0  0  0  0  0  0  0  0  0  0  0  0
  -26.0600  -21.6286   19.1184 C   0  0  0  0  0  0  0  0  0  0  0  0
  -19.9276  -28.8018   23.2922 C   0  0  0  0  0  0  0  0  0  0  0  0
  -25.8376  -20.1466   18.8111 C   0  0  0  0  0  0  0  0  0  0  0  0
  -24.8939  -22.2096   19.9127 C   0  0  0  0  0  0  0  0  0  0  0  0
  -23.3371  -20.5530   18.9610 C   0  0  0  0  0  0  0  0  0  0  0  0
  -20.9058  -27.7248   22.8062 C   0  0  1  0  0  0  0  0  0  0  0  0
  -24.1892  -28.3352   24.6154 C   0  0  1  0  0  0  0  0  0  0  0  0
  -24.4711  -19.9125   18.1402 C   0  0  2  0  0  0  0  0  0  0  0  0
  -29.6660  -33.2381   27.0586 C   0  0  0  0  0  0  0  0  0  0  0  0
  -23.3179  -24.0005   15.2870 C   0  0  0  0  0  0  0  0  0  0  0  0
  -23.2200  -26.3299   14.3019 C   0  0  0  0  0  0  0  0  0  0  0  0
  -22.0272  -27.6845   17.7246 C   0  0  0  0  0  0  0  0  0  0  0  0
  -23.3361  -27.3238   19.8012 C   0  0  0  0  0  0  0  0  0  0  0  0
  -24.3142  -32.7297   23.1895 C   0  0  0  0  0  0  0  0  0  0  0  0
  -26.3150  -34.0446   23.9214 C   0  0  0  0  0  0  0  0  0  0  0  0
  -24.5190  -33.4928   25.5622 C   0  0  0  0  0  0  0  0  0  0  0  0
  -29.7778  -29.4388   27.2299 C   0  0  0  0  0  0  0  0  0  0  0  0
  -27.9196  -26.4493   17.3750 C   0  0  0  0  0  0  0  0  0  0  0  0
  -28.5791  -25.2225   18.0088 C   0  0  0  0  0  0  0  0  0  0  0  0
  -22.2044  -25.3718   18.6953 C   0  0  0  0  0  0  0  0  0  0  0  0
  -28.0700  -24.9216   19.4137 C   0  0  0  0  0  0  0  0  0  1  0  0
  -26.0668  -31.6632   24.7569 C   0  0  1  0  0  0  0  0  0  0  0  0
  -29.0873  -31.8318   27.0412 C   0  0  2  0  0  0  0  0  0  0  0  0
  -23.2911  -25.5008   15.5856 C   0  0  0  0  0  0  0  0  0  0  0  0
  -23.0275  -26.6818   18.4062 C   0  0  0  0  0  0  0  0  0  0  0  0
  -25.3067  -32.9562   24.3473 C   0  0  0  0  0  0  0  0  0  0  0  0
  -24.7215  -17.5314   18.7316 N   0  0  0  0  0  0  0  0  0  0  0  0
  -24.3964  -25.9050   16.4318 N   0  0  0  0  0  0  0  0  0  0  0  0
  -24.2187  -18.4394   17.8778 N   0  0  0  0  0  0  0  0  0  0  0  0
  -25.5188  -26.6614   18.1121 N   0  3  0  0  0  0  0  0  0  0  0  0
  -25.2021  -29.3714   24.4048 N   0  0  0  0  0  0  0  0  0  0  0  0
  -23.6252  -21.9693   19.2107 N   0  0  0  0  0  0  0  0  0  0  0  0
  -22.9441  -18.6640   15.8940 N   0  0  0  0  0  0  0  0  0  0  0  0
  -23.1061  -14.1954   16.5280 N   0  0  0  0  0  0  0  0  0  0  0  0
  -22.0466  -27.6878   23.6944 N   0  0  0  0  0  0  0  0  0  0  0  0
  -26.9939  -31.8420   25.8691 N   0  0  0  0  0  0  0  0  0  0  0  0
  -23.0487  -24.2597   19.0712 N   0  0  0  0  0  0  0  0  0  0  0  0
  -30.2061  -30.8612   27.2061 N   0  3  0  0  0  0  0  0  0  0  0  0
  -22.3248  -15.8534   15.1498 O   0  0  0  0  0  0  0  0  0  0  0  0
  -23.2519  -29.4441   22.7535 O   0  0  0  0  0  0  0  0  0  0  0  0
  -24.3711  -30.7162   26.1186 O   0  0  0  0  0  0  0  0  0  0  0  0
  -28.8906  -31.1400   24.7346 O   0  0  0  0  0  0  0  0  0  0  0  0
  -21.6543  -22.6607   18.2030 O   0  0  0  0  0  0  0  0  0  0  0  0
  -25.6679  -11.5532   20.7103 O   0  0  0  0  0  0  0  0  0  0  0  0
  -28.3231  -26.0536   20.2449 O   0  0  0  0  0  0  0  0  0  1  0  0
  -21.6996   -7.7667   21.2747 F   0  0  0  0  0  0  0  0  0  0  0  0
  -24.9099  -10.6553   23.2126 F   0  0  0  0  0  0  0  0  0  0  0  0
  1  2  1  0  0  0  0
  1  5  2  0  0  0  0
  2  6  2  0  0  0  0
  3  8  2  0  0  0  0
  3 16  1  0  0  0  0
  4  9  1  0  0  0  0
  4 16  2  0  0  0  0
  5 18  1  0  0  0  0
  6 20  1  0  0  0  0
  7 10  2  0  0  0  0
  7 19  1  0  0  0  0
  8 22  1  0  0  0  0
  9 22  2  0  0  0  0
 10 23  1  0  0  0  0
 11 12  2  0  0  0  0
 11 24  1  0  0  0  0
 12 25  1  0  0  0  0
 13 21  1  0  0  0  0
 13 23  2  0  0  0  0
 14 25  2  0  0  0  0
 14 26  1  0  0  0  0
 15 28  2  0  0  0  0
 15 67  1  0  0  0  0
 16 27  1  0  0  0  0
 17 27  1  0  0  0  0
 17 29  2  0  0  0  0
 17 31  1  0  0  0  0
 18 20  2  0  0  0  0
 18 36  1  0  0  0  0
 19 21  2  0  0  0  0
 19 37  1  0  0  0  0
 20 45  1  0  0  0  0
 21 38  1  0  0  0  0
 22 83  1  0  0  0  0
 23 84  1  0  0  0  0
 24 26  2  0  0  0  0
 24 83  1  0  0  0  0
 25 85  1  0  0  0  0
 26 86  1  0  0  0  0
 27 66  2  0  0  0  0
 28 57  1  0  0  0  0
 28 69  1  0  0  0  0
 29 68  1  0  0  0  0
 29 72  1  0  0  0  0
 30 64  1  0  0  0  0
 30 67  1  0  0  0  0
 30 69  2  0  0  0  0
 31 73  1  0  0  0  0
 31 78  2  0  0  0  0
 32 46  1  0  0  0  0
 32 74  1  0  0  0  0
 32 79  2  0  0  0  0
 33 61  1  0  0  0  0
 33 70  1  0  0  0  0
 33 80  2  0  0  0  0
 34 62  1  0  0  0  0
 34 75  1  0  0  0  0
 34 81  2  0  0  0  0
 35 71  1  0  0  0  0
 35 76  1  0  0  0  0
 35 82  2  0  0  0  0
 36 39  1  0  0  0  0
 37 46  1  0  0  0  0
 38 70  1  0  0  0  0
 39 41  1  0  0  0  0
 40 42  1  0  0  0  0
 40 43  1  0  0  0  0
 41 45  1  0  0  0  0
 42 47  1  0  0  0  0
 43 71  1  0  0  0  0
 44 47  1  0  0  0  0
 44 71  1  0  0  0  0
 45 74  1  0  0  0  0
 46 70  1  0  0  0  0
 47 68  1  0  0  0  0
 48 62  1  0  0  0  0
 49 63  1  0  0  0  0
 50 63  1  0  0  0  0
 51 64  1  0  0  0  0
 52 64  1  0  0  0  0
 53 65  1  0  0  0  0
 54 65  1  0  0  0  0
 55 65  1  0  0  0  0
 56 77  1  0  0  0  0
 57 58  1  0  0  0  0
 58 60  1  0  0  0  0
 59 64  1  0  0  0  0
 59 76  1  0  0  0  0
 60 84  1  0  0  0  0
 61 65  1  0  0  0  0
 61 75  1  0  0  0  0
 62 77  1  0  0  0  0
 63 67  1  0  0  0  0
 66 68  1  0  0  0  0
M  CHG  2  69   1  77   1
M  ISO  4  35 100  60 101  76 100  84 101
M  END
> <Batch ID>
0062

> <Smiles>
CNC(C)C(=O)NC(C(=O)N1Cc2cc([101O:1][101CH2:1]CCc3cn(C(C)C)c(C(C)(C)C[100NH:0][100C:0](=O)N4CCCC(n5nc(-c6ccc(Oc7ccc(F)cc7F)cc6)c(C(N)=O)c5N)C4)n3)ccc2CC1C(=O)NC1CCCc2ccccc21)C(C)(C)C

> <Shape>
0.201

> <Color>
0.067

> <Negative vol penalty>
0.000

$$$$

  -OEChem-04052318003D

 86 94  0     1  0  0  0  0  0999 V2000
  -25.0888  -18.2700   25.0861 C   0  0  0  0  0  0  0  0  0  0  0  0
  -25.8647  -19.3444   24.6629 C   0  0  0  0  0  0  0  0  0  0  0  0
  -26.0778  -13.7733   20.4593 C   0  0  0  0  0  0  0  0  0  0  0  0
  -24.2042  -15.2975   20.5199 C   0  0  0  0  0  0  0  0  0  0  0  0
  -23.7518  -18.1826   24.7006 C   0  0  0  0  0  0  0  0  0  0  0  0
  -25.3042  -20.3315   23.8529 C   0  0  0  0  0  0  0  0  0  0  0  0
  -26.5465  -25.0078   25.3475 C   0  0  0  0  0  0  0  0  0  0  0  0
  -25.3143  -12.8087   21.1168 C   0  0  0  0  0  0  0  0  0  0  0  0
  -23.4407  -14.3329   21.1774 C   0  0  0  0  0  0  0  0  0  0  0  0
  -27.8199  -25.4661   25.0125 C   0  0  0  0  0  0  0  0  0  0  0  0
  -23.7441   -9.8169   22.4579 C   0  0  0  0  0  0  0  0  0  0  0  0
  -23.7927   -8.5100   21.9729 C   0  0  0  0  0  0  0  0  0  0  0  0
  -26.8821  -26.7041   23.1667 C   0  0  0  0  0  0  0  0  0  0  0  0
  -22.9479   -9.2700   19.8407 C   0  0  0  0  0  0  0  0  0  0  0  0
  -29.1497  -25.6558   17.8688 C   0  0  0  0  0  0  0  0  0  0  0  0
  -25.5227  -15.0177   20.1609 C   0  0  0  0  0  0  0  0  0  0  0  0
  -26.4234  -16.2084   18.0924 C   0  0  0  0  0  0  0  0  0  0  0  0
  -23.1721  -19.1740   23.8934 C   0  0  0  0  0  0  0  0  0  0  0  0
  -25.4309  -25.3861   24.5868 C   0  0  0  0  0  0  0  0  0  0  0  0
  -23.9586  -20.2565   23.4551 C   0  0  0  0  0  0  0  0  0  0  0  0
  -25.5953  -26.2513   23.4957 C   0  0  0  0  0  0  0  0  0  0  0  0
  -23.9958  -13.0885   21.4759 C   0  0  0  0  0  0  0  0  0  0  0  0
  -27.9882  -26.3121   23.9202 C   0  0  0  0  0  0  0  0  0  0  0  0
  -23.2974  -10.8503   21.6344 C   0  0  0  0  0  0  0  0  0  0  0  0
  -23.3947   -8.2365   20.6643 C   0  0  0  0  0  0  0  0  0  0  0  0
  -22.8993  -10.5769   20.3259 C   0  0  0  0  0  0  0  0  0  0  0  0
  -26.3110  -16.0147   19.4822 C   0  0  0  0  0  0  0  0  0  0  0  0
  -29.7507  -24.5700   18.5333 C   0  0  0  0  0  0  0  0  0  0  0  0
  -29.6593  -26.7666   18.4956 C   0  0  0  0  0  0  0  0  0  0  0  0
  -27.2831  -17.2716   17.9622 C   0  0  0  0  0  0  0  0  0  0  0  0
  -25.8057  -15.4913   17.0153 C   0  0  0  0  0  0  0  0  0  0  0  0
  -23.2827  -23.8351   22.8309 C   0  0  0  0  0  0  0  0  0  0  0  0
  -21.9053  -26.7651   22.6308 C   0  0  0  0  0  0  0  0  0  0  0  0
  -22.2707  -30.1548   22.7831 C   0  0  0  0  0  0  0  0  0  0  0  0
  -28.3282  -22.2487   20.9987 C   0  0  0  0  0  0  0  0  0  0  0  0
  -21.7356  -19.0118   23.4634 C   0  0  0  0  0  0  0  0  0  0  0  0
  -24.0605  -24.9045   24.9773 C   0  0  0  0  0  0  0  0  0  0  0  0
  -24.4274  -26.7033   22.6590 C   0  0  0  0  0  0  0  0  0  0  0  0
  -21.1162  -20.2937   22.9126 C   0  0  0  0  0  0  0  0  0  0  0  0
  -30.6828  -19.3969   20.8407 C   0  0  0  0  0  0  0  0  0  0  0  0
  -22.0631  -20.9603   21.9197 C   0  0  0  0  0  0  0  0  0  0  0  0
  -29.7788  -18.2418   20.4134 C   0  0  0  0  0  0  0  0  0  0  0  0
  -29.9140  -20.4615   21.6174 C   0  0  0  0  0  0  0  0  0  0  0  0
  -27.8148  -19.8292   20.4738 C   0  0  0  0  0  0  0  0  0  0  0  0
  -23.3799  -21.3599   22.5963 C   0  0  1  0  0  0  0  0  0  0  0  0
  -23.0630  -24.9413   23.8237 C   0  0  1  0  0  0  0  0  0  0  0  0
  -28.5490  -18.7616   19.6488 C   0  0  2  0  0  0  0  0  0  0  0  0
  -29.4217  -28.2033   18.2648 C   0  0  0  0  0  0  0  0  0  0  0  0
  -20.9732  -32.2889   22.5396 C   0  0  0  0  0  0  0  0  0  0  0  0
  -32.8203  -26.8982   20.2027 C   0  0  0  0  0  0  0  0  0  0  0  0
  -29.9620  -22.7584   16.8182 C   0  0  0  0  0  0  0  0  0  0  0  0
  -21.9321  -26.4326   19.5978 C   0  0  0  0  0  0  0  0  0  0  0  0
  -21.5338  -28.8959   19.3940 C   0  0  0  0  0  0  0  0  0  0  0  0
  -19.8404  -27.4492   20.5174 C   0  0  0  0  0  0  0  0  0  0  0  0
  -26.7098  -23.8811   20.1067 C   0  0  0  0  0  0  0  0  0  0  0  0
  -22.8403  -30.9555   25.5747 C   0  0  0  0  0  0  0  0  0  0  0  0
  -30.9625  -26.8479   21.9098 C   0  0  0  0  0  0  0  0  0  0  0  0
  -28.1047  -22.6245   18.5064 C   0  0  0  0  0  0  0  0  0  0  0  0
  -29.4775  -27.0332   22.2119 C   0  0  0  0  0  0  0  0  0  1  0  0
  -22.0249  -27.9408   21.6913 C   0  0  1  0  0  0  0  0  0  0  0  0
  -21.4688  -31.2230   23.5045 C   0  0  2  0  0  0  0  0  0  0  0  0
  -31.3214  -27.1223   20.4367 C   0  0  2  0  0  0  0  0  0  0  0  0
  -29.5558  -23.1351   18.2659 C   0  0  2  0  0  0  0  0  0  0  0  0
  -21.3552  -27.6697   20.3145 C   0  0  0  0  0  0  0  0  0  0  0  0
  -27.0411  -16.8850   20.1848 N   0  0  0  0  0  0  0  0  0  0  0  0
  -30.5789  -24.9561   19.5075 N   0  0  0  0  0  0  0  0  0  0  0  0
  -30.5020  -26.2970   19.4597 N   0  0  0  0  0  0  0  0  0  0  0  0
  -27.6205  -17.6358   19.2325 N   0  0  0  0  0  0  0  0  0  0  0  0
  -23.1084  -26.2003   23.0772 N   0  0  0  0  0  0  0  0  0  0  0  0
  -28.7266  -20.9064   20.8871 N   0  0  0  0  0  0  0  0  0  0  0  0
  -27.7758  -17.9211   16.8862 N   0  0  0  0  0  0  0  0  0  0  0  0
  -24.9499  -14.4258   17.3260 N   0  0  0  0  0  0  0  0  0  0  0  0
  -23.2023  -22.5672   23.3744 N   0  0  0  0  0  0  0  0  0  0  0  0
  -21.4798  -29.0906   22.4049 N   0  0  0  0  0  0  0  0  0  0  0  0
  -27.6810  -22.8179   19.8915 N   0  0  0  0  0  0  0  0  0  0  0  0
  -22.3053  -31.8839   24.5458 N   0  3  0  0  0  0  0  0  0  0  0  0
  -26.0197  -15.7763   15.8126 O   0  0  0  0  0  0  0  0  0  0  0  0
  -23.5070  -24.1114   21.6582 O   0  0  0  0  0  0  0  0  0  0  0  0
  -20.7857  -26.3673   22.9621 O   0  0  0  0  0  0  0  0  0  0  0  0
  -23.4774  -30.2562   22.5726 O   0  0  0  0  0  0  0  0  0  0  0  0
  -28.5474  -22.9038   22.0257 O   0  0  0  0  0  0  0  0  0  0  0  0
  -23.2505  -12.1474   22.1172 O   0  0  0  0  0  0  0  0  0  0  0  0
  -29.2301  -26.7604   23.5906 O   0  0  0  0  0  0  0  0  0  1  0  0
  -23.4428   -6.9817   20.1981 F   0  0  0  0  0  0  0  0  0  0  0  0
  -22.4704  -11.5657   19.5296 F   0  0  0  0  0  0  0  0  0  0  0  0
  -30.3467  -22.3044   19.0568 F   0  0  0  0  0  0  0  0  0  0  0  0
  1  2  1  0  0  0  0
  1  5  2  0  0  0  0
  2  6  2  0  0  0  0
  3  8  2  0  0  0  0
  3 16  1  0  0  0  0
  4  9  1  0  0  0  0
  4 16  2  0  0  0  0
  5 18  1  0  0  0  0
  6 20  1  0  0  0  0
  7 10  2  0  0  0  0
  7 19  1  0  0  0  0
  8 22  1  0  0  0  0
  9 22  2  0  0  0  0
 10 23  1  0  0  0  0
 11 12  2  0  0  0  0
 11 24  1  0  0  0  0
 12 25  1  0  0  0  0
 13 21  1  0  0  0  0
 13 23  2  0  0  0  0
 14 25  2  0  0  0  0
 14 26  1  0  0  0  0
 15 28  1  0  0  0  0
 15 29  2  0  0  0  0
 16 27  1  0  0  0  0
 17 27  1  0  0  0  0
 17 30  2  0  0  0  0
 17 31  1  0  0  0  0
 18 20  2  0  0  0  0
 18 36  1  0  0  0  0
 19 21  2  0  0  0  0
 19 37  1  0  0  0  0
 20 45  1  0  0  0  0
 21 38  1  0  0  0  0
 22 82  1  0  0  0  0
 23 83  1  0  0  0  0
 24 26  2  0  0  0  0
 24 82  1  0  0  0  0
 25 84  1  0  0  0  0
 26 85  1  0  0  0  0
 27 65  2  0  0  0  0
 28 63  1  0  0  0  0
 28 66  2  0  0  0  0
 29 48  1  0  0  0  0
 29 67  1  0  0  0  0
 30 68  1  0  0  0  0
 30 71  1  0  0  0  0
 31 72  1  0  0  0  0
 31 77  2  0  0  0  0
 32 46  1  0  0  0  0
 32 73  1  0  0  0  0
 32 78  2  0  0  0  0
 33 60  1  0  0  0  0
 33 69  1  0  0  0  0
 33 79  2  0  0  0  0
 34 61  1  0  0  0  0
 34 74  1  0  0  0  0
 34 80  2  0  0  0  0
 35 70  1  0  0  0  0
 35 75  1  0  0  0  0
 35 81  2  0  0  0  0
 36 39  1  0  0  0  0
 37 46  1  0  0  0  0
 38 69  1  0  0  0  0
 39 41  1  0  0  0  0
 40 42  1  0  0  0  0
 40 43  1  0  0  0  0
 41 45  1  0  0  0  0
 42 47  1  0  0  0  0
 43 70  1  0  0  0  0
 44 47  1  0  0  0  0
 44 70  1  0  0  0  0
 45 73  1  0  0  0  0
 46 69  1  0  0  0  0
 47 68  1  0  0  0  0
 49 61  1  0  0  0  0
 50 62  1  0  0  0  0
 51 63  1  0  0  0  0
 52 64  1  0  0  0  0
 53 64  1  0  0  0  0
 54 64  1  0  0  0  0
 55 75  1  0  0  0  0
 56 76  1  0  0  0  0
 57 59  1  0  0  0  0
 57 62  1  0  0  0  0
 58 63  1  0  0  0  0
 58 75  1  0  0  0  0
 59 83  1  0  0  0  0
 60 64  1  0  0  0  0
 60 74  1  0  0  0  0
 61 76  1  0  0  0  0
 62 67  1  0  0  0  0
 63 86  1  0  0  0  0
 65 68  1  0  0  0  0
 66 67  1  0  0  0  0
M  CHG  1  76   1
M  ISO  4  35 100  59 101  75 100  83 101
M  END
> <Batch ID>
0062

> <Smiles>
CNC(C)C(=O)NC(C(=O)N1Cc2cc([101O:1][101CH2:1]CC(C)n3nc(C(C)(F)C[100N:0](C)[100C:0](=O)N4CCCC(n5nc(-c6ccc(Oc7ccc(F)cc7F)cc6)c(C(N)=O)c5N)C4)cc3C)ccc2CC1C(=O)NC1CCCc2ccccc21)C(C)(C)C

> <Shape>
0.223

> <Color>
0.055

> <Negative vol penalty>
0.000

$$$$

  -OEChem-04052318003D

 83 91  0     1  0  0  0  0  0999 V2000
  -20.7281  -21.6697   18.5676 C   0  0  0  0  0  0  0  0  0  0  0  0
  -21.2855  -20.4154   18.3403 C   0  0  0  0  0  0  0  0  0  0  0  0
  -26.4453  -25.9000   17.6527 C   0  0  0  0  0  0  0  0  0  0  0  0
  -26.0165  -25.5312   20.0016 C   0  0  0  0  0  0  0  0  0  0  0  0
  -21.1959  -22.4594   19.6171 C   0  0  0  0  0  0  0  0  0  0  0  0
  -22.3118  -19.9506   19.1619 C   0  0  0  0  0  0  0  0  0  0  0  0
  -23.3024  -14.1616   20.8974 C   0  0  0  0  0  0  0  0  0  0  0  0
  -25.6101  -27.0169   17.6756 C   0  0  0  0  0  0  0  0  0  0  0  0
  -25.1813  -26.6482   20.0245 C   0  0  0  0  0  0  0  0  0  0  0  0
  -24.1675  -13.1756   20.4248 C   0  0  0  0  0  0  0  0  0  0  0  0
  -25.5209  -30.0079   20.1556 C   0  0  0  0  0  0  0  0  0  0  0  0
  -25.6618  -30.8989   21.2195 C   0  0  0  0  0  0  0  0  0  0  0  0
  -25.7661  -13.7691   22.1311 C   0  0  0  0  0  0  0  0  0  0  0  0
  -23.3638  -30.5058   21.8532 C   0  0  0  0  0  0  0  0  0  0  0  0
  -29.7885  -14.2191   18.8788 C   0  0  0  0  0  0  0  0  0  0  0  0
  -26.6485  -25.1571   18.8157 C   0  0  0  0  0  0  0  0  0  0  0  0
  -28.8960  -23.9716   19.0407 C   0  0  0  0  0  0  0  0  0  0  0  0
  -22.2219  -21.9999   20.4579 C   0  0  0  0  0  0  0  0  0  0  0  0
  -23.6678  -14.9673   21.9853 C   0  0  0  0  0  0  0  0  0  0  0  0
  -22.7947  -20.7354   20.2228 C   0  0  0  0  0  0  0  0  0  0  0  0
  -24.9028  -14.7628   22.6171 C   0  0  0  0  0  0  0  0  0  0  0  0
  -24.9781  -27.3910   18.8615 C   0  0  0  0  0  0  0  0  0  0  0  0
  -25.4008  -12.9812   21.0399 C   0  0  0  0  0  0  0  0  0  0  0  0
  -24.3014  -29.3659   19.9404 C   0  0  0  0  0  0  0  0  0  0  0  0
  -24.5833  -31.1479   22.0683 C   0  0  0  0  0  0  0  0  0  0  0  0
  -23.2228  -29.6148   20.7892 C   0  0  0  0  0  0  0  0  0  0  0  0
  -27.5107  -24.0029   18.7925 C   0  0  0  0  0  0  0  0  0  0  0  0
  -30.3674  -13.1796   19.5625 C   0  0  0  0  0  0  0  0  0  0  0  0
  -29.2408  -22.6499   18.8970 C   0  0  0  0  0  0  0  0  0  0  0  0
  -29.7912  -25.0416   19.3717 C   0  0  0  0  0  0  0  0  0  0  0  0
  -24.1449  -18.0811   22.4102 C   0  0  0  0  0  0  0  0  0  0  0  0
  -24.4562  -17.2127   25.5201 C   0  0  0  0  0  0  0  0  0  0  0  0
  -25.1804  -14.7661   27.7864 C   0  0  0  0  0  0  0  0  0  0  0  0
  -27.8999  -17.2886   20.2295 C   0  0  0  0  0  0  0  0  0  0  0  0
  -22.7269  -22.9089   21.5504 C   0  0  0  0  0  0  0  0  0  0  0  0
  -22.7121  -16.0086   22.4999 C   0  0  0  0  0  0  0  0  0  0  0  0
  -25.3339  -15.5876   23.8013 C   0  0  0  0  0  0  0  0  0  0  0  0
  -23.5609  -22.1875   22.6059 C   0  0  0  0  0  0  0  0  0  0  0  0
  -26.6387  -18.7309   17.0624 C   0  0  0  0  0  0  0  0  0  0  0  0
  -24.5837  -21.2703   21.9430 C   0  0  0  0  0  0  0  0  0  0  0  0
  -26.8056  -20.2323   17.2903 C   0  0  0  0  0  0  0  0  0  0  0  0
  -26.4275  -17.9783   18.3726 C   0  0  0  0  0  0  0  0  0  0  0  0
  -27.6537  -19.7290   19.6159 C   0  0  0  0  0  0  0  0  0  0  0  0
  -23.8926  -20.1859   21.1076 C   0  0  1  0  0  0  0  0  0  0  0  0
  -23.4032  -17.1153   23.2904 C   0  0  1  0  0  0  0  0  0  0  0  0
  -27.9147  -20.5109   18.3197 C   0  0  2  0  0  0  0  0  0  0  0  0
  -25.3888  -14.3667   30.2551 C   0  0  0  0  0  0  0  0  0  0  0  0
  -31.6827  -16.9874   17.7359 C   0  0  0  0  0  0  0  0  0  0  0  0
  -27.1435  -18.6579   25.5245 C   0  0  0  0  0  0  0  0  0  0  0  0
  -27.7136  -17.4447   27.6391 C   0  0  0  0  0  0  0  0  0  0  0  0
  -25.7686  -19.0056   27.5844 C   0  0  0  0  0  0  0  0  0  0  0  0
  -29.5774  -16.8099   21.9720 C   0  0  0  0  0  0  0  0  0  0  0  0
  -23.0294  -12.7336   27.7567 C   0  0  0  0  0  0  0  0  0  0  0  0
  -29.9095  -11.7477   19.6788 C   0  0  0  0  0  0  0  0  0  0  0  0
  -28.3909  -11.5781   19.5973 C   0  0  0  0  0  0  0  0  0  0  0  0
  -30.3666  -17.6363   19.7857 C   0  0  0  0  0  0  0  0  0  0  0  0
  -27.6456  -12.2546   20.7420 C   0  0  0  0  0  0  0  0  0  1  0  0
  -25.6042  -16.7785   26.3990 C   0  0  1  0  0  0  0  0  0  0  0  0
  -24.4650  -14.3179   29.0480 C   0  0  2  0  0  0  0  0  0  0  0  0
  -30.5030  -16.6188   18.6419 C   0  0  2  0  0  0  0  0  0  0  0  0
  -26.5504  -17.9573   26.7633 C   0  0  0  0  0  0  0  0  0  0  0  0
  -27.0096  -22.7969   18.5122 N   0  0  0  0  0  0  0  0  0  0  0  0
  -31.5071  -13.6143   20.1804 N   0  0  0  0  0  0  0  0  0  0  0  0
  -31.6564  -14.9044   19.9008 N   0  0  0  0  0  0  0  0  0  0  0  0
  -30.6248  -15.2652   19.1204 N   0  0  0  0  0  0  0  0  0  0  0  0
  -28.0860  -21.9954   18.5833 N   0  0  0  0  0  0  0  0  0  0  0  0
  -24.3673  -16.5974   24.2633 N   0  0  0  0  0  0  0  0  0  0  0  0
  -27.4716  -18.2946   19.3478 N   0  0  0  0  0  0  0  0  0  0  0  0
  -30.4161  -21.9953   19.0094 N   0  0  0  0  0  0  0  0  0  0  0  0
  -29.2712  -26.3386   19.4796 N   0  0  0  0  0  0  0  0  0  0  0  0
  -23.3769  -19.1398   21.9643 N   0  0  0  0  0  0  0  0  0  0  0  0
  -25.0067  -16.1137   27.5520 N   0  0  0  0  0  0  0  0  0  0  0  0
  -29.2340  -17.3415   20.6608 N   0  0  0  0  0  0  0  0  0  0  0  0
  -23.9674  -12.9217   28.8932 N   0  3  0  0  0  0  0  0  0  0  0  0
  -31.0189  -24.8556   19.5498 O   0  0  0  0  0  0  0  0  0  0  0  0
  -25.3268  -17.8814   22.1556 O   0  0  0  0  0  0  0  0  0  0  0  0
  -23.6633  -18.0612   25.9361 O   0  0  0  0  0  0  0  0  0  0  0  0
  -25.8316  -13.9982   27.0814 O   0  0  0  0  0  0  0  0  0  0  0  0
  -27.1361  -16.3887   20.6020 O   0  0  0  0  0  0  0  0  0  0  0  0
  -24.1632  -28.4810   18.8843 O   0  0  0  0  0  0  0  0  0  0  0  0
  -26.2473  -12.0200   20.5802 O   0  0  0  0  0  0  0  0  0  1  0  0
  -24.7193  -32.0023   23.0908 F   0  0  0  0  0  0  0  0  0  0  0  0
  -22.0491  -29.0001   20.5883 F   0  0  0  0  0  0  0  0  0  0  0  0
  1  2  1  0  0  0  0
  1  5  2  0  0  0  0
  2  6  2  0  0  0  0
  3  8  2  0  0  0  0
  3 16  1  0  0  0  0
  4  9  1  0  0  0  0
  4 16  2  0  0  0  0
  5 18  1  0  0  0  0
  6 20  1  0  0  0  0
  7 10  2  0  0  0  0
  7 19  1  0  0  0  0
  8 22  1  0  0  0  0
  9 22  2  0  0  0  0
 10 23  1  0  0  0  0
 11 12  2  0  0  0  0
 11 24  1  0  0  0  0
 12 25  1  0  0  0  0
 13 21  1  0  0  0  0
 13 23  2  0  0  0  0
 14 25  2  0  0  0  0
 14 26  1  0  0  0  0
 15 28  2  0  0  0  0
 15 65  1  0  0  0  0
 16 27  1  0  0  0  0
 17 27  1  0  0  0  0
 17 29  2  0  0  0  0
 17 30  1  0  0  0  0
 18 20  2  0  0  0  0
 18 35  1  0  0  0  0
 19 21  2  0  0  0  0
 19 36  1  0  0  0  0
 20 44  1  0  0  0  0
 21 37  1  0  0  0  0
 22 80  1  0  0  0  0
 23 81  1  0  0  0  0
 24 26  2  0  0  0  0
 24 80  1  0  0  0  0
 25 82  1  0  0  0  0
 26 83  1  0  0  0  0
 27 62  2  0  0  0  0
 28 54  1  0  0  0  0
 28 63  1  0  0  0  0
 29 66  1  0  0  0  0
 29 69  1  0  0  0  0
 30 70  1  0  0  0  0
 30 75  2  0  0  0  0
 31 45  1  0  0  0  0
 31 71  1  0  0  0  0
 31 76  2  0  0  0  0
 32 58  1  0  0  0  0
 32 67  1  0  0  0  0
 32 77  2  0  0  0  0
 33 59  1  0  0  0  0
 33 72  1  0  0  0  0
 33 78  2  0  0  0  0
 34 68  1  0  0  0  0
 34 73  1  0  0  0  0
 34 79  2  0  0  0  0
 35 38  1  0  0  0  0
 36 45  1  0  0  0  0
 37 67  1  0  0  0  0
 38 40  1  0  0  0  0
 39 41  1  0  0  0  0
 39 42  1  0  0  0  0
 40 44  1  0  0  0  0
 41 46  1  0  0  0  0
 42 68  1  0  0  0  0
 43 46  1  0  0  0  0
 43 68  1  0  0  0  0
 44 71  1  0  0  0  0
 45 67  1  0  0  0  0
 46 66  1  0  0  0  0
 47 59  1  0  0  0  0
 48 60  1  0  0  0  0
 49 61  1  0  0  0  0
 50 61  1  0  0  0  0
 51 61  1  0  0  0  0
 52 73  1  0  0  0  0
 53 74  1  0  0  0  0
 54 55  1  0  0  0  0
 55 57  1  0  0  0  0
 56 60  1  0  0  0  0
 56 73  1  0  0  0  0
 57 81  1  0  0  0  0
 58 61  1  0  0  0  0
 58 72  1  0  0  0  0
 59 74  1  0  0  0  0
 60 65  1  0  0  0  0
 62 66  1  0  0  0  0
 63 64  2  0  0  0  0
 64 65  1  0  0  0  0
M  CHG  1  74   1
M  ISO  4  34 100  57 101  73 100  81 101
M  END
> <Batch ID>
0062

> <Smiles>
CNC(C)C(=O)NC(C(=O)N1Cc2cc([101O:1][101CH2:1]CCc3cn(C(C)C[100N:0](C)[100C:0](=O)N4CCCC(n5nc(-c6ccc(Oc7ccc(F)cc7F)cc6)c(C(N)=O)c5N)C4)nn3)ccc2CC1C(=O)NC1CCCc2ccccc21)C(C)(C)C

> <Shape>
0.200

> <Color>
0.074

> <Negative vol penalty>
0.000

$$$$

  -OEChem-04052318003D

 89 97  0     1  0  0  0  0  0999 V2000
  -21.5416  -11.0976   20.5727 C   0  0  0  0  0  0  0  0  0  0  0  0
  -21.6177  -12.3660   21.1391 C   0  0  0  0  0  0  0  0  0  0  0  0
  -29.4123  -27.9124   18.9665 C   0  0  0  0  0  0  0  0  0  0  0  0
  -28.7228  -25.9642   20.2180 C   0  0  0  0  0  0  0  0  0  0  0  0
  -22.7097  -10.3976   20.2738 C   0  0  0  0  0  0  0  0  0  0  0  0
  -22.8622  -12.9346   21.4080 C   0  0  0  0  0  0  0  0  0  0  0  0
  -23.1342  -17.7828   19.9704 C   0  0  0  0  0  0  0  0  0  0  0  0
  -30.6375  -27.3039   18.6942 C   0  0  0  0  0  0  0  0  0  0  0  0
  -29.9480  -25.3556   19.9457 C   0  0  0  0  0  0  0  0  0  0  0  0
  -22.5313  -18.7276   20.7997 C   0  0  0  0  0  0  0  0  0  0  0  0
  -34.0869  -26.4070   17.9725 C   0  0  0  0  0  0  0  0  0  0  0  0
  -35.2414  -27.1758   18.1193 C   0  0  0  0  0  0  0  0  0  0  0  0
  -24.6863  -19.2699   21.7383 C   0  0  0  0  0  0  0  0  0  0  0  0
  -34.7146  -27.5216   20.4517 C   0  0  0  0  0  0  0  0  0  0  0  0
  -28.4549  -27.2426   19.7284 C   0  0  0  0  0  0  0  0  0  0  0  0
  -26.0121  -27.7939   19.2424 C   0  0  0  0  0  0  0  0  0  0  0  0
  -23.9692  -10.9620   20.5302 C   0  0  0  0  0  0  0  0  0  0  0  0
  -24.5185  -17.5663   20.0267 C   0  0  0  0  0  0  0  0  0  0  0  0
  -24.0483  -12.2410   21.1135 C   0  0  0  0  0  0  0  0  0  0  0  0
  -25.3047  -18.3236   20.9069 C   0  0  0  0  0  0  0  0  0  0  0  0
  -30.9053  -26.0255   19.1838 C   0  0  0  0  0  0  0  0  0  0  0  0
  -23.3070  -19.4692   21.6858 C   0  0  0  0  0  0  0  0  0  0  0  0
  -33.2461  -26.1955   19.0652 C   0  0  0  0  0  0  0  0  0  0  0  0
  -35.5553  -27.7331   19.3588 C   0  0  0  0  0  0  0  0  0  0  0  0
  -33.5600  -26.7527   20.3048 C   0  0  0  0  0  0  0  0  0  0  0  0
  -27.1893  -27.8709   20.0105 C   0  0  0  0  0  0  0  0  0  0  0  0
  -23.3029  -25.1737   23.7612 C   0  0  0  0  0  0  0  0  0  0  0  0
  -22.5660  -24.7363   22.6827 C   0  0  0  0  0  0  0  0  0  0  0  0
  -22.3778  -27.2543   23.5494 C   0  0  0  0  0  0  0  0  0  0  0  0
  -21.6415  -26.8172   22.4704 C   0  0  0  0  0  0  0  0  0  0  0  0
  -25.1019  -28.5576   19.9315 C   0  0  0  0  0  0  0  0  0  0  0  0
  -25.7634  -27.0945   18.0157 C   0  0  0  0  0  0  0  0  0  0  0  0
  -26.3740  -15.0893   20.7512 C   0  0  0  0  0  0  0  0  0  0  0  0
  -28.7455  -17.0825   19.7893 C   0  0  0  0  0  0  0  0  0  0  0  0
  -29.8146  -20.2850   19.2909 C   0  0  0  0  0  0  0  0  0  0  0  0
  -23.9707  -29.6437   25.6433 C   0  0  0  0  0  0  0  0  0  0  0  0
  -25.2036  -10.1477   20.2336 C   0  0  0  0  0  0  0  0  0  0  0  0
  -25.1571  -16.5624   19.1065 C   0  0  0  0  0  0  0  0  0  0  0  0
  -26.7976  -18.1437   20.9915 C   0  0  0  0  0  0  0  0  0  0  0  0
  -26.4862  -10.9748   20.2036 C   0  0  0  0  0  0  0  0  0  0  0  0
  -25.3872  -32.1442   23.3102 C   0  0  0  0  0  0  0  0  0  0  0  0
  -26.5479  -11.9081   21.4085 C   0  0  0  0  0  0  0  0  0  0  0  0
  -25.9482  -31.2724   22.1881 C   0  0  0  0  0  0  0  0  0  0  0  0
  -25.3777  -31.4103   24.6478 C   0  0  0  0  0  0  0  0  0  0  0  0
  -25.2299  -29.2304   23.4900 C   0  0  0  0  0  0  0  0  0  0  0  0
  -25.3799  -12.9017   21.3970 C   0  0  1  0  0  0  0  0  0  0  0  0
  -26.5061  -16.0611   19.6129 C   0  0  1  0  0  0  0  0  0  0  0  0
  -25.2102  -29.9241   22.1196 C   0  0  2  0  0  0  0  0  0  0  0  0
  -25.6155  -23.9135   26.5841 C   0  0  0  0  0  0  0  0  0  0  0  0
  -31.8135  -21.5989   18.5325 C   0  0  0  0  0  0  0  0  0  0  0  0
  -30.1077  -16.5514   22.4674 C   0  0  0  0  0  0  0  0  0  0  0  0
  -31.5446  -18.5599   22.0558 C   0  0  0  0  0  0  0  0  0  0  0  0
  -31.6550  -16.6103   20.5035 C   0  0  0  0  0  0  0  0  0  0  0  0
  -22.0615  -28.3234   26.4747 C   0  0  0  0  0  0  0  0  0  0  0  0
  -28.3187  -21.4783   17.0332 C   0  0  0  0  0  0  0  0  0  0  0  0
  -24.2326  -24.2636   24.4883 C   0  0  0  0  0  0  0  0  0  0  0  0
  -22.6651  -23.3157   22.1871 C   0  0  0  0  0  0  0  0  0  0  0  0
  -22.2790  -28.6583   24.0403 C   0  0  0  0  0  0  0  0  0  0  0  0
  -24.6945  -24.8579   25.8280 C   0  0  0  0  0  0  0  0  0  0  0  0
  -21.4750  -22.4400   22.5852 C   0  0  0  0  0  0  0  0  0  0  0  0
  -21.5425  -21.0308   22.0082 C   0  0  0  0  0  0  0  0  0  1  0  0
  -29.6196  -18.1096   20.4675 C   0  0  1  0  0  0  0  0  0  0  0  0
  -30.5073  -20.9436   18.1116 C   0  0  2  0  0  0  0  0  0  0  0  0
  -20.7120  -27.7277   21.7434 C   0  0  0  0  0  0  0  0  0  0  0  0
  -30.7034  -17.4601   21.3736 C   0  0  0  0  0  0  0  0  0  0  0  0
  -27.0433  -28.6242   21.1038 N   0  0  0  0  0  0  0  0  0  0  0  0
  -23.2220  -26.4406   24.2140 N   0  0  0  0  0  0  0  0  0  0  0  0
  -21.7221  -25.5502   22.0179 N   0  0  0  0  0  0  0  0  0  0  0  0
  -25.7637  -29.0276   21.0276 N   0  0  0  0  0  0  0  0  0  0  0  0
  -27.3744  -17.1455   20.0758 N   0  0  0  0  0  0  0  0  0  0  0  0
  -24.7082  -30.1134   24.5440 N   0  0  0  0  0  0  0  0  0  0  0  0
  -23.8082  -28.8664   19.7007 N   0  0  0  0  0  0  0  0  0  0  0  0
  -26.8090  -26.3575   17.4431 N   0  0  0  0  0  0  0  0  0  0  0  0
  -25.6302  -13.9650   20.4477 N   0  0  0  0  0  0  0  0  0  0  0  0
  -30.1562  -18.9540   19.4057 N   0  0  0  0  0  0  0  0  0  0  0  0
  -22.8643  -28.8257   25.3687 N   0  0  0  0  0  0  0  0  0  0  0  0
  -29.6292  -21.9881   17.5124 N   0  3  0  0  0  0  0  0  0  0  0  0
  -24.6519  -27.1356   17.4358 O   0  0  0  0  0  0  0  0  0  0  0  0
  -26.9087  -15.3402   21.8250 O   0  0  0  0  0  0  0  0  0  0  0  0
  -29.2592  -16.2594   19.0277 O   0  0  0  0  0  0  0  0  0  0  0  0
  -29.0500  -20.8915   20.0380 O   0  0  0  0  0  0  0  0  0  0  0  0
  -24.2777  -29.9466   26.8034 O   0  0  0  0  0  0  0  0  0  0  0  0
  -32.1007  -25.4313   18.9181 O   0  0  0  0  0  0  0  0  0  0  0  0
  -22.7210  -20.3916   22.4969 O   0  0  0  0  0  0  0  0  0  1  0  0
  -36.6648  -28.4701   19.5000 F   0  0  0  0  0  0  0  0  0  0  0  0
  -32.7568  -26.5520   21.3586 F   0  0  0  0  0  0  0  0  0  0  0  0
  -20.6770  -28.9956   22.2516 F   0  0  0  0  0  0  0  0  0  0  0  0
  -21.0203  -27.8834   20.4215 F   0  0  0  0  0  0  0  0  0  0  0  0
  -19.4195  -27.2888   21.7677 F   0  0  0  0  0  0  0  0  0  0  0  0
  1  2  1  0  0  0  0
  1  5  2  0  0  0  0
  2  6  2  0  0  0  0
  3  8  2  0  0  0  0
  3 15  1  0  0  0  0
  4  9  1  0  0  0  0
  4 15  2  0  0  0  0
  5 17  1  0  0  0  0
  6 19  1  0  0  0  0
  7 10  2  0  0  0  0
  7 18  1  0  0  0  0
  8 21  1  0  0  0  0
  9 21  2  0  0  0  0
 10 22  1  0  0  0  0
 11 12  2  0  0  0  0
 11 23  1  0  0  0  0
 12 24  1  0  0  0  0
 13 20  1  0  0  0  0
 13 22  2  0  0  0  0
 14 24  2  0  0  0  0
 14 25  1  0  0  0  0
 15 26  1  0  0  0  0
 16 26  1  0  0  0  0
 16 31  2  0  0  0  0
 16 32  1  0  0  0  0
 17 19  2  0  0  0  0
 17 37  1  0  0  0  0
 18 20  2  0  0  0  0
 18 38  1  0  0  0  0
 19 46  1  0  0  0  0
 20 39  1  0  0  0  0
 21 83  1  0  0  0  0
 22 84  1  0  0  0  0
 23 25  2  0  0  0  0
 23 83  1  0  0  0  0
 24 85  1  0  0  0  0
 25 86  1  0  0  0  0
 26 66  2  0  0  0  0
 27 28  2  0  0  0  0
 27 56  1  0  0  0  0
 27 67  1  0  0  0  0
 28 57  1  0  0  0  0
 28 68  1  0  0  0  0
 29 30  1  0  0  0  0
 29 58  1  0  0  0  0
 29 67  2  0  0  0  0
 30 64  1  0  0  0  0
 30 68  2  0  0  0  0
 31 69  1  0  0  0  0
 31 72  1  0  0  0  0
 32 73  1  0  0  0  0
 32 78  2  0  0  0  0
 33 47  1  0  0  0  0
 33 74  1  0  0  0  0
 33 79  2  0  0  0  0
 34 62  1  0  0  0  0
 34 70  1  0  0  0  0
 34 80  2  0  0  0  0
 35 63  1  0  0  0  0
 35 75  1  0  0  0  0
 35 81  2  0  0  0  0
 36 71  1  0  0  0  0
 36 76  1  0  0  0  0
 36 82  2  0  0  0  0
 37 40  1  0  0  0  0
 38 47  1  0  0  0  0
 39 70  1  0  0  0  0
 40 42  1  0  0  0  0
 41 43  1  0  0  0  0
 41 44  1  0  0  0  0
 42 46  1  0  0  0  0
 43 48  1  0  0  0  0
 44 71  1  0  0  0  0
 45 48  1  0  0  0  0
 45 71  1  0  0  0  0
 46 74  1  0  0  0  0
 47 70  1  0  0  0  0
 48 69  1  0  0  0  0
 49 59  1  0  0  0  0
 50 63  1  0  0  0  0
 51 65  1  0  0  0  0
 52 65  1  0  0  0  0
 53 65  1  0  0  0  0
 54 76  1  0  0  0  0
 55 77  1  0  0  0  0
 56 59  1  0  0  0  0
 57 60  1  0  0  0  0
 58 76  1  0  0  0  0
 60 61  1  0  0  0  0
 61 84  1  0  0  0  0
 62 65  1  0  0  0  0
 62 75  1  0  0  0  0
 63 77  1  0  0  0  0
 64 87  1  0  0  0  0
 64 88  1  0  0  0  0
 64 89  1  0  0  0  0
 66 69  1  0  0  0  0
M  CHG  1  77   1
M  ISO  4  36 100  61 101  76 100  84 101
M  END
> <Batch ID>
0062

> <Smiles>
CCCc1nc(C[100N:0](C)[100C:0](=O)N2CCCC(n3nc(-c4ccc(Oc5ccc(F)cc5F)cc4)c(C(N)=O)c3N)C2)c(C(F)(F)F)nc1CC[101CH2:1][101O:1]c1ccc2c(c1)CN(C(=O)C(NC(=O)C(C)NC)C(C)(C)C)C(C(=O)NC1CCCc3ccccc31)C2

> <Shape>
0.259

> <Color>
0.043

> <Negative vol penalty>
0.000

$$$$

  -OEChem-04052318003D

 81 89  0     1  0  0  0  0  0999 V2000
  -16.6202  -30.5945   23.3125 C   0  0  0  0  0  0  0  0  0  0  0  0
  -17.7672  -31.1709   22.7762 C   0  0  0  0  0  0  0  0  0  0  0  0
  -27.7625  -17.9665   18.8728 C   0  0  0  0  0  0  0  0  0  0  0  0
  -29.8024  -17.3616   20.0174 C   0  0  0  0  0  0  0  0  0  0  0  0
  -16.7127  -29.4109   24.0436 C   0  0  0  0  0  0  0  0  0  0  0  0
  -19.0076  -30.5645   22.9716 C   0  0  0  0  0  0  0  0  0  0  0  0
  -25.3178  -29.5879   19.7245 C   0  0  0  0  0  0  0  0  0  0  0  0
  -27.7005  -16.6919   18.3096 C   0  0  0  0  0  0  0  0  0  0  0  0
  -29.7404  -16.0870   19.4542 C   0  0  0  0  0  0  0  0  0  0  0  0
  -26.6837  -29.7450   19.9555 C   0  0  0  0  0  0  0  0  0  0  0  0
  -29.9251  -12.5571   18.6032 C   0  0  0  0  0  0  0  0  0  0  0  0
  -30.1683  -11.4661   19.4375 C   0  0  0  0  0  0  0  0  0  0  0  0
  -26.7123  -27.6599   21.1682 C   0  0  0  0  0  0  0  0  0  0  0  0
  -28.3007  -12.1127   20.8273 C   0  0  0  0  0  0  0  0  0  0  0  0
  -31.6779  -27.7948   20.9954 C   0  0  0  0  0  0  0  0  0  0  0  0
  -28.8135  -18.3014   19.7267 C   0  0  0  0  0  0  0  0  0  0  0  0
  -28.3173  -20.0364   21.5298 C   0  0  0  0  0  0  0  0  0  0  0  0
  -17.9535  -28.7845   24.2398 C   0  0  0  0  0  0  0  0  0  0  0  0
  -24.6355  -28.4691   20.2238 C   0  0  0  0  0  0  0  0  0  0  0  0
  -19.1169  -29.3720   23.7071 C   0  0  0  0  0  0  0  0  0  0  0  0
  -25.3382  -27.4896   20.9399 C   0  0  0  0  0  0  0  0  0  0  0  0
  -28.6894  -15.7521   18.6003 C   0  0  0  0  0  0  0  0  0  0  0  0
  -27.3806  -28.7824   20.6799 C   0  0  0  0  0  0  0  0  0  0  0  0
  -28.8698  -13.4260   18.8809 C   0  0  0  0  0  0  0  0  0  0  0  0
  -29.3561  -11.2439   20.5496 C   0  0  0  0  0  0  0  0  0  0  0  0
  -28.0576  -13.2037   19.9929 C   0  0  0  0  0  0  0  0  0  0  0  0
  -28.8784  -19.6180   20.3083 C   0  0  0  0  0  0  0  0  0  0  0  0
  -31.5739  -28.9501   20.2640 C   0  0  0  0  0  0  0  0  0  0  0  0
  -28.6572  -21.3636   21.6271 C   0  0  0  0  0  0  0  0  0  0  0  0
  -32.9199  -26.8950   19.3378 C   0  0  0  0  0  0  0  0  0  0  0  0
  -27.5568  -19.2919   22.4905 C   0  0  0  0  0  0  0  0  0  0  0  0
  -22.2469  -28.0293   22.2743 C   0  0  0  0  0  0  0  0  0  0  0  0
  -22.5119  -24.9408   21.3186 C   0  0  0  0  0  0  0  0  0  0  0  0
  -33.1712  -24.4098   19.2565 C   0  0  0  0  0  0  0  0  0  0  0  0
  -24.4615  -22.4781   19.9842 C   0  0  0  0  0  0  0  0  0  0  0  0
  -18.0098  -27.5314   25.0772 C   0  0  0  0  0  0  0  0  0  0  0  0
  -23.1674  -28.3010   19.9430 C   0  0  0  0  0  0  0  0  0  0  0  0
  -24.6563  -26.2601   21.4800 C   0  0  0  0  0  0  0  0  0  0  0  0
  -19.3131  -26.7523   24.9208 C   0  0  0  0  0  0  0  0  0  0  0  0
  -29.6336  -25.1935   18.9434 C   0  0  0  0  0  0  0  0  0  0  0  0
  -20.5109  -27.6931   25.0047 C   0  0  0  0  0  0  0  0  0  0  0  0
  -28.9900  -23.8676   19.3467 C   0  0  0  0  0  0  0  0  0  0  0  0
  -30.9382  -24.9753   18.1815 C   0  0  0  0  0  0  0  0  0  0  0  0
  -31.2887  -22.8056   19.3190 C   0  0  0  0  0  0  0  0  0  0  0  0
  -20.4772  -28.7310   23.8764 C   0  0  1  0  0  0  0  0  0  0  0  0
  -22.4705  -27.3787   20.9385 C   0  0  1  0  0  0  0  0  0  0  0  0
  -29.9857  -22.9823   20.1164 C   0  0  2  0  0  0  0  0  0  0  0  0
  -24.4128  -20.0480   19.3598 C   0  0  0  0  0  0  0  0  0  0  0  0
  -35.1951  -25.8544   19.0912 C   0  0  0  0  0  0  0  0  0  0  0  0
  -22.7584  -24.1816   24.2636 C   0  0  0  0  0  0  0  0  0  0  0  0
  -23.6419  -21.9526   23.5431 C   0  0  0  0  0  0  0  0  0  0  0  0
  -21.3308  -22.6417   22.9053 C   0  0  0  0  0  0  0  0  0  0  0  0
  -24.9891  -23.0802   17.1350 C   0  0  0  0  0  0  0  0  0  0  0  0
  -30.8031  -30.1385   20.7853 C   0  0  0  0  0  0  0  0  0  0  0  0
  -29.3350  -30.1027   20.3749 C   0  0  0  0  0  0  0  0  0  1  0  0
  -23.3081  -23.7437   21.7792 C   0  0  1  0  0  0  0  0  0  0  0  0
  -24.1982  -21.4739   18.8766 C   0  0  2  0  0  0  0  0  0  0  0  0
  -33.6905  -25.7453   18.7865 C   0  0  2  0  0  0  0  0  0  0  0  0
  -22.7725  -23.1539   23.1144 C   0  0  0  0  0  0  0  0  0  0  0  0
  -32.3596  -26.7305   20.5454 N   0  0  0  0  0  0  0  0  0  0  0  0
  -29.5255  -20.5999   19.6750 N   0  0  0  0  0  0  0  0  0  0  0  0
  -32.1581  -29.0568   19.0568 N   0  0  0  0  0  0  0  0  0  0  0  0
  -32.8512  -28.0039   18.5754 N   0  0  0  0  0  0  0  0  0  0  0  0
  -29.3731  -21.6485   20.5017 N   0  0  0  0  0  0  0  0  0  0  0  0
  -23.2187  -26.1442   21.1847 N   0  0  0  0  0  0  0  0  0  0  0  0
  -31.8483  -24.1049   18.9355 N   0  0  0  0  0  0  0  0  0  0  0  0
  -28.4106  -22.3030   22.5646 N   0  0  0  0  0  0  0  0  0  0  0  0
  -27.2984  -17.9384   22.2342 N   0  0  0  0  0  0  0  0  0  0  0  0
  -20.9164  -28.1384   22.6313 N   0  0  0  0  0  0  0  0  0  0  0  0
  -23.3074  -22.8003   20.6664 N   0  0  0  0  0  0  0  0  0  0  0  0
  -25.1107  -21.7221   17.7248 N   0  3  0  0  0  0  0  0  0  0  0  0
  -27.1055  -19.8156   23.5372 O   0  0  0  0  0  0  0  0  0  0  0  0
  -23.2102  -28.4032   22.9330 O   0  0  0  0  0  0  0  0  0  0  0  0
  -21.3087  -24.8111   21.0794 O   0  0  0  0  0  0  0  0  0  0  0  0
  -33.9196  -23.6628   19.8920 O   0  0  0  0  0  0  0  0  0  0  0  0
  -25.5799  -22.9285   20.2230 O   0  0  0  0  0  0  0  0  0  0  0  0
  -33.5363  -25.6179   17.3609 O   0  0  0  0  0  0  0  0  0  0  0  0
  -28.6292  -14.5082   18.0511 O   0  0  0  0  0  0  0  0  0  0  0  0
  -28.7137  -28.9336   20.9074 O   0  0  0  0  0  0  0  0  0  1  0  0
  -29.5888  -10.1953   21.3498 F   0  0  0  0  0  0  0  0  0  0  0  0
  -27.0415  -14.0343   20.2641 F   0  0  0  0  0  0  0  0  0  0  0  0
  1  2  1  0  0  0  0
  1  5  2  0  0  0  0
  2  6  2  0  0  0  0
  3  8  2  0  0  0  0
  3 16  1  0  0  0  0
  4  9  1  0  0  0  0
  4 16  2  0  0  0  0
  5 18  1  0  0  0  0
  6 20  1  0  0  0  0
  7 10  2  0  0  0  0
  7 19  1  0  0  0  0
  8 22  1  0  0  0  0
  9 22  2  0  0  0  0
 10 23  1  0  0  0  0
 11 12  2  0  0  0  0
 11 24  1  0  0  0  0
 12 25  1  0  0  0  0
 13 21  1  0  0  0  0
 13 23  2  0  0  0  0
 14 25  2  0  0  0  0
 14 26  1  0  0  0  0
 15 28  1  0  0  0  0
 15 60  2  0  0  0  0
 16 27  1  0  0  0  0
 17 27  1  0  0  0  0
 17 29  2  0  0  0  0
 17 31  1  0  0  0  0
 18 20  2  0  0  0  0
 18 36  1  0  0  0  0
 19 21  2  0  0  0  0
 19 37  1  0  0  0  0
 20 45  1  0  0  0  0
 21 38  1  0  0  0  0
 22 78  1  0  0  0  0
 23 79  1  0  0  0  0
 24 26  2  0  0  0  0
 24 78  1  0  0  0  0
 25 80  1  0  0  0  0
 26 81  1  0  0  0  0
 27 61  2  0  0  0  0
 28 54  1  0  0  0  0
 28 62  2  0  0  0  0
 29 64  1  0  0  0  0
 29 67  1  0  0  0  0
 30 58  1  0  0  0  0
 30 60  1  0  0  0  0
 30 63  2  0  0  0  0
 31 68  1  0  0  0  0
 31 72  2  0  0  0  0
 32 46  1  0  0  0  0
 32 69  1  0  0  0  0
 32 73  2  0  0  0  0
 33 56  1  0  0  0  0
 33 65  1  0  0  0  0
 33 74  2  0  0  0  0
 34 58  1  0  0  0  0
 34 66  1  0  0  0  0
 34 75  2  0  0  0  0
 35 57  1  0  0  0  0
 35 70  1  0  0  0  0
 35 76  2  0  0  0  0
 36 39  1  0  0  0  0
 37 46  1  0  0  0  0
 38 65  1  0  0  0  0
 39 41  1  0  0  0  0
 40 42  1  0  0  0  0
 40 43  1  0  0  0  0
 41 45  1  0  0  0  0
 42 47  1  0  0  0  0
 43 66  1  0  0  0  0
 44 47  1  0  0  0  0
 44 66  1  0  0  0  0
 45 69  1  0  0  0  0
 46 65  1  0  0  0  0
 47 64  1  0  0  0  0
 48 57  1  0  0  0  0
 49 58  1  0  0  0  0
 50 59  1  0  0  0  0
 51 59  1  0  0  0  0
 52 59  1  0  0  0  0
 53 71  1  0  0  0  0
 54 55  1  0  0  0  0
 55 79  1  0  0  0  0
 56 59  1  0  0  0  0
 56 70  1  0  0  0  0
 57 71  1  0  0  0  0
 58 77  1  0  0  0  0
 61 64  1  0  0  0  0
 62 63  1  0  0  0  0
M  CHG  1  71   1
M  ISO  4  34 100  55 101  58 100  79 101
M  END
> <Batch ID>
0062

> <Smiles>
CNC(C)C(=O)NC(C(=O)N1Cc2cc([101O:1][101CH2:1]Cc3cnc([100C:0](C)(O)[100C:0](=O)N4CCCC(n5nc(-c6ccc(Oc7ccc(F)cc7F)cc6)c(C(N)=O)c5N)C4)nn3)ccc2CC1C(=O)NC1CCCc2ccccc21)C(C)(C)C

> <Shape>
0.231

> <Color>
0.076

> <Negative vol penalty>
0.000

$$$$

  -OEChem-04052318003D

 85 93  0     1  0  0  0  0  0999 V2000
  -27.4316  -37.6072   22.4982 C   0  0  0  0  0  0  0  0  0  0  0  0
  -27.9721  -36.4233   22.0067 C   0  0  0  0  0  0  0  0  0  0  0  0
  -24.5647  -12.4462   21.2242 C   0  0  0  0  0  0  0  0  0  0  0  0
  -23.7061  -13.1928   19.0930 C   0  0  0  0  0  0  0  0  0  0  0  0
  -26.4281  -37.5654   23.4653 C   0  0  0  0  0  0  0  0  0  0  0  0
  -27.5102  -35.1968   22.4829 C   0  0  0  0  0  0  0  0  0  0  0  0
  -26.9449  -29.9911   19.3068 C   0  0  0  0  0  0  0  0  0  0  0  0
  -23.5347  -11.5096   21.3111 C   0  0  0  0  0  0  0  0  0  0  0  0
  -22.6761  -12.2562   19.1798 C   0  0  0  0  0  0  0  0  0  0  0  0
  -27.7577  -28.8633   19.2020 C   0  0  0  0  0  0  0  0  0  0  0  0
  -21.3406   -8.6767   21.9238 C   0  0  0  0  0  0  0  0  0  0  0  0
  -21.6722   -7.3837   22.3283 C   0  0  0  0  0  0  0  0  0  0  0  0
  -26.4369  -27.7616   20.8935 C   0  0  0  0  0  0  0  0  0  0  0  0
  -23.1532   -7.1701   20.4313 C   0  0  0  0  0  0  0  0  0  0  0  0
  -24.6503  -13.2879   20.1152 C   0  0  0  0  0  0  0  0  0  0  0  0
  -26.9846  -14.0716   19.4483 C   0  0  0  0  0  0  0  0  0  0  0  0
  -25.9469  -36.3376   23.9465 C   0  0  0  0  0  0  0  0  0  0  0  0
  -25.8767  -30.0168   20.2150 C   0  0  0  0  0  0  0  0  0  0  0  0
  -26.5003  -35.1385   23.4583 C   0  0  0  0  0  0  0  0  0  0  0  0
  -25.6104  -28.8900   21.0060 C   0  0  0  0  0  0  0  0  0  0  0  0
  -22.5904  -11.4146   20.2889 C   0  0  0  0  0  0  0  0  0  0  0  0
  -27.5056  -27.7494   19.9975 C   0  0  0  0  0  0  0  0  0  0  0  0
  -21.9151   -9.2164   20.7730 C   0  0  0  0  0  0  0  0  0  0  0  0
  -22.5786   -6.6304   21.5821 C   0  0  0  0  0  0  0  0  0  0  0  0
  -22.8214   -8.4631   20.0268 C   0  0  0  0  0  0  0  0  0  0  0  0
  -25.7137  -14.2559   20.0251 C   0  0  0  0  0  0  0  0  0  0  0  0
  -27.6163  -15.2796   19.6161 C   0  0  0  0  0  0  0  0  0  0  0  0
  -28.5379  -22.2946   16.8253 C   0  0  0  0  0  0  0  0  0  0  0  0
  -26.8615  -21.0463   17.4086 C   0  0  0  0  0  0  0  0  0  0  0  0
  -27.5440  -12.9121   18.8172 C   0  0  0  0  0  0  0  0  0  0  0  0
  -25.1329  -31.7789   22.7538 C   0  0  0  0  0  0  0  0  0  0  0  0
  -22.3613  -30.0987   22.6219 C   0  0  0  0  0  0  0  0  0  0  0  0
  -20.7316  -27.2723   21.6207 C   0  0  0  0  0  0  0  0  0  0  0  0
  -25.1064  -20.7980   20.5027 C   0  0  0  0  0  0  0  0  0  0  0  0
  -24.8942  -36.3435   25.0265 C   0  0  0  0  0  0  0  0  0  0  0  0
  -24.9929  -31.2311   20.2969 C   0  0  0  0  0  0  0  0  0  0  0  0
  -24.4638  -28.8594   21.9822 C   0  0  0  0  0  0  0  0  0  0  0  0
  -24.1979  -34.9969   25.2058 C   0  0  0  0  0  0  0  0  0  0  0  0
  -27.7235  -19.0952   22.4909 C   0  0  0  0  0  0  0  0  0  0  0  0
  -25.2223  -33.8674   25.2463 C   0  0  0  0  0  0  0  0  0  0  0  0
  -27.5558  -17.6334   22.0799 C   0  0  0  0  0  0  0  0  0  0  0  0
  -26.4138  -19.8697   22.3790 C   0  0  0  0  0  0  0  0  0  0  0  0
  -25.6089  -18.3230   20.6257 C   0  0  0  0  0  0  0  0  0  0  0  0
  -26.0083  -33.7880   23.9319 C   0  0  1  0  0  0  0  0  0  0  0  0
  -24.2467  -31.3386   21.6231 C   0  0  1  0  0  0  0  0  0  0  0  0
  -26.9207  -17.5258   20.6826 C   0  0  2  0  0  0  0  0  0  0  0  0
  -29.8019  -20.2930   19.0489 C   0  0  0  0  0  0  0  0  0  0  0  0
  -25.1694  -19.1760   17.3827 C   0  0  0  0  0  0  0  0  0  0  0  0
  -18.4792  -26.1680   21.6898 C   0  0  0  0  0  0  0  0  0  0  0  0
  -22.8164  -29.3589   25.5469 C   0  0  0  0  0  0  0  0  0  0  0  0
  -21.1127  -27.5438   25.2805 C   0  0  0  0  0  0  0  0  0  0  0  0
  -20.4505  -29.9289   24.9709 C   0  0  0  0  0  0  0  0  0  0  0  0
  -24.4044  -22.0295   18.4853 C   0  0  0  0  0  0  0  0  0  0  0  0
  -20.5206  -27.2553   18.6687 C   0  0  0  0  0  0  0  0  0  0  0  0
  -29.8530  -23.0294   16.8924 C   0  0  0  0  0  0  0  0  0  0  0  0
  -29.7081  -24.5387   17.1170 C   0  0  0  0  0  0  0  0  0  0  0  0
  -29.0573  -24.8848   18.4570 C   0  0  0  0  0  0  0  0  0  0  0  0
  -28.6726  -21.3056   19.1309 C   0  0  0  0  0  0  0  0  0  0  0  0
  -28.8941  -26.3891   18.6272 C   0  0  0  0  0  0  0  0  0  1  0  0
  -26.0014  -20.1679   18.2214 C   0  0  2  0  0  0  0  0  0  0  0  0
  -21.8704  -28.7983   23.2109 C   0  0  1  0  0  0  0  0  0  0  0  0
  -19.4110  -27.0732   20.8990 C   0  0  2  0  0  0  0  0  0  0  0  0
  -21.5854  -28.9084   24.7354 C   0  0  0  0  0  0  0  0  0  0  0  0
  -25.5464  -15.4843   20.5223 N   0  0  0  0  0  0  0  0  0  0  0  0
  -27.6951  -22.2694   15.8176 N   0  0  0  0  0  0  0  0  0  0  0  0
  -26.6285  -21.4752   16.1887 N   0  0  0  0  0  0  0  0  0  0  0  0
  -26.7205  -16.0827   20.2585 N   0  0  0  0  0  0  0  0  0  0  0  0
  -28.0529  -21.5379   17.8485 N   0  0  0  0  0  0  0  0  0  0  0  0
  -23.6321  -30.0733   22.0301 N   0  0  0  0  0  0  0  0  0  0  0  0
  -25.8100  -19.7151   21.0552 N   0  0  0  0  0  0  0  0  0  0  0  0
  -28.8452  -15.7225   19.2754 N   0  0  0  0  0  0  0  0  0  0  0  0
  -26.7584  -11.7548   18.7291 N   0  0  0  0  0  0  0  0  0  0  0  0
  -25.2127  -33.1501   22.9050 N   0  0  0  0  0  0  0  0  0  0  0  0
  -20.7150  -28.3998   22.4143 N   0  0  0  0  0  0  0  0  0  0  0  0
  -25.1101  -20.9167   19.1047 N   0  0  0  0  0  0  0  0  0  0  0  0
  -19.6395  -26.4585   19.5608 N   0  3  0  0  0  0  0  0  0  0  0  0
  -28.7120  -12.8974   18.3600 O   0  0  0  0  0  0  0  0  0  0  0  0
  -25.7011  -30.9369   23.4393 O   0  0  0  0  0  0  0  0  0  0  0  0
  -21.6407  -31.0983   22.6782 O   0  0  0  0  0  0  0  0  0  0  0  0
  -21.6815  -26.5025   21.4959 O   0  0  0  0  0  0  0  0  0  0  0  0
  -24.5171  -21.6176   21.2188 O   0  0  0  0  0  0  0  0  0  0  0  0
  -21.5854  -10.5006   20.3731 O   0  0  0  0  0  0  0  0  0  0  0  0
  -28.2979  -26.6474   19.8977 O   0  0  0  0  0  0  0  0  0  1  0  0
  -22.8981   -5.3892   21.9715 F   0  0  0  0  0  0  0  0  0  0  0  0
  -23.3776   -8.9767   18.9210 F   0  0  0  0  0  0  0  0  0  0  0  0
  1  2  1  0  0  0  0
  1  5  2  0  0  0  0
  2  6  2  0  0  0  0
  3  8  2  0  0  0  0
  3 15  1  0  0  0  0
  4  9  1  0  0  0  0
  4 15  2  0  0  0  0
  5 17  1  0  0  0  0
  6 19  1  0  0  0  0
  7 10  2  0  0  0  0
  7 18  1  0  0  0  0
  8 21  1  0  0  0  0
  9 21  2  0  0  0  0
 10 22  1  0  0  0  0
 11 12  2  0  0  0  0
 11 23  1  0  0  0  0
 12 24  1  0  0  0  0
 13 20  1  0  0  0  0
 13 22  2  0  0  0  0
 14 24  2  0  0  0  0
 14 25  1  0  0  0  0
 15 26  1  0  0  0  0
 16 26  1  0  0  0  0
 16 27  2  0  0  0  0
 16 30  1  0  0  0  0
 17 19  2  0  0  0  0
 17 35  1  0  0  0  0
 18 20  2  0  0  0  0
 18 36  1  0  0  0  0
 19 44  1  0  0  0  0
 20 37  1  0  0  0  0
 21 82  1  0  0  0  0
 22 83  1  0  0  0  0
 23 25  2  0  0  0  0
 23 82  1  0  0  0  0
 24 84  1  0  0  0  0
 25 85  1  0  0  0  0
 26 64  2  0  0  0  0
 27 67  1  0  0  0  0
 27 71  1  0  0  0  0
 28 55  1  0  0  0  0
 28 65  2  0  0  0  0
 28 68  1  0  0  0  0
 29 60  1  0  0  0  0
 29 66  2  0  0  0  0
 29 68  1  0  0  0  0
 30 72  1  0  0  0  0
 30 77  2  0  0  0  0
 31 45  1  0  0  0  0
 31 73  1  0  0  0  0
 31 78  2  0  0  0  0
 32 61  1  0  0  0  0
 32 69  1  0  0  0  0
 32 79  2  0  0  0  0
 33 62  1  0  0  0  0
 33 74  1  0  0  0  0
 33 80  2  0  0  0  0
 34 70  1  0  0  0  0
 34 75  1  0  0  0  0
 34 81  2  0  0  0  0
 35 38  1  0  0  0  0
 36 45  1  0  0  0  0
 37 69  1  0  0  0  0
 38 40  1  0  0  0  0
 39 41  1  0  0  0  0
 39 42  1  0  0  0  0
 40 44  1  0  0  0  0
 41 46  1  0  0  0  0
 42 70  1  0  0  0  0
 43 46  1  0  0  0  0
 43 70  1  0  0  0  0
 44 73  1  0  0  0  0
 45 69  1  0  0  0  0
 46 67  1  0  0  0  0
 47 58  1  0  0  0  0
 48 60  1  0  0  0  0
 49 62  1  0  0  0  0
 50 63  1  0  0  0  0
 51 63  1  0  0  0  0
 52 63  1  0  0  0  0
 53 75  1  0  0  0  0
 54 76  1  0  0  0  0
 55 56  1  0  0  0  0
 56 57  1  0  0  0  0
 57 59  1  0  0  0  0
 58 68  1  0  0  0  0
 59 83  1  0  0  0  0
 60 75  1  0  0  0  0
 61 63  1  0  0  0  0
 61 74  1  0  0  0  0
 62 76  1  0  0  0  0
 64 67  1  0  0  0  0
 65 66  1  0  0  0  0
M  CHG  1  76   1
M  ISO  4  34 100  59 101  75 100  83 101
M  END
> <Batch ID>
0062

> <Smiles>
CCn1c(CCC[101CH2:1][101O:1]c2ccc3c(c2)CN(C(=O)C(NC(=O)C(C)NC)C(C)(C)C)C(C(=O)NC2CCCc4ccccc42)C3)nnc1C(C)[100N:0](C)[100C:0](=O)N1CCCC(n2nc(-c3ccc(Oc4ccc(F)cc4F)cc3)c(C(N)=O)c2N)C1

> <Shape>
0.311

> <Color>
0.072

> <Negative vol penalty>
0.000

$$$$

  -OEChem-04052318003D

 84 92  0     1  0  0  0  0  0999 V2000
  -23.8590  -23.7352   17.5328 C   0  0  0  0  0  0  0  0  0  0  0  0
  -24.6437  -22.6077   17.7469 C   0  0  0  0  0  0  0  0  0  0  0  0
  -23.0356  -27.5654   20.4160 C   0  0  0  0  0  0  0  0  0  0  0  0
  -24.2759  -26.5174   22.2050 C   0  0  0  0  0  0  0  0  0  0  0  0
  -22.6490  -23.8761   18.2089 C   0  0  0  0  0  0  0  0  0  0  0  0
  -24.2132  -21.6152   18.6280 C   0  0  0  0  0  0  0  0  0  0  0  0
  -26.8873  -17.4906   18.8281 C   0  0  0  0  0  0  0  0  0  0  0  0
  -21.8410  -27.1283   20.9881 C   0  0  0  0  0  0  0  0  0  0  0  0
  -23.0812  -26.0803   22.7771 C   0  0  0  0  0  0  0  0  0  0  0  0
  -28.1493  -17.4384   19.4183 C   0  0  0  0  0  0  0  0  0  0  0  0
  -19.8162  -28.0476   23.5353 C   0  0  0  0  0  0  0  0  0  0  0  0
  -18.7662  -28.9616   23.6214 C   0  0  0  0  0  0  0  0  0  0  0  0
  -30.9592  -21.0317   22.7442 C   0  0  0  0  0  0  0  0  0  0  0  0
  -27.1939  -16.3571   21.3514 C   0  0  0  0  0  0  0  0  0  0  0  0
  -17.3936  -27.5131   22.2596 C   0  0  0  0  0  0  0  0  0  0  0  0
  -30.4062  -22.2771   22.5263 C   0  0  0  0  0  0  0  0  0  0  0  0
  -24.2531  -27.2599   21.0244 C   0  0  0  0  0  0  0  0  0  0  0  0
  -26.1554  -28.9247   20.6820 C   0  0  0  0  0  0  0  0  0  0  0  0
  -22.2100  -22.8903   19.1080 C   0  0  0  0  0  0  0  0  0  0  0  0
  -25.7655  -16.9854   19.5009 C   0  0  0  0  0  0  0  0  0  0  0  0
  -22.9835  -21.7277   19.3018 C   0  0  0  0  0  0  0  0  0  0  0  0
  -25.9192  -16.4017   20.7665 C   0  0  0  0  0  0  0  0  0  0  0  0
  -21.8638  -26.3858   22.1687 C   0  0  0  0  0  0  0  0  0  0  0  0
  -28.3024  -16.8742   20.6814 C   0  0  0  0  0  0  0  0  0  0  0  0
  -19.6550  -26.8662   22.8113 C   0  0  0  0  0  0  0  0  0  0  0  0
  -17.5548  -28.6944   22.9836 C   0  0  0  0  0  0  0  0  0  0  0  0
  -18.4437  -26.5990   22.1734 C   0  0  0  0  0  0  0  0  0  0  0  0
  -25.4876  -27.7106   20.4335 C   0  0  0  0  0  0  0  0  0  0  0  0
  -31.8021  -20.5711   21.7535 C   0  0  0  0  0  0  0  0  0  0  0  0
  -27.2698  -28.8738   19.8807 C   0  0  0  0  0  0  0  0  0  0  0  0
  -31.4890  -22.4653   20.5365 C   0  0  0  0  0  0  0  0  0  0  0  0
  -25.8003  -30.0021   21.5587 C   0  0  0  0  0  0  0  0  0  0  0  0
  -23.0476  -18.2313   20.5800 C   0  0  0  0  0  0  0  0  0  0  0  0
  -22.3412  -15.1336   21.2338 C   0  0  0  0  0  0  0  0  0  0  0  0
  -23.4704  -11.9775   21.8746 C   0  0  0  0  0  0  0  0  0  0  0  0
  -30.4102  -24.3413   17.5470 C   0  0  0  0  0  0  0  0  0  0  0  0
  -20.8884  -23.0900   19.8071 C   0  0  0  0  0  0  0  0  0  0  0  0
  -24.4153  -17.0250   18.8392 C   0  0  0  0  0  0  0  0  0  0  0  0
  -24.7499  -15.8269   21.5220 C   0  0  0  0  0  0  0  0  0  0  0  0
  -20.7305  -22.2100   21.0428 C   0  0  0  0  0  0  0  0  0  0  0  0
  -28.8433  -26.9989   15.7697 C   0  0  0  0  0  0  0  0  0  0  0  0
  -21.0808  -20.7691   20.7029 C   0  0  0  0  0  0  0  0  0  0  0  0
  -27.8659  -27.5922   16.7859 C   0  0  0  0  0  0  0  0  0  0  0  0
  -28.9466  -25.4814   15.9055 C   0  0  0  0  0  0  0  0  0  0  0  0
  -28.2912  -25.5948   18.2786 C   0  0  0  0  0  0  0  0  0  0  0  0
  -22.5500  -20.6497   20.2786 C   0  0  1  0  0  0  0  0  0  0  0  0
  -23.2604  -16.9452   19.8329 C   0  0  1  0  0  0  0  0  0  0  0  0
  -28.1955  -27.1289   18.2176 C   0  0  2  0  0  0  0  0  0  0  0  0
  -33.0063  -24.1749   19.4702 C   0  0  0  0  0  0  0  0  0  0  0  0
  -22.6563   -9.6642   22.4069 C   0  0  0  0  0  0  0  0  0  0  0  0
  -33.3852  -18.8060   20.7197 C   0  0  0  0  0  0  0  0  0  0  0  0
  -33.3702  -19.2205   23.1636 C   0  0  0  0  0  0  0  0  0  0  0  0
  -21.7492  -16.0037   24.0979 C   0  0  0  0  0  0  0  0  0  0  0  0
  -21.8771  -13.5984   24.7810 C   0  0  0  0  0  0  0  0  0  0  0  0
  -20.1347  -14.3411   23.1578 C   0  0  0  0  0  0  0  0  0  0  0  0
  -24.6946  -10.8573   19.4240 C   0  0  0  0  0  0  0  0  0  0  0  0
  -31.4031  -18.0696   22.0984 C   0  0  0  0  0  0  0  0  0  0  0  0
  -30.4548  -17.8572   20.9192 C   0  0  0  0  0  0  0  0  0  1  0  0
  -31.7825  -23.2609   19.3101 C   0  0  2  0  0  0  0  0  0  0  0  0
  -22.5481  -14.2162   22.4148 C   0  0  1  0  0  0  0  0  0  0  0  0
  -23.0680  -10.6288   21.3056 C   0  0  2  0  0  0  0  0  0  0  0  0
  -32.4677  -19.1912   21.9049 C   0  0  0  0  0  0  0  0  0  0  0  0
  -21.5992  -14.5524   23.5997 C   0  0  0  0  0  0  0  0  0  0  0  0
  -30.6503  -23.0242   21.4297 N   0  0  0  0  0  0  0  0  0  0  0  0
  -26.1244  -26.9445   19.5439 N   0  0  0  0  0  0  0  0  0  0  0  0
  -32.0902  -21.2641   20.6323 N   0  0  0  0  0  0  0  0  0  0  0  0
  -27.2041  -27.6790   19.2262 N   0  0  0  0  0  0  0  0  0  0  0  0
  -23.4492  -15.8950   20.8357 N   0  0  0  0  0  0  0  0  0  0  0  0
  -29.2627  -25.1084   17.2864 N   0  0  0  0  0  0  0  0  0  0  0  0
  -28.2897  -29.7350   19.6791 N   0  0  0  0  0  0  0  0  0  0  0  0
  -24.6222  -29.8917   22.3098 N   0  0  0  0  0  0  0  0  0  0  0  0
  -22.7869  -19.3178   19.7670 N   0  0  0  0  0  0  0  0  0  0  0  0
  -22.4085  -12.8565   21.9047 N   0  0  0  0  0  0  0  0  0  0  0  0
  -30.6397  -24.0371   18.8833 N   0  0  0  0  0  0  0  0  0  0  0  0
  -24.2032  -10.0250   20.5521 N   0  3  0  0  0  0  0  0  0  0  0  0
  -26.4983  -31.0394   21.6605 O   0  0  0  0  0  0  0  0  0  0  0  0
  -23.1136  -18.2372   21.8037 O   0  0  0  0  0  0  0  0  0  0  0  0
  -21.2393  -15.1680   20.6805 O   0  0  0  0  0  0  0  0  0  0  0  0
  -24.6117  -12.2252   22.2576 O   0  0  0  0  0  0  0  0  0  0  0  0
  -31.1765  -23.9606   16.6555 O   0  0  0  0  0  0  0  0  0  0  0  0
  -20.6982  -25.9594   22.7274 O   0  0  0  0  0  0  0  0  0  0  0  0
  -29.5330  -16.8227   21.2600 O   0  0  0  0  0  0  0  0  0  1  0  0
  -16.5460  -29.5715   23.0676 F   0  0  0  0  0  0  0  0  0  0  0  0
  -18.2824  -25.4652   21.4774 F   0  0  0  0  0  0  0  0  0  0  0  0
  1  2  1  0  0  0  0
  1  5  2  0  0  0  0
  2  6  2  0  0  0  0
  3  8  2  0  0  0  0
  3 17  1  0  0  0  0
  4  9  1  0  0  0  0
  4 17  2  0  0  0  0
  5 19  1  0  0  0  0
  6 21  1  0  0  0  0
  7 10  2  0  0  0  0
  7 20  1  0  0  0  0
  8 23  1  0  0  0  0
  9 23  2  0  0  0  0
 10 24  1  0  0  0  0
 11 12  2  0  0  0  0
 11 25  1  0  0  0  0
 12 26  1  0  0  0  0
 13 16  2  0  0  0  0
 13 29  1  0  0  0  0
 14 22  1  0  0  0  0
 14 24  2  0  0  0  0
 15 26  2  0  0  0  0
 15 27  1  0  0  0  0
 16 64  1  0  0  0  0
 17 28  1  0  0  0  0
 18 28  1  0  0  0  0
 18 30  2  0  0  0  0
 18 32  1  0  0  0  0
 19 21  2  0  0  0  0
 19 37  1  0  0  0  0
 20 22  2  0  0  0  0
 20 38  1  0  0  0  0
 21 46  1  0  0  0  0
 22 39  1  0  0  0  0
 23 81  1  0  0  0  0
 24 82  1  0  0  0  0
 25 27  2  0  0  0  0
 25 81  1  0  0  0  0
 26 83  1  0  0  0  0
 27 84  1  0  0  0  0
 28 65  2  0  0  0  0
 29 62  1  0  0  0  0
 29 66  2  0  0  0  0
 30 67  1  0  0  0  0
 30 70  1  0  0  0  0
 31 59  1  0  0  0  0
 31 64  2  0  0  0  0
 31 66  1  0  0  0  0
 32 71  1  0  0  0  0
 32 76  2  0  0  0  0
 33 47  1  0  0  0  0
 33 72  1  0  0  0  0
 33 77  2  0  0  0  0
 34 60  1  0  0  0  0
 34 68  1  0  0  0  0
 34 78  2  0  0  0  0
 35 61  1  0  0  0  0
 35 73  1  0  0  0  0
 35 79  2  0  0  0  0
 36 69  1  0  0  0  0
 36 74  1  0  0  0  0
 36 80  2  0  0  0  0
 37 40  1  0  0  0  0
 38 47  1  0  0  0  0
 39 68  1  0  0  0  0
 40 42  1  0  0  0  0
 41 43  1  0  0  0  0
 41 44  1  0  0  0  0
 42 46  1  0  0  0  0
 43 48  1  0  0  0  0
 44 69  1  0  0  0  0
 45 48  1  0  0  0  0
 45 69  1  0  0  0  0
 46 72  1  0  0  0  0
 47 68  1  0  0  0  0
 48 67  1  0  0  0  0
 49 59  1  0  0  0  0
 50 61  1  0  0  0  0
 51 62  1  0  0  0  0
 52 62  1  0  0  0  0
 53 63  1  0  0  0  0
 54 63  1  0  0  0  0
 55 63  1  0  0  0  0
 56 75  1  0  0  0  0
 57 58  1  0  0  0  0
 57 62  1  0  0  0  0
 58 82  1  0  0  0  0
 59 74  1  0  0  0  0
 60 63  1  0  0  0  0
 60 73  1  0  0  0  0
 61 75  1  0  0  0  0
 65 67  1  0  0  0  0
M  CHG  1  75   1
M  ISO  4  36 100  58 101  74 100  82 101
M  END
> <Batch ID>
0062

> <Smiles>
CNC(C)C(=O)NC(C(=O)N1Cc2cc([101O:1][101CH2:1]CC(C)(C)c3ccnc(C(C)[100NH:0][100C:0](=O)N4CCCC(n5nc(-c6ccc(Oc7ccc(F)cc7F)cc6)c(C(N)=O)c5N)C4)n3)ccc2CC1C(=O)NC1CCCc2ccccc21)C(C)(C)C

> <Shape>
0.211

> <Color>
0.045

> <Negative vol penalty>
0.000

$$$$

  -OEChem-04052318003D

 77 85  0     1  0  0  0  0  0999 V2000
  -19.9895  -34.8627   22.4091 C   0  0  0  0  0  0  0  0  0  0  0  0
  -21.3226  -34.4666   22.3724 C   0  0  0  0  0  0  0  0  0  0  0  0
  -25.3038  -16.0011   21.5456 C   0  0  0  0  0  0  0  0  0  0  0  0
  -25.1824  -15.5667   19.1720 C   0  0  0  0  0  0  0  0  0  0  0  0
  -19.0027  -33.9514   22.7831 C   0  0  0  0  0  0  0  0  0  0  0  0
  -21.6698  -33.1591   22.7108 C   0  0  0  0  0  0  0  0  0  0  0  0
  -26.1681  -29.7956   20.2699 C   0  0  0  0  0  0  0  0  0  0  0  0
  -24.1287  -15.2748   21.7386 C   0  0  0  0  0  0  0  0  0  0  0  0
  -24.0073  -14.8404   19.3651 C   0  0  0  0  0  0  0  0  0  0  0  0
  -27.4670  -29.5175   20.6934 C   0  0  0  0  0  0  0  0  0  0  0  0
  -21.3567  -13.2310   22.9021 C   0  0  0  0  0  0  0  0  0  0  0  0
  -21.3222  -12.3227   23.9600 C   0  0  0  0  0  0  0  0  0  0  0  0
  -26.6990  -27.4506   21.6718 C   0  0  0  0  0  0  0  0  0  0  0  0
  -23.1753  -11.1171   22.9855 C   0  0  0  0  0  0  0  0  0  0  0  0
  -30.8315  -25.1799   21.5027 C   0  0  0  0  0  0  0  0  0  0  0  0
  -25.8306  -16.1472   20.2622 C   0  0  0  0  0  0  0  0  0  0  0  0
  -28.3624  -16.4045   20.0848 C   0  0  0  0  0  0  0  0  0  0  0  0
  -19.3370  -32.6295   23.1169 C   0  0  0  0  0  0  0  0  0  0  0  0
  -25.1212  -28.9070   20.5541 C   0  0  0  0  0  0  0  0  0  0  0  0
  -20.6868  -32.2297   23.0909 C   0  0  0  0  0  0  0  0  0  0  0  0
  -25.3882  -27.7185   21.2485 C   0  0  0  0  0  0  0  0  0  0  0  0
  -23.4805  -14.6944   20.6484 C   0  0  0  0  0  0  0  0  0  0  0  0
  -27.7321  -28.3463   21.3969 C   0  0  0  0  0  0  0  0  0  0  0  0
  -22.3005  -13.0823   21.8857 C   0  0  0  0  0  0  0  0  0  0  0  0
  -22.2315  -11.2657   24.0018 C   0  0  0  0  0  0  0  0  0  0  0  0
  -23.2098  -12.0254   21.9275 C   0  0  0  0  0  0  0  0  0  0  0  0
  -27.0441  -16.8978   20.0621 C   0  0  0  0  0  0  0  0  0  0  0  0
  -30.6585  -24.1667   20.5935 C   0  0  0  0  0  0  0  0  0  0  0  0
  -29.1456  -17.5064   19.8422 C   0  0  0  0  0  0  0  0  0  0  0  0
  -28.8366  -15.0695   20.3053 C   0  0  0  0  0  0  0  0  0  0  0  0
  -30.3950  -22.7524   20.8857 C   0  0  0  0  0  0  0  0  0  0  0  0
  -22.4171  -29.0845   22.2155 C   0  0  0  0  0  0  0  0  0  0  0  0
  -21.9211  -26.1259   20.9813 C   0  0  0  0  0  0  0  0  0  0  0  0
  -23.2565  -23.2763   19.6611 C   0  0  0  0  0  0  0  0  0  0  0  0
  -18.2408  -31.6935   23.5607 C   0  0  0  0  0  0  0  0  0  0  0  0
  -23.7304  -29.2087   20.0671 C   0  0  0  0  0  0  0  0  0  0  0  0
  -24.3031  -26.7219   21.5613 C   0  0  0  0  0  0  0  0  0  0  0  0
  -18.6510  -30.2232   23.5427 C   0  0  0  0  0  0  0  0  0  0  0  0
  -27.9083  -22.1619   18.3099 C   0  0  0  0  0  0  0  0  0  0  0  0
  -20.0187  -30.0425   24.1934 C   0  0  0  0  0  0  0  0  0  0  0  0
  -27.5581  -20.6939   18.5566 C   0  0  0  0  0  0  0  0  0  0  0  0
  -28.1891  -22.8938   19.6187 C   0  0  0  0  0  0  0  0  0  0  0  0
  -28.9023  -20.7900   20.7044 C   0  0  0  0  0  0  0  0  0  0  0  0
  -21.1004  -30.8134   23.4271 C   0  0  1  0  0  0  0  0  0  0  0  0
  -22.6489  -28.4807   20.8592 C   0  0  1  0  0  0  0  0  0  0  0  0
  -28.6349  -20.0004   19.4112 C   0  0  1  0  0  0  0  0  0  0  0  0
  -22.6034  -21.0184   18.7820 C   0  0  0  0  0  0  0  0  0  0  0  0
  -21.4719  -25.1470   23.8362 C   0  0  0  0  0  0  0  0  0  0  0  0
  -21.7723  -22.8042   23.0059 C   0  0  0  0  0  0  0  0  0  0  0  0
  -19.8904  -24.1983   22.1470 C   0  0  0  0  0  0  0  0  0  0  0  0
  -24.3759  -23.8657   16.9855 C   0  0  0  0  0  0  0  0  0  0  0  0
  -31.2969  -27.6933   21.1743 C   0  0  0  0  0  0  0  0  0  0  0  0
  -30.0676  -28.5812   21.0149 C   0  0  0  0  0  0  0  0  0  1  0  0
  -22.2533  -24.7180   21.4131 C   0  0  1  0  0  0  0  0  0  0  0  0
  -22.8902  -22.4694   18.4285 C   0  0  2  0  0  0  0  0  0  0  0  0
  -21.3673  -24.2364   22.5965 C   0  0  0  0  0  0  0  0  0  0  0  0
  -26.9890  -18.2109   19.8241 N   0  0  0  0  0  0  0  0  0  0  0  0
  -30.7676  -24.6645   19.3247 N   0  0  0  0  0  0  0  0  0  0  0  0
  -31.0053  -25.9683   19.4166 N   0  0  0  0  0  0  0  0  0  0  0  0
  -31.0432  -26.2753   20.7235 N   0  0  0  0  0  0  0  0  0  0  0  0
  -28.2824  -18.5521   19.6951 N   0  0  0  0  0  0  0  0  0  0  0  0
  -29.2137  -22.1877   20.3985 N   0  0  0  0  0  0  0  0  0  0  0  0
  -22.9585  -27.0650   21.0694 N   0  0  0  0  0  0  0  0  0  0  0  0
  -30.4815  -17.6732   19.7426 N   0  0  0  0  0  0  0  0  0  0  0  0
  -27.8966  -14.0567   20.5395 N   0  0  0  0  0  0  0  0  0  0  0  0
  -21.4772  -30.0974   22.2272 N   0  0  0  0  0  0  0  0  0  0  0  0
  -22.1534  -23.8897   20.2162 N   0  0  0  0  0  0  0  0  0  0  0  0
  -24.0043  -22.5007   17.4391 N   0  3  0  0  0  0  0  0  0  0  0  0
  -30.0586  -14.7862   20.3113 O   0  0  0  0  0  0  0  0  0  0  0  0
  -31.2553  -22.1640   21.5390 O   0  0  0  0  0  0  0  0  0  0  0  0
  -23.0435  -28.6617   23.1801 O   0  0  0  0  0  0  0  0  0  0  0  0
  -20.7851  -26.3814   20.5740 O   0  0  0  0  0  0  0  0  0  0  0  0
  -24.4055  -23.3515   20.0908 O   0  0  0  0  0  0  0  0  0  0  0  0
  -22.3340  -13.9854   20.8364 O   0  0  0  0  0  0  0  0  0  0  0  0
  -28.9989  -28.0727   21.8120 O   0  0  0  0  0  0  0  0  0  1  0  0
  -22.1992  -10.3944   25.0187 F   0  0  0  0  0  0  0  0  0  0  0  0
  -24.1195  -11.8781   20.9546 F   0  0  0  0  0  0  0  0  0  0  0  0
  1  2  1  0  0  0  0
  1  5  2  0  0  0  0
  2  6  2  0  0  0  0
  3  8  2  0  0  0  0
  3 16  1  0  0  0  0
  4  9  1  0  0  0  0
  4 16  2  0  0  0  0
  5 18  1  0  0  0  0
  6 20  1  0  0  0  0
  7 10  2  0  0  0  0
  7 19  1  0  0  0  0
  8 22  1  0  0  0  0
  9 22  2  0  0  0  0
 10 23  1  0  0  0  0
 11 12  2  0  0  0  0
 11 24  1  0  0  0  0
 12 25  1  0  0  0  0
 13 21  1  0  0  0  0
 13 23  2  0  0  0  0
 14 25  2  0  0  0  0
 14 26  1  0  0  0  0
 15 28  2  0  0  0  0
 15 60  1  0  0  0  0
 16 27  1  0  0  0  0
 17 27  1  0  0  0  0
 17 29  2  0  0  0  0
 17 30  1  0  0  0  0
 18 20  2  0  0  0  0
 18 35  1  0  0  0  0
 19 21  2  0  0  0  0
 19 36  1  0  0  0  0
 20 44  1  0  0  0  0
 21 37  1  0  0  0  0
 22 74  1  0  0  0  0
 23 75  1  0  0  0  0
 24 26  2  0  0  0  0
 24 74  1  0  0  0  0
 25 76  1  0  0  0  0
 26 77  1  0  0  0  0
 27 57  2  0  0  0  0
 28 31  1  0  0  0  0
 28 58  1  0  0  0  0
 29 61  1  0  0  0  0
 29 64  1  0  0  0  0
 30 65  1  0  0  0  0
 30 69  2  0  0  0  0
 31 62  1  0  0  0  0
 31 70  2  0  0  0  0
 32 45  1  0  0  0  0
 32 66  1  0  0  0  0
 32 71  2  0  0  0  0
 33 54  1  0  0  0  0
 33 63  1  0  0  0  0
 33 72  2  0  0  0  0
 34 55  1  0  0  0  0
 34 67  1  0  0  0  0
 34 73  2  0  0  0  0
 35 38  1  0  0  0  0
 36 45  1  0  0  0  0
 37 63  1  0  0  0  0
 38 40  1  0  0  0  0
 39 41  1  0  0  0  0
 39 42  1  0  0  0  0
 40 44  1  0  0  0  0
 41 46  1  0  0  0  0
 42 62  1  0  0  0  0
 43 46  1  0  0  0  0
 43 62  1  0  0  0  0
 44 66  1  0  0  0  0
 45 63  1  0  0  0  0
 46 61  1  0  0  0  0
 47 55  1  0  0  0  0
 48 56  1  0  0  0  0
 49 56  1  0  0  0  0
 50 56  1  0  0  0  0
 51 68  1  0  0  0  0
 52 53  1  0  0  0  0
 52 60  1  0  0  0  0
 53 75  1  0  0  0  0
 54 56  1  0  0  0  0
 54 67  1  0  0  0  0
 55 68  1  0  0  0  0
 57 61  1  0  0  0  0
 58 59  2  0  0  0  0
 59 60  1  0  0  0  0
M  CHG  1  68   1
M  ISO  4  28 100  31 100  53 101  75 101
M  END
> <Batch ID>
0062

> <Smiles>
CNC(C)C(=O)NC(C(=O)N1Cc2cc([101O:1][101CH2:1]Cn3c[100c:0]([100C:0](=O)N4CCCC(n5nc(-c6ccc(Oc7ccc(F)cc7F)cc6)c(C(N)=O)c5N)C4)nn3)ccc2CC1C(=O)NC1CCCc2ccccc21)C(C)(C)C

> <Shape>
0.235

> <Color>
0.093

> <Negative vol penalty>
0.000

$$$$

  -OEChem-04052318002D

  0  0  0     0  0  0  0  0  0999 V2000
M  END
$$$$

  -OEChem-04052318003D

 86 94  0     1  0  0  0  0  0999 V2000
  -18.5866  -20.0412   24.7318 C   0  0  0  0  0  0  0  0  0  0  0  0
  -19.9330  -20.0566   24.3818 C   0  0  0  0  0  0  0  0  0  0  0  0
  -23.2871   -9.7984   19.9107 C   0  0  0  0  0  0  0  0  0  0  0  0
  -23.7307   -9.9387   22.2815 C   0  0  0  0  0  0  0  0  0  0  0  0
  -18.2132  -20.1803   26.0678 C   0  0  0  0  0  0  0  0  0  0  0  0
  -20.9067  -20.2122   25.3677 C   0  0  0  0  0  0  0  0  0  0  0  0
  -26.4745  -17.6638   25.4776 C   0  0  0  0  0  0  0  0  0  0  0  0
  -22.5578   -8.6273   20.1165 C   0  0  0  0  0  0  0  0  0  0  0  0
  -23.0015   -8.7676   22.4873 C   0  0  0  0  0  0  0  0  0  0  0  0
  -27.7345  -18.1476   25.1284 C   0  0  0  0  0  0  0  0  0  0  0  0
  -19.7521   -7.8628   22.6947 C   0  0  0  0  0  0  0  0  0  0  0  0
  -18.8463   -7.8431   23.7553 C   0  0  0  0  0  0  0  0  0  0  0  0
  -28.1488  -18.7169   27.4357 C   0  0  0  0  0  0  0  0  0  0  0  0
  -20.0455   -5.9938   24.7450 C   0  0  0  0  0  0  0  0  0  0  0  0
  -33.3176  -14.4090   24.7383 C   0  0  0  0  0  0  0  0  0  0  0  0
  -23.8736  -10.4541   20.9932 C   0  0  0  0  0  0  0  0  0  0  0  0
  -24.1384  -12.9836   20.7949 C   0  0  0  0  0  0  0  0  0  0  0  0
  -19.1833  -20.3280   27.0717 C   0  0  0  0  0  0  0  0  0  0  0  0
  -26.0370  -17.7130   26.8091 C   0  0  0  0  0  0  0  0  0  0  0  0
  -20.5459  -20.3547   26.7183 C   0  0  0  0  0  0  0  0  0  0  0  0
  -26.8837  -18.2307   27.7996 C   0  0  0  0  0  0  0  0  0  0  0  0
  -22.4150   -8.1119   21.4048 C   0  0  0  0  0  0  0  0  0  0  0  0
  -28.5707  -18.6769   26.1070 C   0  0  0  0  0  0  0  0  0  0  0  0
  -20.8045   -6.9480   22.6592 C   0  0  0  0  0  0  0  0  0  0  0  0
  -18.9931   -6.9086   24.7805 C   0  0  0  0  0  0  0  0  0  0  0  0
  -20.9512   -6.0135   23.6843 C   0  0  0  0  0  0  0  0  0  0  0  0
  -24.6275  -11.6636   20.7813 C   0  0  0  0  0  0  0  0  0  0  0  0
  -32.2199  -15.1417   25.0921 C   0  0  0  0  0  0  0  0  0  0  0  0
  -25.2421  -13.7613   20.5431 C   0  0  0  0  0  0  0  0  0  0  0  0
  -31.5608  -13.5536   23.6980 C   0  0  0  0  0  0  0  0  0  0  0  0
  -22.8055  -13.4638   21.0154 C   0  0  0  0  0  0  0  0  0  0  0  0
  -23.6416  -19.1437   28.3317 C   0  0  0  0  0  0  0  0  0  0  0  0
  -31.1124  -12.7881   21.3820 C   0  0  0  0  0  0  0  0  0  0  0  0
  -24.7299  -17.4187   30.8541 C   0  0  0  0  0  0  0  0  0  0  0  0
  -27.3311  -15.7830   32.3391 C   0  0  0  0  0  0  0  0  0  0  0  0
  -18.7294  -20.5223   28.4968 C   0  0  0  0  0  0  0  0  0  0  0  0
  -24.6856  -17.1625   27.1737 C   0  0  0  0  0  0  0  0  0  0  0  0
  -26.4694  -18.2876   29.2465 C   0  0  0  0  0  0  0  0  0  0  0  0
  -19.8380  -20.3069   29.5239 C   0  0  0  0  0  0  0  0  0  0  0  0
  -29.4699  -13.6689   18.3216 C   0  0  0  0  0  0  0  0  0  0  0  0
  -21.1088  -21.0355   29.0985 C   0  0  0  0  0  0  0  0  0  0  0  0
  -28.0015  -13.3476   18.5969 C   0  0  0  0  0  0  0  0  0  0  0  0
  -30.3981  -12.6782   19.0173 C   0  0  0  0  0  0  0  0  0  0  0  0
  -28.7045  -12.2441   20.7679 C   0  0  0  0  0  0  0  0  0  0  0  0
  -21.6326  -20.4965   27.7619 C   0  0  1  0  0  0  0  0  0  0  0  0
  -24.1400  -17.7338   28.4788 C   0  0  1  0  0  0  0  0  0  0  0  0
  -27.7334  -13.2394   20.1085 C   0  0  2  0  0  0  0  0  0  0  0  0
  -30.7511  -11.2011   23.2480 C   0  0  0  0  0  0  0  0  0  0  0  0
  -27.9268  -14.5048   34.4148 C   0  0  0  0  0  0  0  0  0  0  0  0
  -28.8497  -13.9988   25.1248 C   0  0  0  0  0  0  0  0  0  0  0  0
  -29.2550  -15.5502   23.1664 C   0  0  0  0  0  0  0  0  0  0  0  0
  -24.8726  -20.0333   32.4204 C   0  0  0  0  0  0  0  0  0  0  0  0
  -26.3297  -18.8713   34.0921 C   0  0  0  0  0  0  0  0  0  0  0  0
  -23.9916  -18.0861   33.7190 C   0  0  0  0  0  0  0  0  0  0  0  0
  -32.4820  -20.1870   25.2313 C   0  0  0  0  0  0  0  0  0  0  0  0
  -33.2712  -18.8995   27.2330 C   0  0  0  0  0  0  0  0  0  0  0  0
  -27.9650  -13.3405   30.7928 C   0  0  0  0  0  0  0  0  0  0  0  0
  -32.0930  -16.3336   26.0101 C   0  0  0  0  0  0  0  0  0  0  0  0
  -32.2750  -17.6512   25.2437 C   0  0  0  0  0  0  0  0  0  0  0  0
  -30.8254  -19.0623   26.7583 C   0  0  0  0  0  0  0  0  0  1  0  0
  -30.7245  -12.6823   22.8354 C   0  0  1  0  0  0  0  0  0  0  0  0
  -25.7432  -17.6488   31.9491 C   0  0  1  0  0  0  0  0  0  0  0  0
  -27.4225  -14.4114   32.9831 C   0  0  2  0  0  0  0  0  0  0  0  0
  -29.7751  -15.0549   24.5171 C   0  0  0  0  0  0  0  0  0  0  0  0
  -25.2416  -18.6607   33.0177 C   0  0  0  0  0  0  0  0  0  0  0  0
  -32.2248  -18.9454   26.1054 C   0  0  0  0  0  0  0  0  0  0  0  0
  -25.9397  -11.6024   20.5398 N   0  0  0  0  0  0  0  0  0  0  0  0
  -31.1473  -14.5907   24.4335 N   0  0  0  0  0  0  0  0  0  0  0  0
  -26.2845  -12.8937   20.3993 N   0  0  0  0  0  0  0  0  0  0  0  0
  -32.8804  -13.4332   23.8754 N   0  3  0  0  0  0  0  0  0  0  0  0
  -25.1362  -17.7429   29.5519 N   0  0  0  0  0  0  0  0  0  0  0  0
  -30.0968  -12.5875   20.4470 N   0  0  0  0  0  0  0  0  0  0  0  0
  -25.4129  -15.0959   20.4329 N   0  0  0  0  0  0  0  0  0  0  0  0
  -21.7904  -12.5288   21.2600 N   0  0  0  0  0  0  0  0  0  0  0  0
  -22.3144  -19.2351   27.9579 N   0  0  0  0  0  0  0  0  0  0  0  0
  -26.0743  -16.3318   32.4823 N   0  0  0  0  0  0  0  0  0  0  0  0
  -28.3531  -13.5386   32.2130 N   0  3  0  0  0  0  0  0  0  0  0  0
  -22.5201  -14.6847   20.9799 O   0  0  0  0  0  0  0  0  0  0  0  0
  -24.4042  -20.0793   28.5433 O   0  0  0  0  0  0  0  0  0  0  0  0
  -32.2831  -13.0444   21.0885 O   0  0  0  0  0  0  0  0  0  0  0  0
  -23.6212  -16.9612   31.1425 O   0  0  0  0  0  0  0  0  0  0  0  0
  -28.2808  -16.3161   31.7694 O   0  0  0  0  0  0  0  0  0  0  0  0
  -21.7033   -6.9693   21.6059 O   0  0  0  0  0  0  0  0  0  0  0  0
  -29.8009  -19.1504   25.7688 O   0  0  0  0  0  0  0  0  0  1  0  0
  -18.1242   -6.8908   25.7997 F   0  0  0  0  0  0  0  0  0  0  0  0
  -21.9610   -5.1329   23.6563 F   0  0  0  0  0  0  0  0  0  0  0  0
  1  2  1  0  0  0  0
  1  5  2  0  0  0  0
  2  6  2  0  0  0  0
  3  8  2  0  0  0  0
  3 16  1  0  0  0  0
  4  9  1  0  0  0  0
  4 16  2  0  0  0  0
  5 18  1  0  0  0  0
  6 20  1  0  0  0  0
  7 10  2  0  0  0  0
  7 19  1  0  0  0  0
  8 22  1  0  0  0  0
  9 22  2  0  0  0  0
 10 23  1  0  0  0  0
 11 12  2  0  0  0  0
 11 24  1  0  0  0  0
 12 25  1  0  0  0  0
 13 21  1  0  0  0  0
 13 23  2  0  0  0  0
 14 25  2  0  0  0  0
 14 26  1  0  0  0  0
 15 28  2  0  0  0  0
 15 70  1  0  0  0  0
 16 27  1  0  0  0  0
 17 27  1  0  0  0  0
 17 29  2  0  0  0  0
 17 31  1  0  0  0  0
 18 20  2  0  0  0  0
 18 36  1  0  0  0  0
 19 21  2  0  0  0  0
 19 37  1  0  0  0  0
 20 45  1  0  0  0  0
 21 38  1  0  0  0  0
 22 83  1  0  0  0  0
 23 84  1  0  0  0  0
 24 26  2  0  0  0  0
 24 83  1  0  0  0  0
 25 85  1  0  0  0  0
 26 86  1  0  0  0  0
 27 67  2  0  0  0  0
 28 58  1  0  0  0  0
 28 68  1  0  0  0  0
 29 69  1  0  0  0  0
 29 73  1  0  0  0  0
 30 61  1  0  0  0  0
 30 68  1  0  0  0  0
 30 70  2  0  0  0  0
 31 74  1  0  0  0  0
 31 78  2  0  0  0  0
 32 46  1  0  0  0  0
 32 75  1  0  0  0  0
 32 79  2  0  0  0  0
 33 61  1  0  0  0  0
 33 72  1  0  0  0  0
 33 80  2  0  0  0  0
 34 62  1  0  0  0  0
 34 71  1  0  0  0  0
 34 81  2  0  0  0  0
 35 63  1  0  0  0  0
 35 76  1  0  0  0  0
 35 82  2  0  0  0  0
 36 39  1  0  0  0  0
 37 46  1  0  0  0  0
 38 71  1  0  0  0  0
 39 41  1  0  0  0  0
 40 42  1  0  0  0  0
 40 43  1  0  0  0  0
 41 45  1  0  0  0  0
 42 47  1  0  0  0  0
 43 72  1  0  0  0  0
 44 47  1  0  0  0  0
 44 72  1  0  0  0  0
 45 75  1  0  0  0  0
 46 71  1  0  0  0  0
 47 69  1  0  0  0  0
 48 61  1  0  0  0  0
 49 63  1  0  0  0  0
 50 64  1  0  0  0  0
 51 64  1  0  0  0  0
 52 65  1  0  0  0  0
 53 65  1  0  0  0  0
 54 65  1  0  0  0  0
 55 66  1  0  0  0  0
 56 66  1  0  0  0  0
 57 77  1  0  0  0  0
 58 59  1  0  0  0  0
 59 66  1  0  0  0  0
 60 66  1  0  0  0  0
 60 84  1  0  0  0  0
 62 65  1  0  0  0  0
 62 76  1  0  0  0  0
 63 77  1  0  0  0  0
 64 68  1  0  0  0  0
 67 69  1  0  0  0  0
M  CHG  2  70   1  77   1
M  ISO  4  33 100  60 101  61 100  84 101
M  END
> <Batch ID>
0062

> <Smiles>
CNC(C)C(=O)NC(C(=O)N1Cc2cc([101O:1][101CH2:1]C(C)(C)CCc3cnc([100CH:0](C)[100C:0](=O)N4CCCC(n5nc(-c6ccc(Oc7ccc(F)cc7F)cc6)c(C(N)=O)c5N)C4)n3C(C)C)ccc2CC1C(=O)NC1CCCc2ccccc21)C(C)(C)C

> <Shape>
0.134

> <Color>
0.167

> <Negative vol penalty>
0.000

$$$$

  -OEChem-04052318003D

 87 95  0     1  0  0  0  0  0999 V2000
  -28.8786  -23.9142   17.2995 C   0  0  0  0  0  0  0  0  0  0  0  0
  -27.6663  -24.0791   17.9617 C   0  0  0  0  0  0  0  0  0  0  0  0
  -27.7212  -17.7967   22.8065 C   0  0  0  0  0  0  0  0  0  0  0  0
  -26.0062  -16.7344   21.4771 C   0  0  0  0  0  0  0  0  0  0  0  0
  -30.0249  -24.5470   17.7784 C   0  0  0  0  0  0  0  0  0  0  0  0
  -27.5999  -24.8762   19.1039 C   0  0  0  0  0  0  0  0  0  0  0  0
  -23.5917  -27.9712   19.0826 C   0  0  0  0  0  0  0  0  0  0  0  0
  -28.4806  -16.6276   22.7610 C   0  0  0  0  0  0  0  0  0  0  0  0
  -26.7657  -15.5653   21.4316 C   0  0  0  0  0  0  0  0  0  0  0  0
  -22.3556  -27.4145   19.4080 C   0  0  0  0  0  0  0  0  0  0  0  0
  -29.4391  -14.3986   19.7251 C   0  0  0  0  0  0  0  0  0  0  0  0
  -29.5621  -13.7550   18.4937 C   0  0  0  0  0  0  0  0  0  0  0  0
  -22.5561  -28.2924   21.6459 C   0  0  0  0  0  0  0  0  0  0  0  0
  -28.5386  -11.7752   19.4263 C   0  0  0  0  0  0  0  0  0  0  0  0
  -26.4839  -17.8500   22.1646 C   0  0  0  0  0  0  0  0  0  0  0  0
  -25.7367  -20.1321   21.3034 C   0  0  0  0  0  0  0  0  0  0  0  0
  -29.9706  -25.3601   18.9215 C   0  0  0  0  0  0  0  0  0  0  0  0
  -24.3255  -28.6847   20.0412 C   0  0  0  0  0  0  0  0  0  0  0  0
  -28.7468  -25.5195   19.5993 C   0  0  0  0  0  0  0  0  0  0  0  0
  -23.8001  -28.8594   21.3294 C   0  0  0  0  0  0  0  0  0  0  0  0
  -28.0029  -15.5119   22.0736 C   0  0  0  0  0  0  0  0  0  0  0  0
  -21.8390  -27.5726   20.6907 C   0  0  0  0  0  0  0  0  0  0  0  0
  -28.8660  -13.7305   20.8071 C   0  0  0  0  0  0  0  0  0  0  0  0
  -29.1118  -12.4433   18.3443 C   0  0  0  0  0  0  0  0  0  0  0  0
  -28.4156  -12.4188   20.6577 C   0  0  0  0  0  0  0  0  0  0  0  0
  -25.6987  -19.0572   22.2117 C   0  0  0  0  0  0  0  0  0  0  0  0
  -24.8094  -21.0227   21.7864 C   0  0  0  0  0  0  0  0  0  0  0  0
  -17.5839  -21.8321   23.4674 C   0  0  0  0  0  0  0  0  0  0  0  0
  -17.1157  -23.5722   24.5208 C   0  0  0  0  0  0  0  0  0  0  0  0
  -26.5385  -20.3095   20.1281 C   0  0  0  0  0  0  0  0  0  0  0  0
  -27.1657  -28.3187   21.4207 C   0  0  0  0  0  0  0  0  0  0  0  0
  -26.4787  -31.2153   22.7091 C   0  0  0  0  0  0  0  0  0  0  0  0
  -24.1043  -33.4886   23.6265 C   0  0  0  0  0  0  0  0  0  0  0  0
  -19.9417  -20.3838   25.2140 C   0  0  0  0  0  0  0  0  0  0  0  0
  -31.2457  -25.9857   19.4287 C   0  0  0  0  0  0  0  0  0  0  0  0
  -25.6451  -29.3019   19.6666 C   0  0  0  0  0  0  0  0  0  0  0  0
  -24.5391  -29.6339   22.3890 C   0  0  0  0  0  0  0  0  0  0  0  0
  -31.0141  -27.1149   20.4295 C   0  0  0  0  0  0  0  0  0  0  0  0
  -22.7637  -22.4539   25.8678 C   0  0  0  0  0  0  0  0  0  0  0  0
  -29.9857  -26.6980   21.4761 C   0  0  0  0  0  0  0  0  0  0  0  0
  -23.8393  -21.9151   24.9230 C   0  0  0  0  0  0  0  0  0  0  0  0
  -21.8855  -21.3335   26.4207 C   0  0  0  0  0  0  0  0  0  0  0  0
  -22.3514  -19.9241   24.4534 C   0  0  0  0  0  0  0  0  0  0  0  0
  -28.6294  -26.3962   20.8273 C   0  0  1  0  0  0  0  0  0  0  0  0
  -26.5424  -29.5704   20.8707 C   0  0  1  0  0  0  0  0  0  0  0  0
  -23.2268  -21.0228   23.8267 C   0  0  2  0  0  0  0  0  0  0  0  0
  -23.8459  -35.7474   24.6887 C   0  0  0  0  0  0  0  0  0  0  0  0
  -18.1274  -20.2122   21.5239 C   0  0  0  0  0  0  0  0  0  0  0  0
  -15.9715  -20.0515   22.7412 C   0  0  0  0  0  0  0  0  0  0  0  0
  -15.1622  -24.1588   25.9992 C   0  0  0  0  0  0  0  0  0  0  0  0
  -16.1990  -25.9188   24.5283 C   0  0  0  0  0  0  0  0  0  0  0  0
  -17.3807  -25.1270   26.5673 C   0  0  0  0  0  0  0  0  0  0  0  0
  -27.0265  -29.9874   25.4481 C   0  0  0  0  0  0  0  0  0  0  0  0
  -25.8585  -31.9455   26.4823 C   0  0  0  0  0  0  0  0  0  0  0  0
  -27.9319  -32.2983   25.1409 C   0  0  0  0  0  0  0  0  0  0  0  0
  -22.8329  -34.6119   21.2015 C   0  0  0  0  0  0  0  0  0  0  0  0
  -19.4567  -25.4686   22.4026 C   0  0  0  0  0  0  0  0  0  0  0  0
  -19.1864  -24.9446   23.8147 C   0  0  0  0  0  0  0  0  0  0  0  0
  -18.0988  -19.3735   23.8941 C   0  0  0  0  0  0  0  0  0  0  0  0
  -20.4391  -26.6336   22.3683 C   0  0  0  0  0  0  0  0  0  1  0  0
  -25.7804  -31.6903   23.9604 C   0  0  1  0  0  0  0  0  0  0  0  0
  -23.9926  -34.9827   23.3824 C   0  0  2  0  0  0  0  0  0  0  0  0
  -17.4749  -20.4672   22.9390 C   0  0  0  0  0  0  0  0  0  0  0  0
  -16.5122  -24.6261   25.3560 C   0  0  0  0  0  0  0  0  0  0  0  0
  -26.6360  -31.4641   25.2388 C   0  0  0  0  0  0  0  0  0  0  0  0
  -24.8171  -19.2459   23.1973 N   0  0  0  0  0  0  0  0  0  0  0  0
  -16.6410  -22.3690   24.2963 N   0  0  0  0  0  0  0  0  0  0  0  0
  -18.6123  -22.6274   23.1648 N   0  0  0  0  0  0  0  0  0  0  0  0
  -24.2927  -20.4497   22.9111 N   0  0  0  0  0  0  0  0  0  0  0  0
  -18.2884  -23.7338   23.8511 N   0  0  0  0  0  0  0  0  0  0  0  0
  -25.8281  -30.2128   21.9758 N   0  0  0  0  0  0  0  0  0  0  0  0
  -21.3343  -20.5257   25.3300 N   0  0  0  0  0  0  0  0  0  0  0  0
  -24.3938  -22.2324   21.3546 N   0  0  0  0  0  0  0  0  0  0  0  0
  -27.4405  -19.2964   19.7754 N   0  0  0  0  0  0  0  0  0  0  0  0
  -27.9374  -27.6262   20.5072 N   0  0  0  0  0  0  0  0  0  0  0  0
  -25.4188  -33.0835   23.7223 N   0  0  0  0  0  0  0  0  0  0  0  0
  -19.5029  -19.6070   24.1488 N   0  0  0  0  0  0  0  0  0  0  0  0
  -22.8087  -35.2808   22.5277 N   0  3  0  0  0  0  0  0  0  0  0  0
  -26.4692  -21.3433   19.4210 O   0  0  0  0  0  0  0  0  0  0  0  0
  -26.9629  -28.0053   22.5879 O   0  0  0  0  0  0  0  0  0  0  0  0
  -27.5579  -31.7203   22.3901 O   0  0  0  0  0  0  0  0  0  0  0  0
  -23.1234  -32.7548   23.7263 O   0  0  0  0  0  0  0  0  0  0  0  0
  -19.1480  -20.9147   25.9984 O   0  0  0  0  0  0  0  0  0  0  0  0
  -28.7439  -14.3711   22.0287 O   0  0  0  0  0  0  0  0  0  0  0  0
  -20.6330  -27.0296   21.0112 O   0  0  0  0  0  0  0  0  0  1  0  0
  -29.2285  -11.8259   17.1614 F   0  0  0  0  0  0  0  0  0  0  0  0
  -27.8631  -11.7722   21.6933 F   0  0  0  0  0  0  0  0  0  0  0  0
  1  2  1  0  0  0  0
  1  5  2  0  0  0  0
  2  6  2  0  0  0  0
  3  8  2  0  0  0  0
  3 15  1  0  0  0  0
  4  9  1  0  0  0  0
  4 15  2  0  0  0  0
  5 17  1  0  0  0  0
  6 19  1  0  0  0  0
  7 10  2  0  0  0  0
  7 18  1  0  0  0  0
  8 21  1  0  0  0  0
  9 21  2  0  0  0  0
 10 22  1  0  0  0  0
 11 12  2  0  0  0  0
 11 23  1  0  0  0  0
 12 24  1  0  0  0  0
 13 20  1  0  0  0  0
 13 22  2  0  0  0  0
 14 24  2  0  0  0  0
 14 25  1  0  0  0  0
 15 26  1  0  0  0  0
 16 26  1  0  0  0  0
 16 27  2  0  0  0  0
 16 30  1  0  0  0  0
 17 19  2  0  0  0  0
 17 35  1  0  0  0  0
 18 20  2  0  0  0  0
 18 36  1  0  0  0  0
 19 44  1  0  0  0  0
 20 37  1  0  0  0  0
 21 84  1  0  0  0  0
 22 85  1  0  0  0  0
 23 25  2  0  0  0  0
 23 84  1  0  0  0  0
 24 86  1  0  0  0  0
 25 87  1  0  0  0  0
 26 66  2  0  0  0  0
 27 69  1  0  0  0  0
 27 73  1  0  0  0  0
 28 63  1  0  0  0  0
 28 67  1  0  0  0  0
 28 68  2  0  0  0  0
 29 64  1  0  0  0  0
 29 67  2  0  0  0  0
 29 70  1  0  0  0  0
 30 74  1  0  0  0  0
 30 79  2  0  0  0  0
 31 45  1  0  0  0  0
 31 75  1  0  0  0  0
 31 80  2  0  0  0  0
 32 61  1  0  0  0  0
 32 71  1  0  0  0  0
 32 81  2  0  0  0  0
 33 62  1  0  0  0  0
 33 76  1  0  0  0  0
 33 82  2  0  0  0  0
 34 72  1  0  0  0  0
 34 77  1  0  0  0  0
 34 83  2  0  0  0  0
 35 38  1  0  0  0  0
 36 45  1  0  0  0  0
 37 71  1  0  0  0  0
 38 40  1  0  0  0  0
 39 41  1  0  0  0  0
 39 42  1  0  0  0  0
 40 44  1  0  0  0  0
 41 46  1  0  0  0  0
 42 72  1  0  0  0  0
 43 46  1  0  0  0  0
 43 72  1  0  0  0  0
 44 75  1  0  0  0  0
 45 71  1  0  0  0  0
 46 69  1  0  0  0  0
 47 62  1  0  0  0  0
 48 63  1  0  0  0  0
 49 63  1  0  0  0  0
 50 64  1  0  0  0  0
 51 64  1  0  0  0  0
 52 64  1  0  0  0  0
 53 65  1  0  0  0  0
 54 65  1  0  0  0  0
 55 65  1  0  0  0  0
 56 78  1  0  0  0  0
 57 58  1  0  0  0  0
 57 60  1  0  0  0  0
 58 70  1  0  0  0  0
 59 63  1  0  0  0  0
 59 77  1  0  0  0  0
 60 85  1  0  0  0  0
 61 65  1  0  0  0  0
 61 76  1  0  0  0  0
 62 78  1  0  0  0  0
 66 69  1  0  0  0  0
 68 70  1  0  0  0  0
M  CHG  1  78   1
M  ISO  4  34 100  60 101  77 100  85 101
M  END
> <Batch ID>
0062

> <Smiles>
CNC(C)C(=O)NC(C(=O)N1Cc2cc([101O:1][101CH2:1]CCn3nc(C(C)(C)C[100NH:0][100C:0](=O)N4CCCC(n5nc(-c6ccc(Oc7ccc(F)cc7F)cc6)c(C(N)=O)c5N)C4)nc3C(C)(C)C)ccc2CC1C(=O)NC1CCCc2ccccc21)C(C)(C)C

> <Shape>
0.244

> <Color>
0.061

> <Negative vol penalty>
0.000

$$$$

  -OEChem-04052318003D

 85 93  0     1  0  0  0  0  0999 V2000
  -16.7945  -28.6936   23.9963 C   0  0  0  0  0  0  0  0  0  0  0  0
  -17.4319  -27.8596   23.0833 C   0  0  0  0  0  0  0  0  0  0  0  0
  -27.6835  -11.0728   21.5798 C   0  0  0  0  0  0  0  0  0  0  0  0
  -26.0359  -12.6051   20.6996 C   0  0  0  0  0  0  0  0  0  0  0  0
  -17.2929  -29.9736   24.2354 C   0  0  0  0  0  0  0  0  0  0  0  0
  -18.5675  -28.3055   22.4081 C   0  0  0  0  0  0  0  0  0  0  0  0
  -22.2467  -24.8279   22.2876 C   0  0  0  0  0  0  0  0  0  0  0  0
  -26.6887  -10.4225   22.3098 C   0  0  0  0  0  0  0  0  0  0  0  0
  -25.0411  -11.9548   21.4296 C   0  0  0  0  0  0  0  0  0  0  0  0
  -22.1135  -23.7917   21.3643 C   0  0  0  0  0  0  0  0  0  0  0  0
  -22.0082  -10.4736   22.7809 C   0  0  0  0  0  0  0  0  0  0  0  0
  -20.8079  -10.1872   22.1306 C   0  0  0  0  0  0  0  0  0  0  0  0
  -23.6426  -24.9243   19.8817 C   0  0  0  0  0  0  0  0  0  0  0  0
  -22.0025   -8.8421   20.5180 C   0  0  0  0  0  0  0  0  0  0  0  0
  -27.4274  -21.5483   17.4266 C   0  0  0  0  0  0  0  0  0  0  0  0
  -27.3571  -12.1642   20.7747 C   0  0  0  0  0  0  0  0  0  0  0  0
  -28.8091  -12.5415   18.7114 C   0  0  0  0  0  0  0  0  0  0  0  0
  -18.4409  -30.4319   23.5700 C   0  0  0  0  0  0  0  0  0  0  0  0
  -23.0718  -25.9271   22.0096 C   0  0  0  0  0  0  0  0  0  0  0  0
  -19.0810  -29.5933   22.6376 C   0  0  0  0  0  0  0  0  0  0  0  0
  -23.7866  -25.9719   20.8041 C   0  0  0  0  0  0  0  0  0  0  0  0
  -25.3675  -10.8634   22.2348 C   0  0  0  0  0  0  0  0  0  0  0  0
  -22.8092  -23.8412   20.1599 C   0  0  0  0  0  0  0  0  0  0  0  0
  -23.2057   -9.9443   22.2997 C   0  0  0  0  0  0  0  0  0  0  0  0
  -20.8050   -9.3715   20.9992 C   0  0  0  0  0  0  0  0  0  0  0  0
  -23.2028   -9.1285   21.1682 C   0  0  0  0  0  0  0  0  0  0  0  0
  -28.3844  -12.8367   20.0207 C   0  0  0  0  0  0  0  0  0  0  0  0
  -29.7982  -13.4596   18.4560 C   0  0  0  0  0  0  0  0  0  0  0  0
  -28.0124  -20.6763   19.2307 C   0  0  0  0  0  0  0  0  0  0  0  0
  -28.3504  -11.5280   17.8068 C   0  0  0  0  0  0  0  0  0  0  0  0
  -22.6045  -29.0523   21.6654 C   0  0  0  0  0  0  0  0  0  0  0  0
  -25.8429  -29.1226   21.4918 C   0  0  0  0  0  0  0  0  0  0  0  0
  -28.7442  -27.4617   20.8057 C   0  0  0  0  0  0  0  0  0  0  0  0
  -30.7446  -18.8835   21.1438 C   0  0  0  0  0  0  0  0  0  0  0  0
  -18.9148  -31.8405   23.8264 C   0  0  0  0  0  0  0  0  0  0  0  0
  -23.2256  -27.0238   23.0275 C   0  0  0  0  0  0  0  0  0  0  0  0
  -24.7010  -27.1200   20.4665 C   0  0  0  0  0  0  0  0  0  0  0  0
  -20.3408  -32.1000   23.3474 C   0  0  0  0  0  0  0  0  0  0  0  0
  -33.1297  -16.0977   20.6415 C   0  0  0  0  0  0  0  0  0  0  0  0
  -20.5390  -31.5506   21.9383 C   0  0  0  0  0  0  0  0  0  0  0  0
  -32.2046  -14.9092   20.3852 C   0  0  0  0  0  0  0  0  0  0  0  0
  -32.4657  -17.1546   21.5188 C   0  0  0  0  0  0  0  0  0  0  0  0
  -30.2283  -16.4406   20.7451 C   0  0  0  0  0  0  0  0  0  0  0  0
  -20.3297  -30.0318   21.9038 C   0  0  1  0  0  0  0  0  0  0  0  0
  -23.6933  -28.3424   22.4191 C   0  0  1  0  0  0  0  0  0  0  0  0
  -30.8504  -15.3788   19.8259 C   0  0  2  0  0  0  0  0  0  0  0  0
  -31.2165  -27.0641   20.6406 C   0  0  0  0  0  0  0  0  0  0  0  0
  -28.0590  -22.2585   21.9246 C   0  0  0  0  0  0  0  0  0  0  0  0
  -30.2275  -22.4301   20.7005 C   0  0  0  0  0  0  0  0  0  0  0  0
  -27.8268  -19.3059   21.3123 C   0  0  0  0  0  0  0  0  0  0  0  0
  -25.5442  -30.6388   18.8609 C   0  0  0  0  0  0  0  0  0  0  0  0
  -27.9398  -30.1079   18.3635 C   0  0  0  0  0  0  0  0  0  0  0  0
  -27.3585  -31.4914   20.3561 C   0  0  0  0  0  0  0  0  0  0  0  0
  -30.0159  -18.9088   18.7884 C   0  0  0  0  0  0  0  0  0  0  0  0
  -28.8821  -26.4385   23.5793 C   0  0  0  0  0  0  0  0  0  0  0  0
  -23.8148  -21.0782   18.0753 C   0  0  0  0  0  0  0  0  0  0  0  0
  -24.9717  -20.6763   17.1579 C   0  0  0  0  0  0  0  0  0  0  0  0
  -23.8032  -22.5634   18.4177 C   0  0  0  0  0  0  0  0  0  1  0  0
  -26.8565  -29.0136   20.3784 C   0  0  1  0  0  0  0  0  0  0  0  0
  -30.0505  -27.3573   21.5719 C   0  0  2  0  0  0  0  0  0  0  0  0
  -29.2351  -21.4509   21.3481 C   0  0  0  0  0  0  0  0  0  0  0  0
  -28.7327  -20.2381   20.4230 C   0  0  2  0  0  0  0  0  0  0  0  0
  -26.9061  -30.2921   19.4950 C   0  0  0  0  0  0  0  0  0  0  0  0
  -28.4833  -21.4592   18.2879 N   0  0  0  0  0  0  0  0  0  0  0  0
  -29.0494  -13.8620   20.5596 N   0  0  0  0  0  0  0  0  0  0  0  0
  -26.7334  -20.3213   18.9343 N   0  0  0  0  0  0  0  0  0  0  0  0
  -26.3328  -20.8698   17.7772 N   0  0  0  0  0  0  0  0  0  0  0  0
  -29.9021  -14.2191   19.5841 N   0  0  0  0  0  0  0  0  0  0  0  0
  -24.8131  -28.1711   21.4914 N   0  0  0  0  0  0  0  0  0  0  0  0
  -31.1612  -17.5513   20.9874 N   0  0  0  0  0  0  0  0  0  0  0  0
  -30.5806  -13.6832   17.3788 N   0  0  0  0  0  0  0  0  0  0  0  0
  -27.3268  -10.6690   18.2294 N   0  0  0  0  0  0  0  0  0  0  0  0
  -21.4925  -29.3494   22.4299 N   0  0  0  0  0  0  0  0  0  0  0  0
  -28.1259  -28.6765   21.0135 N   0  0  0  0  0  0  0  0  0  0  0  0
  -29.9072  -19.4126   20.1502 N   0  0  0  0  0  0  0  0  0  0  0  0
  -29.9715  -26.2663   22.5840 N   0  3  0  0  0  0  0  0  0  0  0  0
  -28.8453  -11.3779   16.6640 O   0  0  0  0  0  0  0  0  0  0  0  0
  -22.7623  -29.3127   20.4783 O   0  0  0  0  0  0  0  0  0  0  0  0
  -25.9645  -30.0146   22.3352 O   0  0  0  0  0  0  0  0  0  0  0  0
  -28.3170  -26.5577   20.0910 O   0  0  0  0  0  0  0  0  0  0  0  0
  -31.1086  -19.5642   22.1113 O   0  0  0  0  0  0  0  0  0  0  0  0
  -24.3964  -10.2290   22.9468 O   0  0  0  0  0  0  0  0  0  0  0  0
  -22.6805  -22.8315   19.2567 O   0  0  0  0  0  0  0  0  0  1  0  0
  -19.6521   -9.0953   20.3757 F   0  0  0  0  0  0  0  0  0  0  0  0
  -24.3499   -8.6162   20.7020 F   0  0  0  0  0  0  0  0  0  0  0  0
  1  2  1  0  0  0  0
  1  5  2  0  0  0  0
  2  6  2  0  0  0  0
  3  8  2  0  0  0  0
  3 16  1  0  0  0  0
  4  9  1  0  0  0  0
  4 16  2  0  0  0  0
  5 18  1  0  0  0  0
  6 20  1  0  0  0  0
  7 10  2  0  0  0  0
  7 19  1  0  0  0  0
  8 22  1  0  0  0  0
  9 22  2  0  0  0  0
 10 23  1  0  0  0  0
 11 12  2  0  0  0  0
 11 24  1  0  0  0  0
 12 25  1  0  0  0  0
 13 21  1  0  0  0  0
 13 23  2  0  0  0  0
 14 25  2  0  0  0  0
 14 26  1  0  0  0  0
 15 64  2  0  0  0  0
 15 67  1  0  0  0  0
 16 27  1  0  0  0  0
 17 27  1  0  0  0  0
 17 28  2  0  0  0  0
 17 30  1  0  0  0  0
 18 20  2  0  0  0  0
 18 35  1  0  0  0  0
 19 21  2  0  0  0  0
 19 36  1  0  0  0  0
 20 44  1  0  0  0  0
 21 37  1  0  0  0  0
 22 82  1  0  0  0  0
 23 83  1  0  0  0  0
 24 26  2  0  0  0  0
 24 82  1  0  0  0  0
 25 84  1  0  0  0  0
 26 85  1  0  0  0  0
 27 65  2  0  0  0  0
 28 68  1  0  0  0  0
 28 71  1  0  0  0  0
 29 62  1  0  0  0  0
 29 64  1  0  0  0  0
 29 66  2  0  0  0  0
 30 72  1  0  0  0  0
 30 77  2  0  0  0  0
 31 45  1  0  0  0  0
 31 73  1  0  0  0  0
 31 78  2  0  0  0  0
 32 59  1  0  0  0  0
 32 69  1  0  0  0  0
 32 79  2  0  0  0  0
 33 60  1  0  0  0  0
 33 74  1  0  0  0  0
 33 80  2  0  0  0  0
 34 70  1  0  0  0  0
 34 75  1  0  0  0  0
 34 81  2  0  0  0  0
 35 38  1  0  0  0  0
 36 45  1  0  0  0  0
 37 69  1  0  0  0  0
 38 40  1  0  0  0  0
 39 41  1  0  0  0  0
 39 42  1  0  0  0  0
 40 44  1  0  0  0  0
 41 46  1  0  0  0  0
 42 70  1  0  0  0  0
 43 46  1  0  0  0  0
 43 70  1  0  0  0  0
 44 73  1  0  0  0  0
 45 69  1  0  0  0  0
 46 68  1  0  0  0  0
 47 60  1  0  0  0  0
 48 61  1  0  0  0  0
 49 61  1  0  0  0  0
 50 62  1  0  0  0  0
 51 63  1  0  0  0  0
 52 63  1  0  0  0  0
 53 63  1  0  0  0  0
 54 75  1  0  0  0  0
 55 76  1  0  0  0  0
 56 57  1  0  0  0  0
 56 58  1  0  0  0  0
 57 67  1  0  0  0  0
 58 83  1  0  0  0  0
 59 63  1  0  0  0  0
 59 74  1  0  0  0  0
 60 76  1  0  0  0  0
 61 62  1  0  0  0  0
 62 75  1  0  0  0  0
 65 68  1  0  0  0  0
 66 67  1  0  0  0  0
M  CHG  1  76   1
M  ISO  4  34 100  58 101  75 100  83 101
M  END
> <Batch ID>
0062

> <Smiles>
CNC(C)C(=O)NC(C(=O)N1Cc2cc([101O:1][101CH2:1]CCn3cnc(C(C)(C(C)C)[100N:0](C)[100C:0](=O)N4CCCC(n5nc(-c6ccc(Oc7ccc(F)cc7F)cc6)c(C(N)=O)c5N)C4)n3)ccc2CC1C(=O)NC1CCCc2ccccc21)C(C)(C)C

> <Shape>
0.292

> <Color>
0.073

> <Negative vol penalty>
0.000

$$$$

  -OEChem-04052318003D

 83 91  0     1  0  0  0  0  0999 V2000
  -16.7257  -30.4606   23.1297 C   0  0  0  0  0  0  0  0  0  0  0  0
  -17.9183  -31.0010   22.6596 C   0  0  0  0  0  0  0  0  0  0  0  0
  -27.4213  -17.5942   20.6210 C   0  0  0  0  0  0  0  0  0  0  0  0
  -28.9448  -17.1914   18.7897 C   0  0  0  0  0  0  0  0  0  0  0  0
  -16.7303  -29.2321   23.7889 C   0  0  0  0  0  0  0  0  0  0  0  0
  -19.1166  -30.3136   22.8495 C   0  0  0  0  0  0  0  0  0  0  0  0
  -25.4551  -29.1712   19.7134 C   0  0  0  0  0  0  0  0  0  0  0  0
  -26.6681  -16.4842   20.2386 C   0  0  0  0  0  0  0  0  0  0  0  0
  -28.1917  -16.0813   18.4073 C   0  0  0  0  0  0  0  0  0  0  0  0
  -26.8202  -29.2354   19.9890 C   0  0  0  0  0  0  0  0  0  0  0  0
  -24.5477  -13.5446   19.9605 C   0  0  0  0  0  0  0  0  0  0  0  0
  -24.1324  -12.6666   20.9616 C   0  0  0  0  0  0  0  0  0  0  0  0
  -26.6967  -27.0834   21.0719 C   0  0  0  0  0  0  0  0  0  0  0  0
  -26.4380  -12.2431   21.5466 C   0  0  0  0  0  0  0  0  0  0  0  0
  -32.6582  -29.0214   20.9558 C   0  0  0  0  0  0  0  0  0  0  0  0
  -31.6047  -27.2172   22.0004 C   0  0  0  0  0  0  0  0  0  0  0  0
  -28.5596  -17.9479   19.8965 C   0  0  0  0  0  0  0  0  0  0  0  0
  -30.4224  -19.1186   21.1875 C   0  0  0  0  0  0  0  0  0  0  0  0
  -17.9280  -28.5247   23.9785 C   0  0  0  0  0  0  0  0  0  0  0  0
  -24.6970  -28.0658   20.1253 C   0  0  0  0  0  0  0  0  0  0  0  0
  -19.1375  -29.0751   23.5131 C   0  0  0  0  0  0  0  0  0  0  0  0
  -25.3225  -27.0064   20.7981 C   0  0  0  0  0  0  0  0  0  0  0  0
  -31.5885  -28.5634   21.6976 C   0  0  0  0  0  0  0  0  0  0  0  0
  -27.0534  -15.7277   19.1318 C   0  0  0  0  0  0  0  0  0  0  0  0
  -27.4407  -28.1927   20.6709 C   0  0  0  0  0  0  0  0  0  0  0  0
  -25.9081  -13.7718   19.7524 C   0  0  0  0  0  0  0  0  0  0  0  0
  -25.0775  -12.0159   21.7547 C   0  0  0  0  0  0  0  0  0  0  0  0
  -26.8533  -13.1211   20.5455 C   0  0  0  0  0  0  0  0  0  0  0  0
  -29.3377  -19.0948   20.2906 C   0  0  0  0  0  0  0  0  0  0  0  0
  -30.8117  -20.4354   21.2207 C   0  0  0  0  0  0  0  0  0  0  0  0
  -33.5722  -26.9410   20.8961 C   0  0  0  0  0  0  0  0  0  0  0  0
  -31.0244  -18.0463   21.9248 C   0  0  0  0  0  0  0  0  0  0  0  0
  -22.2283  -27.6424   22.0824 C   0  0  0  0  0  0  0  0  0  0  0  0
  -22.3483  -24.6064   20.9464 C   0  0  0  0  0  0  0  0  0  0  0  0
  -24.1957  -22.1197   19.5146 C   0  0  0  0  0  0  0  0  0  0  0  0
  -31.9756  -25.2331   18.6183 C   0  0  0  0  0  0  0  0  0  0  0  0
  -17.8895  -27.2227   24.7387 C   0  0  0  0  0  0  0  0  0  0  0  0
  -23.2307  -27.9995   19.7968 C   0  0  0  0  0  0  0  0  0  0  0  0
  -24.5574  -25.7881   21.2439 C   0  0  0  0  0  0  0  0  0  0  0  0
  -19.1513  -26.3806   24.5686 C   0  0  0  0  0  0  0  0  0  0  0  0
  -28.5621  -24.5805   19.3922 C   0  0  0  0  0  0  0  0  0  0  0  0
  -20.3967  -27.2443   24.7411 C   0  0  0  0  0  0  0  0  0  0  0  0
  -28.5483  -23.0964   19.7626 C   0  0  0  0  0  0  0  0  0  0  0  0
  -29.5505  -24.8717   18.2651 C   0  0  0  0  0  0  0  0  0  0  0  0
  -30.9109  -22.9103   18.8782 C   0  0  0  0  0  0  0  0  0  0  0  0
  -20.4543  -28.3479   23.6780 C   0  0  1  0  0  0  0  0  0  0  0  0
  -22.4544  -27.0610   20.7154 C   0  0  1  0  0  0  0  0  0  0  0  0
  -29.9700  -22.5766   20.0485 C   0  0  2  0  0  0  0  0  0  0  0  0
  -24.0296  -19.7381   18.7413 C   0  0  0  0  0  0  0  0  0  0  0  0
  -34.9725  -24.8221   21.3922 C   0  0  0  0  0  0  0  0  0  0  0  0
  -36.0226  -26.8229   20.3675 C   0  0  0  0  0  0  0  0  0  0  0  0
  -22.4654  -23.6598   23.8447 C   0  0  0  0  0  0  0  0  0  0  0  0
  -23.2437  -21.4306   23.0121 C   0  0  0  0  0  0  0  0  0  0  0  0
  -20.9945  -22.2884   22.3580 C   0  0  0  0  0  0  0  0  0  0  0  0
  -24.8395  -22.8596   16.7223 C   0  0  0  0  0  0  0  0  0  0  0  0
  -30.4724  -29.4754   22.1459 C   0  0  0  0  0  0  0  0  0  0  0  0
  -34.4162  -25.4390   19.0189 C   0  0  0  0  0  0  0  0  0  0  0  0
  -29.3398  -29.5494   21.1277 C   0  0  0  0  0  0  0  0  0  1  0  0
  -23.0625  -23.3401   21.3532 C   0  0  1  0  0  0  0  0  0  0  0  0
  -23.9093  -21.2003   18.3410 C   0  0  2  0  0  0  0  0  0  0  0  0
  -34.6718  -26.0388   20.4485 C   0  0  0  0  0  0  0  0  0  0  0  0
  -22.4558  -22.7034   22.6354 C   0  0  0  0  0  0  0  0  0  0  0  0
  -33.6713  -28.2351   20.5367 N   0  0  0  0  0  0  0  0  0  0  0  0
  -32.5843  -26.3737   21.6142 N   0  0  0  0  0  0  0  0  0  0  0  0
  -29.0558  -20.3006   19.7902 N   0  0  0  0  0  0  0  0  0  0  0  0
  -29.9691  -21.0946   20.3747 N   0  0  0  0  0  0  0  0  0  0  0  0
  -23.1249  -25.7730   20.9049 N   0  0  0  0  0  0  0  0  0  0  0  0
  -30.8797  -24.3547   18.5996 N   0  0  0  0  0  0  0  0  0  0  0  0
  -31.7891  -21.0821   21.8906 N   0  0  0  0  0  0  0  0  0  0  0  0
  -30.5005  -16.7552   21.7740 N   0  0  0  0  0  0  0  0  0  0  0  0
  -20.8961  -27.8064   22.4107 N   0  0  0  0  0  0  0  0  0  0  0  0
  -23.0418  -22.4665   20.1850 N   0  0  0  0  0  0  0  0  0  0  0  0
  -33.1981  -24.6627   18.9514 N   0  0  0  0  0  0  0  0  0  0  0  0
  -24.8677  -21.4639   17.2306 N   0  3  0  0  0  0  0  0  0  0  0  0
  -31.9875  -18.2306   22.7071 O   0  0  0  0  0  0  0  0  0  0  0  0
  -23.1912  -27.9203   22.7875 O   0  0  0  0  0  0  0  0  0  0  0  0
  -21.1473  -24.5607   20.6685 O   0  0  0  0  0  0  0  0  0  0  0  0
  -25.3299  -22.4899   19.8094 O   0  0  0  0  0  0  0  0  0  0  0  0
  -31.8714  -26.4376   18.3627 O   0  0  0  0  0  0  0  0  0  0  0  0
  -26.3188  -14.6444   18.7586 O   0  0  0  0  0  0  0  0  0  0  0  0
  -28.7729  -28.2531   20.9417 O   0  0  0  0  0  0  0  0  0  1  0  0
  -24.6785  -11.1740   22.7171 F   0  0  0  0  0  0  0  0  0  0  0  0
  -28.1616  -13.3363   20.3510 F   0  0  0  0  0  0  0  0  0  0  0  0
  1  2  1  0  0  0  0
  1  5  2  0  0  0  0
  2  6  2  0  0  0  0
  3  8  2  0  0  0  0
  3 17  1  0  0  0  0
  4  9  1  0  0  0  0
  4 17  2  0  0  0  0
  5 19  1  0  0  0  0
  6 21  1  0  0  0  0
  7 10  2  0  0  0  0
  7 20  1  0  0  0  0
  8 24  1  0  0  0  0
  9 24  2  0  0  0  0
 10 25  1  0  0  0  0
 11 12  2  0  0  0  0
 11 26  1  0  0  0  0
 12 27  1  0  0  0  0
 13 22  1  0  0  0  0
 13 25  2  0  0  0  0
 14 27  2  0  0  0  0
 14 28  1  0  0  0  0
 15 23  1  0  0  0  0
 15 63  2  0  0  0  0
 16 23  2  0  0  0  0
 16 64  1  0  0  0  0
 17 29  1  0  0  0  0
 18 29  1  0  0  0  0
 18 30  2  0  0  0  0
 18 32  1  0  0  0  0
 19 21  2  0  0  0  0
 19 37  1  0  0  0  0
 20 22  2  0  0  0  0
 20 38  1  0  0  0  0
 21 46  1  0  0  0  0
 22 39  1  0  0  0  0
 23 56  1  0  0  0  0
 24 80  1  0  0  0  0
 25 81  1  0  0  0  0
 26 28  2  0  0  0  0
 26 80  1  0  0  0  0
 27 82  1  0  0  0  0
 28 83  1  0  0  0  0
 29 65  2  0  0  0  0
 30 66  1  0  0  0  0
 30 69  1  0  0  0  0
 31 61  1  0  0  0  0
 31 63  1  0  0  0  0
 31 64  2  0  0  0  0
 32 70  1  0  0  0  0
 32 75  2  0  0  0  0
 33 47  1  0  0  0  0
 33 71  1  0  0  0  0
 33 76  2  0  0  0  0
 34 59  1  0  0  0  0
 34 67  1  0  0  0  0
 34 77  2  0  0  0  0
 35 60  1  0  0  0  0
 35 72  1  0  0  0  0
 35 78  2  0  0  0  0
 36 68  1  0  0  0  0
 36 73  1  0  0  0  0
 36 79  2  0  0  0  0
 37 40  1  0  0  0  0
 38 47  1  0  0  0  0
 39 67  1  0  0  0  0
 40 42  1  0  0  0  0
 41 43  1  0  0  0  0
 41 44  1  0  0  0  0
 42 46  1  0  0  0  0
 43 48  1  0  0  0  0
 44 68  1  0  0  0  0
 45 48  1  0  0  0  0
 45 68  1  0  0  0  0
 46 71  1  0  0  0  0
 47 67  1  0  0  0  0
 48 66  1  0  0  0  0
 49 60  1  0  0  0  0
 50 61  1  0  0  0  0
 51 61  1  0  0  0  0
 52 62  1  0  0  0  0
 53 62  1  0  0  0  0
 54 62  1  0  0  0  0
 55 74  1  0  0  0  0
 56 58  1  0  0  0  0
 57 61  1  0  0  0  0
 57 73  1  0  0  0  0
 58 81  1  0  0  0  0
 59 62  1  0  0  0  0
 59 72  1  0  0  0  0
 60 74  1  0  0  0  0
 65 66  1  0  0  0  0
M  CHG  1  74   1
M  ISO  4  36 100  58 101  73 100  81 101
M  END
> <Batch ID>
0062

> <Smiles>
CNC(C)C(=O)NC(C(=O)N1Cc2cc([101O:1][101CH2:1]Cc3cnc(C(C)(C)C[100NH:0][100C:0](=O)N4CCCC(n5nc(-c6ccc(Oc7ccc(F)cc7F)cc6)c(C(N)=O)c5N)C4)nc3)ccc2CC1C(=O)NC1CCCc2ccccc21)C(C)(C)C

> <Shape>
0.231

> <Color>
0.077

> <Negative vol penalty>
0.000

$$$$

  -OEChem-04052318003D

 83 91  0     1  0  0  0  0  0999 V2000
  -20.6418  -35.2936   22.4982 C   0  0  0  0  0  0  0  0  0  0  0  0
  -21.8382  -34.7305   22.0660 C   0  0  0  0  0  0  0  0  0  0  0  0
  -29.8950  -16.6309   21.4432 C   0  0  0  0  0  0  0  0  0  0  0  0
  -32.0331  -17.2192   20.4841 C   0  0  0  0  0  0  0  0  0  0  0  0
  -19.8078  -34.5807   23.3586 C   0  0  0  0  0  0  0  0  0  0  0  0
  -22.2020  -33.4544   22.4948 C   0  0  0  0  0  0  0  0  0  0  0  0
  -25.2514  -29.2223   19.2861 C   0  0  0  0  0  0  0  0  0  0  0  0
  -30.1360  -15.2873   21.1564 C   0  0  0  0  0  0  0  0  0  0  0  0
  -32.2741  -15.8755   20.1974 C   0  0  0  0  0  0  0  0  0  0  0  0
  -26.5941  -28.8476   19.2661 C   0  0  0  0  0  0  0  0  0  0  0  0
  -29.9924  -13.2512   18.4623 C   0  0  0  0  0  0  0  0  0  0  0  0
  -28.9537  -12.5142   17.8936 C   0  0  0  0  0  0  0  0  0  0  0  0
  -26.1131  -27.0633   20.8166 C   0  0  0  0  0  0  0  0  0  0  0  0
  -28.9909  -11.0058   19.7805 C   0  0  0  0  0  0  0  0  0  0  0  0
  -31.3520  -27.8193   20.4156 C   0  0  0  0  0  0  0  0  0  0  0  0
  -30.8435  -17.5969   21.1070 C   0  0  0  0  0  0  0  0  0  0  0  0
  -30.9332  -19.6772   22.5807 C   0  0  0  0  0  0  0  0  0  0  0  0
  -20.1569  -33.2914   23.7905 C   0  0  0  0  0  0  0  0  0  0  0  0
  -24.3299  -28.5259   20.0812 C   0  0  0  0  0  0  0  0  0  0  0  0
  -21.3726  -32.7242   23.3628 C   0  0  0  0  0  0  0  0  0  0  0  0
  -24.7587  -27.4296   20.8429 C   0  0  0  0  0  0  0  0  0  0  0  0
  -31.3256  -14.9096   20.5335 C   0  0  0  0  0  0  0  0  0  0  0  0
  -27.0257  -27.7698   20.0336 C   0  0  0  0  0  0  0  0  0  0  0  0
  -30.5305  -12.8654   19.6901 C   0  0  0  0  0  0  0  0  0  0  0  0
  -28.4529  -11.3915   18.5527 C   0  0  0  0  0  0  0  0  0  0  0  0
  -30.0297  -11.7427   20.3492 C   0  0  0  0  0  0  0  0  0  0  0  0
  -30.5949  -18.9850   21.4024 C   0  0  0  0  0  0  0  0  0  0  0  0
  -32.6105  -27.2532   20.4178 C   0  0  0  0  0  0  0  0  0  0  0  0
  -30.5967  -27.5913   19.2834 C   0  0  0  0  0  0  0  0  0  0  0  0
  -30.4858  -20.9581   22.3669 C   0  0  0  0  0  0  0  0  0  0  0  0
  -32.2711  -26.3686   18.3515 C   0  0  0  0  0  0  0  0  0  0  0  0
  -31.5929  -19.2047   23.7627 C   0  0  0  0  0  0  0  0  0  0  0  0
  -22.4509  -29.2899   22.5286 C   0  0  0  0  0  0  0  0  0  0  0  0
  -21.3454  -26.2680   22.1189 C   0  0  0  0  0  0  0  0  0  0  0  0
  -21.9118  -23.1077   20.9620 C   0  0  0  0  0  0  0  0  0  0  0  0
  -29.4718  -24.1474   17.4019 C   0  0  0  0  0  0  0  0  0  0  0  0
  -19.2459  -32.5784   24.7581 C   0  0  0  0  0  0  0  0  0  0  0  0
  -22.8799  -28.9260   20.0711 C   0  0  0  0  0  0  0  0  0  0  0  0
  -23.8055  -26.6364   21.6977 C   0  0  0  0  0  0  0  0  0  0  0  0
  -19.5254  -31.0817   24.8679 C   0  0  0  0  0  0  0  0  0  0  0  0
  -27.1356  -23.4054   19.9841 C   0  0  0  0  0  0  0  0  0  0  0  0
  -21.0224  -30.8276   25.0139 C   0  0  0  0  0  0  0  0  0  0  0  0
  -27.7878  -22.2508   20.7467 C   0  0  0  0  0  0  0  0  0  0  0  0
  -27.4050  -23.3143   18.4837 C   0  0  0  0  0  0  0  0  0  0  0  0
  -29.4809  -22.0461   18.8786 C   0  0  0  0  0  0  0  0  0  0  0  0
  -21.7900  -31.3325   23.7862 C   0  0  1  0  0  0  0  0  0  0  0  0
  -22.1247  -28.4669   21.3146 C   0  0  1  0  0  0  0  0  0  0  0  0
  -29.2840  -22.1255   20.4021 C   0  0  2  0  0  0  0  0  0  0  0  0
  -33.5007  -27.4446   21.5997 C   0  0  0  0  0  0  0  0  0  0  0  0
  -20.8369  -20.8456   20.8040 C   0  0  0  0  0  0  0  0  0  0  0  0
  -33.8008  -24.4291   17.5800 C   0  0  0  0  0  0  0  0  0  0  0  0
  -33.5475  -26.4708   16.1933 C   0  0  0  0  0  0  0  0  0  0  0  0
  -21.9243  -25.7890   25.0761 C   0  0  0  0  0  0  0  0  0  0  0  0
  -21.7456  -23.3299   24.6412 C   0  0  0  0  0  0  0  0  0  0  0  0
  -19.7725  -24.8084   24.2622 C   0  0  0  0  0  0  0  0  0  0  0  0
  -21.9955  -23.1462   18.0039 C   0  0  0  0  0  0  0  0  0  0  0  0
  -29.2136  -28.1654   19.1895 C   0  0  0  0  0  0  0  0  0  1  0  0
  -31.6248  -24.8658   16.3981 C   0  0  0  0  0  0  0  0  0  0  0  0
  -21.7233  -24.9091   22.6572 C   0  0  1  0  0  0  0  0  0  0  0  0
  -21.0643  -22.1797   20.1104 C   0  0  2  0  0  0  0  0  0  0  0  0
  -32.7796  -25.5598   17.2064 C   0  0  0  0  0  0  0  0  0  0  0  0
  -21.3100  -24.7250   24.1447 C   0  0  0  0  0  0  0  0  0  0  0  0
  -29.9799  -19.7618   20.5066 N   0  0  0  0  0  0  0  0  0  0  0  0
  -33.1040  -26.5192   19.3990 N   0  0  0  0  0  0  0  0  0  0  0  0
  -31.0266  -26.8681   18.2286 N   0  0  0  0  0  0  0  0  0  0  0  0
  -29.9282  -20.9553   21.1222 N   0  0  0  0  0  0  0  0  0  0  0  0
  -22.3992  -27.0704   21.6591 N   0  0  0  0  0  0  0  0  0  0  0  0
  -28.8422  -23.1991   18.2248 N   0  0  0  0  0  0  0  0  0  0  0  0
  -30.5189  -22.0752   23.1240 N   0  0  0  0  0  0  0  0  0  0  0  0
  -31.9860  -17.8604   23.8163 N   0  0  0  0  0  0  0  0  0  0  0  0
  -21.6490  -30.4043   22.6850 N   0  0  0  0  0  0  0  0  0  0  0  0
  -21.1345  -23.9318   21.7481 N   0  0  0  0  0  0  0  0  0  0  0  0
  -30.8368  -23.9686   17.2134 N   0  0  0  0  0  0  0  0  0  0  0  0
  -21.7321  -21.9221   18.8033 N   0  3  0  0  0  0  0  0  0  0  0  0
  -31.8123  -19.9482   24.7488 O   0  0  0  0  0  0  0  0  0  0  0  0
  -23.3618  -28.9390   23.2695 O   0  0  0  0  0  0  0  0  0  0  0  0
  -20.1581  -26.6022   22.1002 O   0  0  0  0  0  0  0  0  0  0  0  0
  -23.1405  -23.0995   20.9355 O   0  0  0  0  0  0  0  0  0  0  0  0
  -28.8637  -25.0872   16.8785 O   0  0  0  0  0  0  0  0  0  0  0  0
  -31.5612  -13.5986   20.2538 O   0  0  0  0  0  0  0  0  0  0  0  0
  -28.3359  -27.4024   20.0165 O   0  0  0  0  0  0  0  0  0  1  0  0
  -27.4543  -10.6848   18.0072 F   0  0  0  0  0  0  0  0  0  0  0  0
  -30.5417  -11.3679   21.5295 F   0  0  0  0  0  0  0  0  0  0  0  0
  1  2  1  0  0  0  0
  1  5  2  0  0  0  0
  2  6  2  0  0  0  0
  3  8  2  0  0  0  0
  3 16  1  0  0  0  0
  4  9  1  0  0  0  0
  4 16  2  0  0  0  0
  5 18  1  0  0  0  0
  6 20  1  0  0  0  0
  7 10  2  0  0  0  0
  7 19  1  0  0  0  0
  8 22  1  0  0  0  0
  9 22  2  0  0  0  0
 10 23  1  0  0  0  0
 11 12  2  0  0  0  0
 11 24  1  0  0  0  0
 12 25  1  0  0  0  0
 13 21  1  0  0  0  0
 13 23  2  0  0  0  0
 14 25  2  0  0  0  0
 14 26  1  0  0  0  0
 15 28  2  0  0  0  0
 15 29  1  0  0  0  0
 16 27  1  0  0  0  0
 17 27  1  0  0  0  0
 17 30  2  0  0  0  0
 17 32  1  0  0  0  0
 18 20  2  0  0  0  0
 18 37  1  0  0  0  0
 19 21  2  0  0  0  0
 19 38  1  0  0  0  0
 20 46  1  0  0  0  0
 21 39  1  0  0  0  0
 22 80  1  0  0  0  0
 23 81  1  0  0  0  0
 24 26  2  0  0  0  0
 24 80  1  0  0  0  0
 25 82  1  0  0  0  0
 26 83  1  0  0  0  0
 27 63  2  0  0  0  0
 28 49  1  0  0  0  0
 28 64  1  0  0  0  0
 29 57  1  0  0  0  0
 29 65  2  0  0  0  0
 30 66  1  0  0  0  0
 30 69  1  0  0  0  0
 31 61  1  0  0  0  0
 31 64  2  0  0  0  0
 31 65  1  0  0  0  0
 32 70  1  0  0  0  0
 32 75  2  0  0  0  0
 33 47  1  0  0  0  0
 33 71  1  0  0  0  0
 33 76  2  0  0  0  0
 34 59  1  0  0  0  0
 34 67  1  0  0  0  0
 34 77  2  0  0  0  0
 35 60  1  0  0  0  0
 35 72  1  0  0  0  0
 35 78  2  0  0  0  0
 36 68  1  0  0  0  0
 36 73  1  0  0  0  0
 36 79  2  0  0  0  0
 37 40  1  0  0  0  0
 38 47  1  0  0  0  0
 39 67  1  0  0  0  0
 40 42  1  0  0  0  0
 41 43  1  0  0  0  0
 41 44  1  0  0  0  0
 42 46  1  0  0  0  0
 43 48  1  0  0  0  0
 44 68  1  0  0  0  0
 45 48  1  0  0  0  0
 45 68  1  0  0  0  0
 46 71  1  0  0  0  0
 47 67  1  0  0  0  0
 48 66  1  0  0  0  0
 50 60  1  0  0  0  0
 51 61  1  0  0  0  0
 52 61  1  0  0  0  0
 53 62  1  0  0  0  0
 54 62  1  0  0  0  0
 55 62  1  0  0  0  0
 56 74  1  0  0  0  0
 57 81  1  0  0  0  0
 58 61  1  0  0  0  0
 58 73  1  0  0  0  0
 59 62  1  0  0  0  0
 59 72  1  0  0  0  0
 60 74  1  0  0  0  0
 63 66  1  0  0  0  0
M  CHG  1  74   1
M  ISO  4  36 100  57 101  73 100  81 101
M  END
> <Batch ID>
0062

> <Smiles>
CNC(C)C(=O)NC(C(=O)N1Cc2cc([101O:1][101CH2:1]c3cc(C)nc(C(C)(C)C[100NH:0][100C:0](=O)N4CCCC(n5nc(-c6ccc(Oc7ccc(F)cc7F)cc6)c(C(N)=O)c5N)C4)n3)ccc2CC1C(=O)NC1CCCc2ccccc21)C(C)(C)C

> <Shape>
0.223

> <Color>
0.072

> <Negative vol penalty>
0.000

$$$$

  -OEChem-04052318003D

 91 99  0     1  0  0  0  0  0999 V2000
  -19.2904  -31.7078   14.4075 C   0  0  0  0  0  0  0  0  0  0  0  0
  -19.8790  -30.7478   15.2244 C   0  0  0  0  0  0  0  0  0  0  0  0
  -23.1894   -9.9230   19.8754 C   0  0  0  0  0  0  0  0  0  0  0  0
  -23.6818   -9.9558   22.2404 C   0  0  0  0  0  0  0  0  0  0  0  0
  -19.8402  -32.9866   14.3290 C   0  0  0  0  0  0  0  0  0  0  0  0
  -21.0185  -31.0658   15.9625 C   0  0  0  0  0  0  0  0  0  0  0  0
  -20.7688  -29.3970   20.7372 C   0  0  0  0  0  0  0  0  0  0  0  0
  -22.4446   -8.7561   20.0466 C   0  0  0  0  0  0  0  0  0  0  0  0
  -22.9370   -8.7889   22.4117 C   0  0  0  0  0  0  0  0  0  0  0  0
  -21.0167  -28.0419   20.9519 C   0  0  0  0  0  0  0  0  0  0  0  0
  -23.3549   -5.4710   21.9139 C   0  0  0  0  0  0  0  0  0  0  0  0
  -23.9043   -4.4617   22.7045 C   0  0  0  0  0  0  0  0  0  0  0  0
  -23.2664  -28.5694   21.6446 C   0  0  0  0  0  0  0  0  0  0  0  0
  -22.0158   -4.6085   24.2042 C   0  0  0  0  0  0  0  0  0  0  0  0
  -28.8948  -18.9722   21.3906 C   0  0  0  0  0  0  0  0  0  0  0  0
  -30.3125  -18.9435   19.1104 C   0  0  0  0  0  0  0  0  0  0  0  0
  -23.8080  -10.5228   20.9723 C   0  0  0  0  0  0  0  0  0  0  0  0
  -24.1117  -13.0538   20.8748 C   0  0  0  0  0  0  0  0  0  0  0  0
  -20.9814  -33.3233   15.0739 C   0  0  0  0  0  0  0  0  0  0  0  0
  -21.7730  -30.3491   20.9646 C   0  0  0  0  0  0  0  0  0  0  0  0
  -21.5849  -32.3499   15.8928 C   0  0  0  0  0  0  0  0  0  0  0  0
  -23.0279  -29.9362   21.4345 C   0  0  0  0  0  0  0  0  0  0  0  0
  -22.3184   -8.1891   21.3147 C   0  0  0  0  0  0  0  0  0  0  0  0
  -22.2666  -27.6277   21.4029 C   0  0  0  0  0  0  0  0  0  0  0  0
  -22.1360   -6.0492   22.2685 C   0  0  0  0  0  0  0  0  0  0  0  0
  -23.2347   -4.0304   23.8496 C   0  0  0  0  0  0  0  0  0  0  0  0
  -21.4664   -5.6179   23.4137 C   0  0  0  0  0  0  0  0  0  0  0  0
  -24.5780  -11.7279   20.7960 C   0  0  0  0  0  0  0  0  0  0  0  0
  -29.3355  -17.7985   20.8138 C   0  0  0  0  0  0  0  0  0  0  0  0
  -29.2304  -20.1301   20.7191 C   0  0  0  0  0  0  0  0  0  0  0  0
  -25.2233  -13.8236   20.6336 C   0  0  0  0  0  0  0  0  0  0  0  0
  -22.7917  -13.5456   21.1424 C   0  0  0  0  0  0  0  0  0  0  0  0
  -23.3197  -32.4543   19.1536 C   0  0  0  0  0  0  0  0  0  0  0  0
  -24.5767  -33.3882   21.9944 C   0  0  0  0  0  0  0  0  0  0  0  0
  -25.3590  -32.5899   25.2189 C   0  0  0  0  0  0  0  0  0  0  0  0
  -30.7067  -14.6529   21.8831 C   0  0  0  0  0  0  0  0  0  0  0  0
  -21.5673  -34.7046   14.9201 C   0  0  0  0  0  0  0  0  0  0  0  0
  -21.4813  -31.8095   20.7538 C   0  0  0  0  0  0  0  0  0  0  0  0
  -24.1334  -30.9204   21.7132 C   0  0  0  0  0  0  0  0  0  0  0  0
  -22.5571  -35.0726   16.0224 C   0  0  0  0  0  0  0  0  0  0  0  0
  -29.8174  -12.5697   18.9554 C   0  0  0  0  0  0  0  0  0  0  0  0
  -23.5380  -33.9293   16.2625 C   0  0  0  0  0  0  0  0  0  0  0  0
  -28.3550  -12.2209   19.2267 C   0  0  0  0  0  0  0  0  0  0  0  0
  -30.5928  -12.8080   20.2476 C   0  0  0  0  0  0  0  0  0  0  0  0
  -28.5168  -13.4810   21.4099 C   0  0  0  0  0  0  0  0  0  0  0  0
  -22.8073  -32.6640   16.7279 C   0  0  1  0  0  0  0  0  0  0  0  0
  -22.7385  -32.6432   20.5263 C   0  0  1  0  0  0  0  0  0  0  0  0
  -27.6962  -13.2805   20.1270 C   0  0  2  0  0  0  0  0  0  0  0  0
  -26.4134  -33.5475   27.2850 C   0  0  0  0  0  0  0  0  0  0  0  0
  -26.5820  -21.3029   17.7224 C   0  0  0  0  0  0  0  0  0  0  0  0
  -25.5345  -19.7845   19.4462 C   0  0  0  0  0  0  0  0  0  0  0  0
  -29.3861  -21.6816   22.7018 C   0  0  0  0  0  0  0  0  0  0  0  0
  -29.2756  -22.7027   20.4490 C   0  0  0  0  0  0  0  0  0  0  0  0
  -27.3385  -33.0332   20.7467 C   0  0  0  0  0  0  0  0  0  0  0  0
  -28.3087  -33.0671   23.0544 C   0  0  0  0  0  0  0  0  0  0  0  0
  -27.0963  -35.0657   22.1836 C   0  0  0  0  0  0  0  0  0  0  0  0
  -30.9606  -16.8623   22.9478 C   0  0  0  0  0  0  0  0  0  0  0  0
  -22.8666  -32.2657   26.7815 C   0  0  0  0  0  0  0  0  0  0  0  0
  -29.0219  -16.4943   21.4674 C   0  0  0  0  0  0  0  0  0  0  0  0
  -25.2338  -23.8545   20.7529 C   0  0  0  0  0  0  0  0  0  0  0  0
  -23.8265  -24.3983   20.9874 C   0  0  0  0  0  0  0  0  0  0  0  0
  -25.1891  -22.4110   20.2744 C   0  0  0  0  0  0  0  0  0  0  0  0
  -27.2375  -21.5765   21.4181 C   0  0  0  0  0  0  0  0  0  0  0  0
  -23.8527  -25.8558   21.4255 C   0  0  0  0  0  0  0  0  0  1  0  0
  -25.7857  -32.9962   22.8091 C   0  0  1  0  0  0  0  0  0  0  0  0
  -25.1150  -33.3230   26.5257 C   0  0  2  0  0  0  0  0  0  0  0  0
  -26.6628  -20.7558   19.1385 C   0  0  0  0  0  0  0  0  0  0  0  0
  -28.7832  -21.4939   21.2843 C   0  0  0  0  0  0  0  0  0  0  0  0
  -27.1123  -33.5216   22.1914 C   0  0  0  0  0  0  0  0  0  0  0  0
  -30.0492  -17.7473   19.6700 N   0  0  0  0  0  0  0  0  0  0  0  0
  -29.9409  -20.1527   19.5724 N   0  0  0  0  0  0  0  0  0  0  0  0
  -25.8840  -11.6558   20.5256 N   0  0  0  0  0  0  0  0  0  0  0  0
  -26.2479  -12.9462   20.4324 N   0  0  0  0  0  0  0  0  0  0  0  0
  -23.8013  -32.3366   21.4858 N   0  0  0  0  0  0  0  0  0  0  0  0
  -29.9221  -13.7871   21.1035 N   0  0  0  0  0  0  0  0  0  0  0  0
  -25.4144  -15.1587   20.5760 N   0  0  0  0  0  0  0  0  0  0  0  0
  -21.7659  -12.6176   21.3680 N   0  0  0  0  0  0  0  0  0  0  0  0
  -22.4514  -32.7715   18.1265 N   0  0  0  0  0  0  0  0  0  0  0  0
  -25.5321  -33.4647   24.1672 N   0  0  0  0  0  0  0  0  0  0  0  0
  -30.1796  -15.9248   22.1534 N   0  0  0  0  0  0  0  0  0  0  0  0
  -24.1918  -32.5395   27.3945 N   0  3  0  0  0  0  0  0  0  0  0  0
  -26.5751  -21.9126   20.1041 N   0  3  1  0  0  0  0  0  0  0  0  0
  -22.5263  -14.7714   21.1639 O   0  0  0  0  0  0  0  0  0  0  0  0
  -24.4711  -32.0520   19.0351 O   0  0  0  0  0  0  0  0  0  0  0  0
  -24.3255  -34.5835   21.8218 O   0  0  0  0  0  0  0  0  0  0  0  0
  -25.3963  -31.3640   25.1398 O   0  0  0  0  0  0  0  0  0  0  0  0
  -31.8193  -14.3120   22.3049 O   0  0  0  0  0  0  0  0  0  0  0  0
  -21.5915   -7.0506   21.4822 O   0  0  0  0  0  0  0  0  0  0  0  0
  -22.5114  -26.3056   21.6126 O   0  0  0  0  0  0  0  0  0  1  0  0
  -23.7617   -3.0600   24.6078 F   0  0  0  0  0  0  0  0  0  0  0  0
  -20.2946   -6.1687   23.7588 F   0  0  0  0  0  0  0  0  0  0  0  0
  1  2  1  0  0  0  0
  1  5  2  0  0  0  0
  2  6  2  0  0  0  0
  3  8  2  0  0  0  0
  3 17  1  0  0  0  0
  4  9  1  0  0  0  0
  4 17  2  0  0  0  0
  5 19  1  0  0  0  0
  6 21  1  0  0  0  0
  7 10  2  0  0  0  0
  7 20  1  0  0  0  0
  8 23  1  0  0  0  0
  9 23  2  0  0  0  0
 10 24  1  0  0  0  0
 11 12  2  0  0  0  0
 11 25  1  0  0  0  0
 12 26  1  0  0  0  0
 13 22  1  0  0  0  0
 13 24  2  0  0  0  0
 14 26  2  0  0  0  0
 14 27  1  0  0  0  0
 15 29  2  0  0  0  0
 15 30  1  0  0  0  0
 16 70  2  0  0  0  0
 16 71  1  0  0  0  0
 17 28  1  0  0  0  0
 18 28  1  0  0  0  0
 18 31  2  0  0  0  0
 18 32  1  0  0  0  0
 19 21  2  0  0  0  0
 19 37  1  0  0  0  0
 20 22  2  0  0  0  0
 20 38  1  0  0  0  0
 21 46  1  0  0  0  0
 22 39  1  0  0  0  0
 23 88  1  0  0  0  0
 24 89  1  0  0  0  0
 25 27  2  0  0  0  0
 25 88  1  0  0  0  0
 26 90  1  0  0  0  0
 27 91  1  0  0  0  0
 28 72  2  0  0  0  0
 29 59  1  0  0  0  0
 29 70  1  0  0  0  0
 30 68  1  0  0  0  0
 30 71  2  0  0  0  0
 31 73  1  0  0  0  0
 31 76  1  0  0  0  0
 32 77  1  0  0  0  0
 32 83  2  0  0  0  0
 33 47  1  0  0  0  0
 33 78  1  0  0  0  0
 33 84  2  0  0  0  0
 34 65  1  0  0  0  0
 34 74  1  0  0  0  0
 34 85  2  0  0  0  0
 35 66  1  0  0  0  0
 35 79  1  0  0  0  0
 35 86  2  0  0  0  0
 36 75  1  0  0  0  0
 36 80  1  0  0  0  0
 36 87  2  0  0  0  0
 37 40  1  0  0  0  0
 38 47  1  0  0  0  0
 39 74  1  0  0  0  0
 40 42  1  0  0  0  0
 41 43  1  0  0  0  0
 41 44  1  0  0  0  0
 42 46  1  0  0  0  0
 43 48  1  0  0  0  0
 44 75  1  0  0  0  0
 45 48  1  0  0  0  0
 45 75  1  0  0  0  0
 46 78  1  0  0  0  0
 47 74  1  0  0  0  0
 48 73  1  0  0  0  0
 49 66  1  0  0  0  0
 50 67  1  0  0  0  0
 51 67  1  0  0  0  0
 52 68  1  0  0  0  0
 53 68  1  0  0  0  0
 54 69  1  0  0  0  0
 55 69  1  0  0  0  0
 56 69  1  0  0  0  0
 57 80  1  0  0  0  0
 58 81  1  0  0  0  0
 59 80  1  0  0  0  0
 60 61  1  0  0  0  0
 60 62  1  0  0  0  0
 61 64  1  0  0  0  0
 62 82  1  0  0  0  0
 63 68  1  0  0  0  0
 63 82  1  0  0  0  0
 64 89  1  0  0  0  0
 65 69  1  0  0  0  0
 65 79  1  0  0  0  0
 66 81  1  0  0  0  0
 67 82  1  0  0  0  0
 72 73  1  0  0  0  0
M  CHG  2  81   1  82   1
M  ISO  4  36 100  64 101  80 100  89 101
M  END
> <Batch ID>
0062

> <Smiles>
CNC(C)C(=O)NC(C(=O)N1Cc2cc([101O:1][101CH2:1]CCCN(CC(C)(C)c3cc(C[100N:0](C)[100C:0](=O)N4CCCC(n5nc(-c6ccc(Oc7ccc(F)cc7F)cc6)c(C(N)=O)c5N)C4)ncn3)C(C)C)ccc2CC1C(=O)NC1CCCc2ccccc21)C(C)(C)C

> <Shape>
0.317

> <Color>
0.213

> <Negative vol penalty>
0.000

$$$$

  -OEChem-04052318003D

 82 90  0     1  0  0  0  0  0999 V2000
  -15.4157  -25.1049   26.8535 C   0  0  0  0  0  0  0  0  0  0  0  0
  -16.5084  -24.3478   26.4433 C   0  0  0  0  0  0  0  0  0  0  0  0
  -23.0517   -9.9192   19.9575 C   0  0  0  0  0  0  0  0  0  0  0  0
  -23.7302   -9.9711   22.2757 C   0  0  0  0  0  0  0  0  0  0  0  0
  -14.9610  -26.1574   26.0601 C   0  0  0  0  0  0  0  0  0  0  0  0
  -17.1464  -24.6422   25.2389 C   0  0  0  0  0  0  0  0  0  0  0  0
  -23.1268  -24.1346   24.0208 C   0  0  0  0  0  0  0  0  0  0  0  0
  -22.2831   -8.7825   20.2079 C   0  0  0  0  0  0  0  0  0  0  0  0
  -22.9615   -8.8345   22.5262 C   0  0  0  0  0  0  0  0  0  0  0  0
  -23.8728  -23.1469   23.3793 C   0  0  0  0  0  0  0  0  0  0  0  0
  -23.2243   -5.4964   22.0580 C   0  0  0  0  0  0  0  0  0  0  0  0
  -23.7994   -4.4805   22.8214 C   0  0  0  0  0  0  0  0  0  0  0  0
  -23.7449  -24.3964   21.3198 C   0  0  0  0  0  0  0  0  0  0  0  0
  -22.0414   -4.7180   24.4616 C   0  0  0  0  0  0  0  0  0  0  0  0
  -27.2868  -20.6877   20.7187 C   0  0  0  0  0  0  0  0  0  0  0  0
  -23.7754  -10.5135   20.9914 C   0  0  0  0  0  0  0  0  0  0  0  0
  -24.1573  -13.0302   20.8242 C   0  0  0  0  0  0  0  0  0  0  0  0
  -15.5998  -26.4710   24.8500 C   0  0  0  0  0  0  0  0  0  0  0  0
  -22.6741  -25.2572   23.3128 C   0  0  0  0  0  0  0  0  0  0  0  0
  -16.6991  -25.6990   24.4279 C   0  0  0  0  0  0  0  0  0  0  0  0
  -22.9954  -25.3982   21.9552 C   0  0  0  0  0  0  0  0  0  0  0  0
  -22.2379   -8.2402   21.4922 C   0  0  0  0  0  0  0  0  0  0  0  0
  -24.1795  -23.2763   22.0279 C   0  0  0  0  0  0  0  0  0  0  0  0
  -22.0579   -6.1232   22.4964 C   0  0  0  0  0  0  0  0  0  0  0  0
  -23.2079   -4.0912   24.0232 C   0  0  0  0  0  0  0  0  0  0  0  0
  -21.4664   -5.7340   23.6982 C   0  0  0  0  0  0  0  0  0  0  0  0
  -24.5700  -11.6874   20.7333 C   0  0  0  0  0  0  0  0  0  0  0  0
  -26.1312  -20.2686   21.3263 C   0  0  0  0  0  0  0  0  0  0  0  0
  -25.2723  -13.7559   20.4825 C   0  0  0  0  0  0  0  0  0  0  0  0
  -27.5285  -18.6266   19.8282 C   0  0  0  0  0  0  0  0  0  0  0  0
  -22.8804  -13.5730   21.1853 C   0  0  0  0  0  0  0  0  0  0  0  0
  -19.8188  -26.4577   22.5990 C   0  0  0  0  0  0  0  0  0  0  0  0
  -21.5790  -28.9086   21.4087 C   0  0  0  0  0  0  0  0  0  0  0  0
  -24.5591  -29.9887   20.1440 C   0  0  0  0  0  0  0  0  0  0  0  0
  -30.8626  -14.4078   21.2829 C   0  0  0  0  0  0  0  0  0  0  0  0
  -15.0430  -27.5879   24.0033 C   0  0  0  0  0  0  0  0  0  0  0  0
  -21.8932  -26.3269   24.0258 C   0  0  0  0  0  0  0  0  0  0  0  0
  -22.5506  -26.5941   21.1550 C   0  0  0  0  0  0  0  0  0  0  0  0
  -16.0068  -28.0720   22.9231 C   0  0  0  0  0  0  0  0  0  0  0  0
  -29.6736  -12.3126   18.4726 C   0  0  0  0  0  0  0  0  0  0  0  0
  -16.6208  -26.8865   22.1852 C   0  0  0  0  0  0  0  0  0  0  0  0
  -28.2260  -12.0205   18.8640 C   0  0  0  0  0  0  0  0  0  0  0  0
  -30.5564  -12.5430   19.6954 C   0  0  0  0  0  0  0  0  0  0  0  0
  -28.6030  -13.3079   21.0044 C   0  0  0  0  0  0  0  0  0  0  0  0
  -17.4331  -26.0031   23.1399 C   0  0  1  0  0  0  0  0  0  0  0  0
  -21.0460  -27.1766   23.0836 C   0  0  1  0  0  0  0  0  0  0  0  0
  -27.6772  -13.1169   19.7936 C   0  0  2  0  0  0  0  0  0  0  0  0
  -25.6828  -32.0351   19.2238 C   0  0  0  0  0  0  0  0  0  0  0  0
  -20.0622  -28.5585   18.7844 C   0  0  0  0  0  0  0  0  0  0  0  0
  -21.8317  -29.9268   17.6598 C   0  0  0  0  0  0  0  0  0  0  0  0
  -20.4359  -30.9361   19.4641 C   0  0  0  0  0  0  0  0  0  0  0  0
  -31.2757  -16.6230   22.2838 C   0  0  0  0  0  0  0  0  0  0  0  0
  -26.5975  -29.9759   22.2896 C   0  0  0  0  0  0  0  0  0  0  0  0
  -25.3237  -21.1972   22.1847 C   0  0  0  0  0  0  0  0  0  1  0  0
  -28.3004  -17.6723   18.9837 C   0  0  0  0  0  0  0  0  0  0  0  0
  -29.5321  -17.0560   19.6775 C   0  0  0  0  0  0  0  0  0  0  0  0
  -29.2146  -16.3017   20.9669 C   0  0  0  0  0  0  0  0  0  0  0  0
  -22.1989  -29.2281   20.0698 C   0  0  1  0  0  0  0  0  0  0  0  0
  -25.4095  -31.2038   20.4676 C   0  0  2  0  0  0  0  0  0  0  0  0
  -21.1391  -29.6388   19.0089 C   0  0  0  0  0  0  0  0  0  0  0  0
  -28.0192  -19.8691   19.9483 N   0  0  0  0  0  0  0  0  0  0  0  0
  -25.8474  -11.5645   20.3627 N   0  0  0  0  0  0  0  0  0  0  0  0
  -25.6876  -19.0082   21.1692 N   0  0  0  0  0  0  0  0  0  0  0  0
  -26.4015  -18.1596   20.4006 N   0  0  0  0  0  0  0  0  0  0  0  0
  -26.2469  -12.8394   20.2176 N   0  0  0  0  0  0  0  0  0  0  0  0
  -21.7841  -27.6099   21.8955 N   0  0  0  0  0  0  0  0  0  0  0  0
  -29.9895  -13.5586   20.5832 N   0  0  0  0  0  0  0  0  0  0  0  0
  -25.5041  -15.0823   20.3856 N   0  0  0  0  0  0  0  0  0  0  0  0
  -21.8443  -12.6859   21.5076 N   0  0  0  0  0  0  0  0  0  0  0  0
  -18.7173  -26.6089   23.4196 N   0  0  0  0  0  0  0  0  0  0  0  0
  -23.2157  -30.2433   20.3226 N   0  0  0  0  0  0  0  0  0  0  0  0
  -30.4025  -15.7018   21.5703 N   0  0  0  0  0  0  0  0  0  0  0  0
  -26.7160  -30.7821   21.0474 N   0  3  0  0  0  0  0  0  0  0  0  0
  -22.6599  -14.8077   21.2051 O   0  0  0  0  0  0  0  0  0  0  0  0
  -19.8672  -25.8147   21.5569 O   0  0  0  0  0  0  0  0  0  0  0  0
  -20.9424  -29.7815   22.0041 O   0  0  0  0  0  0  0  0  0  0  0  0
  -25.0382  -28.9216   19.7668 O   0  0  0  0  0  0  0  0  0  0  0  0
  -31.9926  -14.0340   21.6224 O   0  0  0  0  0  0  0  0  0  0  0  0
  -21.4878   -7.1312   21.7370 O   0  0  0  0  0  0  0  0  0  0  0  0
  -24.9070  -22.3133   21.3991 O   0  0  0  0  0  0  0  0  0  1  0  0
  -23.7594   -3.1146   24.7554 F   0  0  0  0  0  0  0  0  0  0  0  0
  -20.3451   -6.3317   24.1240 F   0  0  0  0  0  0  0  0  0  0  0  0
  1  2  1  0  0  0  0
  1  5  2  0  0  0  0
  2  6  2  0  0  0  0
  3  8  2  0  0  0  0
  3 16  1  0  0  0  0
  4  9  1  0  0  0  0
  4 16  2  0  0  0  0
  5 18  1  0  0  0  0
  6 20  1  0  0  0  0
  7 10  2  0  0  0  0
  7 19  1  0  0  0  0
  8 22  1  0  0  0  0
  9 22  2  0  0  0  0
 10 23  1  0  0  0  0
 11 12  2  0  0  0  0
 11 24  1  0  0  0  0
 12 25  1  0  0  0  0
 13 21  1  0  0  0  0
 13 23  2  0  0  0  0
 14 25  2  0  0  0  0
 14 26  1  0  0  0  0
 15 28  1  0  0  0  0
 15 61  2  0  0  0  0
 16 27  1  0  0  0  0
 17 27  1  0  0  0  0
 17 29  2  0  0  0  0
 17 31  1  0  0  0  0
 18 20  2  0  0  0  0
 18 36  1  0  0  0  0
 19 21  2  0  0  0  0
 19 37  1  0  0  0  0
 20 45  1  0  0  0  0
 21 38  1  0  0  0  0
 22 79  1  0  0  0  0
 23 80  1  0  0  0  0
 24 26  2  0  0  0  0
 24 79  1  0  0  0  0
 25 81  1  0  0  0  0
 26 82  1  0  0  0  0
 27 62  2  0  0  0  0
 28 54  1  0  0  0  0
 28 63  2  0  0  0  0
 29 65  1  0  0  0  0
 29 68  1  0  0  0  0
 30 55  1  0  0  0  0
 30 61  1  0  0  0  0
 30 64  2  0  0  0  0
 31 69  1  0  0  0  0
 31 74  2  0  0  0  0
 32 46  1  0  0  0  0
 32 70  1  0  0  0  0
 32 75  2  0  0  0  0
 33 58  1  0  0  0  0
 33 66  1  0  0  0  0
 33 76  2  0  0  0  0
 34 59  1  0  0  0  0
 34 71  1  0  0  0  0
 34 77  2  0  0  0  0
 35 67  1  0  0  0  0
 35 72  1  0  0  0  0
 35 78  2  0  0  0  0
 36 39  1  0  0  0  0
 37 46  1  0  0  0  0
 38 66  1  0  0  0  0
 39 41  1  0  0  0  0
 40 42  1  0  0  0  0
 40 43  1  0  0  0  0
 41 45  1  0  0  0  0
 42 47  1  0  0  0  0
 43 67  1  0  0  0  0
 44 47  1  0  0  0  0
 44 67  1  0  0  0  0
 45 70  1  0  0  0  0
 46 66  1  0  0  0  0
 47 65  1  0  0  0  0
 48 59  1  0  0  0  0
 49 60  1  0  0  0  0
 50 60  1  0  0  0  0
 51 60  1  0  0  0  0
 52 72  1  0  0  0  0
 53 73  1  0  0  0  0
 54 80  1  0  0  0  0
 55 56  1  0  0  0  0
 56 57  1  0  0  0  0
 57 72  1  0  0  0  0
 58 60  1  0  0  0  0
 58 71  1  0  0  0  0
 59 73  1  0  0  0  0
 62 65  1  0  0  0  0
 63 64  1  0  0  0  0
M  CHG  1  73   1
M  ISO  4  35 100  54 101  72 100  80 101
M  END
> <Batch ID>
0062

> <Smiles>
CNC(C)C(=O)NC(C(=O)N1Cc2cc([101O:1][101CH2:1]c3cnc(CCC[100N:0](C)[100C:0](=O)N4CCCC(n5nc(-c6ccc(Oc7ccc(F)cc7F)cc6)c(C(N)=O)c5N)C4)nn3)ccc2CC1C(=O)NC1CCCc2ccccc21)C(C)(C)C

> <Shape>
0.320

> <Color>
0.178

> <Negative vol penalty>
0.000

$$$$

  -OEChem-04052318003D

 83 91  0     1  0  0  0  0  0999 V2000
  -17.5333  -32.4612   21.7882 C   0  0  0  0  0  0  0  0  0  0  0  0
  -18.7044  -32.4317   21.0379 C   0  0  0  0  0  0  0  0  0  0  0  0
  -25.8767  -13.1098   21.2286 C   0  0  0  0  0  0  0  0  0  0  0  0
  -24.6220  -14.0798   19.4059 C   0  0  0  0  0  0  0  0  0  0  0  0
  -17.4891  -31.8371   23.0341 C   0  0  0  0  0  0  0  0  0  0  0  0
  -19.8325  -31.7788   21.5336 C   0  0  0  0  0  0  0  0  0  0  0  0
  -25.5190  -28.0145   19.3406 C   0  0  0  0  0  0  0  0  0  0  0  0
  -24.8268  -12.2272   21.4817 C   0  0  0  0  0  0  0  0  0  0  0  0
  -23.5720  -13.1971   19.6591 C   0  0  0  0  0  0  0  0  0  0  0  0
  -26.9074  -27.9896   19.4651 C   0  0  0  0  0  0  0  0  0  0  0  0
  -22.6244   -9.4773   22.3779 C   0  0  0  0  0  0  0  0  0  0  0  0
  -22.9431   -8.1385   22.6050 C   0  0  0  0  0  0  0  0  0  0  0  0
  -26.6905  -26.8782   21.5952 C   0  0  0  0  0  0  0  0  0  0  0  0
  -23.9455   -8.0050   20.4108 C   0  0  0  0  0  0  0  0  0  0  0  0
  -30.4921  -23.2931   18.5410 C   0  0  0  0  0  0  0  0  0  0  0  0
  -25.7743  -14.0362   20.1907 C   0  0  0  0  0  0  0  0  0  0  0  0
  -27.9523  -14.7441   19.0669 C   0  0  0  0  0  0  0  0  0  0  0  0
  -18.6142  -31.1680   23.5412 C   0  0  0  0  0  0  0  0  0  0  0  0
  -24.7043  -27.4802   20.3492 C   0  0  0  0  0  0  0  0  0  0  0  0
  -19.8036  -31.1463   22.7882 C   0  0  0  0  0  0  0  0  0  0  0  0
  -25.2921  -26.8952   21.4799 C   0  0  0  0  0  0  0  0  0  0  0  0
  -23.6744  -12.2708   20.6970 C   0  0  0  0  0  0  0  0  0  0  0  0
  -27.4933  -27.4241   20.5938 C   0  0  0  0  0  0  0  0  0  0  0  0
  -22.9662  -10.0800   21.1672 C   0  0  0  0  0  0  0  0  0  0  0  0
  -23.6037   -7.4023   21.6215 C   0  0  0  0  0  0  0  0  0  0  0  0
  -23.6267   -9.3438   20.1837 C   0  0  0  0  0  0  0  0  0  0  0  0
  -26.8584  -14.9486   19.9291 C   0  0  0  0  0  0  0  0  0  0  0  0
  -28.6914  -15.8972   19.1706 C   0  0  0  0  0  0  0  0  0  0  0  0
  -28.4382  -23.2816   18.1688 C   0  0  0  0  0  0  0  0  0  0  0  0
  -28.2717  -13.6131   18.2457 C   0  0  0  0  0  0  0  0  0  0  0  0
  -22.4915  -28.6575   22.3040 C   0  0  0  0  0  0  0  0  0  0  0  0
  -22.1145  -25.5414   23.1227 C   0  0  0  0  0  0  0  0  0  0  0  0
  -23.4597  -22.4102   23.3032 C   0  0  0  0  0  0  0  0  0  0  0  0
  -27.2864  -21.5192   20.6772 C   0  0  0  0  0  0  0  0  0  0  0  0
  -18.5328  -30.5484   24.9138 C   0  0  0  0  0  0  0  0  0  0  0  0
  -23.2089  -27.4908   20.1874 C   0  0  0  0  0  0  0  0  0  0  0  0
  -24.4624  -26.2900   22.5815 C   0  0  0  0  0  0  0  0  0  0  0  0
  -19.6573  -29.5572   25.2023 C   0  0  0  0  0  0  0  0  0  0  0  0
  -29.7116  -19.4281   22.2337 C   0  0  0  0  0  0  0  0  0  0  0  0
  -21.0037  -30.1416   24.7872 C   0  0  0  0  0  0  0  0  0  0  0  0
  -29.3540  -18.0245   21.7417 C   0  0  0  0  0  0  0  0  0  0  0  0
  -28.4650  -20.2785   22.4682 C   0  0  0  0  0  0  0  0  0  0  0  0
  -27.1884  -18.9570   20.8258 C   0  0  0  0  0  0  0  0  0  0  0  0
  -21.0405  -30.4270   23.2810 C   0  0  1  0  0  0  0  0  0  0  0  0
  -22.4636  -27.3798   21.5139 C   0  0  1  0  0  0  0  0  0  0  0  0
  -28.4151  -18.0802   20.5217 C   0  0  2  0  0  0  0  0  0  0  0  0
  -23.5493  -19.9336   23.6983 C   0  0  0  0  0  0  0  0  0  0  0  0
  -26.9535  -21.8712   16.5867 C   0  0  0  0  0  0  0  0  0  0  0  0
  -26.4691  -24.2741   16.9707 C   0  0  0  0  0  0  0  0  0  0  0  0
  -22.5158  -26.3857   26.0272 C   0  0  0  0  0  0  0  0  0  0  0  0
  -22.9187  -23.9814   26.5975 C   0  0  0  0  0  0  0  0  0  0  0  0
  -20.7125  -24.6894   25.6735 C   0  0  0  0  0  0  0  0  0  0  0  0
  -22.6037  -21.8199   20.5323 C   0  0  0  0  0  0  0  0  0  0  0  0
  -30.9191  -26.6035   19.8044 C   0  0  0  0  0  0  0  0  0  0  0  0
  -30.7208  -25.1838   20.3399 C   0  0  0  0  0  0  0  0  0  0  0  0
  -26.0651  -22.6182   18.8171 C   0  0  0  0  0  0  0  0  0  0  0  0
  -29.6098  -27.3277   19.5135 C   0  0  0  0  0  0  0  0  0  1  0  0
  -22.7303  -24.6243   24.1516 C   0  0  1  0  0  0  0  0  0  0  0  0
  -22.9156  -21.0547   22.8894 C   0  0  2  0  0  0  0  0  0  0  0  0
  -27.0905  -23.0104   17.6762 C   0  0  0  0  0  0  0  0  0  0  0  0
  -22.2352  -24.9332   25.5928 C   0  0  0  0  0  0  0  0  0  0  0  0
  -29.5364  -22.6694   17.7911 N   0  0  0  0  0  0  0  0  0  0  0  0
  -26.8953  -16.1379   20.5359 N   0  0  0  0  0  0  0  0  0  0  0  0
  -28.7378  -24.2251   19.1015 N   0  0  0  0  0  0  0  0  0  0  0  0
  -30.0543  -24.2527   19.3589 N   0  0  0  0  0  0  0  0  0  0  0  0
  -28.0215  -16.6911   20.0544 N   0  0  0  0  0  0  0  0  0  0  0  0
  -23.0045  -26.3303   22.3800 N   0  0  0  0  0  0  0  0  0  0  0  0
  -27.6181  -20.2912   21.2730 N   0  0  0  0  0  0  0  0  0  0  0  0
  -29.8425  -16.2992   18.5912 N   0  0  0  0  0  0  0  0  0  0  0  0
  -27.4044  -12.5122   18.2579 N   0  0  0  0  0  0  0  0  0  0  0  0
  -21.2430  -29.2010   22.5391 N   0  0  0  0  0  0  0  0  0  0  0  0
  -22.4536  -23.2638   23.7035 N   0  0  0  0  0  0  0  0  0  0  0  0
  -26.4852  -21.4413   19.5446 N   0  0  0  0  0  0  0  0  0  0  0  0
  -23.1894  -20.8054   21.4458 N   0  3  0  0  0  0  0  0  0  0  0  0
  -29.3046  -13.5730   17.5350 O   0  0  0  0  0  0  0  0  0  0  0  0
  -23.5661  -29.1155   22.6744 O   0  0  0  0  0  0  0  0  0  0  0  0
  -20.8896  -25.5521   22.9780 O   0  0  0  0  0  0  0  0  0  0  0  0
  -24.6578  -22.6830   23.2776 O   0  0  0  0  0  0  0  0  0  0  0  0
  -27.6799  -22.6043   21.1185 O   0  0  0  0  0  0  0  0  0  0  0  0
  -22.6497  -11.4095   20.9435 O   0  0  0  0  0  0  0  0  0  0  0  0
  -28.8482  -27.3991   20.7182 O   0  0  0  0  0  0  0  0  0  1  0  0
  -23.9110   -6.1171   21.8403 F   0  0  0  0  0  0  0  0  0  0  0  0
  -23.9587   -9.9176   19.0190 F   0  0  0  0  0  0  0  0  0  0  0  0
  1  2  1  0  0  0  0
  1  5  2  0  0  0  0
  2  6  2  0  0  0  0
  3  8  2  0  0  0  0
  3 16  1  0  0  0  0
  4  9  1  0  0  0  0
  4 16  2  0  0  0  0
  5 18  1  0  0  0  0
  6 20  1  0  0  0  0
  7 10  2  0  0  0  0
  7 19  1  0  0  0  0
  8 22  1  0  0  0  0
  9 22  2  0  0  0  0
 10 23  1  0  0  0  0
 11 12  2  0  0  0  0
 11 24  1  0  0  0  0
 12 25  1  0  0  0  0
 13 21  1  0  0  0  0
 13 23  2  0  0  0  0
 14 25  2  0  0  0  0
 14 26  1  0  0  0  0
 15 62  2  0  0  0  0
 15 65  1  0  0  0  0
 16 27  1  0  0  0  0
 17 27  1  0  0  0  0
 17 28  2  0  0  0  0
 17 30  1  0  0  0  0
 18 20  2  0  0  0  0
 18 35  1  0  0  0  0
 19 21  2  0  0  0  0
 19 36  1  0  0  0  0
 20 44  1  0  0  0  0
 21 37  1  0  0  0  0
 22 80  1  0  0  0  0
 23 81  1  0  0  0  0
 24 26  2  0  0  0  0
 24 80  1  0  0  0  0
 25 82  1  0  0  0  0
 26 83  1  0  0  0  0
 27 63  2  0  0  0  0
 28 66  1  0  0  0  0
 28 69  1  0  0  0  0
 29 60  1  0  0  0  0
 29 62  1  0  0  0  0
 29 64  2  0  0  0  0
 30 70  1  0  0  0  0
 30 75  2  0  0  0  0
 31 45  1  0  0  0  0
 31 71  1  0  0  0  0
 31 76  2  0  0  0  0
 32 58  1  0  0  0  0
 32 67  1  0  0  0  0
 32 77  2  0  0  0  0
 33 59  1  0  0  0  0
 33 72  1  0  0  0  0
 33 78  2  0  0  0  0
 34 68  1  0  0  0  0
 34 73  1  0  0  0  0
 34 79  2  0  0  0  0
 35 38  1  0  0  0  0
 36 45  1  0  0  0  0
 37 67  1  0  0  0  0
 38 40  1  0  0  0  0
 39 41  1  0  0  0  0
 39 42  1  0  0  0  0
 40 44  1  0  0  0  0
 41 46  1  0  0  0  0
 42 68  1  0  0  0  0
 43 46  1  0  0  0  0
 43 68  1  0  0  0  0
 44 71  1  0  0  0  0
 45 67  1  0  0  0  0
 46 66  1  0  0  0  0
 47 59  1  0  0  0  0
 48 60  1  0  0  0  0
 49 60  1  0  0  0  0
 50 61  1  0  0  0  0
 51 61  1  0  0  0  0
 52 61  1  0  0  0  0
 53 74  1  0  0  0  0
 54 55  1  0  0  0  0
 54 57  1  0  0  0  0
 55 65  1  0  0  0  0
 56 60  1  0  0  0  0
 56 73  1  0  0  0  0
 57 81  1  0  0  0  0
 58 61  1  0  0  0  0
 58 72  1  0  0  0  0
 59 74  1  0  0  0  0
 63 66  1  0  0  0  0
 64 65  1  0  0  0  0
M  CHG  1  74   1
M  ISO  4  34 100  57 101  73 100  81 101
M  END
> <Batch ID>
0062

> <Smiles>
CNC(C)C(=O)NC(C(=O)N1Cc2cc([101O:1][101CH2:1]CCn3cnc(C(C)(C)C[100NH:0][100C:0](=O)N4CCCC(n5nc(-c6ccc(Oc7ccc(F)cc7F)cc6)c(C(N)=O)c5N)C4)n3)ccc2CC1C(=O)NC1CCCc2ccccc21)C(C)(C)C

> <Shape>
0.245

> <Color>
0.078

> <Negative vol penalty>
0.000

$$$$

  -OEChem-04052318003D

 84 92  0     1  0  0  0  0  0999 V2000
  -21.9969  -24.3976   12.5694 C   0  0  0  0  0  0  0  0  0  0  0  0
  -22.8278  -24.2547   13.6760 C   0  0  0  0  0  0  0  0  0  0  0  0
  -23.1264   -9.7287   20.0429 C   0  0  0  0  0  0  0  0  0  0  0  0
  -23.8187   -9.9401   22.3479 C   0  0  0  0  0  0  0  0  0  0  0  0
  -21.4837  -25.6518   12.2417 C   0  0  0  0  0  0  0  0  0  0  0  0
  -23.1469  -25.3664   14.4549 C   0  0  0  0  0  0  0  0  0  0  0  0
  -22.8186  -24.4194   19.4188 C   0  0  0  0  0  0  0  0  0  0  0  0
  -22.3913   -8.5887   20.3682 C   0  0  0  0  0  0  0  0  0  0  0  0
  -23.0836   -8.8002   22.6733 C   0  0  0  0  0  0  0  0  0  0  0  0
  -23.8708  -23.7164   20.0039 C   0  0  0  0  0  0  0  0  0  0  0  0
  -19.8504   -8.0040   23.2502 C   0  0  0  0  0  0  0  0  0  0  0  0
  -19.0601   -8.0502   24.3986 C   0  0  0  0  0  0  0  0  0  0  0  0
  -24.7847  -25.7882   20.8355 C   0  0  0  0  0  0  0  0  0  0  0  0
  -20.3058   -6.2016   25.3302 C   0  0  0  0  0  0  0  0  0  0  0  0
  -26.9580  -21.0649   23.0414 C   0  0  0  0  0  0  0  0  0  0  0  0
  -28.3619  -21.8406   21.3433 C   0  0  0  0  0  0  0  0  0  0  0  0
  -23.8401  -10.4044   21.0327 C   0  0  0  0  0  0  0  0  0  0  0  0
  -24.1508  -12.9157   20.7099 C   0  0  0  0  0  0  0  0  0  0  0  0
  -21.7889  -26.7777   13.0226 C   0  0  0  0  0  0  0  0  0  0  0  0
  -22.7472  -25.8155   19.5287 C   0  0  0  0  0  0  0  0  0  0  0  0
  -22.6384  -26.6372   14.1366 C   0  0  0  0  0  0  0  0  0  0  0  0
  -23.7291  -26.5063   20.2531 C   0  0  0  0  0  0  0  0  0  0  0  0
  -27.0786  -21.7306   21.8386 C   0  0  0  0  0  0  0  0  0  0  0  0
  -22.3699   -8.1245   21.6834 C   0  0  0  0  0  0  0  0  0  0  0  0
  -24.8557  -24.4010   20.7099 C   0  0  0  0  0  0  0  0  0  0  0  0
  -20.8683   -7.0565   23.1417 C   0  0  0  0  0  0  0  0  0  0  0  0
  -19.2878   -7.1491   25.4387 C   0  0  0  0  0  0  0  0  0  0  0  0
  -21.0960   -6.1553   24.1818 C   0  0  0  0  0  0  0  0  0  0  0  0
  -24.6001  -11.5816   20.6972 C   0  0  0  0  0  0  0  0  0  0  0  0
  -25.2428  -13.6495   20.3155 C   0  0  0  0  0  0  0  0  0  0  0  0
  -29.2023  -20.7154   23.1307 C   0  0  0  0  0  0  0  0  0  0  0  0
  -22.8617  -13.4444   21.0481 C   0  0  0  0  0  0  0  0  0  0  0  0
  -22.7934  -28.2331   17.4655 C   0  0  0  0  0  0  0  0  0  0  0  0
  -30.7232  -14.7110   20.6736 C   0  0  0  0  0  0  0  0  0  0  0  0
  -22.1708  -29.9965   20.1160 C   0  0  0  0  0  0  0  0  0  0  0  0
  -22.3430  -30.2817   23.5125 C   0  0  0  0  0  0  0  0  0  0  0  0
  -21.2487  -28.1214   12.6014 C   0  0  0  0  0  0  0  0  0  0  0  0
  -21.5913  -26.5565   18.9145 C   0  0  0  0  0  0  0  0  0  0  0  0
  -23.6874  -28.0029   20.4175 C   0  0  0  0  0  0  0  0  0  0  0  0
  -21.3328  -29.1820   13.6961 C   0  0  0  0  0  0  0  0  0  0  0  0
  -29.6632  -12.1951   18.3526 C   0  0  0  0  0  0  0  0  0  0  0  0
  -22.7108  -29.1660   14.3502 C   0  0  0  0  0  0  0  0  0  0  0  0
  -28.2250  -11.8993   18.7759 C   0  0  0  0  0  0  0  0  0  0  0  0
  -30.5454  -12.5124   19.5560 C   0  0  0  0  0  0  0  0  0  0  0  0
  -28.5921  -13.3313   20.8350 C   0  0  0  0  0  0  0  0  0  0  0  0
  -22.9876  -27.8148   15.0205 C   0  0  1  0  0  0  0  0  0  0  0  0
  -21.8960  -28.0283   18.6531 C   0  0  1  0  0  0  0  0  0  0  0  0
  -27.6601  -13.0358   19.6465 C   0  0  2  0  0  0  0  0  0  0  0  0
  -21.7872  -31.8535   25.3880 C   0  0  0  0  0  0  0  0  0  0  0  0
  -31.4118  -21.2844   24.2060 C   0  0  0  0  0  0  0  0  0  0  0  0
  -30.0672  -19.4751   25.2299 C   0  0  0  0  0  0  0  0  0  0  0  0
  -24.5812  -31.7183   19.3842 C   0  0  0  0  0  0  0  0  0  0  0  0
  -24.5499  -32.6301   21.7157 C   0  0  0  0  0  0  0  0  0  0  0  0
  -22.5967  -32.9979   20.2081 C   0  0  0  0  0  0  0  0  0  0  0  0
  -20.4975  -28.3304   24.7555 C   0  0  0  0  0  0  0  0  0  0  0  0
  -25.8919  -22.2998   21.1182 C   0  0  0  0  0  0  0  0  0  1  0  0
  -30.0543  -15.7705   21.5126 C   0  0  0  0  0  0  0  0  0  0  0  0
  -30.9913  -16.9377   21.7657 C   0  0  0  0  0  0  0  0  0  0  0  0
  -31.1842  -19.1007   22.9997 C   0  0  0  0  0  0  0  0  0  0  0  0
  -23.0116  -30.6923   21.1590 C   0  0  1  0  0  0  0  0  0  0  0  0
  -21.3042  -30.6847   24.5434 C   0  0  2  0  0  0  0  0  0  0  0  0
  -30.3825  -20.1548   23.8492 C   0  0  0  0  0  0  0  0  0  0  0  0
  -23.6870  -31.9816   20.6122 C   0  0  0  0  0  0  0  0  0  0  0  0
  -28.0024  -20.5427   23.7172 N   0  0  0  0  0  0  0  0  0  0  0  0
  -29.4508  -21.3432   21.9655 N   0  0  0  0  0  0  0  0  0  0  0  0
  -25.8779  -11.4714   20.3241 N   0  0  0  0  0  0  0  0  0  0  0  0
  -26.2408  -12.7455   20.0986 N   0  0  0  0  0  0  0  0  0  0  0  0
  -22.5406  -28.6831   19.7933 N   0  0  0  0  0  0  0  0  0  0  0  0
  -29.9634  -13.5813   20.3697 N   0  0  0  0  0  0  0  0  0  0  0  0
  -25.4371  -14.9734   20.1365 N   0  0  0  0  0  0  0  0  0  0  0  0
  -21.8529  -12.5505   21.4324 N   0  0  0  0  0  0  0  0  0  0  0  0
  -22.2880  -27.7248   16.2841 N   0  0  0  0  0  0  0  0  0  0  0  0
  -22.1375  -30.9158   22.3054 N   0  0  0  0  0  0  0  0  0  0  0  0
  -21.0044  -29.5413   25.4510 N   0  3  0  0  0  0  0  0  0  0  0  0
  -30.3280  -17.9403   22.6415 N   0  3  0  0  0  0  0  0  0  0  0  0
  -22.6071  -14.6715   20.9949 O   0  0  0  0  0  0  0  0  0  0  0  0
  -23.8643  -28.8111   17.6099 O   0  0  0  0  0  0  0  0  0  0  0  0
  -31.8854  -14.8853   20.2980 O   0  0  0  0  0  0  0  0  0  0  0  0
  -21.2166  -30.5937   19.6116 O   0  0  0  0  0  0  0  0  0  0  0  0
  -23.2486  -29.4869   23.7548 O   0  0  0  0  0  0  0  0  0  0  0  0
  -21.6525   -7.0124   22.0012 O   0  0  0  0  0  0  0  0  0  0  0  0
  -25.8842  -23.7174   21.2814 O   0  0  0  0  0  0  0  0  0  1  0  0
  -18.5298   -7.1946   26.5421 F   0  0  0  0  0  0  0  0  0  0  0  0
  -22.0732   -5.2436   24.0838 F   0  0  0  0  0  0  0  0  0  0  0  0
  1  2  1  0  0  0  0
  1  5  2  0  0  0  0
  2  6  2  0  0  0  0
  3  8  2  0  0  0  0
  3 17  1  0  0  0  0
  4  9  1  0  0  0  0
  4 17  2  0  0  0  0
  5 19  1  0  0  0  0
  6 21  1  0  0  0  0
  7 10  2  0  0  0  0
  7 20  1  0  0  0  0
  8 24  1  0  0  0  0
  9 24  2  0  0  0  0
 10 25  1  0  0  0  0
 11 12  2  0  0  0  0
 11 26  1  0  0  0  0
 12 27  1  0  0  0  0
 13 22  1  0  0  0  0
 13 25  2  0  0  0  0
 14 27  2  0  0  0  0
 14 28  1  0  0  0  0
 15 23  1  0  0  0  0
 15 64  2  0  0  0  0
 16 23  2  0  0  0  0
 16 65  1  0  0  0  0
 17 29  1  0  0  0  0
 18 29  1  0  0  0  0
 18 30  2  0  0  0  0
 18 32  1  0  0  0  0
 19 21  2  0  0  0  0
 19 37  1  0  0  0  0
 20 22  2  0  0  0  0
 20 38  1  0  0  0  0
 21 46  1  0  0  0  0
 22 39  1  0  0  0  0
 23 56  1  0  0  0  0
 24 81  1  0  0  0  0
 25 82  1  0  0  0  0
 26 28  2  0  0  0  0
 26 81  1  0  0  0  0
 27 83  1  0  0  0  0
 28 84  1  0  0  0  0
 29 66  2  0  0  0  0
 30 67  1  0  0  0  0
 30 70  1  0  0  0  0
 31 62  1  0  0  0  0
 31 64  1  0  0  0  0
 31 65  2  0  0  0  0
 32 71  1  0  0  0  0
 32 76  2  0  0  0  0
 33 47  1  0  0  0  0
 33 72  1  0  0  0  0
 33 77  2  0  0  0  0
 34 57  1  0  0  0  0
 34 69  1  0  0  0  0
 34 78  2  0  0  0  0
 35 60  1  0  0  0  0
 35 68  1  0  0  0  0
 35 79  2  0  0  0  0
 36 61  1  0  0  0  0
 36 73  1  0  0  0  0
 36 80  2  0  0  0  0
 37 40  1  0  0  0  0
 38 47  1  0  0  0  0
 39 68  1  0  0  0  0
 40 42  1  0  0  0  0
 41 43  1  0  0  0  0
 41 44  1  0  0  0  0
 42 46  1  0  0  0  0
 43 48  1  0  0  0  0
 44 69  1  0  0  0  0
 45 48  1  0  0  0  0
 45 69  1  0  0  0  0
 46 72  1  0  0  0  0
 47 68  1  0  0  0  0
 48 67  1  0  0  0  0
 49 61  1  0  0  0  0
 50 62  1  0  0  0  0
 51 62  1  0  0  0  0
 52 63  1  0  0  0  0
 53 63  1  0  0  0  0
 54 63  1  0  0  0  0
 55 74  1  0  0  0  0
 56 82  1  0  0  0  0
 57 58  1  0  0  0  0
 58 75  1  0  0  0  0
 59 62  1  0  0  0  0
 59 75  1  0  0  0  0
 60 63  1  0  0  0  0
 60 73  1  0  0  0  0
 61 74  1  0  0  0  0
 66 67  1  0  0  0  0
M  CHG  2  74   1  75   1
M  ISO  4  34 100  56 101  57 100  82 101
M  END
> <Batch ID>
0062

> <Smiles>
CNC(C)C(=O)NC(C(=O)N1Cc2cc([101O:1][101CH2:1]c3cnc(C(C)(C)CNC[100CH2:0][100C:0](=O)N4CCCC(n5nc(-c6ccc(Oc7ccc(F)cc7F)cc6)c(C(N)=O)c5N)C4)nc3)ccc2CC1C(=O)NC1CCCc2ccccc21)C(C)(C)C

> <Shape>
0.235

> <Color>
0.189

> <Negative vol penalty>
0.000

$$$$

  -OEChem-04052318002D

  0  0  0     0  0  0  0  0  0999 V2000
M  END
$$$$

  -OEChem-04052318003D

 84 92  0     1  0  0  0  0  0999 V2000
  -42.3964  -20.0004   20.2687 C   0  0  0  0  0  0  0  0  0  0  0  0
  -41.0214  -19.9474   20.4740 C   0  0  0  0  0  0  0  0  0  0  0  0
  -23.2127   -9.8684   19.9883 C   0  0  0  0  0  0  0  0  0  0  0  0
  -23.9530   -9.9764   22.2856 C   0  0  0  0  0  0  0  0  0  0  0  0
  -43.0350  -21.2339   20.1479 C   0  0  0  0  0  0  0  0  0  0  0  0
  -40.2844  -21.1280   20.5595 C   0  0  0  0  0  0  0  0  0  0  0  0
  -35.9956  -20.9398   17.8733 C   0  0  0  0  0  0  0  0  0  0  0  0
  -22.5197   -8.6904   20.2670 C   0  0  0  0  0  0  0  0  0  0  0  0
  -23.2599   -8.7985   22.5643 C   0  0  0  0  0  0  0  0  0  0  0  0
  -34.9259  -20.2401   18.4299 C   0  0  0  0  0  0  0  0  0  0  0  0
  -20.0663   -7.8729   23.1682 C   0  0  0  0  0  0  0  0  0  0  0  0
  -19.3024   -7.8328   24.3346 C   0  0  0  0  0  0  0  0  0  0  0  0
  -33.9470  -22.3232   19.1522 C   0  0  0  0  0  0  0  0  0  0  0  0
  -20.6240   -5.9758   25.1361 C   0  0  0  0  0  0  0  0  0  0  0  0
  -30.4825  -17.7551   19.5131 C   0  0  0  0  0  0  0  0  0  0  0  0
  -23.9294  -10.5114   20.9976 C   0  0  0  0  0  0  0  0  0  0  0  0
  -24.1579  -13.0449   20.8057 C   0  0  0  0  0  0  0  0  0  0  0  0
  -42.3039  -22.4300   20.2224 C   0  0  0  0  0  0  0  0  0  0  0  0
  -36.0546  -22.3381   17.9616 C   0  0  0  0  0  0  0  0  0  0  0  0
  -40.9140  -22.3787   20.4409 C   0  0  0  0  0  0  0  0  0  0  0  0
  -35.0173  -23.0385   18.5937 C   0  0  0  0  0  0  0  0  0  0  0  0
  -22.5432   -8.1555   21.5550 C   0  0  0  0  0  0  0  0  0  0  0  0
  -33.9028  -20.9316   19.0720 C   0  0  0  0  0  0  0  0  0  0  0  0
  -21.1089   -6.9645   22.9857 C   0  0  0  0  0  0  0  0  0  0  0  0
  -19.5813   -6.8842   25.3186 C   0  0  0  0  0  0  0  0  0  0  0  0
  -21.3878   -6.0160   23.9696 C   0  0  0  0  0  0  0  0  0  0  0  0
  -24.6460  -11.7279   20.7102 C   0  0  0  0  0  0  0  0  0  0  0  0
  -31.6335  -18.2695   20.1260 C   0  0  0  0  0  0  0  0  0  0  0  0
  -25.2180  -13.8322   20.4279 C   0  0  0  0  0  0  0  0  0  0  0  0
  -22.8621  -13.5145   21.2007 C   0  0  0  0  0  0  0  0  0  0  0  0
  -38.0565  -24.4192   19.2903 C   0  0  0  0  0  0  0  0  0  0  0  0
  -36.1748  -26.5941   17.7899 C   0  0  0  0  0  0  0  0  0  0  0  0
  -33.1353  -27.3508   16.4349 C   0  0  0  0  0  0  0  0  0  0  0  0
  -30.9882  -14.0567   20.8387 C   0  0  0  0  0  0  0  0  0  0  0  0
  -43.0451  -23.7405   20.1332 C   0  0  0  0  0  0  0  0  0  0  0  0
  -37.2020  -23.0800   17.3327 C   0  0  0  0  0  0  0  0  0  0  0  0
  -35.0232  -24.5410   18.6977 C   0  0  0  0  0  0  0  0  0  0  0  0
  -42.1367  -24.9368   19.8611 C   0  0  0  0  0  0  0  0  0  0  0  0
  -29.3557  -13.0906   17.8257 C   0  0  0  0  0  0  0  0  0  0  0  0
  -40.9133  -24.8960   20.7713 C   0  0  0  0  0  0  0  0  0  0  0  0
  -27.9295  -12.7631   18.2712 C   0  0  0  0  0  0  0  0  0  0  0  0
  -30.3844  -12.6734   18.8744 C   0  0  0  0  0  0  0  0  0  0  0  0
  -28.7127  -12.8772   20.6738 C   0  0  0  0  0  0  0  0  0  0  0  0
  -40.0764  -23.6369   20.5146 C   0  0  1  0  0  0  0  0  0  0  0  0
  -37.4170  -24.4666   17.9315 C   0  0  1  0  0  0  0  0  0  0  0  0
  -27.6358  -13.3303   19.6731 C   0  0  2  0  0  0  0  0  0  0  0  0
  -31.8863  -29.2192   15.3185 C   0  0  0  0  0  0  0  0  0  0  0  0
  -35.8355  -27.9766   20.4887 C   0  0  0  0  0  0  0  0  0  0  0  0
  -33.8819  -29.2148   19.5303 C   0  0  0  0  0  0  0  0  0  0  0  0
  -36.1559  -29.5290   18.5543 C   0  0  0  0  0  0  0  0  0  0  0  0
  -31.7254  -17.2703   24.5476 C   0  0  0  0  0  0  0  0  0  0  0  0
  -29.8524  -15.6538   24.8079 C   0  0  0  0  0  0  0  0  0  0  0  0
  -28.2972  -16.7583   22.7011 C   0  0  0  0  0  0  0  0  0  0  0  0
  -29.4149  -18.7497   23.5789 C   0  0  0  0  0  0  0  0  0  0  0  0
  -32.7401  -25.7669   13.9663 C   0  0  0  0  0  0  0  0  0  0  0  0
  -32.8737  -18.8294   19.4937 C   0  0  0  0  0  0  0  0  0  1  0  0
  -31.4415  -15.4193   22.8629 C   0  0  0  0  0  0  0  0  0  0  0  0
  -34.9243  -27.3577   18.1536 C   0  0  1  0  0  0  0  0  0  0  0  0
  -32.7530  -27.9870   15.1107 C   0  0  2  0  0  0  0  0  0  0  0  0
  -35.2000  -28.4911   19.1816 C   0  0  0  0  0  0  0  0  0  0  0  0
  -30.6749  -16.4464   23.7565 C   0  0  0  0  0  0  0  0  0  0  0  0
  -29.7132  -17.3944   22.8644 C   0  0  0  0  0  0  0  0  0  0  0  0
  -29.6114  -17.3587   20.4452 N   0  0  0  0  0  0  0  0  0  0  0  0
  -25.9173  -11.6774   20.3034 N   0  0  0  0  0  0  0  0  0  0  0  0
  -31.5058  -18.2069   21.4543 N   0  0  0  0  0  0  0  0  0  0  0  0
  -26.2369  -12.9725   20.1400 N   0  0  0  0  0  0  0  0  0  0  0  0
  -30.2859  -17.6574   21.5672 N   0  0  0  0  0  0  0  0  0  0  0  0
  -36.1698  -25.2208   18.0726 N   0  0  0  0  0  0  0  0  0  0  0  0
  -30.0490  -13.2456   20.1806 N   0  0  0  0  0  0  0  0  0  0  0  0
  -25.3687  -15.1692   20.3172 N   0  0  0  0  0  0  0  0  0  0  0  0
  -21.8896  -12.5705   21.5577 N   0  0  0  0  0  0  0  0  0  0  0  0
  -39.2872  -23.7913   19.3113 N   0  0  0  0  0  0  0  0  0  0  0  0
  -34.3475  -27.8194   16.8955 N   0  0  0  0  0  0  0  0  0  0  0  0
  -30.5879  -14.5638   22.0689 N   0  0  0  0  0  0  0  0  0  0  0  0
  -31.9968  -27.0170   14.2691 N   0  3  0  0  0  0  0  0  0  0  0  0
  -22.5701  -14.7343   21.2202 O   0  0  0  0  0  0  0  0  0  0  0  0
  -37.4769  -24.9169   20.2485 O   0  0  0  0  0  0  0  0  0  0  0  0
  -37.1184  -27.1927   17.2674 O   0  0  0  0  0  0  0  0  0  0  0  0
  -32.4275  -26.5238   17.0055 O   0  0  0  0  0  0  0  0  0  0  0  0
  -32.0990  -14.3145   20.3626 O   0  0  0  0  0  0  0  0  0  0  0  0
  -21.8668   -7.0062   21.8274 O   0  0  0  0  0  0  0  0  0  0  0  0
  -32.8578  -20.2510   19.6167 O   0  0  0  0  0  0  0  0  0  1  0  0
  -18.8488   -6.8468   26.4393 F   0  0  0  0  0  0  0  0  0  0  0  0
  -22.3890   -5.1414   23.8004 F   0  0  0  0  0  0  0  0  0  0  0  0
  1  2  1  0  0  0  0
  1  5  2  0  0  0  0
  2  6  2  0  0  0  0
  3  8  2  0  0  0  0
  3 16  1  0  0  0  0
  4  9  1  0  0  0  0
  4 16  2  0  0  0  0
  5 18  1  0  0  0  0
  6 20  1  0  0  0  0
  7 10  2  0  0  0  0
  7 19  1  0  0  0  0
  8 22  1  0  0  0  0
  9 22  2  0  0  0  0
 10 23  1  0  0  0  0
 11 12  2  0  0  0  0
 11 24  1  0  0  0  0
 12 25  1  0  0  0  0
 13 21  1  0  0  0  0
 13 23  2  0  0  0  0
 14 25  2  0  0  0  0
 14 26  1  0  0  0  0
 15 28  1  0  0  0  0
 15 63  2  0  0  0  0
 16 27  1  0  0  0  0
 17 27  1  0  0  0  0
 17 29  2  0  0  0  0
 17 30  1  0  0  0  0
 18 20  2  0  0  0  0
 18 35  1  0  0  0  0
 19 21  2  0  0  0  0
 19 36  1  0  0  0  0
 20 44  1  0  0  0  0
 21 37  1  0  0  0  0
 22 81  1  0  0  0  0
 23 82  1  0  0  0  0
 24 26  2  0  0  0  0
 24 81  1  0  0  0  0
 25 83  1  0  0  0  0
 26 84  1  0  0  0  0
 27 64  2  0  0  0  0
 28 56  1  0  0  0  0
 28 65  2  0  0  0  0
 29 66  1  0  0  0  0
 29 70  1  0  0  0  0
 30 71  1  0  0  0  0
 30 76  2  0  0  0  0
 31 45  1  0  0  0  0
 31 72  1  0  0  0  0
 31 77  2  0  0  0  0
 32 58  1  0  0  0  0
 32 68  1  0  0  0  0
 32 78  2  0  0  0  0
 33 59  1  0  0  0  0
 33 73  1  0  0  0  0
 33 79  2  0  0  0  0
 34 69  1  0  0  0  0
 34 74  1  0  0  0  0
 34 80  2  0  0  0  0
 35 38  1  0  0  0  0
 36 45  1  0  0  0  0
 37 68  1  0  0  0  0
 38 40  1  0  0  0  0
 39 41  1  0  0  0  0
 39 42  1  0  0  0  0
 40 44  1  0  0  0  0
 41 46  1  0  0  0  0
 42 69  1  0  0  0  0
 43 46  1  0  0  0  0
 43 69  1  0  0  0  0
 44 72  1  0  0  0  0
 45 68  1  0  0  0  0
 46 66  1  0  0  0  0
 47 59  1  0  0  0  0
 48 60  1  0  0  0  0
 49 60  1  0  0  0  0
 50 60  1  0  0  0  0
 51 61  1  0  0  0  0
 52 61  1  0  0  0  0
 53 62  1  0  0  0  0
 54 62  1  0  0  0  0
 55 75  1  0  0  0  0
 56 82  1  0  0  0  0
 57 61  1  0  0  0  0
 57 74  1  0  0  0  0
 58 60  1  0  0  0  0
 58 73  1  0  0  0  0
 59 75  1  0  0  0  0
 61 62  1  0  0  0  0
 62 67  1  0  0  0  0
 63 67  1  0  0  0  0
 64 66  1  0  0  0  0
 65 67  1  0  0  0  0
M  CHG  1  75   1
M  ISO  4  34 100  56 101  74 100  82 101
M  END
> <Batch ID>
0062

> <Smiles>
CNC(C)C(=O)NC(C(=O)N1Cc2cc([101O:1][101CH2:1]c3cnn(C(C)(C)C(C)(C)C[100NH:0][100C:0](=O)N4CCCC(n5nc(-c6ccc(Oc7ccc(F)cc7F)cc6)c(C(N)=O)c5N)C4)n3)ccc2CC1C(=O)NC1CCCc2ccccc21)C(C)(C)C

> <Shape>
0.188

> <Color>
0.186

> <Negative vol penalty>
0.000

$$$$

  -OEChem-04052318003D

 83 91  0     1  0  0  0  0  0999 V2000
  -26.8144  -24.5395   15.5607 C   0  0  0  0  0  0  0  0  0  0  0  0
  -25.6786  -24.8670   16.2942 C   0  0  0  0  0  0  0  0  0  0  0  0
  -24.4275  -14.1940   20.2343 C   0  0  0  0  0  0  0  0  0  0  0  0
  -24.6307  -14.7338   22.5804 C   0  0  0  0  0  0  0  0  0  0  0  0
  -28.0784  -24.6969   16.1277 C   0  0  0  0  0  0  0  0  0  0  0  0
  -25.8061  -25.3509   17.5957 C   0  0  0  0  0  0  0  0  0  0  0  0
  -22.8162  -29.3399   18.4866 C   0  0  0  0  0  0  0  0  0  0  0  0
  -25.5929  -13.4311   20.3088 C   0  0  0  0  0  0  0  0  0  0  0  0
  -25.7961  -13.9709   22.6550 C   0  0  0  0  0  0  0  0  0  0  0  0
  -21.4661  -29.0838   18.7218 C   0  0  0  0  0  0  0  0  0  0  0  0
  -28.9282  -13.9771   20.3542 C   0  0  0  0  0  0  0  0  0  0  0  0
  -29.8704  -14.1335   19.3377 C   0  0  0  0  0  0  0  0  0  0  0  0
  -21.8437  -29.3047   21.0941 C   0  0  0  0  0  0  0  0  0  0  0  0
  -29.6564  -11.7926   18.7792 C   0  0  0  0  0  0  0  0  0  0  0  0
  -18.3255  -23.3466   20.3147 C   0  0  0  0  0  0  0  0  0  0  0  0
  -23.9465  -14.8454   21.3700 C   0  0  0  0  0  0  0  0  0  0  0  0
  -21.4233  -15.1942   21.5092 C   0  0  0  0  0  0  0  0  0  0  0  0
  -28.2219  -25.1922   17.4333 C   0  0  0  0  0  0  0  0  0  0  0  0
  -23.6939  -29.5700   19.5558 C   0  0  0  0  0  0  0  0  0  0  0  0
  -27.0731  -25.5138   18.1812 C   0  0  0  0  0  0  0  0  0  0  0  0
  -23.2040  -29.5661   20.8696 C   0  0  0  0  0  0  0  0  0  0  0  0
  -26.2771  -13.3195   21.5192 C   0  0  0  0  0  0  0  0  0  0  0  0
  -20.9802  -29.0633   20.0259 C   0  0  0  0  0  0  0  0  0  0  0  0
  -28.3501  -12.7285   20.5833 C   0  0  0  0  0  0  0  0  0  0  0  0
  -30.2345  -13.0413   18.5502 C   0  0  0  0  0  0  0  0  0  0  0  0
  -28.7142  -11.6363   19.7958 C   0  0  0  0  0  0  0  0  0  0  0  0
  -22.7430  -15.6341   21.2935 C   0  0  0  0  0  0  0  0  0  0  0  0
  -20.6524  -16.3150   21.3190 C   0  0  0  0  0  0  0  0  0  0  0  0
  -20.3291  -23.5962   20.8443 C   0  0  0  0  0  0  0  0  0  0  0  0
  -20.9375  -13.8893   21.8511 C   0  0  0  0  0  0  0  0  0  0  0  0
  -26.2838  -28.1138   20.6852 C   0  0  0  0  0  0  0  0  0  0  0  0
  -26.3940  -30.6869   22.6573 C   0  0  0  0  0  0  0  0  0  0  0  0
  -21.9666  -22.0817   21.8610 C   0  0  0  0  0  0  0  0  0  0  0  0
  -24.7206  -33.2344   24.1924 C   0  0  0  0  0  0  0  0  0  0  0  0
  -29.6068  -25.3005   18.0206 C   0  0  0  0  0  0  0  0  0  0  0  0
  -25.1422  -29.8713   19.2838 C   0  0  0  0  0  0  0  0  0  0  0  0
  -24.1009  -29.8271   22.0512 C   0  0  0  0  0  0  0  0  0  0  0  0
  -29.6715  -26.1731   19.2714 C   0  0  0  0  0  0  0  0  0  0  0  0
  -20.5683  -20.4496   18.9270 C   0  0  0  0  0  0  0  0  0  0  0  0
  -28.5407  -25.8156   20.2308 C   0  0  0  0  0  0  0  0  0  0  0  0
  -20.8783  -18.9817   19.2169 C   0  0  0  0  0  0  0  0  0  0  0  0
  -21.6746  -21.3686   19.4386 C   0  0  0  0  0  0  0  0  0  0  0  0
  -22.2916  -19.7247   21.1825 C   0  0  0  0  0  0  0  0  0  0  0  0
  -27.1715  -26.0652   19.5871 C   0  0  1  0  0  0  0  0  0  0  0  0
  -26.0470  -29.5830   20.4778 C   0  0  1  0  0  0  0  0  0  0  0  0
  -21.1854  -18.7668   20.7093 C   0  0  2  0  0  0  0  0  0  0  0  0
  -25.0715  -35.1507   25.7742 C   0  0  0  0  0  0  0  0  0  0  0  0
  -22.8872  -23.8244   20.5104 C   0  0  0  0  0  0  0  0  0  0  0  0
  -26.5076  -28.7317   24.9970 C   0  0  0  0  0  0  0  0  0  0  0  0
  -25.9022  -30.6255   26.5186 C   0  0  0  0  0  0  0  0  0  0  0  0
  -28.0265  -30.7067   25.2133 C   0  0  0  0  0  0  0  0  0  0  0  0
  -23.8748  -35.2158   22.1632 C   0  0  0  0  0  0  0  0  0  0  0  0
  -17.1069  -26.3043   19.0991 C   0  0  0  0  0  0  0  0  0  0  0  0
  -17.8651  -27.2374   20.0445 C   0  0  0  0  0  0  0  0  0  0  0  0
  -17.9939  -25.2070   18.5000 C   0  0  0  0  0  0  0  0  0  0  0  0
  -21.8330  -24.3500   22.7520 C   0  0  0  0  0  0  0  0  0  0  0  0
  -18.9867  -27.9730   19.3235 C   0  0  0  0  0  0  0  0  0  1  0  0
  -25.8225  -31.0189   24.0146 C   0  0  1  0  0  0  0  0  0  0  0  0
  -25.0344  -34.7144   24.3179 C   0  0  2  0  0  0  0  0  0  0  0  0
  -21.6586  -23.4965   21.4399 C   0  0  1  0  0  0  0  0  0  0  0  0
  -26.5479  -30.2638   25.1639 C   0  0  0  0  0  0  0  0  0  0  0  0
  -19.2932  -22.8448   21.1372 N   0  0  0  0  0  0  0  0  0  0  0  0
  -22.8105  -16.9329   20.9893 N   0  0  0  0  0  0  0  0  0  0  0  0
  -19.9830  -24.5010   19.8896 N   0  0  0  0  0  0  0  0  0  0  0  0
  -18.6976  -24.3612   19.5313 N   0  0  0  0  0  0  0  0  0  0  0  0
  -21.5234  -17.3188   21.0124 N   0  0  0  0  0  0  0  0  0  0  0  0
  -25.5103  -30.1105   21.7340 N   0  0  0  0  0  0  0  0  0  0  0  0
  -21.9562  -21.1137   20.8564 N   0  0  0  0  0  0  0  0  0  0  0  0
  -19.3213  -16.5299   21.3855 N   0  0  0  0  0  0  0  0  0  0  0  0
  -21.8657  -12.8510   22.0088 N   0  0  0  0  0  0  0  0  0  0  0  0
  -26.8566  -27.4777   19.6005 N   0  0  0  0  0  0  0  0  0  0  0  0
  -25.8681  -32.4723   24.1323 N   0  0  0  0  0  0  0  0  0  0  0  0
  -21.6047  -25.7913   22.4754 N   0  3  0  0  0  0  0  0  0  0  0  0
  -24.0025  -35.5244   23.6107 N   0  3  0  0  0  0  0  0  0  0  0  0
  -19.7152  -13.6473   21.9958 O   0  0  0  0  0  0  0  0  0  0  0  0
  -25.9714  -27.5960   21.7510 O   0  0  0  0  0  0  0  0  0  0  0  0
  -27.5790  -30.9366   22.4227 O   0  0  0  0  0  0  0  0  0  0  0  0
  -22.2061  -21.8454   23.0479 O   0  0  0  0  0  0  0  0  0  0  0  0
  -23.5723  -32.7978   24.1555 O   0  0  0  0  0  0  0  0  0  0  0  0
  -27.4142  -12.5750   21.5924 O   0  0  0  0  0  0  0  0  0  0  0  0
  -19.6630  -28.8128   20.2583 O   0  0  0  0  0  0  0  0  0  1  0  0
  -31.1382  -13.1919   17.5730 F   0  0  0  0  0  0  0  0  0  0  0  0
  -28.1613  -10.4345   20.0103 F   0  0  0  0  0  0  0  0  0  0  0  0
  1  2  1  0  0  0  0
  1  5  2  0  0  0  0
  2  6  2  0  0  0  0
  3  8  2  0  0  0  0
  3 16  1  0  0  0  0
  4  9  1  0  0  0  0
  4 16  2  0  0  0  0
  5 18  1  0  0  0  0
  6 20  1  0  0  0  0
  7 10  2  0  0  0  0
  7 19  1  0  0  0  0
  8 22  1  0  0  0  0
  9 22  2  0  0  0  0
 10 23  1  0  0  0  0
 11 12  2  0  0  0  0
 11 24  1  0  0  0  0
 12 25  1  0  0  0  0
 13 21  1  0  0  0  0
 13 23  2  0  0  0  0
 14 25  2  0  0  0  0
 14 26  1  0  0  0  0
 15 62  2  0  0  0  0
 15 65  1  0  0  0  0
 16 27  1  0  0  0  0
 17 27  1  0  0  0  0
 17 28  2  0  0  0  0
 17 30  1  0  0  0  0
 18 20  2  0  0  0  0
 18 35  1  0  0  0  0
 19 21  2  0  0  0  0
 19 36  1  0  0  0  0
 20 44  1  0  0  0  0
 21 37  1  0  0  0  0
 22 80  1  0  0  0  0
 23 81  1  0  0  0  0
 24 26  2  0  0  0  0
 24 80  1  0  0  0  0
 25 82  1  0  0  0  0
 26 83  1  0  0  0  0
 27 63  2  0  0  0  0
 28 66  1  0  0  0  0
 28 69  1  0  0  0  0
 29 60  1  0  0  0  0
 29 62  1  0  0  0  0
 29 64  2  0  0  0  0
 30 70  1  0  0  0  0
 30 75  2  0  0  0  0
 31 45  1  0  0  0  0
 31 71  1  0  0  0  0
 31 76  2  0  0  0  0
 32 58  1  0  0  0  0
 32 67  1  0  0  0  0
 32 77  2  0  0  0  0
 33 60  1  0  0  0  0
 33 68  1  0  0  0  0
 33 78  2  0  0  0  0
 34 59  1  0  0  0  0
 34 72  1  0  0  0  0
 34 79  2  0  0  0  0
 35 38  1  0  0  0  0
 36 45  1  0  0  0  0
 37 67  1  0  0  0  0
 38 40  1  0  0  0  0
 39 41  1  0  0  0  0
 39 42  1  0  0  0  0
 40 44  1  0  0  0  0
 41 46  1  0  0  0  0
 42 68  1  0  0  0  0
 43 46  1  0  0  0  0
 43 68  1  0  0  0  0
 44 71  1  0  0  0  0
 45 67  1  0  0  0  0
 46 66  1  0  0  0  0
 47 59  1  0  0  0  0
 48 60  1  0  0  0  0
 49 61  1  0  0  0  0
 50 61  1  0  0  0  0
 51 61  1  0  0  0  0
 52 74  1  0  0  0  0
 53 54  1  0  0  0  0
 53 55  1  0  0  0  0
 54 57  1  0  0  0  0
 55 65  1  0  0  0  0
 56 60  1  0  0  0  0
 56 73  1  0  0  0  0
 57 81  1  0  0  0  0
 58 61  1  0  0  0  0
 58 72  1  0  0  0  0
 59 74  1  0  0  0  0
 63 66  1  0  0  0  0
 64 65  1  0  0  0  0
M  CHG  2  73   1  74   1
M  ISO  4  33 100  57 101  60 100  81 101
M  END
> <Batch ID>
0062

> <Smiles>
CNC(C)C(=O)NC(C(=O)N1Cc2cc([101O:1][101CH2:1]CCCn3cnc([100C:0](C)(CN)[100C:0](=O)N4CCCC(n5nc(-c6ccc(Oc7ccc(F)cc7F)cc6)c(C(N)=O)c5N)C4)n3)ccc2CC1C(=O)NC1CCCc2ccccc21)C(C)(C)C

> <Shape>
0.236

> <Color>
0.066

> <Negative vol penalty>
0.000

$$$$

  -OEChem-04052318003D

 84 92  0     1  0  0  0  0  0999 V2000
  -16.7237  -29.6888   24.2709 C   0  0  0  0  0  0  0  0  0  0  0  0
  -17.0826  -28.6314   23.4412 C   0  0  0  0  0  0  0  0  0  0  0  0
  -26.4343  -12.8613   19.9118 C   0  0  0  0  0  0  0  0  0  0  0  0
  -24.7970  -14.6204   20.1609 C   0  0  0  0  0  0  0  0  0  0  0  0
  -17.4982  -30.8479   24.2956 C   0  0  0  0  0  0  0  0  0  0  0  0
  -18.2157  -28.7329   22.6348 C   0  0  0  0  0  0  0  0  0  0  0  0
  -22.0652  -24.2206   21.1095 C   0  0  0  0  0  0  0  0  0  0  0  0
  -25.6747  -12.0367   20.7416 C   0  0  0  0  0  0  0  0  0  0  0  0
  -24.0373  -13.7957   20.9907 C   0  0  0  0  0  0  0  0  0  0  0  0
  -22.1716  -23.4233   19.9707 C   0  0  0  0  0  0  0  0  0  0  0  0
  -23.9866   -9.3421   22.5036 C   0  0  0  0  0  0  0  0  0  0  0  0
  -23.7950   -8.0196   22.1041 C   0  0  0  0  0  0  0  0  0  0  0  0
  -23.8562  -24.9109   19.0941 C   0  0  0  0  0  0  0  0  0  0  0  0
  -22.7162   -8.7865   20.0829 C   0  0  0  0  0  0  0  0  0  0  0  0
  -28.2028  -22.5518   17.1979 C   0  0  0  0  0  0  0  0  0  0  0  0
  -27.2449  -20.8972   18.2840 C   0  0  0  0  0  0  0  0  0  0  0  0
  -25.9955  -14.1532   19.6215 C   0  0  0  0  0  0  0  0  0  0  0  0
  -26.6889  -15.1194   17.3647 C   0  0  0  0  0  0  0  0  0  0  0  0
  -18.6468  -30.9599   23.4963 C   0  0  0  0  0  0  0  0  0  0  0  0
  -22.8469  -25.3769   21.2444 C   0  0  0  0  0  0  0  0  0  0  0  0
  -19.0055  -29.8951   22.6478 C   0  0  0  0  0  0  0  0  0  0  0  0
  -23.7596  -25.7197   20.2367 C   0  0  0  0  0  0  0  0  0  0  0  0
  -27.1630  -21.6069   17.1109 C   0  0  0  0  0  0  0  0  0  0  0  0
  -24.4762  -12.5039   21.2810 C   0  0  0  0  0  0  0  0  0  0  0  0
  -23.0652  -23.7699   18.9615 C   0  0  0  0  0  0  0  0  0  0  0  0
  -23.5429  -10.3869   21.6929 C   0  0  0  0  0  0  0  0  0  0  0  0
  -23.1598   -7.7417   20.8937 C   0  0  0  0  0  0  0  0  0  0  0  0
  -22.9077  -10.1091   20.4825 C   0  0  0  0  0  0  0  0  0  0  0  0
  -26.7801  -15.0056   18.7649 C   0  0  0  0  0  0  0  0  0  0  0  0
  -27.6402  -16.0529   17.0333 C   0  0  0  0  0  0  0  0  0  0  0  0
  -25.8217  -14.4417   16.4457 C   0  0  0  0  0  0  0  0  0  0  0  0
  -22.2289  -28.4825   21.5221 C   0  0  0  0  0  0  0  0  0  0  0  0
  -30.1722  -20.4961   20.1891 C   0  0  0  0  0  0  0  0  0  0  0  0
  -25.4334  -28.6814   21.9846 C   0  0  0  0  0  0  0  0  0  0  0  0
  -28.5203  -27.3064   21.5078 C   0  0  0  0  0  0  0  0  0  0  0  0
  -19.4259  -32.2510   23.5219 C   0  0  0  0  0  0  0  0  0  0  0  0
  -22.7395  -26.2117   22.4910 C   0  0  0  0  0  0  0  0  0  0  0  0
  -24.6362  -26.9399   20.3423 C   0  0  0  0  0  0  0  0  0  0  0  0
  -20.8218  -32.1322   22.9155 C   0  0  0  0  0  0  0  0  0  0  0  0
  -31.8346  -17.8156   18.4888 C   0  0  0  0  0  0  0  0  0  0  0  0
  -20.7645  -31.3865   21.5860 C   0  0  0  0  0  0  0  0  0  0  0  0
  -30.7247  -16.7893   18.2650 C   0  0  0  0  0  0  0  0  0  0  0  0
  -31.6545  -18.5532   19.8119 C   0  0  0  0  0  0  0  0  0  0  0  0
  -29.2089  -18.1845   19.7418 C   0  0  0  0  0  0  0  0  0  0  0  0
  -20.2415  -29.9577   21.7769 C   0  0  1  0  0  0  0  0  0  0  0  0
  -23.2137  -27.6479   22.2911 C   0  0  1  0  0  0  0  0  0  0  0  0
  -29.3360  -17.4383   18.4019 C   0  0  2  0  0  0  0  0  0  0  0  0
  -27.6954  -19.6283   14.7960 C   0  0  0  0  0  0  0  0  0  0  0  0
  -28.6869  -22.1436   21.3094 C   0  0  0  0  0  0  0  0  0  0  0  0
  -31.0043  -27.0270   21.7294 C   0  0  0  0  0  0  0  0  0  0  0  0
  -23.5573  -21.3258   15.5116 C   0  0  0  0  0  0  0  0  0  0  0  0
  -26.3668  -22.4099   14.7859 C   0  0  0  0  0  0  0  0  0  0  0  0
  -25.5011  -30.7571   19.7493 C   0  0  0  0  0  0  0  0  0  0  0  0
  -27.9783  -30.4231   19.6088 C   0  0  0  0  0  0  0  0  0  0  0  0
  -26.9558  -31.2903   21.7123 C   0  0  0  0  0  0  0  0  0  0  0  0
  -28.2347  -25.6725   23.9589 C   0  0  0  0  0  0  0  0  0  0  0  0
  -26.3176  -19.9638   15.3670 C   0  0  0  0  0  0  0  0  0  0  0  0
  -24.4407  -22.9590   17.1991 C   0  0  0  0  0  0  0  0  0  1  0  0
  -28.7623  -21.0243   20.2739 C   0  0  1  0  0  0  0  0  0  0  0  0
  -26.6339  -28.8618   21.0873 C   0  0  1  0  0  0  0  0  0  0  0  0
  -29.6736  -27.0637   22.4646 C   0  0  2  0  0  0  0  0  0  0  0  0
  -24.6785  -21.5822   16.5372 C   0  0  2  0  0  0  0  0  0  0  0  0
  -26.1500  -21.4111   15.9540 C   0  0  1  0  0  0  0  0  0  0  0  0
  -26.7495  -30.3111   20.5362 C   0  0  0  0  0  0  0  0  0  0  0  0
  -28.8945  -22.4540   18.3363 N   0  0  0  0  0  0  0  0  0  0  0  0
  -27.7156  -15.8031   19.2871 N   0  0  0  0  0  0  0  0  0  0  0  0
  -28.2880  -21.4393   18.9755 N   0  0  0  0  0  0  0  0  0  0  0  0
  -28.2211  -16.4268   18.2093 N   0  0  0  0  0  0  0  0  0  0  0  0
  -24.4899  -27.7275   21.5776 N   0  0  0  0  0  0  0  0  0  0  0  0
  -30.3154  -19.1363   19.9128 N   0  0  0  0  0  0  0  0  0  0  0  0
  -28.0283  -16.5822   15.8536 N   0  0  0  0  0  0  0  0  0  0  0  0
  -24.9030  -13.5136   16.9546 N   0  0  0  0  0  0  0  0  0  0  0  0
  -21.2820  -29.1060   22.3121 N   0  0  0  0  0  0  0  0  0  0  0  0
  -27.7908  -28.4223   21.8599 N   0  0  0  0  0  0  0  0  0  0  0  0
  -29.4931  -25.7661   23.1749 N   0  3  0  0  0  0  0  0  0  0  0  0
  -25.8715  -14.6410   15.2082 O   0  0  0  0  0  0  0  0  0  0  0  0
  -22.3222  -28.5566   20.3025 O   0  0  0  0  0  0  0  0  0  0  0  0
  -31.1168  -21.2711   20.3607 O   0  0  0  0  0  0  0  0  0  0  0  0
  -25.3399  -29.3567   23.0127 O   0  0  0  0  0  0  0  0  0  0  0  0
  -28.2919  -26.5810   20.5424 O   0  0  0  0  0  0  0  0  0  0  0  0
  -23.7345  -11.6994   22.0906 O   0  0  0  0  0  0  0  0  0  0  0  0
  -23.1706  -22.9939   17.8487 O   0  0  0  0  0  0  0  0  0  1  0  0
  -22.9773   -6.4716   20.5094 F   0  0  0  0  0  0  0  0  0  0  0  0
  -22.4804  -11.1086   19.6988 F   0  0  0  0  0  0  0  0  0  0  0  0
  1  2  1  0  0  0  0
  1  5  2  0  0  0  0
  2  6  2  0  0  0  0
  3  8  2  0  0  0  0
  3 17  1  0  0  0  0
  4  9  1  0  0  0  0
  4 17  2  0  0  0  0
  5 19  1  0  0  0  0
  6 21  1  0  0  0  0
  7 10  2  0  0  0  0
  7 20  1  0  0  0  0
  8 24  1  0  0  0  0
  9 24  2  0  0  0  0
 10 25  1  0  0  0  0
 11 12  2  0  0  0  0
 11 26  1  0  0  0  0
 12 27  1  0  0  0  0
 13 22  1  0  0  0  0
 13 25  2  0  0  0  0
 14 27  2  0  0  0  0
 14 28  1  0  0  0  0
 15 23  1  0  0  0  0
 15 65  2  0  0  0  0
 16 23  2  0  0  0  0
 16 67  1  0  0  0  0
 17 29  1  0  0  0  0
 18 29  1  0  0  0  0
 18 30  2  0  0  0  0
 18 31  1  0  0  0  0
 19 21  2  0  0  0  0
 19 36  1  0  0  0  0
 20 22  2  0  0  0  0
 20 37  1  0  0  0  0
 21 45  1  0  0  0  0
 22 38  1  0  0  0  0
 23 63  1  0  0  0  0
 24 81  1  0  0  0  0
 25 82  1  0  0  0  0
 26 28  2  0  0  0  0
 26 81  1  0  0  0  0
 27 83  1  0  0  0  0
 28 84  1  0  0  0  0
 29 66  2  0  0  0  0
 30 68  1  0  0  0  0
 30 71  1  0  0  0  0
 31 72  1  0  0  0  0
 31 76  2  0  0  0  0
 32 46  1  0  0  0  0
 32 73  1  0  0  0  0
 32 77  2  0  0  0  0
 33 59  1  0  0  0  0
 33 70  1  0  0  0  0
 33 78  2  0  0  0  0
 34 60  1  0  0  0  0
 34 69  1  0  0  0  0
 34 79  2  0  0  0  0
 35 61  1  0  0  0  0
 35 74  1  0  0  0  0
 35 80  2  0  0  0  0
 36 39  1  0  0  0  0
 37 46  1  0  0  0  0
 38 69  1  0  0  0  0
 39 41  1  0  0  0  0
 40 42  1  0  0  0  0
 40 43  1  0  0  0  0
 41 45  1  0  0  0  0
 42 47  1  0  0  0  0
 43 70  1  0  0  0  0
 44 47  1  0  0  0  0
 44 70  1  0  0  0  0
 45 73  1  0  0  0  0
 46 69  1  0  0  0  0
 47 68  1  0  0  0  0
 48 57  1  0  0  0  0
 49 59  1  0  0  0  0
 50 61  1  0  0  0  0
 51 62  1  0  0  0  0
 52 63  1  0  0  0  0
 53 64  1  0  0  0  0
 54 64  1  0  0  0  0
 55 64  1  0  0  0  0
 56 75  1  0  0  0  0
 57 63  1  0  0  0  0
 58 62  1  0  0  0  0
 58 82  1  0  0  0  0
 59 67  1  0  0  0  0
 60 64  1  0  0  0  0
 60 74  1  0  0  0  0
 61 75  1  0  0  0  0
 62 63  1  0  0  0  0
 65 67  1  0  0  0  0
 66 68  1  0  0  0  0
M  CHG  1  75   1
M  ISO  4  33 100  58 101  59 100  82 101
M  END
> <Batch ID>
0062

> <Smiles>
CCC(C)(c1cnn([100CH:0](C)[100C:0](=O)N2CCCC(n3nc(-c4ccc(Oc5ccc(F)cc5F)cc4)c(C(N)=O)c3N)C2)c1)C(C)[101CH2:1][101O:1]c1ccc2c(c1)CN(C(=O)C(NC(=O)C(C)NC)C(C)(C)C)C(C(=O)NC1CCCc3ccccc31)C2

> <Shape>
0.235

> <Color>
0.089

> <Negative vol penalty>
0.000

$$$$

  -OEChem-04052318003D

 82 90  0     1  0  0  0  0  0999 V2000
  -26.6375  -36.0309   24.3547 C   0  0  0  0  0  0  0  0  0  0  0  0
  -27.0955  -34.7203   24.2654 C   0  0  0  0  0  0  0  0  0  0  0  0
  -26.4564  -15.2718   21.1798 C   0  0  0  0  0  0  0  0  0  0  0  0
  -26.6953  -14.7702   18.8286 C   0  0  0  0  0  0  0  0  0  0  0  0
  -25.2678  -36.2911   24.3534 C   0  0  0  0  0  0  0  0  0  0  0  0
  -26.1838  -33.6689   24.1759 C   0  0  0  0  0  0  0  0  0  0  0  0
  -27.4740  -30.2739   20.6468 C   0  0  0  0  0  0  0  0  0  0  0  0
  -26.1546  -13.9340   21.4346 C   0  0  0  0  0  0  0  0  0  0  0  0
  -26.3935  -13.4324   19.0833 C   0  0  0  0  0  0  0  0  0  0  0  0
  -28.4790  -29.3650   20.9750 C   0  0  0  0  0  0  0  0  0  0  0  0
  -25.6754  -10.5811   22.7549 C   0  0  0  0  0  0  0  0  0  0  0  0
  -26.2958   -9.9728   23.8461 C   0  0  0  0  0  0  0  0  0  0  0  0
  -26.8049  -27.6924   21.4434 C   0  0  0  0  0  0  0  0  0  0  0  0
  -28.4580  -10.4113   22.8614 C   0  0  0  0  0  0  0  0  0  0  0  0
  -29.9996  -23.6385   20.2304 C   0  0  0  0  0  0  0  0  0  0  0  0
  -26.7267  -15.6899   19.8768 C   0  0  0  0  0  0  0  0  0  0  0  0
  -28.3115  -17.6716   19.6142 C   0  0  0  0  0  0  0  0  0  0  0  0
  -24.3390  -35.2432   24.2542 C   0  0  0  0  0  0  0  0  0  0  0  0
  -26.1243  -29.9016   20.7251 C   0  0  0  0  0  0  0  0  0  0  0  0
  -24.8003  -33.9153   24.1747 C   0  0  0  0  0  0  0  0  0  0  0  0
  -25.7848  -28.5977   21.1132 C   0  0  0  0  0  0  0  0  0  0  0  0
  -26.1232  -13.0143   20.3864 C   0  0  0  0  0  0  0  0  0  0  0  0
  -28.1444  -28.0749   21.3761 C   0  0  0  0  0  0  0  0  0  0  0  0
  -26.4463  -11.1045   21.7169 C   0  0  0  0  0  0  0  0  0  0  0  0
  -27.6870   -9.8879   23.8994 C   0  0  0  0  0  0  0  0  0  0  0  0
  -27.8376  -11.0196   21.7701 C   0  0  0  0  0  0  0  0  0  0  0  0
  -27.0379  -17.0718   19.6130 C   0  0  0  0  0  0  0  0  0  0  0  0
  -28.0711  -18.9887   19.3079 C   0  0  0  0  0  0  0  0  0  0  0  0
  -28.6628  -24.1716   18.7185 C   0  0  0  0  0  0  0  0  0  0  0  0
  -29.5970  -17.0901   19.8693 C   0  0  0  0  0  0  0  0  0  0  0  0
  -23.6199  -30.8876   22.4162 C   0  0  0  0  0  0  0  0  0  0  0  0
  -22.0120  -28.8038   20.5201 C   0  0  0  0  0  0  0  0  0  0  0  0
  -22.1018  -26.0241   18.5423 C   0  0  0  0  0  0  0  0  0  0  0  0
  -25.3227  -22.5662   15.8489 C   0  0  0  0  0  0  0  0  0  0  0  0
  -22.8675  -35.5701   24.3044 C   0  0  0  0  0  0  0  0  0  0  0  0
  -25.0531  -30.8856   20.3421 C   0  0  0  0  0  0  0  0  0  0  0  0
  -24.3515  -28.1421   21.1940 C   0  0  0  0  0  0  0  0  0  0  0  0
  -21.9733  -34.4280   23.8289 C   0  0  0  0  0  0  0  0  0  0  0  0
  -23.7530  -21.5938   19.0570 C   0  0  0  0  0  0  0  0  0  0  0  0
  -22.4097  -33.1098   24.4604 C   0  0  0  0  0  0  0  0  0  0  0  0
  -24.5331  -20.3380   19.4424 C   0  0  0  0  0  0  0  0  0  0  0  0
  -23.7060  -21.7906   17.5448 C   0  0  0  0  0  0  0  0  0  0  0  0
  -25.8257  -20.5449   17.2821 C   0  0  0  0  0  0  0  0  0  0  0  0
  -23.8430  -32.7498   24.0511 C   0  0  1  0  0  0  0  0  0  0  0  0
  -23.6940  -30.5570   20.9523 C   0  0  1  0  0  0  0  0  0  0  0  0
  -25.9317  -20.3426   18.8011 C   0  0  2  0  0  0  0  0  0  0  0  0
  -20.6226  -24.5415   17.1598 C   0  0  0  0  0  0  0  0  0  0  0  0
  -32.4174  -26.0888   20.2215 C   0  0  0  0  0  0  0  0  0  0  0  0
  -20.9182  -27.5256   23.0656 C   0  0  0  0  0  0  0  0  0  0  0  0
  -20.2528  -25.5369   21.6978 C   0  0  0  0  0  0  0  0  0  0  0  0
  -19.2482  -27.7697   21.2200 C   0  0  0  0  0  0  0  0  0  0  0  0
  -26.9766  -23.8839   14.5808 C   0  0  0  0  0  0  0  0  0  0  0  0
  -23.6116  -26.6279   16.0695 C   0  0  0  0  0  0  0  0  0  0  0  0
  -27.6617  -24.1886   17.6555 C   0  0  0  0  0  0  0  0  0  0  0  0
  -27.6573  -22.9332   16.7531 C   0  0  0  0  0  0  0  0  0  0  0  0
  -30.3765  -27.3304   21.0304 C   0  0  0  0  0  0  0  0  0  1  0  0
  -21.6609  -27.3378   20.6000 C   0  0  1  0  0  0  0  0  0  0  0  0
  -21.5403  -25.7542   17.1580 C   0  0  2  0  0  0  0  0  0  0  0  0
  -31.0497  -25.9576   20.8974 C   0  0  1  0  0  0  0  0  0  0  0  0
  -20.5471  -27.0514   21.6463 C   0  0  0  0  0  0  0  0  0  0  0  0
  -29.0853  -23.1099   19.3647 N   0  0  0  0  0  0  0  0  0  0  0  0
  -26.0608  -17.9370   19.3286 N   0  0  0  0  0  0  0  0  0  0  0  0
  -29.3028  -25.2769   19.1861 N   0  0  0  0  0  0  0  0  0  0  0  0
  -30.1692  -24.9606   20.1605 N   0  0  0  0  0  0  0  0  0  0  0  0
  -26.7206  -19.0938   19.1484 N   0  0  0  0  0  0  0  0  0  0  0  0
  -23.3401  -29.1427   20.8155 N   0  0  0  0  0  0  0  0  0  0  0  0
  -25.0448  -21.7475   16.9558 N   0  0  0  0  0  0  0  0  0  0  0  0
  -28.8852  -20.0557   19.1623 N   0  0  0  0  0  0  0  0  0  0  0  0
  -29.6642  -15.7225   20.1686 N   0  0  0  0  0  0  0  0  0  0  0  0
  -23.8655  -32.2161   22.7061 N   0  0  0  0  0  0  0  0  0  0  0  0
  -21.3256  -26.9237   19.2418 N   0  0  0  0  0  0  0  0  0  0  0  0
  -26.6417  -23.0229   15.7062 N   0  0  0  0  0  0  0  0  0  0  0  0
  -22.6458  -25.5056   16.1900 N   0  3  0  0  0  0  0  0  0  0  0  0
  -30.6531  -17.7667   19.8490 O   0  0  0  0  0  0  0  0  0  0  0  0
  -23.3577  -30.0031   23.2228 O   0  0  0  0  0  0  0  0  0  0  0  0
  -21.1419  -29.6175   20.2001 O   0  0  0  0  0  0  0  0  0  0  0  0
  -23.1245  -25.4874   18.9625 O   0  0  0  0  0  0  0  0  0  0  0  0
  -24.4399  -22.8794   15.0398 O   0  0  0  0  0  0  0  0  0  0  0  0
  -25.8290  -11.7088   20.6346 O   0  0  0  0  0  0  0  0  0  0  0  0
  -29.1233  -27.1860   21.6976 O   0  0  0  0  0  0  0  0  0  1  0  0
  -28.2827   -9.3051   24.9480 F   0  0  0  0  0  0  0  0  0  0  0  0
  -28.5835  -11.5217   20.7765 F   0  0  0  0  0  0  0  0  0  0  0  0
  1  2  1  0  0  0  0
  1  5  2  0  0  0  0
  2  6  2  0  0  0  0
  3  8  2  0  0  0  0
  3 16  1  0  0  0  0
  4  9  1  0  0  0  0
  4 16  2  0  0  0  0
  5 18  1  0  0  0  0
  6 20  1  0  0  0  0
  7 10  2  0  0  0  0
  7 19  1  0  0  0  0
  8 22  1  0  0  0  0
  9 22  2  0  0  0  0
 10 23  1  0  0  0  0
 11 12  2  0  0  0  0
 11 24  1  0  0  0  0
 12 25  1  0  0  0  0
 13 21  1  0  0  0  0
 13 23  2  0  0  0  0
 14 25  2  0  0  0  0
 14 26  1  0  0  0  0
 15 61  2  0  0  0  0
 15 64  1  0  0  0  0
 16 27  1  0  0  0  0
 17 27  1  0  0  0  0
 17 28  2  0  0  0  0
 17 30  1  0  0  0  0
 18 20  2  0  0  0  0
 18 35  1  0  0  0  0
 19 21  2  0  0  0  0
 19 36  1  0  0  0  0
 20 44  1  0  0  0  0
 21 37  1  0  0  0  0
 22 79  1  0  0  0  0
 23 80  1  0  0  0  0
 24 26  2  0  0  0  0
 24 79  1  0  0  0  0
 25 81  1  0  0  0  0
 26 82  1  0  0  0  0
 27 62  2  0  0  0  0
 28 65  1  0  0  0  0
 28 68  1  0  0  0  0
 29 54  1  0  0  0  0
 29 61  1  0  0  0  0
 29 63  2  0  0  0  0
 30 69  1  0  0  0  0
 30 74  2  0  0  0  0
 31 45  1  0  0  0  0
 31 70  1  0  0  0  0
 31 75  2  0  0  0  0
 32 57  1  0  0  0  0
 32 66  1  0  0  0  0
 32 76  2  0  0  0  0
 33 58  1  0  0  0  0
 33 71  1  0  0  0  0
 33 77  2  0  0  0  0
 34 67  1  0  0  0  0
 34 72  1  0  0  0  0
 34 78  2  0  0  0  0
 35 38  1  0  0  0  0
 36 45  1  0  0  0  0
 37 66  1  0  0  0  0
 38 40  1  0  0  0  0
 39 41  1  0  0  0  0
 39 42  1  0  0  0  0
 40 44  1  0  0  0  0
 41 46  1  0  0  0  0
 42 67  1  0  0  0  0
 43 46  1  0  0  0  0
 43 67  1  0  0  0  0
 44 70  1  0  0  0  0
 45 66  1  0  0  0  0
 46 65  1  0  0  0  0
 47 58  1  0  0  0  0
 48 59  1  0  0  0  0
 49 60  1  0  0  0  0
 50 60  1  0  0  0  0
 51 60  1  0  0  0  0
 52 72  1  0  0  0  0
 53 73  1  0  0  0  0
 54 55  1  0  0  0  0
 55 72  1  0  0  0  0
 56 59  1  0  0  0  0
 56 80  1  0  0  0  0
 57 60  1  0  0  0  0
 57 71  1  0  0  0  0
 58 73  1  0  0  0  0
 59 64  1  0  0  0  0
 62 65  1  0  0  0  0
 63 64  1  0  0  0  0
M  CHG  1  73   1
M  ISO  4  34 100  56 101  72 100  80 101
M  END
> <Batch ID>
0062

> <Smiles>
CNC(C)C(=O)NC(C(=O)N1Cc2cc([101O:1][101CH2:1]C(C)n3cnc(CC[100N:0](C)[100C:0](=O)N4CCCC(n5nc(-c6ccc(Oc7ccc(F)cc7F)cc6)c(C(N)=O)c5N)C4)n3)ccc2CC1C(=O)NC1CCCc2ccccc21)C(C)(C)C

> <Shape>
0.260

> <Color>
0.083

> <Negative vol penalty>
0.000

$$$$

  -OEChem-04052318003D

 84 92  0     1  0  0  0  0  0999 V2000
  -20.8441  -35.1389   21.3289 C   0  0  0  0  0  0  0  0  0  0  0  0
  -22.0148  -34.4847   20.9588 C   0  0  0  0  0  0  0  0  0  0  0  0
  -25.3251  -12.7142   21.9389 C   0  0  0  0  0  0  0  0  0  0  0  0
  -25.8912  -13.2694   19.6567 C   0  0  0  0  0  0  0  0  0  0  0  0
  -20.0491  -34.6189   22.3494 C   0  0  0  0  0  0  0  0  0  0  0  0
  -22.3916  -33.3106   21.6097 C   0  0  0  0  0  0  0  0  0  0  0  0
  -25.2562  -28.4913   19.1449 C   0  0  0  0  0  0  0  0  0  0  0  0
  -24.4725  -11.7089   21.4828 C   0  0  0  0  0  0  0  0  0  0  0  0
  -25.0387  -12.2641   19.2006 C   0  0  0  0  0  0  0  0  0  0  0  0
  -26.5941  -28.0996   19.1353 C   0  0  0  0  0  0  0  0  0  0  0  0
  -24.7499   -8.5501   20.3088 C   0  0  0  0  0  0  0  0  0  0  0  0
  -24.8107   -7.3104   20.9452 C   0  0  0  0  0  0  0  0  0  0  0  0
  -26.1790  -26.6569   21.0236 C   0  0  0  0  0  0  0  0  0  0  0  0
  -22.4849   -7.5152   21.5664 C   0  0  0  0  0  0  0  0  0  0  0  0
  -30.1611  -23.2875   19.6662 C   0  0  0  0  0  0  0  0  0  0  0  0
  -26.0344  -13.4945   21.0259 C   0  0  0  0  0  0  0  0  0  0  0  0
  -28.2828  -14.4129   21.8062 C   0  0  0  0  0  0  0  0  0  0  0  0
  -20.4114  -33.4326   23.0066 C   0  0  0  0  0  0  0  0  0  0  0  0
  -24.3705  -27.9762   20.1024 C   0  0  0  0  0  0  0  0  0  0  0  0
  -21.6014  -32.7749   22.6409 C   0  0  0  0  0  0  0  0  0  0  0  0
  -24.8297  -27.0418   21.0416 C   0  0  0  0  0  0  0  0  0  0  0  0
  -24.3293  -11.4838   20.1137 C   0  0  0  0  0  0  0  0  0  0  0  0
  -27.0564  -27.1844   20.0765 C   0  0  0  0  0  0  0  0  0  0  0  0
  -23.5566   -9.2725   20.3012 C   0  0  0  0  0  0  0  0  0  0  0  0
  -23.6782   -6.7929   21.5739 C   0  0  0  0  0  0  0  0  0  0  0  0
  -22.4241   -8.7550   20.9300 C   0  0  0  0  0  0  0  0  0  0  0  0
  -26.9149  -14.5335   21.4964 C   0  0  0  0  0  0  0  0  0  0  0  0
  -28.6570  -15.6730   22.2047 C   0  0  0  0  0  0  0  0  0  0  0  0
  -28.2965  -22.6021   19.0255 C   0  0  0  0  0  0  0  0  0  0  0  0
  -29.1388  -13.2646   21.7396 C   0  0  0  0  0  0  0  0  0  0  0  0
  -22.6178  -29.2281   22.4400 C   0  0  0  0  0  0  0  0  0  0  0  0
  -21.4761  -26.2012   22.6771 C   0  0  0  0  0  0  0  0  0  0  0  0
  -21.9670  -22.8684   22.1308 C   0  0  0  0  0  0  0  0  0  0  0  0
  -26.4894  -21.1307   21.0362 C   0  0  0  0  0  0  0  0  0  0  0  0
  -19.5445  -32.9344   24.1358 C   0  0  0  0  0  0  0  0  0  0  0  0
  -22.9242  -28.3886   20.0826 C   0  0  0  0  0  0  0  0  0  0  0  0
  -23.9148  -26.4437   22.0778 C   0  0  0  0  0  0  0  0  0  0  0  0
  -19.8204  -31.4833   24.5210 C   0  0  0  0  0  0  0  0  0  0  0  0
  -26.9028  -19.6320   24.2393 C   0  0  0  0  0  0  0  0  0  0  0  0
  -21.3212  -31.2396   24.6434 C   0  0  0  0  0  0  0  0  0  0  0  0
  -27.0762  -18.1445   23.9274 C   0  0  0  0  0  0  0  0  0  0  0  0
  -25.9037  -20.2942   23.2931 C   0  0  0  0  0  0  0  0  0  0  0  0
  -26.3630  -18.6169   21.5469 C   0  0  0  0  0  0  0  0  0  0  0  0
  -22.0309  -31.4855   23.3065 C   0  0  1  0  0  0  0  0  0  0  0  0
  -22.2280  -28.1906   21.4255 C   0  0  1  0  0  0  0  0  0  0  0  0
  -27.4031  -17.9180   22.4391 C   0  0  2  0  0  0  0  0  0  0  0  0
  -20.8726  -20.6352   22.4656 C   0  0  0  0  0  0  0  0  0  0  0  0
  -25.7503  -22.6121   18.6462 C   0  0  0  0  0  0  0  0  0  0  0  0
  -22.1960  -26.2954   25.6407 C   0  0  0  0  0  0  0  0  0  0  0  0
  -21.9820  -23.8016   25.7005 C   0  0  0  0  0  0  0  0  0  0  0  0
  -20.0013  -25.2084   25.1343 C   0  0  0  0  0  0  0  0  0  0  0  0
  -21.9064  -22.3320   19.2209 C   0  0  0  0  0  0  0  0  0  0  0  0
  -30.1596  -25.7713   18.8285 C   0  0  0  0  0  0  0  0  0  0  0  0
  -29.0313  -26.7968   18.8095 C   0  0  0  0  0  0  0  0  0  1  0  0
  -21.8719  -24.9668   23.4507 C   0  0  1  0  0  0  0  0  0  0  0  0
  -21.0736  -21.8061   21.5162 C   0  0  2  0  0  0  0  0  0  0  0  0
  -27.1032  -21.8139   18.7306 C   0  0  1  0  0  0  0  0  0  0  0  0
  -21.5307  -25.0806   24.9634 C   0  0  0  0  0  0  0  0  0  0  0  0
  -27.2311  -21.0569   17.3698 C   0  0  0  0  0  0  0  0  0  0  0  0
  -29.3625  -22.1799   19.6649 N   0  0  0  0  0  0  0  0  0  0  0  0
  -26.4514  -15.7723   21.6822 N   0  0  0  0  0  0  0  0  0  0  0  0
  -28.4634  -23.9034   18.6670 N   0  0  0  0  0  0  0  0  0  0  0  0
  -29.6563  -24.3685   19.0679 N   0  0  0  0  0  0  0  0  0  0  0  0
  -27.5341  -16.4416   22.1132 N   0  0  0  0  0  0  0  0  0  0  0  0
  -22.5108  -26.8833   22.0215 N   0  0  0  0  0  0  0  0  0  0  0  0
  -26.2717  -20.0428   21.8976 N   0  0  0  0  0  0  0  0  0  0  0  0
  -29.8337  -16.1873   22.6209 N   0  0  0  0  0  0  0  0  0  0  0  0
  -28.5923  -12.0480   21.3088 N   0  0  0  0  0  0  0  0  0  0  0  0
  -21.8309  -30.3637   22.4143 N   0  0  0  0  0  0  0  0  0  0  0  0
  -21.2338  -23.8409   22.7773 N   0  0  0  0  0  0  0  0  0  0  0  0
  -26.8408  -20.8044   19.7320 N   0  0  0  0  0  0  0  0  0  0  0  0
  -21.6753  -21.2900   20.2542 N   0  3  0  0  0  0  0  0  0  0  0  0
  -30.3484  -13.3121   22.0685 O   0  0  0  0  0  0  0  0  0  0  0  0
  -23.5617  -29.0137   23.1915 O   0  0  0  0  0  0  0  0  0  0  0  0
  -20.2913  -26.5434   22.6494 O   0  0  0  0  0  0  0  0  0  0  0  0
  -23.1929  -22.8366   22.0489 O   0  0  0  0  0  0  0  0  0  0  0  0
  -26.3841  -22.3059   21.4036 O   0  0  0  0  0  0  0  0  0  0  0  0
  -23.4976  -10.5027   19.6683 O   0  0  0  0  0  0  0  0  0  0  0  0
  -28.3621  -26.8008   20.0698 O   0  0  0  0  0  0  0  0  0  1  0  0
  -23.7364   -5.6017   22.1837 F   0  0  0  0  0  0  0  0  0  0  0  0
  -21.2746   -9.4437   20.9250 F   0  0  0  0  0  0  0  0  0  0  0  0
  -28.2851  -20.2110   17.3867 F   0  0  0  0  0  0  0  0  0  0  0  0
  -27.4328  -21.9380   16.3634 F   0  0  0  0  0  0  0  0  0  0  0  0
  -26.1385  -20.3253   17.0476 F   0  0  0  0  0  0  0  0  0  0  0  0
  1  2  1  0  0  0  0
  1  5  2  0  0  0  0
  2  6  2  0  0  0  0
  3  8  2  0  0  0  0
  3 16  1  0  0  0  0
  4  9  1  0  0  0  0
  4 16  2  0  0  0  0
  5 18  1  0  0  0  0
  6 20  1  0  0  0  0
  7 10  2  0  0  0  0
  7 19  1  0  0  0  0
  8 22  1  0  0  0  0
  9 22  2  0  0  0  0
 10 23  1  0  0  0  0
 11 12  2  0  0  0  0
 11 24  1  0  0  0  0
 12 25  1  0  0  0  0
 13 21  1  0  0  0  0
 13 23  2  0  0  0  0
 14 25  2  0  0  0  0
 14 26  1  0  0  0  0
 15 60  2  0  0  0  0
 15 63  1  0  0  0  0
 16 27  1  0  0  0  0
 17 27  1  0  0  0  0
 17 28  2  0  0  0  0
 17 30  1  0  0  0  0
 18 20  2  0  0  0  0
 18 35  1  0  0  0  0
 19 21  2  0  0  0  0
 19 36  1  0  0  0  0
 20 44  1  0  0  0  0
 21 37  1  0  0  0  0
 22 78  1  0  0  0  0
 23 79  1  0  0  0  0
 24 26  2  0  0  0  0
 24 78  1  0  0  0  0
 25 80  1  0  0  0  0
 26 81  1  0  0  0  0
 27 61  2  0  0  0  0
 28 64  1  0  0  0  0
 28 67  1  0  0  0  0
 29 57  1  0  0  0  0
 29 60  1  0  0  0  0
 29 62  2  0  0  0  0
 30 68  1  0  0  0  0
 30 73  2  0  0  0  0
 31 45  1  0  0  0  0
 31 69  1  0  0  0  0
 31 74  2  0  0  0  0
 32 55  1  0  0  0  0
 32 65  1  0  0  0  0
 32 75  2  0  0  0  0
 33 56  1  0  0  0  0
 33 70  1  0  0  0  0
 33 76  2  0  0  0  0
 34 66  1  0  0  0  0
 34 71  1  0  0  0  0
 34 77  2  0  0  0  0
 35 38  1  0  0  0  0
 36 45  1  0  0  0  0
 37 65  1  0  0  0  0
 38 40  1  0  0  0  0
 39 41  1  0  0  0  0
 39 42  1  0  0  0  0
 40 44  1  0  0  0  0
 41 46  1  0  0  0  0
 42 66  1  0  0  0  0
 43 46  1  0  0  0  0
 43 66  1  0  0  0  0
 44 69  1  0  0  0  0
 45 65  1  0  0  0  0
 46 64  1  0  0  0  0
 47 56  1  0  0  0  0
 48 57  1  0  0  0  0
 49 58  1  0  0  0  0
 50 58  1  0  0  0  0
 51 58  1  0  0  0  0
 52 72  1  0  0  0  0
 53 54  1  0  0  0  0
 53 63  1  0  0  0  0
 54 79  1  0  0  0  0
 55 58  1  0  0  0  0
 55 70  1  0  0  0  0
 56 72  1  0  0  0  0
 57 59  1  0  0  0  0
 57 71  1  0  0  0  0
 59 82  1  0  0  0  0
 59 83  1  0  0  0  0
 59 84  1  0  0  0  0
 61 64  1  0  0  0  0
 62 63  1  0  0  0  0
M  CHG  1  72   1
M  ISO  4  34 100  54 101  71 100  79 101
M  END
> <Batch ID>
0062

> <Smiles>
CNC(C)C(=O)NC(C(=O)N1Cc2cc([101O:1][101CH2:1]Cn3cnc(C(C)([100NH:0][100C:0](=O)N4CCCC(n5nc(-c6ccc(Oc7ccc(F)cc7F)cc6)c(C(N)=O)c5N)C4)C(F)(F)F)n3)ccc2CC1C(=O)NC1CCCc2ccccc21)C(C)(C)C

> <Shape>
0.204

> <Color>
0.089

> <Negative vol penalty>
0.000

$$$$

  -OEChem-04052318003D

 86 94  0     1  0  0  0  0  0999 V2000
  -23.7350  -30.2789   20.4840 C   0  0  0  0  0  0  0  0  0  0  0  0
  -22.9589  -29.2377   19.9850 C   0  0  0  0  0  0  0  0  0  0  0  0
  -28.6652  -13.2015   20.9947 C   0  0  0  0  0  0  0  0  0  0  0  0
  -28.1348  -12.8452   18.6647 C   0  0  0  0  0  0  0  0  0  0  0  0
  -25.0808  -30.0645   20.7785 C   0  0  0  0  0  0  0  0  0  0  0  0
  -23.5285  -27.9817   19.7791 C   0  0  0  0  0  0  0  0  0  0  0  0
  -20.8063  -22.5427   20.4947 C   0  0  0  0  0  0  0  0  0  0  0  0
  -30.0175  -13.3091   20.6705 C   0  0  0  0  0  0  0  0  0  0  0  0
  -29.4872  -12.9529   18.3404 C   0  0  0  0  0  0  0  0  0  0  0  0
  -20.2180  -21.6617   19.5883 C   0  0  0  0  0  0  0  0  0  0  0  0
  -33.5696  -14.0370   20.4103 C   0  0  0  0  0  0  0  0  0  0  0  0
  -34.2955  -15.0759   20.9928 C   0  0  0  0  0  0  0  0  0  0  0  0
  -22.2781  -20.4118   19.4752 C   0  0  0  0  0  0  0  0  0  0  0  0
  -32.8184  -16.6860   19.9619 C   0  0  0  0  0  0  0  0  0  0  0  0
  -27.7238  -12.9695   19.9918 C   0  0  0  0  0  0  0  0  0  0  0  0
  -25.3801  -13.8982   20.3824 C   0  0  0  0  0  0  0  0  0  0  0  0
  -25.6648  -28.8026   20.5852 C   0  0  0  0  0  0  0  0  0  0  0  0
  -22.1406  -22.3709   20.8905 C   0  0  0  0  0  0  0  0  0  0  0  0
  -24.8838  -27.7506   20.0700 C   0  0  0  0  0  0  0  0  0  0  0  0
  -22.8802  -21.2905   20.3887 C   0  0  0  0  0  0  0  0  0  0  0  0
  -30.4285  -13.1848   19.3433 C   0  0  0  0  0  0  0  0  0  0  0  0
  -20.9547  -20.5978   19.0762 C   0  0  0  0  0  0  0  0  0  0  0  0
  -32.4682  -14.3226   19.6035 C   0  0  0  0  0  0  0  0  0  0  0  0
  -33.9199  -16.4004   20.7687 C   0  0  0  0  0  0  0  0  0  0  0  0
  -32.0926  -15.6471   19.3793 C   0  0  0  0  0  0  0  0  0  0  0  0
  -26.3267  -12.8577   20.3262 C   0  0  0  0  0  0  0  0  0  0  0  0
  -24.2090  -13.2778   20.7430 C   0  0  0  0  0  0  0  0  0  0  0  0
  -19.4515  -13.5944   17.3383 C   0  0  0  0  0  0  0  0  0  0  0  0
  -19.4080  -11.5726   17.8557 C   0  0  0  0  0  0  0  0  0  0  0  0
  -25.5448  -15.3001   20.1310 C   0  0  0  0  0  0  0  0  0  0  0  0
  -24.7954  -24.1007   20.6392 C   0  0  0  0  0  0  0  0  0  0  0  0
  -26.0382  -21.7499   22.4969 C   0  0  0  0  0  0  0  0  0  0  0  0
  -25.8702  -18.5169   23.5770 C   0  0  0  0  0  0  0  0  0  0  0  0
  -20.7476   -8.8755   19.7652 C   0  0  0  0  0  0  0  0  0  0  0  0
  -27.1353  -28.6315   20.8734 C   0  0  0  0  0  0  0  0  0  0  0  0
  -22.7523  -23.3143   21.8895 C   0  0  0  0  0  0  0  0  0  0  0  0
  -24.3098  -21.0502   20.7973 C   0  0  0  0  0  0  0  0  0  0  0  0
  -27.5692  -27.1718   20.9801 C   0  0  0  0  0  0  0  0  0  0  0  0
  -23.3209   -8.5956   22.4113 C   0  0  0  0  0  0  0  0  0  0  0  0
  -26.9924  -26.3578   19.8262 C   0  0  0  0  0  0  0  0  0  0  0  0
  -24.2869   -9.7250   22.0573 C   0  0  0  0  0  0  0  0  0  0  0  0
  -22.5990   -8.0595   21.1788 C   0  0  0  0  0  0  0  0  0  0  0  0
  -22.8614  -10.2363   20.0356 C   0  0  0  0  0  0  0  0  0  0  0  0
  -25.4593  -26.3673   19.8565 C   0  0  1  0  0  0  0  0  0  0  0  0
  -24.2764  -23.3432   21.8285 C   0  0  1  0  0  0  0  0  0  0  0  0
  -23.5708  -10.8303   21.2618 C   0  0  2  0  0  0  0  0  0  0  0  0
  -17.6050  -10.0016   18.6575 C   0  0  0  0  0  0  0  0  0  0  0  0
  -27.0461  -16.8735   25.0649 C   0  0  0  0  0  0  0  0  0  0  0  0
  -22.8102  -11.5492   16.3458 C   0  0  0  0  0  0  0  0  0  0  0  0
  -20.9745  -10.1980   15.2455 C   0  0  0  0  0  0  0  0  0  0  0  0
  -28.2307  -21.4240   20.4000 C   0  0  0  0  0  0  0  0  0  0  0  0
  -28.7883  -19.2103   21.4282 C   0  0  0  0  0  0  0  0  0  0  0  0
  -29.0254  -21.3010   22.7681 C   0  0  0  0  0  0  0  0  0  0  0  0
  -19.8573  -11.0098   20.6206 C   0  0  0  0  0  0  0  0  0  0  0  0
  -23.4785  -18.1769   25.2867 C   0  0  0  0  0  0  0  0  0  0  0  0
  -19.0646  -15.0504   17.2748 C   0  0  0  0  0  0  0  0  0  0  0  0
  -20.1645  -16.0048   17.7529 C   0  0  0  0  0  0  0  0  0  0  0  0
  -19.7269  -17.4701   17.7540 C   0  0  0  0  0  0  0  0  0  0  0  0
  -20.8564  -18.3906   18.1961 C   0  0  0  0  0  0  0  0  0  1  0  0
  -19.1078  -10.2366   18.4011 C   0  0  2  0  0  0  0  0  0  0  0  0
  -26.7141  -20.4256   22.2356 C   0  0  1  0  0  0  0  0  0  0  0  0
  -25.9420  -17.9149   24.9687 C   0  0  2  0  0  0  0  0  0  0  0  0
  -21.4411  -10.8907   16.5272 C   0  0  0  0  0  0  0  0  0  0  0  0
  -28.1633  -20.5956   21.6986 C   0  0  0  0  0  0  0  0  0  0  0  0
  -25.8023  -11.6667   20.6272 N   0  0  0  0  0  0  0  0  0  0  0  0
  -18.7461  -12.6852   18.0734 N   0  0  0  0  0  0  0  0  0  0  0  0
  -20.5083  -13.1142   16.6793 N   0  0  0  0  0  0  0  0  0  0  0  0
  -24.5135  -11.9550   20.8760 N   0  0  0  0  0  0  0  0  0  0  0  0
  -20.4580  -11.8194   17.0272 N   0  0  0  0  0  0  0  0  0  0  0  0
  -24.8653  -22.0038   21.7718 N   0  0  0  0  0  0  0  0  0  0  0  0
  -21.9638   -9.1359   20.4179 N   0  0  0  0  0  0  0  0  0  0  0  0
  -22.9587  -13.7402   20.9561 N   0  0  0  0  0  0  0  0  0  0  0  0
  -26.8152  -15.7696   19.7708 N   0  0  0  0  0  0  0  0  0  0  0  0
  -24.9680  -25.4530   20.8650 N   0  0  0  0  0  0  0  0  0  0  0  0
  -26.6227  -19.6682   23.4792 N   0  0  0  0  0  0  0  0  0  0  0  0
  -19.8553   -9.9489   19.6233 N   0  0  0  0  0  0  0  0  0  0  0  0
  -24.6486  -17.2622   25.3181 N   0  3  0  0  0  0  0  0  0  0  0  0
  -24.5971  -16.1148   20.2391 O   0  0  0  0  0  0  0  0  0  0  0  0
  -25.0238  -23.5024   19.5944 O   0  0  0  0  0  0  0  0  0  0  0  0
  -26.5288  -22.5273   23.3195 O   0  0  0  0  0  0  0  0  0  0  0  0
  -25.2153  -18.0141   22.6667 O   0  0  0  0  0  0  0  0  0  0  0  0
  -20.4710   -7.7456   19.3425 O   0  0  0  0  0  0  0  0  0  0  0  0
  -31.7480  -13.2900   19.0265 O   0  0  0  0  0  0  0  0  0  0  0  0
  -20.3831  -19.7368   18.1908 O   0  0  0  0  0  0  0  0  0  1  0  0
  -34.6162  -17.3979   21.3294 F   0  0  0  0  0  0  0  0  0  0  0  0
  -31.0346  -15.9276   18.6062 F   0  0  0  0  0  0  0  0  0  0  0  0
  1  2  1  0  0  0  0
  1  5  2  0  0  0  0
  2  6  2  0  0  0  0
  3  8  2  0  0  0  0
  3 15  1  0  0  0  0
  4  9  1  0  0  0  0
  4 15  2  0  0  0  0
  5 17  1  0  0  0  0
  6 19  1  0  0  0  0
  7 10  2  0  0  0  0
  7 18  1  0  0  0  0
  8 21  1  0  0  0  0
  9 21  2  0  0  0  0
 10 22  1  0  0  0  0
 11 12  2  0  0  0  0
 11 23  1  0  0  0  0
 12 24  1  0  0  0  0
 13 20  1  0  0  0  0
 13 22  2  0  0  0  0
 14 24  2  0  0  0  0
 14 25  1  0  0  0  0
 15 26  1  0  0  0  0
 16 26  1  0  0  0  0
 16 27  2  0  0  0  0
 16 30  1  0  0  0  0
 17 19  2  0  0  0  0
 17 35  1  0  0  0  0
 18 20  2  0  0  0  0
 18 36  1  0  0  0  0
 19 44  1  0  0  0  0
 20 37  1  0  0  0  0
 21 83  1  0  0  0  0
 22 84  1  0  0  0  0
 23 25  2  0  0  0  0
 23 83  1  0  0  0  0
 24 85  1  0  0  0  0
 25 86  1  0  0  0  0
 26 65  2  0  0  0  0
 27 68  1  0  0  0  0
 27 72  1  0  0  0  0
 28 56  1  0  0  0  0
 28 66  1  0  0  0  0
 28 67  2  0  0  0  0
 29 60  1  0  0  0  0
 29 66  2  0  0  0  0
 29 69  1  0  0  0  0
 30 73  1  0  0  0  0
 30 78  2  0  0  0  0
 31 45  1  0  0  0  0
 31 74  1  0  0  0  0
 31 79  2  0  0  0  0
 32 61  1  0  0  0  0
 32 70  1  0  0  0  0
 32 80  2  0  0  0  0
 33 62  1  0  0  0  0
 33 75  1  0  0  0  0
 33 81  2  0  0  0  0
 34 71  1  0  0  0  0
 34 76  1  0  0  0  0
 34 82  2  0  0  0  0
 35 38  1  0  0  0  0
 36 45  1  0  0  0  0
 37 70  1  0  0  0  0
 38 40  1  0  0  0  0
 39 41  1  0  0  0  0
 39 42  1  0  0  0  0
 40 44  1  0  0  0  0
 41 46  1  0  0  0  0
 42 71  1  0  0  0  0
 43 46  1  0  0  0  0
 43 71  1  0  0  0  0
 44 74  1  0  0  0  0
 45 70  1  0  0  0  0
 46 68  1  0  0  0  0
 47 60  1  0  0  0  0
 48 62  1  0  0  0  0
 49 63  1  0  0  0  0
 50 63  1  0  0  0  0
 51 64  1  0  0  0  0
 52 64  1  0  0  0  0
 53 64  1  0  0  0  0
 54 76  1  0  0  0  0
 55 77  1  0  0  0  0
 56 57  1  0  0  0  0
 57 58  1  0  0  0  0
 58 59  1  0  0  0  0
 59 84  1  0  0  0  0
 60 76  1  0  0  0  0
 61 64  1  0  0  0  0
 61 75  1  0  0  0  0
 62 77  1  0  0  0  0
 63 69  1  0  0  0  0
 65 68  1  0  0  0  0
 67 69  1  0  0  0  0
M  CHG  1  77   1
M  ISO  4  34 100  59 101  76 100  84 101
M  END
> <Batch ID>
0062

> <Smiles>
CNC(C)C(=O)NC(C(=O)N1Cc2cc([101O:1][101CH2:1]CCCc3nc(C(C)[100N:0](C)[100C:0](=O)N4CCCC(n5nc(-c6ccc(Oc7ccc(F)cc7F)cc6)c(C(N)=O)c5N)C4)n(C(C)C)n3)ccc2CC1C(=O)NC1CCCc2ccccc21)C(C)(C)C

> <Shape>
0.197

> <Color>
0.103

> <Negative vol penalty>
0.000

$$$$

  -OEChem-04052318003D

 84 92  0     1  0  0  0  0  0999 V2000
  -22.3465   -8.3928   20.4728 C   0  0  0  0  0  0  0  0  0  0  0  0
  -22.0504   -9.7380   20.2774 C   0  0  0  0  0  0  0  0  0  0  0  0
  -22.9512  -30.4687   20.5722 C   0  0  0  0  0  0  0  0  0  0  0  0
  -23.0167  -28.6286   22.1364 C   0  0  0  0  0  0  0  0  0  0  0  0
  -23.3495   -8.0239   21.3683 C   0  0  0  0  0  0  0  0  0  0  0  0
  -22.7564  -10.7151   20.9783 C   0  0  0  0  0  0  0  0  0  0  0  0
  -24.3230  -16.2821   18.9634 C   0  0  0  0  0  0  0  0  0  0  0  0
  -21.5769  -30.2876   20.4167 C   0  0  0  0  0  0  0  0  0  0  0  0
  -21.6424  -28.4475   21.9810 C   0  0  0  0  0  0  0  0  0  0  0  0
  -23.7536  -17.5412   19.1484 C   0  0  0  0  0  0  0  0  0  0  0  0
  -18.7991  -29.8871   23.1052 C   0  0  0  0  0  0  0  0  0  0  0  0
  -18.0381  -29.6933   24.2579 C   0  0  0  0  0  0  0  0  0  0  0  0
  -25.2905  -17.9634   20.9592 C   0  0  0  0  0  0  0  0  0  0  0  0
  -17.3283  -27.5385   23.4271 C   0  0  0  0  0  0  0  0  0  0  0  0
  -23.6711  -29.6391   21.4320 C   0  0  0  0  0  0  0  0  0  0  0  0
  -25.7393  -30.6478   22.5332 C   0  0  0  0  0  0  0  0  0  0  0  0
  -24.0747   -8.9974   22.0733 C   0  0  0  0  0  0  0  0  0  0  0  0
  -25.3750  -15.8492   19.7833 C   0  0  0  0  0  0  0  0  0  0  0  0
  -23.7691  -10.3588   21.8850 C   0  0  0  0  0  0  0  0  0  0  0  0
  -25.8732  -16.6994   20.7809 C   0  0  0  0  0  0  0  0  0  0  0  0
  -20.9225  -29.2770   21.1211 C   0  0  0  0  0  0  0  0  0  0  0  0
  -24.2354  -18.3809   20.1484 C   0  0  0  0  0  0  0  0  0  0  0  0
  -18.8248  -28.9066   22.1134 C   0  0  0  0  0  0  0  0  0  0  0  0
  -17.3027  -28.5190   24.4189 C   0  0  0  0  0  0  0  0  0  0  0  0
  -18.0894  -27.7323   22.2743 C   0  0  0  0  0  0  0  0  0  0  0  0
  -25.0908  -29.8253   21.5926 C   0  0  0  0  0  0  0  0  0  0  0  0
  -26.3553  -23.0344   20.4175 C   0  0  0  0  0  0  0  0  0  0  0  0
  -27.4543  -23.0244   21.2392 C   0  0  0  0  0  0  0  0  0  0  0  0
  -27.0773  -30.4753   22.2755 C   0  0  0  0  0  0  0  0  0  0  0  0
  -25.1820  -31.4922   23.5492 C   0  0  0  0  0  0  0  0  0  0  0  0
  -25.7785  -13.4594   21.8400 C   0  0  0  0  0  0  0  0  0  0  0  0
  -28.8306  -14.5554   21.9147 C   0  0  0  0  0  0  0  0  0  0  0  0
  -30.9855  -17.1609   21.4513 C   0  0  0  0  0  0  0  0  0  0  0  0
  -30.2068  -26.0278   19.7702 C   0  0  0  0  0  0  0  0  0  0  0  0
  -25.1177   -8.5483   23.0658 C   0  0  0  0  0  0  0  0  0  0  0  0
  -25.9961  -14.4987   19.5534 C   0  0  0  0  0  0  0  0  0  0  0  0
  -27.0143  -16.2899   21.6746 C   0  0  0  0  0  0  0  0  0  0  0  0
  -26.0739   -9.6603   23.4896 C   0  0  0  0  0  0  0  0  0  0  0  0
  -30.1008  -29.4277   18.7186 C   0  0  0  0  0  0  0  0  0  0  0  0
  -25.2995  -10.9299   23.8286 C   0  0  0  0  0  0  0  0  0  0  0  0
  -28.8633  -29.9894   19.4208 C   0  0  0  0  0  0  0  0  0  0  0  0
  -29.8919  -27.9804   18.2786 C   0  0  0  0  0  0  0  0  0  0  0  0
  -28.2165  -27.6265   20.0510 C   0  0  0  0  0  0  0  0  0  0  0  0
  -24.5297  -11.4491   22.6082 C   0  0  1  0  0  0  0  0  0  0  0  0
  -26.7215  -13.9577   20.7816 C   0  0  1  0  0  0  0  0  0  0  0  0
  -28.3990  -29.0656   20.5629 C   0  0  2  0  0  0  0  0  0  0  0  0
  -27.6083  -23.1300   22.6988 C   0  0  0  0  0  0  0  0  0  0  0  0
  -33.4152  -17.7630   21.6281 C   0  0  0  0  0  0  0  0  0  0  0  0
  -28.5703  -14.7044   24.9511 C   0  0  0  0  0  0  0  0  0  0  0  0
  -30.6023  -16.1666   24.9838 C   0  0  0  0  0  0  0  0  0  0  0  0
  -30.7651  -13.8269   24.1340 C   0  0  0  0  0  0  0  0  0  0  0  0
  -30.2837  -21.6247   21.6022 C   0  0  0  0  0  0  0  0  0  0  0  0
  -30.6907  -22.6150   19.3640 C   0  0  0  0  0  0  0  0  0  0  0  0
  -31.1593  -17.7886   18.5643 C   0  0  0  0  0  0  0  0  0  0  0  0
  -24.8964  -23.1631   20.7764 C   0  0  0  0  0  0  0  0  0  0  0  0
  -24.0414  -21.9821   20.3119 C   0  0  0  0  0  0  0  0  0  0  0  0
  -30.3942  -24.1240   21.3512 C   0  0  0  0  0  0  0  0  0  0  0  0
  -24.5324  -20.6379   20.8368 C   0  0  0  0  0  0  0  0  0  1  0  0
  -29.5814  -15.5725   22.7398 C   0  0  1  0  0  0  0  0  0  0  0  0
  -32.3101  -17.2539   20.7157 C   0  0  2  0  0  0  0  0  0  0  0  0
  -29.8570  -15.0749   24.1868 C   0  0  0  0  0  0  0  0  0  0  0  0
  -29.9039  -22.8109   20.6823 C   0  0  0  0  0  0  0  0  0  0  0  0
  -25.9464  -29.1785   20.7966 N   0  0  0  0  0  0  0  0  0  0  0  0
  -26.7534  -22.9041   19.1160 N   0  0  0  0  0  0  0  0  0  0  0  0
  -28.0787  -22.8114   19.1019 N   0  0  0  0  0  0  0  0  0  0  0  0
  -28.4970  -22.8836   20.3759 N   0  0  0  0  0  0  0  0  0  0  0  0
  -27.1463  -29.5946   21.2364 N   0  0  0  0  0  0  0  0  0  0  0  0
  -27.5840  -14.9575   21.4147 N   0  0  0  0  0  0  0  0  0  0  0  0
  -29.4539  -27.1571   19.4083 N   0  0  0  0  0  0  0  0  0  0  0  0
  -28.1899  -30.9927   22.8386 N   0  0  0  0  0  0  0  0  0  0  0  0
  -23.7877  -31.5524   23.6772 N   0  0  0  0  0  0  0  0  0  0  0  0
  -25.4251  -12.1310   21.6984 N   0  0  0  0  0  0  0  0  0  0  0  0
  -30.7836  -15.9048   21.9830 N   0  0  0  0  0  0  0  0  0  0  0  0
  -29.7255  -25.3065   20.8559 N   0  0  0  0  0  0  0  0  0  0  0  0
  -32.1941  -18.1816   19.5552 N   0  3  0  0  0  0  0  0  0  0  0  0
  -25.8989  -32.1858   24.3098 O   0  0  0  0  0  0  0  0  0  0  0  0
  -25.4007  -14.2231   22.7207 O   0  0  0  0  0  0  0  0  0  0  0  0
  -29.3350  -13.4475   21.7150 O   0  0  0  0  0  0  0  0  0  0  0  0
  -30.2093  -18.1089   21.5480 O   0  0  0  0  0  0  0  0  0  0  0  0
  -31.2350  -25.6906   19.1734 O   0  0  0  0  0  0  0  0  0  0  0  0
  -19.5815  -29.1001   20.9699 O   0  0  0  0  0  0  0  0  0  0  0  0
  -23.6810  -19.6101   20.3316 O   0  0  0  0  0  0  0  0  0  1  0  0
  -16.5731  -28.3324   25.5266 F   0  0  0  0  0  0  0  0  0  0  0  0
  -18.1110  -26.7863   21.3255 F   0  0  0  0  0  0  0  0  0  0  0  0
  1  2  1  0  0  0  0
  1  5  2  0  0  0  0
  2  6  2  0  0  0  0
  3  8  2  0  0  0  0
  3 15  1  0  0  0  0
  4  9  1  0  0  0  0
  4 15  2  0  0  0  0
  5 17  1  0  0  0  0
  6 19  1  0  0  0  0
  7 10  2  0  0  0  0
  7 18  1  0  0  0  0
  8 21  1  0  0  0  0
  9 21  2  0  0  0  0
 10 22  1  0  0  0  0
 11 12  2  0  0  0  0
 11 23  1  0  0  0  0
 12 24  1  0  0  0  0
 13 20  1  0  0  0  0
 13 22  2  0  0  0  0
 14 24  2  0  0  0  0
 14 25  1  0  0  0  0
 15 26  1  0  0  0  0
 16 26  1  0  0  0  0
 16 29  2  0  0  0  0
 16 30  1  0  0  0  0
 17 19  2  0  0  0  0
 17 35  1  0  0  0  0
 18 20  2  0  0  0  0
 18 36  1  0  0  0  0
 19 44  1  0  0  0  0
 20 37  1  0  0  0  0
 21 81  1  0  0  0  0
 22 82  1  0  0  0  0
 23 25  2  0  0  0  0
 23 81  1  0  0  0  0
 24 83  1  0  0  0  0
 25 84  1  0  0  0  0
 26 63  2  0  0  0  0
 27 28  2  0  0  0  0
 27 55  1  0  0  0  0
 27 64  1  0  0  0  0
 28 47  1  0  0  0  0
 28 66  1  0  0  0  0
 29 67  1  0  0  0  0
 29 70  1  0  0  0  0
 30 71  1  0  0  0  0
 30 76  2  0  0  0  0
 31 45  1  0  0  0  0
 31 72  1  0  0  0  0
 31 77  2  0  0  0  0
 32 59  1  0  0  0  0
 32 68  1  0  0  0  0
 32 78  2  0  0  0  0
 33 60  1  0  0  0  0
 33 73  1  0  0  0  0
 33 79  2  0  0  0  0
 34 69  1  0  0  0  0
 34 74  1  0  0  0  0
 34 80  2  0  0  0  0
 35 38  1  0  0  0  0
 36 45  1  0  0  0  0
 37 68  1  0  0  0  0
 38 40  1  0  0  0  0
 39 41  1  0  0  0  0
 39 42  1  0  0  0  0
 40 44  1  0  0  0  0
 41 46  1  0  0  0  0
 42 69  1  0  0  0  0
 43 46  1  0  0  0  0
 43 69  1  0  0  0  0
 44 72  1  0  0  0  0
 45 68  1  0  0  0  0
 46 67  1  0  0  0  0
 48 60  1  0  0  0  0
 49 61  1  0  0  0  0
 50 61  1  0  0  0  0
 51 61  1  0  0  0  0
 52 62  1  0  0  0  0
 53 62  1  0  0  0  0
 54 75  1  0  0  0  0
 55 56  1  0  0  0  0
 56 58  1  0  0  0  0
 57 62  1  0  0  0  0
 57 74  1  0  0  0  0
 58 82  1  0  0  0  0
 59 61  1  0  0  0  0
 59 73  1  0  0  0  0
 60 75  1  0  0  0  0
 62 66  1  0  0  0  0
 63 67  1  0  0  0  0
 64 65  2  0  0  0  0
 65 66  1  0  0  0  0
M  CHG  1  75   1
M  ISO  4  34 100  58 101  74 100  82 101
M  END
> <Batch ID>
0062

> <Smiles>
CNC(C)C(=O)NC(C(=O)N1Cc2cc([101O:1][101CH2:1]CCc3nnn(C(C)(C)C[100NH:0][100C:0](=O)N4CCCC(n5nc(-c6ccc(Oc7ccc(F)cc7F)cc6)c(C(N)=O)c5N)C4)c3C)ccc2CC1C(=O)NC1CCCc2ccccc21)C(C)(C)C

> <Shape>
0.297

> <Color>
0.051

> <Negative vol penalty>
0.000

$$$$

  -OEChem-04052318003D

 80 88  0     1  0  0  0  0  0999 V2000
  -17.3268  -30.0807   24.9535 C   0  0  0  0  0  0  0  0  0  0  0  0
  -18.2634  -29.0949   25.2470 C   0  0  0  0  0  0  0  0  0  0  0  0
  -23.8105  -10.0361   22.4111 C   0  0  0  0  0  0  0  0  0  0  0  0
  -24.3481  -11.7273   24.0505 C   0  0  0  0  0  0  0  0  0  0  0  0
  -17.1410  -30.4936   23.6348 C   0  0  0  0  0  0  0  0  0  0  0  0
  -19.0141  -28.5205   24.2218 C   0  0  0  0  0  0  0  0  0  0  0  0
  -25.4916  -25.7508   22.9229 C   0  0  0  0  0  0  0  0  0  0  0  0
  -23.3164   -9.2126   23.4226 C   0  0  0  0  0  0  0  0  0  0  0  0
  -23.8540  -10.9038   25.0621 C   0  0  0  0  0  0  0  0  0  0  0  0
  -26.0875  -24.6051   22.3973 C   0  0  0  0  0  0  0  0  0  0  0  0
  -20.4972   -8.9563   25.2718 C   0  0  0  0  0  0  0  0  0  0  0  0
  -19.2789   -8.3149   25.0483 C   0  0  0  0  0  0  0  0  0  0  0  0
  -25.7372  -25.4536   20.1665 C   0  0  0  0  0  0  0  0  0  0  0  0
  -20.3608   -6.1702   25.3073 C   0  0  0  0  0  0  0  0  0  0  0  0
  -27.1298  -20.2886   19.9976 C   0  0  0  0  0  0  0  0  0  0  0  0
  -29.2490  -21.0510   20.6172 C   0  0  0  0  0  0  0  0  0  0  0  0
  -24.3264  -11.2935   22.7250 C   0  0  0  0  0  0  0  0  0  0  0  0
  -24.1199  -13.0975   20.9332 C   0  0  0  0  0  0  0  0  0  0  0  0
  -17.8965  -29.9309   22.5941 C   0  0  0  0  0  0  0  0  0  0  0  0
  -25.0034  -26.7532   22.0724 C   0  0  0  0  0  0  0  0  0  0  0  0
  -18.8372  -28.9253   22.8878 C   0  0  0  0  0  0  0  0  0  0  0  0
  -25.1379  -26.6121   20.6838 C   0  0  0  0  0  0  0  0  0  0  0  0
  -27.8814  -21.2257   20.6767 C   0  0  0  0  0  0  0  0  0  0  0  0
  -23.3381   -9.6464   24.7481 C   0  0  0  0  0  0  0  0  0  0  0  0
  -26.2077  -24.4550   21.0189 C   0  0  0  0  0  0  0  0  0  0  0  0
  -21.6473   -8.2048   25.5130 C   0  0  0  0  0  0  0  0  0  0  0  0
  -19.2107   -6.9218   25.0661 C   0  0  0  0  0  0  0  0  0  0  0  0
  -21.5790   -6.8117   25.5308 C   0  0  0  0  0  0  0  0  0  0  0  0
  -24.8375  -12.1445   21.6806 C   0  0  0  0  0  0  0  0  0  0  0  0
  -25.0502  -13.6333   20.0766 C   0  0  0  0  0  0  0  0  0  0  0  0
  -29.0065  -19.1951   19.3274 C   0  0  0  0  0  0  0  0  0  0  0  0
  -22.7361  -13.4655   21.0067 C   0  0  0  0  0  0  0  0  0  0  0  0
  -22.1429  -28.0190   21.5078 C   0  0  0  0  0  0  0  0  0  0  0  0
  -23.8444  -30.0585   19.6456 C   0  0  0  0  0  0  0  0  0  0  0  0
  -26.6698  -30.6460   17.8239 C   0  0  0  0  0  0  0  0  0  0  0  0
  -30.1433  -15.6918   19.0924 C   0  0  0  0  0  0  0  0  0  0  0  0
  -17.6269  -30.3759   21.1785 C   0  0  0  0  0  0  0  0  0  0  0  0
  -24.3873  -27.9951   22.6558 C   0  0  0  0  0  0  0  0  0  0  0  0
  -24.6483  -27.6684   19.7283 C   0  0  0  0  0  0  0  0  0  0  0  0
  -18.7277  -29.9834   20.1964 C   0  0  0  0  0  0  0  0  0  0  0  0
  -29.7637  -12.1531   18.9910 C   0  0  0  0  0  0  0  0  0  0  0  0
  -19.1273  -28.5251   20.3975 C   0  0  0  0  0  0  0  0  0  0  0  0
  -28.3925  -11.9140   19.6255 C   0  0  0  0  0  0  0  0  0  0  0  0
  -30.5028  -13.3082   19.6630 C   0  0  0  0  0  0  0  0  0  0  0  0
  -28.3743  -14.3329   20.3653 C   0  0  0  0  0  0  0  0  0  0  0  0
  -19.6883  -28.2960   21.8062 C   0  0  1  0  0  0  0  0  0  0  0  0
  -23.4619  -28.7174   21.6814 C   0  0  1  0  0  0  0  0  0  0  0  0
  -27.5677  -13.2138   19.6847 C   0  0  2  0  0  0  0  0  0  0  0  0
  -29.2943  -18.0809   17.0830 C   0  0  0  0  0  0  0  0  0  0  0  0
  -27.7587  -32.3898   16.3849 C   0  0  0  0  0  0  0  0  0  0  0  0
  -21.9580  -29.3438   17.3563 C   0  0  0  0  0  0  0  0  0  0  0  0
  -23.6212  -30.3346   15.7689 C   0  0  0  0  0  0  0  0  0  0  0  0
  -22.5473  -31.7697   17.5038 C   0  0  0  0  0  0  0  0  0  0  0  0
  -28.9858  -30.8749   19.6522 C   0  0  0  0  0  0  0  0  0  0  0  0
  -27.2522  -22.3589   21.4326 C   0  0  0  0  0  0  0  0  0  1  0  0
  -29.6319  -18.0658   18.5810 C   0  0  2  0  0  0  0  0  0  0  0  0
  -24.2860  -30.0724   18.2021 C   0  0  1  0  0  0  0  0  0  0  0  0
  -27.6197  -31.8297   17.7919 C   0  0  2  0  0  0  0  0  0  0  0  0
  -23.1107  -30.3592   17.2254 C   0  0  0  0  0  0  0  0  0  0  0  0
  -27.6614  -19.2566   19.3101 N   0  0  0  0  0  0  0  0  0  0  0  0
  -29.8477  -20.0431   19.9494 N   0  0  0  0  0  0  0  0  0  0  0  0
  -26.1244  -12.0764   21.3295 N   0  0  0  0  0  0  0  0  0  0  0  0
  -26.2228  -12.9934   20.3520 N   0  0  0  0  0  0  0  0  0  0  0  0
  -24.0475  -28.8617   20.3471 N   0  0  0  0  0  0  0  0  0  0  0  0
  -29.6668  -14.5109   19.6851 N   0  0  0  0  0  0  0  0  0  0  0  0
  -24.9715  -14.5847   19.1220 N   0  0  0  0  0  0  0  0  0  0  0  0
  -21.9208  -12.8157   21.9433 N   0  0  0  0  0  0  0  0  0  0  0  0
  -21.0514  -28.7746   21.8914 N   0  0  0  0  0  0  0  0  0  0  0  0
  -25.3800  -31.0340   18.1192 N   0  0  0  0  0  0  0  0  0  0  0  0
  -29.2855  -16.7833   19.1519 N   0  0  0  0  0  0  0  0  0  0  0  0
  -28.9708  -31.4228   18.2714 N   0  3  0  0  0  0  0  0  0  0  0  0
  -22.2338  -14.3330   20.2526 O   0  0  0  0  0  0  0  0  0  0  0  0
  -22.1172  -26.8795   21.0576 O   0  0  0  0  0  0  0  0  0  0  0  0
  -23.3442  -31.0745   20.1348 O   0  0  0  0  0  0  0  0  0  0  0  0
  -27.0347  -29.4930   17.6050 O   0  0  0  0  0  0  0  0  0  0  0  0
  -31.2490  -15.7663   18.5456 O   0  0  0  0  0  0  0  0  0  0  0  0
  -22.8558   -8.8431   25.7354 O   0  0  0  0  0  0  0  0  0  0  0  0
  -26.7884  -23.3375   20.5033 O   0  0  0  0  0  0  0  0  0  1  0  0
  -18.0405   -6.3059   24.8530 F   0  0  0  0  0  0  0  0  0  0  0  0
  -22.6803   -6.0843   25.7631 F   0  0  0  0  0  0  0  0  0  0  0  0
  1  2  1  0  0  0  0
  1  5  2  0  0  0  0
  2  6  2  0  0  0  0
  3  8  2  0  0  0  0
  3 17  1  0  0  0  0
  4  9  1  0  0  0  0
  4 17  2  0  0  0  0
  5 19  1  0  0  0  0
  6 21  1  0  0  0  0
  7 10  2  0  0  0  0
  7 20  1  0  0  0  0
  8 24  1  0  0  0  0
  9 24  2  0  0  0  0
 10 25  1  0  0  0  0
 11 12  2  0  0  0  0
 11 26  1  0  0  0  0
 12 27  1  0  0  0  0
 13 22  1  0  0  0  0
 13 25  2  0  0  0  0
 14 27  2  0  0  0  0
 14 28  1  0  0  0  0
 15 23  1  0  0  0  0
 15 60  2  0  0  0  0
 16 23  2  0  0  0  0
 16 61  1  0  0  0  0
 17 29  1  0  0  0  0
 18 29  1  0  0  0  0
 18 30  2  0  0  0  0
 18 32  1  0  0  0  0
 19 21  2  0  0  0  0
 19 37  1  0  0  0  0
 20 22  2  0  0  0  0
 20 38  1  0  0  0  0
 21 46  1  0  0  0  0
 22 39  1  0  0  0  0
 23 55  1  0  0  0  0
 24 77  1  0  0  0  0
 25 78  1  0  0  0  0
 26 28  2  0  0  0  0
 26 77  1  0  0  0  0
 27 79  1  0  0  0  0
 28 80  1  0  0  0  0
 29 62  2  0  0  0  0
 30 63  1  0  0  0  0
 30 66  1  0  0  0  0
 31 56  1  0  0  0  0
 31 60  1  0  0  0  0
 31 61  2  0  0  0  0
 32 67  1  0  0  0  0
 32 72  2  0  0  0  0
 33 47  1  0  0  0  0
 33 68  1  0  0  0  0
 33 73  2  0  0  0  0
 34 57  1  0  0  0  0
 34 64  1  0  0  0  0
 34 74  2  0  0  0  0
 35 58  1  0  0  0  0
 35 69  1  0  0  0  0
 35 75  2  0  0  0  0
 36 65  1  0  0  0  0
 36 70  1  0  0  0  0
 36 76  2  0  0  0  0
 37 40  1  0  0  0  0
 38 47  1  0  0  0  0
 39 64  1  0  0  0  0
 40 42  1  0  0  0  0
 41 43  1  0  0  0  0
 41 44  1  0  0  0  0
 42 46  1  0  0  0  0
 43 48  1  0  0  0  0
 44 65  1  0  0  0  0
 45 48  1  0  0  0  0
 45 65  1  0  0  0  0
 46 68  1  0  0  0  0
 47 64  1  0  0  0  0
 48 63  1  0  0  0  0
 49 56  1  0  0  0  0
 50 58  1  0  0  0  0
 51 59  1  0  0  0  0
 52 59  1  0  0  0  0
 53 59  1  0  0  0  0
 54 71  1  0  0  0  0
 55 78  1  0  0  0  0
 56 70  1  0  0  0  0
 57 59  1  0  0  0  0
 57 69  1  0  0  0  0
 58 71  1  0  0  0  0
 62 63  1  0  0  0  0
M  CHG  1  71   1
M  ISO  4  36 100  55 101  70 100  78 101
M  END
> <Batch ID>
0062

> <Smiles>
CNC(C)C(=O)NC(C(=O)N1Cc2cc([101O:1][101CH2:1]c3cnc(C(C)[100NH:0][100C:0](=O)N4CCCC(n5nc(-c6ccc(Oc7ccc(F)cc7F)cc6)c(C(N)=O)c5N)C4)nc3)ccc2CC1C(=O)NC1CCCc2ccccc21)C(C)(C)C

> <Shape>
0.232

> <Color>
0.124

> <Negative vol penalty>
0.000

$$$$

  -OEChem-04052318003D

 85 93  0     1  0  0  0  0  0999 V2000
  -18.9583  -22.3247   23.6080 C   0  0  0  0  0  0  0  0  0  0  0  0
  -20.2968  -22.1569   23.9478 C   0  0  0  0  0  0  0  0  0  0  0  0
  -26.2025  -12.6706   21.7203 C   0  0  0  0  0  0  0  0  0  0  0  0
  -25.5287  -13.7213   19.6516 C   0  0  0  0  0  0  0  0  0  0  0  0
  -18.6028  -23.2228   22.6025 C   0  0  0  0  0  0  0  0  0  0  0  0
  -21.2809  -22.8864   23.2815 C   0  0  0  0  0  0  0  0  0  0  0  0
  -27.6733  -25.9303   24.3713 C   0  0  0  0  0  0  0  0  0  0  0  0
  -25.0588  -11.8728   21.6876 C   0  0  0  0  0  0  0  0  0  0  0  0
  -24.3850  -12.9234   19.6190 C   0  0  0  0  0  0  0  0  0  0  0  0
  -28.9590  -25.9579   23.8327 C   0  0  0  0  0  0  0  0  0  0  0  0
  -24.0124   -9.0834   20.0885 C   0  0  0  0  0  0  0  0  0  0  0  0
  -24.1615   -7.7251   20.3683 C   0  0  0  0  0  0  0  0  0  0  0  0
  -28.2208  -27.5390   22.1670 C   0  0  0  0  0  0  0  0  0  0  0  0
  -22.6488   -7.9445   22.2394 C   0  0  0  0  0  0  0  0  0  0  0  0
  -29.2946  -24.1502   19.8891 C   0  0  0  0  0  0  0  0  0  0  0  0
  -26.4374  -13.5949   20.7023 C   0  0  0  0  0  0  0  0  0  0  0  0
  -28.8764  -14.1262   20.1766 C   0  0  0  0  0  0  0  0  0  0  0  0
  -19.5821  -23.9708   21.9302 C   0  0  0  0  0  0  0  0  0  0  0  0
  -26.6474  -26.6999   23.8041 C   0  0  0  0  0  0  0  0  0  0  0  0
  -20.9382  -23.7944   22.2652 C   0  0  0  0  0  0  0  0  0  0  0  0
  -26.9236  -27.5214   22.7019 C   0  0  0  0  0  0  0  0  0  0  0  0
  -24.1501  -11.9991   20.6370 C   0  0  0  0  0  0  0  0  0  0  0  0
  -29.2322  -26.7601   22.7286 C   0  0  0  0  0  0  0  0  0  0  0  0
  -23.1816   -9.8723   20.8842 C   0  0  0  0  0  0  0  0  0  0  0  0
  -23.4796   -7.1556   21.4437 C   0  0  0  0  0  0  0  0  0  0  0  0
  -22.4998   -9.3029   21.9596 C   0  0  0  0  0  0  0  0  0  0  0  0
  -27.6183  -14.4198   20.7358 C   0  0  0  0  0  0  0  0  0  0  0  0
  -30.6583  -24.2950   19.5711 C   0  0  0  0  0  0  0  0  0  0  0  0
  -28.9838  -22.8720   19.4941 C   0  0  0  0  0  0  0  0  0  0  0  0
  -29.6503  -15.2199   20.4790 C   0  0  0  0  0  0  0  0  0  0  0  0
  -29.3071  -12.9684   19.4488 C   0  0  0  0  0  0  0  0  0  0  0  0
  -23.8593  -26.0518   22.4220 C   0  0  0  0  0  0  0  0  0  0  0  0
  -23.5359  -29.2793   22.4539 C   0  0  0  0  0  0  0  0  0  0  0  0
  -25.0404  -32.3410   22.5485 C   0  0  0  0  0  0  0  0  0  0  0  0
  -28.3396  -20.9433   21.6519 C   0  0  0  0  0  0  0  0  0  0  0  0
  -19.1534  -24.8947   20.8179 C   0  0  0  0  0  0  0  0  0  0  0  0
  -25.2723  -26.6795   24.4133 C   0  0  0  0  0  0  0  0  0  0  0  0
  -25.8622  -28.3820   22.0685 C   0  0  0  0  0  0  0  0  0  0  0  0
  -20.2256  -25.9050   20.4179 C   0  0  0  0  0  0  0  0  0  0  0  0
  -30.1245  -18.6834   23.7456 C   0  0  0  0  0  0  0  0  0  0  0  0
  -21.5769  -25.2151   20.2603 C   0  0  0  0  0  0  0  0  0  0  0  0
  -29.7981  -17.3079   23.1612 C   0  0  0  0  0  0  0  0  0  0  0  0
  -28.9275  -19.6283   23.6673 C   0  0  0  0  0  0  0  0  0  0  0  0
  -28.0130  -18.3973   21.7381 C   0  0  0  0  0  0  0  0  0  0  0  0
  -22.0326  -24.5858   21.5824 C   0  0  1  0  0  0  0  0  0  0  0  0
  -24.1806  -27.1104   23.4387 C   0  0  1  0  0  0  0  0  0  0  0  0
  -29.2066  -17.4270   21.7437 C   0  0  2  0  0  0  0  0  0  0  0  0
  -24.5164  -34.7950   22.5236 C   0  0  0  0  0  0  0  0  0  0  0  0
  -31.3223  -20.2042   19.2505 C   0  0  0  0  0  0  0  0  0  0  0  0
  -30.6955  -21.0650   16.9544 C   0  0  0  0  0  0  0  0  0  0  0  0
  -27.1355  -21.6258   18.1903 C   0  0  0  0  0  0  0  0  0  0  0  0
  -26.5868  -22.9754   20.2113 C   0  0  0  0  0  0  0  0  0  0  0  0
  -22.9821  -29.1282   19.4572 C   0  0  0  0  0  0  0  0  0  0  0  0
  -23.4104  -31.5913   19.3245 C   0  0  0  0  0  0  0  0  0  0  0  0
  -21.5229  -30.7281   20.7083 C   0  0  0  0  0  0  0  0  0  0  0  0
  -26.2688  -32.7485   25.2101 C   0  0  0  0  0  0  0  0  0  0  0  0
  -31.5281  -25.5078   19.7860 C   0  0  0  0  0  0  0  0  0  0  0  0
  -32.2327  -25.5275   21.1442 C   0  0  0  0  0  0  0  0  0  0  0  0
  -31.2694  -25.6019   22.3232 C   0  0  0  0  0  0  0  0  0  1  0  0
  -23.8984  -30.3994   21.5090 C   0  0  1  0  0  0  0  0  0  0  0  0
  -24.7663  -33.5724   23.3929 C   0  0  2  0  0  0  0  0  0  0  0  0
  -30.3198  -21.0249   18.4368 C   0  0  0  0  0  0  0  0  0  0  0  0
  -27.7173  -22.1198   19.5572 C   0  0  0  0  0  0  0  0  0  0  0  0
  -22.9732  -30.4442   20.2602 C   0  0  0  0  0  0  0  0  0  0  0  0
  -27.5902  -15.6069   21.3473 N   0  0  0  0  0  0  0  0  0  0  0  0
  -31.1780  -23.1965   19.0169 N   0  0  0  0  0  0  0  0  0  0  0  0
  -30.1354  -22.3491   18.9836 N   0  0  0  0  0  0  0  0  0  0  0  0
  -28.8402  -16.0689   21.1742 N   0  0  0  0  0  0  0  0  0  0  0  0
  -24.5319  -28.3228   22.6964 N   0  0  0  0  0  0  0  0  0  0  0  0
  -28.4151  -19.6977   22.2967 N   0  0  0  0  0  0  0  0  0  0  0  0
  -30.9378  -15.5286   20.2156 N   0  0  0  0  0  0  0  0  0  0  0  0
  -28.3841  -11.9373   19.2267 N   0  0  0  0  0  0  0  0  0  0  0  0
  -22.5540  -25.6012   22.4722 N   0  0  0  0  0  0  0  0  0  0  0  0
  -23.8891  -31.6229   22.3037 N   0  0  0  0  0  0  0  0  0  0  0  0
  -27.8485  -20.9192   20.3523 N   0  0  0  0  0  0  0  0  0  0  0  0
  -25.9262  -33.8583   24.2839 N   0  3  0  0  0  0  0  0  0  0  0  0
  -30.4804  -12.8444   19.0227 O   0  0  0  0  0  0  0  0  0  0  0  0
  -24.7308  -25.6730   21.6482 O   0  0  0  0  0  0  0  0  0  0  0  0
  -22.4128  -29.2578   22.9637 O   0  0  0  0  0  0  0  0  0  0  0  0
  -26.1631  -32.0476   22.1433 O   0  0  0  0  0  0  0  0  0  0  0  0
  -28.6893  -21.9981   22.1924 O   0  0  0  0  0  0  0  0  0  0  0  0
  -23.0341  -11.2206   20.6046 O   0  0  0  0  0  0  0  0  0  0  0  0
  -30.4861  -26.7884   22.2006 O   0  0  0  0  0  0  0  0  0  1  0  0
  -23.6216   -5.8508   21.7113 F   0  0  0  0  0  0  0  0  0  0  0  0
  -21.6993  -10.0555   22.7268 F   0  0  0  0  0  0  0  0  0  0  0  0
  1  2  1  0  0  0  0
  1  5  2  0  0  0  0
  2  6  2  0  0  0  0
  3  8  2  0  0  0  0
  3 16  1  0  0  0  0
  4  9  1  0  0  0  0
  4 16  2  0  0  0  0
  5 18  1  0  0  0  0
  6 20  1  0  0  0  0
  7 10  2  0  0  0  0
  7 19  1  0  0  0  0
  8 22  1  0  0  0  0
  9 22  2  0  0  0  0
 10 23  1  0  0  0  0
 11 12  2  0  0  0  0
 11 24  1  0  0  0  0
 12 25  1  0  0  0  0
 13 21  1  0  0  0  0
 13 23  2  0  0  0  0
 14 25  2  0  0  0  0
 14 26  1  0  0  0  0
 15 28  1  0  0  0  0
 15 29  2  0  0  0  0
 16 27  1  0  0  0  0
 17 27  1  0  0  0  0
 17 30  2  0  0  0  0
 17 31  1  0  0  0  0
 18 20  2  0  0  0  0
 18 36  1  0  0  0  0
 19 21  2  0  0  0  0
 19 37  1  0  0  0  0
 20 45  1  0  0  0  0
 21 38  1  0  0  0  0
 22 82  1  0  0  0  0
 23 83  1  0  0  0  0
 24 26  2  0  0  0  0
 24 82  1  0  0  0  0
 25 84  1  0  0  0  0
 26 85  1  0  0  0  0
 27 65  2  0  0  0  0
 28 57  1  0  0  0  0
 28 66  2  0  0  0  0
 29 63  1  0  0  0  0
 29 67  1  0  0  0  0
 30 68  1  0  0  0  0
 30 71  1  0  0  0  0
 31 72  1  0  0  0  0
 31 77  2  0  0  0  0
 32 46  1  0  0  0  0
 32 73  1  0  0  0  0
 32 78  2  0  0  0  0
 33 60  1  0  0  0  0
 33 69  1  0  0  0  0
 33 79  2  0  0  0  0
 34 61  1  0  0  0  0
 34 74  1  0  0  0  0
 34 80  2  0  0  0  0
 35 70  1  0  0  0  0
 35 75  1  0  0  0  0
 35 81  2  0  0  0  0
 36 39  1  0  0  0  0
 37 46  1  0  0  0  0
 38 69  1  0  0  0  0
 39 41  1  0  0  0  0
 40 42  1  0  0  0  0
 40 43  1  0  0  0  0
 41 45  1  0  0  0  0
 42 47  1  0  0  0  0
 43 70  1  0  0  0  0
 44 47  1  0  0  0  0
 44 70  1  0  0  0  0
 45 73  1  0  0  0  0
 46 69  1  0  0  0  0
 47 68  1  0  0  0  0
 48 61  1  0  0  0  0
 49 62  1  0  0  0  0
 50 62  1  0  0  0  0
 51 63  1  0  0  0  0
 52 63  1  0  0  0  0
 53 64  1  0  0  0  0
 54 64  1  0  0  0  0
 55 64  1  0  0  0  0
 56 76  1  0  0  0  0
 57 58  1  0  0  0  0
 58 59  1  0  0  0  0
 59 83  1  0  0  0  0
 60 64  1  0  0  0  0
 60 74  1  0  0  0  0
 61 76  1  0  0  0  0
 62 67  1  0  0  0  0
 63 75  1  0  0  0  0
 65 68  1  0  0  0  0
 66 67  1  0  0  0  0
M  CHG  1  76   1
M  ISO  4  35 100  59 101  75 100  83 101
M  END
> <Batch ID>
0062

> <Smiles>
CNC(C)C(=O)NC(C(=O)N1Cc2cc([101O:1][101CH2:1]CCc3cc(C(C)(C)[100NH:0][100C:0](=O)N4CCCC(n5nc(-c6ccc(Oc7ccc(F)cc7F)cc6)c(C(N)=O)c5N)C4)n(C(C)C)n3)ccc2CC1C(=O)NC1CCCc2ccccc21)C(C)(C)C

> <Shape>
0.267

> <Color>
0.055

> <Negative vol penalty>
0.000

$$$$

  -OEChem-04052318003D

 95104  0     1  0  0  0  0  0999 V2000
  -28.3336  -37.2541   24.6319 C   0  0  0  0  0  0  0  0  0  0  0  0
  -28.8653  -36.1463   23.9796 C   0  0  0  0  0  0  0  0  0  0  0  0
  -22.4066   -2.6096   20.8764 C   0  0  0  0  0  0  0  0  0  0  0  0
  -22.7475   -3.2491   18.5716 C   0  0  0  0  0  0  0  0  0  0  0  0
  -27.1073  -37.1534   25.2875 C   0  0  0  0  0  0  0  0  0  0  0  0
  -28.1714  -34.9368   23.9835 C   0  0  0  0  0  0  0  0  0  0  0  0
  -26.9808  -29.1703   19.9034 C   0  0  0  0  0  0  0  0  0  0  0  0
  -21.6476   -1.5158   20.4607 C   0  0  0  0  0  0  0  0  0  0  0  0
  -21.9884   -2.1551   18.1559 C   0  0  0  0  0  0  0  0  0  0  0  0
  -27.0377  -27.7786   19.9628 C   0  0  0  0  0  0  0  0  0  0  0  0
  -20.4418    0.6735   16.4751 C   0  0  0  0  0  0  0  0  0  0  0  0
  -20.9330    1.4408   15.4189 C   0  0  0  0  0  0  0  0  0  0  0  0
  -24.8900  -27.7436   21.0607 C   0  0  0  0  0  0  0  0  0  0  0  0
  -22.9156    1.9423   16.7054 C   0  0  0  0  0  0  0  0  0  0  0  0
  -27.1068  -16.4700   19.8482 C   0  0  0  0  0  0  0  0  0  0  0  0
  -22.9565   -3.4764   19.9318 C   0  0  0  0  0  0  0  0  0  0  0  0
  -25.1309   -4.6444   20.5765 C   0  0  0  0  0  0  0  0  0  0  0  0
  -26.3934  -35.9447   25.2912 C   0  0  0  0  0  0  0  0  0  0  0  0
  -25.8812  -29.8610   20.4329 C   0  0  0  0  0  0  0  0  0  0  0  0
  -26.9350  -34.8195   24.6409 C   0  0  0  0  0  0  0  0  0  0  0  0
  -24.8204  -29.1440   21.0045 C   0  0  0  0  0  0  0  0  0  0  0  0
  -21.4385   -1.2885   19.1004 C   0  0  0  0  0  0  0  0  0  0  0  0
  -25.9936  -27.0651   20.5441 C   0  0  0  0  0  0  0  0  0  0  0  0
  -21.1875    0.5405   17.6464 C   0  0  0  0  0  0  0  0  0  0  0  0
  -22.1699    2.0752   15.5341 C   0  0  0  0  0  0  0  0  0  0  0  0
  -22.4244    1.1750   17.7616 C   0  0  0  0  0  0  0  0  0  0  0  0
  -23.7403   -4.6069   20.3607 C   0  0  0  0  0  0  0  0  0  0  0  0
  -28.2545  -17.0559   20.3026 C   0  0  0  0  0  0  0  0  0  0  0  0
  -25.3823   -5.9358   20.9711 C   0  0  0  0  0  0  0  0  0  0  0  0
  -28.4471  -14.8683   20.5820 C   0  0  0  0  0  0  0  0  0  0  0  0
  -26.1080   -3.6050   20.4331 C   0  0  0  0  0  0  0  0  0  0  0  0
  -25.4791  -31.9970   22.7523 C   0  0  0  0  0  0  0  0  0  0  0  0
  -22.4387  -32.0718   21.6241 C   0  0  0  0  0  0  0  0  0  0  0  0
  -19.9363  -30.4834   19.9325 C   0  0  0  0  0  0  0  0  0  0  0  0
  -24.8138  -11.2668   20.5037 C   0  0  0  0  0  0  0  0  0  0  0  0
  -25.0941  -35.8714   26.0535 C   0  0  0  0  0  0  0  0  0  0  0  0
  -25.8227  -31.3609   20.3370 C   0  0  0  0  0  0  0  0  0  0  0  0
  -23.6081  -29.8369   21.5691 C   0  0  0  0  0  0  0  0  0  0  0  0
  -24.2439  -34.6560   25.6926 C   0  0  0  0  0  0  0  0  0  0  0  0
  -22.2389   -9.6549   22.3047 C   0  0  0  0  0  0  0  0  0  0  0  0
  -25.1006  -33.3943   25.6654 C   0  0  0  0  0  0  0  0  0  0  0  0
  -22.5073   -8.1885   21.9694 C   0  0  0  0  0  0  0  0  0  0  0  0
  -28.7316  -19.0742   18.9475 C   0  0  0  0  0  0  0  0  0  0  0  0
  -27.7142  -19.2800   21.2517 C   0  0  0  0  0  0  0  0  0  0  0  0
  -22.4466  -10.5683   21.0952 C   0  0  0  0  0  0  0  0  0  0  0  0
  -24.0382   -8.9475   20.1142 C   0  0  0  0  0  0  0  0  0  0  0  0
  -29.0944  -20.5532   18.9862 C   0  0  0  0  0  0  0  0  0  0  0  0
  -28.0851  -20.7573   21.2729 C   0  0  0  0  0  0  0  0  0  0  0  0
  -26.2004  -33.4970   24.6017 C   0  0  1  0  0  0  0  0  0  0  0  0
  -28.6705  -18.4713   20.3603 C   0  0  0  0  0  0  0  0  0  0  0  0
  -24.8918  -31.9897   21.3693 C   0  0  1  0  0  0  0  0  0  0  0  0
  -23.8949   -8.0159   21.3276 C   0  0  2  0  0  0  0  0  0  0  0  0
  -29.4658  -12.8721   18.5385 C   0  0  0  0  0  0  0  0  0  0  0  0
  -17.5532  -30.7807   19.2045 C   0  0  0  0  0  0  0  0  0  0  0  0
  -21.5009  -31.5098   24.4728 C   0  0  0  0  0  0  0  0  0  0  0  0
  -19.2644  -30.8827   23.5385 C   0  0  0  0  0  0  0  0  0  0  0  0
  -20.1335  -33.2017   23.2390 C   0  0  0  0  0  0  0  0  0  0  0  0
  -27.2424  -25.4731   18.5722 C   0  0  0  0  0  0  0  0  0  0  0  0
  -28.4158  -25.6809   20.7715 C   0  0  0  0  0  0  0  0  0  0  0  0
  -25.8094  -22.9544   19.6482 C   0  0  0  0  0  0  0  0  0  0  0  0
  -23.2508  -13.1701   19.9216 C   0  0  0  0  0  0  0  0  0  0  0  0
  -20.6631  -30.2783   17.0709 C   0  0  0  0  0  0  0  0  0  0  0  0
  -29.0033  -13.5410   20.9452 C   0  0  0  0  0  0  0  0  0  0  0  0
  -30.0506  -13.0482   19.9310 C   0  0  0  0  0  0  0  0  0  0  0  0
  -26.2649  -14.1155   19.6839 C   0  0  0  0  0  0  0  0  0  0  0  0
  -25.4769  -13.6098   20.8895 C   0  0  0  0  0  0  0  0  0  0  0  0
  -28.3415  -22.7754   19.8315 C   0  0  0  0  0  0  0  0  0  0  0  0
  -21.1695  -31.3098   21.9201 C   0  0  1  0  0  0  0  0  0  0  0  0
  -19.0148  -30.9540   18.8217 C   0  0  2  0  0  0  0  0  0  0  0  0
  -20.5407  -31.7128   23.2838 C   0  0  0  0  0  0  0  0  0  0  0  0
  -27.2023  -25.0771   20.0517 C   0  0  0  0  0  0  0  0  0  1  0  0
  -27.0833  -23.5374   20.2756 C   0  0  1  0  0  0  0  0  0  0  0  0
  -23.1496   -5.7810   20.5985 N   0  0  0  0  0  0  0  0  0  0  0  0
  -27.2537  -15.1163   20.0327 N   0  0  0  0  0  0  0  0  0  0  0  0
  -24.1740   -6.5684   20.9680 N   0  0  0  0  0  0  0  0  0  0  0  0
  -29.0656  -16.0414   20.7510 N   0  3  0  0  0  0  0  0  0  0  0  0
  -23.6005  -31.3049   21.4573 N   0  0  0  0  0  0  0  0  0  0  0  0
  -23.7631  -10.3378   20.4848 N   0  0  0  0  0  0  0  0  0  0  0  0
  -26.5168   -6.5804   21.3170 N   0  0  0  0  0  0  0  0  0  0  0  0
  -25.6785   -2.3369   20.0186 N   0  0  0  0  0  0  0  0  0  0  0  0
  -25.6521  -33.2609   23.2834 N   0  0  0  0  0  0  0  0  0  0  0  0
  -20.2922  -31.5169   20.7730 N   0  0  0  0  0  0  0  0  0  0  0  0
  -24.4687  -12.6265   20.5194 N   0  0  0  0  0  0  0  0  0  0  0  0
  -28.1107  -21.3076   19.8599 N   0  3  0  0  0  0  0  0  0  0  0  0
  -19.2690  -30.1788   17.5745 N   0  3  0  0  0  0  0  0  0  0  0  0
  -27.3234   -3.7907   20.6815 O   0  0  0  0  0  0  0  0  0  0  0  0
  -25.7535  -30.9345   23.2977 O   0  0  0  0  0  0  0  0  0  0  0  0
  -22.3993  -33.3016   21.5369 O   0  0  0  0  0  0  0  0  0  0  0  0
  -20.3007  -29.3151   20.0456 O   0  0  0  0  0  0  0  0  0  0  0  0
  -25.9968  -10.9026   20.4986 O   0  0  0  0  0  0  0  0  0  0  0  0
  -20.6981   -0.2210   18.6944 O   0  0  0  0  0  0  0  0  0  0  0  0
  -26.0469  -25.7067   20.6039 O   0  0  0  0  0  0  0  0  0  1  0  0
  -22.6407    2.8133   14.5203 F   0  0  0  0  0  0  0  0  0  0  0  0
  -23.1448    1.0519   18.8848 F   0  0  0  0  0  0  0  0  0  0  0  0
  -26.9613  -23.3487   21.6320 F   0  0  0  0  0  0  0  0  0  0  0  0
  1  2  1  0  0  0  0
  1  5  2  0  0  0  0
  2  6  2  0  0  0  0
  3  8  2  0  0  0  0
  3 16  1  0  0  0  0
  4  9  1  0  0  0  0
  4 16  2  0  0  0  0
  5 18  1  0  0  0  0
  6 20  1  0  0  0  0
  7 10  2  0  0  0  0
  7 19  1  0  0  0  0
  8 22  1  0  0  0  0
  9 22  2  0  0  0  0
 10 23  1  0  0  0  0
 11 12  2  0  0  0  0
 11 24  1  0  0  0  0
 12 25  1  0  0  0  0
 13 21  1  0  0  0  0
 13 23  2  0  0  0  0
 14 25  2  0  0  0  0
 14 26  1  0  0  0  0
 15 28  2  0  0  0  0
 15 74  1  0  0  0  0
 16 27  1  0  0  0  0
 17 27  1  0  0  0  0
 17 29  2  0  0  0  0
 17 31  1  0  0  0  0
 18 20  2  0  0  0  0
 18 36  1  0  0  0  0
 19 21  2  0  0  0  0
 19 37  1  0  0  0  0
 20 49  1  0  0  0  0
 21 38  1  0  0  0  0
 22 91  1  0  0  0  0
 23 92  1  0  0  0  0
 24 26  2  0  0  0  0
 24 91  1  0  0  0  0
 25 93  1  0  0  0  0
 26 94  1  0  0  0  0
 27 73  2  0  0  0  0
 28 50  1  0  0  0  0
 28 76  1  0  0  0  0
 29 75  1  0  0  0  0
 29 79  1  0  0  0  0
 30 63  1  0  0  0  0
 30 74  1  0  0  0  0
 30 76  2  0  0  0  0
 31 80  1  0  0  0  0
 31 86  2  0  0  0  0
 32 51  1  0  0  0  0
 32 81  1  0  0  0  0
 32 87  2  0  0  0  0
 33 68  1  0  0  0  0
 33 77  1  0  0  0  0
 33 88  2  0  0  0  0
 34 69  1  0  0  0  0
 34 82  1  0  0  0  0
 34 89  2  0  0  0  0
 35 78  1  0  0  0  0
 35 83  1  0  0  0  0
 35 90  2  0  0  0  0
 36 39  1  0  0  0  0
 37 51  1  0  0  0  0
 38 77  1  0  0  0  0
 39 41  1  0  0  0  0
 40 42  1  0  0  0  0
 40 45  1  0  0  0  0
 41 49  1  0  0  0  0
 42 52  1  0  0  0  0
 43 47  1  0  0  0  0
 43 50  1  0  0  0  0
 44 48  1  0  0  0  0
 44 50  1  0  0  0  0
 45 78  1  0  0  0  0
 46 52  1  0  0  0  0
 46 78  1  0  0  0  0
 47 84  1  0  0  0  0
 48 84  1  0  0  0  0
 49 81  1  0  0  0  0
 51 77  1  0  0  0  0
 52 75  1  0  0  0  0
 53 64  1  0  0  0  0
 54 69  1  0  0  0  0
 55 70  1  0  0  0  0
 56 70  1  0  0  0  0
 57 70  1  0  0  0  0
 58 71  1  0  0  0  0
 59 71  1  0  0  0  0
 60 72  1  0  0  0  0
 61 83  1  0  0  0  0
 62 85  1  0  0  0  0
 63 64  1  0  0  0  0
 65 66  1  0  0  0  0
 65 74  1  0  0  0  0
 66 83  1  0  0  0  0
 67 72  1  0  0  0  0
 67 84  1  0  0  0  0
 68 70  1  0  0  0  0
 68 82  1  0  0  0  0
 69 85  1  0  0  0  0
 71 72  1  0  0  0  0
 71 92  1  0  0  0  0
 72 95  1  0  0  0  0
 73 75  1  0  0  0  0
M  CHG  3  76   1  84   1  85   1
M  ISO  4  35 100  71 101  83 100  92 101
M  END
> <Batch ID>
0062

> <Smiles>
CCCc1nc(C2CCN(CC(C)(F)[101C:1](C)(C)[101O:1]c3ccc4c(c3)CN(C(=O)C(NC(=O)C(C)NC)C(C)(C)C)C(C(=O)NC3CCCc5ccccc53)C4)CC2)cn1CC[100N:0](C)[100C:0](=O)N1CCCC(n2nc(-c3ccc(Oc4ccc(F)cc4F)cc3)c(C(N)=O)c2N)C1

> <Shape>
0.260

> <Color>
0.062

> <Negative vol penalty>
0.000

$$$$

  -OEChem-04052318003D

 88 96  0     1  0  0  0  0  0999 V2000
  -27.5903  -37.5702   26.1548 C   0  0  0  0  0  0  0  0  0  0  0  0
  -28.3192  -36.6543   25.4030 C   0  0  0  0  0  0  0  0  0  0  0  0
  -24.6658   -8.5032   21.3774 C   0  0  0  0  0  0  0  0  0  0  0  0
  -23.2161  -10.4283   21.5493 C   0  0  0  0  0  0  0  0  0  0  0  0
  -26.3428  -37.2149   26.6660 C   0  0  0  0  0  0  0  0  0  0  0  0
  -27.8014  -35.3820   25.1629 C   0  0  0  0  0  0  0  0  0  0  0  0
  -27.7405  -30.2267   20.1894 C   0  0  0  0  0  0  0  0  0  0  0  0
  -23.9216   -7.8548   22.3630 C   0  0  0  0  0  0  0  0  0  0  0  0
  -22.4719   -9.7799   22.5348 C   0  0  0  0  0  0  0  0  0  0  0  0
  -27.9850  -28.8612   20.0505 C   0  0  0  0  0  0  0  0  0  0  0  0
  -20.9872   -6.1884   22.5762 C   0  0  0  0  0  0  0  0  0  0  0  0
  -20.6430   -4.8547   22.3563 C   0  0  0  0  0  0  0  0  0  0  0  0
  -25.7845  -28.3852   20.9169 C   0  0  0  0  0  0  0  0  0  0  0  0
  -21.8397   -4.2161   24.3556 C   0  0  0  0  0  0  0  0  0  0  0  0
  -28.7810  -22.7101   20.6929 C   0  0  0  0  0  0  0  0  0  0  0  0
  -24.3131   -9.7900   20.9706 C   0  0  0  0  0  0  0  0  0  0  0  0
  -24.8668  -10.4230   18.5622 C   0  0  0  0  0  0  0  0  0  0  0  0
  -25.8052  -35.9409   26.4239 C   0  0  0  0  0  0  0  0  0  0  0  0
  -26.5182  -30.6822   20.7041 C   0  0  0  0  0  0  0  0  0  0  0  0
  -26.5461  -35.0089   25.6724 C   0  0  0  0  0  0  0  0  0  0  0  0
  -25.5260  -29.7571   21.0589 C   0  0  0  0  0  0  0  0  0  0  0  0
  -28.6725  -22.0479   19.4871 C   0  0  0  0  0  0  0  0  0  0  0  0
  -22.8246   -8.4931   22.9417 C   0  0  0  0  0  0  0  0  0  0  0  0
  -27.0081  -27.9401   20.4170 C   0  0  0  0  0  0  0  0  0  0  0  0
  -21.7578   -6.5359   23.6858 C   0  0  0  0  0  0  0  0  0  0  0  0
  -21.0692   -3.8685   23.2460 C   0  0  0  0  0  0  0  0  0  0  0  0
  -22.1840   -5.5498   24.5755 C   0  0  0  0  0  0  0  0  0  0  0  0
  -25.0818  -10.4605   19.9530 C   0  0  0  0  0  0  0  0  0  0  0  0
  -28.5083  -22.8514   18.3773 C   0  0  0  0  0  0  0  0  0  0  0  0
  -25.8583  -11.2173   18.0400 C   0  0  0  0  0  0  0  0  0  0  0  0
  -28.5710  -24.7253   19.6625 C   0  0  0  0  0  0  0  0  0  0  0  0
  -23.8608   -9.7321   17.8097 C   0  0  0  0  0  0  0  0  0  0  0  0
  -25.6459  -32.3591   23.2597 C   0  0  0  0  0  0  0  0  0  0  0  0
  -22.7208  -32.2293   21.8635 C   0  0  0  0  0  0  0  0  0  0  0  0
  -20.6010  -30.6264   19.7225 C   0  0  0  0  0  0  0  0  0  0  0  0
  -29.0603  -15.7496   20.2885 C   0  0  0  0  0  0  0  0  0  0  0  0
  -24.4736  -35.5864   27.0370 C   0  0  0  0  0  0  0  0  0  0  0  0
  -26.2599  -32.1593   20.8227 C   0  0  0  0  0  0  0  0  0  0  0  0
  -24.1895  -30.1952   21.5976 C   0  0  0  0  0  0  0  0  0  0  0  0
  -23.8305  -34.3462   26.4216 C   0  0  0  0  0  0  0  0  0  0  0  0
  -30.3168  -12.7096   18.9261 C   0  0  0  0  0  0  0  0  0  0  0  0
  -24.8534  -33.2218   26.2945 C   0  0  0  0  0  0  0  0  0  0  0  0
  -29.0982  -11.7851   18.9093 C   0  0  0  0  0  0  0  0  0  0  0  0
  -30.3178  -13.6197   20.1524 C   0  0  0  0  0  0  0  0  0  0  0  0
  -27.8637  -13.4774   20.3273 C   0  0  0  0  0  0  0  0  0  0  0  0
  -26.0072  -33.6276   25.3695 C   0  0  1  0  0  0  0  0  0  0  0  0
  -25.1739  -32.4962   21.8398 C   0  0  1  0  0  0  0  0  0  0  0  0
  -27.7894  -12.5793   19.0806 C   0  0  2  0  0  0  0  0  0  0  0  0
  -18.2631  -30.7340   18.8167 C   0  0  0  0  0  0  0  0  0  0  0  0
  -26.2881  -17.9357   18.2715 C   0  0  0  0  0  0  0  0  0  0  0  0
  -21.6527  -31.1130   24.4946 C   0  0  0  0  0  0  0  0  0  0  0  0
  -19.6036  -30.3658   23.2652 C   0  0  0  0  0  0  0  0  0  0  0  0
  -20.1634  -32.7933   23.3932 C   0  0  0  0  0  0  0  0  0  0  0  0
  -21.5682  -30.9670   16.9462 C   0  0  0  0  0  0  0  0  0  0  0  0
  -26.3943  -20.3086   20.2363 C   0  0  0  0  0  0  0  0  0  0  0  0
  -28.7313  -20.5657   19.4158 C   0  0  0  0  0  0  0  0  0  0  0  0
  -28.5151  -26.2215   19.7603 C   0  0  0  0  0  0  0  0  0  1  0  0
  -27.6625  -17.7962   20.4186 C   0  0  0  0  0  0  0  0  0  0  0  0
  -21.5505  -31.2774   21.9200 C   0  0  1  0  0  0  0  0  0  0  0  0
  -19.7118  -31.1469   18.6076 C   0  0  2  0  0  0  0  0  0  0  0  0
  -27.5071  -18.4304   19.0381 C   0  0  2  0  0  0  0  0  0  0  0  0
  -28.3800  -22.2450   17.0189 C   0  0  0  0  0  0  0  0  0  0  0  0
  -20.7684  -31.3788   23.2599 C   0  0  0  0  0  0  0  0  0  0  0  0
  -28.7344  -24.0527   20.8176 N   0  0  0  0  0  0  0  0  0  0  0  0
  -26.1278  -11.2184   20.2928 N   0  0  0  0  0  0  0  0  0  0  0  0
  -28.4528  -24.1985   18.4288 N   0  0  0  0  0  0  0  0  0  0  0  0
  -26.5790  -11.6645   19.1081 N   0  0  0  0  0  0  0  0  0  0  0  0
  -23.9871  -31.6498   21.7007 N   0  0  0  0  0  0  0  0  0  0  0  0
  -29.0496  -14.3454   20.2559 N   0  0  0  0  0  0  0  0  0  0  0  0
  -26.1752  -11.5697   16.7760 N   0  0  0  0  0  0  0  0  0  0  0  0
  -22.9193   -8.9602   18.5040 N   0  0  0  0  0  0  0  0  0  0  0  0
  -25.6005  -33.5352   23.9837 N   0  0  0  0  0  0  0  0  0  0  0  0
  -20.7442  -31.5511   20.7353 N   0  0  0  0  0  0  0  0  0  0  0  0
  -27.8149  -16.3587   20.3812 N   0  0  0  0  0  0  0  0  0  0  0  0
  -20.1666  -30.6158   17.2916 N   0  3  0  0  0  0  0  0  0  0  0  0
  -27.4037  -19.9256   19.1863 N   0  3  1  0  0  0  0  0  0  0  0  0
  -23.8086   -9.7841   16.5574 O   0  0  0  0  0  0  0  0  0  0  0  0
  -26.0220  -31.2668   23.6686 O   0  0  0  0  0  0  0  0  0  0  0  0
  -22.5182  -33.4428   21.9530 O   0  0  0  0  0  0  0  0  0  0  0  0
  -21.1139  -29.5098   19.6991 O   0  0  0  0  0  0  0  0  0  0  0  0
  -30.1023  -16.4116   20.2332 O   0  0  0  0  0  0  0  0  0  0  0  0
  -22.0980   -7.8606   23.9032 O   0  0  0  0  0  0  0  0  0  0  0  0
  -27.2444  -26.6067   20.2830 O   0  0  0  0  0  0  0  0  0  1  0  0
  -20.7373   -2.5881   23.0355 F   0  0  0  0  0  0  0  0  0  0  0  0
  -22.9235   -5.8778   25.6438 F   0  0  0  0  0  0  0  0  0  0  0  0
  -28.4427  -20.8812   17.0219 F   0  0  0  0  0  0  0  0  0  0  0  0
  -27.2034  -22.5474   16.3960 F   0  0  0  0  0  0  0  0  0  0  0  0
  -29.3632  -22.6562   16.1672 F   0  0  0  0  0  0  0  0  0  0  0  0
  1  2  1  0  0  0  0
  1  5  2  0  0  0  0
  2  6  2  0  0  0  0
  3  8  2  0  0  0  0
  3 16  1  0  0  0  0
  4  9  1  0  0  0  0
  4 16  2  0  0  0  0
  5 18  1  0  0  0  0
  6 20  1  0  0  0  0
  7 10  2  0  0  0  0
  7 19  1  0  0  0  0
  8 23  1  0  0  0  0
  9 23  2  0  0  0  0
 10 24  1  0  0  0  0
 11 12  2  0  0  0  0
 11 25  1  0  0  0  0
 12 26  1  0  0  0  0
 13 21  1  0  0  0  0
 13 24  2  0  0  0  0
 14 26  2  0  0  0  0
 14 27  1  0  0  0  0
 15 22  1  0  0  0  0
 15 64  2  0  0  0  0
 16 28  1  0  0  0  0
 17 28  1  0  0  0  0
 17 30  2  0  0  0  0
 17 32  1  0  0  0  0
 18 20  2  0  0  0  0
 18 37  1  0  0  0  0
 19 21  2  0  0  0  0
 19 38  1  0  0  0  0
 20 46  1  0  0  0  0
 21 39  1  0  0  0  0
 22 29  2  0  0  0  0
 22 56  1  0  0  0  0
 23 82  1  0  0  0  0
 24 83  1  0  0  0  0
 25 27  2  0  0  0  0
 25 82  1  0  0  0  0
 26 84  1  0  0  0  0
 27 85  1  0  0  0  0
 28 65  2  0  0  0  0
 29 62  1  0  0  0  0
 29 66  1  0  0  0  0
 30 67  1  0  0  0  0
 30 70  1  0  0  0  0
 31 57  1  0  0  0  0
 31 64  1  0  0  0  0
 31 66  2  0  0  0  0
 32 71  1  0  0  0  0
 32 77  2  0  0  0  0
 33 47  1  0  0  0  0
 33 72  1  0  0  0  0
 33 78  2  0  0  0  0
 34 59  1  0  0  0  0
 34 68  1  0  0  0  0
 34 79  2  0  0  0  0
 35 60  1  0  0  0  0
 35 73  1  0  0  0  0
 35 80  2  0  0  0  0
 36 69  1  0  0  0  0
 36 74  1  0  0  0  0
 36 81  2  0  0  0  0
 37 40  1  0  0  0  0
 38 47  1  0  0  0  0
 39 68  1  0  0  0  0
 40 42  1  0  0  0  0
 41 43  1  0  0  0  0
 41 44  1  0  0  0  0
 42 46  1  0  0  0  0
 43 48  1  0  0  0  0
 44 69  1  0  0  0  0
 45 48  1  0  0  0  0
 45 69  1  0  0  0  0
 46 72  1  0  0  0  0
 47 68  1  0  0  0  0
 48 67  1  0  0  0  0
 49 60  1  0  0  0  0
 50 61  1  0  0  0  0
 51 63  1  0  0  0  0
 52 63  1  0  0  0  0
 53 63  1  0  0  0  0
 54 75  1  0  0  0  0
 55 76  1  0  0  0  0
 56 76  1  0  0  0  0
 57 83  1  0  0  0  0
 58 61  1  0  0  0  0
 58 74  1  0  0  0  0
 59 63  1  0  0  0  0
 59 73  1  0  0  0  0
 60 75  1  0  0  0  0
 61 76  1  0  0  0  0
 62 86  1  0  0  0  0
 62 87  1  0  0  0  0
 62 88  1  0  0  0  0
 65 67  1  0  0  0  0
M  CHG  2  75   1  76   1
M  ISO  4  36 100  57 101  74 100  83 101
M  END
> <Batch ID>
0062

> <Smiles>
CNC(C)C(=O)NC(C(=O)N1Cc2cc([101O:1][101CH2:1]c3ncc(CN(C)C(C)C[100NH:0][100C:0](=O)N4CCCC(n5nc(-c6ccc(Oc7ccc(F)cc7F)cc6)c(C(N)=O)c5N)C4)c(C(F)(F)F)n3)ccc2CC1C(=O)NC1CCCc2ccccc21)C(C)(C)C

> <Shape>
0.302

> <Color>
0.091

> <Negative vol penalty>
0.000

$$$$

  -OEChem-04052318003D

 83 91  0     1  0  0  0  0  0999 V2000
  -31.0636  -23.4773   18.4096 C   0  0  0  0  0  0  0  0  0  0  0  0
  -29.8563  -23.3947   19.0958 C   0  0  0  0  0  0  0  0  0  0  0  0
  -26.8586  -13.2735   19.3388 C   0  0  0  0  0  0  0  0  0  0  0  0
  -25.2988  -13.9149   21.0687 C   0  0  0  0  0  0  0  0  0  0  0  0
  -31.9587  -24.5067   18.6975 C   0  0  0  0  0  0  0  0  0  0  0  0
  -29.5438  -24.3410   20.0712 C   0  0  0  0  0  0  0  0  0  0  0  0
  -24.7801  -26.0177   19.6961 C   0  0  0  0  0  0  0  0  0  0  0  0
  -26.6272  -11.9289   19.6287 C   0  0  0  0  0  0  0  0  0  0  0  0
  -25.0674  -12.5702   21.3586 C   0  0  0  0  0  0  0  0  0  0  0  0
  -23.7728  -25.1887   20.1880 C   0  0  0  0  0  0  0  0  0  0  0  0
  -23.2710  -10.0179   20.0627 C   0  0  0  0  0  0  0  0  0  0  0  0
  -21.9480   -9.6130   20.2395 C   0  0  0  0  0  0  0  0  0  0  0  0
  -23.6850  -26.5041   22.2082 C   0  0  0  0  0  0  0  0  0  0  0  0
  -22.4677   -8.8965   22.4876 C   0  0  0  0  0  0  0  0  0  0  0  0
  -23.5360  -19.6178   21.0242 C   0  0  0  0  0  0  0  0  0  0  0  0
  -26.1944  -14.2665   20.0589 C   0  0  0  0  0  0  0  0  0  0  0  0
  -25.7382  -16.4584   18.8361 C   0  0  0  0  0  0  0  0  0  0  0  0
  -31.6529  -25.4717   19.6701 C   0  0  0  0  0  0  0  0  0  0  0  0
  -25.2559  -27.0913   20.4625 C   0  0  0  0  0  0  0  0  0  0  0  0
  -30.4363  -25.3835   20.3733 C   0  0  0  0  0  0  0  0  0  0  0  0
  -24.6967  -27.3467   21.7227 C   0  0  0  0  0  0  0  0  0  0  0  0
  -25.7316  -11.5772   20.6385 C   0  0  0  0  0  0  0  0  0  0  0  0
  -23.2271  -25.4301   21.4453 C   0  0  0  0  0  0  0  0  0  0  0  0
  -24.1924   -9.8620   21.0983 C   0  0  0  0  0  0  0  0  0  0  0  0
  -21.5463   -9.0523   21.4519 C   0  0  0  0  0  0  0  0  0  0  0  0
  -23.7908   -9.3014   22.3107 C   0  0  0  0  0  0  0  0  0  0  0  0
  -26.4335  -15.6557   19.7603 C   0  0  0  0  0  0  0  0  0  0  0  0
  -26.3429  -17.6883   18.9265 C   0  0  0  0  0  0  0  0  0  0  0  0
  -25.0605  -19.6350   22.4499 C   0  0  0  0  0  0  0  0  0  0  0  0
  -24.6437  -16.1223   17.9731 C   0  0  0  0  0  0  0  0  0  0  0  0
  -28.0656  -27.8742   21.7258 C   0  0  0  0  0  0  0  0  0  0  0  0
  -26.5184  -30.6216   22.4877 C   0  0  0  0  0  0  0  0  0  0  0  0
  -23.5577  -32.2063   23.0957 C   0  0  0  0  0  0  0  0  0  0  0  0
  -29.6202  -19.9881   23.5642 C   0  0  0  0  0  0  0  0  0  0  0  0
  -32.6728  -26.5387   19.9800 C   0  0  0  0  0  0  0  0  0  0  0  0
  -26.3243  -27.9922   19.9065 C   0  0  0  0  0  0  0  0  0  0  0  0
  -25.1582  -28.4985   22.5765 C   0  0  0  0  0  0  0  0  0  0  0  0
  -32.1020  -27.7176   20.7639 C   0  0  0  0  0  0  0  0  0  0  0  0
  -30.5222  -19.7508   19.9820 C   0  0  0  0  0  0  0  0  0  0  0  0
  -31.2464  -27.2221   21.9255 C   0  0  0  0  0  0  0  0  0  0  0  0
  -29.5569  -18.6854   19.4653 C   0  0  0  0  0  0  0  0  0  0  0  0
  -30.8398  -19.5587   21.4619 C   0  0  0  0  0  0  0  0  0  0  0  0
  -28.6696  -18.4279   21.8163 C   0  0  0  0  0  0  0  0  0  0  0  0
  -30.0507  -26.4054   21.4208 C   0  0  1  0  0  0  0  0  0  0  0  0
  -27.0911  -28.7477   20.9876 C   0  0  1  0  0  0  0  0  0  0  0  0
  -28.2925  -18.6203   20.3397 C   0  0  2  0  0  0  0  0  0  0  0  0
  -22.6150  -34.4436   23.7307 C   0  0  0  0  0  0  0  0  0  0  0  0
  -27.6582  -21.1591   21.8298 C   0  0  0  0  0  0  0  0  0  0  0  0
  -27.4045  -30.1734   25.3728 C   0  0  0  0  0  0  0  0  0  0  0  0
  -25.6882  -31.8504   26.0870 C   0  0  0  0  0  0  0  0  0  0  0  0
  -27.5594  -32.5436   24.5901 C   0  0  0  0  0  0  0  0  0  0  0  0
  -28.3525  -21.0508   25.3926 C   0  0  0  0  0  0  0  0  0  0  0  0
  -22.0136  -32.3998   20.5783 C   0  0  0  0  0  0  0  0  0  0  0  0
  -26.3063  -19.4630   23.1921 C   0  0  0  0  0  0  0  0  0  0  0  0
  -21.6723  -22.3939   22.6095 C   0  0  0  0  0  0  0  0  0  0  0  0
  -21.6133  -20.9076   22.2502 C   0  0  0  0  0  0  0  0  0  0  0  0
  -22.2526  -23.2613   21.4986 C   0  0  0  0  0  0  0  0  0  1  0  0
  -25.7028  -31.0980   23.6653 C   0  0  1  0  0  0  0  0  0  0  0  0
  -22.9945  -33.5198   22.5838 C   0  0  2  0  0  0  0  0  0  0  0  0
  -27.2224  -20.7216   23.2246 C   0  0  1  0  0  0  0  0  0  0  0  0
  -26.5812  -31.3934   24.9138 C   0  0  0  0  0  0  0  0  0  0  0  0
  -24.8194  -19.2016   21.2344 N   0  0  0  0  0  0  0  0  0  0  0  0
  -27.4055  -16.3197   20.3912 N   0  0  0  0  0  0  0  0  0  0  0  0
  -23.9637  -20.2786   22.9323 N   0  0  0  0  0  0  0  0  0  0  0  0
  -22.9678  -20.2814   22.0333 N   0  0  0  0  0  0  0  0  0  0  0  0
  -27.3255  -17.5527   19.8626 N   0  0  0  0  0  0  0  0  0  0  0  0
  -26.2096  -29.3471   21.9916 N   0  0  0  0  0  0  0  0  0  0  0  0
  -29.6202  -19.4568   22.2640 N   0  0  0  0  0  0  0  0  0  0  0  0
  -26.1247  -18.8617   18.2956 N   0  0  0  0  0  0  0  0  0  0  0  0
  -24.1439  -14.8134   18.0067 N   0  0  0  0  0  0  0  0  0  0  0  0
  -29.0163  -27.2827   20.9160 N   0  0  0  0  0  0  0  0  0  0  0  0
  -24.9327  -32.2431   23.1920 N   0  0  0  0  0  0  0  0  0  0  0  0
  -28.4008  -20.4795   24.0543 N   0  0  0  0  0  0  0  0  0  0  0  0
  -21.7799  -33.2750   21.7558 N   0  3  0  0  0  0  0  0  0  0  0  0
  -24.1350  -16.9536   17.1834 O   0  0  0  0  0  0  0  0  0  0  0  0
  -27.9636  -27.7475   22.9404 O   0  0  0  0  0  0  0  0  0  0  0  0
  -27.3923  -31.3562   22.0205 O   0  0  0  0  0  0  0  0  0  0  0  0
  -22.8485  -31.2451   23.3850 O   0  0  0  0  0  0  0  0  0  0  0  0
  -30.6535  -20.0302   24.2443 O   0  0  0  0  0  0  0  0  0  0  0  0
  -25.5054  -10.2652   20.9215 O   0  0  0  0  0  0  0  0  0  0  0  0
  -22.2442  -24.6222   21.9281 O   0  0  0  0  0  0  0  0  0  1  0  0
  -20.2754   -8.6650   21.6221 F   0  0  0  0  0  0  0  0  0  0  0  0
  -24.6711   -9.1502   23.3097 F   0  0  0  0  0  0  0  0  0  0  0  0
  1  2  1  0  0  0  0
  1  5  2  0  0  0  0
  2  6  2  0  0  0  0
  3  8  2  0  0  0  0
  3 16  1  0  0  0  0
  4  9  1  0  0  0  0
  4 16  2  0  0  0  0
  5 18  1  0  0  0  0
  6 20  1  0  0  0  0
  7 10  2  0  0  0  0
  7 19  1  0  0  0  0
  8 22  1  0  0  0  0
  9 22  2  0  0  0  0
 10 23  1  0  0  0  0
 11 12  2  0  0  0  0
 11 24  1  0  0  0  0
 12 25  1  0  0  0  0
 13 21  1  0  0  0  0
 13 23  2  0  0  0  0
 14 25  2  0  0  0  0
 14 26  1  0  0  0  0
 15 62  2  0  0  0  0
 15 65  1  0  0  0  0
 16 27  1  0  0  0  0
 17 27  1  0  0  0  0
 17 28  2  0  0  0  0
 17 30  1  0  0  0  0
 18 20  2  0  0  0  0
 18 35  1  0  0  0  0
 19 21  2  0  0  0  0
 19 36  1  0  0  0  0
 20 44  1  0  0  0  0
 21 37  1  0  0  0  0
 22 80  1  0  0  0  0
 23 81  1  0  0  0  0
 24 26  2  0  0  0  0
 24 80  1  0  0  0  0
 25 82  1  0  0  0  0
 26 83  1  0  0  0  0
 27 63  2  0  0  0  0
 28 66  1  0  0  0  0
 28 69  1  0  0  0  0
 29 54  1  0  0  0  0
 29 62  1  0  0  0  0
 29 64  2  0  0  0  0
 30 70  1  0  0  0  0
 30 75  2  0  0  0  0
 31 45  1  0  0  0  0
 31 71  1  0  0  0  0
 31 76  2  0  0  0  0
 32 58  1  0  0  0  0
 32 67  1  0  0  0  0
 32 77  2  0  0  0  0
 33 59  1  0  0  0  0
 33 72  1  0  0  0  0
 33 78  2  0  0  0  0
 34 68  1  0  0  0  0
 34 73  1  0  0  0  0
 34 79  2  0  0  0  0
 35 38  1  0  0  0  0
 36 45  1  0  0  0  0
 37 67  1  0  0  0  0
 38 40  1  0  0  0  0
 39 41  1  0  0  0  0
 39 42  1  0  0  0  0
 40 44  1  0  0  0  0
 41 46  1  0  0  0  0
 42 68  1  0  0  0  0
 43 46  1  0  0  0  0
 43 68  1  0  0  0  0
 44 71  1  0  0  0  0
 45 67  1  0  0  0  0
 46 66  1  0  0  0  0
 47 59  1  0  0  0  0
 48 60  1  0  0  0  0
 49 61  1  0  0  0  0
 50 61  1  0  0  0  0
 51 61  1  0  0  0  0
 52 73  1  0  0  0  0
 53 74  1  0  0  0  0
 54 60  1  0  0  0  0
 55 56  1  0  0  0  0
 55 57  1  0  0  0  0
 56 65  1  0  0  0  0
 57 81  1  0  0  0  0
 58 61  1  0  0  0  0
 58 72  1  0  0  0  0
 59 74  1  0  0  0  0
 60 73  1  0  0  0  0
 63 66  1  0  0  0  0
 64 65  1  0  0  0  0
M  CHG  1  74   1
M  ISO  4  34 100  57 101  73 100  81 101
M  END
> <Batch ID>
0062

> <Smiles>
CNC(C)C(=O)NC(C(=O)N1Cc2cc([101O:1][101CH2:1]CCn3cnc(CC(C)[100N:0](C)[100C:0](=O)N4CCCC(n5nc(-c6ccc(Oc7ccc(F)cc7F)cc6)c(C(N)=O)c5N)C4)n3)ccc2CC1C(=O)NC1CCCc2ccccc21)C(C)(C)C

> <Shape>
0.244

> <Color>
0.056

> <Negative vol penalty>
0.000

$$$$

  -OEChem-04052318002D

  0  0  0     0  0  0  0  0  0999 V2000
M  END
$$$$

  -OEChem-04052318003D

 84 92  0     1  0  0  0  0  0999 V2000
  -24.2702  -16.8794    9.2833 C   0  0  0  0  0  0  0  0  0  0  0  0
  -25.3039  -17.2103   10.1537 C   0  0  0  0  0  0  0  0  0  0  0  0
  -23.2226   -9.8043   19.8937 C   0  0  0  0  0  0  0  0  0  0  0  0
  -23.7305   -9.8773   22.2546 C   0  0  0  0  0  0  0  0  0  0  0  0
  -23.1591  -17.7144    9.1732 C   0  0  0  0  0  0  0  0  0  0  0  0
  -25.2274  -18.3769   10.9136 C   0  0  0  0  0  0  0  0  0  0  0  0
  -27.3514  -19.2147   16.5963 C   0  0  0  0  0  0  0  0  0  0  0  0
  -22.4939   -8.6308   20.0867 C   0  0  0  0  0  0  0  0  0  0  0  0
  -23.0017   -8.7038   22.4476 C   0  0  0  0  0  0  0  0  0  0  0  0
  -28.5216  -19.7946   17.0843 C   0  0  0  0  0  0  0  0  0  0  0  0
  -20.1986   -5.8126   20.0165 C   0  0  0  0  0  0  0  0  0  0  0  0
  -18.9554   -5.7112   19.3924 C   0  0  0  0  0  0  0  0  0  0  0  0
  -27.3464  -21.8757   17.4119 C   0  0  0  0  0  0  0  0  0  0  0  0
  -18.1888   -7.6562   20.6034 C   0  0  0  0  0  0  0  0  0  0  0  0
  -33.2055  -14.7111   19.2070 C   0  0  0  0  0  0  0  0  0  0  0  0
  -23.8410  -10.4276   20.9776 C   0  0  0  0  0  0  0  0  0  0  0  0
  -24.1119  -12.9605   20.8419 C   0  0  0  0  0  0  0  0  0  0  0  0
  -23.0645  -18.8869    9.9393 C   0  0  0  0  0  0  0  0  0  0  0  0
  -26.1707  -19.9653   16.5021 C   0  0  0  0  0  0  0  0  0  0  0  0
  -24.1146  -19.2290   10.8126 C   0  0  0  0  0  0  0  0  0  0  0  0
  -26.1620  -21.3023   16.9248 C   0  0  0  0  0  0  0  0  0  0  0  0
  -22.3833   -8.0805   21.3637 C   0  0  0  0  0  0  0  0  0  0  0  0
  -28.5200  -21.1261   17.4895 C   0  0  0  0  0  0  0  0  0  0  0  0
  -20.4370   -6.8358   20.9342 C   0  0  0  0  0  0  0  0  0  0  0  0
  -17.9504   -6.6330   19.6858 C   0  0  0  0  0  0  0  0  0  0  0  0
  -19.4321   -7.7575   21.2276 C   0  0  0  0  0  0  0  0  0  0  0  0
  -24.5945  -11.6396   20.7788 C   0  0  0  0  0  0  0  0  0  0  0  0
  -25.2120  -13.7407   20.5820 C   0  0  0  0  0  0  0  0  0  0  0  0
  -31.8750  -16.2808   19.5579 C   0  0  0  0  0  0  0  0  0  0  0  0
  -22.7877  -13.4395   21.1115 C   0  0  0  0  0  0  0  0  0  0  0  0
  -24.2731  -20.8718   14.1185 C   0  0  0  0  0  0  0  0  0  0  0  0
  -22.4189  -21.9855   16.5360 C   0  0  0  0  0  0  0  0  0  0  0  0
  -31.0060  -12.6764   21.3389 C   0  0  0  0  0  0  0  0  0  0  0  0
  -22.2135  -23.0783   19.7625 C   0  0  0  0  0  0  0  0  0  0  0  0
  -21.8656  -19.7823    9.7511 C   0  0  0  0  0  0  0  0  0  0  0  0
  -24.9101  -19.3174   15.9985 C   0  0  0  0  0  0  0  0  0  0  0  0
  -24.9155  -22.1454   16.8629 C   0  0  0  0  0  0  0  0  0  0  0  0
  -21.6897  -20.8075   10.8683 C   0  0  0  0  0  0  0  0  0  0  0  0
  -29.3803  -13.6917   18.2480 C   0  0  0  0  0  0  0  0  0  0  0  0
  -23.0180  -21.4889   11.1815 C   0  0  0  0  0  0  0  0  0  0  0  0
  -27.9178  -13.3693   18.5518 C   0  0  0  0  0  0  0  0  0  0  0  0
  -30.3235  -12.6778   18.8902 C   0  0  0  0  0  0  0  0  0  0  0  0
  -28.6710  -12.2047   20.6706 C   0  0  0  0  0  0  0  0  0  0  0  0
  -24.0569  -20.4733   11.6720 C   0  0  1  0  0  0  0  0  0  0  0  0
  -23.8939  -20.3223   15.4646 C   0  0  1  0  0  0  0  0  0  0  0  0
  -27.6882  -13.2214   20.0661 C   0  0  2  0  0  0  0  0  0  0  0  0
  -20.5707  -23.9562   21.4441 C   0  0  0  0  0  0  0  0  0  0  0  0
  -33.3049  -13.0847   22.1578 C   0  0  0  0  0  0  0  0  0  0  0  0
  -32.8766  -11.7561   20.0899 C   0  0  0  0  0  0  0  0  0  0  0  0
  -22.4305  -24.6935   15.1300 C   0  0  0  0  0  0  0  0  0  0  0  0
  -21.6196  -25.7256   17.2620 C   0  0  0  0  0  0  0  0  0  0  0  0
  -20.2198  -24.0258   16.0899 C   0  0  0  0  0  0  0  0  0  0  0  0
  -31.9729  -21.7115   18.5843 C   0  0  0  0  0  0  0  0  0  0  0  0
  -31.1505  -20.4397   16.5918 C   0  0  0  0  0  0  0  0  0  0  0  0
  -22.7054  -20.8106   21.5994 C   0  0  0  0  0  0  0  0  0  0  0  0
  -30.5514  -19.6679   18.9474 C   0  0  0  0  0  0  0  0  0  0  0  0
  -31.4591  -18.4629   18.7087 C   0  0  0  0  0  0  0  0  0  0  0  0
  -22.3175  -23.2878   17.2927 C   0  0  1  0  0  0  0  0  0  0  0  0
  -21.2606  -22.7200   20.8886 C   0  0  2  0  0  0  0  0  0  0  0  0
  -32.4176  -12.9806   20.9044 C   0  0  0  0  0  0  0  0  0  0  0  0
  -21.6710  -24.4181   16.4431 C   0  0  0  0  0  0  0  0  0  0  0  0
  -30.8234  -20.8691   18.0226 C   0  0  0  0  0  0  0  0  0  1  0  0
  -32.8927  -15.9726   18.7880 N   0  0  0  0  0  0  0  0  0  0  0  0
  -25.8994  -11.5800   20.5004 N   0  0  0  0  0  0  0  0  0  0  0  0
  -31.6025  -15.2429   20.3935 N   0  0  0  0  0  0  0  0  0  0  0  0
  -32.4452  -14.2194   20.1877 N   0  0  0  0  0  0  0  0  0  0  0  0
  -26.2463  -12.8734   20.3863 N   0  0  0  0  0  0  0  0  0  0  0  0
  -23.7099  -21.4685   16.3572 N   0  0  0  0  0  0  0  0  0  0  0  0
  -30.0544  -12.5458   20.3271 N   0  0  0  0  0  0  0  0  0  0  0  0
  -25.3859  -15.0772   20.5040 N   0  0  0  0  0  0  0  0  0  0  0  0
  -21.7753  -12.5021   21.3575 N   0  0  0  0  0  0  0  0  0  0  0  0
  -23.8082  -20.1232   13.0541 N   0  0  0  0  0  0  0  0  0  0  0  0
  -21.6039  -22.9870   18.5291 N   0  0  0  0  0  0  0  0  0  0  0  0
  -21.9983  -22.0544   21.9993 N   0  3  0  0  0  0  0  0  0  0  0  0
  -22.5070  -14.6621   21.1174 O   0  0  0  0  0  0  0  0  0  0  0  0
  -24.9369  -21.8996   14.0506 O   0  0  0  0  0  0  0  0  0  0  0  0
  -21.3900  -21.4432   16.1250 O   0  0  0  0  0  0  0  0  0  0  0  0
  -30.7579  -12.5615   22.5419 O   0  0  0  0  0  0  0  0  0  0  0  0
  -23.3807  -23.4099   19.9577 O   0  0  0  0  0  0  0  0  0  0  0  0
  -21.6721   -6.9355   21.5525 O   0  0  0  0  0  0  0  0  0  0  0  0
  -29.6609  -21.6948   17.9656 O   0  0  0  0  0  0  0  0  0  1  0  0
  -31.1176  -17.4207   19.6155 O   0  0  0  0  0  0  0  0  0  0  0  0
  -16.7571   -6.5365   19.0852 F   0  0  0  0  0  0  0  0  0  0  0  0
  -19.6555   -8.7433   22.1075 F   0  0  0  0  0  0  0  0  0  0  0  0
  1  2  1  0  0  0  0
  1  5  2  0  0  0  0
  2  6  2  0  0  0  0
  3  8  2  0  0  0  0
  3 16  1  0  0  0  0
  4  9  1  0  0  0  0
  4 16  2  0  0  0  0
  5 18  1  0  0  0  0
  6 20  1  0  0  0  0
  7 10  2  0  0  0  0
  7 19  1  0  0  0  0
  8 22  1  0  0  0  0
  9 22  2  0  0  0  0
 10 23  1  0  0  0  0
 11 12  2  0  0  0  0
 11 24  1  0  0  0  0
 12 25  1  0  0  0  0
 13 21  1  0  0  0  0
 13 23  2  0  0  0  0
 14 25  2  0  0  0  0
 14 26  1  0  0  0  0
 15 63  2  0  0  0  0
 15 66  1  0  0  0  0
 16 27  1  0  0  0  0
 17 27  1  0  0  0  0
 17 28  2  0  0  0  0
 17 30  1  0  0  0  0
 18 20  2  0  0  0  0
 18 35  1  0  0  0  0
 19 21  2  0  0  0  0
 19 36  1  0  0  0  0
 20 44  1  0  0  0  0
 21 37  1  0  0  0  0
 22 80  1  0  0  0  0
 23 81  1  0  0  0  0
 24 26  2  0  0  0  0
 24 80  1  0  0  0  0
 25 83  1  0  0  0  0
 26 84  1  0  0  0  0
 27 64  2  0  0  0  0
 28 67  1  0  0  0  0
 28 70  1  0  0  0  0
 29 63  1  0  0  0  0
 29 65  2  0  0  0  0
 29 82  1  0  0  0  0
 30 71  1  0  0  0  0
 30 75  2  0  0  0  0
 31 45  1  0  0  0  0
 31 72  1  0  0  0  0
 31 76  2  0  0  0  0
 32 58  1  0  0  0  0
 32 68  1  0  0  0  0
 32 77  2  0  0  0  0
 33 60  1  0  0  0  0
 33 69  1  0  0  0  0
 33 78  2  0  0  0  0
 34 59  1  0  0  0  0
 34 73  1  0  0  0  0
 34 79  2  0  0  0  0
 35 38  1  0  0  0  0
 36 45  1  0  0  0  0
 37 68  1  0  0  0  0
 38 40  1  0  0  0  0
 39 41  1  0  0  0  0
 39 42  1  0  0  0  0
 40 44  1  0  0  0  0
 41 46  1  0  0  0  0
 42 69  1  0  0  0  0
 43 46  1  0  0  0  0
 43 69  1  0  0  0  0
 44 72  1  0  0  0  0
 45 68  1  0  0  0  0
 46 67  1  0  0  0  0
 47 59  1  0  0  0  0
 48 60  1  0  0  0  0
 49 60  1  0  0  0  0
 50 61  1  0  0  0  0
 51 61  1  0  0  0  0
 52 61  1  0  0  0  0
 53 62  1  0  0  0  0
 54 62  1  0  0  0  0
 55 74  1  0  0  0  0
 56 57  1  0  0  0  0
 56 62  1  0  0  0  0
 57 82  1  0  0  0  0
 58 61  1  0  0  0  0
 58 73  1  0  0  0  0
 59 74  1  0  0  0  0
 60 66  1  0  0  0  0
 62 81  1  0  0  0  0
 64 67  1  0  0  0  0
 65 66  1  0  0  0  0
M  CHG  1  74   1
M  ISO  4  33 100  60 100  62 101  81 101
M  END
> <Batch ID>
0062

> <Smiles>
CNC(C)C(=O)NC(C(=O)N1Cc2cc([101O:1][101C:1](C)(C)CCOc3ncn([100C:0](C)(C)[100C:0](=O)N4CCCC(n5nc(-c6ccc(Oc7ccc(F)cc7F)cc6)c(C(N)=O)c5N)C4)n3)ccc2CC1C(=O)NC1CCCc2ccccc21)C(C)(C)C

> <Shape>
0.143

> <Color>
0.192

> <Negative vol penalty>
0.000

$$$$

  -OEChem-04052318003D

 87 95  0     1  0  0  0  0  0999 V2000
  -27.9347  -25.3573   15.9585 C   0  0  0  0  0  0  0  0  0  0  0  0
  -26.7648  -25.4830   16.7009 C   0  0  0  0  0  0  0  0  0  0  0  0
  -25.9156  -14.1602   19.6981 C   0  0  0  0  0  0  0  0  0  0  0  0
  -24.0425  -14.1225   21.2236 C   0  0  0  0  0  0  0  0  0  0  0  0
  -29.1444  -25.8090   16.4842 C   0  0  0  0  0  0  0  0  0  0  0  0
  -26.8043  -26.0596   17.9699 C   0  0  0  0  0  0  0  0  0  0  0  0
  -23.0542  -29.3810   18.7120 C   0  0  0  0  0  0  0  0  0  0  0  0
  -26.1518  -12.8097   19.9548 C   0  0  0  0  0  0  0  0  0  0  0  0
  -24.2787  -12.7719   21.4803 C   0  0  0  0  0  0  0  0  0  0  0  0
  -21.7913  -28.8626   18.9947 C   0  0  0  0  0  0  0  0  0  0  0  0
  -23.6817   -9.8093   19.9681 C   0  0  0  0  0  0  0  0  0  0  0  0
  -22.5819   -8.9514   19.9796 C   0  0  0  0  0  0  0  0  0  0  0  0
  -22.1441  -29.2985   21.3409 C   0  0  0  0  0  0  0  0  0  0  0  0
  -23.0637   -8.3647   22.2733 C   0  0  0  0  0  0  0  0  0  0  0  0
  -20.6234  -23.4166   21.6081 C   0  0  0  0  0  0  0  0  0  0  0  0
  -24.8609  -14.8166   20.3326 C   0  0  0  0  0  0  0  0  0  0  0  0
  -23.7899  -16.7554   19.0669 C   0  0  0  0  0  0  0  0  0  0  0  0
  -29.1972  -26.4002   17.7563 C   0  0  0  0  0  0  0  0  0  0  0  0
  -23.8774  -29.8528   19.7446 C   0  0  0  0  0  0  0  0  0  0  0  0
  -28.0161  -26.5185   18.5136 C   0  0  0  0  0  0  0  0  0  0  0  0
  -23.4161  -29.8248   21.0684 C   0  0  0  0  0  0  0  0  0  0  0  0
  -21.9616  -23.1192   21.6938 C   0  0  0  0  0  0  0  0  0  0  0  0
  -25.3334  -12.1155   20.8458 C   0  0  0  0  0  0  0  0  0  0  0  0
  -21.3372  -28.8186   20.3096 C   0  0  0  0  0  0  0  0  0  0  0  0
  -24.4725   -9.9449   21.1091 C   0  0  0  0  0  0  0  0  0  0  0  0
  -22.2729   -8.2291   21.1322 C   0  0  0  0  0  0  0  0  0  0  0  0
  -24.1635   -9.2226   22.2617 C   0  0  0  0  0  0  0  0  0  0  0  0
  -24.6167  -16.2119   20.0683 C   0  0  0  0  0  0  0  0  0  0  0  0
  -22.6088  -24.2557   21.1730 C   0  0  0  0  0  0  0  0  0  0  0  0
  -23.8971  -18.1145   19.2335 C   0  0  0  0  0  0  0  0  0  0  0  0
  -22.9960  -16.0911   18.0750 C   0  0  0  0  0  0  0  0  0  0  0  0
  -26.7298  -29.0404   20.8881 C   0  0  0  0  0  0  0  0  0  0  0  0
  -26.3217  -31.6924   22.7109 C   0  0  0  0  0  0  0  0  0  0  0  0
  -24.1698  -33.9205   24.1433 C   0  0  0  0  0  0  0  0  0  0  0  0
  -24.4891  -21.7646   23.8605 C   0  0  0  0  0  0  0  0  0  0  0  0
  -30.5358  -26.8305   18.3019 C   0  0  0  0  0  0  0  0  0  0  0  0
  -25.2265  -30.4335   19.4201 C   0  0  0  0  0  0  0  0  0  0  0  0
  -24.2530  -30.3375   22.2108 C   0  0  0  0  0  0  0  0  0  0  0  0
  -30.4315  -27.7703   19.5003 C   0  0  0  0  0  0  0  0  0  0  0  0
  -27.1614  -21.1317   21.3787 C   0  0  0  0  0  0  0  0  0  0  0  0
  -29.4135  -27.2421   20.5060 C   0  0  0  0  0  0  0  0  0  0  0  0
  -26.7266  -19.8083   20.7512 C   0  0  0  0  0  0  0  0  0  0  0  0
  -26.6693  -21.2664   22.8165 C   0  0  0  0  0  0  0  0  0  0  0  0
  -24.7653  -19.7617   22.3424 C   0  0  0  0  0  0  0  0  0  0  0  0
  -28.0143  -27.1610   19.8838 C   0  0  1  0  0  0  0  0  0  0  0  0
  -26.1868  -30.4125   20.6054 C   0  0  1  0  0  0  0  0  0  0  0  0
  -25.2055  -19.6146   20.8781 C   0  0  2  0  0  0  0  0  0  0  0  0
  -24.1302  -35.9585   25.6069 C   0  0  0  0  0  0  0  0  0  0  0  0
  -26.8736  -29.9471   25.1520 C   0  0  0  0  0  0  0  0  0  0  0  0
  -25.9031  -31.7597   26.5806 C   0  0  0  0  0  0  0  0  0  0  0  0
  -27.9460  -32.2054   25.2202 C   0  0  0  0  0  0  0  0  0  0  0  0
  -17.5406  -27.1371   21.3156 C   0  0  0  0  0  0  0  0  0  0  0  0
  -18.6929  -25.9676   23.1944 C   0  0  0  0  0  0  0  0  0  0  0  0
  -22.3485  -22.8145   24.4894 C   0  0  0  0  0  0  0  0  0  0  0  0
  -22.9006  -35.5566   22.0288 C   0  0  0  0  0  0  0  0  0  0  0  0
  -22.5701  -21.8839   22.2155 C   0  0  0  0  0  0  0  0  0  0  0  0
  -19.2926  -25.4424   20.7623 C   0  0  0  0  0  0  0  0  0  0  0  0
  -19.9317  -27.6889   21.8602 C   0  0  0  0  0  0  0  0  0  1  0  0
  -25.7105  -31.9778   24.0614 C   0  0  1  0  0  0  0  0  0  0  0  0
  -24.1671  -35.4381   24.1784 C   0  0  2  0  0  0  0  0  0  0  0  0
  -24.0572  -24.4817   21.0250 C   0  0  0  0  0  0  0  0  0  0  0  0
  -26.5931  -31.4610   25.2325 C   0  0  0  0  0  0  0  0  0  0  0  0
  -18.8917  -26.5494   21.7827 C   0  0  0  0  0  0  0  0  0  0  0  0
  -25.2058  -17.1492   20.8156 N   0  0  0  0  0  0  0  0  0  0  0  0
  -21.7523  -25.2043   20.7850 N   0  0  0  0  0  0  0  0  0  0  0  0
  -20.5532  -24.6645   21.0621 N   0  0  0  0  0  0  0  0  0  0  0  0
  -24.7487  -18.2954   20.2834 N   0  0  0  0  0  0  0  0  0  0  0  0
  -25.5672  -30.8900   21.8433 N   0  0  0  0  0  0  0  0  0  0  0  0
  -25.2277  -21.0350   22.9146 N   0  0  0  0  0  0  0  0  0  0  0  0
  -23.3451  -19.1606   18.5827 N   0  0  0  0  0  0  0  0  0  0  0  0
  -23.0002  -14.6899   18.0443 N   0  0  0  0  0  0  0  0  0  0  0  0
  -27.4097  -28.4746   19.8265 N   0  0  0  0  0  0  0  0  0  0  0  0
  -25.4511  -33.4130   24.0970 N   0  0  0  0  0  0  0  0  0  0  0  0
  -23.1520  -22.0506   23.5455 N   0  0  0  0  0  0  0  0  0  0  0  0
  -22.9791  -35.9709   23.4533 N   0  3  0  0  0  0  0  0  0  0  0  0
  -22.3162  -16.7216   17.2301 O   0  0  0  0  0  0  0  0  0  0  0  0
  -26.5468  -28.5331   21.9886 O   0  0  0  0  0  0  0  0  0  0  0  0
  -27.4247  -32.1700   22.4332 O   0  0  0  0  0  0  0  0  0  0  0  0
  -23.1386  -33.2519   24.1594 O   0  0  0  0  0  0  0  0  0  0  0  0
  -24.9985  -22.1473   24.9217 O   0  0  0  0  0  0  0  0  0  0  0  0
  -25.5635  -10.7976   21.0963 O   0  0  0  0  0  0  0  0  0  0  0  0
  -20.1051  -28.3126   20.5884 O   0  0  0  0  0  0  0  0  0  1  0  0
  -21.2159   -7.4064   21.1436 F   0  0  0  0  0  0  0  0  0  0  0  0
  -24.9188   -9.3496   23.3613 F   0  0  0  0  0  0  0  0  0  0  0  0
  -24.8393  -23.4387   21.4566 F   0  0  0  0  0  0  0  0  0  0  0  0
  -24.4656  -24.6998   19.7322 F   0  0  0  0  0  0  0  0  0  0  0  0
  -24.5110  -25.5717   21.7238 F   0  0  0  0  0  0  0  0  0  0  0  0
  1  2  1  0  0  0  0
  1  5  2  0  0  0  0
  2  6  2  0  0  0  0
  3  8  2  0  0  0  0
  3 16  1  0  0  0  0
  4  9  1  0  0  0  0
  4 16  2  0  0  0  0
  5 18  1  0  0  0  0
  6 20  1  0  0  0  0
  7 10  2  0  0  0  0
  7 19  1  0  0  0  0
  8 23  1  0  0  0  0
  9 23  2  0  0  0  0
 10 24  1  0  0  0  0
 11 12  2  0  0  0  0
 11 25  1  0  0  0  0
 12 26  1  0  0  0  0
 13 21  1  0  0  0  0
 13 24  2  0  0  0  0
 14 26  2  0  0  0  0
 14 27  1  0  0  0  0
 15 22  2  0  0  0  0
 15 66  1  0  0  0  0
 16 28  1  0  0  0  0
 17 28  1  0  0  0  0
 17 30  2  0  0  0  0
 17 31  1  0  0  0  0
 18 20  2  0  0  0  0
 18 36  1  0  0  0  0
 19 21  2  0  0  0  0
 19 37  1  0  0  0  0
 20 45  1  0  0  0  0
 21 38  1  0  0  0  0
 22 29  1  0  0  0  0
 22 56  1  0  0  0  0
 23 81  1  0  0  0  0
 24 82  1  0  0  0  0
 25 27  2  0  0  0  0
 25 81  1  0  0  0  0
 26 83  1  0  0  0  0
 27 84  1  0  0  0  0
 28 64  2  0  0  0  0
 29 61  1  0  0  0  0
 29 65  2  0  0  0  0
 30 67  1  0  0  0  0
 30 70  1  0  0  0  0
 31 71  1  0  0  0  0
 31 76  2  0  0  0  0
 32 46  1  0  0  0  0
 32 72  1  0  0  0  0
 32 77  2  0  0  0  0
 33 59  1  0  0  0  0
 33 68  1  0  0  0  0
 33 78  2  0  0  0  0
 34 60  1  0  0  0  0
 34 73  1  0  0  0  0
 34 79  2  0  0  0  0
 35 69  1  0  0  0  0
 35 74  1  0  0  0  0
 35 80  2  0  0  0  0
 36 39  1  0  0  0  0
 37 46  1  0  0  0  0
 38 68  1  0  0  0  0
 39 41  1  0  0  0  0
 40 42  1  0  0  0  0
 40 43  1  0  0  0  0
 41 45  1  0  0  0  0
 42 47  1  0  0  0  0
 43 69  1  0  0  0  0
 44 47  1  0  0  0  0
 44 69  1  0  0  0  0
 45 72  1  0  0  0  0
 46 68  1  0  0  0  0
 47 67  1  0  0  0  0
 48 60  1  0  0  0  0
 49 62  1  0  0  0  0
 50 62  1  0  0  0  0
 51 62  1  0  0  0  0
 52 63  1  0  0  0  0
 53 63  1  0  0  0  0
 54 74  1  0  0  0  0
 55 75  1  0  0  0  0
 56 74  1  0  0  0  0
 57 63  1  0  0  0  0
 57 66  1  0  0  0  0
 58 63  1  0  0  0  0
 58 82  1  0  0  0  0
 59 62  1  0  0  0  0
 59 73  1  0  0  0  0
 60 75  1  0  0  0  0
 61 85  1  0  0  0  0
 61 86  1  0  0  0  0
 61 87  1  0  0  0  0
 64 67  1  0  0  0  0
 65 66  1  0  0  0  0
M  CHG  1  75   1
M  ISO  4  35 100  58 101  74 100  82 101
M  END
> <Batch ID>
0062

> <Smiles>
CNC(C)C(=O)NC(C(=O)N1Cc2cc([101O:1][101CH2:1]C(C)(C)Cn3cc(C[100N:0](C)[100C:0](=O)N4CCCC(n5nc(-c6ccc(Oc7ccc(F)cc7F)cc6)c(C(N)=O)c5N)C4)c(C(F)(F)F)n3)ccc2CC1C(=O)NC1CCCc2ccccc21)C(C)(C)C

> <Shape>
0.283

> <Color>
0.092

> <Negative vol penalty>
0.000

$$$$

  -OEChem-04052318003D

 89 97  0     1  0  0  0  0  0999 V2000
  -22.3846  -31.5381   14.1702 C   0  0  0  0  0  0  0  0  0  0  0  0
  -23.4653  -30.9283   14.7993 C   0  0  0  0  0  0  0  0  0  0  0  0
  -30.0484  -18.1795   28.0010 C   0  0  0  0  0  0  0  0  0  0  0  0
  -31.5812  -19.6293   26.8239 C   0  0  0  0  0  0  0  0  0  0  0  0
  -21.7971  -32.6686   14.7364 C   0  0  0  0  0  0  0  0  0  0  0  0
  -23.9598  -31.4495   15.9944 C   0  0  0  0  0  0  0  0  0  0  0  0
  -24.8813  -27.8595   19.4452 C   0  0  0  0  0  0  0  0  0  0  0  0
  -30.8301  -18.2869   29.1512 C   0  0  0  0  0  0  0  0  0  0  0  0
  -32.3629  -19.7367   27.9742 C   0  0  0  0  0  0  0  0  0  0  0  0
  -26.0510  -27.1161   19.2938 C   0  0  0  0  0  0  0  0  0  0  0  0
  -32.6167  -17.8908   32.2936 C   0  0  0  0  0  0  0  0  0  0  0  0
  -32.8910  -16.7225   33.0046 C   0  0  0  0  0  0  0  0  0  0  0  0
  -27.1277  -28.4806   20.9665 C   0  0  0  0  0  0  0  0  0  0  0  0
  -33.9771  -15.7924   31.0572 C   0  0  0  0  0  0  0  0  0  0  0  0
  -30.4240  -18.8507   26.8373 C   0  0  0  0  0  0  0  0  0  0  0  0
  -28.5436  -19.5674   25.2696 C   0  0  0  0  0  0  0  0  0  0  0  0
  -22.2785  -33.1982   15.9441 C   0  0  0  0  0  0  0  0  0  0  0  0
  -24.8293  -28.9278   20.3521 C   0  0  0  0  0  0  0  0  0  0  0  0
  -23.3790  -32.5889   16.5766 C   0  0  0  0  0  0  0  0  0  0  0  0
  -25.9553  -29.2344   21.1294 C   0  0  0  0  0  0  0  0  0  0  0  0
  -31.9873  -19.0655   29.1378 C   0  0  0  0  0  0  0  0  0  0  0  0
  -27.1753  -27.4284   20.0524 C   0  0  0  0  0  0  0  0  0  0  0  0
  -33.0225  -18.0099   30.9644 C   0  0  0  0  0  0  0  0  0  0  0  0
  -33.5712  -15.6734   32.3864 C   0  0  0  0  0  0  0  0  0  0  0  0
  -33.7027  -16.9607   30.3462 C   0  0  0  0  0  0  0  0  0  0  0  0
  -29.6173  -18.7397   25.6486 C   0  0  0  0  0  0  0  0  0  0  0  0
  -29.0515  -21.5772   20.3999 C   0  0  0  0  0  0  0  0  0  0  0  0
  -29.7178  -22.7324   20.7449 C   0  0  0  0  0  0  0  0  0  0  0  0
  -31.0247  -20.4227   20.4544 C   0  0  0  0  0  0  0  0  0  0  0  0
  -31.6912  -21.5780   20.7986 C   0  0  0  0  0  0  0  0  0  0  0  0
  -28.1161  -19.0485   24.0719 C   0  0  0  0  0  0  0  0  0  0  0  0
  -27.9828  -20.7039   25.9401 C   0  0  0  0  0  0  0  0  0  0  0  0
  -24.3442  -32.0594   20.1037 C   0  0  0  0  0  0  0  0  0  0  0  0
  -24.3865  -31.9288   23.3447 C   0  0  0  0  0  0  0  0  0  0  0  0
  -25.3947  -30.2937   26.1654 C   0  0  0  0  0  0  0  0  0  0  0  0
  -31.2257  -15.5654   20.1049 C   0  0  0  0  0  0  0  0  0  0  0  0
  -21.6408  -34.4498   16.4933 C   0  0  0  0  0  0  0  0  0  0  0  0
  -23.5517  -29.7030   20.5229 C   0  0  0  0  0  0  0  0  0  0  0  0
  -25.9449  -30.3587   22.1315 C   0  0  0  0  0  0  0  0  0  0  0  0
  -21.9864  -34.7181   17.9557 C   0  0  0  0  0  0  0  0  0  0  0  0
  -27.9012  -14.9559   21.6142 C   0  0  0  0  0  0  0  0  0  0  0  0
  -23.4837  -34.5458   18.1908 C   0  0  0  0  0  0  0  0  0  0  0  0
  -27.9124  -15.8815   22.8296 C   0  0  0  0  0  0  0  0  0  0  0  0
  -29.3071  -14.5007   21.2350 C   0  0  0  0  0  0  0  0  0  0  0  0
  -30.2758  -16.5449   22.2336 C   0  0  0  0  0  0  0  0  0  0  0  0
  -23.9282  -33.1099   17.8870 C   0  0  1  0  0  0  0  0  0  0  0  0
  -23.7714  -31.0961   21.1046 C   0  0  1  0  0  0  0  0  0  0  0  0
  -28.8790  -17.0590   22.6136 C   0  0  2  0  0  0  0  0  0  0  0  0
  -27.2156  -21.5333   18.6928 C   0  0  0  0  0  0  0  0  0  0  0  0
  -25.3106  -30.4488   28.6687 C   0  0  0  0  0  0  0  0  0  0  0  0
  -26.5271  -34.1022   23.2795 C   0  0  0  0  0  0  0  0  0  0  0  0
  -27.0691  -33.5423   25.6587 C   0  0  0  0  0  0  0  0  0  0  0  0
  -24.8002  -34.3920   25.0650 C   0  0  0  0  0  0  0  0  0  0  0  0
  -32.6656  -16.7473   18.4896 C   0  0  0  0  0  0  0  0  0  0  0  0
  -23.9299  -27.7320   26.3908 C   0  0  0  0  0  0  0  0  0  0  0  0
  -27.5780  -21.5668   20.1757 C   0  0  0  0  0  0  0  0  0  0  0  0
  -28.9876  -24.0410   20.9123 C   0  0  0  0  0  0  0  0  0  0  0  0
  -31.7462  -19.1287   20.2902 C   0  0  0  0  0  0  0  0  0  0  0  0
  -29.9119  -25.2592   20.9682 C   0  0  0  0  0  0  0  0  0  0  0  0
  -30.8983  -18.0304   19.6367 C   0  0  0  0  0  0  0  0  0  0  0  0
  -29.1613  -26.5833   21.0512 C   0  0  0  0  0  0  0  0  0  1  0  0
  -25.4549  -32.0409   24.4053 C   0  0  1  0  0  0  0  0  0  0  0  0
  -24.6416  -29.8932   27.4211 C   0  0  2  0  0  0  0  0  0  0  0  0
  -33.1647  -21.5881   21.0225 C   0  0  0  0  0  0  0  0  0  0  0  0
  -25.9640  -33.4993   24.5819 C   0  0  0  0  0  0  0  0  0  0  0  0
  -29.8570  -17.7685   24.7635 N   0  0  0  0  0  0  0  0  0  0  0  0
  -29.6929  -20.4016   20.2485 N   0  0  0  0  0  0  0  0  0  0  0  0
  -31.0497  -22.7535   20.9504 N   0  0  0  0  0  0  0  0  0  0  0  0
  -28.9279  -17.9827   23.8165 N   0  0  0  0  0  0  0  0  0  0  0  0
  -24.6741  -31.0913   22.2576 N   0  0  0  0  0  0  0  0  0  0  0  0
  -30.2155  -15.6371   21.0782 N   0  0  0  0  0  0  0  0  0  0  0  0
  -27.1287  -19.4043   23.2229 N   0  0  0  0  0  0  0  0  0  0  0  0
  -28.5427  -21.1024   27.1616 N   0  0  0  0  0  0  0  0  0  0  0  0
  -23.5649  -32.2275   18.9750 N   0  0  0  0  0  0  0  0  0  0  0  0
  -24.8913  -31.4539   25.6161 N   0  0  0  0  0  0  0  0  0  0  0  0
  -31.6296  -16.7714   19.5123 N   0  0  0  0  0  0  0  0  0  0  0  0
  -24.5848  -28.4087   27.5398 N   0  3  0  0  0  0  0  0  0  0  0  0
  -27.0034  -21.3371   25.4780 O   0  0  0  0  0  0  0  0  0  0  0  0
  -25.4132  -32.6104   20.3388 O   0  0  0  0  0  0  0  0  0  0  0  0
  -23.3326  -32.5555   23.4794 O   0  0  0  0  0  0  0  0  0  0  0  0
  -26.3379  -29.6445   25.7188 O   0  0  0  0  0  0  0  0  0  0  0  0
  -31.7307  -14.4840   19.7771 O   0  0  0  0  0  0  0  0  0  0  0  0
  -32.7501  -19.1707   30.2601 O   0  0  0  0  0  0  0  0  0  0  0  0
  -28.3185  -26.7047   19.9061 O   0  0  0  0  0  0  0  0  0  1  0  0
  -33.8359  -14.5521   33.0697 F   0  0  0  0  0  0  0  0  0  0  0  0
  -34.0962  -17.0698   29.0698 F   0  0  0  0  0  0  0  0  0  0  0  0
  -33.7536  -20.3668   20.8533 F   0  0  0  0  0  0  0  0  0  0  0  0
  -33.8406  -22.4275   20.1827 F   0  0  0  0  0  0  0  0  0  0  0  0
  -33.5024  -21.9844   22.2846 F   0  0  0  0  0  0  0  0  0  0  0  0
  1  2  1  0  0  0  0
  1  5  2  0  0  0  0
  2  6  2  0  0  0  0
  3  8  2  0  0  0  0
  3 15  1  0  0  0  0
  4  9  1  0  0  0  0
  4 15  2  0  0  0  0
  5 17  1  0  0  0  0
  6 19  1  0  0  0  0
  7 10  2  0  0  0  0
  7 18  1  0  0  0  0
  8 21  1  0  0  0  0
  9 21  2  0  0  0  0
 10 22  1  0  0  0  0
 11 12  2  0  0  0  0
 11 23  1  0  0  0  0
 12 24  1  0  0  0  0
 13 20  1  0  0  0  0
 13 22  2  0  0  0  0
 14 24  2  0  0  0  0
 14 25  1  0  0  0  0
 15 26  1  0  0  0  0
 16 26  1  0  0  0  0
 16 31  2  0  0  0  0
 16 32  1  0  0  0  0
 17 19  2  0  0  0  0
 17 37  1  0  0  0  0
 18 20  2  0  0  0  0
 18 38  1  0  0  0  0
 19 46  1  0  0  0  0
 20 39  1  0  0  0  0
 21 83  1  0  0  0  0
 22 84  1  0  0  0  0
 23 25  2  0  0  0  0
 23 83  1  0  0  0  0
 24 85  1  0  0  0  0
 25 86  1  0  0  0  0
 26 66  2  0  0  0  0
 27 28  2  0  0  0  0
 27 56  1  0  0  0  0
 27 67  1  0  0  0  0
 28 57  1  0  0  0  0
 28 68  1  0  0  0  0
 29 30  1  0  0  0  0
 29 58  1  0  0  0  0
 29 67  2  0  0  0  0
 30 64  1  0  0  0  0
 30 68  2  0  0  0  0
 31 69  1  0  0  0  0
 31 72  1  0  0  0  0
 32 73  1  0  0  0  0
 32 78  2  0  0  0  0
 33 47  1  0  0  0  0
 33 74  1  0  0  0  0
 33 79  2  0  0  0  0
 34 62  1  0  0  0  0
 34 70  1  0  0  0  0
 34 80  2  0  0  0  0
 35 63  1  0  0  0  0
 35 75  1  0  0  0  0
 35 81  2  0  0  0  0
 36 71  1  0  0  0  0
 36 76  1  0  0  0  0
 36 82  2  0  0  0  0
 37 40  1  0  0  0  0
 38 47  1  0  0  0  0
 39 70  1  0  0  0  0
 40 42  1  0  0  0  0
 41 43  1  0  0  0  0
 41 44  1  0  0  0  0
 42 46  1  0  0  0  0
 43 48  1  0  0  0  0
 44 71  1  0  0  0  0
 45 48  1  0  0  0  0
 45 71  1  0  0  0  0
 46 74  1  0  0  0  0
 47 70  1  0  0  0  0
 48 69  1  0  0  0  0
 49 56  1  0  0  0  0
 50 63  1  0  0  0  0
 51 65  1  0  0  0  0
 52 65  1  0  0  0  0
 53 65  1  0  0  0  0
 54 76  1  0  0  0  0
 55 77  1  0  0  0  0
 57 59  1  0  0  0  0
 58 60  1  0  0  0  0
 59 61  1  0  0  0  0
 60 76  1  0  0  0  0
 61 84  1  0  0  0  0
 62 65  1  0  0  0  0
 62 75  1  0  0  0  0
 63 77  1  0  0  0  0
 64 87  1  0  0  0  0
 64 88  1  0  0  0  0
 64 89  1  0  0  0  0
 66 69  1  0  0  0  0
M  CHG  1  77   1
M  ISO  4  36 100  61 101  76 100  84 101
M  END
> <Batch ID>
0062

> <Smiles>
CCc1nc(CC[100N:0](C)[100C:0](=O)N2CCCC(n3nc(-c4ccc(Oc5ccc(F)cc5F)cc4)c(C(N)=O)c3N)C2)c(C(F)(F)F)nc1CC[101CH2:1][101O:1]c1ccc2c(c1)CN(C(=O)C(NC(=O)C(C)NC)C(C)(C)C)C(C(=O)NC1CCCc3ccccc31)C2

> <Shape>
0.192

> <Color>
0.106

> <Negative vol penalty>
0.000

$$$$

  -OEChem-04052318003D

 85 93  0     1  0  0  0  0  0999 V2000
  -31.8118  -13.5582   21.8917 C   0  0  0  0  0  0  0  0  0  0  0  0
  -31.1323  -14.7540   22.1013 C   0  0  0  0  0  0  0  0  0  0  0  0
  -26.5644  -28.1417   18.9443 C   0  0  0  0  0  0  0  0  0  0  0  0
  -26.5626  -27.4104   21.2469 C   0  0  0  0  0  0  0  0  0  0  0  0
  -31.2645  -12.5835   21.0585 C   0  0  0  0  0  0  0  0  0  0  0  0
  -29.9055  -14.9761   21.4768 C   0  0  0  0  0  0  0  0  0  0  0  0
  -26.4548  -16.9435   24.6180 C   0  0  0  0  0  0  0  0  0  0  0  0
  -25.3860  -28.8533   19.1694 C   0  0  0  0  0  0  0  0  0  0  0  0
  -25.3843  -28.1221   21.4720 C   0  0  0  0  0  0  0  0  0  0  0  0
  -26.5513  -18.3061   24.8970 C   0  0  0  0  0  0  0  0  0  0  0  0
  -22.0805  -27.7240   20.8739 C   0  0  0  0  0  0  0  0  0  0  0  0
  -21.0644  -27.0866   21.5858 C   0  0  0  0  0  0  0  0  0  0  0  0
  -24.8051  -18.7520   23.2935 C   0  0  0  0  0  0  0  0  0  0  0  0
  -21.1632  -28.8132   23.2729 C   0  0  0  0  0  0  0  0  0  0  0  0
  -27.1527  -27.4202   19.9830 C   0  0  0  0  0  0  0  0  0  0  0  0
  -29.6884  -27.1534   19.9012 C   0  0  0  0  0  0  0  0  0  0  0  0
  -30.0257  -12.7898   20.4312 C   0  0  0  0  0  0  0  0  0  0  0  0
  -25.5388  -16.4753   23.6651 C   0  0  0  0  0  0  0  0  0  0  0  0
  -29.3417  -14.0037   20.6334 C   0  0  0  0  0  0  0  0  0  0  0  0
  -24.6972  -17.3827   23.0060 C   0  0  0  0  0  0  0  0  0  0  0  0
  -24.7960  -28.8436   20.4332 C   0  0  0  0  0  0  0  0  0  0  0  0
  -25.7284  -19.2109   24.2326 C   0  0  0  0  0  0  0  0  0  0  0  0
  -22.6381  -28.9060   21.3616 C   0  0  0  0  0  0  0  0  0  0  0  0
  -20.6057  -27.6312   22.7852 C   0  0  0  0  0  0  0  0  0  0  0  0
  -22.1794  -29.4506   22.5610 C   0  0  0  0  0  0  0  0  0  0  0  0
  -28.3696  -26.6844   19.7510 C   0  0  0  0  0  0  0  0  0  0  0  0
  -29.8190  -21.9266   22.5179 C   0  0  0  0  0  0  0  0  0  0  0  0
  -30.4571  -22.7541   23.4524 C   0  0  0  0  0  0  0  0  0  0  0  0
  -30.4753  -26.0801   19.5618 C   0  0  0  0  0  0  0  0  0  0  0  0
  -30.1599  -28.4440   20.3110 C   0  0  0  0  0  0  0  0  0  0  0  0
  -25.7739  -14.9276   20.8986 C   0  0  0  0  0  0  0  0  0  0  0  0
  -22.5374  -14.8617   21.1065 C   0  0  0  0  0  0  0  0  0  0  0  0
  -19.6865  -16.2492   22.3689 C   0  0  0  0  0  0  0  0  0  0  0  0
  -29.0119  -20.1306   19.5759 C   0  0  0  0  0  0  0  0  0  0  0  0
  -29.4966  -11.7263   19.5019 C   0  0  0  0  0  0  0  0  0  0  0  0
  -25.4284  -14.9997   23.3949 C   0  0  0  0  0  0  0  0  0  0  0  0
  -23.6831  -16.9290   21.9891 C   0  0  0  0  0  0  0  0  0  0  0  0
  -28.0141  -11.8861   19.1746 C   0  0  0  0  0  0  0  0  0  0  0  0
  -30.4959  -22.1463   16.8489 C   0  0  0  0  0  0  0  0  0  0  0  0
  -27.6997  -13.3350   18.8161 C   0  0  0  0  0  0  0  0  0  0  0  0
  -30.1618  -23.5759   17.2717 C   0  0  0  0  0  0  0  0  0  0  0  0
  -29.4707  -21.1455   17.3734 C   0  0  0  0  0  0  0  0  0  0  0  0
  -28.9311  -22.6390   19.2687 C   0  0  0  0  0  0  0  0  0  0  0  0
  -27.9968  -14.2716   19.9934 C   0  0  1  0  0  0  0  0  0  0  0  0
  -24.8181  -14.6857   22.0324 C   0  0  1  0  0  0  0  0  0  0  0  0
  -29.9701  -23.6667   18.7956 C   0  0  2  0  0  0  0  0  0  0  0  0
  -17.1898  -15.9988   22.3312 C   0  0  0  0  0  0  0  0  0  0  0  0
  -22.4580  -16.0973   18.3178 C   0  0  0  0  0  0  0  0  0  0  0  0
  -20.0599  -16.6902   18.7248 C   0  0  0  0  0  0  0  0  0  0  0  0
  -20.7662  -14.2978   18.7101 C   0  0  0  0  0  0  0  0  0  0  0  0
  -29.2217  -18.9463   21.7283 C   0  0  0  0  0  0  0  0  0  0  0  0
  -19.5738  -15.7746   25.2880 C   0  0  0  0  0  0  0  0  0  0  0  0
  -30.4031  -21.0948   21.4566 C   0  0  0  0  0  0  0  0  0  0  0  0
  -26.7376  -22.4580   25.6175 C   0  0  0  0  0  0  0  0  0  0  0  0
  -27.0728  -23.1967   24.3199 C   0  0  0  0  0  0  0  0  0  0  0  0
  -26.7830  -20.9408   25.4780 C   0  0  0  0  0  0  0  0  0  1  0  0
  -21.4186  -15.7708   20.6586 C   0  0  1  0  0  0  0  0  0  0  0  0
  -18.4790  -15.6282   23.0477 C   0  0  2  0  0  0  0  0  0  0  0  0
  -31.8906  -23.0230   23.6350 C   0  0  0  0  0  0  0  0  0  0  0  0
  -21.1960  -15.7231   19.1205 C   0  0  0  0  0  0  0  0  0  0  0  0
  -28.3176  -25.4122   19.3474 N   0  0  0  0  0  0  0  0  0  0  0  0
  -28.4966  -21.9703   22.7025 N   0  0  0  0  0  0  0  0  0  0  0  0
  -29.5469  -23.3336   24.2401 N   0  0  0  0  0  0  0  0  0  0  0  0
  -29.6136  -25.0728   19.2411 N   0  0  0  0  0  0  0  0  0  0  0  0
  -28.4120  -22.8222   23.7370 N   0  0  0  0  0  0  0  0  0  0  0  0
  -23.6176  -15.4770   21.7550 N   0  0  0  0  0  0  0  0  0  0  0  0
  -29.2762  -21.2827   18.8172 N   0  0  0  0  0  0  0  0  0  0  0  0
  -31.8134  -25.9092   19.5093 N   0  0  0  0  0  0  0  0  0  0  0  0
  -29.2161  -29.4319   20.6232 N   0  0  0  0  0  0  0  0  0  0  0  0
  -26.9414  -14.1929   20.9806 N   0  0  0  0  0  0  0  0  0  0  0  0
  -20.2479  -15.3948   21.4437 N   0  0  0  0  0  0  0  0  0  0  0  0
  -29.4617  -20.1229   20.9049 N   0  0  0  0  0  0  0  0  0  0  0  0
  -18.3823  -16.0939   24.4601 N   0  3  0  0  0  0  0  0  0  0  0  0
  -31.3819  -28.7180   20.3818 O   0  0  0  0  0  0  0  0  0  0  0  0
  -25.4738  -15.7209   20.0141 O   0  0  0  0  0  0  0  0  0  0  0  0
  -22.4527  -13.6493   20.8954 O   0  0  0  0  0  0  0  0  0  0  0  0
  -20.0890  -17.3807   22.6304 O   0  0  0  0  0  0  0  0  0  0  0  0
  -28.4166  -19.1603   19.0900 O   0  0  0  0  0  0  0  0  0  0  0  0
  -23.6463  -29.5381   20.6533 O   0  0  0  0  0  0  0  0  0  0  0  0
  -25.8210  -20.5414   24.5026 O   0  0  0  0  0  0  0  0  0  1  0  0
  -19.6289  -27.0198   23.4679 F   0  0  0  0  0  0  0  0  0  0  0  0
  -22.7104  -30.5865   23.0340 F   0  0  0  0  0  0  0  0  0  0  0  0
  -32.7108  -22.3593   22.7537 F   0  0  0  0  0  0  0  0  0  0  0  0
  -32.2436  -24.3440   23.4930 F   0  0  0  0  0  0  0  0  0  0  0  0
  -32.3591  -22.6706   24.8769 F   0  0  0  0  0  0  0  0  0  0  0  0
  1  2  1  0  0  0  0
  1  5  2  0  0  0  0
  2  6  2  0  0  0  0
  3  8  2  0  0  0  0
  3 15  1  0  0  0  0
  4  9  1  0  0  0  0
  4 15  2  0  0  0  0
  5 17  1  0  0  0  0
  6 19  1  0  0  0  0
  7 10  2  0  0  0  0
  7 18  1  0  0  0  0
  8 21  1  0  0  0  0
  9 21  2  0  0  0  0
 10 22  1  0  0  0  0
 11 12  2  0  0  0  0
 11 23  1  0  0  0  0
 12 24  1  0  0  0  0
 13 20  1  0  0  0  0
 13 22  2  0  0  0  0
 14 24  2  0  0  0  0
 14 25  1  0  0  0  0
 15 26  1  0  0  0  0
 16 26  1  0  0  0  0
 16 29  2  0  0  0  0
 16 30  1  0  0  0  0
 17 19  2  0  0  0  0
 17 35  1  0  0  0  0
 18 20  2  0  0  0  0
 18 36  1  0  0  0  0
 19 44  1  0  0  0  0
 20 37  1  0  0  0  0
 21 79  1  0  0  0  0
 22 80  1  0  0  0  0
 23 25  2  0  0  0  0
 23 79  1  0  0  0  0
 24 81  1  0  0  0  0
 25 82  1  0  0  0  0
 26 61  2  0  0  0  0
 27 28  1  0  0  0  0
 27 53  1  0  0  0  0
 27 62  2  0  0  0  0
 28 59  1  0  0  0  0
 28 63  2  0  0  0  0
 29 64  1  0  0  0  0
 29 68  1  0  0  0  0
 30 69  1  0  0  0  0
 30 74  2  0  0  0  0
 31 45  1  0  0  0  0
 31 70  1  0  0  0  0
 31 75  2  0  0  0  0
 32 57  1  0  0  0  0
 32 66  1  0  0  0  0
 32 76  2  0  0  0  0
 33 58  1  0  0  0  0
 33 71  1  0  0  0  0
 33 77  2  0  0  0  0
 34 67  1  0  0  0  0
 34 72  1  0  0  0  0
 34 78  2  0  0  0  0
 35 38  1  0  0  0  0
 36 45  1  0  0  0  0
 37 66  1  0  0  0  0
 38 40  1  0  0  0  0
 39 41  1  0  0  0  0
 39 42  1  0  0  0  0
 40 44  1  0  0  0  0
 41 46  1  0  0  0  0
 42 67  1  0  0  0  0
 43 46  1  0  0  0  0
 43 67  1  0  0  0  0
 44 70  1  0  0  0  0
 45 66  1  0  0  0  0
 46 64  1  0  0  0  0
 47 58  1  0  0  0  0
 48 60  1  0  0  0  0
 49 60  1  0  0  0  0
 50 60  1  0  0  0  0
 51 72  1  0  0  0  0
 52 73  1  0  0  0  0
 53 72  1  0  0  0  0
 54 55  1  0  0  0  0
 54 56  1  0  0  0  0
 55 65  1  0  0  0  0
 56 80  1  0  0  0  0
 57 60  1  0  0  0  0
 57 71  1  0  0  0  0
 58 73  1  0  0  0  0
 59 83  1  0  0  0  0
 59 84  1  0  0  0  0
 59 85  1  0  0  0  0
 61 64  1  0  0  0  0
 62 65  1  0  0  0  0
 63 65  1  0  0  0  0
M  CHG  1  73   1
M  ISO  4  34 100  56 101  72 100  80 101
M  END
> <Batch ID>
0062

> <Smiles>
CNC(C)C(=O)NC(C(=O)N1Cc2cc([101O:1][101CH2:1]CCn3nc(C[100N:0](C)[100C:0](=O)N4CCCC(n5nc(-c6ccc(Oc7ccc(F)cc7F)cc6)c(C(N)=O)c5N)C4)c(C(F)(F)F)n3)ccc2CC1C(=O)NC1CCCc2ccccc21)C(C)(C)C

> <Shape>
0.244

> <Color>
0.064

> <Negative vol penalty>
0.000

$$$$

  -OEChem-04052318003D

 87 95  0     1  0  0  0  0  0999 V2000
  -23.3052  -18.1194   24.0444 C   0  0  0  0  0  0  0  0  0  0  0  0
  -24.3271  -18.8783   23.4830 C   0  0  0  0  0  0  0  0  0  0  0  0
  -25.9476  -12.7391   21.6255 C   0  0  0  0  0  0  0  0  0  0  0  0
  -25.9075  -13.2423   19.2628 C   0  0  0  0  0  0  0  0  0  0  0  0
  -21.9760  -18.4994   23.8631 C   0  0  0  0  0  0  0  0  0  0  0  0
  -24.0203  -20.0170   22.7389 C   0  0  0  0  0  0  0  0  0  0  0  0
  -27.2641  -25.2029   22.4391 C   0  0  0  0  0  0  0  0  0  0  0  0
  -24.7864  -11.9796   21.4835 C   0  0  0  0  0  0  0  0  0  0  0  0
  -24.7462  -12.4827   19.1208 C   0  0  0  0  0  0  0  0  0  0  0  0
  -28.1827  -25.6821   21.5062 C   0  0  0  0  0  0  0  0  0  0  0  0
  -23.9467   -8.8948   20.3826 C   0  0  0  0  0  0  0  0  0  0  0  0
  -23.9059   -7.6495   21.0096 C   0  0  0  0  0  0  0  0  0  0  0  0
  -26.4250  -26.9330   20.4269 C   0  0  0  0  0  0  0  0  0  0  0  0
  -21.9944   -8.3633   22.3033 C   0  0  0  0  0  0  0  0  0  0  0  0
  -31.6785  -23.0406   17.8855 C   0  0  0  0  0  0  0  0  0  0  0  0
  -26.5082  -13.3705   20.5152 C   0  0  0  0  0  0  0  0  0  0  0  0
  -29.0367  -13.7076   20.5431 C   0  0  0  0  0  0  0  0  0  0  0  0
  -21.6532  -19.6487   23.1246 C   0  0  0  0  0  0  0  0  0  0  0  0
  -25.9146  -25.5772   22.3662 C   0  0  0  0  0  0  0  0  0  0  0  0
  -22.6856  -20.4119   22.5465 C   0  0  0  0  0  0  0  0  0  0  0  0
  -25.4918  -26.4592   21.3616 C   0  0  0  0  0  0  0  0  0  0  0  0
  -24.1857  -11.8513   20.2312 C   0  0  0  0  0  0  0  0  0  0  0  0
  -27.7627  -26.5450   20.4982 C   0  0  0  0  0  0  0  0  0  0  0  0
  -23.0114   -9.8744   20.7161 C   0  0  0  0  0  0  0  0  0  0  0  0
  -22.9298   -7.3837   21.9699 C   0  0  0  0  0  0  0  0  0  0  0  0
  -22.0352   -9.6087   21.6763 C   0  0  0  0  0  0  0  0  0  0  0  0
  -27.7074  -14.1558   20.6613 C   0  0  0  0  0  0  0  0  0  0  0  0
  -31.0226  -24.1140   17.2535 C   0  0  0  0  0  0  0  0  0  0  0  0
  -30.9554  -21.9321   17.5182 C   0  0  0  0  0  0  0  0  0  0  0  0
  -29.7982  -14.8283   20.7680 C   0  0  0  0  0  0  0  0  0  0  0  0
  -29.5382  -12.3955   20.2556 C   0  0  0  0  0  0  0  0  0  0  0  0
  -23.1758  -24.0228   21.9345 C   0  0  0  0  0  0  0  0  0  0  0  0
  -21.8794  -26.9373   22.5237 C   0  0  0  0  0  0  0  0  0  0  0  0
  -22.2575  -30.3290   22.5287 C   0  0  0  0  0  0  0  0  0  0  0  0
  -29.6083  -20.5350   19.6786 C   0  0  0  0  0  0  0  0  0  0  0  0
  -20.1998  -19.9932   22.9160 C   0  0  0  0  0  0  0  0  0  0  0  0
  -24.9414  -25.0728   23.3961 C   0  0  0  0  0  0  0  0  0  0  0  0
  -24.0581  -26.9075   21.2518 C   0  0  0  0  0  0  0  0  0  0  0  0
  -19.9764  -21.4226   22.4291 C   0  0  0  0  0  0  0  0  0  0  0  0
  -29.0516  -19.1794   22.9729 C   0  0  0  0  0  0  0  0  0  0  0  0
  -20.9350  -21.7545   21.2899 C   0  0  0  0  0  0  0  0  0  0  0  0
  -28.7353  -17.7103   22.6950 C   0  0  0  0  0  0  0  0  0  0  0  0
  -28.5235  -20.0843   21.8643 C   0  0  0  0  0  0  0  0  0  0  0  0
  -28.6947  -18.2374   20.2161 C   0  0  0  0  0  0  0  0  0  0  0  0
  -22.3941  -21.6676   21.7536 C   0  0  1  0  0  0  0  0  0  0  0  0
  -23.4928  -25.1125   22.9193 C   0  0  1  0  0  0  0  0  0  0  0  0
  -29.2368  -17.2916   21.3015 C   0  0  2  0  0  0  0  0  0  0  0  0
  -21.0106  -32.4494   23.0251 C   0  0  0  0  0  0  0  0  0  0  0  0
  -29.0045  -21.6792   14.5559 C   0  0  0  0  0  0  0  0  0  0  0  0
  -27.5235  -21.9707   16.5877 C   0  0  0  0  0  0  0  0  0  0  0  0
  -32.6404  -25.9065   18.1810 C   0  0  0  0  0  0  0  0  0  0  0  0
  -31.7375  -26.0816   15.8791 C   0  0  0  0  0  0  0  0  0  0  0  0
  -31.3539  -19.6220   16.5939 C   0  0  0  0  0  0  0  0  0  0  0  0
  -32.3000  -20.2577   18.8455 C   0  0  0  0  0  0  0  0  0  0  0  0
  -20.3460  -26.6464   19.9019 C   0  0  0  0  0  0  0  0  0  0  0  0
  -19.8896  -29.1070   19.9766 C   0  0  0  0  0  0  0  0  0  0  0  0
  -19.0194  -27.6235   21.7834 C   0  0  0  0  0  0  0  0  0  0  0  0
  -24.1769  -31.0989   24.6459 C   0  0  0  0  0  0  0  0  0  0  0  0
  -30.2029  -26.4646   17.8354 C   0  0  0  0  0  0  0  0  0  0  0  0
  -29.7641  -26.1705   19.2692 C   0  0  0  0  0  0  0  0  0  1  0  0
  -21.4948  -28.1271   21.6778 C   0  0  1  0  0  0  0  0  0  0  0  0
  -21.9356  -31.3769   23.5789 C   0  0  2  0  0  0  0  0  0  0  0  0
  -28.9199  -21.6040   16.0817 C   0  0  0  0  0  0  0  0  0  0  0  0
  -31.3946  -25.6066   17.3132 C   0  0  0  0  0  0  0  0  0  0  0  0
  -31.1314  -20.5068   17.8516 C   0  0  0  0  0  0  0  0  0  0  0  0
  -20.2141  -27.8662   20.8355 C   0  0  0  0  0  0  0  0  0  0  0  0
  -27.6257  -15.4595   20.9399 N   0  0  0  0  0  0  0  0  0  0  0  0
  -29.9643  -23.7227   16.5388 N   0  0  0  0  0  0  0  0  0  0  0  0
  -29.9497  -22.3911   16.7194 N   0  0  0  0  0  0  0  0  0  0  0  0
  -28.9132  -15.8401   20.9986 N   0  0  0  0  0  0  0  0  0  0  0  0
  -23.1432  -26.3819   22.2786 N   0  0  0  0  0  0  0  0  0  0  0  0
  -28.9859  -19.6369   20.5511 N   0  0  0  0  0  0  0  0  0  0  0  0
  -31.1317  -15.0370   20.7891 N   0  0  0  0  0  0  0  0  0  0  0  0
  -28.6179  -11.3584   20.0511 N   0  0  0  0  0  0  0  0  0  0  0  0
  -22.7526  -22.8435   22.5173 N   0  0  0  0  0  0  0  0  0  0  0  0
  -21.3889  -29.2599   22.5909 N   0  0  0  0  0  0  0  0  0  0  0  0
  -23.1856  -32.0343   24.0548 N   0  3  0  0  0  0  0  0  0  0  0  0
  -30.7663  -12.1466   20.1984 O   0  0  0  0  0  0  0  0  0  0  0  0
  -23.3043  -24.2366   20.7347 O   0  0  0  0  0  0  0  0  0  0  0  0
  -21.0905  -26.5206   23.3756 O   0  0  0  0  0  0  0  0  0  0  0  0
  -23.1843  -30.4487   21.7304 O   0  0  0  0  0  0  0  0  0  0  0  0
  -29.8088  -21.7214   19.9325 O   0  0  0  0  0  0  0  0  0  0  0  0
  -23.0527  -11.1100   20.0922 O   0  0  0  0  0  0  0  0  0  0  0  0
  -28.6572  -27.0136   19.5859 O   0  0  0  0  0  0  0  0  0  1  0  0
  -29.9779  -19.9527   18.4952 O   0  0  0  0  0  0  0  0  0  0  0  0
  -22.8898   -6.1872   22.5708 F   0  0  0  0  0  0  0  0  0  0  0  0
  -21.1333  -10.5455   22.0000 F   0  0  0  0  0  0  0  0  0  0  0  0
  1  2  1  0  0  0  0
  1  5  2  0  0  0  0
  2  6  2  0  0  0  0
  3  8  2  0  0  0  0
  3 16  1  0  0  0  0
  4  9  1  0  0  0  0
  4 16  2  0  0  0  0
  5 18  1  0  0  0  0
  6 20  1  0  0  0  0
  7 10  2  0  0  0  0
  7 19  1  0  0  0  0
  8 22  1  0  0  0  0
  9 22  2  0  0  0  0
 10 23  1  0  0  0  0
 11 12  2  0  0  0  0
 11 24  1  0  0  0  0
 12 25  1  0  0  0  0
 13 21  1  0  0  0  0
 13 23  2  0  0  0  0
 14 25  2  0  0  0  0
 14 26  1  0  0  0  0
 15 28  1  0  0  0  0
 15 29  2  0  0  0  0
 16 27  1  0  0  0  0
 17 27  1  0  0  0  0
 17 30  2  0  0  0  0
 17 31  1  0  0  0  0
 18 20  2  0  0  0  0
 18 36  1  0  0  0  0
 19 21  2  0  0  0  0
 19 37  1  0  0  0  0
 20 45  1  0  0  0  0
 21 38  1  0  0  0  0
 22 83  1  0  0  0  0
 23 84  1  0  0  0  0
 24 26  2  0  0  0  0
 24 83  1  0  0  0  0
 25 86  1  0  0  0  0
 26 87  1  0  0  0  0
 27 67  2  0  0  0  0
 28 64  1  0  0  0  0
 28 68  2  0  0  0  0
 29 65  1  0  0  0  0
 29 69  1  0  0  0  0
 30 70  1  0  0  0  0
 30 73  1  0  0  0  0
 31 74  1  0  0  0  0
 31 78  2  0  0  0  0
 32 46  1  0  0  0  0
 32 75  1  0  0  0  0
 32 79  2  0  0  0  0
 33 61  1  0  0  0  0
 33 71  1  0  0  0  0
 33 80  2  0  0  0  0
 34 62  1  0  0  0  0
 34 76  1  0  0  0  0
 34 81  2  0  0  0  0
 35 72  1  0  0  0  0
 35 82  2  0  0  0  0
 35 85  1  0  0  0  0
 36 39  1  0  0  0  0
 37 46  1  0  0  0  0
 38 71  1  0  0  0  0
 39 41  1  0  0  0  0
 40 42  1  0  0  0  0
 40 43  1  0  0  0  0
 41 45  1  0  0  0  0
 42 47  1  0  0  0  0
 43 72  1  0  0  0  0
 44 47  1  0  0  0  0
 44 72  1  0  0  0  0
 45 75  1  0  0  0  0
 46 71  1  0  0  0  0
 47 70  1  0  0  0  0
 48 62  1  0  0  0  0
 49 63  1  0  0  0  0
 50 63  1  0  0  0  0
 51 64  1  0  0  0  0
 52 64  1  0  0  0  0
 53 65  1  0  0  0  0
 54 65  1  0  0  0  0
 55 66  1  0  0  0  0
 56 66  1  0  0  0  0
 57 66  1  0  0  0  0
 58 77  1  0  0  0  0
 59 60  1  0  0  0  0
 59 64  1  0  0  0  0
 60 84  1  0  0  0  0
 61 66  1  0  0  0  0
 61 76  1  0  0  0  0
 62 77  1  0  0  0  0
 63 69  1  0  0  0  0
 65 85  1  0  0  0  0
 67 70  1  0  0  0  0
 68 69  1  0  0  0  0
M  CHG  1  77   1
M  ISO  4  35 100  60 101  84 101  85 100
M  END
> <Batch ID>
0062

> <Smiles>
CNC(C)C(=O)NC(C(=O)N1Cc2cc([101O:1][101CH2:1]CC(C)(C)c3cc(C(C)(C)[100O:0][100C:0](=O)N4CCCC(n5nc(-c6ccc(Oc7ccc(F)cc7F)cc6)c(C(N)=O)c5N)C4)n(C(C)C)n3)ccc2CC1C(=O)NC1CCCc2ccccc21)C(C)(C)C

> <Shape>
0.251

> <Color>
0.071

> <Negative vol penalty>
0.000

$$$$

  -OEChem-04052318003D

 86 95  0     1  0  0  0  0  0999 V2000
  -18.9117  -30.8676   26.7693 C   0  0  0  0  0  0  0  0  0  0  0  0
  -20.0416  -30.1116   26.4739 C   0  0  0  0  0  0  0  0  0  0  0  0
  -26.5226  -13.1029   19.0194 C   0  0  0  0  0  0  0  0  0  0  0  0
  -26.1567  -13.2937   21.4000 C   0  0  0  0  0  0  0  0  0  0  0  0
  -17.8058  -30.8270   25.9212 C   0  0  0  0  0  0  0  0  0  0  0  0
  -20.0658  -29.3136   25.3306 C   0  0  0  0  0  0  0  0  0  0  0  0
  -24.4117  -29.7276   22.7642 C   0  0  0  0  0  0  0  0  0  0  0  0
  -25.2560  -12.5380   18.8700 C   0  0  0  0  0  0  0  0  0  0  0  0
  -24.8901  -12.7288   21.2505 C   0  0  0  0  0  0  0  0  0  0  0  0
  -25.5140  -29.0344   23.2626 C   0  0  0  0  0  0  0  0  0  0  0  0
  -23.5710   -9.6428   20.8412 C   0  0  0  0  0  0  0  0  0  0  0  0
  -23.1920   -8.6526   21.7475 C   0  0  0  0  0  0  0  0  0  0  0  0
  -25.1475  -27.2929   21.6340 C   0  0  0  0  0  0  0  0  0  0  0  0
  -21.3241  -10.0129   22.4528 C   0  0  0  0  0  0  0  0  0  0  0  0
  -31.4573  -25.8212   18.3262 C   0  0  0  0  0  0  0  0  0  0  0  0
  -26.9730  -13.4807   20.2844 C   0  0  0  0  0  0  0  0  0  0  0  0
  -29.5178  -13.4780   20.1077 C   0  0  0  0  0  0  0  0  0  0  0  0
  -17.8202  -30.0357   24.7618 C   0  0  0  0  0  0  0  0  0  0  0  0
  -23.6613  -29.2025   21.7024 C   0  0  0  0  0  0  0  0  0  0  0  0
  -18.9585  -29.2614   24.4668 C   0  0  0  0  0  0  0  0  0  0  0  0
  -24.0377  -27.9827   21.1224 C   0  0  0  0  0  0  0  0  0  0  0  0
  -24.4397  -12.3510   19.9855 C   0  0  0  0  0  0  0  0  0  0  0  0
  -25.8803  -27.8155   22.6994 C   0  0  0  0  0  0  0  0  0  0  0  0
  -22.8266  -10.8182   20.7408 C   0  0  0  0  0  0  0  0  0  0  0  0
  -22.0685   -8.8376   22.5532 C   0  0  0  0  0  0  0  0  0  0  0  0
  -21.7031  -11.0033   21.5466 C   0  0  0  0  0  0  0  0  0  0  0  0
  -28.2814  -14.0637   20.4395 C   0  0  0  0  0  0  0  0  0  0  0  0
  -30.4497  -14.4295   20.4437 C   0  0  0  0  0  0  0  0  0  0  0  0
  -31.1474  -25.8027   20.3904 C   0  0  0  0  0  0  0  0  0  0  0  0
  -29.7989  -12.1892   19.5458 C   0  0  0  0  0  0  0  0  0  0  0  0
  -20.6461  -28.2663   21.3340 C   0  0  0  0  0  0  0  0  0  0  0  0
  -21.5345  -27.9443   18.2308 C   0  0  0  0  0  0  0  0  0  0  0  0
  -24.4046  -26.7074   16.4282 C   0  0  0  0  0  0  0  0  0  0  0  0
  -29.6128  -20.4208   21.0108 C   0  0  0  0  0  0  0  0  0  0  0  0
  -16.5831  -29.9875   23.9004 C   0  0  0  0  0  0  0  0  0  0  0  0
  -22.4911  -29.9755   21.1588 C   0  0  0  0  0  0  0  0  0  0  0  0
  -23.2773  -27.3856   19.9674 C   0  0  0  0  0  0  0  0  0  0  0  0
  -16.8307  -29.4063   22.5108 C   0  0  0  0  0  0  0  0  0  0  0  0
  -31.8366  -27.2630   23.9233 C   0  0  0  0  0  0  0  0  0  0  0  0
  -31.1903  -18.0641   23.4500 C   0  0  0  0  0  0  0  0  0  0  0  0
  -17.6556  -28.1267   22.6066 C   0  0  0  0  0  0  0  0  0  0  0  0
  -32.0763  -26.9460   22.4489 C   0  0  0  0  0  0  0  0  0  0  0  0
  -30.5011  -27.9709   24.1376 C   0  0  0  0  0  0  0  0  0  0  0  0
  -30.6581  -16.7235   22.9459 C   0  0  0  0  0  0  0  0  0  0  0  0
  -29.5699  -26.8510   22.0707 C   0  0  0  0  0  0  0  0  0  0  0  0
  -30.2203  -19.1965   23.1352 C   0  0  0  0  0  0  0  0  0  0  0  0
  -29.3393  -17.9723   21.1751 C   0  0  0  0  0  0  0  0  0  0  0  0
  -19.0323  -28.4027   23.2229 C   0  0  1  0  0  0  0  0  0  0  0  0
  -30.9143  -26.1328   21.8537 C   0  0  1  0  0  0  0  0  0  0  0  0
  -21.4910  -29.0986   20.4115 C   0  0  1  0  0  0  0  0  0  0  0  0
  -29.3327  -27.1640   23.5560 C   0  0  2  0  0  0  0  0  0  0  0  0
  -30.2965  -16.8013   21.4529 C   0  0  2  0  0  0  0  0  0  0  0  0
  -25.2878  -27.3075   14.1572 C   0  0  0  0  0  0  0  0  0  0  0  0
  -19.8775  -25.5664   17.2771 C   0  0  0  0  0  0  0  0  0  0  0  0
  -21.7247  -25.0081   15.6820 C   0  0  0  0  0  0  0  0  0  0  0  0
  -20.5169  -27.1811   15.4776 C   0  0  0  0  0  0  0  0  0  0  0  0
  -30.0591  -21.6928   23.1515 C   0  0  0  0  0  0  0  0  0  0  0  0
  -27.0779  -27.3656   17.5140 C   0  0  0  0  0  0  0  0  0  0  0  0
  -28.0138  -27.9117   23.7456 C   0  0  0  0  0  0  0  0  0  1  0  0
  -31.1978  -23.2955   20.6668 C   0  0  0  0  0  0  0  0  0  0  0  0
  -29.7690  -22.8815   21.0092 C   0  0  0  0  0  0  0  0  0  0  0  0
  -22.1245  -26.8323   17.3976 C   0  0  1  0  0  0  0  0  0  0  0  0
  -25.4175  -27.5329   15.6556 C   0  0  2  0  0  0  0  0  0  0  0  0
  -21.0660  -26.1490   16.4865 C   0  0  0  0  0  0  0  0  0  0  0  0
  -31.2660  -26.6499   19.3946 N   0  0  0  0  0  0  0  0  0  0  0  0
  -31.4645  -24.5146   18.5984 N   0  0  0  0  0  0  0  0  0  0  0  0
  -28.4125  -15.2920   20.9476 N   0  0  0  0  0  0  0  0  0  0  0  0
  -29.7423  -15.4859   20.9375 N   0  0  0  0  0  0  0  0  0  0  0  0
  -31.2643  -24.5301   19.9250 N   0  0  0  0  0  0  0  0  0  0  0  0
  -22.1370  -28.1762   19.4754 N   0  0  0  0  0  0  0  0  0  0  0  0
  -29.8690  -19.2292   21.7092 N   0  0  0  0  0  0  0  0  0  0  0  0
  -31.7969  -14.4571   20.3621 N   0  0  0  0  0  0  0  0  0  0  0  0
  -28.7242  -11.3358   19.2608 N   0  0  0  0  0  0  0  0  0  0  0  0
  -19.9130  -29.0035   22.2441 N   0  0  0  0  0  0  0  0  0  0  0  0
  -23.2480  -27.4169   16.6735 N   0  0  0  0  0  0  0  0  0  0  0  0
  -29.7165  -21.6193   21.7330 N   0  0  0  0  0  0  0  0  0  0  0  0
  -26.8032  -27.1704   16.0671 N   0  3  0  0  0  0  0  0  0  0  0  0
  -30.9693  -11.7993   19.3189 O   0  0  0  0  0  0  0  0  0  0  0  0
  -20.6573  -27.0456   21.2269 O   0  0  0  0  0  0  0  0  0  0  0  0
  -20.5789  -28.5883   17.7905 O   0  0  0  0  0  0  0  0  0  0  0  0
  -24.6166  -25.5478   16.7758 O   0  0  0  0  0  0  0  0  0  0  0  0
  -29.3190  -20.4143   19.8085 O   0  0  0  0  0  0  0  0  0  0  0  0
  -23.2037  -11.8001   19.8400 O   0  0  0  0  0  0  0  0  0  0  0  0
  -26.9553  -27.1365   23.1843 O   0  0  0  0  0  0  0  0  0  1  0  0
  -21.7038   -7.8859   23.4224 F   0  0  0  0  0  0  0  0  0  0  0  0
  -20.9833  -12.1298   21.4537 F   0  0  0  0  0  0  0  0  0  0  0  0
  1  2  1  0  0  0  0
  1  5  2  0  0  0  0
  2  6  2  0  0  0  0
  3  8  2  0  0  0  0
  3 16  1  0  0  0  0
  4  9  1  0  0  0  0
  4 16  2  0  0  0  0
  5 18  1  0  0  0  0
  6 20  1  0  0  0  0
  7 10  2  0  0  0  0
  7 19  1  0  0  0  0
  8 22  1  0  0  0  0
  9 22  2  0  0  0  0
 10 23  1  0  0  0  0
 11 12  2  0  0  0  0
 11 24  1  0  0  0  0
 12 25  1  0  0  0  0
 13 21  1  0  0  0  0
 13 23  2  0  0  0  0
 14 25  2  0  0  0  0
 14 26  1  0  0  0  0
 15 65  1  0  0  0  0
 15 66  2  0  0  0  0
 16 27  1  0  0  0  0
 17 27  1  0  0  0  0
 17 28  2  0  0  0  0
 17 30  1  0  0  0  0
 18 20  2  0  0  0  0
 18 35  1  0  0  0  0
 19 21  2  0  0  0  0
 19 36  1  0  0  0  0
 20 48  1  0  0  0  0
 21 37  1  0  0  0  0
 22 83  1  0  0  0  0
 23 84  1  0  0  0  0
 24 26  2  0  0  0  0
 24 83  1  0  0  0  0
 25 85  1  0  0  0  0
 26 86  1  0  0  0  0
 27 67  2  0  0  0  0
 28 68  1  0  0  0  0
 28 72  1  0  0  0  0
 29 49  1  0  0  0  0
 29 65  2  0  0  0  0
 29 69  1  0  0  0  0
 30 73  1  0  0  0  0
 30 78  2  0  0  0  0
 31 50  1  0  0  0  0
 31 74  1  0  0  0  0
 31 79  2  0  0  0  0
 32 62  1  0  0  0  0
 32 70  1  0  0  0  0
 32 80  2  0  0  0  0
 33 63  1  0  0  0  0
 33 75  1  0  0  0  0
 33 81  2  0  0  0  0
 34 71  1  0  0  0  0
 34 76  1  0  0  0  0
 34 82  2  0  0  0  0
 35 38  1  0  0  0  0
 36 50  1  0  0  0  0
 37 70  1  0  0  0  0
 38 41  1  0  0  0  0
 39 42  1  0  0  0  0
 39 43  1  0  0  0  0
 40 44  1  0  0  0  0
 40 46  1  0  0  0  0
 41 48  1  0  0  0  0
 42 49  1  0  0  0  0
 43 51  1  0  0  0  0
 44 52  1  0  0  0  0
 45 49  1  0  0  0  0
 45 51  1  0  0  0  0
 46 71  1  0  0  0  0
 47 52  1  0  0  0  0
 47 71  1  0  0  0  0
 48 74  1  0  0  0  0
 50 70  1  0  0  0  0
 51 59  1  0  0  0  0
 52 68  1  0  0  0  0
 53 63  1  0  0  0  0
 54 64  1  0  0  0  0
 55 64  1  0  0  0  0
 56 64  1  0  0  0  0
 57 76  1  0  0  0  0
 58 77  1  0  0  0  0
 59 84  1  0  0  0  0
 60 61  1  0  0  0  0
 60 69  1  0  0  0  0
 61 76  1  0  0  0  0
 62 64  1  0  0  0  0
 62 75  1  0  0  0  0
 63 77  1  0  0  0  0
 66 69  1  0  0  0  0
 67 68  1  0  0  0  0
M  CHG  1  77   1
M  ISO  4  34 100  59 101  76 100  84 101
M  END
> <Batch ID>
0062

> <Smiles>
CNC(C)C(=O)NC(C(=O)N1Cc2cc([101O:1][101CH2:1]C3CCCC(c4ncnn4CC[100N:0](C)[100C:0](=O)N4CCCC(n5nc(-c6ccc(Oc7ccc(F)cc7F)cc6)c(C(N)=O)c5N)C4)C3)ccc2CC1C(=O)NC1CCCc2ccccc21)C(C)(C)C

> <Shape>
0.271

> <Color>
0.080

> <Negative vol penalty>
0.000

$$$$

  -OEChem-04052318003D

 85 93  0     1  0  0  0  0  0999 V2000
  -20.2725  -32.8498   16.9380 C   0  0  0  0  0  0  0  0  0  0  0  0
  -20.0944  -31.5096   17.2659 C   0  0  0  0  0  0  0  0  0  0  0  0
  -22.9491  -10.2766   20.4460 C   0  0  0  0  0  0  0  0  0  0  0  0
  -24.4152   -9.2707   22.0818 C   0  0  0  0  0  0  0  0  0  0  0  0
  -21.4337  -33.5140   17.3309 C   0  0  0  0  0  0  0  0  0  0  0  0
  -21.0780  -30.8325   17.9860 C   0  0  0  0  0  0  0  0  0  0  0  0
  -21.8491  -25.6436   22.8642 C   0  0  0  0  0  0  0  0  0  0  0  0
  -22.1702   -9.1196   20.4325 C   0  0  0  0  0  0  0  0  0  0  0  0
  -23.6362   -8.1137   22.0684 C   0  0  0  0  0  0  0  0  0  0  0  0
  -22.5511  -24.4572   23.0730 C   0  0  0  0  0  0  0  0  0  0  0  0
  -20.7077   -7.0690   23.3923 C   0  0  0  0  0  0  0  0  0  0  0  0
  -20.3819   -6.4946   24.6209 C   0  0  0  0  0  0  0  0  0  0  0  0
  -24.4804  -25.7281   23.7670 C   0  0  0  0  0  0  0  0  0  0  0  0
  -21.5015   -4.4566   23.9652 C   0  0  0  0  0  0  0  0  0  0  0  0
  -28.5838  -18.7960   22.1431 C   0  0  0  0  0  0  0  0  0  0  0  0
  -24.0716  -10.3522   21.2706 C   0  0  0  0  0  0  0  0  0  0  0  0
  -24.7175  -12.6699   22.1183 C   0  0  0  0  0  0  0  0  0  0  0  0
  -22.4277  -32.8474   18.0645 C   0  0  0  0  0  0  0  0  0  0  0  0
  -22.4621  -26.8834   23.0952 C   0  0  0  0  0  0  0  0  0  0  0  0
  -22.2541  -31.4881   18.3879 C   0  0  0  0  0  0  0  0  0  0  0  0
  -23.7832  -26.9287   23.5629 C   0  0  0  0  0  0  0  0  0  0  0  0
  -22.5138   -8.0381   21.2437 C   0  0  0  0  0  0  0  0  0  0  0  0
  -23.8679  -24.4994   23.5217 C   0  0  0  0  0  0  0  0  0  0  0  0
  -21.4304   -6.3371   22.4501 C   0  0  0  0  0  0  0  0  0  0  0  0
  -20.7788   -5.1885   24.9074 C   0  0  0  0  0  0  0  0  0  0  0  0
  -21.8273   -5.0310   22.7365 C   0  0  0  0  0  0  0  0  0  0  0  0
  -24.8769  -11.5469   21.2845 C   0  0  0  0  0  0  0  0  0  0  0  0
  -28.6105  -17.8288   21.1626 C   0  0  0  0  0  0  0  0  0  0  0  0
  -26.4196  -19.2916   21.5954 C   0  0  0  0  0  0  0  0  0  0  0  0
  -26.4464  -18.3249   20.6144 C   0  0  0  0  0  0  0  0  0  0  0  0
  -25.7253  -13.5235   21.7411 C   0  0  0  0  0  0  0  0  0  0  0  0
  -23.7453  -12.9192   23.1422 C   0  0  0  0  0  0  0  0  0  0  0  0
  -23.1811  -29.4008   21.2926 C   0  0  0  0  0  0  0  0  0  0  0  0
  -24.0426  -30.7012   24.1368 C   0  0  0  0  0  0  0  0  0  0  0  0
  -25.0589  -30.2106   27.3575 C   0  0  0  0  0  0  0  0  0  0  0  0
  -31.2621  -13.9912   20.5403 C   0  0  0  0  0  0  0  0  0  0  0  0
  -23.6870  -33.5943   18.4262 C   0  0  0  0  0  0  0  0  0  0  0  0
  -21.6825  -28.1534   22.8908 C   0  0  0  0  0  0  0  0  0  0  0  0
  -24.4803  -28.2336   23.8453 C   0  0  0  0  0  0  0  0  0  0  0  0
  -24.5129  -32.9068   19.5104 C   0  0  0  0  0  0  0  0  0  0  0  0
  -28.8613  -13.3994   17.7857 C   0  0  0  0  0  0  0  0  0  0  0  0
  -24.6553  -31.4182   19.2096 C   0  0  0  0  0  0  0  0  0  0  0  0
  -27.6253  -12.8895   18.5249 C   0  0  0  0  0  0  0  0  0  0  0  0
  -30.1474  -13.0730   18.5388 C   0  0  0  0  0  0  0  0  0  0  0  0
  -28.9228  -13.0429   20.6868 C   0  0  0  0  0  0  0  0  0  0  0  0
  -23.2871  -30.7260   19.1894 C   0  0  1  0  0  0  0  0  0  0  0  0
  -22.5731  -29.3716   22.6663 C   0  0  1  0  0  0  0  0  0  0  0  0
  -27.6069  -13.3963   19.9776 C   0  0  2  0  0  0  0  0  0  0  0  0
  -25.3930  -16.7556   18.9669 C   0  0  0  0  0  0  0  0  0  0  0  0
  -25.7206  -31.4659   29.4273 C   0  0  0  0  0  0  0  0  0  0  0  0
  -26.7542  -31.3288   22.8863 C   0  0  0  0  0  0  0  0  0  0  0  0
  -27.6571  -31.6875   25.1938 C   0  0  0  0  0  0  0  0  0  0  0  0
  -25.8263  -33.1463   24.3321 C   0  0  0  0  0  0  0  0  0  0  0  0
  -32.3139  -15.4981   22.1842 C   0  0  0  0  0  0  0  0  0  0  0  0
  -22.8358  -29.0376   28.9198 C   0  0  0  0  0  0  0  0  0  0  0  0
  -29.8387  -17.0198   20.9328 C   0  0  0  0  0  0  0  0  0  0  0  0
  -25.1868  -20.1227   21.8469 C   0  0  0  0  0  0  0  0  0  0  0  0
  -25.2579  -18.0558   19.7560 C   0  0  0  0  0  0  0  0  0  0  0  0
  -25.4390  -21.3473   22.7291 C   0  0  0  0  0  0  0  0  0  0  0  0
  -29.8941  -15.7320   21.7654 C   0  0  0  0  0  0  0  0  0  0  0  0
  -24.2071  -22.2271   22.9072 C   0  0  0  0  0  0  0  0  0  1  0  0
  -25.3141  -30.7486   24.9493 C   0  0  1  0  0  0  0  0  0  0  0  0
  -24.5788  -30.8088   28.6675 C   0  0  2  0  0  0  0  0  0  0  0  0
  -26.3757  -31.7031   24.3333 C   0  0  0  0  0  0  0  0  0  0  0  0
  -27.4878  -19.5447   22.3772 N   0  0  0  0  0  0  0  0  0  0  0  0
  -25.9051  -11.6727   20.4412 N   0  0  0  0  0  0  0  0  0  0  0  0
  -27.5422  -17.5760   20.3806 N   0  0  0  0  0  0  0  0  0  0  0  0
  -26.4007  -12.8848   20.7430 N   0  0  0  0  0  0  0  0  0  0  0  0
  -23.6781  -29.4481   23.6241 N   0  0  0  0  0  0  0  0  0  0  0  0
  -30.0860  -13.5273   19.9284 N   0  0  0  0  0  0  0  0  0  0  0  0
  -26.0908  -14.7505   22.1692 N   0  0  0  0  0  0  0  0  0  0  0  0
  -22.7805  -11.9361   23.4012 N   0  0  0  0  0  0  0  0  0  0  0  0
  -22.8153  -30.4996   20.5387 N   0  0  0  0  0  0  0  0  0  0  0  0
  -24.9166  -31.0952   26.3095 N   0  0  0  0  0  0  0  0  0  0  0  0
  -31.1227  -14.9770   21.5290 N   0  0  0  0  0  0  0  0  0  0  0  0
  -23.9854  -29.7509   29.5334 N   0  3  0  0  0  0  0  0  0  0  0  0
  -23.7224  -13.9892   23.7965 O   0  0  0  0  0  0  0  0  0  0  0  0
  -23.9281  -28.4944   20.9431 O   0  0  0  0  0  0  0  0  0  0  0  0
  -23.3929  -31.7363   23.9694 O   0  0  0  0  0  0  0  0  0  0  0  0
  -25.5181  -29.0737   27.2731 O   0  0  0  0  0  0  0  0  0  0  0  0
  -32.3741  -13.5564   20.2142 O   0  0  0  0  0  0  0  0  0  0  0  0
  -21.7538   -6.9090   21.2310 O   0  0  0  0  0  0  0  0  0  0  0  0
  -24.5556  -23.3430   23.7257 O   0  0  0  0  0  0  0  0  0  1  0  0
  -20.4671   -4.6376   26.0879 F   0  0  0  0  0  0  0  0  0  0  0  0
  -22.5228   -4.3234   21.8357 F   0  0  0  0  0  0  0  0  0  0  0  0
  1  2  1  0  0  0  0
  1  5  2  0  0  0  0
  2  6  2  0  0  0  0
  3  8  2  0  0  0  0
  3 16  1  0  0  0  0
  4  9  1  0  0  0  0
  4 16  2  0  0  0  0
  5 18  1  0  0  0  0
  6 20  1  0  0  0  0
  7 10  2  0  0  0  0
  7 19  1  0  0  0  0
  8 22  1  0  0  0  0
  9 22  2  0  0  0  0
 10 23  1  0  0  0  0
 11 12  2  0  0  0  0
 11 24  1  0  0  0  0
 12 25  1  0  0  0  0
 13 21  1  0  0  0  0
 13 23  2  0  0  0  0
 14 25  2  0  0  0  0
 14 26  1  0  0  0  0
 15 28  1  0  0  0  0
 15 65  2  0  0  0  0
 16 27  1  0  0  0  0
 17 27  1  0  0  0  0
 17 31  2  0  0  0  0
 17 32  1  0  0  0  0
 18 20  2  0  0  0  0
 18 37  1  0  0  0  0
 19 21  2  0  0  0  0
 19 38  1  0  0  0  0
 20 46  1  0  0  0  0
 21 39  1  0  0  0  0
 22 82  1  0  0  0  0
 23 83  1  0  0  0  0
 24 26  2  0  0  0  0
 24 82  1  0  0  0  0
 25 84  1  0  0  0  0
 26 85  1  0  0  0  0
 27 66  2  0  0  0  0
 28 56  1  0  0  0  0
 28 67  2  0  0  0  0
 29 30  2  0  0  0  0
 29 57  1  0  0  0  0
 29 65  1  0  0  0  0
 30 58  1  0  0  0  0
 30 67  1  0  0  0  0
 31 68  1  0  0  0  0
 31 71  1  0  0  0  0
 32 72  1  0  0  0  0
 32 77  2  0  0  0  0
 33 47  1  0  0  0  0
 33 73  1  0  0  0  0
 33 78  2  0  0  0  0
 34 62  1  0  0  0  0
 34 69  1  0  0  0  0
 34 79  2  0  0  0  0
 35 63  1  0  0  0  0
 35 74  1  0  0  0  0
 35 80  2  0  0  0  0
 36 70  1  0  0  0  0
 36 75  1  0  0  0  0
 36 81  2  0  0  0  0
 37 40  1  0  0  0  0
 38 47  1  0  0  0  0
 39 69  1  0  0  0  0
 40 42  1  0  0  0  0
 41 43  1  0  0  0  0
 41 44  1  0  0  0  0
 42 46  1  0  0  0  0
 43 48  1  0  0  0  0
 44 70  1  0  0  0  0
 45 48  1  0  0  0  0
 45 70  1  0  0  0  0
 46 73  1  0  0  0  0
 47 69  1  0  0  0  0
 48 68  1  0  0  0  0
 49 58  1  0  0  0  0
 50 63  1  0  0  0  0
 51 64  1  0  0  0  0
 52 64  1  0  0  0  0
 53 64  1  0  0  0  0
 54 75  1  0  0  0  0
 55 76  1  0  0  0  0
 56 60  1  0  0  0  0
 57 59  1  0  0  0  0
 59 61  1  0  0  0  0
 60 75  1  0  0  0  0
 61 83  1  0  0  0  0
 62 64  1  0  0  0  0
 62 74  1  0  0  0  0
 63 76  1  0  0  0  0
 66 68  1  0  0  0  0
M  CHG  1  76   1
M  ISO  4  36 100  61 101  75 100  83 101
M  END
> <Batch ID>
0062

> <Smiles>
CCc1nc(CC[100N:0](C)[100C:0](=O)N2CCCC(n3nc(-c4ccc(Oc5ccc(F)cc5F)cc4)c(C(N)=O)c3N)C2)cnc1CC[101CH2:1][101O:1]c1ccc2c(c1)CN(C(=O)C(NC(=O)C(C)NC)C(C)(C)C)C(C(=O)NC1CCCc3ccccc31)C2

> <Shape>
0.288

> <Color>
0.121

> <Negative vol penalty>
0.000

$$$$

  -OEChem-04052318003D

 89 97  0     1  0  0  0  0  0999 V2000
  -20.3108   -9.2995   19.0858 C   0  0  0  0  0  0  0  0  0  0  0  0
  -20.5173  -10.6617   19.2783 C   0  0  0  0  0  0  0  0  0  0  0  0
  -26.3405  -31.2126   22.3710 C   0  0  0  0  0  0  0  0  0  0  0  0
  -26.1513  -32.0942   20.1296 C   0  0  0  0  0  0  0  0  0  0  0  0
  -21.2100   -8.3770   19.6189 C   0  0  0  0  0  0  0  0  0  0  0  0
  -21.6227  -11.1023   20.0052 C   0  0  0  0  0  0  0  0  0  0  0  0
  -23.9863  -14.9898   17.7813 C   0  0  0  0  0  0  0  0  0  0  0  0
  -26.5335  -32.5036   22.8625 C   0  0  0  0  0  0  0  0  0  0  0  0
  -26.3443  -33.3853   20.6211 C   0  0  0  0  0  0  0  0  0  0  0  0
  -23.4048  -16.2497   17.9159 C   0  0  0  0  0  0  0  0  0  0  0  0
  -24.6296  -35.1987   23.6003 C   0  0  0  0  0  0  0  0  0  0  0  0
  -23.9239  -35.5688   24.7451 C   0  0  0  0  0  0  0  0  0  0  0  0
  -24.9733  -16.7797   19.6703 C   0  0  0  0  0  0  0  0  0  0  0  0
  -28.2082  -21.6979   18.7828 C   0  0  0  0  0  0  0  0  0  0  0  0
  -26.0077  -35.9752   25.8983 C   0  0  0  0  0  0  0  0  0  0  0  0
  -26.1494  -31.0079   21.0045 C   0  0  0  0  0  0  0  0  0  0  0  0
  -24.7252  -29.0004   20.3342 C   0  0  0  0  0  0  0  0  0  0  0  0
  -22.3323   -8.8069   20.3445 C   0  0  0  0  0  0  0  0  0  0  0  0
  -25.0605  -14.6106   18.5991 C   0  0  0  0  0  0  0  0  0  0  0  0
  -22.5371  -10.1846   20.5497 C   0  0  0  0  0  0  0  0  0  0  0  0
  -25.5683  -15.5153   19.5424 C   0  0  0  0  0  0  0  0  0  0  0  0
  -27.0933  -21.8708   19.6396 C   0  0  0  0  0  0  0  0  0  0  0  0
  -26.5355  -33.5900   21.9876 C   0  0  0  0  0  0  0  0  0  0  0  0
  -23.8964  -17.1438   18.8625 C   0  0  0  0  0  0  0  0  0  0  0  0
  -26.0244  -35.2168   23.6045 C   0  0  0  0  0  0  0  0  0  0  0  0
  -24.6129  -35.9570   25.8941 C   0  0  0  0  0  0  0  0  0  0  0  0
  -26.7134  -35.6051   24.7535 C   0  0  0  0  0  0  0  0  0  0  0  0
  -25.9505  -29.6745   20.4961 C   0  0  0  0  0  0  0  0  0  0  0  0
  -27.7239  -21.5563   17.5011 C   0  0  0  0  0  0  0  0  0  0  0  0
  -25.9616  -21.8295   18.8554 C   0  0  0  0  0  0  0  0  0  0  0  0
  -25.0729  -27.7744   19.8217 C   0  0  0  0  0  0  0  0  0  0  0  0
  -23.3920  -29.4429   20.6212 C   0  0  0  0  0  0  0  0  0  0  0  0
  -25.5371  -12.3312   20.7626 C   0  0  0  0  0  0  0  0  0  0  0  0
  -28.5759  -13.4654   20.7177 C   0  0  0  0  0  0  0  0  0  0  0  0
  -30.6871  -16.0698   20.0799 C   0  0  0  0  0  0  0  0  0  0  0  0
  -27.8195  -24.6209   16.4346 C   0  0  0  0  0  0  0  0  0  0  0  0
  -23.2510   -7.7706   20.9419 C   0  0  0  0  0  0  0  0  0  0  0  0
  -25.6939  -13.2578   18.4232 C   0  0  0  0  0  0  0  0  0  0  0  0
  -26.7328  -15.1643   20.4308 C   0  0  0  0  0  0  0  0  0  0  0  0
  -24.6005   -8.3334   21.3806 C   0  0  0  0  0  0  0  0  0  0  0  0
  -29.5793  -25.5462   19.3534 C   0  0  0  0  0  0  0  0  0  0  0  0
  -24.4092   -9.6242   22.1705 C   0  0  0  0  0  0  0  0  0  0  0  0
  -28.6918  -26.6634   19.9004 C   0  0  0  0  0  0  0  0  0  0  0  0
  -29.6994  -25.6020   17.8293 C   0  0  0  0  0  0  0  0  0  0  0  0
  -27.5088  -26.7421   17.6742 C   0  0  0  0  0  0  0  0  0  0  0  0
  -23.7380  -10.7025   21.3113 C   0  0  1  0  0  0  0  0  0  0  0  0
  -26.4515  -12.7872   19.6610 C   0  0  1  0  0  0  0  0  0  0  0  0
  -27.3231  -26.6727   19.1978 C   0  0  2  0  0  0  0  0  0  0  0  0
  -33.1120  -16.7085   20.1747 C   0  0  0  0  0  0  0  0  0  0  0  0
  -28.6146  -22.0516   21.6392 C   0  0  0  0  0  0  0  0  0  0  0  0
  -26.3727  -20.9290   21.8623 C   0  0  0  0  0  0  0  0  0  0  0  0
  -26.5262  -23.4008   21.6429 C   0  0  0  0  0  0  0  0  0  0  0  0
  -28.1099  -20.0284   15.4485 C   0  0  0  0  0  0  0  0  0  0  0  0
  -29.9979  -21.2635   16.4808 C   0  0  0  0  0  0  0  0  0  0  0  0
  -28.3767  -13.7624   23.7479 C   0  0  0  0  0  0  0  0  0  0  0  0
  -30.3901  -15.2483   23.6647 C   0  0  0  0  0  0  0  0  0  0  0  0
  -30.5651  -12.8712   22.9286 C   0  0  0  0  0  0  0  0  0  0  0  0
  -25.4677  -21.5365   16.4192 C   0  0  0  0  0  0  0  0  0  0  0  0
  -30.0006  -24.2571   15.2036 C   0  0  0  0  0  0  0  0  0  0  0  0
  -30.7930  -16.5549   17.1623 C   0  0  0  0  0  0  0  0  0  0  0  0
  -24.5089  -21.9588   19.2384 C   0  0  0  0  0  0  0  0  0  0  0  0
  -23.6597  -20.7461   18.8514 C   0  0  0  0  0  0  0  0  0  0  0  0
  -28.2417  -22.5273   15.2030 C   0  0  0  0  0  0  0  0  0  0  0  0
  -24.1786  -19.4356   19.4317 C   0  0  0  0  0  0  0  0  0  1  0  0
  -29.3305  -14.5311   21.4751 C   0  0  1  0  0  0  0  0  0  0  0  0
  -31.9949  -16.1416   19.3125 C   0  0  2  0  0  0  0  0  0  0  0  0
  -27.1437  -22.0606   21.1029 C   0  0  0  0  0  0  0  0  0  0  0  0
  -28.4515  -21.3512   16.2317 C   0  0  0  0  0  0  0  0  0  0  0  0
  -29.6424  -14.1095   22.9388 C   0  0  0  0  0  0  0  0  0  0  0  0
  -26.9983  -28.9378   20.1174 N   0  0  0  0  0  0  0  0  0  0  0  0
  -26.3570  -21.6377   17.5573 N   0  0  0  0  0  0  0  0  0  0  0  0
  -26.4324  -27.7880   19.7125 N   0  0  0  0  0  0  0  0  0  0  0  0
  -27.3141  -13.8274   20.2251 N   0  0  0  0  0  0  0  0  0  0  0  0
  -28.3724  -25.6574   17.2011 N   0  0  0  0  0  0  0  0  0  0  0  0
  -24.3454  -26.6969   19.4585 N   0  0  0  0  0  0  0  0  0  0  0  0
  -23.2136  -30.7311   21.1438 N   0  0  0  0  0  0  0  0  0  0  0  0
  -24.6968  -11.2947   20.4034 N   0  0  0  0  0  0  0  0  0  0  0  0
  -30.5124  -14.8394   20.6774 N   0  0  0  0  0  0  0  0  0  0  0  0
  -28.7098  -23.8057   15.7196 N   0  0  0  0  0  0  0  0  0  0  0  0
  -31.8430  -17.0089   18.1101 N   0  3  0  0  0  0  0  0  0  0  0  0
  -22.3900  -28.7114   20.4357 O   0  0  0  0  0  0  0  0  0  0  0  0
  -25.5911  -12.8781   21.8579 O   0  0  0  0  0  0  0  0  0  0  0  0
  -29.0901  -12.3550   20.5625 O   0  0  0  0  0  0  0  0  0  0  0  0
  -29.9010  -17.0122   20.1461 O   0  0  0  0  0  0  0  0  0  0  0  0
  -26.5964  -24.4376   16.3844 O   0  0  0  0  0  0  0  0  0  0  0  0
  -26.7236  -34.8499   22.4669 O   0  0  0  0  0  0  0  0  0  0  0  0
  -23.3302  -18.3740   18.9963 O   0  0  0  0  0  0  0  0  0  1  0  0
  -23.9350  -36.3139   26.9929 F   0  0  0  0  0  0  0  0  0  0  0  0
  -28.0533  -35.6256   24.7632 F   0  0  0  0  0  0  0  0  0  0  0  0
  1  2  1  0  0  0  0
  1  5  2  0  0  0  0
  2  6  2  0  0  0  0
  3  8  2  0  0  0  0
  3 16  1  0  0  0  0
  4  9  1  0  0  0  0
  4 16  2  0  0  0  0
  5 18  1  0  0  0  0
  6 20  1  0  0  0  0
  7 10  2  0  0  0  0
  7 19  1  0  0  0  0
  8 23  1  0  0  0  0
  9 23  2  0  0  0  0
 10 24  1  0  0  0  0
 11 12  2  0  0  0  0
 11 25  1  0  0  0  0
 12 26  1  0  0  0  0
 13 21  1  0  0  0  0
 13 24  2  0  0  0  0
 14 22  1  0  0  0  0
 14 29  2  0  0  0  0
 15 26  2  0  0  0  0
 15 27  1  0  0  0  0
 16 28  1  0  0  0  0
 17 28  1  0  0  0  0
 17 31  2  0  0  0  0
 17 32  1  0  0  0  0
 18 20  2  0  0  0  0
 18 37  1  0  0  0  0
 19 21  2  0  0  0  0
 19 38  1  0  0  0  0
 20 46  1  0  0  0  0
 21 39  1  0  0  0  0
 22 30  2  0  0  0  0
 22 67  1  0  0  0  0
 23 86  1  0  0  0  0
 24 87  1  0  0  0  0
 25 27  2  0  0  0  0
 25 86  1  0  0  0  0
 26 88  1  0  0  0  0
 27 89  1  0  0  0  0
 28 70  2  0  0  0  0
 29 68  1  0  0  0  0
 29 71  1  0  0  0  0
 30 61  1  0  0  0  0
 30 71  1  0  0  0  0
 31 72  1  0  0  0  0
 31 75  1  0  0  0  0
 32 76  1  0  0  0  0
 32 81  2  0  0  0  0
 33 47  1  0  0  0  0
 33 77  1  0  0  0  0
 33 82  2  0  0  0  0
 34 65  1  0  0  0  0
 34 73  1  0  0  0  0
 34 83  2  0  0  0  0
 35 66  1  0  0  0  0
 35 78  1  0  0  0  0
 35 84  2  0  0  0  0
 36 74  1  0  0  0  0
 36 79  1  0  0  0  0
 36 85  2  0  0  0  0
 37 40  1  0  0  0  0
 38 47  1  0  0  0  0
 39 73  1  0  0  0  0
 40 42  1  0  0  0  0
 41 43  1  0  0  0  0
 41 44  1  0  0  0  0
 42 46  1  0  0  0  0
 43 48  1  0  0  0  0
 44 74  1  0  0  0  0
 45 48  1  0  0  0  0
 45 74  1  0  0  0  0
 46 77  1  0  0  0  0
 47 73  1  0  0  0  0
 48 72  1  0  0  0  0
 49 66  1  0  0  0  0
 50 67  1  0  0  0  0
 51 67  1  0  0  0  0
 52 67  1  0  0  0  0
 53 68  1  0  0  0  0
 54 68  1  0  0  0  0
 55 69  1  0  0  0  0
 56 69  1  0  0  0  0
 57 69  1  0  0  0  0
 58 71  1  0  0  0  0
 59 79  1  0  0  0  0
 60 80  1  0  0  0  0
 61 62  1  0  0  0  0
 62 64  1  0  0  0  0
 63 68  1  0  0  0  0
 63 79  1  0  0  0  0
 64 87  1  0  0  0  0
 65 69  1  0  0  0  0
 65 78  1  0  0  0  0
 66 80  1  0  0  0  0
 70 72  1  0  0  0  0
M  CHG  1  80   1
M  ISO  4  36 100  64 101  79 100  87 101
M  END
> <Batch ID>
0062

> <Smiles>
CNC(C)C(=O)NC(C(=O)N1Cc2cc([101O:1][101CH2:1]CCc3c(C(C)(C)C)cc(C(C)(C)C[100N:0](C)[100C:0](=O)N4CCCC(n5nc(-c6ccc(Oc7ccc(F)cc7F)cc6)c(C(N)=O)c5N)C4)n3C)ccc2CC1C(=O)NC1CCCc2ccccc21)C(C)(C)C

> <Shape>
0.270

> <Color>
0.063

> <Negative vol penalty>
0.000

$$$$

  -OEChem-04052318003D

 93101  0     1  0  0  0  0  0999 V2000
  -18.6526  -26.4530   23.3506 C   0  0  0  0  0  0  0  0  0  0  0  0
  -20.0115  -26.1781   23.4650 C   0  0  0  0  0  0  0  0  0  0  0  0
  -29.0957  -20.1685   20.8261 C   0  0  0  0  0  0  0  0  0  0  0  0
  -30.4118  -19.8158   18.8310 C   0  0  0  0  0  0  0  0  0  0  0  0
  -18.2172  -27.4699   22.5019 C   0  0  0  0  0  0  0  0  0  0  0  0
  -20.9359  -26.9194   22.7299 C   0  0  0  0  0  0  0  0  0  0  0  0
  -27.6144  -29.4810   23.1215 C   0  0  0  0  0  0  0  0  0  0  0  0
  -29.0995  -18.7954   21.0714 C   0  0  0  0  0  0  0  0  0  0  0  0
  -30.4157  -18.4427   19.0762 C   0  0  0  0  0  0  0  0  0  0  0  0
  -28.8065  -29.4955   22.3987 C   0  0  0  0  0  0  0  0  0  0  0  0
  -28.2992  -15.8357   18.6824 C   0  0  0  0  0  0  0  0  0  0  0  0
  -28.0427  -14.9847   17.6075 C   0  0  0  0  0  0  0  0  0  0  0  0
  -27.9446  -31.2809   21.0245 C   0  0  0  0  0  0  0  0  0  0  0  0
  -30.2091  -13.9571   17.9040 C   0  0  0  0  0  0  0  0  0  0  0  0
  -29.7851  -23.0912   13.9935 C   0  0  0  0  0  0  0  0  0  0  0  0
  -29.7518  -20.6787   19.7058 C   0  0  0  0  0  0  0  0  0  0  0  0
  -30.6862  -23.0443   19.9030 C   0  0  0  0  0  0  0  0  0  0  0  0
  -19.1375  -28.2304   21.7634 C   0  0  0  0  0  0  0  0  0  0  0  0
  -26.5725  -30.3604   22.7936 C   0  0  0  0  0  0  0  0  0  0  0  0
  -20.5124  -27.9466   21.8695 C   0  0  0  0  0  0  0  0  0  0  0  0
  -26.7412  -31.2773   21.7463 C   0  0  0  0  0  0  0  0  0  0  0  0
  -29.7595  -17.9325   20.1965 C   0  0  0  0  0  0  0  0  0  0  0  0
  -28.9706  -30.3935   21.3482 C   0  0  0  0  0  0  0  0  0  0  0  0
  -29.5108  -15.7475   19.3681 C   0  0  0  0  0  0  0  0  0  0  0  0
  -28.9976  -14.0453   17.2183 C   0  0  0  0  0  0  0  0  0  0  0  0
  -30.4657  -14.8082   18.9790 C   0  0  0  0  0  0  0  0  0  0  0  0
  -29.7477  -22.0970   19.4516 C   0  0  0  0  0  0  0  0  0  0  0  0
  -31.0718  -22.5209   14.0233 C   0  0  0  0  0  0  0  0  0  0  0  0
  -29.9937  -24.4229   14.2573 C   0  0  0  0  0  0  0  0  0  0  0  0
  -30.2388  -24.2396   19.3956 C   0  0  0  0  0  0  0  0  0  0  0  0
  -31.8577  -22.8601   20.7089 C   0  0  0  0  0  0  0  0  0  0  0  0
  -23.5744  -30.0134   21.7961 C   0  0  0  0  0  0  0  0  0  0  0  0
  -23.4835  -33.2323   22.1867 C   0  0  0  0  0  0  0  0  0  0  0  0
  -25.1943  -36.1811   22.3449 C   0  0  0  0  0  0  0  0  0  0  0  0
  -26.5526  -25.1974   14.5963 C   0  0  0  0  0  0  0  0  0  0  0  0
  -18.6161  -29.2882   20.8231 C   0  0  0  0  0  0  0  0  0  0  0  0
  -25.3029  -30.3505   23.6002 C   0  0  0  0  0  0  0  0  0  0  0  0
  -25.6609  -32.2560   21.3674 C   0  0  0  0  0  0  0  0  0  0  0  0
  -19.6859  -30.2754   20.3636 C   0  0  0  0  0  0  0  0  0  0  0  0
  -26.2431  -26.4895   18.0512 C   0  0  0  0  0  0  0  0  0  0  0  0
  -20.9487  -29.5339   19.9367 C   0  0  0  0  0  0  0  0  0  0  0  0
  -27.1360  -25.5368   18.8444 C   0  0  0  0  0  0  0  0  0  0  0  0
  -25.6590  -25.8194   16.8113 C   0  0  0  0  0  0  0  0  0  0  0  0
  -27.5744  -24.2588   16.7101 C   0  0  0  0  0  0  0  0  0  0  0  0
  -21.5476  -28.7451   21.1074 C   0  0  1  0  0  0  0  0  0  0  0  0
  -24.1132  -30.9401   22.8490 C   0  0  1  0  0  0  0  0  0  0  0  0
  -28.2161  -24.9170   17.9408 C   0  0  2  0  0  0  0  0  0  0  0  0
  -24.8436  -38.6488   22.6358 C   0  0  0  0  0  0  0  0  0  0  0  0
  -22.4893  -33.4279   19.3086 C   0  0  0  0  0  0  0  0  0  0  0  0
  -23.0634  -35.8645   19.3495 C   0  0  0  0  0  0  0  0  0  0  0  0
  -21.3427  -34.9639   20.9150 C   0  0  0  0  0  0  0  0  0  0  0  0
  -35.4568  -30.1029   19.6891 C   0  0  0  0  0  0  0  0  0  0  0  0
  -35.7063  -27.6218   19.9925 C   0  0  0  0  0  0  0  0  0  0  0  0
  -27.6211  -25.2446   12.3747 C   0  0  0  0  0  0  0  0  0  0  0  0
  -26.8231  -36.2388   24.8153 C   0  0  0  0  0  0  0  0  0  0  0  0
  -29.0477  -25.5487   14.3641 C   0  0  0  0  0  0  0  0  0  0  0  0
  -32.4741  -25.8791   16.1898 C   0  0  0  0  0  0  0  0  0  0  0  0
  -33.2192  -27.1815   16.4826 C   0  0  0  0  0  0  0  0  0  0  0  0
  -32.3609  -29.6701   20.1334 C   0  0  0  0  0  0  0  0  0  0  0  0
  -33.4769  -28.6841   20.4922 C   0  0  0  0  0  0  0  0  0  0  0  0
  -32.0628  -25.7959   14.7206 C   0  0  0  0  0  0  0  0  0  0  0  0
  -33.5956  -27.2765   17.9536 C   0  0  0  0  0  0  0  0  0  0  0  0
  -31.1423  -29.4783   21.0288 C   0  0  0  0  0  0  0  0  0  1  0  0
  -23.7811  -34.4245   21.3097 C   0  0  1  0  0  0  0  0  0  0  0  0
  -25.1323  -37.3297   23.3354 C   0  0  2  0  0  0  0  0  0  0  0  0
  -31.4330  -21.1098   13.8068 C   0  0  0  0  0  0  0  0  0  0  0  0
  -22.6889  -34.6506   20.2263 C   0  0  0  0  0  0  0  0  0  0  0  0
  -34.7428  -28.7518   19.6108 C   0  0  0  0  0  0  0  0  0  0  0  0
  -28.7773  -22.6435   18.7143 N   0  0  0  0  0  0  0  0  0  0  0  0
  -32.0271  -23.4169   14.2852 N   0  0  0  0  0  0  0  0  0  0  0  0
  -31.3402  -24.5638   14.4223 N   0  0  0  0  0  0  0  0  0  0  0  0
  -29.1036  -23.9471   18.6986 N   0  0  0  0  0  0  0  0  0  0  0  0
  -24.4356  -32.2031   22.1818 N   0  0  0  0  0  0  0  0  0  0  0  0
  -26.7028  -25.2014   15.9928 N   0  0  0  0  0  0  0  0  0  0  0  0
  -30.7096  -25.5018   19.4822 N   0  0  0  0  0  0  0  0  0  0  0  0
  -32.1715  -21.5659   21.1456 N   0  0  0  0  0  0  0  0  0  0  0  0
  -22.2624  -29.6313   22.0008 N   0  0  0  0  0  0  0  0  0  0  0  0
  -23.9726  -35.5561   22.2103 N   0  0  0  0  0  0  0  0  0  0  0  0
  -27.7253  -25.2354   13.8269 N   0  0  0  0  0  0  0  0  0  0  0  0
  -26.4267  -37.4569   24.0628 N   0  3  0  0  0  0  0  0  0  0  0  0
  -34.3535  -28.5299   18.1809 N   0  3  0  0  0  0  0  0  0  0  0  0
  -32.5950  -23.8174   21.0458 O   0  0  0  0  0  0  0  0  0  0  0  0
  -24.2953  -29.6716   20.8659 O   0  0  0  0  0  0  0  0  0  0  0  0
  -22.4481  -33.2181   22.8570 O   0  0  0  0  0  0  0  0  0  0  0  0
  -26.2227  -35.8716   21.7473 O   0  0  0  0  0  0  0  0  0  0  0  0
  -25.4339  -25.1716   14.0674 O   0  0  0  0  0  0  0  0  0  0  0  0
  -29.7636  -16.5926   20.4356 O   0  0  0  0  0  0  0  0  0  0  0  0
  -30.1330  -30.4093   20.6407 O   0  0  0  0  0  0  0  0  0  1  0  0
  -28.7504  -13.2271   16.1870 F   0  0  0  0  0  0  0  0  0  0  0  0
  -31.6309  -14.7179   19.6346 F   0  0  0  0  0  0  0  0  0  0  0  0
  -30.3653  -20.2850   13.5487 F   0  0  0  0  0  0  0  0  0  0  0  0
  -32.2861  -20.8999   12.7509 F   0  0  0  0  0  0  0  0  0  0  0  0
  -32.0631  -20.5382   14.8836 F   0  0  0  0  0  0  0  0  0  0  0  0
  1  2  1  0  0  0  0
  1  5  2  0  0  0  0
  2  6  2  0  0  0  0
  3  8  2  0  0  0  0
  3 16  1  0  0  0  0
  4  9  1  0  0  0  0
  4 16  2  0  0  0  0
  5 18  1  0  0  0  0
  6 20  1  0  0  0  0
  7 10  2  0  0  0  0
  7 19  1  0  0  0  0
  8 22  1  0  0  0  0
  9 22  2  0  0  0  0
 10 23  1  0  0  0  0
 11 12  2  0  0  0  0
 11 24  1  0  0  0  0
 12 25  1  0  0  0  0
 13 21  1  0  0  0  0
 13 23  2  0  0  0  0
 14 25  2  0  0  0  0
 14 26  1  0  0  0  0
 15 28  1  0  0  0  0
 15 29  2  0  0  0  0
 16 27  1  0  0  0  0
 17 27  1  0  0  0  0
 17 30  2  0  0  0  0
 17 31  1  0  0  0  0
 18 20  2  0  0  0  0
 18 36  1  0  0  0  0
 19 21  2  0  0  0  0
 19 37  1  0  0  0  0
 20 45  1  0  0  0  0
 21 38  1  0  0  0  0
 22 87  1  0  0  0  0
 23 88  1  0  0  0  0
 24 26  2  0  0  0  0
 24 87  1  0  0  0  0
 25 89  1  0  0  0  0
 26 90  1  0  0  0  0
 27 69  2  0  0  0  0
 28 66  1  0  0  0  0
 28 70  2  0  0  0  0
 29 56  1  0  0  0  0
 29 71  1  0  0  0  0
 30 72  1  0  0  0  0
 30 75  1  0  0  0  0
 31 76  1  0  0  0  0
 31 82  2  0  0  0  0
 32 46  1  0  0  0  0
 32 77  1  0  0  0  0
 32 83  2  0  0  0  0
 33 64  1  0  0  0  0
 33 73  1  0  0  0  0
 33 84  2  0  0  0  0
 34 65  1  0  0  0  0
 34 78  1  0  0  0  0
 34 85  2  0  0  0  0
 35 74  1  0  0  0  0
 35 79  1  0  0  0  0
 35 86  2  0  0  0  0
 36 39  1  0  0  0  0
 37 46  1  0  0  0  0
 38 73  1  0  0  0  0
 39 41  1  0  0  0  0
 40 42  1  0  0  0  0
 40 43  1  0  0  0  0
 41 45  1  0  0  0  0
 42 47  1  0  0  0  0
 43 74  1  0  0  0  0
 44 47  1  0  0  0  0
 44 74  1  0  0  0  0
 45 77  1  0  0  0  0
 46 73  1  0  0  0  0
 47 72  1  0  0  0  0
 48 65  1  0  0  0  0
 49 67  1  0  0  0  0
 50 67  1  0  0  0  0
 51 67  1  0  0  0  0
 52 68  1  0  0  0  0
 53 68  1  0  0  0  0
 54 79  1  0  0  0  0
 55 80  1  0  0  0  0
 56 79  1  0  0  0  0
 57 58  1  0  0  0  0
 57 61  1  0  0  0  0
 58 62  1  0  0  0  0
 59 60  1  0  0  0  0
 59 63  1  0  0  0  0
 60 68  1  0  0  0  0
 61 71  1  0  0  0  0
 62 81  1  0  0  0  0
 63 88  1  0  0  0  0
 64 67  1  0  0  0  0
 64 78  1  0  0  0  0
 65 80  1  0  0  0  0
 66 91  1  0  0  0  0
 66 92  1  0  0  0  0
 66 93  1  0  0  0  0
 68 81  1  0  0  0  0
 69 72  1  0  0  0  0
 70 71  1  0  0  0  0
M  CHG  2  80   1  81   1
M  ISO  4  35 100  63 101  79 100  88 101
M  END
> <Batch ID>
0062

> <Smiles>
CNC(C)C(=O)NC(C(=O)N1Cc2cc([101O:1][101CH2:1]CCC(C)(C)NCCCCn3nc(C(F)(F)F)cc3C[100N:0](C)[100C:0](=O)N3CCCC(n4nc(-c5ccc(Oc6ccc(F)cc6F)cc5)c(C(N)=O)c4N)C3)ccc2CC1C(=O)NC1CCCc2ccccc21)C(C)(C)C

> <Shape>
0.217

> <Color>
0.103

> <Negative vol penalty>
0.000

$$$$

  -OEChem-04052318003D

 86 94  0     1  0  0  0  0  0999 V2000
  -25.4734  -20.5653   29.1420 C   0  0  0  0  0  0  0  0  0  0  0  0
  -26.3802  -21.4591   28.5813 C   0  0  0  0  0  0  0  0  0  0  0  0
  -24.3097  -14.3027   21.1632 C   0  0  0  0  0  0  0  0  0  0  0  0
  -26.6681  -13.9700   21.5691 C   0  0  0  0  0  0  0  0  0  0  0  0
  -24.2854  -20.2689   28.4751 C   0  0  0  0  0  0  0  0  0  0  0  0
  -26.0999  -22.0561   27.3527 C   0  0  0  0  0  0  0  0  0  0  0  0
  -27.6020  -27.7244   25.5863 C   0  0  0  0  0  0  0  0  0  0  0  0
  -24.2004  -12.9851   20.7188 C   0  0  0  0  0  0  0  0  0  0  0  0
  -26.5587  -12.6524   21.1247 C   0  0  0  0  0  0  0  0  0  0  0  0
  -28.6479  -28.2181   24.8078 C   0  0  0  0  0  0  0  0  0  0  0  0
  -23.2263   -9.6007   19.8175 C   0  0  0  0  0  0  0  0  0  0  0  0
  -22.1454   -8.8487   20.2776 C   0  0  0  0  0  0  0  0  0  0  0  0
  -27.2110  -28.1908   22.8704 C   0  0  0  0  0  0  0  0  0  0  0  0
  -22.9039   -9.1496   22.5516 C   0  0  0  0  0  0  0  0  0  0  0  0
  -25.5436  -14.7952   21.5883 C   0  0  0  0  0  0  0  0  0  0  0  0
  -25.4970  -16.6257   23.3645 C   0  0  0  0  0  0  0  0  0  0  0  0
  -23.9860  -20.8700   27.2424 C   0  0  0  0  0  0  0  0  0  0  0  0
  -26.3537  -27.4495   25.0094 C   0  0  0  0  0  0  0  0  0  0  0  0
  -24.9074  -21.7665   26.6680 C   0  0  0  0  0  0  0  0  0  0  0  0
  -26.1500  -27.6961   23.6442 C   0  0  0  0  0  0  0  0  0  0  0  0
  -31.1234  -25.4869   19.2657 C   0  0  0  0  0  0  0  0  0  0  0  0
  -25.3248  -12.1599   20.6996 C   0  0  0  0  0  0  0  0  0  0  0  0
  -28.4534  -28.4486   23.4491 C   0  0  0  0  0  0  0  0  0  0  0  0
  -24.1462  -10.1270   20.7245 C   0  0  0  0  0  0  0  0  0  0  0  0
  -21.9841   -8.6232   21.6446 C   0  0  0  0  0  0  0  0  0  0  0  0
  -23.9850   -9.9015   22.0915 C   0  0  0  0  0  0  0  0  0  0  0  0
  -25.6574  -16.1563   22.0470 C   0  0  0  0  0  0  0  0  0  0  0  0
  -30.1795  -24.5841   18.7404 C   0  0  0  0  0  0  0  0  0  0  0  0
  -30.5747  -26.7260   19.0420 C   0  0  0  0  0  0  0  0  0  0  0  0
  -25.7046  -17.9804   23.2741 C   0  0  0  0  0  0  0  0  0  0  0  0
  -25.1882  -15.9018   24.5630 C   0  0  0  0  0  0  0  0  0  0  0  0
  -24.5793  -24.8381   24.6407 C   0  0  0  0  0  0  0  0  0  0  0  0
  -22.4013  -26.9522   23.4967 C   0  0  0  0  0  0  0  0  0  0  0  0
  -21.7852  -29.9891   22.0668 C   0  0  0  0  0  0  0  0  0  0  0  0
  -28.8091  -21.2375   19.4520 C   0  0  0  0  0  0  0  0  0  0  0  0
  -22.7109  -20.4823   26.5363 C   0  0  0  0  0  0  0  0  0  0  0  0
  -25.2277  -26.9426   25.8682 C   0  0  0  0  0  0  0  0  0  0  0  0
  -24.8230  -27.4366   22.9809 C   0  0  0  0  0  0  0  0  0  0  0  0
  -22.3176  -21.4436   25.4177 C   0  0  0  0  0  0  0  0  0  0  0  0
  -25.2932  -21.6357   20.2118 C   0  0  0  0  0  0  0  0  0  0  0  0
  -23.5234  -21.7629   24.5396 C   0  0  0  0  0  0  0  0  0  0  0  0
  -24.9781  -20.3059   20.8992 C   0  0  0  0  0  0  0  0  0  0  0  0
  -26.2794  -21.4443   19.0634 C   0  0  0  0  0  0  0  0  0  0  0  0
  -27.2406  -19.4452   20.1375 C   0  0  0  0  0  0  0  0  0  0  0  0
  -24.6278  -22.4534   25.3489 C   0  0  1  0  0  0  0  0  0  0  0  0
  -24.1509  -26.2122   25.0717 C   0  0  1  0  0  0  0  0  0  0  0  0
  -26.2660  -19.5747   21.3222 C   0  0  2  0  0  0  0  0  0  0  0  0
  -32.2546  -24.6822   21.3535 C   0  0  0  0  0  0  0  0  0  0  0  0
  -30.9414  -22.5581   17.4456 C   0  0  0  0  0  0  0  0  0  0  0  0
  -19.9087  -31.4209   21.2147 C   0  0  0  0  0  0  0  0  0  0  0  0
  -26.9887  -26.9925   18.0892 C   0  0  0  0  0  0  0  0  0  0  0  0
  -28.7451  -27.9978   16.5692 C   0  0  0  0  0  0  0  0  0  0  0  0
  -22.2164  -25.2164   20.9941 C   0  0  0  0  0  0  0  0  0  0  0  0
  -21.1049  -27.1343   19.8304 C   0  0  0  0  0  0  0  0  0  0  0  0
  -20.0243  -26.0904   21.8217 C   0  0  0  0  0  0  0  0  0  0  0  0
  -22.3781  -32.1316   24.0205 C   0  0  0  0  0  0  0  0  0  0  0  0
  -32.4111  -25.1762   19.9102 C   0  0  0  0  0  0  0  0  0  0  0  0
  -31.0786  -28.1105   19.3629 C   0  0  0  0  0  0  0  0  0  0  0  0
  -30.9381  -28.4904   20.8385 C   0  0  0  0  0  0  0  0  0  0  0  0
  -29.4902  -28.5508   21.3112 C   0  0  0  0  0  0  0  0  0  1  0  0
  -30.2552  -23.1128   18.7110 C   0  0  2  0  0  0  0  0  0  0  0  0
  -22.0805  -27.5270   22.1381 C   0  0  1  0  0  0  0  0  0  0  0  0
  -20.7860  -31.0795   22.4090 C   0  0  2  0  0  0  0  0  0  0  0  0
  -28.4306  -27.4918   17.9782 C   0  0  0  0  0  0  0  0  0  0  0  0
  -21.3822  -26.4952   21.2079 C   0  0  0  0  0  0  0  0  0  0  0  0
  -25.9444  -17.1335   21.1829 N   0  0  0  0  0  0  0  0  0  0  0  0
  -29.1121  -25.1975   18.2222 N   0  0  0  0  0  0  0  0  0  0  0  0
  -29.3819  -26.4990   18.4209 N   0  0  0  0  0  0  0  0  0  0  0  0
  -25.9660  -18.2304   21.9590 N   0  0  0  0  0  0  0  0  0  0  0  0
  -23.7549  -26.9353   23.8615 N   0  0  0  0  0  0  0  0  0  0  0  0
  -27.4908  -20.7596   19.5367 N   0  0  0  0  0  0  0  0  0  0  0  0
  -25.6869  -18.9702   24.1919 N   0  0  0  0  0  0  0  0  0  0  0  0
  -25.0065  -14.5147   24.4776 N   0  0  0  0  0  0  0  0  0  0  0  0
  -24.3016  -23.8471   25.5627 N   0  0  0  0  0  0  0  0  0  0  0  0
  -21.3014  -28.7365   22.3801 N   0  0  0  0  0  0  0  0  0  0  0  0
  -28.9605  -22.4871   18.8633 N   0  0  0  0  0  0  0  0  0  0  0  0
  -21.4966  -32.3168   22.8392 N   0  3  0  0  0  0  0  0  0  0  0  0
  -25.0606  -16.4705   25.6737 O   0  0  0  0  0  0  0  0  0  0  0  0
  -25.1205  -24.6879   23.5515 O   0  0  0  0  0  0  0  0  0  0  0  0
  -21.4838  -26.5402   24.2109 O   0  0  0  0  0  0  0  0  0  0  0  0
  -22.8833  -30.2247   21.5677 O   0  0  0  0  0  0  0  0  0  0  0  0
  -29.7796  -20.6000   19.8748 O   0  0  0  0  0  0  0  0  0  0  0  0
  -25.2184  -10.8740   20.2662 O   0  0  0  0  0  0  0  0  0  0  0  0
  -29.4729  -28.9298   22.6869 O   0  0  0  0  0  0  0  0  0  1  0  0
  -20.9452   -7.9024   22.0864 F   0  0  0  0  0  0  0  0  0  0  0  0
  -24.8647  -10.4056   22.9677 F   0  0  0  0  0  0  0  0  0  0  0  0
  1  2  1  0  0  0  0
  1  5  2  0  0  0  0
  2  6  2  0  0  0  0
  3  8  2  0  0  0  0
  3 15  1  0  0  0  0
  4  9  1  0  0  0  0
  4 15  2  0  0  0  0
  5 17  1  0  0  0  0
  6 19  1  0  0  0  0
  7 10  2  0  0  0  0
  7 18  1  0  0  0  0
  8 22  1  0  0  0  0
  9 22  2  0  0  0  0
 10 23  1  0  0  0  0
 11 12  2  0  0  0  0
 11 24  1  0  0  0  0
 12 25  1  0  0  0  0
 13 20  1  0  0  0  0
 13 23  2  0  0  0  0
 14 25  2  0  0  0  0
 14 26  1  0  0  0  0
 15 27  1  0  0  0  0
 16 27  1  0  0  0  0
 16 30  2  0  0  0  0
 16 31  1  0  0  0  0
 17 19  2  0  0  0  0
 17 36  1  0  0  0  0
 18 20  2  0  0  0  0
 18 37  1  0  0  0  0
 19 45  1  0  0  0  0
 20 38  1  0  0  0  0
 21 28  1  0  0  0  0
 21 29  2  0  0  0  0
 21 57  1  0  0  0  0
 22 83  1  0  0  0  0
 23 84  1  0  0  0  0
 24 26  2  0  0  0  0
 24 83  1  0  0  0  0
 25 85  1  0  0  0  0
 26 86  1  0  0  0  0
 27 66  2  0  0  0  0
 28 61  1  0  0  0  0
 28 67  2  0  0  0  0
 29 58  1  0  0  0  0
 29 68  1  0  0  0  0
 30 69  1  0  0  0  0
 30 72  1  0  0  0  0
 31 73  1  0  0  0  0
 31 78  2  0  0  0  0
 32 46  1  0  0  0  0
 32 74  1  0  0  0  0
 32 79  2  0  0  0  0
 33 62  1  0  0  0  0
 33 70  1  0  0  0  0
 33 80  2  0  0  0  0
 34 63  1  0  0  0  0
 34 75  1  0  0  0  0
 34 81  2  0  0  0  0
 35 71  1  0  0  0  0
 35 76  1  0  0  0  0
 35 82  2  0  0  0  0
 36 39  1  0  0  0  0
 37 46  1  0  0  0  0
 38 70  1  0  0  0  0
 39 41  1  0  0  0  0
 40 42  1  0  0  0  0
 40 43  1  0  0  0  0
 41 45  1  0  0  0  0
 42 47  1  0  0  0  0
 43 71  1  0  0  0  0
 44 47  1  0  0  0  0
 44 71  1  0  0  0  0
 45 74  1  0  0  0  0
 46 70  1  0  0  0  0
 47 69  1  0  0  0  0
 48 57  1  0  0  0  0
 49 61  1  0  0  0  0
 50 63  1  0  0  0  0
 51 64  1  0  0  0  0
 52 64  1  0  0  0  0
 53 65  1  0  0  0  0
 54 65  1  0  0  0  0
 55 65  1  0  0  0  0
 56 77  1  0  0  0  0
 58 59  1  0  0  0  0
 59 60  1  0  0  0  0
 60 84  1  0  0  0  0
 61 76  1  0  0  0  0
 62 65  1  0  0  0  0
 62 75  1  0  0  0  0
 63 77  1  0  0  0  0
 64 68  1  0  0  0  0
 66 69  1  0  0  0  0
 67 68  1  0  0  0  0
M  CHG  1  77   1
M  ISO  4  35 100  60 101  76 100  84 101
M  END
> <Batch ID>
0062

> <Smiles>
CCc1c(C(C)[100NH:0][100C:0](=O)N2CCCC(n3nc(-c4ccc(Oc5ccc(F)cc5F)cc4)c(C(N)=O)c3N)C2)nn(C(C)C)c1CC[101CH2:1][101O:1]c1ccc2c(c1)CN(C(=O)C(NC(=O)C(C)NC)C(C)(C)C)C(C(=O)NC1CCCc3ccccc31)C2

> <Shape>
0.192

> <Color>
0.059

> <Negative vol penalty>
0.000

$$$$

  -OEChem-04052318003D

 82 90  0     1  0  0  0  0  0999 V2000
  -30.1208  -12.4250   19.8623 C   0  0  0  0  0  0  0  0  0  0  0  0
  -29.8960  -13.7399   19.4675 C   0  0  0  0  0  0  0  0  0  0  0  0
  -21.5101  -25.2895   22.4869 C   0  0  0  0  0  0  0  0  0  0  0  0
  -21.4812  -27.2379   21.0586 C   0  0  0  0  0  0  0  0  0  0  0  0
  -29.0414  -11.5711   20.0854 C   0  0  0  0  0  0  0  0  0  0  0  0
  -28.5916  -14.2014   19.2945 C   0  0  0  0  0  0  0  0  0  0  0  0
  -27.8572  -18.7680   21.3566 C   0  0  0  0  0  0  0  0  0  0  0  0
  -20.2176  -25.5869   22.9189 C   0  0  0  0  0  0  0  0  0  0  0  0
  -20.1886  -27.5353   21.4906 C   0  0  0  0  0  0  0  0  0  0  0  0
  -28.3335  -19.8705   20.6485 C   0  0  0  0  0  0  0  0  0  0  0  0
  -18.7279  -28.9422   24.1958 C   0  0  0  0  0  0  0  0  0  0  0  0
  -18.4456  -30.2660   24.5322 C   0  0  0  0  0  0  0  0  0  0  0  0
  -26.1070  -20.2940   19.8223 C   0  0  0  0  0  0  0  0  0  0  0  0
  -16.7368  -30.3354   22.8256 C   0  0  0  0  0  0  0  0  0  0  0  0
  -29.0438  -23.7330   17.3565 C   0  0  0  0  0  0  0  0  0  0  0  0
  -22.1419  -26.1150   21.5568 C   0  0  0  0  0  0  0  0  0  0  0  0
  -23.8438  -25.0087   20.0117 C   0  0  0  0  0  0  0  0  0  0  0  0
  -27.7229  -12.0252   19.9245 C   0  0  0  0  0  0  0  0  0  0  0  0
  -26.5019  -18.4132   21.2941 C   0  0  0  0  0  0  0  0  0  0  0  0
  -27.4936  -13.3525   19.5144 C   0  0  0  0  0  0  0  0  0  0  0  0
  -25.6155  -19.1881   20.5326 C   0  0  0  0  0  0  0  0  0  0  0  0
  -19.5569  -26.7098   22.4207 C   0  0  0  0  0  0  0  0  0  0  0  0
  -27.4589  -20.6320   19.8788 C   0  0  0  0  0  0  0  0  0  0  0  0
  -18.0147  -28.3149   23.1742 C   0  0  0  0  0  0  0  0  0  0  0  0
  -17.4500  -30.9627   23.8472 C   0  0  0  0  0  0  0  0  0  0  0  0
  -17.0191  -29.0115   22.4891 C   0  0  0  0  0  0  0  0  0  0  0  0
  -23.4773  -25.8086   21.1106 C   0  0  0  0  0  0  0  0  0  0  0  0
  -29.6200  -23.2285   18.4880 C   0  0  0  0  0  0  0  0  0  0  0  0
  -25.2171  -25.0314   20.0134 C   0  0  0  0  0  0  0  0  0  0  0  0
  -30.6854  -25.0935   17.9519 C   0  0  0  0  0  0  0  0  0  0  0  0
  -23.0169  -24.3080   19.0732 C   0  0  0  0  0  0  0  0  0  0  0  0
  -24.8948  -15.8646   20.2814 C   0  0  0  0  0  0  0  0  0  0  0  0
  -22.3574  -17.4521   21.5321 C   0  0  0  0  0  0  0  0  0  0  0  0
  -20.9749  -20.4308   22.4607 C   0  0  0  0  0  0  0  0  0  0  0  0
  -30.0381  -27.8047   20.4740 C   0  0  0  0  0  0  0  0  0  0  0  0
  -26.5896  -11.0519   20.1315 C   0  0  0  0  0  0  0  0  0  0  0  0
  -25.9990  -17.2370   22.0852 C   0  0  0  0  0  0  0  0  0  0  0  0
  -24.1477  -18.8614   20.4485 C   0  0  0  0  0  0  0  0  0  0  0  0
  -25.2290  -11.7258   20.2891 C   0  0  0  0  0  0  0  0  0  0  0  0
  -28.4775  -26.7295   23.4881 C   0  0  0  0  0  0  0  0  0  0  0  0
  -25.0348  -12.7938   19.2174 C   0  0  0  0  0  0  0  0  0  0  0  0
  -27.0665  -26.3343   23.0486 C   0  0  0  0  0  0  0  0  0  0  0  0
  -28.9906  -27.9421   22.7146 C   0  0  0  0  0  0  0  0  0  0  0  0
  -27.5215  -27.4151   20.8073 C   0  0  0  0  0  0  0  0  0  0  0  0
  -26.0925  -13.8973   19.3403 C   0  0  1  0  0  0  0  0  0  0  0  0
  -24.6955  -16.6628   21.5388 C   0  0  1  0  0  0  0  0  0  0  0  0
  -26.9828  -26.1628   21.5199 C   0  0  2  0  0  0  0  0  0  0  0  0
  -18.8728  -21.4145   23.4152 C   0  0  0  0  0  0  0  0  0  0  0  0
  -32.5800  -26.3654   16.7315 C   0  0  0  0  0  0  0  0  0  0  0  0
  -32.6354  -26.0691   19.1942 C   0  0  0  0  0  0  0  0  0  0  0  0
  -20.9801  -17.1252   18.8291 C   0  0  0  0  0  0  0  0  0  0  0  0
  -19.3540  -18.8985   19.5216 C   0  0  0  0  0  0  0  0  0  0  0  0
  -19.4934  -16.7656   20.8077 C   0  0  0  0  0  0  0  0  0  0  0  0
  -29.4350  -25.7456   15.9156 C   0  0  0  0  0  0  0  0  0  0  0  0
  -22.4036  -21.4787   24.8313 C   0  0  0  0  0  0  0  0  0  0  0  0
  -29.3140  -21.9999   19.2931 C   0  0  0  0  0  0  0  0  0  1  0  0
  -30.9429  -27.6189   18.1705 C   0  0  0  0  0  0  0  0  0  0  0  0
  -21.3613  -18.4578   21.0074 C   0  0  1  0  0  0  0  0  0  0  0  0
  -20.2521  -20.8547   23.7266 C   0  0  2  0  0  0  0  0  0  0  0  0
  -31.6473  -26.2232   17.9886 C   0  0  0  0  0  0  0  0  0  0  0  0
  -20.3251  -17.8171   20.0413 C   0  0  0  0  0  0  0  0  0  0  0  0
  -24.5325  -26.3032   21.7631 N   0  0  0  0  0  0  0  0  0  0  0  0
  -29.7224  -24.8872   17.0477 N   0  0  0  0  0  0  0  0  0  0  0  0
  -25.5757  -25.8128   21.0722 N   0  0  0  0  0  0  0  0  0  0  0  0
  -30.6329  -24.0901   18.8339 N   0  3  0  0  0  0  0  0  0  0  0  0
  -23.7054  -17.6980   21.2349 N   0  0  0  0  0  0  0  0  0  0  0  0
  -28.8853  -27.7143   21.2713 N   0  0  0  0  0  0  0  0  0  0  0  0
  -26.1408  -24.4590   19.2125 N   0  0  0  0  0  0  0  0  0  0  0  0
  -21.6252  -24.3914   19.2165 N   0  0  0  0  0  0  0  0  0  0  0  0
  -25.7605  -14.7971   20.4240 N   0  0  0  0  0  0  0  0  0  0  0  0
  -20.7708  -19.0966   22.1786 N   0  0  0  0  0  0  0  0  0  0  0  0
  -29.8514  -27.5684   19.1175 N   0  0  0  0  0  0  0  0  0  0  0  0
  -21.0335  -21.9020   24.4432 N   0  3  0  0  0  0  0  0  0  0  0  0
  -23.4980  -23.6146   18.1452 O   0  0  0  0  0  0  0  0  0  0  0  0
  -24.3056  -16.1922   19.2581 O   0  0  0  0  0  0  0  0  0  0  0  0
  -21.9550  -16.4877   22.1877 O   0  0  0  0  0  0  0  0  0  0  0  0
  -21.6497  -21.2066   21.7874 O   0  0  0  0  0  0  0  0  0  0  0  0
  -31.1523  -28.0708   20.9374 O   0  0  0  0  0  0  0  0  0  0  0  0
  -18.2956  -27.0002   22.8419 O   0  0  0  0  0  0  0  0  0  0  0  0
  -27.9213  -21.7082   19.1861 O   0  0  0  0  0  0  0  0  0  1  0  0
  -17.1780  -32.2335   24.1714 F   0  0  0  0  0  0  0  0  0  0  0  0
  -16.3298  -28.4138   21.5076 F   0  0  0  0  0  0  0  0  0  0  0  0
  1  2  1  0  0  0  0
  1  5  2  0  0  0  0
  2  6  2  0  0  0  0
  3  8  2  0  0  0  0
  3 16  1  0  0  0  0
  4  9  1  0  0  0  0
  4 16  2  0  0  0  0
  5 18  1  0  0  0  0
  6 20  1  0  0  0  0
  7 10  2  0  0  0  0
  7 19  1  0  0  0  0
  8 22  1  0  0  0  0
  9 22  2  0  0  0  0
 10 23  1  0  0  0  0
 11 12  2  0  0  0  0
 11 24  1  0  0  0  0
 12 25  1  0  0  0  0
 13 21  1  0  0  0  0
 13 23  2  0  0  0  0
 14 25  2  0  0  0  0
 14 26  1  0  0  0  0
 15 28  2  0  0  0  0
 15 63  1  0  0  0  0
 16 27  1  0  0  0  0
 17 27  1  0  0  0  0
 17 29  2  0  0  0  0
 17 31  1  0  0  0  0
 18 20  2  0  0  0  0
 18 36  1  0  0  0  0
 19 21  2  0  0  0  0
 19 37  1  0  0  0  0
 20 45  1  0  0  0  0
 21 38  1  0  0  0  0
 22 79  1  0  0  0  0
 23 80  1  0  0  0  0
 24 26  2  0  0  0  0
 24 79  1  0  0  0  0
 25 81  1  0  0  0  0
 26 82  1  0  0  0  0
 27 62  2  0  0  0  0
 28 56  1  0  0  0  0
 28 65  1  0  0  0  0
 29 64  1  0  0  0  0
 29 68  1  0  0  0  0
 30 60  1  0  0  0  0
 30 63  1  0  0  0  0
 30 65  2  0  0  0  0
 31 69  1  0  0  0  0
 31 74  2  0  0  0  0
 32 46  1  0  0  0  0
 32 70  1  0  0  0  0
 32 75  2  0  0  0  0
 33 58  1  0  0  0  0
 33 66  1  0  0  0  0
 33 76  2  0  0  0  0
 34 59  1  0  0  0  0
 34 71  1  0  0  0  0
 34 77  2  0  0  0  0
 35 67  1  0  0  0  0
 35 72  1  0  0  0  0
 35 78  2  0  0  0  0
 36 39  1  0  0  0  0
 37 46  1  0  0  0  0
 38 66  1  0  0  0  0
 39 41  1  0  0  0  0
 40 42  1  0  0  0  0
 40 43  1  0  0  0  0
 41 45  1  0  0  0  0
 42 47  1  0  0  0  0
 43 67  1  0  0  0  0
 44 47  1  0  0  0  0
 44 67  1  0  0  0  0
 45 70  1  0  0  0  0
 46 66  1  0  0  0  0
 47 64  1  0  0  0  0
 48 59  1  0  0  0  0
 49 60  1  0  0  0  0
 50 60  1  0  0  0  0
 51 61  1  0  0  0  0
 52 61  1  0  0  0  0
 53 61  1  0  0  0  0
 54 63  1  0  0  0  0
 55 73  1  0  0  0  0
 56 80  1  0  0  0  0
 57 60  1  0  0  0  0
 57 72  1  0  0  0  0
 58 61  1  0  0  0  0
 58 71  1  0  0  0  0
 59 73  1  0  0  0  0
 62 64  1  0  0  0  0
M  CHG  2  65   1  73   1
M  ISO  4  35 100  56 101  72 100  80 101
M  END
> <Batch ID>
0062

> <Smiles>
CNC(C)C(=O)NC(C(=O)N1Cc2cc([101O:1][101CH2:1]c3cn(C)c(C(C)(C)C[100NH:0][100C:0](=O)N4CCCC(n5nc(-c6ccc(Oc7ccc(F)cc7F)cc6)c(C(N)=O)c5N)C4)n3)ccc2CC1C(=O)NC1CCCc2ccccc21)C(C)(C)C

> <Shape>
0.222

> <Color>
0.053

> <Negative vol penalty>
0.000

$$$$

  -OEChem-04052318003D

 82 90  0     1  0  0  0  0  0999 V2000
  -27.9685  -32.1621   27.5055 C   0  0  0  0  0  0  0  0  0  0  0  0
  -28.0815  -31.1604   26.5467 C   0  0  0  0  0  0  0  0  0  0  0  0
  -25.8161  -13.5597   21.8960 C   0  0  0  0  0  0  0  0  0  0  0  0
  -25.5611  -13.0682   19.5443 C   0  0  0  0  0  0  0  0  0  0  0  0
  -26.7087  -32.6239   27.8844 C   0  0  0  0  0  0  0  0  0  0  0  0
  -26.9346  -30.6192   25.9670 C   0  0  0  0  0  0  0  0  0  0  0  0
  -27.3441  -30.1272   20.9435 C   0  0  0  0  0  0  0  0  0  0  0  0
  -24.9064  -12.5489   22.2059 C   0  0  0  0  0  0  0  0  0  0  0  0
  -24.6514  -12.0573   19.8542 C   0  0  0  0  0  0  0  0  0  0  0  0
  -28.0857  -29.0467   20.4679 C   0  0  0  0  0  0  0  0  0  0  0  0
  -24.7579   -8.8681   20.9671 C   0  0  0  0  0  0  0  0  0  0  0  0
  -24.9006   -7.6462   20.3099 C   0  0  0  0  0  0  0  0  0  0  0  0
  -26.0417  -27.8363   20.0484 C   0  0  0  0  0  0  0  0  0  0  0  0
  -22.6801   -7.8829   19.3876 C   0  0  0  0  0  0  0  0  0  0  0  0
  -28.6567  -23.5235   19.4396 C   0  0  0  0  0  0  0  0  0  0  0  0
  -29.0722  -24.7226   17.4786 C   0  0  0  0  0  0  0  0  0  0  0  0
  -26.1435  -13.8195   20.5651 C   0  0  0  0  0  0  0  0  0  0  0  0
  -28.4795  -14.7419   20.1181 C   0  0  0  0  0  0  0  0  0  0  0  0
  -25.5461  -32.0949   27.3019 C   0  0  0  0  0  0  0  0  0  0  0  0
  -25.9438  -30.0661   20.9853 C   0  0  0  0  0  0  0  0  0  0  0  0
  -25.6580  -31.0735   26.3393 C   0  0  0  0  0  0  0  0  0  0  0  0
  -25.2845  -28.9184   20.5226 C   0  0  0  0  0  0  0  0  0  0  0  0
  -28.3903  -24.6413   18.6755 C   0  0  0  0  0  0  0  0  0  0  0  0
  -24.3241  -11.7976   21.1851 C   0  0  0  0  0  0  0  0  0  0  0  0
  -27.4346  -27.8998   20.0230 C   0  0  0  0  0  0  0  0  0  0  0  0
  -23.5763   -9.5975   20.8347 C   0  0  0  0  0  0  0  0  0  0  0  0
  -23.8617   -7.1536   19.5201 C   0  0  0  0  0  0  0  0  0  0  0  0
  -22.5374   -9.1049   20.0449 C   0  0  0  0  0  0  0  0  0  0  0  0
  -27.0827  -14.8640   20.2443 C   0  0  0  0  0  0  0  0  0  0  0  0
  -28.9081  -16.0089   19.8060 C   0  0  0  0  0  0  0  0  0  0  0  0
  -30.1223  -22.7479   17.8849 C   0  0  0  0  0  0  0  0  0  0  0  0
  -29.3148  -13.5865   20.2695 C   0  0  0  0  0  0  0  0  0  0  0  0
  -23.7607  -30.1977   23.2920 C   0  0  0  0  0  0  0  0  0  0  0  0
  -21.6887  -30.1925   20.7962 C   0  0  0  0  0  0  0  0  0  0  0  0
  -21.0842  -29.3923   17.5342 C   0  0  0  0  0  0  0  0  0  0  0  0
  -28.0381  -20.5729   16.5302 C   0  0  0  0  0  0  0  0  0  0  0  0
  -24.2045  -32.5929   27.7779 C   0  0  0  0  0  0  0  0  0  0  0  0
  -25.1573  -31.2506   21.4762 C   0  0  0  0  0  0  0  0  0  0  0  0
  -23.7823  -28.8104   20.5277 C   0  0  0  0  0  0  0  0  0  0  0  0
  -23.0534  -32.2296   26.8434 C   0  0  0  0  0  0  0  0  0  0  0  0
  -26.4835  -20.4372   19.8868 C   0  0  0  0  0  0  0  0  0  0  0  0
  -23.1401  -30.7625   26.4349 C   0  0  0  0  0  0  0  0  0  0  0  0
  -26.5567  -18.9499   20.2279 C   0  0  0  0  0  0  0  0  0  0  0  0
  -26.4082  -20.6707   18.3809 C   0  0  0  0  0  0  0  0  0  0  0  0
  -27.5809  -18.5357   17.9563 C   0  0  0  0  0  0  0  0  0  0  0  0
  -24.4382  -30.4787   25.6696 C   0  0  1  0  0  0  0  0  0  0  0  0
  -23.7563  -30.8811   21.9539 C   0  0  1  0  0  0  0  0  0  0  0  0
  -27.7047  -18.2676   19.4637 C   0  0  2  0  0  0  0  0  0  0  0  0
  -32.2922  -21.5875   18.4036 C   0  0  0  0  0  0  0  0  0  0  0  0
  -19.2858  -29.4758   15.7860 C   0  0  0  0  0  0  0  0  0  0  0  0
  -20.2952  -27.8227   22.1200 C   0  0  0  0  0  0  0  0  0  0  0  0
  -19.1566  -27.3629   19.9382 C   0  0  0  0  0  0  0  0  0  0  0  0
  -18.7499  -29.5189   21.1252 C   0  0  0  0  0  0  0  0  0  0  0  0
  -29.8502  -20.3112   14.8787 C   0  0  0  0  0  0  0  0  0  0  0  0
  -22.7097  -31.1349   15.7792 C   0  0  0  0  0  0  0  0  0  0  0  0
  -27.4241  -25.7002   19.1188 C   0  0  0  0  0  0  0  0  0  1  0  0
  -30.4416  -20.3019   17.2737 C   0  0  0  0  0  0  0  0  0  0  0  0
  -31.0868  -21.6986   17.4466 C   0  0  1  0  0  0  0  0  0  0  0  0
  -20.9787  -29.1256   19.9983 C   0  0  1  0  0  0  0  0  0  0  0  0
  -20.4796  -30.1940   16.3957 C   0  0  2  0  0  0  0  0  0  0  0  0
  -19.8235  -28.4585   20.7970 C   0  0  0  0  0  0  0  0  0  0  0  0
  -29.5201  -22.5536   19.0735 N   0  0  0  0  0  0  0  0  0  0  0  0
  -29.9489  -23.7906   17.0505 N   0  0  0  0  0  0  0  0  0  0  0  0
  -26.6526  -16.1102   20.0300 N   0  0  0  0  0  0  0  0  0  0  0  0
  -27.7857  -16.7828   19.7661 N   0  0  0  0  0  0  0  0  0  0  0  0
  -23.0578  -29.9925   21.0229 N   0  0  0  0  0  0  0  0  0  0  0  0
  -27.4854  -19.9760   17.6752 N   0  0  0  0  0  0  0  0  0  0  0  0
  -30.1317  -16.5254   19.5646 N   0  0  0  0  0  0  0  0  0  0  0  0
  -28.7113  -12.3632   20.5914 N   0  0  0  0  0  0  0  0  0  0  0  0
  -24.3321  -30.9455   24.3038 N   0  0  0  0  0  0  0  0  0  0  0  0
  -20.5566  -29.7595   18.7540 N   0  0  0  0  0  0  0  0  0  0  0  0
  -29.3892  -20.3081   16.2598 N   0  0  0  0  0  0  0  0  0  0  0  0
  -21.4914  -30.4166   15.3244 N   0  3  0  0  0  0  0  0  0  0  0  0
  -30.5613  -13.6407   20.1397 O   0  0  0  0  0  0  0  0  0  0  0  0
  -23.2799  -29.0756   23.3989 O   0  0  0  0  0  0  0  0  0  0  0  0
  -21.0535  -31.1710   21.1973 O   0  0  0  0  0  0  0  0  0  0  0  0
  -21.9364  -28.5243   17.3585 O   0  0  0  0  0  0  0  0  0  0  0  0
  -27.3650  -21.3086   15.7970 O   0  0  0  0  0  0  0  0  0  0  0  0
  -23.4365  -10.8109   21.4872 O   0  0  0  0  0  0  0  0  0  0  0  0
  -28.1561  -26.8434   19.5589 O   0  0  0  0  0  0  0  0  0  1  0  0
  -23.9994   -5.9808   18.8878 F   0  0  0  0  0  0  0  0  0  0  0  0
  -21.4004   -9.8017   19.9129 F   0  0  0  0  0  0  0  0  0  0  0  0
  1  2  1  0  0  0  0
  1  5  2  0  0  0  0
  2  6  2  0  0  0  0
  3  8  2  0  0  0  0
  3 17  1  0  0  0  0
  4  9  1  0  0  0  0
  4 17  2  0  0  0  0
  5 19  1  0  0  0  0
  6 21  1  0  0  0  0
  7 10  2  0  0  0  0
  7 20  1  0  0  0  0
  8 24  1  0  0  0  0
  9 24  2  0  0  0  0
 10 25  1  0  0  0  0
 11 12  2  0  0  0  0
 11 26  1  0  0  0  0
 12 27  1  0  0  0  0
 13 22  1  0  0  0  0
 13 25  2  0  0  0  0
 14 27  2  0  0  0  0
 14 28  1  0  0  0  0
 15 23  1  0  0  0  0
 15 62  2  0  0  0  0
 16 23  2  0  0  0  0
 16 63  1  0  0  0  0
 17 29  1  0  0  0  0
 18 29  1  0  0  0  0
 18 30  2  0  0  0  0
 18 32  1  0  0  0  0
 19 21  2  0  0  0  0
 19 37  1  0  0  0  0
 20 22  2  0  0  0  0
 20 38  1  0  0  0  0
 21 46  1  0  0  0  0
 22 39  1  0  0  0  0
 23 56  1  0  0  0  0
 24 79  1  0  0  0  0
 25 80  1  0  0  0  0
 26 28  2  0  0  0  0
 26 79  1  0  0  0  0
 27 81  1  0  0  0  0
 28 82  1  0  0  0  0
 29 64  2  0  0  0  0
 30 65  1  0  0  0  0
 30 68  1  0  0  0  0
 31 58  1  0  0  0  0
 31 62  1  0  0  0  0
 31 63  2  0  0  0  0
 32 69  1  0  0  0  0
 32 74  2  0  0  0  0
 33 47  1  0  0  0  0
 33 70  1  0  0  0  0
 33 75  2  0  0  0  0
 34 59  1  0  0  0  0
 34 66  1  0  0  0  0
 34 76  2  0  0  0  0
 35 60  1  0  0  0  0
 35 71  1  0  0  0  0
 35 77  2  0  0  0  0
 36 67  1  0  0  0  0
 36 72  1  0  0  0  0
 36 78  2  0  0  0  0
 37 40  1  0  0  0  0
 38 47  1  0  0  0  0
 39 66  1  0  0  0  0
 40 42  1  0  0  0  0
 41 43  1  0  0  0  0
 41 44  1  0  0  0  0
 42 46  1  0  0  0  0
 43 48  1  0  0  0  0
 44 67  1  0  0  0  0
 45 48  1  0  0  0  0
 45 67  1  0  0  0  0
 46 70  1  0  0  0  0
 47 66  1  0  0  0  0
 48 65  1  0  0  0  0
 49 58  1  0  0  0  0
 50 60  1  0  0  0  0
 51 61  1  0  0  0  0
 52 61  1  0  0  0  0
 53 61  1  0  0  0  0
 54 72  1  0  0  0  0
 55 73  1  0  0  0  0
 56 80  1  0  0  0  0
 57 58  1  0  0  0  0
 57 72  1  0  0  0  0
 59 61  1  0  0  0  0
 59 71  1  0  0  0  0
 60 73  1  0  0  0  0
 64 65  1  0  0  0  0
M  CHG  1  73   1
M  ISO  4  36 100  56 101  72 100  80 101
M  END
> <Batch ID>
0062

> <Smiles>
CNC(C)C(=O)NC(C(=O)N1Cc2cc([101O:1][101CH2:1]c3cnc(C(C)C[100N:0](C)[100C:0](=O)N4CCCC(n5nc(-c6ccc(Oc7ccc(F)cc7F)cc6)c(C(N)=O)c5N)C4)nc3)ccc2CC1C(=O)NC1CCCc2ccccc21)C(C)(C)C

> <Shape>
0.277

> <Color>
0.097

> <Negative vol penalty>
0.000

$$$$

  -OEChem-04052318003D

 88 96  0     1  0  0  0  0  0999 V2000
  -23.6767  -36.9468   21.8743 C   0  0  0  0  0  0  0  0  0  0  0  0
  -24.5913  -36.1110   21.2415 C   0  0  0  0  0  0  0  0  0  0  0  0
  -23.2503  -10.2240   22.1502 C   0  0  0  0  0  0  0  0  0  0  0  0
  -23.8317   -9.5600   19.9012 C   0  0  0  0  0  0  0  0  0  0  0  0
  -22.9248  -36.4700   22.9472 C   0  0  0  0  0  0  0  0  0  0  0  0
  -24.7553  -34.7982   21.6820 C   0  0  0  0  0  0  0  0  0  0  0  0
  -26.2712  -28.2374   19.2376 C   0  0  0  0  0  0  0  0  0  0  0  0
  -22.4629   -9.0805   22.2843 C   0  0  0  0  0  0  0  0  0  0  0  0
  -23.0443   -8.4164   20.0352 C   0  0  0  0  0  0  0  0  0  0  0  0
  -27.1403  -27.1735   19.4757 C   0  0  0  0  0  0  0  0  0  0  0  0
  -20.5875   -6.1534   23.3472 C   0  0  0  0  0  0  0  0  0  0  0  0
  -20.6996   -5.4239   24.5308 C   0  0  0  0  0  0  0  0  0  0  0  0
  -25.7298  -26.4348   21.2879 C   0  0  0  0  0  0  0  0  0  0  0  0
  -23.0457   -5.0590   24.0837 C   0  0  0  0  0  0  0  0  0  0  0  0
  -28.9318  -19.7411   20.8478 C   0  0  0  0  0  0  0  0  0  0  0  0
  -23.9347  -10.4638   20.9586 C   0  0  0  0  0  0  0  0  0  0  0  0
  -26.1138  -11.7787   21.1327 C   0  0  0  0  0  0  0  0  0  0  0  0
  -23.0727  -35.1477   23.3949 C   0  0  0  0  0  0  0  0  0  0  0  0
  -25.1288  -28.4146   20.0313 C   0  0  0  0  0  0  0  0  0  0  0  0
  -24.0056  -34.3037   22.7628 C   0  0  0  0  0  0  0  0  0  0  0  0
  -24.8466  -27.5003   21.0562 C   0  0  0  0  0  0  0  0  0  0  0  0
  -22.3599   -8.1767   21.2268 C   0  0  0  0  0  0  0  0  0  0  0  0
  -26.8712  -26.2737   20.5027 C   0  0  0  0  0  0  0  0  0  0  0  0
  -21.7045   -6.3356   22.5318 C   0  0  0  0  0  0  0  0  0  0  0  0
  -21.9287   -4.8767   24.8991 C   0  0  0  0  0  0  0  0  0  0  0  0
  -22.9336   -5.7884   22.9000 C   0  0  0  0  0  0  0  0  0  0  0  0
  -24.7479  -11.6451   20.8193 C   0  0  0  0  0  0  0  0  0  0  0  0
  -27.7346  -19.1724   21.1796 C   0  0  0  0  0  0  0  0  0  0  0  0
  -26.4110  -13.0835   20.8234 C   0  0  0  0  0  0  0  0  0  0  0  0
  -27.5024  -20.1527   19.2084 C   0  0  0  0  0  0  0  0  0  0  0  0
  -27.0319  -10.8100   21.6565 C   0  0  0  0  0  0  0  0  0  0  0  0
  -24.0902  -30.6911   21.9915 C   0  0  0  0  0  0  0  0  0  0  0  0
  -21.4190  -28.8528   22.0815 C   0  0  0  0  0  0  0  0  0  0  0  0
  -20.0111  -25.7676   21.6995 C   0  0  0  0  0  0  0  0  0  0  0  0
  -26.2245  -17.3861   17.5963 C   0  0  0  0  0  0  0  0  0  0  0  0
  -22.2719  -34.6917   24.5889 C   0  0  0  0  0  0  0  0  0  0  0  0
  -24.1872  -29.5519   19.7445 C   0  0  0  0  0  0  0  0  0  0  0  0
  -23.6227  -27.6344   21.9238 C   0  0  0  0  0  0  0  0  0  0  0  0
  -22.2354  -33.1746   24.7544 C   0  0  0  0  0  0  0  0  0  0  0  0
  -23.4047  -16.9761   19.6826 C   0  0  0  0  0  0  0  0  0  0  0  0
  -23.6339  -32.5865   24.5955 C   0  0  0  0  0  0  0  0  0  0  0  0
  -23.6080  -15.5489   20.1892 C   0  0  0  0  0  0  0  0  0  0  0  0
  -23.7750  -17.1198   18.2053 C   0  0  0  0  0  0  0  0  0  0  0  0
  -25.3407  -15.2123   18.3874 C   0  0  0  0  0  0  0  0  0  0  0  0
  -24.1941  -32.8659   23.1957 C   0  0  1  0  0  0  0  0  0  0  0  0
  -23.3254  -29.9313   20.9448 C   0  0  1  0  0  0  0  0  0  0  0  0
  -25.0328  -15.0547   19.8844 C   0  0  2  0  0  0  0  0  0  0  0  0
  -27.3203  -18.4060   22.3576 C   0  0  0  0  0  0  0  0  0  0  0  0
  -17.8134  -24.5694   21.8780 C   0  0  0  0  0  0  0  0  0  0  0  0
  -27.4971  -21.9718   17.3679 C   0  0  0  0  0  0  0  0  0  0  0  0
  -25.3754  -20.9375   18.1324 C   0  0  0  0  0  0  0  0  0  0  0  0
  -21.6535  -28.8810   25.1236 C   0  0  0  0  0  0  0  0  0  0  0  0
  -20.0628  -26.9489   25.1945 C   0  0  0  0  0  0  0  0  0  0  0  0
  -19.3226  -29.1378   24.2545 C   0  0  0  0  0  0  0  0  0  0  0  0
  -30.1691  -20.5094   17.4609 C   0  0  0  0  0  0  0  0  0  0  0  0
  -31.1640  -21.0370   19.6685 C   0  0  0  0  0  0  0  0  0  0  0  0
  -24.8422  -18.7161   15.9455 C   0  0  0  0  0  0  0  0  0  0  0  0
  -20.0561  -25.0164   18.8372 C   0  0  0  0  0  0  0  0  0  0  0  0
  -28.7141  -23.2348   19.8581 C   0  0  0  0  0  0  0  0  0  0  0  0
  -29.4687  -22.6118   18.6774 C   0  0  0  0  0  0  0  0  0  0  0  0
  -26.9983  -19.5791   16.7776 C   0  0  0  0  0  0  0  0  0  0  0  0
  -28.4326  -24.7133   19.6178 C   0  0  0  0  0  0  0  0  0  1  0  0
  -20.9385  -27.7065   22.9383 C   0  0  1  0  0  0  0  0  0  0  0  0
  -18.7679  -25.3127   20.9565 C   0  0  2  0  0  0  0  0  0  0  0  0
  -26.9004  -20.6352   17.9405 C   0  0  0  0  0  0  0  0  0  0  0  0
  -20.5185  -28.1669   24.3628 C   0  0  0  0  0  0  0  0  0  0  0  0
  -29.8489  -21.1075   18.8521 C   0  0  0  0  0  0  0  0  0  0  0  0
  -24.2142  -12.7749   20.3472 N   0  0  0  0  0  0  0  0  0  0  0  0
  -28.7595  -20.3402   19.6233 N   0  0  0  0  0  0  0  0  0  0  0  0
  -25.2501  -13.6309   20.3618 N   0  0  0  0  0  0  0  0  0  0  0  0
  -26.8687  -19.4430   20.1476 N   0  3  0  0  0  0  0  0  0  0  0  0
  -22.7360  -28.7665   21.6081 N   0  0  0  0  0  0  0  0  0  0  0  0
  -25.1227  -16.5932   17.9497 N   0  0  0  0  0  0  0  0  0  0  0  0
  -27.5494  -13.8046   20.9040 N   0  0  0  0  0  0  0  0  0  0  0  0
  -26.5610   -9.5160   21.9176 N   0  0  0  0  0  0  0  0  0  0  0  0
  -23.6077  -31.9643   22.2274 N   0  0  0  0  0  0  0  0  0  0  0  0
  -19.8752  -27.0512   22.1845 N   0  0  0  0  0  0  0  0  0  0  0  0
  -25.9661  -18.5558   16.8660 N   0  0  0  0  0  0  0  0  0  0  0  0
  -19.1384  -24.4060   19.8333 N   0  3  0  0  0  0  0  0  0  0  0  0
  -28.2302  -11.0883   21.9016 O   0  0  0  0  0  0  0  0  0  0  0  0
  -25.0462  -30.1609   22.5451 O   0  0  0  0  0  0  0  0  0  0  0  0
  -20.6518  -29.7868   21.8353 O   0  0  0  0  0  0  0  0  0  0  0  0
  -21.0020  -25.0541   21.8391 O   0  0  0  0  0  0  0  0  0  0  0  0
  -27.3779  -17.0635   17.9087 O   0  0  0  0  0  0  0  0  0  0  0  0
  -21.5918   -7.0607   21.3574 O   0  0  0  0  0  0  0  0  0  0  0  0
  -27.7181  -25.2347   20.7376 O   0  0  0  0  0  0  0  0  0  1  0  0
  -22.0365   -4.1776   26.0365 F   0  0  0  0  0  0  0  0  0  0  0  0
  -24.0104   -5.9611   22.1214 F   0  0  0  0  0  0  0  0  0  0  0  0
  1  2  1  0  0  0  0
  1  5  2  0  0  0  0
  2  6  2  0  0  0  0
  3  8  2  0  0  0  0
  3 16  1  0  0  0  0
  4  9  1  0  0  0  0
  4 16  2  0  0  0  0
  5 18  1  0  0  0  0
  6 20  1  0  0  0  0
  7 10  2  0  0  0  0
  7 19  1  0  0  0  0
  8 22  1  0  0  0  0
  9 22  2  0  0  0  0
 10 23  1  0  0  0  0
 11 12  2  0  0  0  0
 11 24  1  0  0  0  0
 12 25  1  0  0  0  0
 13 21  1  0  0  0  0
 13 23  2  0  0  0  0
 14 25  2  0  0  0  0
 14 26  1  0  0  0  0
 15 28  2  0  0  0  0
 15 69  1  0  0  0  0
 16 27  1  0  0  0  0
 17 27  1  0  0  0  0
 17 29  2  0  0  0  0
 17 31  1  0  0  0  0
 18 20  2  0  0  0  0
 18 36  1  0  0  0  0
 19 21  2  0  0  0  0
 19 37  1  0  0  0  0
 20 45  1  0  0  0  0
 21 38  1  0  0  0  0
 22 85  1  0  0  0  0
 23 86  1  0  0  0  0
 24 26  2  0  0  0  0
 24 85  1  0  0  0  0
 25 87  1  0  0  0  0
 26 88  1  0  0  0  0
 27 68  2  0  0  0  0
 28 48  1  0  0  0  0
 28 71  1  0  0  0  0
 29 70  1  0  0  0  0
 29 74  1  0  0  0  0
 30 65  1  0  0  0  0
 30 69  1  0  0  0  0
 30 71  2  0  0  0  0
 31 75  1  0  0  0  0
 31 80  2  0  0  0  0
 32 46  1  0  0  0  0
 32 76  1  0  0  0  0
 32 81  2  0  0  0  0
 33 63  1  0  0  0  0
 33 72  1  0  0  0  0
 33 82  2  0  0  0  0
 34 64  1  0  0  0  0
 34 77  1  0  0  0  0
 34 83  2  0  0  0  0
 35 73  1  0  0  0  0
 35 78  1  0  0  0  0
 35 84  2  0  0  0  0
 36 39  1  0  0  0  0
 37 46  1  0  0  0  0
 38 72  1  0  0  0  0
 39 41  1  0  0  0  0
 40 42  1  0  0  0  0
 40 43  1  0  0  0  0
 41 45  1  0  0  0  0
 42 47  1  0  0  0  0
 43 73  1  0  0  0  0
 44 47  1  0  0  0  0
 44 73  1  0  0  0  0
 45 76  1  0  0  0  0
 46 72  1  0  0  0  0
 47 70  1  0  0  0  0
 49 64  1  0  0  0  0
 50 65  1  0  0  0  0
 51 65  1  0  0  0  0
 52 66  1  0  0  0  0
 53 66  1  0  0  0  0
 54 66  1  0  0  0  0
 55 67  1  0  0  0  0
 56 67  1  0  0  0  0
 57 78  1  0  0  0  0
 58 79  1  0  0  0  0
 59 60  1  0  0  0  0
 59 62  1  0  0  0  0
 60 67  1  0  0  0  0
 61 65  1  0  0  0  0
 61 78  1  0  0  0  0
 62 86  1  0  0  0  0
 63 66  1  0  0  0  0
 63 77  1  0  0  0  0
 64 79  1  0  0  0  0
 67 69  1  0  0  0  0
 68 70  1  0  0  0  0
M  CHG  2  71   1  79   1
M  ISO  4  35 100  62 101  78 100  86 101
M  END
> <Batch ID>
0062

> <Smiles>
CNC(C)C(=O)NC(C(=O)N1Cc2cc([101O:1][101CH2:1]CCC(C)(C)n3cc(C)nc3C(C)(C)C[100N:0](C)[100C:0](=O)N3CCCC(n4nc(-c5ccc(Oc6ccc(F)cc6F)cc5)c(C(N)=O)c4N)C3)ccc2CC1C(=O)NC1CCCc2ccccc21)C(C)(C)C

> <Shape>
0.296

> <Color>
0.082

> <Negative vol penalty>
0.000

$$$$

  -OEChem-04052318003D

 85 93  0     1  0  0  0  0  0999 V2000
  -30.9470  -35.0713   23.8657 C   0  0  0  0  0  0  0  0  0  0  0  0
  -31.0028  -33.9320   23.0693 C   0  0  0  0  0  0  0  0  0  0  0  0
  -23.6425   -9.0863   20.2927 C   0  0  0  0  0  0  0  0  0  0  0  0
  -22.9278  -10.8529   21.7777 C   0  0  0  0  0  0  0  0  0  0  0  0
  -30.0186  -35.1506   24.9029 C   0  0  0  0  0  0  0  0  0  0  0  0
  -30.1310  -32.8708   23.3104 C   0  0  0  0  0  0  0  0  0  0  0  0
  -27.6220  -29.1484   19.1445 C   0  0  0  0  0  0  0  0  0  0  0  0
  -22.8562   -8.1753   20.9980 C   0  0  0  0  0  0  0  0  0  0  0  0
  -22.1415   -9.9419   22.4830 C   0  0  0  0  0  0  0  0  0  0  0  0
  -27.9594  -27.8687   18.7058 C   0  0  0  0  0  0  0  0  0  0  0  0
  -23.0487   -6.4341   23.8885 C   0  0  0  0  0  0  0  0  0  0  0  0
  -23.6164   -5.2008   24.2086 C   0  0  0  0  0  0  0  0  0  0  0  0
  -26.3599  -26.9255   20.2456 C   0  0  0  0  0  0  0  0  0  0  0  0
  -21.8869   -4.0780   22.9495 C   0  0  0  0  0  0  0  0  0  0  0  0
  -28.3772  -19.6410   21.5907 C   0  0  0  0  0  0  0  0  0  0  0  0
  -23.6783  -10.4252   20.6826 C   0  0  0  0  0  0  0  0  0  0  0  0
  -24.1050  -12.1431   18.8457 C   0  0  0  0  0  0  0  0  0  0  0  0
  -29.1284  -34.0938   25.1506 C   0  0  0  0  0  0  0  0  0  0  0  0
  -26.6572  -29.3259   20.1465 C   0  0  0  0  0  0  0  0  0  0  0  0
  -29.1907  -32.9355   24.3527 C   0  0  0  0  0  0  0  0  0  0  0  0
  -26.0102  -28.2086   20.6935 C   0  0  0  0  0  0  0  0  0  0  0  0
  -22.1057   -8.6031   22.0931 C   0  0  0  0  0  0  0  0  0  0  0  0
  -27.3305  -26.7569   19.2583 C   0  0  0  0  0  0  0  0  0  0  0  0
  -21.9001   -6.4893   23.0990 C   0  0  0  0  0  0  0  0  0  0  0  0
  -29.1395  -19.9201   20.4748 C   0  0  0  0  0  0  0  0  0  0  0  0
  -23.0355   -4.0228   23.7391 C   0  0  0  0  0  0  0  0  0  0  0  0
  -21.3192   -5.3112   22.6295 C   0  0  0  0  0  0  0  0  0  0  0  0
  -24.4908  -11.3666   19.9548 C   0  0  0  0  0  0  0  0  0  0  0  0
  -29.5807  -18.8230   19.7635 C   0  0  0  0  0  0  0  0  0  0  0  0
  -25.2277  -12.8670   18.5263 C   0  0  0  0  0  0  0  0  0  0  0  0
  -28.5526  -17.4062   21.2136 C   0  0  0  0  0  0  0  0  0  0  0  0
  -22.8446  -12.2047   18.1652 C   0  0  0  0  0  0  0  0  0  0  0  0
  -26.6670  -30.5572   23.0770 C   0  0  0  0  0  0  0  0  0  0  0  0
  -23.4690  -30.0505   22.8794 C   0  0  0  0  0  0  0  0  0  0  0  0
  -20.8921  -28.3191   21.4622 C   0  0  0  0  0  0  0  0  0  0  0  0
  -29.9983  -14.2715   22.1050 C   0  0  0  0  0  0  0  0  0  0  0  0
  -28.1741  -34.2059   26.3131 C   0  0  0  0  0  0  0  0  0  0  0  0
  -26.2852  -30.7142   20.5899 C   0  0  0  0  0  0  0  0  0  0  0  0
  -24.9531  -28.3463   21.7574 C   0  0  0  0  0  0  0  0  0  0  0  0
  -27.0341  -33.1918   26.2653 C   0  0  0  0  0  0  0  0  0  0  0  0
  -29.9978  -12.6970   18.7550 C   0  0  0  0  0  0  0  0  0  0  0  0
  -27.5704  -31.8005   25.9440 C   0  0  0  0  0  0  0  0  0  0  0  0
  -28.5647  -12.1829   18.6288 C   0  0  0  0  0  0  0  0  0  0  0  0
  -30.4529  -12.7569   20.2100 C   0  0  0  0  0  0  0  0  0  0  0  0
  -28.1143  -13.0278   20.9662 C   0  0  0  0  0  0  0  0  0  0  0  0
  -28.2450  -31.7736   24.5672 C   0  0  1  0  0  0  0  0  0  0  0  0
  -25.6582  -30.7496   21.9802 C   0  0  1  0  0  0  0  0  0  0  0  0
  -27.6089  -12.9993   19.5160 C   0  0  2  0  0  0  0  0  0  0  0  0
  -30.4113  -19.0086   18.5370 C   0  0  0  0  0  0  0  0  0  0  0  0
  -26.8703  -15.9007   22.3382 C   0  0  0  0  0  0  0  0  0  0  0  0
  -18.3932  -28.0999   21.5302 C   0  0  0  0  0  0  0  0  0  0  0  0
  -23.6783  -28.5049   25.5018 C   0  0  0  0  0  0  0  0  0  0  0  0
  -21.4203  -27.5326   25.0282 C   0  0  0  0  0  0  0  0  0  0  0  0
  -21.6781  -29.9958   25.3264 C   0  0  0  0  0  0  0  0  0  0  0  0
  -29.7537  -16.2600   23.5422 C   0  0  0  0  0  0  0  0  0  0  0  0
  -20.6301  -29.1018   18.6201 C   0  0  0  0  0  0  0  0  0  0  0  0
  -28.5437  -23.3511   19.4576 C   0  0  0  0  0  0  0  0  0  0  0  0
  -27.5383  -24.4457   19.7790 C   0  0  0  0  0  0  0  0  0  1  0  0
  -28.4708  -22.2022   20.4512 C   0  0  0  0  0  0  0  0  0  0  0  0
  -28.2246  -16.0104   21.6226 C   0  0  2  0  0  0  0  0  0  0  0  0
  -22.5452  -28.9052   23.2167 C   0  0  1  0  0  0  0  0  0  0  0  0
  -19.5768  -28.7823   20.8623 C   0  0  2  0  0  0  0  0  0  0  0  0
  -22.3518  -28.7316   24.7496 C   0  0  0  0  0  0  0  0  0  0  0  0
  -28.0633  -18.3913   21.9906 N   0  0  0  0  0  0  0  0  0  0  0  0
  -25.7594  -11.5773   20.3156 N   0  0  0  0  0  0  0  0  0  0  0  0
  -29.3051  -17.5474   20.1057 N   0  0  0  0  0  0  0  0  0  0  0  0
  -26.1806  -12.4943   19.4281 N   0  0  0  0  0  0  0  0  0  0  0  0
  -24.6287  -29.7242   22.1622 N   0  0  0  0  0  0  0  0  0  0  0  0
  -29.5046  -13.5017   21.0389 N   0  0  0  0  0  0  0  0  0  0  0  0
  -25.4829  -13.7796   17.5647 N   0  0  0  0  0  0  0  0  0  0  0  0
  -21.7973  -11.3942   18.6240 N   0  0  0  0  0  0  0  0  0  0  0  0
  -27.2497  -31.7301   23.5175 N   0  0  0  0  0  0  0  0  0  0  0  0
  -21.3084  -29.1484   22.4821 N   0  0  0  0  0  0  0  0  0  0  0  0
  -29.2753  -15.4230   22.4511 N   0  0  0  0  0  0  0  0  0  0  0  0
  -19.5355  -28.4746   19.4047 N   0  3  0  0  0  0  0  0  0  0  0  0
  -22.6577  -12.9440   17.1692 O   0  0  0  0  0  0  0  0  0  0  0  0
  -26.8983  -29.4283   23.4938 O   0  0  0  0  0  0  0  0  0  0  0  0
  -23.1691  -31.1937   23.2329 O   0  0  0  0  0  0  0  0  0  0  0  0
  -21.4885  -27.3193   21.0683 O   0  0  0  0  0  0  0  0  0  0  0  0
  -31.0321  -13.9531   22.7065 O   0  0  0  0  0  0  0  0  0  0  0  0
  -21.3382   -7.7145   22.7814 O   0  0  0  0  0  0  0  0  0  0  0  0
  -27.6584  -25.5068   18.8324 O   0  0  0  0  0  0  0  0  0  1  0  0
  -29.4297  -21.2096   20.1120 O   0  0  0  0  0  0  0  0  0  0  0  0
  -23.5816   -2.8386   24.0453 F   0  0  0  0  0  0  0  0  0  0  0  0
  -20.2164   -5.3580   21.8696 F   0  0  0  0  0  0  0  0  0  0  0  0
  1  2  1  0  0  0  0
  1  5  2  0  0  0  0
  2  6  2  0  0  0  0
  3  8  2  0  0  0  0
  3 16  1  0  0  0  0
  4  9  1  0  0  0  0
  4 16  2  0  0  0  0
  5 18  1  0  0  0  0
  6 20  1  0  0  0  0
  7 10  2  0  0  0  0
  7 19  1  0  0  0  0
  8 22  1  0  0  0  0
  9 22  2  0  0  0  0
 10 23  1  0  0  0  0
 11 12  2  0  0  0  0
 11 24  1  0  0  0  0
 12 26  1  0  0  0  0
 13 21  1  0  0  0  0
 13 23  2  0  0  0  0
 14 26  2  0  0  0  0
 14 27  1  0  0  0  0
 15 25  1  0  0  0  0
 15 64  2  0  0  0  0
 16 28  1  0  0  0  0
 17 28  1  0  0  0  0
 17 30  2  0  0  0  0
 17 32  1  0  0  0  0
 18 20  2  0  0  0  0
 18 37  1  0  0  0  0
 19 21  2  0  0  0  0
 19 38  1  0  0  0  0
 20 46  1  0  0  0  0
 21 39  1  0  0  0  0
 22 81  1  0  0  0  0
 23 82  1  0  0  0  0
 24 27  2  0  0  0  0
 24 81  1  0  0  0  0
 25 29  2  0  0  0  0
 25 83  1  0  0  0  0
 26 84  1  0  0  0  0
 27 85  1  0  0  0  0
 28 65  2  0  0  0  0
 29 49  1  0  0  0  0
 29 66  1  0  0  0  0
 30 67  1  0  0  0  0
 30 70  1  0  0  0  0
 31 60  1  0  0  0  0
 31 64  1  0  0  0  0
 31 66  2  0  0  0  0
 32 71  1  0  0  0  0
 32 76  2  0  0  0  0
 33 47  1  0  0  0  0
 33 72  1  0  0  0  0
 33 77  2  0  0  0  0
 34 61  1  0  0  0  0
 34 68  1  0  0  0  0
 34 78  2  0  0  0  0
 35 62  1  0  0  0  0
 35 73  1  0  0  0  0
 35 79  2  0  0  0  0
 36 69  1  0  0  0  0
 36 74  1  0  0  0  0
 36 80  2  0  0  0  0
 37 40  1  0  0  0  0
 38 47  1  0  0  0  0
 39 68  1  0  0  0  0
 40 42  1  0  0  0  0
 41 43  1  0  0  0  0
 41 44  1  0  0  0  0
 42 46  1  0  0  0  0
 43 48  1  0  0  0  0
 44 69  1  0  0  0  0
 45 48  1  0  0  0  0
 45 69  1  0  0  0  0
 46 72  1  0  0  0  0
 47 68  1  0  0  0  0
 48 67  1  0  0  0  0
 50 60  1  0  0  0  0
 51 62  1  0  0  0  0
 52 63  1  0  0  0  0
 53 63  1  0  0  0  0
 54 63  1  0  0  0  0
 55 74  1  0  0  0  0
 56 75  1  0  0  0  0
 57 58  1  0  0  0  0
 57 59  1  0  0  0  0
 58 82  1  0  0  0  0
 59 83  1  0  0  0  0
 60 74  1  0  0  0  0
 61 63  1  0  0  0  0
 61 73  1  0  0  0  0
 62 75  1  0  0  0  0
 65 67  1  0  0  0  0
M  CHG  1  75   1
M  ISO  4  36 100  58 101  74 100  82 101
M  END
> <Batch ID>
0062

> <Smiles>
CNC(C)C(=O)NC(C(=O)N1Cc2cc([101O:1][101CH2:1]CCOc3cnc(C(C)[100N:0](C)[100C:0](=O)N4CCCC(n5nc(-c6ccc(Oc7ccc(F)cc7F)cc6)c(C(N)=O)c5N)C4)nc3C)ccc2CC1C(=O)NC1CCCc2ccccc21)C(C)(C)C

> <Shape>
0.324

> <Color>
0.122

> <Negative vol penalty>
0.000

$$$$

  -OEChem-04052318003D

 83 91  0     1  0  0  0  0  0999 V2000
  -24.7552   -9.1017   19.9318 C   0  0  0  0  0  0  0  0  0  0  0  0
  -25.8859   -9.8893   19.7402 C   0  0  0  0  0  0  0  0  0  0  0  0
  -20.6990  -27.2197   23.5739 C   0  0  0  0  0  0  0  0  0  0  0  0
  -20.2345  -26.7955   21.2412 C   0  0  0  0  0  0  0  0  0  0  0  0
  -23.5084   -9.7030   20.0987 C   0  0  0  0  0  0  0  0  0  0  0  0
  -25.7702  -11.2787   19.7143 C   0  0  0  0  0  0  0  0  0  0  0  0
  -29.3764  -17.2147   21.4681 C   0  0  0  0  0  0  0  0  0  0  0  0
  -19.4900  -27.9056   23.6899 C   0  0  0  0  0  0  0  0  0  0  0  0
  -19.0254  -27.4813   21.3573 C   0  0  0  0  0  0  0  0  0  0  0  0
  -29.7971  -18.4227   20.9136 C   0  0  0  0  0  0  0  0  0  0  0  0
  -15.9220  -26.8713   22.5479 C   0  0  0  0  0  0  0  0  0  0  0  0
  -14.7913  -26.2898   21.9744 C   0  0  0  0  0  0  0  0  0  0  0  0
  -27.6040  -19.3533   21.2920 C   0  0  0  0  0  0  0  0  0  0  0  0
  -14.5164  -28.2251   20.5545 C   0  0  0  0  0  0  0  0  0  0  0  0
  -29.8837  -23.7028   20.2619 C   0  0  0  0  0  0  0  0  0  0  0  0
  -29.2151  -24.2771   17.7419 C   0  0  0  0  0  0  0  0  0  0  0  0
  -21.0713  -26.6647   22.3495 C   0  0  0  0  0  0  0  0  0  0  0  0
  -22.5415  -24.5817   22.4346 C   0  0  0  0  0  0  0  0  0  0  0  0
  -23.3788  -11.1007   20.0845 C   0  0  0  0  0  0  0  0  0  0  0  0
  -28.0609  -17.0632   21.9295 C   0  0  0  0  0  0  0  0  0  0  0  0
  -24.5203  -11.8992   19.8799 C   0  0  0  0  0  0  0  0  0  0  0  0
  -27.1698  -18.1432   21.8543 C   0  0  0  0  0  0  0  0  0  0  0  0
  -18.6531  -28.0363   22.5817 C   0  0  0  0  0  0  0  0  0  0  0  0
  -28.9101  -19.4913   20.8228 C   0  0  0  0  0  0  0  0  0  0  0  0
  -16.3499  -28.1297   22.1248 C   0  0  0  0  0  0  0  0  0  0  0  0
  -14.0885  -26.9668   20.9777 C   0  0  0  0  0  0  0  0  0  0  0  0
  -15.6471  -28.8066   21.1281 C   0  0  0  0  0  0  0  0  0  0  0  0
  -22.3204  -25.9567   22.2288 C   0  0  0  0  0  0  0  0  0  0  0  0
  -28.9843  -22.9223   19.5697 C   0  0  0  0  0  0  0  0  0  0  0  0
  -30.1140  -25.0581   18.4343 C   0  0  0  0  0  0  0  0  0  0  0  0
  -23.8835  -24.4105   22.1976 C   0  0  0  0  0  0  0  0  0  0  0  0
  -21.6164  -23.5514   22.8067 C   0  0  0  0  0  0  0  0  0  0  0  0
  -25.6119  -15.1926   21.1504 C   0  0  0  0  0  0  0  0  0  0  0  0
  -24.2347  -16.5766   23.7409 C   0  0  0  0  0  0  0  0  0  0  0  0
  -24.1019  -19.2332   25.8789 C   0  0  0  0  0  0  0  0  0  0  0  0
  -27.7501  -27.2179   18.9152 C   0  0  0  0  0  0  0  0  0  0  0  0
  -22.0032  -11.7037   20.2219 C   0  0  0  0  0  0  0  0  0  0  0  0
  -27.6304  -15.7622   22.5495 C   0  0  0  0  0  0  0  0  0  0  0  0
  -25.7528  -18.0384   22.3538 C   0  0  0  0  0  0  0  0  0  0  0  0
  -22.0216  -13.1931   20.5560 C   0  0  0  0  0  0  0  0  0  0  0  0
  -28.0563  -26.7253   22.3988 C   0  0  0  0  0  0  0  0  0  0  0  0
  -23.0117  -13.9292   19.6589 C   0  0  0  0  0  0  0  0  0  0  0  0
  -26.6262  -26.3427   22.7771 C   0  0  0  0  0  0  0  0  0  0  0  0
  -28.0951  -27.8398   21.3515 C   0  0  0  0  0  0  0  0  0  0  0  0
  -25.8639  -27.1680   20.5189 C   0  0  0  0  0  0  0  0  0  0  0  0
  -24.4391  -13.4103   19.8704 C   0  0  1  0  0  0  0  0  0  0  0  0
  -26.1191  -15.5562   22.5172 C   0  0  1  0  0  0  0  0  0  0  0  0
  -25.7964  -26.0090   21.5253 C   0  0  2  0  0  0  0  0  0  0  0  0
  -22.8475  -20.0953   27.8741 C   0  0  0  0  0  0  0  0  0  0  0  0
  -31.5795  -25.9520   16.4979 C   0  0  0  0  0  0  0  0  0  0  0  0
  -31.7422  -26.9382   18.7687 C   0  0  0  0  0  0  0  0  0  0  0  0
  -21.8832  -17.3128   21.9413 C   0  0  0  0  0  0  0  0  0  0  0  0
  -21.1450  -18.9443   23.6910 C   0  0  0  0  0  0  0  0  0  0  0  0
  -21.2408  -16.5085   24.2205 C   0  0  0  0  0  0  0  0  0  0  0  0
  -29.3667  -29.1622   19.0217 C   0  0  0  0  0  0  0  0  0  0  0  0
  -26.5482  -19.2755   27.5441 C   0  0  0  0  0  0  0  0  0  0  0  0
  -28.3568  -21.7243   20.2197 C   0  0  0  0  0  0  0  0  0  1  0  0
  -29.6817  -27.3407   17.3880 C   0  0  0  0  0  0  0  0  0  0  0  0
  -23.3949  -17.8090   23.9747 C   0  0  1  0  0  0  0  0  0  0  0  0
  -24.0551  -19.3051   27.3945 C   0  0  2  0  0  0  0  0  0  0  0  0
  -30.7368  -26.2465   17.7892 C   0  0  0  0  0  0  0  0  0  0  0  0
  -21.9420  -17.6453   23.4456 C   0  0  0  0  0  0  0  0  0  0  0  0
  -28.6340  -23.1951   18.2972 N   0  0  0  0  0  0  0  0  0  0  0  0
  -30.4645  -24.7849   19.7068 N   0  0  0  0  0  0  0  0  0  0  0  0
  -23.4328  -26.6124   21.8875 N   0  0  0  0  0  0  0  0  0  0  0  0
  -24.3659  -25.6453   21.8771 N   0  0  0  0  0  0  0  0  0  0  0  0
  -25.3775  -16.7438   22.9460 N   0  0  0  0  0  0  0  0  0  0  0  0
  -27.2532  -27.5018   20.1957 N   0  0  0  0  0  0  0  0  0  0  0  0
  -24.6861  -23.3257   22.2344 N   0  0  0  0  0  0  0  0  0  0  0  0
  -20.2745  -23.9003   23.0113 N   0  0  0  0  0  0  0  0  0  0  0  0
  -24.9998  -13.9554   21.0881 N   0  0  0  0  0  0  0  0  0  0  0  0
  -23.4820  -18.0976   25.4021 N   0  0  0  0  0  0  0  0  0  0  0  0
  -28.9426  -27.8512   18.5340 N   0  0  0  0  0  0  0  0  0  0  0  0
  -25.2854  -19.9616   27.9202 N   0  3  0  0  0  0  0  0  0  0  0  0
  -21.9726  -22.3597   22.9695 O   0  0  0  0  0  0  0  0  0  0  0  0
  -25.7633  -15.9773   20.2214 O   0  0  0  0  0  0  0  0  0  0  0  0
  -23.8933  -15.5065   24.2508 O   0  0  0  0  0  0  0  0  0  0  0  0
  -24.6318  -20.0998   25.1870 O   0  0  0  0  0  0  0  0  0  0  0  0
  -27.1573  -26.4468   18.1496 O   0  0  0  0  0  0  0  0  0  0  0  0
  -17.4732  -28.7052   22.6947 O   0  0  0  0  0  0  0  0  0  0  0  0
  -29.3180  -20.6713   20.2814 O   0  0  0  0  0  0  0  0  0  1  0  0
  -13.0035  -26.4076   20.4259 F   0  0  0  0  0  0  0  0  0  0  0  0
  -16.0541  -30.0153   20.7166 F   0  0  0  0  0  0  0  0  0  0  0  0
  1  2  1  0  0  0  0
  1  5  2  0  0  0  0
  2  6  2  0  0  0  0
  3  8  2  0  0  0  0
  3 17  1  0  0  0  0
  4  9  1  0  0  0  0
  4 17  2  0  0  0  0
  5 19  1  0  0  0  0
  6 21  1  0  0  0  0
  7 10  2  0  0  0  0
  7 20  1  0  0  0  0
  8 23  1  0  0  0  0
  9 23  2  0  0  0  0
 10 24  1  0  0  0  0
 11 12  2  0  0  0  0
 11 25  1  0  0  0  0
 12 26  1  0  0  0  0
 13 22  1  0  0  0  0
 13 24  2  0  0  0  0
 14 26  2  0  0  0  0
 14 27  1  0  0  0  0
 15 29  1  0  0  0  0
 15 64  2  0  0  0  0
 16 30  2  0  0  0  0
 16 63  1  0  0  0  0
 17 28  1  0  0  0  0
 18 28  1  0  0  0  0
 18 31  2  0  0  0  0
 18 32  1  0  0  0  0
 19 21  2  0  0  0  0
 19 37  1  0  0  0  0
 20 22  2  0  0  0  0
 20 38  1  0  0  0  0
 21 46  1  0  0  0  0
 22 39  1  0  0  0  0
 23 80  1  0  0  0  0
 24 81  1  0  0  0  0
 25 27  2  0  0  0  0
 25 80  1  0  0  0  0
 26 82  1  0  0  0  0
 27 83  1  0  0  0  0
 28 65  2  0  0  0  0
 29 57  1  0  0  0  0
 29 63  2  0  0  0  0
 30 61  1  0  0  0  0
 30 64  1  0  0  0  0
 31 66  1  0  0  0  0
 31 69  1  0  0  0  0
 32 70  1  0  0  0  0
 32 75  2  0  0  0  0
 33 47  1  0  0  0  0
 33 71  1  0  0  0  0
 33 76  2  0  0  0  0
 34 59  1  0  0  0  0
 34 67  1  0  0  0  0
 34 77  2  0  0  0  0
 35 60  1  0  0  0  0
 35 72  1  0  0  0  0
 35 78  2  0  0  0  0
 36 68  1  0  0  0  0
 36 73  1  0  0  0  0
 36 79  2  0  0  0  0
 37 40  1  0  0  0  0
 38 47  1  0  0  0  0
 39 67  1  0  0  0  0
 40 42  1  0  0  0  0
 41 43  1  0  0  0  0
 41 44  1  0  0  0  0
 42 46  1  0  0  0  0
 43 48  1  0  0  0  0
 44 68  1  0  0  0  0
 45 48  1  0  0  0  0
 45 68  1  0  0  0  0
 46 71  1  0  0  0  0
 47 67  1  0  0  0  0
 48 66  1  0  0  0  0
 49 60  1  0  0  0  0
 50 61  1  0  0  0  0
 51 61  1  0  0  0  0
 52 62  1  0  0  0  0
 53 62  1  0  0  0  0
 54 62  1  0  0  0  0
 55 73  1  0  0  0  0
 56 74  1  0  0  0  0
 57 81  1  0  0  0  0
 58 61  1  0  0  0  0
 58 73  1  0  0  0  0
 59 62  1  0  0  0  0
 59 72  1  0  0  0  0
 60 74  1  0  0  0  0
 65 66  1  0  0  0  0
M  CHG  1  74   1
M  ISO  4  36 100  57 101  73 100  81 101
M  END
> <Batch ID>
0062

> <Smiles>
CNC(C)C(=O)NC(C(=O)N1Cc2cc([101O:1][101CH2:1]c3cnc(C(C)(C)C[100N:0](C)[100C:0](=O)N4CCCC(n5nc(-c6ccc(Oc7ccc(F)cc7F)cc6)c(C(N)=O)c5N)C4)cn3)ccc2CC1C(=O)NC1CCCc2ccccc21)C(C)(C)C

> <Shape>
0.204

> <Color>
0.065

> <Negative vol penalty>
0.000

$$$$

  -OEChem-04052318003D

 82 90  0     1  0  0  0  0  0999 V2000
  -32.1559  -15.0857   20.3165 C   0  0  0  0  0  0  0  0  0  0  0  0
  -31.2153  -16.1083   20.2472 C   0  0  0  0  0  0  0  0  0  0  0  0
  -29.2227  -26.2779   21.0792 C   0  0  0  0  0  0  0  0  0  0  0  0
  -27.2943  -24.8267   20.9676 C   0  0  0  0  0  0  0  0  0  0  0  0
  -31.7486  -13.7568   20.2069 C   0  0  0  0  0  0  0  0  0  0  0  0
  -29.8667  -15.8026   20.0670 C   0  0  0  0  0  0  0  0  0  0  0  0
  -25.0675  -18.8012   22.4083 C   0  0  0  0  0  0  0  0  0  0  0  0
  -29.9673  -25.2446   21.6480 C   0  0  0  0  0  0  0  0  0  0  0  0
  -28.0389  -23.7934   21.5364 C   0  0  0  0  0  0  0  0  0  0  0  0
  -24.2105  -19.7625   21.8740 C   0  0  0  0  0  0  0  0  0  0  0  0
  -29.1000  -22.8908   24.6170 C   0  0  0  0  0  0  0  0  0  0  0  0
  -28.5057  -22.1499   25.6385 C   0  0  0  0  0  0  0  0  0  0  0  0
  -22.6258  -18.0313   21.3166 C   0  0  0  0  0  0  0  0  0  0  0  0
  -28.7339  -20.1417   24.3148 C   0  0  0  0  0  0  0  0  0  0  0  0
  -18.9118  -26.1208   23.6363 C   0  0  0  0  0  0  0  0  0  0  0  0
  -27.8861  -26.0689   20.7391 C   0  0  0  0  0  0  0  0  0  0  0  0
  -26.9752  -27.4285   18.7822 C   0  0  0  0  0  0  0  0  0  0  0  0
  -30.3932  -13.4342   20.0350 C   0  0  0  0  0  0  0  0  0  0  0  0
  -24.7142  -17.4443   22.3908 C   0  0  0  0  0  0  0  0  0  0  0  0
  -29.4411  -14.4682   19.9537 C   0  0  0  0  0  0  0  0  0  0  0  0
  -23.4789  -17.0550   21.8536 C   0  0  0  0  0  0  0  0  0  0  0  0
  -29.3754  -24.0024   21.8766 C   0  0  0  0  0  0  0  0  0  0  0  0
  -22.9908  -19.3773   21.3255 C   0  0  0  0  0  0  0  0  0  0  0  0
  -29.5112  -22.2571   23.4443 C   0  0  0  0  0  0  0  0  0  0  0  0
  -28.3227  -20.7754   25.4874 C   0  0  0  0  0  0  0  0  0  0  0  0
  -29.3282  -20.8826   23.2932 C   0  0  0  0  0  0  0  0  0  0  0  0
  -27.1162  -27.1360   20.1520 C   0  0  0  0  0  0  0  0  0  0  0  0
  -26.1501  -28.5261   18.7486 C   0  0  0  0  0  0  0  0  0  0  0  0
  -19.6005  -27.8742   22.7372 C   0  0  0  0  0  0  0  0  0  0  0  0
  -27.5394  -26.7672   17.6420 C   0  0  0  0  0  0  0  0  0  0  0  0
  -25.9361  -14.8251   21.0677 C   0  0  0  0  0  0  0  0  0  0  0  0
  -23.6116  -13.3467   22.7804 C   0  0  0  0  0  0  0  0  0  0  0  0
  -20.5810  -13.5564   24.3355 C   0  0  0  0  0  0  0  0  0  0  0  0
  -22.0216  -30.6408   22.5347 C   0  0  0  0  0  0  0  0  0  0  0  0
  -30.0066  -11.9853   19.8742 C   0  0  0  0  0  0  0  0  0  0  0  0
  -25.6379  -16.4226   22.9952 C   0  0  0  0  0  0  0  0  0  0  0  0
  -23.0438  -15.6133   21.8289 C   0  0  0  0  0  0  0  0  0  0  0  0
  -28.5133  -11.7291   20.0603 C   0  0  0  0  0  0  0  0  0  0  0  0
  -24.9031  -32.3535   21.3345 C   0  0  0  0  0  0  0  0  0  0  0  0
  -27.6947  -12.7529   19.2802 C   0  0  0  0  0  0  0  0  0  0  0  0
  -25.7843  -31.2369   20.7718 C   0  0  0  0  0  0  0  0  0  0  0  0
  -24.1522  -31.9034   22.5858 C   0  0  0  0  0  0  0  0  0  0  0  0
  -24.2471  -29.5495   21.8619 C   0  0  0  0  0  0  0  0  0  0  0  0
  -27.9660  -14.1756   19.7838 C   0  0  1  0  0  0  0  0  0  0  0  0
  -25.4027  -15.0135   22.4597 C   0  0  1  0  0  0  0  0  0  0  0  0
  -24.9814  -29.9381   20.5673 C   0  0  2  0  0  0  0  0  0  0  0  0
  -19.2530  -29.8183   21.1683 C   0  0  0  0  0  0  0  0  0  0  0  0
  -18.9234  -12.1732   25.6148 C   0  0  0  0  0  0  0  0  0  0  0  0
  -22.7076  -12.0299   20.1806 C   0  0  0  0  0  0  0  0  0  0  0  0
  -20.5484  -11.4490   21.3070 C   0  0  0  0  0  0  0  0  0  0  0  0
  -22.6950  -10.5199   22.1741 C   0  0  0  0  0  0  0  0  0  0  0  0
  -20.8263  -15.2717   26.7347 C   0  0  0  0  0  0  0  0  0  0  0  0
  -20.7993  -23.6638   21.8579 C   0  0  0  0  0  0  0  0  0  0  0  0
  -20.8166  -22.2511   21.2720 C   0  0  0  0  0  0  0  0  0  0  0  0
  -19.4150  -24.3199   21.8013 C   0  0  0  0  0  0  0  0  0  0  0  0
  -22.1979  -21.6188   21.3775 C   0  0  0  0  0  0  0  0  0  1  0  0
  -19.9690  -29.2507   22.4179 C   0  0  2  0  0  0  0  0  0  0  0  0
  -22.1725  -12.9685   22.5255 C   0  0  1  0  0  0  0  0  0  0  0  0
  -20.1209  -13.1058   25.7101 C   0  0  2  0  0  0  0  0  0  0  0  0
  -22.0396  -11.7689   21.5453 C   0  0  0  0  0  0  0  0  0  0  0  0
  -19.0413  -27.4630   23.8515 N   0  0  0  0  0  0  0  0  0  0  0  0
  -26.4355  -27.9798   20.9322 N   0  0  0  0  0  0  0  0  0  0  0  0
  -19.7909  -26.8168   21.9034 N   0  0  0  0  0  0  0  0  0  0  0  0
  -19.3557  -25.6757   22.4590 N   0  0  0  0  0  0  0  0  0  0  0  0
  -25.8588  -28.8133   20.0497 N   0  0  0  0  0  0  0  0  0  0  0  0
  -23.9844  -14.6511   22.4262 N   0  0  0  0  0  0  0  0  0  0  0  0
  -23.4101  -30.6678   22.3243 N   0  0  0  0  0  0  0  0  0  0  0  0
  -25.6528  -29.2639   17.7334 N   0  0  0  0  0  0  0  0  0  0  0  0
  -28.3650  -25.6549   17.8556 N   0  0  0  0  0  0  0  0  0  0  0  0
  -27.2558  -14.4178   21.0213 N   0  0  0  0  0  0  0  0  0  0  0  0
  -21.5726  -12.7391   23.8354 N   0  0  0  0  0  0  0  0  0  0  0  0
  -21.3944  -29.4325   22.2566 N   0  0  0  0  0  0  0  0  0  0  0  0
  -19.7351  -14.2828   26.5389 N   0  3  0  0  0  0  0  0  0  0  0  0
  -27.3313  -27.1612   16.4695 O   0  0  0  0  0  0  0  0  0  0  0  0
  -25.2042  -15.0324   20.1070 O   0  0  0  0  0  0  0  0  0  0  0  0
  -24.3750  -12.5177   23.2820 O   0  0  0  0  0  0  0  0  0  0  0  0
  -20.1055  -14.5334   23.7610 O   0  0  0  0  0  0  0  0  0  0  0  0
  -21.3869  -31.6226   22.9352 O   0  0  0  0  0  0  0  0  0  0  0  0
  -30.1018  -22.9939   22.4314 O   0  0  0  0  0  0  0  0  0  0  0  0
  -22.1527  -20.3134   20.8028 O   0  0  0  0  0  0  0  0  0  1  0  0
  -27.7533  -20.0638   26.4691 F   0  0  0  0  0  0  0  0  0  0  0  0
  -29.7223  -20.2681   22.1694 F   0  0  0  0  0  0  0  0  0  0  0  0
  1  2  1  0  0  0  0
  1  5  2  0  0  0  0
  2  6  2  0  0  0  0
  3  8  2  0  0  0  0
  3 16  1  0  0  0  0
  4  9  1  0  0  0  0
  4 16  2  0  0  0  0
  5 18  1  0  0  0  0
  6 20  1  0  0  0  0
  7 10  2  0  0  0  0
  7 19  1  0  0  0  0
  8 22  1  0  0  0  0
  9 22  2  0  0  0  0
 10 23  1  0  0  0  0
 11 12  2  0  0  0  0
 11 24  1  0  0  0  0
 12 25  1  0  0  0  0
 13 21  1  0  0  0  0
 13 23  2  0  0  0  0
 14 25  2  0  0  0  0
 14 26  1  0  0  0  0
 15 61  2  0  0  0  0
 15 64  1  0  0  0  0
 16 27  1  0  0  0  0
 17 27  1  0  0  0  0
 17 28  2  0  0  0  0
 17 30  1  0  0  0  0
 18 20  2  0  0  0  0
 18 35  1  0  0  0  0
 19 21  2  0  0  0  0
 19 36  1  0  0  0  0
 20 44  1  0  0  0  0
 21 37  1  0  0  0  0
 22 79  1  0  0  0  0
 23 80  1  0  0  0  0
 24 26  2  0  0  0  0
 24 79  1  0  0  0  0
 25 81  1  0  0  0  0
 26 82  1  0  0  0  0
 27 62  2  0  0  0  0
 28 65  1  0  0  0  0
 28 68  1  0  0  0  0
 29 57  1  0  0  0  0
 29 61  1  0  0  0  0
 29 63  2  0  0  0  0
 30 69  1  0  0  0  0
 30 74  2  0  0  0  0
 31 45  1  0  0  0  0
 31 70  1  0  0  0  0
 31 75  2  0  0  0  0
 32 58  1  0  0  0  0
 32 66  1  0  0  0  0
 32 76  2  0  0  0  0
 33 59  1  0  0  0  0
 33 71  1  0  0  0  0
 33 77  2  0  0  0  0
 34 67  1  0  0  0  0
 34 72  1  0  0  0  0
 34 78  2  0  0  0  0
 35 38  1  0  0  0  0
 36 45  1  0  0  0  0
 37 66  1  0  0  0  0
 38 40  1  0  0  0  0
 39 41  1  0  0  0  0
 39 42  1  0  0  0  0
 40 44  1  0  0  0  0
 41 46  1  0  0  0  0
 42 67  1  0  0  0  0
 43 46  1  0  0  0  0
 43 67  1  0  0  0  0
 44 70  1  0  0  0  0
 45 66  1  0  0  0  0
 46 65  1  0  0  0  0
 47 57  1  0  0  0  0
 48 59  1  0  0  0  0
 49 60  1  0  0  0  0
 50 60  1  0  0  0  0
 51 60  1  0  0  0  0
 52 73  1  0  0  0  0
 53 54  1  0  0  0  0
 53 55  1  0  0  0  0
 54 56  1  0  0  0  0
 55 64  1  0  0  0  0
 56 80  1  0  0  0  0
 57 72  1  0  0  0  0
 58 60  1  0  0  0  0
 58 71  1  0  0  0  0
 59 73  1  0  0  0  0
 62 65  1  0  0  0  0
 63 64  1  0  0  0  0
M  CHG  1  73   1
M  ISO  4  34 100  56 101  72 100  80 101
M  END
> <Batch ID>
0062

> <Smiles>
CNC(C)C(=O)NC(C(=O)N1Cc2cc([101O:1][101CH2:1]CCCn3cnc(C(C)[100NH:0][100C:0](=O)N4CCCC(n5nc(-c6ccc(Oc7ccc(F)cc7F)cc6)c(C(N)=O)c5N)C4)n3)ccc2CC1C(=O)NC1CCCc2ccccc21)C(C)(C)C

> <Shape>
0.215

> <Color>
0.080

> <Negative vol penalty>
0.000

$$$$

  -OEChem-04052318003D

 87 95  0     1  0  0  0  0  0999 V2000
  -16.8149  -29.5607   23.7540 C   0  0  0  0  0  0  0  0  0  0  0  0
  -17.1734  -28.4476   23.0003 C   0  0  0  0  0  0  0  0  0  0  0  0
  -22.8591  -10.0664   20.1807 C   0  0  0  0  0  0  0  0  0  0  0  0
  -24.3959   -9.4070   21.9243 C   0  0  0  0  0  0  0  0  0  0  0  0
  -17.7153  -30.6135   23.9121 C   0  0  0  0  0  0  0  0  0  0  0  0
  -18.4322  -28.3872   22.4035 C   0  0  0  0  0  0  0  0  0  0  0  0
  -21.8780  -23.3924   21.5759 C   0  0  0  0  0  0  0  0  0  0  0  0
  -22.2691   -8.8032   20.2228 C   0  0  0  0  0  0  0  0  0  0  0  0
  -23.8060   -8.1437   21.9665 C   0  0  0  0  0  0  0  0  0  0  0  0
  -22.0765  -22.5619   20.4738 C   0  0  0  0  0  0  0  0  0  0  0  0
  -21.0230   -6.7384   23.2705 C   0  0  0  0  0  0  0  0  0  0  0  0
  -20.7406   -6.1983   24.5251 C   0  0  0  0  0  0  0  0  0  0  0  0
  -24.0633  -23.8051   19.9025 C   0  0  0  0  0  0  0  0  0  0  0  0
  -22.1866   -4.3237   24.0434 C   0  0  0  0  0  0  0  0  0  0  0  0
  -23.9225  -10.3683   21.0313 C   0  0  0  0  0  0  0  0  0  0  0  0
  -24.1686  -12.8071   21.7381 C   0  0  0  0  0  0  0  0  0  0  0  0
  -18.9893  -30.5616   23.3249 C   0  0  0  0  0  0  0  0  0  0  0  0
  -22.7661  -24.4441   21.8438 C   0  0  0  0  0  0  0  0  0  0  0  0
  -19.3500  -29.4408   22.5528 C   0  0  0  0  0  0  0  0  0  0  0  0
  -23.8752  -24.6460   21.0100 C   0  0  0  0  0  0  0  0  0  0  0  0
  -22.7426   -7.8418   21.1157 C   0  0  0  0  0  0  0  0  0  0  0  0
  -23.1677  -22.7700   19.6352 C   0  0  0  0  0  0  0  0  0  0  0  0
  -21.8871   -6.0712   22.4022 C   0  0  0  0  0  0  0  0  0  0  0  0
  -21.3224   -4.9909   24.9116 C   0  0  0  0  0  0  0  0  0  0  0  0
  -22.4689   -4.8638   22.7888 C   0  0  0  0  0  0  0  0  0  0  0  0
  -24.5327  -11.6729   20.9879 C   0  0  0  0  0  0  0  0  0  0  0  0
  -25.0470  -13.7826   21.3339 C   0  0  0  0  0  0  0  0  0  0  0  0
  -25.3095  -19.0967   19.6393 C   0  0  0  0  0  0  0  0  0  0  0  0
  -27.2513  -18.4406   20.5533 C   0  0  0  0  0  0  0  0  0  0  0  0
  -25.6758  -19.3982   21.8329 C   0  0  0  0  0  0  0  0  0  0  0  0
  -23.1293  -12.9648   22.7131 C   0  0  0  0  0  0  0  0  0  0  0  0
  -22.5117  -27.6083   22.0068 C   0  0  0  0  0  0  0  0  0  0  0  0
  -25.5871  -27.4133   23.0200 C   0  0  0  0  0  0  0  0  0  0  0  0
  -28.5084  -25.6504   23.0892 C   0  0  0  0  0  0  0  0  0  0  0  0
  -30.4890  -15.0352   20.2698 C   0  0  0  0  0  0  0  0  0  0  0  0
  -19.9109  -31.7447   23.4845 C   0  0  0  0  0  0  0  0  0  0  0  0
  -22.5528  -25.3144   23.0519 C   0  0  0  0  0  0  0  0  0  0  0  0
  -24.8692  -25.7484   21.2656 C   0  0  0  0  0  0  0  0  0  0  0  0
  -21.3637  -31.4373   23.1305 C   0  0  0  0  0  0  0  0  0  0  0  0
  -28.3206  -13.9034   17.4915 C   0  0  0  0  0  0  0  0  0  0  0  0
  -21.4418  -30.6742   21.8120 C   0  0  0  0  0  0  0  0  0  0  0  0
  -27.1495  -13.2536   18.2265 C   0  0  0  0  0  0  0  0  0  0  0  0
  -29.6104  -13.8302   18.3031 C   0  0  0  0  0  0  0  0  0  0  0  0
  -28.3201  -13.7433   20.4106 C   0  0  0  0  0  0  0  0  0  0  0  0
  -20.7154  -29.3273   21.9103 C   0  0  1  0  0  0  0  0  0  0  0  0
  -23.2341  -26.6745   22.9362 C   0  0  1  0  0  0  0  0  0  0  0  0
  -26.9949  -13.8413   19.6400 C   0  0  2  0  0  0  0  0  0  0  0  0
  -30.8605  -25.0660   23.7401 C   0  0  0  0  0  0  0  0  0  0  0  0
  -23.6605  -19.7784   23.2957 C   0  0  0  0  0  0  0  0  0  0  0  0
  -25.6051  -21.3736   23.3947 C   0  0  0  0  0  0  0  0  0  0  0  0
  -25.7853  -19.1058   24.3977 C   0  0  0  0  0  0  0  0  0  0  0  0
  -26.3043  -29.4117   20.8286 C   0  0  0  0  0  0  0  0  0  0  0  0
  -28.7053  -28.7656   21.1219 C   0  0  0  0  0  0  0  0  0  0  0  0
  -27.4545  -29.8030   23.0145 C   0  0  0  0  0  0  0  0  0  0  0  0
  -31.2291  -16.7881   21.8379 C   0  0  0  0  0  0  0  0  0  0  0  0
  -27.5976  -24.1226   25.4546 C   0  0  0  0  0  0  0  0  0  0  0  0
  -24.4142  -19.2343   18.4338 C   0  0  0  0  0  0  0  0  0  0  0  0
  -28.6003  -17.8216   20.4132 C   0  0  0  0  0  0  0  0  0  0  0  0
  -24.8156  -20.3745   17.4955 C   0  0  0  0  0  0  0  0  0  0  0  0
  -28.8209  -16.6136   21.3321 C   0  0  0  0  0  0  0  0  0  0  0  0
  -24.7116  -21.7518   18.1400 C   0  0  0  0  0  0  0  0  0  1  0  0
  -26.9375  -27.4205   22.3452 C   0  0  1  0  0  0  0  0  0  0  0  0
  -29.4386  -25.2868   24.2324 C   0  0  2  0  0  0  0  0  0  0  0  0
  -25.2120  -19.8811   23.1649 C   0  0  0  0  0  0  0  0  0  0  0  0
  -27.3308  -28.8305   21.8214 C   0  0  0  0  0  0  0  0  0  0  0  0
  -25.5621  -11.9049   20.1690 N   0  0  0  0  0  0  0  0  0  0  0  0
  -26.5100  -18.5297   19.4374 N   0  0  0  0  0  0  0  0  0  0  0  0
  -24.8253  -19.5535   20.8055 N   0  0  0  0  0  0  0  0  0  0  0  0
  -26.9015  -18.8522   21.7826 N   0  0  0  0  0  0  0  0  0  0  0  0
  -25.8522  -13.1963   20.4022 N   0  0  0  0  0  0  0  0  0  0  0  0
  -24.6138  -26.5765   22.4557 N   0  0  0  0  0  0  0  0  0  0  0  0
  -29.4240  -14.3554   19.6561 N   0  0  0  0  0  0  0  0  0  0  0  0
  -25.2014  -15.0761   21.6881 N   0  0  0  0  0  0  0  0  0  0  0  0
  -22.3182  -11.8609   23.0096 N   0  0  0  0  0  0  0  0  0  0  0  0
  -21.5303  -28.3641   22.6193 N   0  0  0  0  0  0  0  0  0  0  0  0
  -27.8778  -26.8570   23.3078 N   0  0  0  0  0  0  0  0  0  0  0  0
  -30.1597  -16.0469   21.1844 N   0  0  0  0  0  0  0  0  0  0  0  0
  -28.9738  -24.0390   24.9016 N   0  3  0  0  0  0  0  0  0  0  0  0
  -22.9155  -14.0569   23.2920 O   0  0  0  0  0  0  0  0  0  0  0  0
  -22.8228  -27.6418   20.8219 O   0  0  0  0  0  0  0  0  0  0  0  0
  -25.4047  -28.1186   24.0154 O   0  0  0  0  0  0  0  0  0  0  0  0
  -28.3591  -24.9373   22.0994 O   0  0  0  0  0  0  0  0  0  0  0  0
  -31.6670  -14.7603   20.0075 O   0  0  0  0  0  0  0  0  0  0  0  0
  -22.1670   -6.6091   21.1573 O   0  0  0  0  0  0  0  0  0  0  0  0
  -23.3635  -21.9612   18.5585 O   0  0  0  0  0  0  0  0  0  1  0  0
  -21.0524   -4.4731   26.1171 F   0  0  0  0  0  0  0  0  0  0  0  0
  -23.3008   -4.2188   21.9595 F   0  0  0  0  0  0  0  0  0  0  0  0
  1  2  1  0  0  0  0
  1  5  2  0  0  0  0
  2  6  2  0  0  0  0
  3  8  2  0  0  0  0
  3 15  1  0  0  0  0
  4  9  1  0  0  0  0
  4 15  2  0  0  0  0
  5 17  1  0  0  0  0
  6 19  1  0  0  0  0
  7 10  2  0  0  0  0
  7 18  1  0  0  0  0
  8 21  1  0  0  0  0
  9 21  2  0  0  0  0
 10 22  1  0  0  0  0
 11 12  2  0  0  0  0
 11 23  1  0  0  0  0
 12 24  1  0  0  0  0
 13 20  1  0  0  0  0
 13 22  2  0  0  0  0
 14 24  2  0  0  0  0
 14 25  1  0  0  0  0
 15 26  1  0  0  0  0
 16 26  1  0  0  0  0
 16 27  2  0  0  0  0
 16 31  1  0  0  0  0
 17 19  2  0  0  0  0
 17 36  1  0  0  0  0
 18 20  2  0  0  0  0
 18 37  1  0  0  0  0
 19 45  1  0  0  0  0
 20 38  1  0  0  0  0
 21 84  1  0  0  0  0
 22 85  1  0  0  0  0
 23 25  2  0  0  0  0
 23 84  1  0  0  0  0
 24 86  1  0  0  0  0
 25 87  1  0  0  0  0
 26 66  2  0  0  0  0
 27 70  1  0  0  0  0
 27 73  1  0  0  0  0
 28 57  1  0  0  0  0
 28 67  1  0  0  0  0
 28 68  2  0  0  0  0
 29 58  1  0  0  0  0
 29 67  2  0  0  0  0
 29 69  1  0  0  0  0
 30 64  1  0  0  0  0
 30 68  1  0  0  0  0
 30 69  2  0  0  0  0
 31 74  1  0  0  0  0
 31 79  2  0  0  0  0
 32 46  1  0  0  0  0
 32 75  1  0  0  0  0
 32 80  2  0  0  0  0
 33 62  1  0  0  0  0
 33 71  1  0  0  0  0
 33 81  2  0  0  0  0
 34 63  1  0  0  0  0
 34 76  1  0  0  0  0
 34 82  2  0  0  0  0
 35 72  1  0  0  0  0
 35 77  1  0  0  0  0
 35 83  2  0  0  0  0
 36 39  1  0  0  0  0
 37 46  1  0  0  0  0
 38 71  1  0  0  0  0
 39 41  1  0  0  0  0
 40 42  1  0  0  0  0
 40 43  1  0  0  0  0
 41 45  1  0  0  0  0
 42 47  1  0  0  0  0
 43 72  1  0  0  0  0
 44 47  1  0  0  0  0
 44 72  1  0  0  0  0
 45 75  1  0  0  0  0
 46 71  1  0  0  0  0
 47 70  1  0  0  0  0
 48 63  1  0  0  0  0
 49 64  1  0  0  0  0
 50 64  1  0  0  0  0
 51 64  1  0  0  0  0
 52 65  1  0  0  0  0
 53 65  1  0  0  0  0
 54 65  1  0  0  0  0
 55 77  1  0  0  0  0
 56 78  1  0  0  0  0
 57 59  1  0  0  0  0
 58 60  1  0  0  0  0
 59 61  1  0  0  0  0
 60 77  1  0  0  0  0
 61 85  1  0  0  0  0
 62 65  1  0  0  0  0
 62 76  1  0  0  0  0
 63 78  1  0  0  0  0
 66 70  1  0  0  0  0
M  CHG  1  78   1
M  ISO  4  35 100  61 101  77 100  85 101
M  END
> <Batch ID>
0062

> <Smiles>
CNC(C)C(=O)NC(C(=O)N1Cc2cc([101O:1][101CH2:1]CCc3nc(CC[100N:0](C)[100C:0](=O)N4CCCC(n5nc(-c6ccc(Oc7ccc(F)cc7F)cc6)c(C(N)=O)c5N)C4)nc(C(C)(C)C)n3)ccc2CC1C(=O)NC1CCCc2ccccc21)C(C)(C)C

> <Shape>
0.260

> <Color>
0.138

> <Negative vol penalty>
0.000

$$$$

  -OEChem-04052318003D

 84 92  0     1  0  0  0  0  0999 V2000
  -29.7817  -23.9793   17.3863 C   0  0  0  0  0  0  0  0  0  0  0  0
  -28.5393  -24.0366   18.0095 C   0  0  0  0  0  0  0  0  0  0  0  0
  -23.1836  -10.4211   22.3539 C   0  0  0  0  0  0  0  0  0  0  0  0
  -22.4821  -10.3542   20.0429 C   0  0  0  0  0  0  0  0  0  0  0  0
  -30.8531  -24.7075   17.9017 C   0  0  0  0  0  0  0  0  0  0  0  0
  -28.3678  -24.8214   19.1493 C   0  0  0  0  0  0  0  0  0  0  0  0
  -24.1093  -27.5579   19.0014 C   0  0  0  0  0  0  0  0  0  0  0  0
  -22.7396   -9.1102   22.5267 C   0  0  0  0  0  0  0  0  0  0  0  0
  -22.0381   -9.0433   20.2157 C   0  0  0  0  0  0  0  0  0  0  0  0
  -22.9164  -26.8952   19.2870 C   0  0  0  0  0  0  0  0  0  0  0  0
  -19.7946   -7.5203   22.9998 C   0  0  0  0  0  0  0  0  0  0  0  0
  -19.0530   -7.2338   24.1459 C   0  0  0  0  0  0  0  0  0  0  0  0
  -21.9274  -21.6287   21.1809 C   0  0  0  0  0  0  0  0  0  0  0  0
  -22.9690  -27.7802   21.5305 C   0  0  0  0  0  0  0  0  0  0  0  0
  -20.7184   -5.6184   24.8197 C   0  0  0  0  0  0  0  0  0  0  0  0
  -22.8469  -20.8770   20.4910 C   0  0  0  0  0  0  0  0  0  0  0  0
  -23.0549  -11.0432   21.1120 C   0  0  0  0  0  0  0  0  0  0  0  0
  -24.7958  -12.8150   20.5313 C   0  0  0  0  0  0  0  0  0  0  0  0
  -30.6923  -25.5092   19.0428 C   0  0  0  0  0  0  0  0  0  0  0  0
  -24.7478  -28.3292   19.9831 C   0  0  0  0  0  0  0  0  0  0  0  0
  -29.4385  -25.5600   19.6813 C   0  0  0  0  0  0  0  0  0  0  0  0
  -24.1686  -28.4538   21.2540 C   0  0  0  0  0  0  0  0  0  0  0  0
  -22.1669   -8.4213   21.4576 C   0  0  0  0  0  0  0  0  0  0  0  0
  -22.3476  -27.0040   20.5526 C   0  0  0  0  0  0  0  0  0  0  0  0
  -20.9981   -6.8558   22.7636 C   0  0  0  0  0  0  0  0  0  0  0  0
  -19.5148   -6.2829   25.0558 C   0  0  0  0  0  0  0  0  0  0  0  0
  -21.4600   -5.9049   23.6736 C   0  0  0  0  0  0  0  0  0  0  0  0
  -23.5128  -12.3976   20.9331 C   0  0  0  0  0  0  0  0  0  0  0  0
  -20.9757  -21.9974   20.2113 C   0  0  0  0  0  0  0  0  0  0  0  0
  -24.7208  -14.1863   20.5135 C   0  0  0  0  0  0  0  0  0  0  0  0
  -25.9520  -12.0331   20.2034 C   0  0  0  0  0  0  0  0  0  0  0  0
  -27.5639  -28.2061   21.4524 C   0  0  0  0  0  0  0  0  0  0  0  0
  -26.5879  -31.0283   22.7193 C   0  0  0  0  0  0  0  0  0  0  0  0
  -23.9977  -33.0846   23.5613 C   0  0  0  0  0  0  0  0  0  0  0  0
  -20.5518  -18.1664   19.1488 C   0  0  0  0  0  0  0  0  0  0  0  0
  -31.8917  -26.2412   19.5906 C   0  0  0  0  0  0  0  0  0  0  0  0
  -26.0202  -29.0594   19.6510 C   0  0  0  0  0  0  0  0  0  0  0  0
  -24.8038  -29.2859   22.3368 C   0  0  0  0  0  0  0  0  0  0  0  0
  -31.5315  -27.3430   20.5839 C   0  0  0  0  0  0  0  0  0  0  0  0
  -21.7741  -17.5580   22.5894 C   0  0  0  0  0  0  0  0  0  0  0  0
  -30.5104  -26.8354   21.5970 C   0  0  0  0  0  0  0  0  0  0  0  0
  -22.4009  -16.1691   22.4795 C   0  0  0  0  0  0  0  0  0  0  0  0
  -20.6466  -17.7529   21.5802 C   0  0  0  0  0  0  0  0  0  0  0  0
  -21.6714  -16.0915   20.0624 C   0  0  0  0  0  0  0  0  0  0  0  0
  -29.2067  -26.4193   20.9052 C   0  0  1  0  0  0  0  0  0  0  0  0
  -26.8522  -29.4009   20.8832 C   0  0  1  0  0  0  0  0  0  0  0  0
  -22.8418  -15.8790   21.0342 C   0  0  2  0  0  0  0  0  0  0  0  0
  -23.5111  -35.3093   24.6156 C   0  0  0  0  0  0  0  0  0  0  0  0
  -18.8836  -23.0628   19.1259 C   0  0  0  0  0  0  0  0  0  0  0  0
  -18.7825  -22.1155   21.4144 C   0  0  0  0  0  0  0  0  0  0  0  0
  -27.1529  -29.8438   25.4739 C   0  0  0  0  0  0  0  0  0  0  0  0
  -25.7874  -31.6903   26.4710 C   0  0  0  0  0  0  0  0  0  0  0  0
  -27.8640  -32.2254   25.1966 C   0  0  0  0  0  0  0  0  0  0  0  0
  -20.7571  -18.4816   16.7120 C   0  0  0  0  0  0  0  0  0  0  0  0
  -22.7113  -34.1012   21.0974 C   0  0  0  0  0  0  0  0  0  0  0  0
  -20.0629  -24.2446   21.0191 C   0  0  0  0  0  0  0  0  0  0  0  0
  -23.0467  -20.1688   18.0958 C   0  0  0  0  0  0  0  0  0  0  0  0
  -22.7954  -18.6632   18.0896 C   0  0  0  0  0  0  0  0  0  0  0  0
  -20.9321  -25.1388   20.1360 C   0  0  0  0  0  0  0  0  0  1  0  0
  -25.8118  -31.4372   23.9479 C   0  0  1  0  0  0  0  0  0  0  0  0
  -23.7648  -34.5642   23.3143 C   0  0  2  0  0  0  0  0  0  0  0  0
  -19.7112  -22.8511   20.4163 C   0  0  0  0  0  0  0  0  0  0  0  0
  -26.6428  -31.2819   25.2527 C   0  0  0  0  0  0  0  0  0  0  0  0
  -22.6835  -13.4209   21.1547 N   0  0  0  0  0  0  0  0  0  0  0  0
  -21.2641  -21.5194   18.9979 N   0  0  0  0  0  0  0  0  0  0  0  0
  -22.4074  -20.8428   19.2003 N   0  0  0  0  0  0  0  0  0  0  0  0
  -23.4472  -14.4949   20.8913 N   0  0  0  0  0  0  0  0  0  0  0  0
  -26.0503  -29.9756   21.9653 N   0  0  0  0  0  0  0  0  0  0  0  0
  -21.0807  -17.4289   20.2208 N   0  0  0  0  0  0  0  0  0  0  0  0
  -25.6208  -15.1463   20.2118 N   0  0  0  0  0  0  0  0  0  0  0  0
  -25.8561  -10.6366   20.2738 N   0  0  0  0  0  0  0  0  0  0  0  0
  -28.4212  -27.5859   20.5637 N   0  0  0  0  0  0  0  0  0  0  0  0
  -25.3387  -32.7946   23.6988 N   0  0  0  0  0  0  0  0  0  0  0  0
  -21.3725  -18.3374   18.0236 N   0  0  0  0  0  0  0  0  0  0  0  0
  -22.5873  -34.7615   22.4225 N   0  3  0  0  0  0  0  0  0  0  0  0
  -27.0429  -12.5577   19.8742 O   0  0  0  0  0  0  0  0  0  0  0  0
  -27.3520  -27.8726   22.6123 O   0  0  0  0  0  0  0  0  0  0  0  0
  -27.6290  -31.6258   22.4350 O   0  0  0  0  0  0  0  0  0  0  0  0
  -23.0813  -32.2684   23.6295 O   0  0  0  0  0  0  0  0  0  0  0  0
  -19.4148  -18.6527   19.1986 O   0  0  0  0  0  0  0  0  0  0  0  0
  -21.7337   -7.1419   21.6258 O   0  0  0  0  0  0  0  0  0  0  0  0
  -21.1836  -26.3577   20.8343 O   0  0  0  0  0  0  0  0  0  1  0  0
  -18.8033   -6.0089   26.1571 F   0  0  0  0  0  0  0  0  0  0  0  0
  -22.6160   -5.2641   23.4527 F   0  0  0  0  0  0  0  0  0  0  0  0
  1  2  1  0  0  0  0
  1  5  2  0  0  0  0
  2  6  2  0  0  0  0
  3  8  2  0  0  0  0
  3 17  1  0  0  0  0
  4  9  1  0  0  0  0
  4 17  2  0  0  0  0
  5 19  1  0  0  0  0
  6 21  1  0  0  0  0
  7 10  2  0  0  0  0
  7 20  1  0  0  0  0
  8 23  1  0  0  0  0
  9 23  2  0  0  0  0
 10 24  1  0  0  0  0
 11 12  2  0  0  0  0
 11 25  1  0  0  0  0
 12 26  1  0  0  0  0
 13 16  2  0  0  0  0
 13 29  1  0  0  0  0
 14 22  1  0  0  0  0
 14 24  2  0  0  0  0
 15 26  2  0  0  0  0
 15 27  1  0  0  0  0
 16 66  1  0  0  0  0
 17 28  1  0  0  0  0
 18 28  1  0  0  0  0
 18 30  2  0  0  0  0
 18 31  1  0  0  0  0
 19 21  2  0  0  0  0
 19 36  1  0  0  0  0
 20 22  2  0  0  0  0
 20 37  1  0  0  0  0
 21 45  1  0  0  0  0
 22 38  1  0  0  0  0
 23 81  1  0  0  0  0
 24 82  1  0  0  0  0
 25 27  2  0  0  0  0
 25 81  1  0  0  0  0
 26 83  1  0  0  0  0
 27 84  1  0  0  0  0
 28 64  2  0  0  0  0
 29 62  1  0  0  0  0
 29 65  2  0  0  0  0
 30 67  1  0  0  0  0
 30 70  1  0  0  0  0
 31 71  1  0  0  0  0
 31 76  2  0  0  0  0
 32 46  1  0  0  0  0
 32 72  1  0  0  0  0
 32 77  2  0  0  0  0
 33 60  1  0  0  0  0
 33 68  1  0  0  0  0
 33 78  2  0  0  0  0
 34 61  1  0  0  0  0
 34 73  1  0  0  0  0
 34 79  2  0  0  0  0
 35 69  1  0  0  0  0
 35 74  1  0  0  0  0
 35 80  2  0  0  0  0
 36 39  1  0  0  0  0
 37 46  1  0  0  0  0
 38 68  1  0  0  0  0
 39 41  1  0  0  0  0
 40 42  1  0  0  0  0
 40 43  1  0  0  0  0
 41 45  1  0  0  0  0
 42 47  1  0  0  0  0
 43 69  1  0  0  0  0
 44 47  1  0  0  0  0
 44 69  1  0  0  0  0
 45 72  1  0  0  0  0
 46 68  1  0  0  0  0
 47 67  1  0  0  0  0
 48 61  1  0  0  0  0
 49 62  1  0  0  0  0
 50 62  1  0  0  0  0
 51 63  1  0  0  0  0
 52 63  1  0  0  0  0
 53 63  1  0  0  0  0
 54 74  1  0  0  0  0
 55 75  1  0  0  0  0
 56 59  1  0  0  0  0
 56 62  1  0  0  0  0
 57 58  1  0  0  0  0
 57 66  1  0  0  0  0
 58 74  1  0  0  0  0
 59 82  1  0  0  0  0
 60 63  1  0  0  0  0
 60 73  1  0  0  0  0
 61 75  1  0  0  0  0
 64 67  1  0  0  0  0
 65 66  1  0  0  0  0
M  CHG  1  75   1
M  ISO  4  35 100  59 101  74 100  82 101
M  END
> <Batch ID>
0062

> <Smiles>
CNC(C)C(=O)NC(C(=O)N1Cc2cc([101O:1][101CH2:1]CC(C)(C)c3ccn(CC[100N:0](C)[100C:0](=O)N4CCCC(n5nc(-c6ccc(Oc7ccc(F)cc7F)cc6)c(C(N)=O)c5N)C4)n3)ccc2CC1C(=O)NC1CCCc2ccccc21)C(C)(C)C

> <Shape>
0.279

> <Color>
0.120

> <Negative vol penalty>
0.000

$$$$

  -OEChem-04052318003D

 85 93  0     1  0  0  0  0  0999 V2000
  -23.1202  -33.6172   16.5046 C   0  0  0  0  0  0  0  0  0  0  0  0
  -22.6418  -32.3192   16.6521 C   0  0  0  0  0  0  0  0  0  0  0  0
  -24.0580  -11.6121   24.2947 C   0  0  0  0  0  0  0  0  0  0  0  0
  -24.3949  -13.8495   25.1418 C   0  0  0  0  0  0  0  0  0  0  0  0
  -24.1847  -34.0599   17.2886 C   0  0  0  0  0  0  0  0  0  0  0  0
  -23.2285  -31.4628   17.5830 C   0  0  0  0  0  0  0  0  0  0  0  0
  -21.5975  -26.0845   22.0250 C   0  0  0  0  0  0  0  0  0  0  0  0
  -23.5621  -11.2165   25.5369 C   0  0  0  0  0  0  0  0  0  0  0  0
  -23.8989  -13.4539   26.3840 C   0  0  0  0  0  0  0  0  0  0  0  0
  -22.0041  -24.7895   22.3433 C   0  0  0  0  0  0  0  0  0  0  0  0
  -24.8101  -10.3660   28.5607 C   0  0  0  0  0  0  0  0  0  0  0  0
  -25.2663   -9.1564   29.0845 C   0  0  0  0  0  0  0  0  0  0  0  0
  -23.7857  -25.6886   23.6986 C   0  0  0  0  0  0  0  0  0  0  0  0
  -23.0014   -8.3157   29.1157 C   0  0  0  0  0  0  0  0  0  0  0  0
  -28.9981  -18.0768   21.3752 C   0  0  0  0  0  0  0  0  0  0  0  0
  -24.4745  -12.9287   24.0972 C   0  0  0  0  0  0  0  0  0  0  0  0
  -24.2532  -13.8584   21.7320 C   0  0  0  0  0  0  0  0  0  0  0  0
  -24.7785  -33.2115   18.2364 C   0  0  0  0  0  0  0  0  0  0  0  0
  -22.2897  -27.1931   22.5332 C   0  0  0  0  0  0  0  0  0  0  0  0
  -24.3028  -31.8941   18.3796 C   0  0  0  0  0  0  0  0  0  0  0  0
  -23.3843  -26.9966   23.3873 C   0  0  0  0  0  0  0  0  0  0  0  0
  -23.4825  -12.1374   26.5816 C   0  0  0  0  0  0  0  0  0  0  0  0
  -23.1002  -24.5913   23.1779 C   0  0  0  0  0  0  0  0  0  0  0  0
  -23.4496  -10.5505   28.3145 C   0  0  0  0  0  0  0  0  0  0  0  0
  -24.3620   -8.1312   29.3620 C   0  0  0  0  0  0  0  0  0  0  0  0
  -22.5453   -9.5254   28.5920 C   0  0  0  0  0  0  0  0  0  0  0  0
  -24.9875  -13.3378   22.8144 C   0  0  0  0  0  0  0  0  0  0  0  0
  -28.7063  -18.7517   20.2165 C   0  0  0  0  0  0  0  0  0  0  0  0
  -25.1936  -14.0867   20.7573 C   0  0  0  0  0  0  0  0  0  0  0  0
  -22.8469  -14.1129   21.6178 C   0  0  0  0  0  0  0  0  0  0  0  0
  -23.9246  -29.5980   21.2497 C   0  0  0  0  0  0  0  0  0  0  0  0
  -31.1136  -15.0775   21.0468 C   0  0  0  0  0  0  0  0  0  0  0  0
  -24.0292  -30.6503   24.3163 C   0  0  0  0  0  0  0  0  0  0  0  0
  -23.8817  -29.9021   27.6427 C   0  0  0  0  0  0  0  0  0  0  0  0
  -25.9575  -33.7196   19.0278 C   0  0  0  0  0  0  0  0  0  0  0  0
  -21.8221  -28.5838   22.2018 C   0  0  0  0  0  0  0  0  0  0  0  0
  -24.1489  -28.1533   23.9754 C   0  0  0  0  0  0  0  0  0  0  0  0
  -26.2795  -32.8700   20.2545 C   0  0  0  0  0  0  0  0  0  0  0  0
  -29.4249  -12.5230   19.1859 C   0  0  0  0  0  0  0  0  0  0  0  0
  -26.2776  -31.3881   19.8928 C   0  0  0  0  0  0  0  0  0  0  0  0
  -28.0383  -12.4700   19.8259 C   0  0  0  0  0  0  0  0  0  0  0  0
  -30.5052  -12.8284   20.2188 C   0  0  0  0  0  0  0  0  0  0  0  0
  -28.8750  -14.0266   21.6430 C   0  0  0  0  0  0  0  0  0  0  0  0
  -24.8968  -30.9432   19.3960 C   0  0  1  0  0  0  0  0  0  0  0  0
  -22.9152  -29.6358   22.3620 C   0  0  1  0  0  0  0  0  0  0  0  0
  -27.7507  -13.7510   20.6289 C   0  0  2  0  0  0  0  0  0  0  0  0
  -31.9344  -16.9034   22.5191 C   0  0  0  0  0  0  0  0  0  0  0  0
  -24.0382  -30.9661   29.9100 C   0  0  0  0  0  0  0  0  0  0  0  0
  -27.0602  -30.8354   24.0176 C   0  0  0  0  0  0  0  0  0  0  0  0
  -27.2280  -30.9683   26.5120 C   0  0  0  0  0  0  0  0  0  0  0  0
  -26.0148  -32.7446   25.2489 C   0  0  0  0  0  0  0  0  0  0  0  0
  -21.1242  -29.0871   28.3435 C   0  0  0  0  0  0  0  0  0  0  0  0
  -25.0736  -18.1817   22.9698 C   0  0  0  0  0  0  0  0  0  0  0  0
  -27.6708  -19.8211   19.9758 C   0  0  0  0  0  0  0  0  0  0  0  0
  -26.3060  -19.2761   19.5346 C   0  0  0  0  0  0  0  0  0  0  0  0
  -24.3337  -21.2399   22.6554 C   0  0  0  0  0  0  0  0  0  0  0  0
  -25.6041  -18.3732   20.5444 C   0  0  0  0  0  0  0  0  0  0  0  0
  -24.1984  -20.1048   21.6517 C   0  0  0  0  0  0  0  0  0  0  0  0
  -23.2605  -22.3126   22.5163 C   0  0  0  0  0  0  0  0  0  1  0  0
  -30.7098  -16.2940   21.8412 C   0  0  1  0  0  0  0  0  0  0  0  0
  -24.9682  -30.4550   25.4822 C   0  0  1  0  0  0  0  0  0  0  0  0
  -23.1093  -30.5374   28.7848 C   0  0  2  0  0  0  0  0  0  0  0  0
  -26.3048  -31.2288   25.3027 C   0  0  0  0  0  0  0  0  0  0  0  0
  -26.2936  -13.2409   22.5523 N   0  0  0  0  0  0  0  0  0  0  0  0
  -29.5275  -18.3180   19.2130 N   0  0  0  0  0  0  0  0  0  0  0  0
  -30.3283  -17.3847   19.7154 N   0  0  0  0  0  0  0  0  0  0  0  0
  -30.0092  -17.2414   21.0119 N   0  0  0  0  0  0  0  0  0  0  0  0
  -26.3874  -13.7036   21.2941 N   0  0  0  0  0  0  0  0  0  0  0  0
  -23.6568  -29.4938   23.6167 N   0  0  0  0  0  0  0  0  0  0  0  0
  -30.1841  -14.0397   20.9757 N   0  0  0  0  0  0  0  0  0  0  0  0
  -25.1075  -14.5757   19.5019 N   0  0  0  0  0  0  0  0  0  0  0  0
  -22.0239  -13.8210   22.7140 N   0  0  0  0  0  0  0  0  0  0  0  0
  -23.9920  -30.7640   20.5112 N   0  0  0  0  0  0  0  0  0  0  0  0
  -24.2182  -30.8269   26.6770 N   0  0  0  0  0  0  0  0  0  0  0  0
  -22.1155  -29.5740   29.3371 N   0  3  0  0  0  0  0  0  0  0  0  0
  -25.3009  -19.1287   21.8160 N   0  3  1  0  0  0  0  0  0  0  0  0
  -22.3329  -14.5699   20.5687 O   0  0  0  0  0  0  0  0  0  0  0  0
  -24.5940  -28.5864   21.0753 O   0  0  0  0  0  0  0  0  0  0  0  0
  -32.2213  -15.0534   20.5040 O   0  0  0  0  0  0  0  0  0  0  0  0
  -23.6349  -31.7863   24.0411 O   0  0  0  0  0  0  0  0  0  0  0  0
  -24.1619  -28.7058   27.6123 O   0  0  0  0  0  0  0  0  0  0  0  0
  -22.9983  -11.7517   27.7938 O   0  0  0  0  0  0  0  0  0  0  0  0
  -23.4996  -23.3284   23.4897 O   0  0  0  0  0  0  0  0  0  1  0  0
  -24.8004   -6.9691   29.8635 F   0  0  0  0  0  0  0  0  0  0  0  0
  -21.2372   -9.6964   28.3564 F   0  0  0  0  0  0  0  0  0  0  0  0
  1  2  1  0  0  0  0
  1  5  2  0  0  0  0
  2  6  2  0  0  0  0
  3  8  2  0  0  0  0
  3 16  1  0  0  0  0
  4  9  1  0  0  0  0
  4 16  2  0  0  0  0
  5 18  1  0  0  0  0
  6 20  1  0  0  0  0
  7 10  2  0  0  0  0
  7 19  1  0  0  0  0
  8 22  1  0  0  0  0
  9 22  2  0  0  0  0
 10 23  1  0  0  0  0
 11 12  2  0  0  0  0
 11 24  1  0  0  0  0
 12 25  1  0  0  0  0
 13 21  1  0  0  0  0
 13 23  2  0  0  0  0
 14 25  2  0  0  0  0
 14 26  1  0  0  0  0
 15 28  2  0  0  0  0
 15 67  1  0  0  0  0
 16 27  1  0  0  0  0
 17 27  1  0  0  0  0
 17 29  2  0  0  0  0
 17 30  1  0  0  0  0
 18 20  2  0  0  0  0
 18 35  1  0  0  0  0
 19 21  2  0  0  0  0
 19 36  1  0  0  0  0
 20 44  1  0  0  0  0
 21 37  1  0  0  0  0
 22 82  1  0  0  0  0
 23 83  1  0  0  0  0
 24 26  2  0  0  0  0
 24 82  1  0  0  0  0
 25 84  1  0  0  0  0
 26 85  1  0  0  0  0
 27 64  2  0  0  0  0
 28 54  1  0  0  0  0
 28 65  1  0  0  0  0
 29 68  1  0  0  0  0
 29 71  1  0  0  0  0
 30 72  1  0  0  0  0
 30 77  2  0  0  0  0
 31 45  1  0  0  0  0
 31 73  1  0  0  0  0
 31 78  2  0  0  0  0
 32 60  1  0  0  0  0
 32 70  1  0  0  0  0
 32 79  2  0  0  0  0
 33 61  1  0  0  0  0
 33 69  1  0  0  0  0
 33 80  2  0  0  0  0
 34 62  1  0  0  0  0
 34 74  1  0  0  0  0
 34 81  2  0  0  0  0
 35 38  1  0  0  0  0
 36 45  1  0  0  0  0
 37 69  1  0  0  0  0
 38 40  1  0  0  0  0
 39 41  1  0  0  0  0
 39 42  1  0  0  0  0
 40 44  1  0  0  0  0
 41 46  1  0  0  0  0
 42 70  1  0  0  0  0
 43 46  1  0  0  0  0
 43 70  1  0  0  0  0
 44 73  1  0  0  0  0
 45 69  1  0  0  0  0
 46 68  1  0  0  0  0
 47 60  1  0  0  0  0
 48 62  1  0  0  0  0
 49 63  1  0  0  0  0
 50 63  1  0  0  0  0
 51 63  1  0  0  0  0
 52 75  1  0  0  0  0
 53 76  1  0  0  0  0
 54 55  1  0  0  0  0
 55 57  1  0  0  0  0
 56 58  1  0  0  0  0
 56 59  1  0  0  0  0
 57 76  1  0  0  0  0
 58 76  1  0  0  0  0
 59 83  1  0  0  0  0
 60 67  1  0  0  0  0
 61 63  1  0  0  0  0
 61 74  1  0  0  0  0
 62 75  1  0  0  0  0
 64 68  1  0  0  0  0
 65 66  2  0  0  0  0
 66 67  1  0  0  0  0
M  CHG  2  75   1  76   1
M  ISO  4  32 100  59 101  60 100  83 101
M  END
> <Batch ID>
0062

> <Smiles>
CNC(C)C(=O)NC(C(=O)N1Cc2cc([101O:1][101CH2:1]CCN(C)CCCc3cn([100CH:0](C)[100C:0](=O)N4CCCC(n5nc(-c6ccc(Oc7ccc(F)cc7F)cc6)c(C(N)=O)c5N)C4)nn3)ccc2CC1C(=O)NC1CCCc2ccccc21)C(C)(C)C

> <Shape>
0.216

> <Color>
0.110

> <Negative vol penalty>
0.000

$$$$

  -OEChem-04052318003D

 84 92  0     1  0  0  0  0  0999 V2000
  -28.0043  -24.3566   17.2137 C   0  0  0  0  0  0  0  0  0  0  0  0
  -26.9131  -25.1843   17.4524 C   0  0  0  0  0  0  0  0  0  0  0  0
  -26.7183  -12.8002   19.6174 C   0  0  0  0  0  0  0  0  0  0  0  0
  -24.3941  -13.3805   19.9317 C   0  0  0  0  0  0  0  0  0  0  0  0
  -29.0535  -24.3114   18.1292 C   0  0  0  0  0  0  0  0  0  0  0  0
  -26.8762  -25.9760   18.6008 C   0  0  0  0  0  0  0  0  0  0  0  0
  -23.1812  -29.2027   18.9732 C   0  0  0  0  0  0  0  0  0  0  0  0
  -26.5624  -11.7111   20.4748 C   0  0  0  0  0  0  0  0  0  0  0  0
  -24.2382  -12.2913   20.7891 C   0  0  0  0  0  0  0  0  0  0  0  0
  -21.8650  -28.8160   19.2223 C   0  0  0  0  0  0  0  0  0  0  0  0
  -23.8300   -8.9477   20.5170 C   0  0  0  0  0  0  0  0  0  0  0  0
  -22.6997   -8.1481   20.3477 C   0  0  0  0  0  0  0  0  0  0  0  0
  -22.0965  -29.5267   21.5158 C   0  0  0  0  0  0  0  0  0  0  0  0
  -22.0043   -8.6529   22.6057 C   0  0  0  0  0  0  0  0  0  0  0  0
  -21.4207  -25.4873   21.8516 C   0  0  0  0  0  0  0  0  0  0  0  0
  -19.7748  -23.8298   21.8362 C   0  0  0  0  0  0  0  0  0  0  0  0
  -25.6342  -13.6349   19.3458 C   0  0  0  0  0  0  0  0  0  0  0  0
  -25.6101  -14.7776   17.0652 C   0  0  0  0  0  0  0  0  0  0  0  0
  -29.0229  -25.0938   19.2953 C   0  0  0  0  0  0  0  0  0  0  0  0
  -23.9697  -29.7452   19.9981 C   0  0  0  0  0  0  0  0  0  0  0  0
  -27.9365  -25.9623   19.5251 C   0  0  0  0  0  0  0  0  0  0  0  0
  -23.4216  -29.9219   21.2766 C   0  0  0  0  0  0  0  0  0  0  0  0
  -20.0796  -25.1722   21.9332 C   0  0  0  0  0  0  0  0  0  0  0  0
  -25.3223  -11.4567   21.0606 C   0  0  0  0  0  0  0  0  0  0  0  0
  -21.3234  -28.9753   20.4944 C   0  0  0  0  0  0  0  0  0  0  0  0
  -24.0475   -9.5998   21.7308 C   0  0  0  0  0  0  0  0  0  0  0  0
  -21.7868   -8.0007   21.3920 C   0  0  0  0  0  0  0  0  0  0  0  0
  -23.1347   -9.4524   22.7751 C   0  0  0  0  0  0  0  0  0  0  0  0
  -25.7947  -14.7605   18.4607 C   0  0  0  0  0  0  0  0  0  0  0  0
  -25.8830  -16.0728   16.6986 C   0  0  0  0  0  0  0  0  0  0  0  0
  -21.9724  -23.2957   21.6074 C   0  0  0  0  0  0  0  0  0  0  0  0
  -25.2261  -13.7175   16.1795 C   0  0  0  0  0  0  0  0  0  0  0  0
  -26.6668  -28.8885   21.4456 C   0  0  0  0  0  0  0  0  0  0  0  0
  -26.3525  -31.7768   22.8881 C   0  0  0  0  0  0  0  0  0  0  0  0
  -24.2955  -34.3184   23.8659 C   0  0  0  0  0  0  0  0  0  0  0  0
  -25.6583  -21.2787   19.6481 C   0  0  0  0  0  0  0  0  0  0  0  0
  -30.1890  -25.0119   20.2486 C   0  0  0  0  0  0  0  0  0  0  0  0
  -25.3791  -30.1821   19.7065 C   0  0  0  0  0  0  0  0  0  0  0  0
  -24.2197  -30.5181   22.4061 C   0  0  0  0  0  0  0  0  0  0  0  0
  -29.8584  -25.5434   21.6395 C   0  0  0  0  0  0  0  0  0  0  0  0
  -28.4868  -19.8662   18.0107 C   0  0  0  0  0  0  0  0  0  0  0  0
  -29.1960  -26.9086   21.5303 C   0  0  0  0  0  0  0  0  0  0  0  0
  -28.1009  -18.3991   17.8144 C   0  0  0  0  0  0  0  0  0  0  0  0
  -27.9592  -20.4164   19.3339 C   0  0  0  0  0  0  0  0  0  0  0  0
  -26.1246  -18.7708   19.3489 C   0  0  0  0  0  0  0  0  0  0  0  0
  -27.8604  -26.8094   20.7825 C   0  0  1  0  0  0  0  0  0  0  0  0
  -26.2547  -30.2472   20.9542 C   0  0  1  0  0  0  0  0  0  0  0  0
  -26.5866  -18.1875   18.0026 C   0  0  2  0  0  0  0  0  0  0  0  0
  -24.3223  -36.5269   25.0573 C   0  0  0  0  0  0  0  0  0  0  0  0
  -26.6018  -30.3285   25.5621 C   0  0  0  0  0  0  0  0  0  0  0  0
  -25.6870  -32.3752   26.6768 C   0  0  0  0  0  0  0  0  0  0  0  0
  -27.8440  -32.4951   25.4294 C   0  0  0  0  0  0  0  0  0  0  0  0
  -23.3026  -35.7519   21.4746 C   0  0  0  0  0  0  0  0  0  0  0  0
  -19.0169  -26.2265   22.1137 C   0  0  0  0  0  0  0  0  0  0  0  0
  -18.4713  -26.7829   20.7968 C   0  0  0  0  0  0  0  0  0  0  0  0
  -23.2986  -21.9906   19.9383 C   0  0  0  0  0  0  0  0  0  0  0  0
  -19.5216  -27.5146   19.9693 C   0  0  0  0  0  0  0  0  0  1  0  0
  -25.6785  -32.2776   24.1427 C   0  0  1  0  0  0  0  0  0  0  0  0
  -24.4114  -35.8241   23.7116 C   0  0  2  0  0  0  0  0  0  0  0  0
  -23.0227  -22.2534   21.4231 C   0  0  0  0  0  0  0  0  0  0  0  0
  -26.4381  -31.8560   25.4322 C   0  0  0  0  0  0  0  0  0  0  0  0
  -22.3974  -24.5710   21.6883 N   0  0  0  0  0  0  0  0  0  0  0  0
  -20.6995  -22.8611   21.6721 N   0  0  0  0  0  0  0  0  0  0  0  0
  -26.1571  -15.9503   18.9475 N   0  0  0  0  0  0  0  0  0  0  0  0
  -26.2024  -16.7272   17.8519 N   0  0  0  0  0  0  0  0  0  0  0  0
  -25.5951  -30.9239   22.0728 N   0  0  0  0  0  0  0  0  0  0  0  0
  -26.5172  -20.1853   19.4492 N   0  0  0  0  0  0  0  0  0  0  0  0
  -25.8786  -16.7044   15.5055 N   0  0  0  0  0  0  0  0  0  0  0  0
  -24.9834  -12.4483   16.7222 N   0  0  0  0  0  0  0  0  0  0  0  0
  -27.3678  -28.1431   20.5169 N   0  0  0  0  0  0  0  0  0  0  0  0
  -25.5325  -33.7200   23.9798 N   0  0  0  0  0  0  0  0  0  0  0  0
  -24.3061  -20.9725   19.7402 N   0  0  0  0  0  0  0  0  0  0  0  0
  -23.3199  -36.3409   22.8383 N   0  3  0  0  0  0  0  0  0  0  0  0
  -25.1179  -13.8867   14.9413 O   0  0  0  0  0  0  0  0  0  0  0  0
  -26.3721  -28.5426   22.5836 O   0  0  0  0  0  0  0  0  0  0  0  0
  -27.5059  -32.1351   22.6371 O   0  0  0  0  0  0  0  0  0  0  0  0
  -23.2155  -33.7322   23.8873 O   0  0  0  0  0  0  0  0  0  0  0  0
  -26.0657  -22.4423   19.7317 O   0  0  0  0  0  0  0  0  0  0  0  0
  -25.1698  -10.3939   21.8971 O   0  0  0  0  0  0  0  0  0  0  0  0
  -20.0393  -28.5980   20.7403 O   0  0  0  0  0  0  0  0  0  1  0  0
  -20.7006   -7.2341   21.2287 F   0  0  0  0  0  0  0  0  0  0  0  0
  -23.3377  -10.0773   23.9430 F   0  0  0  0  0  0  0  0  0  0  0  0
  -24.2157  -22.5922   22.0111 F   0  0  0  0  0  0  0  0  0  0  0  0
  -22.6863  -21.0539   21.9993 F   0  0  0  0  0  0  0  0  0  0  0  0
  1  2  1  0  0  0  0
  1  5  2  0  0  0  0
  2  6  2  0  0  0  0
  3  8  2  0  0  0  0
  3 17  1  0  0  0  0
  4  9  1  0  0  0  0
  4 17  2  0  0  0  0
  5 19  1  0  0  0  0
  6 21  1  0  0  0  0
  7 10  2  0  0  0  0
  7 20  1  0  0  0  0
  8 24  1  0  0  0  0
  9 24  2  0  0  0  0
 10 25  1  0  0  0  0
 11 12  2  0  0  0  0
 11 26  1  0  0  0  0
 12 27  1  0  0  0  0
 13 22  1  0  0  0  0
 13 25  2  0  0  0  0
 14 27  2  0  0  0  0
 14 28  1  0  0  0  0
 15 23  1  0  0  0  0
 15 62  2  0  0  0  0
 16 23  2  0  0  0  0
 16 63  1  0  0  0  0
 17 29  1  0  0  0  0
 18 29  1  0  0  0  0
 18 30  2  0  0  0  0
 18 32  1  0  0  0  0
 19 21  2  0  0  0  0
 19 37  1  0  0  0  0
 20 22  2  0  0  0  0
 20 38  1  0  0  0  0
 21 46  1  0  0  0  0
 22 39  1  0  0  0  0
 23 54  1  0  0  0  0
 24 79  1  0  0  0  0
 25 80  1  0  0  0  0
 26 28  2  0  0  0  0
 26 79  1  0  0  0  0
 27 81  1  0  0  0  0
 28 82  1  0  0  0  0
 29 64  2  0  0  0  0
 30 65  1  0  0  0  0
 30 68  1  0  0  0  0
 31 60  1  0  0  0  0
 31 62  1  0  0  0  0
 31 63  2  0  0  0  0
 32 69  1  0  0  0  0
 32 74  2  0  0  0  0
 33 47  1  0  0  0  0
 33 70  1  0  0  0  0
 33 75  2  0  0  0  0
 34 58  1  0  0  0  0
 34 66  1  0  0  0  0
 34 76  2  0  0  0  0
 35 59  1  0  0  0  0
 35 71  1  0  0  0  0
 35 77  2  0  0  0  0
 36 67  1  0  0  0  0
 36 72  1  0  0  0  0
 36 78  2  0  0  0  0
 37 40  1  0  0  0  0
 38 47  1  0  0  0  0
 39 66  1  0  0  0  0
 40 42  1  0  0  0  0
 41 43  1  0  0  0  0
 41 44  1  0  0  0  0
 42 46  1  0  0  0  0
 43 48  1  0  0  0  0
 44 67  1  0  0  0  0
 45 48  1  0  0  0  0
 45 67  1  0  0  0  0
 46 70  1  0  0  0  0
 47 66  1  0  0  0  0
 48 65  1  0  0  0  0
 49 59  1  0  0  0  0
 50 61  1  0  0  0  0
 51 61  1  0  0  0  0
 52 61  1  0  0  0  0
 53 73  1  0  0  0  0
 54 55  1  0  0  0  0
 55 57  1  0  0  0  0
 56 60  1  0  0  0  0
 56 72  1  0  0  0  0
 57 80  1  0  0  0  0
 58 61  1  0  0  0  0
 58 71  1  0  0  0  0
 59 73  1  0  0  0  0
 60 83  1  0  0  0  0
 60 84  1  0  0  0  0
 64 65  1  0  0  0  0
M  CHG  1  73   1
M  ISO  4  36 100  57 101  72 100  80 101
M  END
> <Batch ID>
0062

> <Smiles>
CNC(C)C(=O)NC(C(=O)N1Cc2cc([101O:1][101CH2:1]CCc3cnc(C(F)(F)C[100NH:0][100C:0](=O)N4CCCC(n5nc(-c6ccc(Oc7ccc(F)cc7F)cc6)c(C(N)=O)c5N)C4)nc3)ccc2CC1C(=O)NC1CCCc2ccccc21)C(C)(C)C

> <Shape>
0.283

> <Color>
0.082

> <Negative vol penalty>
0.000

$$$$

  -OEChem-04052318003D

 82 90  0     1  0  0  0  0  0999 V2000
  -30.5829  -24.9239   18.6521 C   0  0  0  0  0  0  0  0  0  0  0  0
  -29.1934  -24.9125   18.7199 C   0  0  0  0  0  0  0  0  0  0  0  0
  -26.7020  -14.6909   19.5326 C   0  0  0  0  0  0  0  0  0  0  0  0
  -24.7957  -14.7108   21.0168 C   0  0  0  0  0  0  0  0  0  0  0  0
  -31.3223  -25.5795   19.6357 C   0  0  0  0  0  0  0  0  0  0  0  0
  -28.5425  -25.5557   19.7721 C   0  0  0  0  0  0  0  0  0  0  0  0
  -23.1679  -28.4822   19.5372 C   0  0  0  0  0  0  0  0  0  0  0  0
  -26.7364  -13.2979   19.5954 C   0  0  0  0  0  0  0  0  0  0  0  0
  -24.8300  -13.3177   21.0794 C   0  0  0  0  0  0  0  0  0  0  0  0
  -21.8737  -28.0960   19.8832 C   0  0  0  0  0  0  0  0  0  0  0  0
  -26.6200  -10.9394   22.6826 C   0  0  0  0  0  0  0  0  0  0  0  0
  -26.4847  -10.3436   23.9365 C   0  0  0  0  0  0  0  0  0  0  0  0
  -22.1438  -29.1441   22.0391 C   0  0  0  0  0  0  0  0  0  0  0  0
  -24.5038   -9.1894   23.1742 C   0  0  0  0  0  0  0  0  0  0  0  0
  -20.6212  -23.6015   22.8454 C   0  0  0  0  0  0  0  0  0  0  0  0
  -25.7317  -15.3974   20.2434 C   0  0  0  0  0  0  0  0  0  0  0  0
  -24.9864  -17.6290   19.2576 C   0  0  0  0  0  0  0  0  0  0  0  0
  -30.6798  -26.2393   20.6951 C   0  0  0  0  0  0  0  0  0  0  0  0
  -23.9650  -29.1940   20.4452 C   0  0  0  0  0  0  0  0  0  0  0  0
  -29.2741  -26.2196   20.7715 C   0  0  0  0  0  0  0  0  0  0  0  0
  -23.4468  -29.5403   21.7012 C   0  0  0  0  0  0  0  0  0  0  0  0
  -25.8004  -12.6113   20.3687 C   0  0  0  0  0  0  0  0  0  0  0  0
  -21.3625  -28.4244   21.1353 C   0  0  0  0  0  0  0  0  0  0  0  0
  -25.6972  -10.6603   21.6745 C   0  0  0  0  0  0  0  0  0  0  0  0
  -25.4266   -9.4686   24.1823 C   0  0  0  0  0  0  0  0  0  0  0  0
  -24.6391   -9.7852   21.9203 C   0  0  0  0  0  0  0  0  0  0  0  0
  -25.6961  -16.8364   20.1795 C   0  0  0  0  0  0  0  0  0  0  0  0
  -25.2799  -18.9213   19.6186 C   0  0  0  0  0  0  0  0  0  0  0  0
  -22.5960  -24.2632   22.9845 C   0  0  0  0  0  0  0  0  0  0  0  0
  -24.1378  -17.2326   18.1721 C   0  0  0  0  0  0  0  0  0  0  0  0
  -26.7300  -28.6438   21.9134 C   0  0  0  0  0  0  0  0  0  0  0  0
  -26.3541  -31.7023   22.9268 C   0  0  0  0  0  0  0  0  0  0  0  0
  -24.2367  -34.2956   23.5885 C   0  0  0  0  0  0  0  0  0  0  0  0
  -25.9453  -22.8517   23.5244 C   0  0  0  0  0  0  0  0  0  0  0  0
  -31.5230  -26.8942   21.7605 C   0  0  0  0  0  0  0  0  0  0  0  0
  -25.3494  -29.6264   20.0467 C   0  0  0  0  0  0  0  0  0  0  0  0
  -24.2546  -30.3210   22.7045 C   0  0  0  0  0  0  0  0  0  0  0  0
  -30.7447  -27.8706   22.6386 C   0  0  0  0  0  0  0  0  0  0  0  0
  -28.7275  -20.7365   22.8444 C   0  0  0  0  0  0  0  0  0  0  0  0
  -29.4252  -27.2504   23.0867 C   0  0  0  0  0  0  0  0  0  0  0  0
  -28.1272  -19.5962   22.0202 C   0  0  0  0  0  0  0  0  0  0  0  0
  -27.7640  -21.2186   23.9267 C   0  0  0  0  0  0  0  0  0  0  0  0
  -25.8227  -20.4525   22.6158 C   0  0  0  0  0  0  0  0  0  0  0  0
  -28.5308  -26.9271   21.8837 C   0  0  1  0  0  0  0  0  0  0  0  0
  -26.2566  -29.9019   21.2420 C   0  0  1  0  0  0  0  0  0  0  0  0
  -26.7356  -19.9703   21.4755 C   0  0  2  0  0  0  0  0  0  0  0  0
  -24.2602  -24.9672   20.5116 C   0  0  0  0  0  0  0  0  0  0  0  0
  -24.2186  -36.6554   24.4420 C   0  0  0  0  0  0  0  0  0  0  0  0
  -26.7289  -30.6726   25.7744 C   0  0  0  0  0  0  0  0  0  0  0  0
  -25.7738  -32.8321   26.6066 C   0  0  0  0  0  0  0  0  0  0  0  0
  -27.8895  -32.8331   25.2851 C   0  0  0  0  0  0  0  0  0  0  0  0
  -23.1275  -35.3293   21.0468 C   0  0  0  0  0  0  0  0  0  0  0  0
  -24.6327  -25.3348   21.9426 C   0  0  0  0  0  0  0  0  0  0  0  0
  -18.6248  -26.1959   21.8633 C   0  0  0  0  0  0  0  0  0  0  0  0
  -19.2663  -25.8155   23.1996 C   0  0  0  0  0  0  0  0  0  0  0  0
  -19.5994  -26.8474   20.8891 C   0  0  0  0  0  0  0  0  0  1  0  0
  -24.0513  -24.3761   23.0263 C   0  0  2  0  0  0  0  0  0  0  0  0
  -25.6981  -32.3615   24.1159 C   0  0  1  0  0  0  0  0  0  0  0  0
  -24.2950  -35.7649   23.2115 C   0  0  2  0  0  0  0  0  0  0  0  0
  -26.5078  -32.1584   25.4276 C   0  0  0  0  0  0  0  0  0  0  0  0
  -21.9121  -23.1597   22.7900 N   0  0  0  0  0  0  0  0  0  0  0  0
  -26.3884  -17.5642   21.0598 N   0  0  0  0  0  0  0  0  0  0  0  0
  -21.7413  -25.3087   23.1471 N   0  0  0  0  0  0  0  0  0  0  0  0
  -20.4633  -24.9090   23.0618 N   0  0  0  0  0  0  0  0  0  0  0  0
  -26.1152  -18.8278   20.6927 N   0  0  0  0  0  0  0  0  0  0  0  0
  -25.6050  -30.7155   22.2704 N   0  0  0  0  0  0  0  0  0  0  0  0
  -26.4637  -21.5587   23.3440 N   0  0  0  0  0  0  0  0  0  0  0  0
  -24.9023  -20.1172   19.1188 N   0  0  0  0  0  0  0  0  0  0  0  0
  -23.9443  -15.8639   17.9407 N   0  0  0  0  0  0  0  0  0  0  0  0
  -27.8993  -28.1303   21.3857 N   0  0  0  0  0  0  0  0  0  0  0  0
  -25.4967  -33.7589   23.7482 N   0  0  0  0  0  0  0  0  0  0  0  0
  -24.7107  -23.0925   22.9341 N   0  0  0  0  0  0  0  0  0  0  0  0
  -23.1620  -36.1133   22.3082 N   0  3  0  0  0  0  0  0  0  0  0  0
  -23.5810  -18.0673   17.4192 O   0  0  0  0  0  0  0  0  0  0  0  0
  -26.0832  -28.1746   22.8425 O   0  0  0  0  0  0  0  0  0  0  0  0
  -27.4867  -32.0550   22.5883 O   0  0  0  0  0  0  0  0  0  0  0  0
  -23.1791  -33.6859   23.7309 O   0  0  0  0  0  0  0  0  0  0  0  0
  -26.5412  -23.7282   24.1596 O   0  0  0  0  0  0  0  0  0  0  0  0
  -25.8334  -11.2520   20.4299 O   0  0  0  0  0  0  0  0  0  0  0  0
  -20.0998  -28.0482   21.4758 O   0  0  0  0  0  0  0  0  0  1  0  0
  -25.2976   -8.8953   25.3860 F   0  0  0  0  0  0  0  0  0  0  0  0
  -23.7501   -9.5123   20.9555 F   0  0  0  0  0  0  0  0  0  0  0  0
  1  2  1  0  0  0  0
  1  5  2  0  0  0  0
  2  6  2  0  0  0  0
  3  8  2  0  0  0  0
  3 16  1  0  0  0  0
  4  9  1  0  0  0  0
  4 16  2  0  0  0  0
  5 18  1  0  0  0  0
  6 20  1  0  0  0  0
  7 10  2  0  0  0  0
  7 19  1  0  0  0  0
  8 22  1  0  0  0  0
  9 22  2  0  0  0  0
 10 23  1  0  0  0  0
 11 12  2  0  0  0  0
 11 24  1  0  0  0  0
 12 25  1  0  0  0  0
 13 21  1  0  0  0  0
 13 23  2  0  0  0  0
 14 25  2  0  0  0  0
 14 26  1  0  0  0  0
 15 61  2  0  0  0  0
 15 64  1  0  0  0  0
 16 27  1  0  0  0  0
 17 27  1  0  0  0  0
 17 28  2  0  0  0  0
 17 30  1  0  0  0  0
 18 20  2  0  0  0  0
 18 35  1  0  0  0  0
 19 21  2  0  0  0  0
 19 36  1  0  0  0  0
 20 44  1  0  0  0  0
 21 37  1  0  0  0  0
 22 79  1  0  0  0  0
 23 80  1  0  0  0  0
 24 26  2  0  0  0  0
 24 79  1  0  0  0  0
 25 81  1  0  0  0  0
 26 82  1  0  0  0  0
 27 62  2  0  0  0  0
 28 65  1  0  0  0  0
 28 68  1  0  0  0  0
 29 57  1  0  0  0  0
 29 61  1  0  0  0  0
 29 63  2  0  0  0  0
 30 69  1  0  0  0  0
 30 74  2  0  0  0  0
 31 45  1  0  0  0  0
 31 70  1  0  0  0  0
 31 75  2  0  0  0  0
 32 58  1  0  0  0  0
 32 66  1  0  0  0  0
 32 76  2  0  0  0  0
 33 59  1  0  0  0  0
 33 71  1  0  0  0  0
 33 77  2  0  0  0  0
 34 67  1  0  0  0  0
 34 72  1  0  0  0  0
 34 78  2  0  0  0  0
 35 38  1  0  0  0  0
 36 45  1  0  0  0  0
 37 66  1  0  0  0  0
 38 40  1  0  0  0  0
 39 41  1  0  0  0  0
 39 42  1  0  0  0  0
 40 44  1  0  0  0  0
 41 46  1  0  0  0  0
 42 67  1  0  0  0  0
 43 46  1  0  0  0  0
 43 67  1  0  0  0  0
 44 70  1  0  0  0  0
 45 66  1  0  0  0  0
 46 65  1  0  0  0  0
 47 53  1  0  0  0  0
 48 59  1  0  0  0  0
 49 60  1  0  0  0  0
 50 60  1  0  0  0  0
 51 60  1  0  0  0  0
 52 73  1  0  0  0  0
 53 57  1  0  0  0  0
 54 55  1  0  0  0  0
 54 56  1  0  0  0  0
 55 64  1  0  0  0  0
 56 80  1  0  0  0  0
 57 72  1  0  0  0  0
 58 60  1  0  0  0  0
 58 71  1  0  0  0  0
 59 73  1  0  0  0  0
 62 65  1  0  0  0  0
 63 64  1  0  0  0  0
M  CHG  1  73   1
M  ISO  4  34 100  56 101  72 100  80 101
M  END
> <Batch ID>
0062

> <Smiles>
CCC([100NH:0][100C:0](=O)N1CCCC(n2nc(-c3ccc(Oc4ccc(F)cc4F)cc3)c(C(N)=O)c2N)C1)c1ncn(CC[101CH2:1][101O:1]c2ccc3c(c2)CN(C(=O)C(NC(=O)C(C)NC)C(C)(C)C)C(C(=O)NC2CCCc4ccccc42)C3)n1

> <Shape>
0.265

> <Color>
0.058

> <Negative vol penalty>
0.000

$$$$

  -OEChem-04052318003D

 84 92  0     1  0  0  0  0  0999 V2000
  -25.3804  -34.0659   25.3522 C   0  0  0  0  0  0  0  0  0  0  0  0
  -26.4118  -33.2583   24.8837 C   0  0  0  0  0  0  0  0  0  0  0  0
  -25.8520  -14.0070   20.9041 C   0  0  0  0  0  0  0  0  0  0  0  0
  -25.9394  -13.9850   18.4897 C   0  0  0  0  0  0  0  0  0  0  0  0
  -24.0805  -33.5662   25.4186 C   0  0  0  0  0  0  0  0  0  0  0  0
  -26.1439  -31.9501   24.4823 C   0  0  0  0  0  0  0  0  0  0  0  0
  -28.8575  -28.8639   19.9416 C   0  0  0  0  0  0  0  0  0  0  0  0
  -24.8031  -13.0881   20.8745 C   0  0  0  0  0  0  0  0  0  0  0  0
  -24.8904  -13.0661   18.4602 C   0  0  0  0  0  0  0  0  0  0  0  0
  -29.8874  -27.9242   19.9306 C   0  0  0  0  0  0  0  0  0  0  0  0
  -24.4217   -9.7563   20.4428 C   0  0  0  0  0  0  0  0  0  0  0  0
  -24.4785   -8.6791   21.3271 C   0  0  0  0  0  0  0  0  0  0  0  0
  -28.2569  -26.1464   19.9202 C   0  0  0  0  0  0  0  0  0  0  0  0
  -22.4002   -9.3936   22.3308 C   0  0  0  0  0  0  0  0  0  0  0  0
  -29.9014  -23.9822   16.3349 C   0  0  0  0  0  0  0  0  0  0  0  0
  -26.4202  -14.4555   19.7117 C   0  0  0  0  0  0  0  0  0  0  0  0
  -28.8813  -15.1217   19.7938 C   0  0  0  0  0  0  0  0  0  0  0  0
  -23.7949  -32.2543   25.0087 C   0  0  0  0  0  0  0  0  0  0  0  0
  -27.5174  -28.4511   19.9530 C   0  0  0  0  0  0  0  0  0  0  0  0
  -24.8392  -31.4319   24.5445 C   0  0  0  0  0  0  0  0  0  0  0  0
  -27.2119  -27.0829   19.9287 C   0  0  0  0  0  0  0  0  0  0  0  0
  -24.3223  -12.6176   19.6526 C   0  0  0  0  0  0  0  0  0  0  0  0
  -29.5871  -26.5652   19.9229 C   0  0  0  0  0  0  0  0  0  0  0  0
  -23.3542  -10.6522   20.5025 C   0  0  0  0  0  0  0  0  0  0  0  0
  -23.4677   -8.4977   22.2711 C   0  0  0  0  0  0  0  0  0  0  0  0
  -22.3435  -10.4708   21.4465 C   0  0  0  0  0  0  0  0  0  0  0  0
  -27.5034  -15.4052   19.7415 C   0  0  0  0  0  0  0  0  0  0  0  0
  -30.2457  -22.7104   15.9329 C   0  0  0  0  0  0  0  0  0  0  0  0
  -32.0506  -22.7554   17.3367 C   0  0  0  0  0  0  0  0  0  0  0  0
  -31.7066  -24.0275   17.7379 C   0  0  0  0  0  0  0  0  0  0  0  0
  -29.4855  -16.3551   19.8035 C   0  0  0  0  0  0  0  0  0  0  0  0
  -29.5549  -13.8565   19.8301 C   0  0  0  0  0  0  0  0  0  0  0  0
  -25.0804  -28.7983   21.9639 C   0  0  0  0  0  0  0  0  0  0  0  0
  -23.4138  -27.3659   19.5779 C   0  0  0  0  0  0  0  0  0  0  0  0
  -23.4478  -25.3411   16.8310 C   0  0  0  0  0  0  0  0  0  0  0  0
  -27.7774  -21.7479   17.8411 C   0  0  0  0  0  0  0  0  0  0  0  0
  -22.3825  -31.7429   25.1433 C   0  0  0  0  0  0  0  0  0  0  0  0
  -26.4180  -29.4775   19.9377 C   0  0  0  0  0  0  0  0  0  0  0  0
  -25.7894  -26.5880   19.9199 C   0  0  0  0  0  0  0  0  0  0  0  0
  -22.1177  -30.4682   24.3464 C   0  0  0  0  0  0  0  0  0  0  0  0
  -28.7351  -20.8817   21.1591 C   0  0  0  0  0  0  0  0  0  0  0  0
  -23.2409  -29.4594   24.5642 C   0  0  0  0  0  0  0  0  0  0  0  0
  -28.6523  -19.3543   21.1768 C   0  0  0  0  0  0  0  0  0  0  0  0
  -27.6316  -21.4968   20.3012 C   0  0  0  0  0  0  0  0  0  0  0  0
  -27.4716  -19.4475   18.9416 C   0  0  0  0  0  0  0  0  0  0  0  0
  -24.5842  -30.0155   24.0766 C   0  0  1  0  0  0  0  0  0  0  0  0
  -25.0921  -28.9408   20.4682 C   0  0  1  0  0  0  0  0  0  0  0  0
  -28.5978  -18.7792   19.7487 C   0  0  2  0  0  0  0  0  0  0  0  0
  -33.2483  -22.0628   17.8912 C   0  0  0  0  0  0  0  0  0  0  0  0
  -21.9257  -24.3237   15.1147 C   0  0  0  0  0  0  0  0  0  0  0  0
  -29.9198  -20.5466   14.5515 C   0  0  0  0  0  0  0  0  0  0  0  0
  -29.4099  -22.7664   13.5674 C   0  0  0  0  0  0  0  0  0  0  0  0
  -22.4522  -25.3326   21.6397 C   0  0  0  0  0  0  0  0  0  0  0  0
  -21.7499  -23.8506   19.7480 C   0  0  0  0  0  0  0  0  0  0  0  0
  -20.6974  -26.0947   20.0290 C   0  0  0  0  0  0  0  0  0  0  0  0
  -24.8365  -26.7217   14.6118 C   0  0  0  0  0  0  0  0  0  0  0  0
  -32.5264  -24.7797   18.7579 C   0  0  0  0  0  0  0  0  0  0  0  0
  -27.9207  -21.8365   15.3651 C   0  0  0  0  0  0  0  0  0  0  0  0
  -31.8102  -26.0225   19.2751 C   0  0  0  0  0  0  0  0  0  1  0  0
  -23.0846  -25.9390   19.2111 C   0  0  1  0  0  0  0  0  0  0  0  0
  -22.8275  -25.5002   15.4546 C   0  0  2  0  0  0  0  0  0  0  0  0
  -29.4224  -21.9880   14.9249 C   0  0  0  0  0  0  0  0  0  0  0  0
  -22.0229  -25.3132   20.1591 C   0  0  0  0  0  0  0  0  0  0  0  0
  -30.6257  -24.6636   17.2445 N   0  0  0  0  0  0  0  0  0  0  0  0
  -27.2471  -16.7159   19.7198 N   0  0  0  0  0  0  0  0  0  0  0  0
  -31.3264  -22.0742   16.4267 N   0  0  0  0  0  0  0  0  0  0  0  0
  -28.4722  -17.2669   19.7587 N   0  0  0  0  0  0  0  0  0  0  0  0
  -24.7496  -27.6303   19.9118 N   0  0  0  0  0  0  0  0  0  0  0  0
  -27.6352  -20.9096   18.9592 N   0  0  0  0  0  0  0  0  0  0  0  0
  -30.7794  -16.7378   19.8462 N   0  0  0  0  0  0  0  0  0  0  0  0
  -28.7820  -12.6874   19.8136 N   0  0  0  0  0  0  0  0  0  0  0  0
  -24.6707  -29.9352   22.6342 N   0  0  0  0  0  0  0  0  0  0  0  0
  -22.6932  -25.9587   17.8058 N   0  0  0  0  0  0  0  0  0  0  0  0
  -27.7770  -21.1097   16.6068 N   0  0  0  0  0  0  0  0  0  0  0  0
  -23.8909  -25.5930   14.4147 N   0  3  0  0  0  0  0  0  0  0  0  0
  -30.8044  -13.7656   19.8925 O   0  0  0  0  0  0  0  0  0  0  0  0
  -25.4166  -27.7352   22.4723 O   0  0  0  0  0  0  0  0  0  0  0  0
  -22.5202  -28.2161   19.5617 O   0  0  0  0  0  0  0  0  0  0  0  0
  -24.4950  -24.7270   17.0227 O   0  0  0  0  0  0  0  0  0  0  0  0
  -27.9013  -22.9737   17.9361 O   0  0  0  0  0  0  0  0  0  0  0  0
  -23.2989  -11.7207   19.6234 O   0  0  0  0  0  0  0  0  0  0  0  0
  -30.5904  -25.6458   19.9129 O   0  0  0  0  0  0  0  0  0  1  0  0
  -23.5216   -7.4623   23.1192 F   0  0  0  0  0  0  0  0  0  0  0  0
  -21.3148  -11.3275   21.5079 F   0  0  0  0  0  0  0  0  0  0  0  0
  1  2  1  0  0  0  0
  1  5  2  0  0  0  0
  2  6  2  0  0  0  0
  3  8  2  0  0  0  0
  3 16  1  0  0  0  0
  4  9  1  0  0  0  0
  4 16  2  0  0  0  0
  5 18  1  0  0  0  0
  6 20  1  0  0  0  0
  7 10  2  0  0  0  0
  7 19  1  0  0  0  0
  8 22  1  0  0  0  0
  9 22  2  0  0  0  0
 10 23  1  0  0  0  0
 11 12  2  0  0  0  0
 11 24  1  0  0  0  0
 12 25  1  0  0  0  0
 13 21  1  0  0  0  0
 13 23  2  0  0  0  0
 14 25  2  0  0  0  0
 14 26  1  0  0  0  0
 15 28  1  0  0  0  0
 15 64  2  0  0  0  0
 16 27  1  0  0  0  0
 17 27  1  0  0  0  0
 17 31  2  0  0  0  0
 17 32  1  0  0  0  0
 18 20  2  0  0  0  0
 18 37  1  0  0  0  0
 19 21  2  0  0  0  0
 19 38  1  0  0  0  0
 20 46  1  0  0  0  0
 21 39  1  0  0  0  0
 22 81  1  0  0  0  0
 23 82  1  0  0  0  0
 24 26  2  0  0  0  0
 24 81  1  0  0  0  0
 25 83  1  0  0  0  0
 26 84  1  0  0  0  0
 27 65  2  0  0  0  0
 28 62  1  0  0  0  0
 28 66  2  0  0  0  0
 29 30  2  0  0  0  0
 29 49  1  0  0  0  0
 29 66  1  0  0  0  0
 30 57  1  0  0  0  0
 30 64  1  0  0  0  0
 31 67  1  0  0  0  0
 31 70  1  0  0  0  0
 32 71  1  0  0  0  0
 32 76  2  0  0  0  0
 33 47  1  0  0  0  0
 33 72  1  0  0  0  0
 33 77  2  0  0  0  0
 34 60  1  0  0  0  0
 34 68  1  0  0  0  0
 34 78  2  0  0  0  0
 35 61  1  0  0  0  0
 35 73  1  0  0  0  0
 35 79  2  0  0  0  0
 36 69  1  0  0  0  0
 36 74  1  0  0  0  0
 36 80  2  0  0  0  0
 37 40  1  0  0  0  0
 38 47  1  0  0  0  0
 39 68  1  0  0  0  0
 40 42  1  0  0  0  0
 41 43  1  0  0  0  0
 41 44  1  0  0  0  0
 42 46  1  0  0  0  0
 43 48  1  0  0  0  0
 44 69  1  0  0  0  0
 45 48  1  0  0  0  0
 45 69  1  0  0  0  0
 46 72  1  0  0  0  0
 47 68  1  0  0  0  0
 48 67  1  0  0  0  0
 50 61  1  0  0  0  0
 51 62  1  0  0  0  0
 52 62  1  0  0  0  0
 53 63  1  0  0  0  0
 54 63  1  0  0  0  0
 55 63  1  0  0  0  0
 56 75  1  0  0  0  0
 57 59  1  0  0  0  0
 58 62  1  0  0  0  0
 58 74  1  0  0  0  0
 59 82  1  0  0  0  0
 60 63  1  0  0  0  0
 60 73  1  0  0  0  0
 61 75  1  0  0  0  0
 65 67  1  0  0  0  0
M  CHG  1  75   1
M  ISO  4  36 100  59 101  74 100  82 101
M  END
> <Batch ID>
0062

> <Smiles>
CNC(C)C(=O)NC(C(=O)N1Cc2cc([101O:1][101CH2:1]Cc3ncc(C(C)(C)C[100NH:0][100C:0](=O)N4CCCC(n5nc(-c6ccc(Oc7ccc(F)cc7F)cc6)c(C(N)=O)c5N)C4)nc3C)ccc2CC1C(=O)NC1CCCc2ccccc21)C(C)(C)C

> <Shape>
0.268

> <Color>
0.061

> <Negative vol penalty>
0.000

$$$$

  -OEChem-04052318002D

  0  0  0     0  0  0  0  0  0999 V2000
M  END
$$$$

  -OEChem-04052318003D

 91 99  0     1  0  0  0  0  0999 V2000
  -27.8974  -24.6226   16.5221 C   0  0  0  0  0  0  0  0  0  0  0  0
  -26.7724  -24.7554   17.3296 C   0  0  0  0  0  0  0  0  0  0  0  0
  -24.4701  -13.4326   19.7281 C   0  0  0  0  0  0  0  0  0  0  0  0
  -25.1034  -13.7826   22.0331 C   0  0  0  0  0  0  0  0  0  0  0  0
  -29.1039  -25.2052   16.9080 C   0  0  0  0  0  0  0  0  0  0  0  0
  -26.8535  -25.4701   18.5242 C   0  0  0  0  0  0  0  0  0  0  0  0
  -22.9343  -28.6094   19.1799 C   0  0  0  0  0  0  0  0  0  0  0  0
  -25.3770  -12.3766   19.6392 C   0  0  0  0  0  0  0  0  0  0  0  0
  -26.0104  -12.7266   21.9443 C   0  0  0  0  0  0  0  0  0  0  0  0
  -21.7323  -28.0466   19.6066 C   0  0  0  0  0  0  0  0  0  0  0  0
  -28.7116  -11.9837   19.2507 C   0  0  0  0  0  0  0  0  0  0  0  0
  -29.5271  -11.9242   18.1207 C   0  0  0  0  0  0  0  0  0  0  0  0
  -22.2054  -28.7607   21.8617 C   0  0  0  0  0  0  0  0  0  0  0  0
  -28.6029   -9.7615   17.5676 C   0  0  0  0  0  0  0  0  0  0  0  0
  -19.3303  -22.0454   22.7444 C   0  0  0  0  0  0  0  0  0  0  0  0
  -24.3333  -14.1356   20.9250 C   0  0  0  0  0  0  0  0  0  0  0  0
  -22.0441  -15.1562   21.4000 C   0  0  0  0  0  0  0  0  0  0  0  0
  -29.1974  -25.9356   18.1032 C   0  0  0  0  0  0  0  0  0  0  0  0
  -23.7876  -29.2435   20.0944 C   0  0  0  0  0  0  0  0  0  0  0  0
  -28.0627  -26.0619   18.9272 C   0  0  0  0  0  0  0  0  0  0  0  0
  -23.4166  -29.3329   21.4437 C   0  0  0  0  0  0  0  0  0  0  0  0
  -26.1472  -12.0236   20.7473 C   0  0  0  0  0  0  0  0  0  0  0  0
  -21.3690  -28.1197   20.9482 C   0  0  0  0  0  0  0  0  0  0  0  0
  -27.8417  -10.9321   19.5392 C   0  0  0  0  0  0  0  0  0  0  0  0
  -29.4728  -10.8132   17.2791 C   0  0  0  0  0  0  0  0  0  0  0  0
  -27.7874   -9.8211   18.6977 C   0  0  0  0  0  0  0  0  0  0  0  0
  -23.3970  -15.2269   21.0173 C   0  0  0  0  0  0  0  0  0  0  0  0
  -19.9446  -21.5657   23.8832 C   0  0  0  0  0  0  0  0  0  0  0  0
  -18.2026  -22.8130   22.9525 C   0  0  0  0  0  0  0  0  0  0  0  0
  -21.5982  -16.4533   21.3264 C   0  0  0  0  0  0  0  0  0  0  0  0
  -18.3926  -22.5716   25.2048 C   0  0  0  0  0  0  0  0  0  0  0  0
  -21.2605  -14.0198   21.7874 C   0  0  0  0  0  0  0  0  0  0  0  0
  -26.7586  -28.7445   21.1081 C   0  0  0  0  0  0  0  0  0  0  0  0
  -26.2836  -31.5506   22.6644 C   0  0  0  0  0  0  0  0  0  0  0  0
  -24.4834  -21.7136   21.6682 C   0  0  0  0  0  0  0  0  0  0  0  0
  -24.0774  -33.7828   24.0048 C   0  0  0  0  0  0  0  0  0  0  0  0
  -30.5349  -26.5073   18.5018 C   0  0  0  0  0  0  0  0  0  0  0  0
  -25.0682  -29.8690   19.6135 C   0  0  0  0  0  0  0  0  0  0  0  0
  -24.2877  -30.0207   22.4618 C   0  0  0  0  0  0  0  0  0  0  0  0
  -30.4426  -27.5654   19.5983 C   0  0  0  0  0  0  0  0  0  0  0  0
  -22.3703  -20.5609   19.0136 C   0  0  0  0  0  0  0  0  0  0  0  0
  -29.5322  -27.0882   20.7253 C   0  0  0  0  0  0  0  0  0  0  0  0
  -22.2943  -19.0523   19.2446 C   0  0  0  0  0  0  0  0  0  0  0  0
  -23.7421  -21.1145   19.3865 C   0  0  0  0  0  0  0  0  0  0  0  0
  -24.0922  -19.2860   21.0161 C   0  0  0  0  0  0  0  0  0  0  0  0
  -28.1047  -26.8505   20.2181 C   0  0  1  0  0  0  0  0  0  0  0  0
  -26.1027  -30.0399   20.7217 C   0  0  1  0  0  0  0  0  0  0  0  0
  -22.7129  -18.6912   20.6809 C   0  0  2  0  0  0  0  0  0  0  0  0
  -17.8733  -22.8672   26.5711 C   0  0  0  0  0  0  0  0  0  0  0  0
  -27.3051  -20.7596   22.4088 C   0  0  0  0  0  0  0  0  0  0  0  0
  -23.9891  -35.9636   25.2433 C   0  0  0  0  0  0  0  0  0  0  0  0
  -16.9730  -22.2189   20.8538 C   0  0  0  0  0  0  0  0  0  0  0  0
  -16.1768  -24.1921   22.1245 C   0  0  0  0  0  0  0  0  0  0  0  0
  -25.2191  -22.4645   23.8930 C   0  0  0  0  0  0  0  0  0  0  0  0
  -27.1153  -30.1242   25.2303 C   0  0  0  0  0  0  0  0  0  0  0  0
  -26.1141  -32.0186   26.5254 C   0  0  0  0  0  0  0  0  0  0  0  0
  -28.0274  -32.4395   24.9812 C   0  0  0  0  0  0  0  0  0  0  0  0
  -22.5608  -35.0917   21.8263 C   0  0  0  0  0  0  0  0  0  0  0  0
  -23.9860  -20.0013   25.0328 C   0  0  0  0  0  0  0  0  0  0  0  0
  -21.1717  -20.7262   23.7586 C   0  0  0  0  0  0  0  0  0  0  0  0
  -26.0077  -20.2324   23.0143 C   0  0  0  0  0  0  0  0  0  0  0  0
  -18.9045  -25.5596   21.5952 C   0  0  0  0  0  0  0  0  0  0  0  0
  -18.3752  -24.3096   20.8819 C   0  0  0  0  0  0  0  0  0  0  0  0
  -22.4775  -21.5219   23.7624 C   0  0  0  0  0  0  0  0  0  0  0  0
  -19.7177  -26.4347   20.6488 C   0  0  0  0  0  0  0  0  0  1  0  0
  -25.7430  -31.9443   24.0178 C   0  0  1  0  0  0  0  0  0  0  0  0
  -23.9697  -35.2918   23.8791 C   0  0  2  0  0  0  0  0  0  0  0  0
  -17.4479  -23.3953   21.7437 C   0  0  0  0  0  0  0  0  0  0  0  0
  -24.8481  -21.2419   23.0533 C   0  0  2  0  0  0  0  0  0  0  0  0
  -26.7342  -31.6169   25.1701 C   0  0  0  0  0  0  0  0  0  0  0  0
  -23.7851  -16.4705   20.7223 N   0  0  0  0  0  0  0  0  0  0  0  0
  -19.5011  -21.8103   25.1337 N   0  0  0  0  0  0  0  0  0  0  0  0
  -17.7039  -23.0969   24.1736 N   0  0  0  0  0  0  0  0  0  0  0  0
  -22.6693  -17.1931   20.9196 N   0  0  0  0  0  0  0  0  0  0  0  0
  -25.5329  -30.6111   21.9436 N   0  0  0  0  0  0  0  0  0  0  0  0
  -24.1129  -20.7310   20.7498 N   0  0  0  0  0  0  0  0  0  0  0  0
  -20.3983  -17.0216   21.5705 N   0  0  0  0  0  0  0  0  0  0  0  0
  -21.8752  -12.7604   21.8090 N   0  0  0  0  0  0  0  0  0  0  0  0
  -27.4063  -28.1089   20.0659 N   0  0  0  0  0  0  0  0  0  0  0  0
  -25.3856  -33.3554   23.9199 N   0  0  0  0  0  0  0  0  0  0  0  0
  -22.7023  -35.6650   23.1896 N   0  3  0  0  0  0  0  0  0  0  0  0
  -23.6400  -20.6024   23.6926 N   0  3  1  0  0  0  0  0  0  0  0  0
  -20.0467  -14.1157   22.0892 O   0  0  0  0  0  0  0  0  0  0  0  0
  -26.6840  -28.3514   22.2664 O   0  0  0  0  0  0  0  0  0  0  0  0
  -27.3296  -32.0633   22.2586 O   0  0  0  0  0  0  0  0  0  0  0  0
  -24.5242  -22.9199   21.4128 O   0  0  0  0  0  0  0  0  0  0  0  0
  -23.0993  -33.0563   24.1662 O   0  0  0  0  0  0  0  0  0  0  0  0
  -27.0321  -10.9930   20.6610 O   0  0  0  0  0  0  0  0  0  0  0  0
  -20.1965  -27.5707   21.3675 O   0  0  0  0  0  0  0  0  0  1  0  0
  -30.2549  -10.7568   16.1932 F   0  0  0  0  0  0  0  0  0  0  0  0
  -26.9529   -8.8082   18.9690 F   0  0  0  0  0  0  0  0  0  0  0  0
  1  2  1  0  0  0  0
  1  5  2  0  0  0  0
  2  6  2  0  0  0  0
  3  8  2  0  0  0  0
  3 16  1  0  0  0  0
  4  9  1  0  0  0  0
  4 16  2  0  0  0  0
  5 18  1  0  0  0  0
  6 20  1  0  0  0  0
  7 10  2  0  0  0  0
  7 19  1  0  0  0  0
  8 22  1  0  0  0  0
  9 22  2  0  0  0  0
 10 23  1  0  0  0  0
 11 12  2  0  0  0  0
 11 24  1  0  0  0  0
 12 25  1  0  0  0  0
 13 21  1  0  0  0  0
 13 23  2  0  0  0  0
 14 25  2  0  0  0  0
 14 26  1  0  0  0  0
 15 28  1  0  0  0  0
 15 29  2  0  0  0  0
 16 27  1  0  0  0  0
 17 27  1  0  0  0  0
 17 30  2  0  0  0  0
 17 32  1  0  0  0  0
 18 20  2  0  0  0  0
 18 37  1  0  0  0  0
 19 21  2  0  0  0  0
 19 38  1  0  0  0  0
 20 46  1  0  0  0  0
 21 39  1  0  0  0  0
 22 88  1  0  0  0  0
 23 89  1  0  0  0  0
 24 26  2  0  0  0  0
 24 88  1  0  0  0  0
 25 90  1  0  0  0  0
 26 91  1  0  0  0  0
 27 71  2  0  0  0  0
 28 60  1  0  0  0  0
 28 72  2  0  0  0  0
 29 68  1  0  0  0  0
 29 73  1  0  0  0  0
 30 74  1  0  0  0  0
 30 77  1  0  0  0  0
 31 49  1  0  0  0  0
 31 72  1  0  0  0  0
 31 73  2  0  0  0  0
 32 78  1  0  0  0  0
 32 83  2  0  0  0  0
 33 47  1  0  0  0  0
 33 79  1  0  0  0  0
 33 84  2  0  0  0  0
 34 66  1  0  0  0  0
 34 75  1  0  0  0  0
 34 85  2  0  0  0  0
 35 69  1  0  0  0  0
 35 76  1  0  0  0  0
 35 86  2  0  0  0  0
 36 67  1  0  0  0  0
 36 80  1  0  0  0  0
 36 87  2  0  0  0  0
 37 40  1  0  0  0  0
 38 47  1  0  0  0  0
 39 75  1  0  0  0  0
 40 42  1  0  0  0  0
 41 43  1  0  0  0  0
 41 44  1  0  0  0  0
 42 46  1  0  0  0  0
 43 48  1  0  0  0  0
 44 76  1  0  0  0  0
 45 48  1  0  0  0  0
 45 76  1  0  0  0  0
 46 79  1  0  0  0  0
 47 75  1  0  0  0  0
 48 74  1  0  0  0  0
 50 61  1  0  0  0  0
 51 67  1  0  0  0  0
 52 68  1  0  0  0  0
 53 68  1  0  0  0  0
 54 69  1  0  0  0  0
 55 70  1  0  0  0  0
 56 70  1  0  0  0  0
 57 70  1  0  0  0  0
 58 81  1  0  0  0  0
 59 82  1  0  0  0  0
 60 64  1  0  0  0  0
 61 69  1  0  0  0  0
 62 63  1  0  0  0  0
 62 65  1  0  0  0  0
 63 68  1  0  0  0  0
 64 82  1  0  0  0  0
 65 89  1  0  0  0  0
 66 70  1  0  0  0  0
 66 80  1  0  0  0  0
 67 81  1  0  0  0  0
 69 82  1  0  0  0  0
 71 74  1  0  0  0  0
M  CHG  2  81   1  82   1
M  ISO  4  35 100  65 101  69 100  89 101
M  END
> <Batch ID>
0062

> <Smiles>
CC[100C:0](C)([100C:0](=O)N1CCCC(n2nc(-c3ccc(Oc4ccc(F)cc4F)cc3)c(C(N)=O)c2N)C1)N(C)CCc1cc(C(C)(C)CC[101CH2:1][101O:1]c2ccc3c(c2)CN(C(=O)C(NC(=O)C(C)NC)C(C)(C)C)C(C(=O)NC2CCCc4ccccc42)C3)nc(C)n1

> <Shape>
0.242

> <Color>
0.086

> <Negative vol penalty>
0.000

$$$$
