
  -OEChem-04052318023D

 94103  0     1  0  0  0  0  0999 V2000
  -17.1655  -30.8873   23.6838 C   0  0  0  0  0  0  0  0  0  0  0  0
  -18.4972  -31.2577   23.5261 C   0  0  0  0  0  0  0  0  0  0  0  0
  -24.7484  -13.0069   19.5858 C   0  0  0  0  0  0  0  0  0  0  0  0
  -25.7634  -13.5362   21.7135 C   0  0  0  0  0  0  0  0  0  0  0  0
  -16.7995  -29.5458   23.5827 C   0  0  0  0  0  0  0  0  0  0  0  0
  -19.4639  -30.2864   23.2683 C   0  0  0  0  0  0  0  0  0  0  0  0
  -25.6291  -29.3430   19.7446 C   0  0  0  0  0  0  0  0  0  0  0  0
  -24.7607  -11.6520   19.9170 C   0  0  0  0  0  0  0  0  0  0  0  0
  -25.7756  -12.1812   22.0447 C   0  0  0  0  0  0  0  0  0  0  0  0
  -26.9312  -28.8907   19.9542 C   0  0  0  0  0  0  0  0  0  0  0  0
  -24.1940   -8.0876   20.3514 C   0  0  0  0  0  0  0  0  0  0  0  0
  -23.0410   -7.3464   20.0929 C   0  0  0  0  0  0  0  0  0  0  0  0
  -26.1708  -26.6131   19.7220 C   0  0  0  0  0  0  0  0  0  0  0  0
  -21.7815   -8.7936   21.5613 C   0  0  0  0  0  0  0  0  0  0  0  0
  -33.4470  -20.6368   19.1798 C   0  0  0  0  0  0  0  0  0  0  0  0
  -25.2498  -13.9490   20.4841 C   0  0  0  0  0  0  0  0  0  0  0  0
  -24.2126  -16.2782   20.4005 C   0  0  0  0  0  0  0  0  0  0  0  0
  -17.7608  -28.5587   23.3140 C   0  0  0  0  0  0  0  0  0  0  0  0
  -24.5845  -28.4318   19.5327 C   0  0  0  0  0  0  0  0  0  0  0  0
  -19.1107  -28.9302   23.1649 C   0  0  0  0  0  0  0  0  0  0  0  0
  -24.8569  -27.0566   19.5075 C   0  0  0  0  0  0  0  0  0  0  0  0
  -25.2742  -11.2392   21.1464 C   0  0  0  0  0  0  0  0  0  0  0  0
  -27.2017  -27.5254   19.9458 C   0  0  0  0  0  0  0  0  0  0  0  0
  -24.1408   -9.1818   21.2149 C   0  0  0  0  0  0  0  0  0  0  0  0
  -21.8348   -7.6994   20.6979 C   0  0  0  0  0  0  0  0  0  0  0  0
  -22.9345   -9.5348   21.8199 C   0  0  0  0  0  0  0  0  0  0  0  0
  -25.2380  -15.3487   20.1424 C   0  0  0  0  0  0  0  0  0  0  0  0
  -24.6827  -17.4605   19.8832 C   0  0  0  0  0  0  0  0  0  0  0  0
  -33.0729  -22.2080   20.5021 C   0  0  0  0  0  0  0  0  0  0  0  0
  -32.2174  -24.4551   21.3644 C   0  0  0  0  0  0  0  0  0  0  0  0
  -30.6480  -25.7901   21.6987 C   0  0  0  0  0  0  0  0  0  0  0  0
  -22.9483  -16.0896   21.0499 C   0  0  0  0  0  0  0  0  0  0  0  0
  -21.8927  -27.7102   21.0614 C   0  0  0  0  0  0  0  0  0  0  0  0
  -30.2288  -19.3692   18.9491 C   0  0  0  0  0  0  0  0  0  0  0  0
  -21.3883  -25.8203   18.4737 C   0  0  0  0  0  0  0  0  0  0  0  0
  -22.7145  -24.0755   15.8576 C   0  0  0  0  0  0  0  0  0  0  0  0
  -17.3245  -27.1160   23.2606 C   0  0  0  0  0  0  0  0  0  0  0  0
  -23.1902  -28.9369   19.2816 C   0  0  0  0  0  0  0  0  0  0  0  0
  -23.7743  -26.0381   19.2641 C   0  0  0  0  0  0  0  0  0  0  0  0
  -18.3532  -26.1921   22.6136 C   0  0  0  0  0  0  0  0  0  0  0  0
  -27.5611  -19.1878   16.4839 C   0  0  0  0  0  0  0  0  0  0  0  0
  -19.7461  -26.4722   23.1689 C   0  0  0  0  0  0  0  0  0  0  0  0
  -26.5788  -18.2365   17.1660 C   0  0  0  0  0  0  0  0  0  0  0  0
  -29.0090  -18.8133   16.7893 C   0  0  0  0  0  0  0  0  0  0  0  0
  -28.3335  -17.7790   18.9337 C   0  0  0  0  0  0  0  0  0  0  0  0
  -20.1847  -27.9087   22.8597 C   0  0  1  0  0  0  0  0  0  0  0  0
  -22.1146  -27.8991   19.5874 C   0  0  1  0  0  0  0  0  0  0  0  0
  -26.8612  -18.1407   18.6755 C   0  0  2  0  0  0  0  0  0  0  0  0
  -22.0555  -22.5995   13.9381 C   0  0  0  0  0  0  0  0  0  0  0  0
  -34.6471  -23.9286   21.6441 C   0  0  0  0  0  0  0  0  0  0  0  0
  -33.0439  -22.5926   22.9738 C   0  0  0  0  0  0  0  0  0  0  0  0
  -29.5363  -26.6471   23.7905 C   0  0  0  0  0  0  0  0  0  0  0  0
  -28.1359  -25.9327   21.8246 C   0  0  0  0  0  0  0  0  0  0  0  0
  -29.4178  -28.0616   21.7491 C   0  0  0  0  0  0  0  0  0  0  0  0
  -20.9603  -23.4997   20.4081 C   0  0  0  0  0  0  0  0  0  0  0  0
  -21.2551  -21.9296   18.4804 C   0  0  0  0  0  0  0  0  0  0  0  0
  -19.3666  -23.5595   18.4817 C   0  0  0  0  0  0  0  0  0  0  0  0
  -31.7605  -26.9611   18.1999 C   0  0  0  0  0  0  0  0  0  0  0  0
  -31.0717  -28.5342   19.9686 C   0  0  0  0  0  0  0  0  0  0  0  0
  -28.8295  -27.9596   17.9626 C   0  0  0  0  0  0  0  0  0  0  0  0
  -28.9851  -25.5179   18.4434 C   0  0  0  0  0  0  0  0  0  0  0  0
  -23.8141  -25.9728   13.8701 C   0  0  0  0  0  0  0  0  0  0  0  0
  -31.1428  -20.2680   18.1550 C   0  0  0  0  0  0  0  0  0  0  0  0
  -21.7239  -24.3941   18.1096 C   0  0  1  0  0  0  0  0  0  0  0  0
  -22.3394  -24.0244   14.3875 C   0  0  2  0  0  0  0  0  0  0  0  0
  -33.1716  -23.3628   21.5889 C   0  0  0  0  0  0  0  0  0  0  0  0
  -29.5114  -26.5662   22.2261 C   0  0  0  0  0  0  0  0  0  0  0  0
  -20.8468  -23.3646   18.8765 C   0  0  0  0  0  0  0  0  0  0  0  0
  -30.8162  -27.0982   19.4306 C   0  0  0  0  0  0  0  0  0  0  0  0
  -29.2973  -26.9204   18.9980 C   0  0  0  0  0  0  0  0  0  1  0  0
  -34.0588  -21.4412   20.0981 N   0  0  0  0  0  0  0  0  0  0  0  0
  -26.2807  -15.8937   19.5100 N   0  0  0  0  0  0  0  0  0  0  0  0
  -31.2694  -24.7943   22.2868 N   0  0  0  0  0  0  0  0  0  0  0  0
  -31.9303  -21.8673   19.8476 N   0  0  0  0  0  0  0  0  0  0  0  0
  -32.2217  -25.1783   20.2426 N   0  0  0  0  0  0  0  0  0  0  0  0
  -32.1444  -20.8578   18.9901 N   0  0  0  0  0  0  0  0  0  0  0  0
  -25.9129  -17.1783   19.3664 N   0  0  0  0  0  0  0  0  0  0  0  0
  -31.2086  -26.0248   20.4820 N   0  0  0  0  0  0  0  0  0  0  0  0
  -22.4261  -26.5813   19.0301 N   0  0  0  0  0  0  0  0  0  0  0  0
  -29.2302  -18.7051   18.2363 N   0  0  0  0  0  0  0  0  0  0  0  0
  -24.1595  -18.7035   19.8243 N   0  0  0  0  0  0  0  0  0  0  0  0
  -22.6239  -14.8105   21.5220 N   0  0  0  0  0  0  0  0  0  0  0  0
  -20.6136  -28.0208   21.4821 N   0  0  0  0  0  0  0  0  0  0  0  0
  -21.6155  -24.3072   16.6574 N   0  0  0  0  0  0  0  0  0  0  0  0
  -23.4461  -24.5692   13.5513 N   0  3  0  0  0  0  0  0  0  0  0  0
  -22.1237  -17.0240   21.1924 O   0  0  0  0  0  0  0  0  0  0  0  0
  -22.8133  -27.3107   21.7647 O   0  0  0  0  0  0  0  0  0  0  0  0
  -30.3972  -19.2639   20.1668 O   0  0  0  0  0  0  0  0  0  0  0  0
  -20.2493  -26.2455   18.2652 O   0  0  0  0  0  0  0  0  0  0  0  0
  -23.8666  -23.9214   16.2568 O   0  0  0  0  0  0  0  0  0  0  0  0
  -25.2861   -9.9171   21.4699 O   0  0  0  0  0  0  0  0  0  0  0  0
  -28.4715  -27.0812   20.1507 O   0  0  0  0  0  0  0  0  0  1  0  0
  -20.7273   -6.9884   20.4483 F   0  0  0  0  0  0  0  0  0  0  0  0
  -22.8769  -10.5857   22.6494 F   0  0  0  0  0  0  0  0  0  0  0  0
  1  2  1  0  0  0  0
  1  5  2  0  0  0  0
  2  6  2  0  0  0  0
  3  8  2  0  0  0  0
  3 16  1  0  0  0  0
  4  9  1  0  0  0  0
  4 16  2  0  0  0  0
  5 18  1  0  0  0  0
  6 20  1  0  0  0  0
  7 10  2  0  0  0  0
  7 19  1  0  0  0  0
  8 22  1  0  0  0  0
  9 22  2  0  0  0  0
 10 23  1  0  0  0  0
 11 12  2  0  0  0  0
 11 24  1  0  0  0  0
 12 25  1  0  0  0  0
 13 21  1  0  0  0  0
 13 23  2  0  0  0  0
 14 25  2  0  0  0  0
 14 26  1  0  0  0  0
 15 71  2  0  0  0  0
 15 76  1  0  0  0  0
 16 27  1  0  0  0  0
 17 27  1  0  0  0  0
 17 28  2  0  0  0  0
 17 32  1  0  0  0  0
 18 20  2  0  0  0  0
 18 37  1  0  0  0  0
 19 21  2  0  0  0  0
 19 38  1  0  0  0  0
 20 46  1  0  0  0  0
 21 39  1  0  0  0  0
 22 91  1  0  0  0  0
 23 92  1  0  0  0  0
 24 26  2  0  0  0  0
 24 91  1  0  0  0  0
 25 93  1  0  0  0  0
 26 94  1  0  0  0  0
 27 72  2  0  0  0  0
 28 77  1  0  0  0  0
 28 81  1  0  0  0  0
 29 66  1  0  0  0  0
 29 71  1  0  0  0  0
 29 74  2  0  0  0  0
 30 66  1  0  0  0  0
 30 73  1  0  0  0  0
 30 75  2  0  0  0  0
 31 67  1  0  0  0  0
 31 73  2  0  0  0  0
 31 78  1  0  0  0  0
 32 82  1  0  0  0  0
 32 86  2  0  0  0  0
 33 47  1  0  0  0  0
 33 83  1  0  0  0  0
 33 87  2  0  0  0  0
 34 63  1  0  0  0  0
 34 80  1  0  0  0  0
 34 88  2  0  0  0  0
 35 64  1  0  0  0  0
 35 79  1  0  0  0  0
 35 89  2  0  0  0  0
 36 65  1  0  0  0  0
 36 84  1  0  0  0  0
 36 90  2  0  0  0  0
 37 40  1  0  0  0  0
 38 47  1  0  0  0  0
 39 79  1  0  0  0  0
 40 42  1  0  0  0  0
 41 43  1  0  0  0  0
 41 44  1  0  0  0  0
 42 46  1  0  0  0  0
 43 48  1  0  0  0  0
 44 80  1  0  0  0  0
 45 48  1  0  0  0  0
 45 80  1  0  0  0  0
 46 83  1  0  0  0  0
 47 79  1  0  0  0  0
 48 77  1  0  0  0  0
 49 65  1  0  0  0  0
 50 66  1  0  0  0  0
 51 66  1  0  0  0  0
 52 67  1  0  0  0  0
 53 67  1  0  0  0  0
 54 67  1  0  0  0  0
 55 68  1  0  0  0  0
 56 68  1  0  0  0  0
 57 68  1  0  0  0  0
 58 69  1  0  0  0  0
 59 69  1  0  0  0  0
 60 70  1  0  0  0  0
 61 70  1  0  0  0  0
 62 85  1  0  0  0  0
 63 76  1  0  0  0  0
 64 68  1  0  0  0  0
 64 84  1  0  0  0  0
 65 85  1  0  0  0  0
 69 70  1  0  0  0  0
 69 78  1  0  0  0  0
 70 92  1  0  0  0  0
 72 77  1  0  0  0  0
 74 76  1  0  0  0  0
 75 78  1  0  0  0  0
M  CHG  1  85   1
M  ISO  4  34 100  63 100  70 101  92 101
M  END
> <Batch ID>
0063

> <Smiles>
CNC(C)C(=O)NC(C(=O)N1Cc2cc([101O:1][101C:1](C)(C)C(C)(C)n3nc(C(C)(C)c4ncn([100CH2:0][100C:0](=O)N5CCCC(n6nc(-c7ccc(Oc8ccc(F)cc8F)cc7)c(C(N)=O)c6N)C5)n4)nc3C(C)(C)C)ccc2CC1C(=O)NC1CCCc2ccccc21)C(C)(C)C

> <Shape>
0.238

> <Color>
0.084

> <Negative vol penalty>
0.000

$$$$

  -OEChem-04052318023D

 87 95  0     1  0  0  0  0  0999 V2000
  -21.9421  -17.5555   25.4163 C   0  0  0  0  0  0  0  0  0  0  0  0
  -22.9761  -18.4782   25.2949 C   0  0  0  0  0  0  0  0  0  0  0  0
  -24.2472  -13.6547   20.9442 C   0  0  0  0  0  0  0  0  0  0  0  0
  -26.6211  -13.2325   20.7914 C   0  0  0  0  0  0  0  0  0  0  0  0
  -20.8072  -17.6727   24.6150 C   0  0  0  0  0  0  0  0  0  0  0  0
  -22.8763  -19.5180   24.3712 C   0  0  0  0  0  0  0  0  0  0  0  0
  -24.8071  -26.3516   23.4272 C   0  0  0  0  0  0  0  0  0  0  0  0
  -23.9881  -12.3504   20.5234 C   0  0  0  0  0  0  0  0  0  0  0  0
  -26.3620  -11.9281   20.3706 C   0  0  0  0  0  0  0  0  0  0  0  0
  -25.4499  -27.1710   22.5003 C   0  0  0  0  0  0  0  0  0  0  0  0
  -22.7040   -9.0196   19.8362 C   0  0  0  0  0  0  0  0  0  0  0  0
  -21.7301   -8.2972   20.5255 C   0  0  0  0  0  0  0  0  0  0  0  0
  -23.4078  -27.3199   21.2248 C   0  0  0  0  0  0  0  0  0  0  0  0
  -23.0028   -8.5284   22.5660 C   0  0  0  0  0  0  0  0  0  0  0  0
  -28.4113  -26.0117   17.8243 C   0  0  0  0  0  0  0  0  0  0  0  0
  -30.1000  -26.5484   19.3462 C   0  0  0  0  0  0  0  0  0  0  0  0
  -25.5637  -14.0958   21.0782 C   0  0  0  0  0  0  0  0  0  0  0  0
  -25.9974  -15.8929   22.8360 C   0  0  0  0  0  0  0  0  0  0  0  0
  -20.6892  -18.7200   23.6877 C   0  0  0  0  0  0  0  0  0  0  0  0
  -23.4605  -26.0007   23.2537 C   0  0  0  0  0  0  0  0  0  0  0  0
  -21.7394  -19.6485   23.5557 C   0  0  0  0  0  0  0  0  0  0  0  0
  -22.7495  -26.4980   22.1523 C   0  0  0  0  0  0  0  0  0  0  0  0
  -29.0576  -26.9872   18.5556 C   0  0  0  0  0  0  0  0  0  0  0  0
  -25.0455  -11.4871   20.2366 C   0  0  0  0  0  0  0  0  0  0  0  0
  -24.7511  -27.6529   21.3973 C   0  0  0  0  0  0  0  0  0  0  0  0
  -23.8274   -9.4964   20.5118 C   0  0  0  0  0  0  0  0  0  0  0  0
  -21.8794   -8.0516   21.8904 C   0  0  0  0  0  0  0  0  0  0  0  0
  -23.9768   -9.2508   21.8767 C   0  0  0  0  0  0  0  0  0  0  0  0
  -25.8320  -15.4433   21.5123 C   0  0  0  0  0  0  0  0  0  0  0  0
  -26.2302  -17.2411   22.7142 C   0  0  0  0  0  0  0  0  0  0  0  0
  -29.7814  -24.4038   18.6636 C   0  0  0  0  0  0  0  0  0  0  0  0
  -25.9454  -15.1577   24.0658 C   0  0  0  0  0  0  0  0  0  0  0  0
  -21.8905  -23.2690   22.8335 C   0  0  0  0  0  0  0  0  0  0  0  0
  -19.2823  -25.1810   23.0861 C   0  0  0  0  0  0  0  0  0  0  0  0
  -17.9418  -28.3061   22.7961 C   0  0  0  0  0  0  0  0  0  0  0  0
  -28.9604  -20.8857   19.2974 C   0  0  0  0  0  0  0  0  0  0  0  0
  -19.4640  -18.7781   22.8102 C   0  0  0  0  0  0  0  0  0  0  0  0
  -22.7743  -25.1377   24.2768 C   0  0  0  0  0  0  0  0  0  0  0  0
  -21.2969  -26.1673   21.9311 C   0  0  0  0  0  0  0  0  0  0  0  0
  -19.2728  -20.1259   22.1195 C   0  0  0  0  0  0  0  0  0  0  0  0
  -25.3514  -20.6280   19.2199 C   0  0  0  0  0  0  0  0  0  0  0  0
  -20.5853  -20.6018   21.5051 C   0  0  0  0  0  0  0  0  0  0  0  0
  -25.1260  -19.2969   19.9393 C   0  0  0  0  0  0  0  0  0  0  0  0
  -26.5976  -20.5774   18.3410 C   0  0  0  0  0  0  0  0  0  0  0  0
  -27.6202  -18.8574   19.7796 C   0  0  0  0  0  0  0  0  0  0  0  0
  -21.6573  -20.8046   22.5826 C   0  0  1  0  0  0  0  0  0  0  0  0
  -21.5421  -24.4252   23.7276 C   0  0  1  0  0  0  0  0  0  0  0  0
  -26.3877  -18.8515   20.7021 C   0  0  2  0  0  0  0  0  0  0  0  0
  -15.7751  -29.5499   23.0324 C   0  0  0  0  0  0  0  0  0  0  0  0
  -29.4956  -29.3954   19.3918 C   0  0  0  0  0  0  0  0  0  0  0  0
  -28.8312  -28.9694   17.0419 C   0  0  0  0  0  0  0  0  0  0  0  0
  -18.3291  -24.0203   20.4302 C   0  0  0  0  0  0  0  0  0  0  0  0
  -16.7174  -25.9281   20.2546 C   0  0  0  0  0  0  0  0  0  0  0  0
  -16.5330  -24.3120   22.1459 C   0  0  0  0  0  0  0  0  0  0  0  0
  -30.7930  -22.7986   16.2416 C   0  0  0  0  0  0  0  0  0  0  0  0
  -32.6069  -23.2170   17.9044 C   0  0  0  0  0  0  0  0  0  0  0  0
  -19.0385  -30.0453   24.9248 C   0  0  0  0  0  0  0  0  0  0  0  0
  -27.1403  -28.6476   18.8767 C   0  0  0  0  0  0  0  0  0  0  0  0
  -26.7778  -28.2549   20.3082 C   0  0  0  0  0  0  0  0  0  1  0  0
  -30.1818  -22.9688   18.7266 C   0  0  2  0  0  0  0  0  0  0  0  0
  -18.4390  -25.9727   22.1160 C   0  0  1  0  0  0  0  0  0  0  0  0
  -17.0548  -29.1121   23.7278 C   0  0  2  0  0  0  0  0  0  0  0  0
  -28.6407  -28.4679   18.4952 C   0  0  0  0  0  0  0  0  0  0  0  0
  -17.5325  -25.0631   21.2395 C   0  0  0  0  0  0  0  0  0  0  0  0
  -31.2543  -22.5353   17.6767 C   0  0  0  0  0  0  0  0  0  0  0  0
  -28.7481  -24.7055   17.8544 N   0  0  0  0  0  0  0  0  0  0  0  0
  -30.4903  -25.2593   19.4246 N   0  0  0  0  0  0  0  0  0  0  0  0
  -25.9496  -16.4261   20.6154 N   0  0  0  0  0  0  0  0  0  0  0  0
  -26.1912  -17.5067   21.3770 N   0  0  0  0  0  0  0  0  0  0  0  0
  -20.6719  -25.3148   22.9559 N   0  0  0  0  0  0  0  0  0  0  0  0
  -27.7660  -20.1650   19.1314 N   0  0  0  0  0  0  0  0  0  0  0  0
  -26.4623  -18.2133   23.6215 N   0  0  0  0  0  0  0  0  0  0  0  0
  -25.6960  -13.7796   24.0103 N   0  0  0  0  0  0  0  0  0  0  0  0
  -21.4342  -22.0473   23.2901 N   0  0  0  0  0  0  0  0  0  0  0  0
  -17.7095  -26.9521   22.9141 N   0  0  0  0  0  0  0  0  0  0  0  0
  -29.0205  -22.1111   18.6451 N   0  0  0  0  0  0  0  0  0  0  0  0
  -17.7722  -30.3293   24.2017 N   0  3  0  0  0  0  0  0  0  0  0  0
  -26.0988  -15.7094   25.1819 O   0  0  0  0  0  0  0  0  0  0  0  0
  -22.5250  -23.4707   21.8047 O   0  0  0  0  0  0  0  0  0  0  0  0
  -18.7284  -24.4757   23.9331 O   0  0  0  0  0  0  0  0  0  0  0  0
  -18.7565  -28.8259   22.0367 O   0  0  0  0  0  0  0  0  0  0  0  0
  -29.9021  -20.4703   19.9812 O   0  0  0  0  0  0  0  0  0  0  0  0
  -24.7930  -10.2141   19.8262 O   0  0  0  0  0  0  0  0  0  0  0  0
  -25.3763  -28.4524   20.4908 O   0  0  0  0  0  0  0  0  0  1  0  0
  -20.9433   -7.3592   22.5525 F   0  0  0  0  0  0  0  0  0  0  0  0
  -25.0532   -9.7073   22.5314 F   0  0  0  0  0  0  0  0  0  0  0  0
  -31.4617  -21.1900   17.7984 F   0  0  0  0  0  0  0  0  0  0  0  0
  1  2  1  0  0  0  0
  1  5  2  0  0  0  0
  2  6  2  0  0  0  0
  3  8  2  0  0  0  0
  3 17  1  0  0  0  0
  4  9  1  0  0  0  0
  4 17  2  0  0  0  0
  5 19  1  0  0  0  0
  6 21  1  0  0  0  0
  7 10  2  0  0  0  0
  7 20  1  0  0  0  0
  8 24  1  0  0  0  0
  9 24  2  0  0  0  0
 10 25  1  0  0  0  0
 11 12  2  0  0  0  0
 11 26  1  0  0  0  0
 12 27  1  0  0  0  0
 13 22  1  0  0  0  0
 13 25  2  0  0  0  0
 14 27  2  0  0  0  0
 14 28  1  0  0  0  0
 15 23  1  0  0  0  0
 15 66  2  0  0  0  0
 16 23  2  0  0  0  0
 16 67  1  0  0  0  0
 17 29  1  0  0  0  0
 18 29  1  0  0  0  0
 18 30  2  0  0  0  0
 18 32  1  0  0  0  0
 19 21  2  0  0  0  0
 19 37  1  0  0  0  0
 20 22  2  0  0  0  0
 20 38  1  0  0  0  0
 21 46  1  0  0  0  0
 22 39  1  0  0  0  0
 23 63  1  0  0  0  0
 24 83  1  0  0  0  0
 25 84  1  0  0  0  0
 26 28  2  0  0  0  0
 26 83  1  0  0  0  0
 27 85  1  0  0  0  0
 28 86  1  0  0  0  0
 29 68  2  0  0  0  0
 30 69  1  0  0  0  0
 30 72  1  0  0  0  0
 31 60  1  0  0  0  0
 31 66  1  0  0  0  0
 31 67  2  0  0  0  0
 32 73  1  0  0  0  0
 32 78  2  0  0  0  0
 33 47  1  0  0  0  0
 33 74  1  0  0  0  0
 33 79  2  0  0  0  0
 34 61  1  0  0  0  0
 34 70  1  0  0  0  0
 34 80  2  0  0  0  0
 35 62  1  0  0  0  0
 35 75  1  0  0  0  0
 35 81  2  0  0  0  0
 36 71  1  0  0  0  0
 36 76  1  0  0  0  0
 36 82  2  0  0  0  0
 37 40  1  0  0  0  0
 38 47  1  0  0  0  0
 39 70  1  0  0  0  0
 40 42  1  0  0  0  0
 41 43  1  0  0  0  0
 41 44  1  0  0  0  0
 42 46  1  0  0  0  0
 43 48  1  0  0  0  0
 44 71  1  0  0  0  0
 45 48  1  0  0  0  0
 45 71  1  0  0  0  0
 46 74  1  0  0  0  0
 47 70  1  0  0  0  0
 48 69  1  0  0  0  0
 49 62  1  0  0  0  0
 50 63  1  0  0  0  0
 51 63  1  0  0  0  0
 52 64  1  0  0  0  0
 53 64  1  0  0  0  0
 54 64  1  0  0  0  0
 55 65  1  0  0  0  0
 56 65  1  0  0  0  0
 57 77  1  0  0  0  0
 58 59  1  0  0  0  0
 58 63  1  0  0  0  0
 59 84  1  0  0  0  0
 60 65  1  0  0  0  0
 60 76  1  0  0  0  0
 61 64  1  0  0  0  0
 61 75  1  0  0  0  0
 62 77  1  0  0  0  0
 65 87  1  0  0  0  0
 68 69  1  0  0  0  0
M  CHG  1  77   1
M  ISO  4  36 100  59 101  76 100  84 101
M  END
> <Batch ID>
0063

> <Smiles>
CNC(C)C(=O)NC(C(=O)N1Cc2cc([101O:1][101CH2:1]CC(C)(C)c3cnc(C([100NH:0][100C:0](=O)N4CCCC(n5nc(-c6ccc(Oc7ccc(F)cc7F)cc6)c(C(N)=O)c5N)C4)C(C)(C)F)nc3)ccc2CC1C(=O)NC1CCCc2ccccc21)C(C)(C)C

> <Shape>
0.220

> <Color>
0.065

> <Negative vol penalty>
0.000

$$$$

  -OEChem-04052318023D

 85 93  0     1  0  0  0  0  0999 V2000
  -22.0735  -12.0557   19.5275 C   0  0  0  0  0  0  0  0  0  0  0  0
  -21.8512  -13.4095   19.7580 C   0  0  0  0  0  0  0  0  0  0  0  0
  -25.2597  -27.8461   19.6522 C   0  0  0  0  0  0  0  0  0  0  0  0
  -25.1929  -25.4560   19.9988 C   0  0  0  0  0  0  0  0  0  0  0  0
  -23.3129  -11.4927   19.8290 C   0  0  0  0  0  0  0  0  0  0  0  0
  -22.8679  -14.2010   20.2912 C   0  0  0  0  0  0  0  0  0  0  0  0
  -23.3310  -18.6402   17.8988 C   0  0  0  0  0  0  0  0  0  0  0  0
  -26.6516  -27.8199   19.7399 C   0  0  0  0  0  0  0  0  0  0  0  0
  -26.5848  -25.4298   20.0865 C   0  0  0  0  0  0  0  0  0  0  0  0
  -22.4036  -19.6327   18.2130 C   0  0  0  0  0  0  0  0  0  0  0  0
  -29.2582  -27.0051   17.7464 C   0  0  0  0  0  0  0  0  0  0  0  0
  -29.9812  -27.7286   16.7980 C   0  0  0  0  0  0  0  0  0  0  0  0
  -24.0187  -20.6713   19.6731 C   0  0  0  0  0  0  0  0  0  0  0  0
  -30.9683  -29.0531   18.5611 C   0  0  0  0  0  0  0  0  0  0  0  0
  -24.5304  -26.6641   19.7817 C   0  0  0  0  0  0  0  0  0  0  0  0
  -22.3106  -26.5439   18.5303 C   0  0  0  0  0  0  0  0  0  0  0  0
  -24.3484  -12.2797   20.3571 C   0  0  0  0  0  0  0  0  0  0  0  0
  -24.6077  -18.6498   18.4788 C   0  0  0  0  0  0  0  0  0  0  0  0
  -24.1219  -13.6478   20.6012 C   0  0  0  0  0  0  0  0  0  0  0  0
  -24.9614  -19.6793   19.3626 C   0  0  0  0  0  0  0  0  0  0  0  0
  -27.3141  -26.6118   19.9570 C   0  0  0  0  0  0  0  0  0  0  0  0
  -22.7463  -20.6468   19.1025 C   0  0  0  0  0  0  0  0  0  0  0  0
  -29.3901  -27.3056   19.1021 C   0  0  0  0  0  0  0  0  0  0  0  0
  -30.8363  -28.7526   17.2054 C   0  0  0  0  0  0  0  0  0  0  0  0
  -30.2452  -28.3296   19.5095 C   0  0  0  0  0  0  0  0  0  0  0  0
  -23.0926  -26.6906   19.6917 C   0  0  0  0  0  0  0  0  0  0  0  0
  -21.0146  -26.6436   18.9741 C   0  0  0  0  0  0  0  0  0  0  0  0
  -18.7547  -21.5755   21.3148 C   0  0  0  0  0  0  0  0  0  0  0  0
  -22.7192  -26.3359   17.1719 C   0  0  0  0  0  0  0  0  0  0  0  0
  -26.2235  -16.6786   20.3781 C   0  0  0  0  0  0  0  0  0  0  0  0
  -28.6455  -18.7672   19.8354 C   0  0  0  0  0  0  0  0  0  0  0  0
  -29.6092  -21.9246   18.9702 C   0  0  0  0  0  0  0  0  0  0  0  0
  -18.4297  -25.6145   24.2760 C   0  0  0  0  0  0  0  0  0  0  0  0
  -25.6559  -11.6166   20.7112 C   0  0  0  0  0  0  0  0  0  0  0  0
  -25.6058  -17.5871   18.1089 C   0  0  0  0  0  0  0  0  0  0  0  0
  -26.3259  -19.7463   19.9967 C   0  0  0  0  0  0  0  0  0  0  0  0
  -26.8014  -12.6031   20.9235 C   0  0  0  0  0  0  0  0  0  0  0  0
  -18.3832  -28.6562   22.4261 C   0  0  0  0  0  0  0  0  0  0  0  0
  -26.3518  -13.7604   21.8097 C   0  0  0  0  0  0  0  0  0  0  0  0
  -19.5143  -28.4841   21.4107 C   0  0  0  0  0  0  0  0  0  0  0  0
  -18.7303  -28.0208   23.7706 C   0  0  0  0  0  0  0  0  0  0  0  0
  -20.2713  -26.4338   22.6842 C   0  0  0  0  0  0  0  0  0  0  0  0
  -25.2079  -14.5443   21.1552 C   0  0  1  0  0  0  0  0  0  0  0  0
  -26.7022  -17.4073   19.1543 C   0  0  1  0  0  0  0  0  0  0  0  0
  -19.9449  -27.0095   21.2956 C   0  0  2  0  0  0  0  0  0  0  0  0
  -31.6556  -23.3413   18.6496 C   0  0  0  0  0  0  0  0  0  0  0  0
  -20.9701  -20.4047   23.7744 C   0  0  0  0  0  0  0  0  0  0  0  0
  -28.9541  -19.0021   22.8619 C   0  0  0  0  0  0  0  0  0  0  0  0
  -30.3055  -21.0771   22.4931 C   0  0  0  0  0  0  0  0  0  0  0  0
  -31.1098  -18.8917   21.5990 C   0  0  0  0  0  0  0  0  0  0  0  0
  -18.3981  -20.8746   25.6285 C   0  0  0  0  0  0  0  0  0  0  0  0
  -20.3092  -22.4383   25.9105 C   0  0  0  0  0  0  0  0  0  0  0  0
  -28.9778  -22.3959   16.1175 C   0  0  0  0  0  0  0  0  0  0  0  0
  -19.5155  -22.7567   20.7675 C   0  0  0  0  0  0  0  0  0  0  0  0
  -19.7145  -22.7122   19.2510 C   0  0  0  0  0  0  0  0  0  0  0  0
  -18.2449  -23.1715   24.6721 C   0  0  0  0  0  0  0  0  0  0  0  0
  -20.5620  -21.5331   18.7875 C   0  0  0  0  0  0  0  0  0  1  0  0
  -29.1375  -20.0299   20.5006 C   0  0  1  0  0  0  0  0  0  0  0  0
  -30.6435  -22.4259   17.9785 C   0  0  2  0  0  0  0  0  0  0  0  0
  -19.8821  -21.4780   23.5751 C   0  0  2  0  0  0  0  0  0  0  0  0
  -29.8503  -19.7481   21.8534 C   0  0  0  0  0  0  0  0  0  0  0  0
  -19.2119  -21.9786   24.9177 C   0  0  0  0  0  0  0  0  0  0  0  0
  -22.3549  -26.8701   20.7907 N   0  0  0  0  0  0  0  0  0  0  0  0
  -17.8135  -20.8784   20.7209 N   0  0  0  0  0  0  0  0  0  0  0  0
  -17.4382  -19.9132   21.6279 N   0  0  0  0  0  0  0  0  0  0  0  0
  -18.1361  -20.0179   22.7522 N   0  0  0  0  0  0  0  0  0  0  0  0
  -21.0959  -26.8368   20.3218 N   0  0  0  0  0  0  0  0  0  0  0  0
  -18.9582  -21.0577   22.5541 N   0  0  0  0  0  0  0  0  0  0  0  0
  -27.2646  -18.6808   19.6083 N   0  0  0  0  0  0  0  0  0  0  0  0
  -19.1286  -26.6226   23.5917 N   0  0  0  0  0  0  0  0  0  0  0  0
  -19.8248  -26.5841   18.3391 N   0  0  0  0  0  0  0  0  0  0  0  0
  -24.0901  -26.2576   16.8910 N   0  0  0  0  0  0  0  0  0  0  0  0
  -25.7204  -15.4176   20.1212 N   0  0  0  0  0  0  0  0  0  0  0  0
  -29.9714  -20.7114   19.5164 N   0  0  0  0  0  0  0  0  0  0  0  0
  -18.8676  -24.3161   24.0454 N   0  0  0  0  0  0  0  0  0  0  0  0
  -29.9819  -23.1830   16.8784 N   0  3  0  0  0  0  0  0  0  0  0  0
  -21.8936  -26.2393   16.2324 O   0  0  0  0  0  0  0  0  0  0  0  0
  -26.3060  -17.2199   21.4744 O   0  0  0  0  0  0  0  0  0  0  0  0
  -29.4573  -17.8928   19.5223 O   0  0  0  0  0  0  0  0  0  0  0  0
  -28.5845  -22.5487   19.2367 O   0  0  0  0  0  0  0  0  0  0  0  0
  -17.4819  -25.8533   25.0320 O   0  0  0  0  0  0  0  0  0  0  0  0
  -28.6722  -26.5858   20.0424 O   0  0  0  0  0  0  0  0  0  0  0  0
  -21.8428  -21.6163   19.4114 O   0  0  0  0  0  0  0  0  0  1  0  0
  -31.5317  -29.4463   16.2947 F   0  0  0  0  0  0  0  0  0  0  0  0
  -30.3770  -28.6221   20.8106 F   0  0  0  0  0  0  0  0  0  0  0  0
  1  2  1  0  0  0  0
  1  5  2  0  0  0  0
  2  6  2  0  0  0  0
  3  8  2  0  0  0  0
  3 15  1  0  0  0  0
  4  9  1  0  0  0  0
  4 15  2  0  0  0  0
  5 17  1  0  0  0  0
  6 19  1  0  0  0  0
  7 10  2  0  0  0  0
  7 18  1  0  0  0  0
  8 21  1  0  0  0  0
  9 21  2  0  0  0  0
 10 22  1  0  0  0  0
 11 12  2  0  0  0  0
 11 23  1  0  0  0  0
 12 24  1  0  0  0  0
 13 20  1  0  0  0  0
 13 22  2  0  0  0  0
 14 24  2  0  0  0  0
 14 25  1  0  0  0  0
 15 26  1  0  0  0  0
 16 26  1  0  0  0  0
 16 27  2  0  0  0  0
 16 29  1  0  0  0  0
 17 19  2  0  0  0  0
 17 34  1  0  0  0  0
 18 20  2  0  0  0  0
 18 35  1  0  0  0  0
 19 43  1  0  0  0  0
 20 36  1  0  0  0  0
 21 82  1  0  0  0  0
 22 83  1  0  0  0  0
 23 25  2  0  0  0  0
 23 82  1  0  0  0  0
 24 84  1  0  0  0  0
 25 85  1  0  0  0  0
 26 63  2  0  0  0  0
 27 67  1  0  0  0  0
 27 71  1  0  0  0  0
 28 54  1  0  0  0  0
 28 64  2  0  0  0  0
 28 68  1  0  0  0  0
 29 72  1  0  0  0  0
 29 77  2  0  0  0  0
 30 44  1  0  0  0  0
 30 73  1  0  0  0  0
 30 78  2  0  0  0  0
 31 58  1  0  0  0  0
 31 69  1  0  0  0  0
 31 79  2  0  0  0  0
 32 59  1  0  0  0  0
 32 74  1  0  0  0  0
 32 80  2  0  0  0  0
 33 70  1  0  0  0  0
 33 75  1  0  0  0  0
 33 81  2  0  0  0  0
 34 37  1  0  0  0  0
 35 44  1  0  0  0  0
 36 69  1  0  0  0  0
 37 39  1  0  0  0  0
 38 40  1  0  0  0  0
 38 41  1  0  0  0  0
 39 43  1  0  0  0  0
 40 45  1  0  0  0  0
 41 70  1  0  0  0  0
 42 45  1  0  0  0  0
 42 70  1  0  0  0  0
 43 73  1  0  0  0  0
 44 69  1  0  0  0  0
 45 67  1  0  0  0  0
 46 59  1  0  0  0  0
 47 60  1  0  0  0  0
 48 61  1  0  0  0  0
 49 61  1  0  0  0  0
 50 61  1  0  0  0  0
 51 62  1  0  0  0  0
 52 62  1  0  0  0  0
 53 76  1  0  0  0  0
 54 55  1  0  0  0  0
 55 57  1  0  0  0  0
 56 62  1  0  0  0  0
 56 75  1  0  0  0  0
 57 83  1  0  0  0  0
 58 61  1  0  0  0  0
 58 74  1  0  0  0  0
 59 76  1  0  0  0  0
 60 62  1  0  0  0  0
 60 68  1  0  0  0  0
 63 67  1  0  0  0  0
 64 65  1  0  0  0  0
 65 66  2  0  0  0  0
 66 68  1  0  0  0  0
M  CHG  1  76   1
M  ISO  4  33 100  57 101  75 100  83 101
M  END
> <Batch ID>
0063

> <Smiles>
CNC(C)C(=O)NC(C(=O)N1Cc2cc([101O:1][101CH2:1]CCc3nnnn3C(C)C(C)(C)C[100NH:0][100C:0](=O)N3CCCC(n4nc(-c5ccc(Oc6ccc(F)cc6F)cc5)c(C(N)=O)c4N)C3)ccc2CC1C(=O)NC1CCCc2ccccc21)C(C)(C)C

> <Shape>
0.185

> <Color>
0.083

> <Negative vol penalty>
0.000

$$$$

  -OEChem-04052318022D

  0  0  0     0  0  0  0  0  0999 V2000
M  END
$$$$

  -OEChem-04052318023D

 86 94  0     1  0  0  0  0  0999 V2000
  -23.8511  -35.0420   24.9383 C   0  0  0  0  0  0  0  0  0  0  0  0
  -24.6092  -33.9258   25.2770 C   0  0  0  0  0  0  0  0  0  0  0  0
  -25.5900   -8.7915   21.1727 C   0  0  0  0  0  0  0  0  0  0  0  0
  -23.6149   -9.7220   22.2073 C   0  0  0  0  0  0  0  0  0  0  0  0
  -22.7452  -34.9041   24.1005 C   0  0  0  0  0  0  0  0  0  0  0  0
  -24.2611  -32.6707   24.7790 C   0  0  0  0  0  0  0  0  0  0  0  0
  -28.8971  -28.8376   20.8159 C   0  0  0  0  0  0  0  0  0  0  0  0
  -25.4116   -7.6109   21.8938 C   0  0  0  0  0  0  0  0  0  0  0  0
  -23.4365   -8.5413   22.9284 C   0  0  0  0  0  0  0  0  0  0  0  0
  -29.8018  -27.9531   20.2282 C   0  0  0  0  0  0  0  0  0  0  0  0
  -22.2235   -5.4382   22.3627 C   0  0  0  0  0  0  0  0  0  0  0  0
  -20.9358   -4.9056   22.4227 C   0  0  0  0  0  0  0  0  0  0  0  0
  -28.0469  -26.3084   19.9768 C   0  0  0  0  0  0  0  0  0  0  0  0
  -20.9652   -5.1056   24.8303 C   0  0  0  0  0  0  0  0  0  0  0  0
  -30.9741  -18.9779   19.9281 C   0  0  0  0  0  0  0  0  0  0  0  0
  -24.6917   -9.8470   21.3295 C   0  0  0  0  0  0  0  0  0  0  0  0
  -24.3545  -11.3743   19.3142 C   0  0  0  0  0  0  0  0  0  0  0  0
  -22.3891  -33.6482   23.5842 C   0  0  0  0  0  0  0  0  0  0  0  0
  -27.5588  -28.4662   20.9723 C   0  0  0  0  0  0  0  0  0  0  0  0
  -23.1486  -32.5156   23.9346 C   0  0  0  0  0  0  0  0  0  0  0  0
  -27.1334  -27.1949   20.5533 C   0  0  0  0  0  0  0  0  0  0  0  0
  -24.3348   -7.4858   22.7716 C   0  0  0  0  0  0  0  0  0  0  0  0
  -29.3777  -26.6915   19.8100 C   0  0  0  0  0  0  0  0  0  0  0  0
  -22.8822   -5.8045   23.5365 C   0  0  0  0  0  0  0  0  0  0  0  0
  -20.3066   -4.7393   23.6564 C   0  0  0  0  0  0  0  0  0  0  0  0
  -22.2530   -5.6382   24.7703 C   0  0  0  0  0  0  0  0  0  0  0  0
  -24.8758  -11.0670   20.5853 C   0  0  0  0  0  0  0  0  0  0  0  0
  -24.8135  -12.6421   19.0522 C   0  0  0  0  0  0  0  0  0  0  0  0
  -29.6641  -17.5051   19.2410 C   0  0  0  0  0  0  0  0  0  0  0  0
  -23.5291  -10.5845   18.4478 C   0  0  0  0  0  0  0  0  0  0  0  0
  -28.9483  -16.2564   18.9519 C   0  0  0  0  0  0  0  0  0  0  0  0
  -24.1310  -29.4309   22.1535 C   0  0  0  0  0  0  0  0  0  0  0  0
  -23.7687  -27.9100   19.5141 C   0  0  0  0  0  0  0  0  0  0  0  0
  -23.8304  -26.5597   16.3820 C   0  0  0  0  0  0  0  0  0  0  0  0
  -21.1574  -33.5412   22.7204 C   0  0  0  0  0  0  0  0  0  0  0  0
  -26.5629  -29.3633   21.6560 C   0  0  0  0  0  0  0  0  0  0  0  0
  -25.6919  -26.8253   20.7733 C   0  0  0  0  0  0  0  0  0  0  0  0
  -21.0768  -32.2355   21.9336 C   0  0  0  0  0  0  0  0  0  0  0  0
  -27.0826  -16.0166   22.0549 C   0  0  0  0  0  0  0  0  0  0  0  0
  -21.3920  -31.0475   22.8369 C   0  0  0  0  0  0  0  0  0  0  0  0
  -26.3109  -14.7131   21.8454 C   0  0  0  0  0  0  0  0  0  0  0  0
  -28.4751  -15.9437   21.4357 C   0  0  0  0  0  0  0  0  0  0  0  0
  -27.7073  -14.2823   19.7733 C   0  0  0  0  0  0  0  0  0  0  0  0
  -22.8175  -31.1413   23.3945 C   0  0  1  0  0  0  0  0  0  0  0  0
  -25.1466  -29.2549   21.0631 C   0  0  1  0  0  0  0  0  0  0  0  0
  -26.2847  -14.3142   20.3584 C   0  0  1  0  0  0  0  0  0  0  0  0
  -31.4538  -21.0083   16.5683 C   0  0  0  0  0  0  0  0  0  0  0  0
  -22.3138  -25.8492   14.5132 C   0  0  0  0  0  0  0  0  0  0  0  0
  -28.2267  -23.1935   18.8757 C   0  0  0  0  0  0  0  0  0  0  0  0
  -28.2677  -21.5411   20.7326 C   0  0  0  0  0  0  0  0  0  0  0  0
  -23.0116  -25.4074   21.0850 C   0  0  0  0  0  0  0  0  0  0  0  0
  -22.3355  -24.3411   18.9230 C   0  0  0  0  0  0  0  0  0  0  0  0
  -21.1555  -26.3873   19.7251 C   0  0  0  0  0  0  0  0  0  0  0  0
  -32.0005  -23.8068   17.9724 C   0  0  0  0  0  0  0  0  0  0  0  0
  -32.3241  -24.1909   20.3866 C   0  0  0  0  0  0  0  0  0  0  0  0
  -25.0488  -28.4941   14.5026 C   0  0  0  0  0  0  0  0  0  0  0  0
  -30.1330  -21.4028   17.2289 C   0  0  0  0  0  0  0  0  0  0  0  0
  -31.1339  -22.0485   19.5313 C   0  0  0  0  0  0  0  0  0  0  0  0
  -30.0373  -24.4407   19.4143 C   0  0  0  0  0  0  0  0  0  1  0  0
  -23.5167  -26.5837   18.8428 C   0  0  1  0  0  0  0  0  0  0  0  0
  -23.1519  -26.9793   15.0905 C   0  0  2  0  0  0  0  0  0  0  0  0
  -28.5725  -21.7388   19.2361 C   0  0  0  0  0  0  0  0  0  0  0  0
  -22.5312  -25.6900   19.6475 C   0  0  0  0  0  0  0  0  0  0  0  0
  -31.3315  -23.6037   19.3617 C   0  0  0  0  0  0  0  0  0  0  0  0
  -30.0180  -21.1912   18.7855 C   0  0  1  0  0  0  0  0  0  0  0  0
  -30.7245  -17.6375   20.0036 N   0  0  0  0  0  0  0  0  0  0  0  0
  -25.6099  -12.0595   21.0952 N   0  0  0  0  0  0  0  0  0  0  0  0
  -29.3068  -18.7178   18.7394 N   0  0  0  0  0  0  0  0  0  0  0  0
  -30.1348  -19.6832   19.1668 N   0  0  0  0  0  0  0  0  0  0  0  0
  -25.5532  -13.0029   20.1397 N   0  0  0  0  0  0  0  0  0  0  0  0
  -28.3947  -15.5508   20.0231 N   0  0  0  0  0  0  0  0  0  0  0  0
  -24.8239  -27.9635   20.4330 N   0  0  0  0  0  0  0  0  0  0  0  0
  -24.6525  -13.4722   17.9999 N   0  0  0  0  0  0  0  0  0  0  0  0
  -23.1489   -9.3039   18.8719 N   0  0  0  0  0  0  0  0  0  0  0  0
  -23.7805  -30.7467   22.3889 N   0  0  0  0  0  0  0  0  0  0  0  0
  -23.0743  -26.8901   17.4868 N   0  0  0  0  0  0  0  0  0  0  0  0
  -24.1692  -27.3755   14.0760 N   0  3  0  0  0  0  0  0  0  0  0  0
  -23.1539  -10.9956   17.3237 O   0  0  0  0  0  0  0  0  0  0  0  0
  -28.8829  -15.9304   17.7676 O   0  0  0  0  0  0  0  0  0  0  0  0
  -23.6952  -28.4460   22.7380 O   0  0  0  0  0  0  0  0  0  0  0  0
  -23.0477  -28.8727   19.2375 O   0  0  0  0  0  0  0  0  0  0  0  0
  -24.9202  -25.9921   16.4081 O   0  0  0  0  0  0  0  0  0  0  0  0
  -24.1603   -6.3339   23.4753 O   0  0  0  0  0  0  0  0  0  0  0  0
  -30.2723  -25.8278   19.2284 O   0  0  0  0  0  0  0  0  0  1  0  0
  -19.0694   -4.2292   23.7138 F   0  0  0  0  0  0  0  0  0  0  0  0
  -22.8802   -5.9893   25.9012 F   0  0  0  0  0  0  0  0  0  0  0  0
  1  2  1  0  0  0  0
  1  5  2  0  0  0  0
  2  6  2  0  0  0  0
  3  8  2  0  0  0  0
  3 16  1  0  0  0  0
  4  9  1  0  0  0  0
  4 16  2  0  0  0  0
  5 18  1  0  0  0  0
  6 20  1  0  0  0  0
  7 10  2  0  0  0  0
  7 19  1  0  0  0  0
  8 22  1  0  0  0  0
  9 22  2  0  0  0  0
 10 23  1  0  0  0  0
 11 12  2  0  0  0  0
 11 24  1  0  0  0  0
 12 25  1  0  0  0  0
 13 21  1  0  0  0  0
 13 23  2  0  0  0  0
 14 25  2  0  0  0  0
 14 26  1  0  0  0  0
 15 66  2  0  0  0  0
 15 69  1  0  0  0  0
 16 27  1  0  0  0  0
 17 27  1  0  0  0  0
 17 28  2  0  0  0  0
 17 30  1  0  0  0  0
 18 20  2  0  0  0  0
 18 35  1  0  0  0  0
 19 21  2  0  0  0  0
 19 36  1  0  0  0  0
 20 44  1  0  0  0  0
 21 37  1  0  0  0  0
 22 83  1  0  0  0  0
 23 84  1  0  0  0  0
 24 26  2  0  0  0  0
 24 83  1  0  0  0  0
 25 85  1  0  0  0  0
 26 86  1  0  0  0  0
 27 67  2  0  0  0  0
 28 70  1  0  0  0  0
 28 73  1  0  0  0  0
 29 31  1  0  0  0  0
 29 66  1  0  0  0  0
 29 68  2  0  0  0  0
 30 74  1  0  0  0  0
 30 78  2  0  0  0  0
 31 71  1  0  0  0  0
 31 79  2  0  0  0  0
 32 45  1  0  0  0  0
 32 75  1  0  0  0  0
 32 80  2  0  0  0  0
 33 60  1  0  0  0  0
 33 72  1  0  0  0  0
 33 81  2  0  0  0  0
 34 61  1  0  0  0  0
 34 76  1  0  0  0  0
 34 82  2  0  0  0  0
 35 38  1  0  0  0  0
 36 45  1  0  0  0  0
 37 72  1  0  0  0  0
 38 40  1  0  0  0  0
 39 41  1  0  0  0  0
 39 42  1  0  0  0  0
 40 44  1  0  0  0  0
 41 46  1  0  0  0  0
 42 71  1  0  0  0  0
 43 46  1  0  0  0  0
 43 71  1  0  0  0  0
 44 75  1  0  0  0  0
 45 72  1  0  0  0  0
 46 70  1  0  0  0  0
 47 57  1  0  0  0  0
 48 61  1  0  0  0  0
 49 62  1  0  0  0  0
 50 62  1  0  0  0  0
 51 63  1  0  0  0  0
 52 63  1  0  0  0  0
 53 63  1  0  0  0  0
 54 64  1  0  0  0  0
 55 64  1  0  0  0  0
 56 77  1  0  0  0  0
 57 65  1  0  0  0  0
 58 64  1  0  0  0  0
 58 65  1  0  0  0  0
 59 64  1  0  0  0  0
 59 84  1  0  0  0  0
 60 63  1  0  0  0  0
 60 76  1  0  0  0  0
 61 77  1  0  0  0  0
 62 65  1  0  0  0  0
 65 69  1  0  0  0  0
 67 70  1  0  0  0  0
 68 69  1  0  0  0  0
M  CHG  1  77   1
M  ISO  4  29 100  31 100  59 101  84 101
M  END
> <Batch ID>
0063

> <Smiles>
CCC(CC(C)(C)[101CH2:1][101O:1]c1ccc2c(c1)CN(C(=O)C(NC(=O)C(C)NC)C(C)(C)C)C(C(=O)NC1CCCc3ccccc31)C2)(C(C)C)n1cn[100c:0]([100C:0](=O)N2CCCC(n3nc(-c4ccc(Oc5ccc(F)cc5F)cc4)c(C(N)=O)c3N)C2)n1

> <Shape>
0.262

> <Color>
0.088

> <Negative vol penalty>
0.000

$$$$

  -OEChem-04052318023D

 86 94  0     1  0  0  0  0  0999 V2000
  -21.5891  -12.4772   19.7648 C   0  0  0  0  0  0  0  0  0  0  0  0
  -21.6227  -13.7575   20.3081 C   0  0  0  0  0  0  0  0  0  0  0  0
  -28.4897  -25.2729   21.8565 C   0  0  0  0  0  0  0  0  0  0  0  0
  -26.5829  -25.1865   23.3377 C   0  0  0  0  0  0  0  0  0  0  0  0
  -22.7526  -11.7103   19.7181 C   0  0  0  0  0  0  0  0  0  0  0  0
  -22.8195  -14.2712   20.8061 C   0  0  0  0  0  0  0  0  0  0  0  0
  -23.6377  -19.0515   19.3486 C   0  0  0  0  0  0  0  0  0  0  0  0
  -29.2146  -24.4768   22.7432 C   0  0  0  0  0  0  0  0  0  0  0  0
  -27.3078  -24.3904   24.2244 C   0  0  0  0  0  0  0  0  0  0  0  0
  -22.9369  -20.0512   20.0218 C   0  0  0  0  0  0  0  0  0  0  0  0
  -28.2196  -21.1465   24.4821 C   0  0  0  0  0  0  0  0  0  0  0  0
  -27.5802  -20.0288   25.0183 C   0  0  0  0  0  0  0  0  0  0  0  0
  -24.8918  -20.5140   21.3572 C   0  0  0  0  0  0  0  0  0  0  0  0
  -27.8950  -20.9161   27.2433 C   0  0  0  0  0  0  0  0  0  0  0  0
  -20.8771  -28.3264   21.1507 C   0  0  0  0  0  0  0  0  0  0  0  0
  -27.1739  -25.6278   22.1538 C   0  0  0  0  0  0  0  0  0  0  0  0
  -26.1074  -26.1595   19.8982 C   0  0  0  0  0  0  0  0  0  0  0  0
  -23.9664  -12.2185   20.2070 C   0  0  0  0  0  0  0  0  0  0  0  0
  -24.9697  -18.7677   19.6826 C   0  0  0  0  0  0  0  0  0  0  0  0
  -24.0000  -13.5098   20.7671 C   0  0  0  0  0  0  0  0  0  0  0  0
  -25.6081  -19.5120   20.6849 C   0  0  0  0  0  0  0  0  0  0  0  0
  -28.6237  -24.0355   23.9272 C   0  0  0  0  0  0  0  0  0  0  0  0
  -23.5630  -20.7807   21.0282 C   0  0  0  0  0  0  0  0  0  0  0  0
  -28.6968  -22.1490   25.3265 C   0  0  0  0  0  0  0  0  0  0  0  0
  -27.4179  -19.9136   26.3989 C   0  0  0  0  0  0  0  0  0  0  0  0
  -28.5345  -22.0338   26.7071 C   0  0  0  0  0  0  0  0  0  0  0  0
  -26.4247  -26.4507   21.2385 C   0  0  0  0  0  0  0  0  0  0  0  0
  -20.2235  -28.5418   22.3440 C   0  0  0  0  0  0  0  0  0  0  0  0
  -19.8546  -26.2940   22.5476 C   0  0  0  0  0  0  0  0  0  0  0  0
  -20.5077  -26.0788   21.3539 C   0  0  0  0  0  0  0  0  0  0  0  0
  -25.3895  -27.2496   19.4707 C   0  0  0  0  0  0  0  0  0  0  0  0
  -26.4324  -25.0066   19.1102 C   0  0  0  0  0  0  0  0  0  0  0  0
  -26.5060  -16.2248   20.8127 C   0  0  0  0  0  0  0  0  0  0  0  0
  -29.1273  -18.0649   20.2978 C   0  0  0  0  0  0  0  0  0  0  0  0
  -30.4496  -21.1921   19.9534 C   0  0  0  0  0  0  0  0  0  0  0  0
  -22.0676  -31.2990   22.1622 C   0  0  0  0  0  0  0  0  0  0  0  0
  -25.1878  -11.3343   20.1781 C   0  0  0  0  0  0  0  0  0  0  0  0
  -25.7201  -17.7043   18.9287 C   0  0  0  0  0  0  0  0  0  0  0  0
  -27.0429  -19.2601   21.0675 C   0  0  0  0  0  0  0  0  0  0  0  0
  -26.4952  -12.0945   20.3853 C   0  0  0  0  0  0  0  0  0  0  0  0
  -24.8739  -31.9368   20.2272 C   0  0  0  0  0  0  0  0  0  0  0  0
  -26.3703  -13.0613   21.5586 C   0  0  0  0  0  0  0  0  0  0  0  0
  -25.5707  -30.5802   20.1319 C   0  0  0  0  0  0  0  0  0  0  0  0
  -24.3229  -32.1685   21.6292 C   0  0  0  0  0  0  0  0  0  0  0  0
  -24.0619  -29.7363   21.9996 C   0  0  0  0  0  0  0  0  0  0  0  0
  -25.2844  -14.1115   21.2949 C   0  0  1  0  0  0  0  0  0  0  0  0
  -26.9131  -17.1522   19.7028 C   0  0  1  0  0  0  0  0  0  0  0  0
  -24.6389  -29.4480   20.5984 C   0  0  2  0  0  0  0  0  0  0  0  0
  -19.2813  -25.1652   23.3342 C   0  0  0  0  0  0  0  0  0  0  0  0
  -21.9687  -31.1050   25.4369 C   0  0  0  0  0  0  0  0  0  0  0  0
  -32.6285  -22.3793   19.5784 C   0  0  0  0  0  0  0  0  0  0  0  0
  -19.3136  -30.0387   24.2414 C   0  0  0  0  0  0  0  0  0  0  0  0
  -19.3004  -30.8220   21.8764 C   0  0  0  0  0  0  0  0  0  0  0  0
  -29.9044  -17.5512   23.2033 C   0  0  0  0  0  0  0  0  0  0  0  0
  -31.5035  -19.4709   23.0422 C   0  0  0  0  0  0  0  0  0  0  0  0
  -31.8087  -17.4700   21.5841 C   0  0  0  0  0  0  0  0  0  0  0  0
  -29.4957  -22.3869   17.4194 C   0  0  0  0  0  0  0  0  0  0  0  0
  -20.6731  -24.6914   20.7872 C   0  0  0  0  0  0  0  0  0  0  0  0
  -21.7577  -23.8668   21.4838 C   0  0  0  0  0  0  0  0  0  0  0  0
  -22.0750  -30.0942   24.3130 C   0  0  0  0  0  0  0  0  0  0  0  0
  -21.8590  -22.4384   20.9615 C   0  0  0  0  0  0  0  0  0  1  0  0
  -29.9066  -19.0678   21.1138 C   0  0  1  0  0  0  0  0  0  0  0  0
  -31.3962  -21.7774   18.9211 C   0  0  2  0  0  0  0  0  0  0  0  0
  -20.0715  -29.9207   22.8838 C   0  0  0  0  0  0  0  0  0  0  0  0
  -30.7531  -18.3936   22.2302 C   0  0  0  0  0  0  0  0  0  0  0  0
  -21.0309  -27.0911   20.6342 N   0  0  0  0  0  0  0  0  0  0  0  0
  -25.9477  -27.6332   21.6361 N   0  0  0  0  0  0  0  0  0  0  0  0
  -19.7005  -27.5294   23.0639 N   0  0  0  0  0  0  0  0  0  0  0  0
  -25.3234  -28.0947   20.5391 N   0  0  0  0  0  0  0  0  0  0  0  0
  -27.7323  -18.2057   20.3056 N   0  0  0  0  0  0  0  0  0  0  0  0
  -23.4466  -31.0718   22.0417 N   0  0  0  0  0  0  0  0  0  0  0  0
  -24.8148  -27.5582   18.2888 N   0  0  0  0  0  0  0  0  0  0  0  0
  -25.5404  -23.9256   19.1081 N   0  0  0  0  0  0  0  0  0  0  0  0
  -25.7752  -15.1302   20.3917 N   0  0  0  0  0  0  0  0  0  0  0  0
  -30.6876  -19.8500   20.1618 N   0  0  0  0  0  0  0  0  0  0  0  0
  -21.3738  -30.5418   23.1181 N   0  0  0  0  0  0  0  0  0  0  0  0
  -30.7126  -22.8452   18.1378 N   0  3  0  0  0  0  0  0  0  0  0  0
  -27.4907  -24.9306   18.4410 O   0  0  0  0  0  0  0  0  0  0  0  0
  -26.8321  -16.4824   21.9655 O   0  0  0  0  0  0  0  0  0  0  0  0
  -29.7343  -17.1932   19.6706 O   0  0  0  0  0  0  0  0  0  0  0  0
  -29.5879  -21.8597   20.5212 O   0  0  0  0  0  0  0  0  0  0  0  0
  -21.4881  -32.1376   21.4600 O   0  0  0  0  0  0  0  0  0  0  0  0
  -29.3306  -23.2584   24.7926 O   0  0  0  0  0  0  0  0  0  0  0  0
  -22.8811  -21.7566   21.6874 O   0  0  0  0  0  0  0  0  0  1  0  0
  -26.8025  -18.8409   26.9135 F   0  0  0  0  0  0  0  0  0  0  0  0
  -28.9897  -22.9942   27.5233 F   0  0  0  0  0  0  0  0  0  0  0  0
  1  2  1  0  0  0  0
  1  5  2  0  0  0  0
  2  6  2  0  0  0  0
  3  8  2  0  0  0  0
  3 16  1  0  0  0  0
  4  9  1  0  0  0  0
  4 16  2  0  0  0  0
  5 18  1  0  0  0  0
  6 20  1  0  0  0  0
  7 10  2  0  0  0  0
  7 19  1  0  0  0  0
  8 22  1  0  0  0  0
  9 22  2  0  0  0  0
 10 23  1  0  0  0  0
 11 12  2  0  0  0  0
 11 24  1  0  0  0  0
 12 25  1  0  0  0  0
 13 21  1  0  0  0  0
 13 23  2  0  0  0  0
 14 25  2  0  0  0  0
 14 26  1  0  0  0  0
 15 28  1  0  0  0  0
 15 66  2  0  0  0  0
 16 27  1  0  0  0  0
 17 27  1  0  0  0  0
 17 31  2  0  0  0  0
 17 32  1  0  0  0  0
 18 20  2  0  0  0  0
 18 37  1  0  0  0  0
 19 21  2  0  0  0  0
 19 38  1  0  0  0  0
 20 46  1  0  0  0  0
 21 39  1  0  0  0  0
 22 83  1  0  0  0  0
 23 84  1  0  0  0  0
 24 26  2  0  0  0  0
 24 83  1  0  0  0  0
 25 85  1  0  0  0  0
 26 86  1  0  0  0  0
 27 67  2  0  0  0  0
 28 64  1  0  0  0  0
 28 68  2  0  0  0  0
 29 30  2  0  0  0  0
 29 49  1  0  0  0  0
 29 68  1  0  0  0  0
 30 58  1  0  0  0  0
 30 66  1  0  0  0  0
 31 69  1  0  0  0  0
 31 72  1  0  0  0  0
 32 73  1  0  0  0  0
 32 78  2  0  0  0  0
 33 47  1  0  0  0  0
 33 74  1  0  0  0  0
 33 79  2  0  0  0  0
 34 62  1  0  0  0  0
 34 70  1  0  0  0  0
 34 80  2  0  0  0  0
 35 63  1  0  0  0  0
 35 75  1  0  0  0  0
 35 81  2  0  0  0  0
 36 71  1  0  0  0  0
 36 76  1  0  0  0  0
 36 82  2  0  0  0  0
 37 40  1  0  0  0  0
 38 47  1  0  0  0  0
 39 70  1  0  0  0  0
 40 42  1  0  0  0  0
 41 43  1  0  0  0  0
 41 44  1  0  0  0  0
 42 46  1  0  0  0  0
 43 48  1  0  0  0  0
 44 71  1  0  0  0  0
 45 48  1  0  0  0  0
 45 71  1  0  0  0  0
 46 74  1  0  0  0  0
 47 70  1  0  0  0  0
 48 69  1  0  0  0  0
 50 60  1  0  0  0  0
 51 63  1  0  0  0  0
 52 64  1  0  0  0  0
 53 64  1  0  0  0  0
 54 65  1  0  0  0  0
 55 65  1  0  0  0  0
 56 65  1  0  0  0  0
 57 77  1  0  0  0  0
 58 59  1  0  0  0  0
 59 61  1  0  0  0  0
 60 76  1  0  0  0  0
 61 84  1  0  0  0  0
 62 65  1  0  0  0  0
 62 75  1  0  0  0  0
 63 77  1  0  0  0  0
 64 76  1  0  0  0  0
 67 69  1  0  0  0  0
M  CHG  1  77   1
M  ISO  4  36 100  61 101  76 100  84 101
M  END
> <Batch ID>
0063

> <Smiles>
CC[100N:0]([100C:0](=O)N1CCCC(n2nc(-c3ccc(Oc4ccc(F)cc4F)cc3)c(C(N)=O)c2N)C1)C(C)(C)c1cnc(CC[101CH2:1][101O:1]c2ccc3c(c2)CN(C(=O)C(NC(=O)C(C)NC)C(C)(C)C)C(C(=O)NC2CCCc4ccccc42)C3)c(C)n1

> <Shape>
0.220

> <Color>
0.066

> <Negative vol penalty>
0.000

$$$$

  -OEChem-04052318023D

 88 96  0     1  0  0  0  0  0999 V2000
  -18.6111  -25.3339   22.4873 C   0  0  0  0  0  0  0  0  0  0  0  0
  -19.5896  -25.5844   21.5306 C   0  0  0  0  0  0  0  0  0  0  0  0
  -27.9928  -17.5864   19.3831 C   0  0  0  0  0  0  0  0  0  0  0  0
  -26.1453  -17.6165   20.9397 C   0  0  0  0  0  0  0  0  0  0  0  0
  -18.0878  -26.3849   23.2393 C   0  0  0  0  0  0  0  0  0  0  0  0
  -20.0446  -26.8863   21.3246 C   0  0  0  0  0  0  0  0  0  0  0  0
  -25.0884  -27.1453   20.9533 C   0  0  0  0  0  0  0  0  0  0  0  0
  -28.1323  -16.2120   19.5753 C   0  0  0  0  0  0  0  0  0  0  0  0
  -26.2848  -16.2420   21.1319 C   0  0  0  0  0  0  0  0  0  0  0  0
  -25.6581  -26.7619   19.7399 C   0  0  0  0  0  0  0  0  0  0  0  0
  -25.4475  -13.4030   19.5011 C   0  0  0  0  0  0  0  0  0  0  0  0
  -24.2876  -12.6282   19.4949 C   0  0  0  0  0  0  0  0  0  0  0  0
  -25.8625  -29.0815   19.1099 C   0  0  0  0  0  0  0  0  0  0  0  0
  -24.7593  -11.9039   21.7510 C   0  0  0  0  0  0  0  0  0  0  0  0
  -26.9993  -18.2887   20.0654 C   0  0  0  0  0  0  0  0  0  0  0  0
  -27.8174  -20.7043   20.1209 C   0  0  0  0  0  0  0  0  0  0  0  0
  -18.5436  -27.6990   23.0491 C   0  0  0  0  0  0  0  0  0  0  0  0
  -24.8912  -28.5016   21.2500 C   0  0  0  0  0  0  0  0  0  0  0  0
  -19.5260  -27.9560   22.0739 C   0  0  0  0  0  0  0  0  0  0  0  0
  -25.2925  -29.4796   20.3288 C   0  0  0  0  0  0  0  0  0  0  0  0
  -27.2784  -15.5397   20.4496 C   0  0  0  0  0  0  0  0  0  0  0  0
  -26.0426  -27.7300   18.8168 C   0  0  0  0  0  0  0  0  0  0  0  0
  -26.2633  -13.4282   20.6322 C   0  0  0  0  0  0  0  0  0  0  0  0
  -23.9435  -11.8787   20.6198 C   0  0  0  0  0  0  0  0  0  0  0  0
  -25.9192  -12.6787   21.7572 C   0  0  0  0  0  0  0  0  0  0  0  0
  -26.8549  -19.7087   19.8678 C   0  0  0  0  0  0  0  0  0  0  0  0
  -27.1963  -21.8788   19.7725 C   0  0  0  0  0  0  0  0  0  0  0  0
  -26.7114  -20.3722   14.3247 C   0  0  0  0  0  0  0  0  0  0  0  0
  -25.7457  -22.1491   14.8418 C   0  0  0  0  0  0  0  0  0  0  0  0
  -29.1534  -20.5788   20.6258 C   0  0  0  0  0  0  0  0  0  0  0  0
  -22.3535  -30.3230   21.8386 C   0  0  0  0  0  0  0  0  0  0  0  0
  -24.6020  -32.5753   22.4662 C   0  0  0  0  0  0  0  0  0  0  0  0
  -27.7864  -33.7037   21.9828 C   0  0  0  0  0  0  0  0  0  0  0  0
  -22.4411  -22.6964   15.9966 C   0  0  0  0  0  0  0  0  0  0  0  0
  -17.9141  -28.8091   23.8529 C   0  0  0  0  0  0  0  0  0  0  0  0
  -24.3000  -28.8997   22.5746 C   0  0  0  0  0  0  0  0  0  0  0  0
  -25.1210  -30.9497   20.6078 C   0  0  0  0  0  0  0  0  0  0  0  0
  -18.7189  -30.1061   23.8346 C   0  0  0  0  0  0  0  0  0  0  0  0
  -22.8753  -23.8971   19.4710 C   0  0  0  0  0  0  0  0  0  0  0  0
  -19.1538  -30.4445   22.4123 C   0  0  0  0  0  0  0  0  0  0  0  0
  -23.9818  -22.9872   20.0019 C   0  0  0  0  0  0  0  0  0  0  0  0
  -22.0565  -23.2161   18.3785 C   0  0  0  0  0  0  0  0  0  0  0  0
  -23.9808  -21.7825   17.7818 C   0  0  0  0  0  0  0  0  0  0  0  0
  -20.0631  -29.3511   21.8385 C   0  0  1  0  0  0  0  0  0  0  0  0
  -23.6737  -30.2906   22.5555 C   0  0  1  0  0  0  0  0  0  0  0  0
  -24.8540  -22.4554   18.8514 C   0  0  2  0  0  0  0  0  0  0  0  0
  -29.8160  -35.1481   22.2856 C   0  0  0  0  0  0  0  0  0  0  0  0
  -30.3743  -25.2311   15.2877 C   0  0  0  0  0  0  0  0  0  0  0  0
  -23.1622  -34.3872   20.4778 C   0  0  0  0  0  0  0  0  0  0  0  0
  -25.2089  -35.8277   20.4148 C   0  0  0  0  0  0  0  0  0  0  0  0
  -23.9556  -35.5372   22.5520 C   0  0  0  0  0  0  0  0  0  0  0  0
  -22.9556  -22.8556   13.5904 C   0  0  0  0  0  0  0  0  0  0  0  0
  -28.7765  -32.0435   24.2239 C   0  0  0  0  0  0  0  0  0  0  0  0
  -24.7883  -23.2099   15.2032 C   0  0  0  0  0  0  0  0  0  0  0  0
  -28.5853  -23.7136   16.1890 C   0  0  0  0  0  0  0  0  0  0  0  0
  -28.4566  -26.2720   16.5776 C   0  0  0  0  0  0  0  0  0  0  0  0
  -27.8382  -23.6633   14.8524 C   0  0  0  0  0  0  0  0  0  0  0  0
  -27.3497  -26.1454   17.6182 C   0  0  0  0  0  0  0  0  0  1  0  0
  -25.3296  -33.6162   21.6499 C   0  0  1  0  0  0  0  0  0  0  0  0
  -28.8395  -34.1963   22.9589 C   0  0  2  0  0  0  0  0  0  0  0  0
  -29.3538  -25.0309   16.4134 C   0  0  2  0  0  0  0  0  0  0  0  0
  -26.9127  -18.9564   13.9948 C   0  0  0  0  0  0  0  0  0  0  0  0
  -24.4156  -34.8144   21.2672 C   0  0  0  0  0  0  0  0  0  0  0  0
  -25.7094  -20.2071   19.3952 N   0  0  0  0  0  0  0  0  0  0  0  0
  -25.4790  -20.8838   14.6152 N   0  0  0  0  0  0  0  0  0  0  0  0
  -27.7237  -21.2414   14.3575 N   0  0  0  0  0  0  0  0  0  0  0  0
  -25.9480  -21.5288   19.3487 N   0  0  0  0  0  0  0  0  0  0  0  0
  -27.0791  -22.3700   14.6906 N   0  0  0  0  0  0  0  0  0  0  0  0
  -24.5324  -31.2884   21.9141 N   0  0  0  0  0  0  0  0  0  0  0  0
  -22.9133  -22.6821   17.3193 N   0  0  0  0  0  0  0  0  0  0  0  0
  -27.6015  -23.1664   19.7905 N   0  0  0  0  0  0  0  0  0  0  0  0
  -29.3521  -20.6375   22.0120 N   0  0  0  0  0  0  0  0  0  0  0  0
  -21.4022  -29.4753   22.3732 N   0  0  0  0  0  0  0  0  0  0  0  0
  -26.5105  -33.9880   22.4216 N   0  0  0  0  0  0  0  0  0  0  0  0
  -23.3971  -22.8241   14.9775 N   0  0  0  0  0  0  0  0  0  0  0  0
  -29.6098  -33.0473   23.5133 N   0  3  0  0  0  0  0  0  0  0  0  0
  -30.1437  -20.4359   19.8692 O   0  0  0  0  0  0  0  0  0  0  0  0
  -22.2084  -31.0634   20.8730 O   0  0  0  0  0  0  0  0  0  0  0  0
  -24.1197  -32.8907   23.5568 O   0  0  0  0  0  0  0  0  0  0  0  0
  -28.0676  -33.1278   20.9341 O   0  0  0  0  0  0  0  0  0  0  0  0
  -21.2330  -22.6102   15.7415 O   0  0  0  0  0  0  0  0  0  0  0  0
  -27.4141  -14.1985   20.6372 O   0  0  0  0  0  0  0  0  0  0  0  0
  -26.5982  -27.3585   17.6314 O   0  0  0  0  0  0  0  0  0  1  0  0
  -22.8289  -11.1360   20.6142 F   0  0  0  0  0  0  0  0  0  0  0  0
  -26.6984  -12.6999   22.8473 F   0  0  0  0  0  0  0  0  0  0  0  0
  -25.7643  -18.1989   14.0037 F   0  0  0  0  0  0  0  0  0  0  0  0
  -27.4513  -18.7319   12.7491 F   0  0  0  0  0  0  0  0  0  0  0  0
  -27.7607  -18.3066   14.8592 F   0  0  0  0  0  0  0  0  0  0  0  0
  1  2  1  0  0  0  0
  1  5  2  0  0  0  0
  2  6  2  0  0  0  0
  3  8  2  0  0  0  0
  3 15  1  0  0  0  0
  4  9  1  0  0  0  0
  4 15  2  0  0  0  0
  5 17  1  0  0  0  0
  6 19  1  0  0  0  0
  7 10  2  0  0  0  0
  7 18  1  0  0  0  0
  8 21  1  0  0  0  0
  9 21  2  0  0  0  0
 10 22  1  0  0  0  0
 11 12  2  0  0  0  0
 11 23  1  0  0  0  0
 12 24  1  0  0  0  0
 13 20  1  0  0  0  0
 13 22  2  0  0  0  0
 14 24  2  0  0  0  0
 14 25  1  0  0  0  0
 15 26  1  0  0  0  0
 16 26  1  0  0  0  0
 16 27  2  0  0  0  0
 16 30  1  0  0  0  0
 17 19  2  0  0  0  0
 17 35  1  0  0  0  0
 18 20  2  0  0  0  0
 18 36  1  0  0  0  0
 19 44  1  0  0  0  0
 20 37  1  0  0  0  0
 21 82  1  0  0  0  0
 22 83  1  0  0  0  0
 23 25  2  0  0  0  0
 23 82  1  0  0  0  0
 24 84  1  0  0  0  0
 25 85  1  0  0  0  0
 26 64  2  0  0  0  0
 27 67  1  0  0  0  0
 27 71  1  0  0  0  0
 28 62  1  0  0  0  0
 28 65  1  0  0  0  0
 28 66  2  0  0  0  0
 29 54  1  0  0  0  0
 29 65  2  0  0  0  0
 29 68  1  0  0  0  0
 30 72  1  0  0  0  0
 30 77  2  0  0  0  0
 31 45  1  0  0  0  0
 31 73  1  0  0  0  0
 31 78  2  0  0  0  0
 32 59  1  0  0  0  0
 32 69  1  0  0  0  0
 32 79  2  0  0  0  0
 33 60  1  0  0  0  0
 33 74  1  0  0  0  0
 33 80  2  0  0  0  0
 34 70  1  0  0  0  0
 34 75  1  0  0  0  0
 34 81  2  0  0  0  0
 35 38  1  0  0  0  0
 36 45  1  0  0  0  0
 37 69  1  0  0  0  0
 38 40  1  0  0  0  0
 39 41  1  0  0  0  0
 39 42  1  0  0  0  0
 40 44  1  0  0  0  0
 41 46  1  0  0  0  0
 42 70  1  0  0  0  0
 43 46  1  0  0  0  0
 43 70  1  0  0  0  0
 44 73  1  0  0  0  0
 45 69  1  0  0  0  0
 46 67  1  0  0  0  0
 47 60  1  0  0  0  0
 48 61  1  0  0  0  0
 49 63  1  0  0  0  0
 50 63  1  0  0  0  0
 51 63  1  0  0  0  0
 52 75  1  0  0  0  0
 53 76  1  0  0  0  0
 54 75  1  0  0  0  0
 55 57  1  0  0  0  0
 55 61  1  0  0  0  0
 56 58  1  0  0  0  0
 56 61  1  0  0  0  0
 57 68  1  0  0  0  0
 58 83  1  0  0  0  0
 59 63  1  0  0  0  0
 59 74  1  0  0  0  0
 60 76  1  0  0  0  0
 62 86  1  0  0  0  0
 62 87  1  0  0  0  0
 62 88  1  0  0  0  0
 64 67  1  0  0  0  0
 66 68  1  0  0  0  0
M  CHG  1  76   1
M  ISO  4  34 100  58 101  75 100  83 101
M  END
> <Batch ID>
0063

> <Smiles>
CNC(C)C(=O)NC(C(=O)N1Cc2cc([101O:1][101CH2:1]CC(C)CCn3nc(C(F)(F)F)nc3C[100N:0](C)[100C:0](=O)N3CCCC(n4nc(-c5ccc(Oc6ccc(F)cc6F)cc5)c(C(N)=O)c4N)C3)ccc2CC1C(=O)NC1CCCc2ccccc21)C(C)(C)C

> <Shape>
0.218

> <Color>
0.097

> <Negative vol penalty>
0.000

$$$$

  -OEChem-04052318023D

 89 98  0     1  0  0  0  0  0999 V2000
  -32.1015  -32.6720   22.5709 C   0  0  0  0  0  0  0  0  0  0  0  0
  -31.8208  -31.3542   22.9172 C   0  0  0  0  0  0  0  0  0  0  0  0
  -23.0242  -10.1855   21.9073 C   0  0  0  0  0  0  0  0  0  0  0  0
  -24.5719  -10.6590   23.7010 C   0  0  0  0  0  0  0  0  0  0  0  0
  -31.1790  -33.6780   22.8556 C   0  0  0  0  0  0  0  0  0  0  0  0
  -30.6179  -31.0417   23.5494 C   0  0  0  0  0  0  0  0  0  0  0  0
  -27.3117  -25.9337   22.8539 C   0  0  0  0  0  0  0  0  0  0  0  0
  -22.3846   -9.2400   22.7088 C   0  0  0  0  0  0  0  0  0  0  0  0
  -23.9323   -9.7134   24.5025 C   0  0  0  0  0  0  0  0  0  0  0  0
  -27.2167  -24.7674   23.6118 C   0  0  0  0  0  0  0  0  0  0  0  0
  -22.9091   -6.0512   23.6994 C   0  0  0  0  0  0  0  0  0  0  0  0
  -22.5915   -4.8218   23.1221 C   0  0  0  0  0  0  0  0  0  0  0  0
  -25.2714  -25.6576   24.7265 C   0  0  0  0  0  0  0  0  0  0  0  0
  -20.2514   -5.2115   23.5793 C   0  0  0  0  0  0  0  0  0  0  0  0
  -24.1179  -10.8950   22.4034 C   0  0  0  0  0  0  0  0  0  0  0  0
  -24.2120  -13.0266   21.0051 C   0  0  0  0  0  0  0  0  0  0  0  0
  -29.9600  -33.3763   23.4829 C   0  0  0  0  0  0  0  0  0  0  0  0
  -26.3922  -26.9769   23.0346 C   0  0  0  0  0  0  0  0  0  0  0  0
  -29.6788  -32.0448   23.8440 C   0  0  0  0  0  0  0  0  0  0  0  0
  -25.3554  -26.8350   23.9678 C   0  0  0  0  0  0  0  0  0  0  0  0
  -22.8386   -9.0039   24.0064 C   0  0  0  0  0  0  0  0  0  0  0  0
  -26.1982  -24.6304   24.5504 C   0  0  0  0  0  0  0  0  0  0  0  0
  -21.8978   -6.8608   24.2167 C   0  0  0  0  0  0  0  0  0  0  0  0
  -21.2627   -4.4020   23.0620 C   0  0  0  0  0  0  0  0  0  0  0  0
  -20.5689   -6.4410   24.1566 C   0  0  0  0  0  0  0  0  0  0  0  0
  -24.7794  -11.8715   21.5758 C   0  0  0  0  0  0  0  0  0  0  0  0
  -25.2457  -13.6125   20.3161 C   0  0  0  0  0  0  0  0  0  0  0  0
  -28.7383  -18.4385   24.8652 C   0  0  0  0  0  0  0  0  0  0  0  0
  -30.2913  -17.2489   24.1368 C   0  0  0  0  0  0  0  0  0  0  0  0
  -22.8705  -13.5254   21.0903 C   0  0  0  0  0  0  0  0  0  0  0  0
  -26.5957  -30.0114   23.9587 C   0  0  0  0  0  0  0  0  0  0  0  0
  -23.4481  -30.0542   23.1759 C   0  0  0  0  0  0  0  0  0  0  0  0
  -20.5517  -28.3075   22.7212 C   0  0  0  0  0  0  0  0  0  0  0  0
  -30.8616  -14.5181   20.5585 C   0  0  0  0  0  0  0  0  0  0  0  0
  -29.0147  -34.5042   23.8129 C   0  0  0  0  0  0  0  0  0  0  0  0
  -26.4925  -28.2176   22.1902 C   0  0  0  0  0  0  0  0  0  0  0  0
  -24.3309  -27.9173   24.1856 C   0  0  0  0  0  0  0  0  0  0  0  0
  -27.6007  -34.0359   24.1472 C   0  0  0  0  0  0  0  0  0  0  0  0
  -29.5587  -12.0553   18.4938 C   0  0  0  0  0  0  0  0  0  0  0  0
  -27.6432  -32.8632   25.1217 C   0  0  0  0  0  0  0  0  0  0  0  0
  -27.5467  -20.3731   23.7478 C   0  0  0  0  0  0  0  0  0  0  0  0
  -28.2861  -20.5616   26.1679 C   0  0  0  0  0  0  0  0  0  0  0  0
  -28.1351  -11.8564   19.0122 C   0  0  0  0  0  0  0  0  0  0  0  0
  -26.5905  -21.5448   23.9554 C   0  0  0  0  0  0  0  0  0  0  0  0
  -27.3256  -21.7319   26.3630 C   0  0  0  0  0  0  0  0  0  0  0  0
  -30.5374  -12.2397   19.6474 C   0  0  0  0  0  0  0  0  0  0  0  0
  -28.7635  -13.1898   21.0867 C   0  0  0  0  0  0  0  0  0  0  0  0
  -28.3740  -31.6625   24.5085 C   0  0  1  0  0  0  0  0  0  0  0  0
  -27.7947  -19.6109   25.0618 C   0  0  0  0  0  0  0  0  0  0  0  0
  -25.8080  -29.4265   22.8207 C   0  0  1  0  0  0  0  0  0  0  0  0
  -27.7286  -12.9992   19.9589 C   0  0  2  0  0  0  0  0  0  0  0  0
  -27.0790  -22.4835   25.0571 C   0  0  0  0  0  0  0  0  0  1  0  0
  -26.6579  -15.9371   26.1158 C   0  0  0  0  0  0  0  0  0  0  0  0
  -18.1358  -28.6214   22.1194 C   0  0  0  0  0  0  0  0  0  0  0  0
  -31.8949  -15.2430   23.8182 C   0  0  0  0  0  0  0  0  0  0  0  0
  -32.7328  -17.5727   23.6553 C   0  0  0  0  0  0  0  0  0  0  0  0
  -22.8962  -31.1460   25.9711 C   0  0  0  0  0  0  0  0  0  0  0  0
  -20.4865  -30.5448   25.6544 C   0  0  0  0  0  0  0  0  0  0  0  0
  -21.5606  -32.2193   24.1495 C   0  0  0  0  0  0  0  0  0  0  0  0
  -29.0006  -15.6427   21.7203 C   0  0  0  0  0  0  0  0  0  0  0  0
  -20.8064  -26.5931   20.3222 C   0  0  0  0  0  0  0  0  0  0  0  0
  -27.7117  -16.9032   26.6293 C   0  0  0  0  0  0  0  0  0  0  0  0
  -31.2436  -16.6623   21.8475 C   0  0  0  0  0  0  0  0  0  0  0  0
  -22.1596  -29.7747   23.9112 C   0  0  1  0  0  0  0  0  0  0  0  0
  -19.5322  -28.3227   21.5965 C   0  0  2  0  0  0  0  0  0  0  0  0
  -31.4399  -16.7048   23.4181 C   0  0  0  0  0  0  0  0  0  0  0  0
  -21.7960  -30.9014   24.9191 C   0  0  0  0  0  0  0  0  0  0  0  0
  -26.0732  -11.7302   21.2753 N   0  0  0  0  0  0  0  0  0  0  0  0
  -29.7583  -18.4351   23.9572 N   0  0  0  0  0  0  0  0  0  0  0  0
  -29.6119  -16.5845   25.1098 N   0  0  0  0  0  0  0  0  0  0  0  0
  -26.3272  -12.8040   20.5082 N   0  0  0  0  0  0  0  0  0  0  0  0
  -28.6068  -17.3289   25.5953 N   0  0  0  0  0  0  0  0  0  0  0  0
  -24.4751  -29.1140   23.3402 N   0  0  0  0  0  0  0  0  0  0  0  0
  -30.1175  -13.3293   20.5290 N   0  0  0  0  0  0  0  0  0  0  0  0
  -25.3259  -14.7351   19.5707 N   0  0  0  0  0  0  0  0  0  0  0  0
  -21.9343  -12.8000   21.8396 N   0  0  0  0  0  0  0  0  0  0  0  0
  -27.5130  -30.9704   23.5736 N   0  0  0  0  0  0  0  0  0  0  0  0
  -21.1477  -29.5398   22.8869 N   0  0  0  0  0  0  0  0  0  0  0  0
  -30.4222  -15.5287   21.4269 N   0  0  0  0  0  0  0  0  0  0  0  0
  -19.5030  -27.0023   20.9060 N   0  3  0  0  0  0  0  0  0  0  0  0
  -22.5086  -14.5744   20.5053 O   0  0  0  0  0  0  0  0  0  0  0  0
  -26.3857  -29.6227   25.1017 O   0  0  0  0  0  0  0  0  0  0  0  0
  -23.5374  -31.0657   22.4755 O   0  0  0  0  0  0  0  0  0  0  0  0
  -20.7924  -27.3039   23.3885 O   0  0  0  0  0  0  0  0  0  0  0  0
  -31.8683  -14.6669   19.8537 O   0  0  0  0  0  0  0  0  0  0  0  0
  -22.2146   -8.0815   24.7888 O   0  0  0  0  0  0  0  0  0  0  0  0
  -26.1035  -23.4933   25.2920 O   0  0  0  0  0  0  0  0  0  1  0  0
  -20.9578   -3.2220   22.5062 F   0  0  0  0  0  0  0  0  0  0  0  0
  -19.5930   -7.2149   24.6508 F   0  0  0  0  0  0  0  0  0  0  0  0
  1  2  1  0  0  0  0
  1  5  2  0  0  0  0
  2  6  2  0  0  0  0
  3  8  2  0  0  0  0
  3 15  1  0  0  0  0
  4  9  1  0  0  0  0
  4 15  2  0  0  0  0
  5 17  1  0  0  0  0
  6 19  1  0  0  0  0
  7 10  2  0  0  0  0
  7 18  1  0  0  0  0
  8 21  1  0  0  0  0
  9 21  2  0  0  0  0
 10 22  1  0  0  0  0
 11 12  2  0  0  0  0
 11 23  1  0  0  0  0
 12 24  1  0  0  0  0
 13 20  1  0  0  0  0
 13 22  2  0  0  0  0
 14 24  2  0  0  0  0
 14 25  1  0  0  0  0
 15 26  1  0  0  0  0
 16 26  1  0  0  0  0
 16 27  2  0  0  0  0
 16 30  1  0  0  0  0
 17 19  2  0  0  0  0
 17 35  1  0  0  0  0
 18 20  2  0  0  0  0
 18 36  1  0  0  0  0
 19 48  1  0  0  0  0
 20 37  1  0  0  0  0
 21 86  1  0  0  0  0
 22 87  1  0  0  0  0
 23 25  2  0  0  0  0
 23 86  1  0  0  0  0
 24 88  1  0  0  0  0
 25 89  1  0  0  0  0
 26 68  2  0  0  0  0
 27 71  1  0  0  0  0
 27 75  1  0  0  0  0
 28 49  1  0  0  0  0
 28 69  2  0  0  0  0
 28 72  1  0  0  0  0
 29 66  1  0  0  0  0
 29 69  1  0  0  0  0
 29 70  2  0  0  0  0
 30 76  1  0  0  0  0
 30 81  2  0  0  0  0
 31 50  1  0  0  0  0
 31 77  1  0  0  0  0
 31 82  2  0  0  0  0
 32 64  1  0  0  0  0
 32 73  1  0  0  0  0
 32 83  2  0  0  0  0
 33 65  1  0  0  0  0
 33 78  1  0  0  0  0
 33 84  2  0  0  0  0
 34 74  1  0  0  0  0
 34 79  1  0  0  0  0
 34 85  2  0  0  0  0
 35 38  1  0  0  0  0
 36 50  1  0  0  0  0
 37 73  1  0  0  0  0
 38 40  1  0  0  0  0
 39 43  1  0  0  0  0
 39 46  1  0  0  0  0
 40 48  1  0  0  0  0
 41 44  1  0  0  0  0
 41 49  1  0  0  0  0
 42 45  1  0  0  0  0
 42 49  1  0  0  0  0
 43 51  1  0  0  0  0
 44 52  1  0  0  0  0
 45 52  1  0  0  0  0
 46 74  1  0  0  0  0
 47 51  1  0  0  0  0
 47 74  1  0  0  0  0
 48 77  1  0  0  0  0
 50 73  1  0  0  0  0
 51 71  1  0  0  0  0
 52 87  1  0  0  0  0
 53 62  1  0  0  0  0
 54 65  1  0  0  0  0
 55 66  1  0  0  0  0
 56 66  1  0  0  0  0
 57 67  1  0  0  0  0
 58 67  1  0  0  0  0
 59 67  1  0  0  0  0
 60 79  1  0  0  0  0
 61 80  1  0  0  0  0
 62 72  1  0  0  0  0
 63 66  1  0  0  0  0
 63 79  1  0  0  0  0
 64 67  1  0  0  0  0
 64 78  1  0  0  0  0
 65 80  1  0  0  0  0
 68 71  1  0  0  0  0
 70 72  1  0  0  0  0
M  CHG  1  80   1
M  ISO  4  34 100  52 101  79 100  87 101
M  END
> <Batch ID>
0063

> <Smiles>
CCn1nc(C(C)(C)C[100N:0](C)[100C:0](=O)N2CCCC(n3nc(-c4ccc(Oc5ccc(F)cc5F)cc4)c(C(N)=O)c3N)C2)nc1C1CC[101CH:1]([101O:1]c2ccc3c(c2)CN(C(=O)C(NC(=O)C(C)NC)C(C)(C)C)C(C(=O)NC2CCCc4ccccc42)C3)CC1

> <Shape>
0.254

> <Color>
0.157

> <Negative vol penalty>
0.000

$$$$

  -OEChem-04052318023D

 89 97  0     1  0  0  0  0  0999 V2000
  -23.7141  -18.3428   11.7664 C   0  0  0  0  0  0  0  0  0  0  0  0
  -24.3080  -17.7303   12.8652 C   0  0  0  0  0  0  0  0  0  0  0  0
  -24.4032  -29.2840   22.4690 C   0  0  0  0  0  0  0  0  0  0  0  0
  -25.2646  -31.0335   21.0428 C   0  0  0  0  0  0  0  0  0  0  0  0
  -23.2101  -19.6379   11.8796 C   0  0  0  0  0  0  0  0  0  0  0  0
  -24.3994  -18.4130   14.0777 C   0  0  0  0  0  0  0  0  0  0  0  0
  -23.1170  -15.5248   18.0348 C   0  0  0  0  0  0  0  0  0  0  0  0
  -23.8580  -30.2457   23.3196 C   0  0  0  0  0  0  0  0  0  0  0  0
  -24.7194  -31.9953   21.8933 C   0  0  0  0  0  0  0  0  0  0  0  0
  -24.0648  -14.6082   18.4878 C   0  0  0  0  0  0  0  0  0  0  0  0
  -23.8639  -34.9164   23.8796 C   0  0  0  0  0  0  0  0  0  0  0  0
  -24.6622  -36.0084   24.2197 C   0  0  0  0  0  0  0  0  0  0  0  0
  -24.6736  -16.1240   20.2629 C   0  0  0  0  0  0  0  0  0  0  0  0
  -26.2877  -34.5145   25.2011 C   0  0  0  0  0  0  0  0  0  0  0  0
  -27.7687  -19.3788   18.0292 C   0  0  0  0  0  0  0  0  0  0  0  0
  -25.1065  -29.6779   21.3306 C   0  0  0  0  0  0  0  0  0  0  0  0
  -25.0509  -28.0836   19.3400 C   0  0  0  0  0  0  0  0  0  0  0  0
  -23.2867  -20.3332   13.0967 C   0  0  0  0  0  0  0  0  0  0  0  0
  -22.9476  -16.7546   18.6870 C   0  0  0  0  0  0  0  0  0  0  0  0
  -23.8972  -19.7191   14.2069 C   0  0  0  0  0  0  0  0  0  0  0  0
  -23.7211  -17.0534   19.8178 C   0  0  0  0  0  0  0  0  0  0  0  0
  -28.2861  -18.5253   18.9822 C   0  0  0  0  0  0  0  0  0  0  0  0
  -24.0161  -31.6014   23.0317 C   0  0  0  0  0  0  0  0  0  0  0  0
  -24.8453  -14.9089   19.6002 C   0  0  0  0  0  0  0  0  0  0  0  0
  -24.2774  -33.6234   24.2003 C   0  0  0  0  0  0  0  0  0  0  0  0
  -25.8742  -35.8075   24.8804 C   0  0  0  0  0  0  0  0  0  0  0  0
  -25.4893  -33.4224   24.8610 C   0  0  0  0  0  0  0  0  0  0  0  0
  -25.6704  -28.6848   20.4520 C   0  0  0  0  0  0  0  0  0  0  0  0
  -29.0578  -19.1194   19.9598 C   0  0  0  0  0  0  0  0  0  0  0  0
  -25.9961  -27.2175   18.8470 C   0  0  0  0  0  0  0  0  0  0  0  0
  -28.7504  -21.1696   19.0274 C   0  0  0  0  0  0  0  0  0  0  0  0
  -23.7385  -28.2896   18.8008 C   0  0  0  0  0  0  0  0  0  0  0  0
  -23.2805  -19.8027   17.8491 C   0  0  0  0  0  0  0  0  0  0  0  0
  -22.0332  -20.3437   20.7942 C   0  0  0  0  0  0  0  0  0  0  0  0
  -21.4920  -19.2044   23.9653 C   0  0  0  0  0  0  0  0  0  0  0  0
  -29.7929  -23.1795   20.0610 C   0  0  0  0  0  0  0  0  0  0  0  0
  -22.7704  -21.7489   13.1576 C   0  0  0  0  0  0  0  0  0  0  0  0
  -21.9023  -17.7213   18.2020 C   0  0  0  0  0  0  0  0  0  0  0  0
  -23.5641  -18.3513   20.5656 C   0  0  0  0  0  0  0  0  0  0  0  0
  -22.5704  -22.2636   14.5808 C   0  0  0  0  0  0  0  0  0  0  0  0
  -30.8982  -26.6971   19.9393 C   0  0  0  0  0  0  0  0  0  0  0  0
  -23.7844  -21.9336   15.4434 C   0  0  0  0  0  0  0  0  0  0  0  0
  -29.5843  -27.4705   20.0377 C   0  0  0  0  0  0  0  0  0  0  0  0
  -30.8201  -25.3533   20.6577 C   0  0  0  0  0  0  0  0  0  0  0  0
  -28.3707  -25.2703   20.3058 C   0  0  0  0  0  0  0  0  0  0  0  0
  -23.9928  -20.4178   15.5458 C   0  0  1  0  0  0  0  0  0  0  0  0
  -22.1722  -19.1594   18.6337 C   0  0  1  0  0  0  0  0  0  0  0  0
  -28.4038  -26.6100   19.5549 C   0  0  1  0  0  0  0  0  0  0  0  0
  -30.2099  -19.1467   22.1865 C   0  0  0  0  0  0  0  0  0  0  0  0
  -30.5945  -13.9280   22.8151 C   0  0  0  0  0  0  0  0  0  0  0  0
  -20.4788  -19.8865   26.1575 C   0  0  0  0  0  0  0  0  0  0  0  0
  -24.4432  -22.1307   21.3494 C   0  0  0  0  0  0  0  0  0  0  0  0
  -23.8860  -22.0063   23.7871 C   0  0  0  0  0  0  0  0  0  0  0  0
  -22.2647  -23.0266   22.1893 C   0  0  0  0  0  0  0  0  0  0  0  0
  -28.6246  -23.3881   17.8790 C   0  0  0  0  0  0  0  0  0  0  0  0
  -19.5423  -16.9792   23.8888 C   0  0  0  0  0  0  0  0  0  0  0  0
  -28.0102  -17.0436   18.9353 C   0  0  0  0  0  0  0  0  0  0  0  0
  -29.6708  -18.2935   21.0422 C   0  0  0  0  0  0  0  0  0  0  0  0
  -29.3818  -14.0125   21.9024 C   0  0  0  0  0  0  0  0  0  0  0  0
  -29.1603  -16.2161   18.3463 C   0  0  0  0  0  0  0  0  0  0  0  0
  -29.7928  -13.9971   20.4388 C   0  0  0  0  0  0  0  0  0  0  0  0
  -28.8964  -14.7179   18.2302 C   0  0  0  0  0  0  0  0  0  0  0  0
  -27.8002  -12.8586   19.4719 C   0  0  0  0  0  0  0  0  0  0  0  0
  -26.3707  -13.1632   19.0695 C   0  0  0  0  0  0  0  0  0  1  0  0
  -22.6035  -20.5212   22.1806 C   0  0  1  0  0  0  0  0  0  0  0  0
  -20.2439  -19.1843   24.8291 C   0  0  2  0  0  0  0  0  0  0  0  0
  -23.3039  -21.8975   22.3616 C   0  0  0  0  0  0  0  0  0  0  0  0
  -27.9815  -20.7110   18.0214 N   0  0  0  0  0  0  0  0  0  0  0  0
  -26.9129  -28.2384   20.6540 N   0  0  0  0  0  0  0  0  0  0  0  0
  -29.3115  -20.4435   20.0130 N   0  0  0  0  0  0  0  0  0  0  0  0
  -27.0819  -27.3473   19.6622 N   0  0  0  0  0  0  0  0  0  0  0  0
  -22.5331  -19.2665   20.0488 N   0  0  0  0  0  0  0  0  0  0  0  0
  -29.6636  -24.5746   20.2132 N   0  0  0  0  0  0  0  0  0  0  0  0
  -25.9961  -26.3651   17.8002 N   0  0  0  0  0  0  0  0  0  0  0  0
  -22.8957  -29.2162   19.4296 N   0  0  0  0  0  0  0  0  0  0  0  0
  -23.0559  -19.8413   16.4861 N   0  0  0  0  0  0  0  0  0  0  0  0
  -21.5026  -20.2845   23.1083 N   0  0  0  0  0  0  0  0  0  0  0  0
  -29.0004  -22.5914   19.0516 N   0  0  0  0  0  0  0  0  0  0  0  0
  -19.8287  -17.7802   25.1068 N   0  3  0  0  0  0  0  0  0  0  0  0
  -28.5607  -14.1292   19.5782 N   0  3  1  0  0  0  0  0  0  0  0  0
  -23.3195  -27.6583   17.8010 O   0  0  0  0  0  0  0  0  0  0  0  0
  -24.2657  -20.2335   18.4368 O   0  0  0  0  0  0  0  0  0  0  0  0
  -21.1705  -21.1275   20.3902 O   0  0  0  0  0  0  0  0  0  0  0  0
  -22.3715  -18.3497   24.0456 O   0  0  0  0  0  0  0  0  0  0  0  0
  -30.5765  -22.5177   20.7522 O   0  0  0  0  0  0  0  0  0  0  0  0
  -23.4841  -32.5401   23.8613 O   0  0  0  0  0  0  0  0  0  0  0  0
  -25.7716  -14.0163   20.0441 O   0  0  0  0  0  0  0  0  0  1  0  0
  -26.6414  -36.8562   25.2055 F   0  0  0  0  0  0  0  0  0  0  0  0
  -25.8925  -32.1825   25.1707 F   0  0  0  0  0  0  0  0  0  0  0  0
  1  2  1  0  0  0  0
  1  5  2  0  0  0  0
  2  6  2  0  0  0  0
  3  8  2  0  0  0  0
  3 16  1  0  0  0  0
  4  9  1  0  0  0  0
  4 16  2  0  0  0  0
  5 18  1  0  0  0  0
  6 20  1  0  0  0  0
  7 10  2  0  0  0  0
  7 19  1  0  0  0  0
  8 23  1  0  0  0  0
  9 23  2  0  0  0  0
 10 24  1  0  0  0  0
 11 12  2  0  0  0  0
 11 25  1  0  0  0  0
 12 26  1  0  0  0  0
 13 21  1  0  0  0  0
 13 24  2  0  0  0  0
 14 26  2  0  0  0  0
 14 27  1  0  0  0  0
 15 22  1  0  0  0  0
 15 68  2  0  0  0  0
 16 28  1  0  0  0  0
 17 28  1  0  0  0  0
 17 30  2  0  0  0  0
 17 32  1  0  0  0  0
 18 20  2  0  0  0  0
 18 37  1  0  0  0  0
 19 21  2  0  0  0  0
 19 38  1  0  0  0  0
 20 46  1  0  0  0  0
 21 39  1  0  0  0  0
 22 29  2  0  0  0  0
 22 57  1  0  0  0  0
 23 86  1  0  0  0  0
 24 87  1  0  0  0  0
 25 27  2  0  0  0  0
 25 86  1  0  0  0  0
 26 88  1  0  0  0  0
 27 89  1  0  0  0  0
 28 69  2  0  0  0  0
 29 58  1  0  0  0  0
 29 70  1  0  0  0  0
 30 71  1  0  0  0  0
 30 74  1  0  0  0  0
 31 68  1  0  0  0  0
 31 70  2  0  0  0  0
 31 78  1  0  0  0  0
 32 75  1  0  0  0  0
 32 81  2  0  0  0  0
 33 47  1  0  0  0  0
 33 76  1  0  0  0  0
 33 82  2  0  0  0  0
 34 65  1  0  0  0  0
 34 72  1  0  0  0  0
 34 83  2  0  0  0  0
 35 66  1  0  0  0  0
 35 77  1  0  0  0  0
 35 84  2  0  0  0  0
 36 73  1  0  0  0  0
 36 78  1  0  0  0  0
 36 85  2  0  0  0  0
 37 40  1  0  0  0  0
 38 47  1  0  0  0  0
 39 72  1  0  0  0  0
 40 42  1  0  0  0  0
 41 43  1  0  0  0  0
 41 44  1  0  0  0  0
 42 46  1  0  0  0  0
 43 48  1  0  0  0  0
 44 73  1  0  0  0  0
 45 48  1  0  0  0  0
 45 73  1  0  0  0  0
 46 76  1  0  0  0  0
 47 72  1  0  0  0  0
 48 71  1  0  0  0  0
 49 58  1  0  0  0  0
 50 59  1  0  0  0  0
 51 66  1  0  0  0  0
 52 67  1  0  0  0  0
 53 67  1  0  0  0  0
 54 67  1  0  0  0  0
 55 78  1  0  0  0  0
 56 79  1  0  0  0  0
 57 60  1  0  0  0  0
 59 61  1  0  0  0  0
 60 62  1  0  0  0  0
 61 80  1  0  0  0  0
 62 80  1  0  0  0  0
 63 64  1  0  0  0  0
 63 80  1  0  0  0  0
 64 87  1  0  0  0  0
 65 67  1  0  0  0  0
 65 77  1  0  0  0  0
 66 79  1  0  0  0  0
 69 71  1  0  0  0  0
M  CHG  2  79   1  80   1
M  ISO  4  36 100  64 101  78 100  87 101
M  END
> <Batch ID>
0063

> <Smiles>
CCCN(CCCc1cnc([100N:0](C)[100C:0](=O)N2CCCC(n3nc(-c4ccc(Oc5ccc(F)cc5F)cc4)c(C(N)=O)c3N)C2)nc1CC)C[101CH2:1][101O:1]c1ccc2c(c1)CN(C(=O)C(NC(=O)C(C)NC)C(C)(C)C)C(C(=O)NC1CCCc3ccccc31)C2

> <Shape>
0.247

> <Color>
0.054

> <Negative vol penalty>
0.000

$$$$

  -OEChem-04052318023D

 90 98  0     1  0  0  0  0  0999 V2000
  -31.7567  -27.0529   13.9950 C   0  0  0  0  0  0  0  0  0  0  0  0
  -31.1658  -26.0815   14.7966 C   0  0  0  0  0  0  0  0  0  0  0  0
  -27.1965  -12.3720   19.0345 C   0  0  0  0  0  0  0  0  0  0  0  0
  -26.8850  -12.3246   21.4298 C   0  0  0  0  0  0  0  0  0  0  0  0
  -31.9721  -28.3347   14.4993 C   0  0  0  0  0  0  0  0  0  0  0  0
  -30.7910  -26.3911   16.1035 C   0  0  0  0  0  0  0  0  0  0  0  0
  -25.9458  -24.2206   19.1562 C   0  0  0  0  0  0  0  0  0  0  0  0
  -26.6158  -11.1079   18.9339 C   0  0  0  0  0  0  0  0  0  0  0  0
  -26.3042  -11.0604   21.3293 C   0  0  0  0  0  0  0  0  0  0  0  0
  -25.8088  -23.1967   20.0925 C   0  0  0  0  0  0  0  0  0  0  0  0
  -24.4117   -7.9743   21.6641 C   0  0  0  0  0  0  0  0  0  0  0  0
  -23.2438   -7.7368   22.3889 C   0  0  0  0  0  0  0  0  0  0  0  0
  -25.9795  -24.8124   21.8756 C   0  0  0  0  0  0  0  0  0  0  0  0
  -22.1378   -9.5196   21.1908 C   0  0  0  0  0  0  0  0  0  0  0  0
  -28.2684  -20.9584   19.0175 C   0  0  0  0  0  0  0  0  0  0  0  0
  -27.3312  -12.9804   20.2825 C   0  0  0  0  0  0  0  0  0  0  0  0
  -27.2760  -15.5305   20.3266 C   0  0  0  0  0  0  0  0  0  0  0  0
  -31.5910  -28.6629   15.8099 C   0  0  0  0  0  0  0  0  0  0  0  0
  -26.1119  -25.5490   19.5735 C   0  0  0  0  0  0  0  0  0  0  0  0
  -31.0028  -27.6782   16.6264 C   0  0  0  0  0  0  0  0  0  0  0  0
  -26.1158  -25.8517   20.9426 C   0  0  0  0  0  0  0  0  0  0  0  0
  -26.1696  -10.4520   20.0813 C   0  0  0  0  0  0  0  0  0  0  0  0
  -25.8285  -23.4921   21.4524 C   0  0  0  0  0  0  0  0  0  0  0  0
  -24.4427   -8.9845   20.7027 C   0  0  0  0  0  0  0  0  0  0  0  0
  -22.1068   -8.5094   22.1522 C   0  0  0  0  0  0  0  0  0  0  0  0
  -23.3057   -9.7571   20.4660 C   0  0  0  0  0  0  0  0  0  0  0  0
  -27.9315  -14.2861   20.3871 C   0  0  0  0  0  0  0  0  0  0  0  0
  -28.2804  -16.4553   20.4764 C   0  0  0  0  0  0  0  0  0  0  0  0
  -29.4373  -22.0537   20.5893 C   0  0  0  0  0  0  0  0  0  0  0  0
  -27.3574  -21.3371   21.0333 C   0  0  0  0  0  0  0  0  0  0  0  0
  -25.8837  -15.8241   20.1510 C   0  0  0  0  0  0  0  0  0  0  0  0
  -28.3967  -27.7343   19.2451 C   0  0  0  0  0  0  0  0  0  0  0  0
  -26.2144  -29.6654   20.6701 C   0  0  0  0  0  0  0  0  0  0  0  0
  -32.8925  -18.1768   23.1324 C   0  0  0  0  0  0  0  0  0  0  0  0
  -23.4708  -29.9484   22.6799 C   0  0  0  0  0  0  0  0  0  0  0  0
  -31.8873  -30.0485   16.3266 C   0  0  0  0  0  0  0  0  0  0  0  0
  -26.2316  -26.6453   18.5506 C   0  0  0  0  0  0  0  0  0  0  0  0
  -26.2710  -27.2641   21.4421 C   0  0  0  0  0  0  0  0  0  0  0  0
  -31.1196  -30.4016   17.5979 C   0  0  0  0  0  0  0  0  0  0  0  0
  -33.3016  -15.9203   20.3790 C   0  0  0  0  0  0  0  0  0  0  0  0
  -31.1985  -29.2579   18.6042 C   0  0  0  0  0  0  0  0  0  0  0  0
  -31.8930  -15.3737   20.1506 C   0  0  0  0  0  0  0  0  0  0  0  0
  -33.5710  -16.1681   21.8600 C   0  0  0  0  0  0  0  0  0  0  0  0
  -31.1596  -16.5150   22.2917 C   0  0  0  0  0  0  0  0  0  0  0  0
  -30.5599  -27.9826   18.0410 C   0  0  1  0  0  0  0  0  0  0  0  0
  -26.9108  -27.8984   19.0946 C   0  0  1  0  0  0  0  0  0  0  0  0
  -30.8355  -16.2796   20.8058 C   0  0  2  0  0  0  0  0  0  0  0  0
  -32.2360  -19.8051   24.9060 C   0  0  0  0  0  0  0  0  0  0  0  0
  -21.9390  -31.6586   23.6931 C   0  0  0  0  0  0  0  0  0  0  0  0
  -31.0073  -24.0098   20.1165 C   0  0  0  0  0  0  0  0  0  0  0  0
  -30.4962  -23.4332   22.4378 C   0  0  0  0  0  0  0  0  0  0  0  0
  -25.0159  -20.4578   21.3402 C   0  0  0  0  0  0  0  0  0  0  0  0
  -26.6097  -20.5042   23.2962 C   0  0  0  0  0  0  0  0  0  0  0  0
  -28.3630  -30.3733   22.7177 C   0  0  0  0  0  0  0  0  0  0  0  0
  -26.5581  -31.2887   24.1917 C   0  0  0  0  0  0  0  0  0  0  0  0
  -26.9735  -32.3068   21.9526 C   0  0  0  0  0  0  0  0  0  0  0  0
  -33.2947  -22.5882   20.7567 C   0  0  0  0  0  0  0  0  0  0  0  0
  -31.9461  -20.6483   19.9817 C   0  0  0  0  0  0  0  0  0  0  0  0
  -21.1121  -28.8332   21.2828 C   0  0  0  0  0  0  0  0  0  0  0  0
  -29.8212  -20.3371   22.9222 C   0  0  0  0  0  0  0  0  0  0  0  0
  -32.1399  -21.1213   22.4630 C   0  0  0  0  0  0  0  0  0  0  0  0
  -25.8804  -30.0316   22.0961 C   0  0  1  0  0  0  0  0  0  0  0  0
  -31.7675  -18.9982   23.7099 C   0  0  1  0  0  0  0  0  0  0  0  0
  -22.1776  -30.7263   22.5155 C   0  0  2  0  0  0  0  0  0  0  0  0
  -30.6823  -22.7508   21.0214 C   0  0  0  0  0  0  0  0  0  0  0  0
  -26.1827  -21.2049   21.9995 C   0  0  0  0  0  0  0  0  0  1  0  0
  -26.9428  -30.9731   22.7305 C   0  0  0  0  0  0  0  0  0  0  0  0
  -32.0069  -21.7733   21.0496 C   0  0  0  0  0  0  0  0  0  0  0  0
  -29.4204  -21.5702   19.3368 N   0  0  0  0  0  0  0  0  0  0  0  0
  -27.1965  -20.8039   19.8115 N   0  0  0  0  0  0  0  0  0  0  0  0
  -29.2503  -14.4060   20.5614 N   0  0  0  0  0  0  0  0  0  0  0  0
  -28.4463  -21.9751   21.4918 N   0  0  0  0  0  0  0  0  0  0  0  0
  -29.4317  -15.7366   20.6118 N   0  0  0  0  0  0  0  0  0  0  0  0
  -26.3908  -28.3003   20.4031 N   0  0  0  0  0  0  0  0  0  0  0  0
  -32.5325  -17.0141   22.4507 N   0  0  0  0  0  0  0  0  0  0  0  0
  -28.2823  -17.8049   20.5041 N   0  0  0  0  0  0  0  0  0  0  0  0
  -24.9877  -14.7553   20.0125 N   0  0  0  0  0  0  0  0  0  0  0  0
  -29.1169  -28.0655   18.1132 N   0  0  0  0  0  0  0  0  0  0  0  0
  -24.5309  -30.5852   22.0700 N   0  0  0  0  0  0  0  0  0  0  0  0
  -21.0207  -29.7924   22.4135 N   0  3  0  0  0  0  0  0  0  0  0  0
  -31.2518  -19.9436   22.6547 N   0  3  1  0  0  0  0  0  0  0  0  0
  -25.4492  -16.9998   20.1013 O   0  0  0  0  0  0  0  0  0  0  0  0
  -28.8560  -27.3380   20.3099 O   0  0  0  0  0  0  0  0  0  0  0  0
  -26.3079  -30.5570   19.8228 O   0  0  0  0  0  0  0  0  0  0  0  0
  -34.0557  -18.5603   23.2811 O   0  0  0  0  0  0  0  0  0  0  0  0
  -23.5348  -28.8844   23.2916 O   0  0  0  0  0  0  0  0  0  0  0  0
  -25.6027   -9.2185   19.9835 O   0  0  0  0  0  0  0  0  0  0  0  0
  -25.6957  -22.4945   22.3684 O   0  0  0  0  0  0  0  0  0  1  0  0
  -20.9849   -8.2802   22.8471 F   0  0  0  0  0  0  0  0  0  0  0  0
  -23.3290  -10.7282   19.5429 F   0  0  0  0  0  0  0  0  0  0  0  0
  1  2  1  0  0  0  0
  1  5  2  0  0  0  0
  2  6  2  0  0  0  0
  3  8  2  0  0  0  0
  3 16  1  0  0  0  0
  4  9  1  0  0  0  0
  4 16  2  0  0  0  0
  5 18  1  0  0  0  0
  6 20  1  0  0  0  0
  7 10  2  0  0  0  0
  7 19  1  0  0  0  0
  8 22  1  0  0  0  0
  9 22  2  0  0  0  0
 10 23  1  0  0  0  0
 11 12  2  0  0  0  0
 11 24  1  0  0  0  0
 12 25  1  0  0  0  0
 13 21  1  0  0  0  0
 13 23  2  0  0  0  0
 14 25  2  0  0  0  0
 14 26  1  0  0  0  0
 15 69  1  0  0  0  0
 15 70  2  0  0  0  0
 16 27  1  0  0  0  0
 17 27  1  0  0  0  0
 17 28  2  0  0  0  0
 17 31  1  0  0  0  0
 18 20  2  0  0  0  0
 18 36  1  0  0  0  0
 19 21  2  0  0  0  0
 19 37  1  0  0  0  0
 20 45  1  0  0  0  0
 21 38  1  0  0  0  0
 22 87  1  0  0  0  0
 23 88  1  0  0  0  0
 24 26  2  0  0  0  0
 24 87  1  0  0  0  0
 25 89  1  0  0  0  0
 26 90  1  0  0  0  0
 27 71  2  0  0  0  0
 28 73  1  0  0  0  0
 28 76  1  0  0  0  0
 29 65  1  0  0  0  0
 29 69  2  0  0  0  0
 29 72  1  0  0  0  0
 30 66  1  0  0  0  0
 30 70  1  0  0  0  0
 30 72  2  0  0  0  0
 31 77  1  0  0  0  0
 31 82  2  0  0  0  0
 32 46  1  0  0  0  0
 32 78  1  0  0  0  0
 32 83  2  0  0  0  0
 33 62  1  0  0  0  0
 33 74  1  0  0  0  0
 33 84  2  0  0  0  0
 34 63  1  0  0  0  0
 34 75  1  0  0  0  0
 34 85  2  0  0  0  0
 35 64  1  0  0  0  0
 35 79  1  0  0  0  0
 35 86  2  0  0  0  0
 36 39  1  0  0  0  0
 37 46  1  0  0  0  0
 38 74  1  0  0  0  0
 39 41  1  0  0  0  0
 40 42  1  0  0  0  0
 40 43  1  0  0  0  0
 41 45  1  0  0  0  0
 42 47  1  0  0  0  0
 43 75  1  0  0  0  0
 44 47  1  0  0  0  0
 44 75  1  0  0  0  0
 45 78  1  0  0  0  0
 46 74  1  0  0  0  0
 47 73  1  0  0  0  0
 48 63  1  0  0  0  0
 49 64  1  0  0  0  0
 50 65  1  0  0  0  0
 51 65  1  0  0  0  0
 52 66  1  0  0  0  0
 53 66  1  0  0  0  0
 54 67  1  0  0  0  0
 55 67  1  0  0  0  0
 56 67  1  0  0  0  0
 57 68  1  0  0  0  0
 58 68  1  0  0  0  0
 59 80  1  0  0  0  0
 60 81  1  0  0  0  0
 61 68  1  0  0  0  0
 61 81  1  0  0  0  0
 62 67  1  0  0  0  0
 62 79  1  0  0  0  0
 63 81  1  0  0  0  0
 64 80  1  0  0  0  0
 65 68  1  0  0  0  0
 66 88  1  0  0  0  0
 71 73  1  0  0  0  0
M  CHG  2  80   1  81   1
M  ISO  4  34 100  63 100  66 101  88 101
M  END
> <Batch ID>
0063

> <Smiles>
CNC(C)C(=O)NC(C(=O)N1Cc2cc([101O:1][101C:1](C)(C)c3ncnc(C(C)(C)C(C)(C)CN(C)[100CH:0](C)[100C:0](=O)N4CCCC(n5nc(-c6ccc(Oc7ccc(F)cc7F)cc6)c(C(N)=O)c5N)C4)n3)ccc2CC1C(=O)NC1CCCc2ccccc21)C(C)(C)C

> <Shape>
0.251

> <Color>
0.071

> <Negative vol penalty>
0.000

$$$$

  -OEChem-04052318023D

 86 94  0     1  0  0  0  0  0999 V2000
  -20.4497  -30.0935   24.9423 C   0  0  0  0  0  0  0  0  0  0  0  0
  -21.1344  -28.9500   25.3410 C   0  0  0  0  0  0  0  0  0  0  0  0
  -29.3922  -23.4266   18.6237 C   0  0  0  0  0  0  0  0  0  0  0  0
  -28.0432  -23.3783   20.6274 C   0  0  0  0  0  0  0  0  0  0  0  0
  -19.4992  -30.0163   23.9252 C   0  0  0  0  0  0  0  0  0  0  0  0
  -20.8682  -27.7284   24.7236 C   0  0  0  0  0  0  0  0  0  0  0  0
  -24.0898  -21.6262   22.7998 C   0  0  0  0  0  0  0  0  0  0  0  0
  -29.4057  -24.8207   18.6664 C   0  0  0  0  0  0  0  0  0  0  0  0
  -28.0567  -24.7725   20.6701 C   0  0  0  0  0  0  0  0  0  0  0  0
  -23.9473  -20.2454   22.9303 C   0  0  0  0  0  0  0  0  0  0  0  0
  -26.4711  -27.3278   19.1250 C   0  0  0  0  0  0  0  0  0  0  0  0
  -25.2649  -27.9801   19.3803 C   0  0  0  0  0  0  0  0  0  0  0  0
  -22.3413  -20.2470   21.1304 C   0  0  0  0  0  0  0  0  0  0  0  0
  -26.2246  -28.9804   21.3590 C   0  0  0  0  0  0  0  0  0  0  0  0
  -25.3713  -13.7011   24.6463 C   0  0  0  0  0  0  0  0  0  0  0  0
  -28.7109  -22.7054   19.6042 C   0  0  0  0  0  0  0  0  0  0  0  0
  -29.6183  -20.3870   20.1603 C   0  0  0  0  0  0  0  0  0  0  0  0
  -19.2281  -28.7949   23.2884 C   0  0  0  0  0  0  0  0  0  0  0  0
  -23.3496  -22.3304   21.8392 C   0  0  0  0  0  0  0  0  0  0  0  0
  -19.9122  -27.6345   23.6980 C   0  0  0  0  0  0  0  0  0  0  0  0
  -22.4780  -21.6363   20.9880 C   0  0  0  0  0  0  0  0  0  0  0  0
  -24.7313  -13.5066   23.4467 C   0  0  0  0  0  0  0  0  0  0  0  0
  -28.7380  -25.4937   19.6896 C   0  0  0  0  0  0  0  0  0  0  0  0
  -23.0708  -19.5560   22.0975 C   0  0  0  0  0  0  0  0  0  0  0  0
  -27.5541  -27.5017   19.9869 C   0  0  0  0  0  0  0  0  0  0  0  0
  -25.1416  -28.8064   20.4972 C   0  0  0  0  0  0  0  0  0  0  0  0
  -27.4308  -28.3280   21.1038 C   0  0  0  0  0  0  0  0  0  0  0  0
  -28.6961  -21.2653   19.5603 C   0  0  0  0  0  0  0  0  0  0  0  0
  -25.6963  -13.8349   22.4757 C   0  0  0  0  0  0  0  0  0  0  0  0
  -29.1660  -19.1338   19.8266 C   0  0  0  0  0  0  0  0  0  0  0  0
  -30.7799  -20.6779   20.9488 C   0  0  0  0  0  0  0  0  0  0  0  0
  -21.1631  -24.6354   21.9392 C   0  0  0  0  0  0  0  0  0  0  0  0
  -21.4860  -24.5462   18.7128 C   0  0  0  0  0  0  0  0  0  0  0  0
  -22.3699  -22.7675   15.9376 C   0  0  0  0  0  0  0  0  0  0  0  0
  -25.0090  -15.4570   19.2381 C   0  0  0  0  0  0  0  0  0  0  0  0
  -18.1581  -28.7518   22.2264 C   0  0  0  0  0  0  0  0  0  0  0  0
  -23.5346  -23.8160   21.6932 C   0  0  0  0  0  0  0  0  0  0  0  0
  -21.6756  -22.3429   19.9272 C   0  0  0  0  0  0  0  0  0  0  0  0
  -18.2038  -27.4912   21.3666 C   0  0  0  0  0  0  0  0  0  0  0  0
  -25.6150  -17.6854   16.5282 C   0  0  0  0  0  0  0  0  0  0  0  0
  -18.3569  -26.2523   22.2432 C   0  0  0  0  0  0  0  0  0  0  0  0
  -26.5411  -18.7457   17.1266 C   0  0  0  0  0  0  0  0  0  0  0  0
  -24.5757  -17.2078   17.5401 C   0  0  0  0  0  0  0  0  0  0  0  0
  -26.0573  -17.7946   19.4201 C   0  0  0  0  0  0  0  0  0  0  0  0
  -19.6691  -26.2958   23.0354 C   0  0  1  0  0  0  0  0  0  0  0  0
  -22.3479  -24.5030   21.0246 C   0  0  1  0  0  0  0  0  0  0  0  0
  -27.1579  -18.2665   18.4545 C   0  0  2  0  0  0  0  0  0  0  0  0
  -26.5301  -12.8399   20.3133 C   0  0  0  0  0  0  0  0  0  0  0  0
  -22.4894  -22.9480   13.4375 C   0  0  0  0  0  0  0  0  0  0  0  0
  -28.0947  -15.9197   25.1637 C   0  0  0  0  0  0  0  0  0  0  0  0
  -28.8834  -13.5149   25.1336 C   0  0  0  0  0  0  0  0  0  0  0  0
  -18.4600  -24.1923   18.5450 C   0  0  0  0  0  0  0  0  0  0  0  0
  -18.7496  -23.4386   16.1751 C   0  0  0  0  0  0  0  0  0  0  0  0
  -19.4247  -25.7463   16.8395 C   0  0  0  0  0  0  0  0  0  0  0  0
  -25.3000  -22.3509   15.9315 C   0  0  0  0  0  0  0  0  0  0  0  0
  -23.3119  -13.0446   23.2319 C   0  0  0  0  0  0  0  0  0  0  0  0
  -22.2649  -14.1462   23.4320 C   0  0  0  0  0  0  0  0  0  0  0  0
  -22.4968  -15.3641   22.5321 C   0  0  0  0  0  0  0  0  0  0  0  0
  -21.4146  -16.4216   22.7427 C   0  0  0  0  0  0  0  0  0  0  0  0
  -21.6590  -17.6542   21.8837 C   0  0  0  0  0  0  0  0  0  1  0  0
  -25.5490  -13.8053   21.0100 C   0  0  2  0  0  0  0  0  0  0  0  0
  -20.8243  -23.7801   17.5929 C   0  0  1  0  0  0  0  0  0  0  0  0
  -23.2416  -23.1251   14.7473 C   0  0  2  0  0  0  0  0  0  0  0  0
  -27.6804  -14.4506   25.2672 C   0  0  0  0  0  0  0  0  0  0  0  0
  -19.3782  -24.2760   17.3093 C   0  0  0  0  0  0  0  0  0  0  0  0
  -27.7309  -20.6243   18.8957 N   0  0  0  0  0  0  0  0  0  0  0  0
  -26.8606  -14.2098   23.0121 N   0  0  0  0  0  0  0  0  0  0  0  0
  -26.6315  -14.1183   24.3331 N   0  0  0  0  0  0  0  0  0  0  0  0
  -28.0442  -19.3300   19.0760 N   0  0  0  0  0  0  0  0  0  0  0  0
  -21.8866  -23.7966   19.8278 N   0  0  0  0  0  0  0  0  0  0  0  0
  -25.2260  -16.7656   18.7761 N   0  0  0  0  0  0  0  0  0  0  0  0
  -29.6224  -17.8941   20.1049 N   0  0  0  0  0  0  0  0  0  0  0  0
  -31.1006  -22.0197   21.1962 N   0  0  0  0  0  0  0  0  0  0  0  0
  -20.7850  -25.9416   22.1847 N   0  0  0  0  0  0  0  0  0  0  0  0
  -21.7232  -23.8733   16.4476 N   0  0  0  0  0  0  0  0  0  0  0  0
  -25.6679  -15.1170   20.4133 N   0  0  0  0  0  0  0  0  0  0  0  0
  -24.4537  -22.2587   14.7140 N   0  3  0  0  0  0  0  0  0  0  0  0
  -31.5210  -19.7752   21.4063 O   0  0  0  0  0  0  0  0  0  0  0  0
  -20.6304  -23.6270   22.3877 O   0  0  0  0  0  0  0  0  0  0  0  0
  -21.6482  -25.7638   18.5992 O   0  0  0  0  0  0  0  0  0  0  0  0
  -22.2696  -21.6211   16.3692 O   0  0  0  0  0  0  0  0  0  0  0  0
  -24.2863  -14.6495   18.6442 O   0  0  0  0  0  0  0  0  0  0  0  0
  -28.7512  -26.8540   19.7317 O   0  0  0  0  0  0  0  0  0  0  0  0
  -22.9294  -18.2084   22.2233 O   0  0  0  0  0  0  0  0  0  1  0  0
  -23.9837  -29.4339   20.7413 F   0  0  0  0  0  0  0  0  0  0  0  0
  -28.4680  -28.5000   21.9347 F   0  0  0  0  0  0  0  0  0  0  0  0
  1  2  1  0  0  0  0
  1  5  2  0  0  0  0
  2  6  2  0  0  0  0
  3  8  2  0  0  0  0
  3 16  1  0  0  0  0
  4  9  1  0  0  0  0
  4 16  2  0  0  0  0
  5 18  1  0  0  0  0
  6 20  1  0  0  0  0
  7 10  2  0  0  0  0
  7 19  1  0  0  0  0
  8 23  1  0  0  0  0
  9 23  2  0  0  0  0
 10 24  1  0  0  0  0
 11 12  2  0  0  0  0
 11 25  1  0  0  0  0
 12 26  1  0  0  0  0
 13 21  1  0  0  0  0
 13 24  2  0  0  0  0
 14 26  2  0  0  0  0
 14 27  1  0  0  0  0
 15 22  2  0  0  0  0
 15 68  1  0  0  0  0
 16 28  1  0  0  0  0
 17 28  1  0  0  0  0
 17 30  2  0  0  0  0
 17 31  1  0  0  0  0
 18 20  2  0  0  0  0
 18 36  1  0  0  0  0
 19 21  2  0  0  0  0
 19 37  1  0  0  0  0
 20 45  1  0  0  0  0
 21 38  1  0  0  0  0
 22 29  1  0  0  0  0
 22 56  1  0  0  0  0
 23 83  1  0  0  0  0
 24 84  1  0  0  0  0
 25 27  2  0  0  0  0
 25 83  1  0  0  0  0
 26 85  1  0  0  0  0
 27 86  1  0  0  0  0
 28 66  2  0  0  0  0
 29 61  1  0  0  0  0
 29 67  2  0  0  0  0
 30 69  1  0  0  0  0
 30 72  1  0  0  0  0
 31 73  1  0  0  0  0
 31 78  2  0  0  0  0
 32 46  1  0  0  0  0
 32 74  1  0  0  0  0
 32 79  2  0  0  0  0
 33 62  1  0  0  0  0
 33 70  1  0  0  0  0
 33 80  2  0  0  0  0
 34 63  1  0  0  0  0
 34 75  1  0  0  0  0
 34 81  2  0  0  0  0
 35 71  1  0  0  0  0
 35 76  1  0  0  0  0
 35 82  2  0  0  0  0
 36 39  1  0  0  0  0
 37 46  1  0  0  0  0
 38 70  1  0  0  0  0
 39 41  1  0  0  0  0
 40 42  1  0  0  0  0
 40 43  1  0  0  0  0
 41 45  1  0  0  0  0
 42 47  1  0  0  0  0
 43 71  1  0  0  0  0
 44 47  1  0  0  0  0
 44 71  1  0  0  0  0
 45 74  1  0  0  0  0
 46 70  1  0  0  0  0
 47 69  1  0  0  0  0
 48 61  1  0  0  0  0
 49 63  1  0  0  0  0
 50 64  1  0  0  0  0
 51 64  1  0  0  0  0
 52 65  1  0  0  0  0
 53 65  1  0  0  0  0
 54 65  1  0  0  0  0
 55 77  1  0  0  0  0
 56 57  1  0  0  0  0
 57 58  1  0  0  0  0
 58 59  1  0  0  0  0
 59 60  1  0  0  0  0
 60 84  1  0  0  0  0
 61 76  1  0  0  0  0
 62 65  1  0  0  0  0
 62 75  1  0  0  0  0
 63 77  1  0  0  0  0
 64 68  1  0  0  0  0
 66 69  1  0  0  0  0
 67 68  1  0  0  0  0
M  CHG  1  77   1
M  ISO  4  35 100  60 101  76 100  84 101
M  END
> <Batch ID>
0063

> <Smiles>
CNC(C)C(=O)NC(C(=O)N1Cc2cc([101O:1][101CH2:1]CCCCc3cn(C(C)C)nc3C(C)[100NH:0][100C:0](=O)N3CCCC(n4nc(-c5ccc(Oc6ccc(F)cc6F)cc5)c(C(N)=O)c4N)C3)ccc2CC1C(=O)NC1CCCc2ccccc21)C(C)(C)C

> <Shape>
0.188

> <Color>
0.076

> <Negative vol penalty>
0.000

$$$$

  -OEChem-04052318023D

 87 95  0     1  0  0  0  0  0999 V2000
  -16.3482  -26.1524   23.1599 C   0  0  0  0  0  0  0  0  0  0  0  0
  -17.4146  -25.9485   22.2900 C   0  0  0  0  0  0  0  0  0  0  0  0
  -25.0754  -13.3932   21.7561 C   0  0  0  0  0  0  0  0  0  0  0  0
  -26.6268  -13.0588   19.9344 C   0  0  0  0  0  0  0  0  0  0  0  0
  -16.1512  -27.4060   23.7376 C   0  0  0  0  0  0  0  0  0  0  0  0
  -18.2841  -26.9984   21.9965 C   0  0  0  0  0  0  0  0  0  0  0  0
  -23.1464  -25.5897   22.1309 C   0  0  0  0  0  0  0  0  0  0  0  0
  -24.2646  -12.3763   21.2522 C   0  0  0  0  0  0  0  0  0  0  0  0
  -25.8160  -12.0418   19.4306 C   0  0  0  0  0  0  0  0  0  0  0  0
  -23.6361  -24.8863   21.0313 C   0  0  0  0  0  0  0  0  0  0  0  0
  -24.2246   -8.9953   21.2448 C   0  0  0  0  0  0  0  0  0  0  0  0
  -23.7251   -8.0570   22.1479 C   0  0  0  0  0  0  0  0  0  0  0  0
  -24.6308  -26.9143   20.1847 C   0  0  0  0  0  0  0  0  0  0  0  0
  -21.4693   -8.6828   21.5505 C   0  0  0  0  0  0  0  0  0  0  0  0
  -30.4502  -25.0195   19.9487 C   0  0  0  0  0  0  0  0  0  0  0  0
  -26.2566  -13.7345   21.0971 C   0  0  0  0  0  0  0  0  0  0  0  0
  -28.1495  -14.6535   22.5393 C   0  0  0  0  0  0  0  0  0  0  0  0
  -17.0243  -28.4692   23.4585 C   0  0  0  0  0  0  0  0  0  0  0  0
  -23.3864  -26.9652   22.2603 C   0  0  0  0  0  0  0  0  0  0  0  0
  -18.0978  -28.2678   22.5700 C   0  0  0  0  0  0  0  0  0  0  0  0
  -24.1452  -27.6323   21.2882 C   0  0  0  0  0  0  0  0  0  0  0  0
  -24.6348  -11.7005   20.0895 C   0  0  0  0  0  0  0  0  0  0  0  0
  -24.3760  -25.5491   20.0565 C   0  0  0  0  0  0  0  0  0  0  0  0
  -23.3465   -9.7774   20.4945 C   0  0  0  0  0  0  0  0  0  0  0  0
  -22.3475   -7.9007   22.3008 C   0  0  0  0  0  0  0  0  0  0  0  0
  -21.9688   -9.6211   20.6474 C   0  0  0  0  0  0  0  0  0  0  0  0
  -27.0943  -14.7853   21.6168 C   0  0  0  0  0  0  0  0  0  0  0  0
  -29.9115  -26.1517   18.2287 C   0  0  0  0  0  0  0  0  0  0  0  0
  -29.1825  -24.9888   18.1464 C   0  0  0  0  0  0  0  0  0  0  0  0
  -28.6219  -15.9324   22.7057 C   0  0  0  0  0  0  0  0  0  0  0  0
  -28.6573  -13.4799   23.1878 C   0  0  0  0  0  0  0  0  0  0  0  0
  -21.5544  -29.5599   22.3838 C   0  0  0  0  0  0  0  0  0  0  0  0
  -24.3718  -31.0440   23.0022 C   0  0  0  0  0  0  0  0  0  0  0  0
  -29.5225  -20.5426   19.3058 C   0  0  0  0  0  0  0  0  0  0  0  0
  -27.7743  -31.0269   22.7389 C   0  0  0  0  0  0  0  0  0  0  0  0
  -16.7433  -29.8189   24.0700 C   0  0  0  0  0  0  0  0  0  0  0  0
  -22.8739  -27.7042   23.4660 C   0  0  0  0  0  0  0  0  0  0  0  0
  -24.4480  -29.1042   21.3907 C   0  0  0  0  0  0  0  0  0  0  0  0
  -17.9285  -30.7784   23.9993 C   0  0  0  0  0  0  0  0  0  0  0  0
  -26.3787  -20.2169   21.4144 C   0  0  0  0  0  0  0  0  0  0  0  0
  -18.5417  -30.7673   22.6026 C   0  0  0  0  0  0  0  0  0  0  0  0
  -26.6891  -18.9484   22.2082 C   0  0  0  0  0  0  0  0  0  0  0  0
  -27.6382  -20.9303   20.9403 C   0  0  0  0  0  0  0  0  0  0  0  0
  -28.3185  -18.6139   20.2774 C   0  0  0  0  0  0  0  0  0  0  0  0
  -19.0770  -29.3752   22.2462 C   0  0  1  0  0  0  0  0  0  0  0  0
  -22.7414  -29.2062   23.2345 C   0  0  1  0  0  0  0  0  0  0  0  0
  -27.9579  -18.2242   21.7185 C   0  0  2  0  0  0  0  0  0  0  0  0
  -31.0878  -28.2597   17.5512 C   0  0  0  0  0  0  0  0  0  0  0  0
  -29.8009  -32.3940   23.3059 C   0  0  0  0  0  0  0  0  0  0  0  0
  -28.1991  -23.0612   20.9216 C   0  0  0  0  0  0  0  0  0  0  0  0
  -27.9257  -25.4724   15.9380 C   0  0  0  0  0  0  0  0  0  0  0  0
  -28.7235  -23.1863   16.4695 C   0  0  0  0  0  0  0  0  0  0  0  0
  -30.7863  -21.6696   21.0861 C   0  0  0  0  0  0  0  0  0  0  0  0
  -31.2669  -22.0983   18.6666 C   0  0  0  0  0  0  0  0  0  0  0  0
  -23.7385  -32.9358   20.6935 C   0  0  0  0  0  0  0  0  0  0  0  0
  -26.1442  -33.6293   20.6936 C   0  0  0  0  0  0  0  0  0  0  0  0
  -24.7291  -34.0412   22.7063 C   0  0  0  0  0  0  0  0  0  0  0  0
  -28.8804  -28.8866   24.4579 C   0  0  0  0  0  0  0  0  0  0  0  0
  -29.9246  -27.2918   17.2985 C   0  0  0  0  0  0  0  0  0  0  0  0
  -26.7970  -24.1507   17.7686 C   0  0  0  0  0  0  0  0  0  0  0  0
  -26.0695  -25.3367   18.4003 C   0  0  0  0  0  0  0  0  0  1  0  0
  -25.4520  -31.6805   22.1613 C   0  0  1  0  0  0  0  0  0  0  0  0
  -28.8651  -31.2855   23.7625 C   0  0  2  0  0  0  0  0  0  0  0  0
  -29.0503  -22.9705   19.6401 C   0  0  2  0  0  0  0  0  0  0  0  0
  -28.1669  -24.4849   17.1049 C   0  0  0  0  0  0  0  0  0  0  0  0
  -30.1521  -21.8565   19.7002 C   0  0  0  0  0  0  0  0  0  0  0  0
  -25.0088  -33.0444   21.5605 C   0  0  0  0  0  0  0  0  0  0  0  0
  -30.6989  -26.1645   19.3527 N   0  0  0  0  0  0  0  0  0  0  0  0
  -26.9070  -16.0483   21.2247 N   0  0  0  0  0  0  0  0  0  0  0  0
  -29.5385  -24.2735   19.2549 N   0  0  0  0  0  0  0  0  0  0  0  0
  -27.8508  -16.7218   21.9042 N   0  0  0  0  0  0  0  0  0  0  0  0
  -23.9197  -29.7841   22.5849 N   0  0  0  0  0  0  0  0  0  0  0  0
  -28.5191  -20.0613   20.1500 N   0  0  0  0  0  0  0  0  0  0  0  0
  -29.6174  -16.4475   23.4580 N   0  0  0  0  0  0  0  0  0  0  0  0
  -28.0560  -12.2463   22.9033 N   0  0  0  0  0  0  0  0  0  0  0  0
  -20.3450  -29.1380   22.9022 N   0  0  0  0  0  0  0  0  0  0  0  0
  -26.6368  -31.7578   23.0090 N   0  0  0  0  0  0  0  0  0  0  0  0
  -29.6710  -30.0516   23.9838 N   0  3  0  0  0  0  0  0  0  0  0  0
  -29.6051  -13.5263   24.0082 O   0  0  0  0  0  0  0  0  0  0  0  0
  -21.7232  -30.1717   21.3355 O   0  0  0  0  0  0  0  0  0  0  0  0
  -23.9500  -31.6394   23.9967 O   0  0  0  0  0  0  0  0  0  0  0  0
  -29.9038  -19.9677   18.2836 O   0  0  0  0  0  0  0  0  0  0  0  0
  -27.9184  -30.2564   21.7922 O   0  0  0  0  0  0  0  0  0  0  0  0
  -23.8439  -10.7080   19.5977 O   0  0  0  0  0  0  0  0  0  0  0  0
  -24.8547  -24.8651   18.9819 O   0  0  0  0  0  0  0  0  0  1  0  0
  -21.8680   -6.9985   23.1670 F   0  0  0  0  0  0  0  0  0  0  0  0
  -21.1203  -10.3688   19.9285 F   0  0  0  0  0  0  0  0  0  0  0  0
  1  2  1  0  0  0  0
  1  5  2  0  0  0  0
  2  6  2  0  0  0  0
  3  8  2  0  0  0  0
  3 16  1  0  0  0  0
  4  9  1  0  0  0  0
  4 16  2  0  0  0  0
  5 18  1  0  0  0  0
  6 20  1  0  0  0  0
  7 10  2  0  0  0  0
  7 19  1  0  0  0  0
  8 22  1  0  0  0  0
  9 22  2  0  0  0  0
 10 23  1  0  0  0  0
 11 12  2  0  0  0  0
 11 24  1  0  0  0  0
 12 25  1  0  0  0  0
 13 21  1  0  0  0  0
 13 23  2  0  0  0  0
 14 25  2  0  0  0  0
 14 26  1  0  0  0  0
 15 68  2  0  0  0  0
 15 70  1  0  0  0  0
 16 27  1  0  0  0  0
 17 27  1  0  0  0  0
 17 30  2  0  0  0  0
 17 31  1  0  0  0  0
 18 20  2  0  0  0  0
 18 36  1  0  0  0  0
 19 21  2  0  0  0  0
 19 37  1  0  0  0  0
 20 45  1  0  0  0  0
 21 38  1  0  0  0  0
 22 84  1  0  0  0  0
 23 85  1  0  0  0  0
 24 26  2  0  0  0  0
 24 84  1  0  0  0  0
 25 86  1  0  0  0  0
 26 87  1  0  0  0  0
 27 69  2  0  0  0  0
 28 29  2  0  0  0  0
 28 59  1  0  0  0  0
 28 68  1  0  0  0  0
 29 65  1  0  0  0  0
 29 70  1  0  0  0  0
 30 71  1  0  0  0  0
 30 74  1  0  0  0  0
 31 75  1  0  0  0  0
 31 79  2  0  0  0  0
 32 46  1  0  0  0  0
 32 76  1  0  0  0  0
 32 80  2  0  0  0  0
 33 62  1  0  0  0  0
 33 72  1  0  0  0  0
 33 81  2  0  0  0  0
 34 66  1  0  0  0  0
 34 73  1  0  0  0  0
 34 82  2  0  0  0  0
 35 63  1  0  0  0  0
 35 77  1  0  0  0  0
 35 83  2  0  0  0  0
 36 39  1  0  0  0  0
 37 46  1  0  0  0  0
 38 72  1  0  0  0  0
 39 41  1  0  0  0  0
 40 42  1  0  0  0  0
 40 43  1  0  0  0  0
 41 45  1  0  0  0  0
 42 47  1  0  0  0  0
 43 73  1  0  0  0  0
 44 47  1  0  0  0  0
 44 73  1  0  0  0  0
 45 76  1  0  0  0  0
 46 72  1  0  0  0  0
 47 71  1  0  0  0  0
 48 59  1  0  0  0  0
 49 63  1  0  0  0  0
 50 64  1  0  0  0  0
 51 65  1  0  0  0  0
 52 65  1  0  0  0  0
 53 66  1  0  0  0  0
 54 66  1  0  0  0  0
 55 67  1  0  0  0  0
 56 67  1  0  0  0  0
 57 67  1  0  0  0  0
 58 78  1  0  0  0  0
 60 61  1  0  0  0  0
 60 65  1  0  0  0  0
 61 85  1  0  0  0  0
 62 67  1  0  0  0  0
 62 77  1  0  0  0  0
 63 78  1  0  0  0  0
 64 66  1  0  0  0  0
 64 70  1  0  0  0  0
 69 71  1  0  0  0  0
M  CHG  1  78   1
M  ISO  4  34 100  61 101  66 100  85 101
M  END
> <Batch ID>
0063

> <Smiles>
CCc1ncn(C(C)[100C:0](C)(C)[100C:0](=O)N2CCCC(n3nc(-c4ccc(Oc5ccc(F)cc5F)cc4)c(C(N)=O)c3N)C2)c1C(C)(C)C[101CH2:1][101O:1]c1ccc2c(c1)CN(C(=O)C(NC(=O)C(C)NC)C(C)(C)C)C(C(=O)NC1CCCc3ccccc31)C2

> <Shape>
0.317

> <Color>
0.074

> <Negative vol penalty>
0.000

$$$$

  -OEChem-04052318023D

 88 96  0     1  0  0  0  0  0999 V2000
  -21.0313  -23.1119   23.1790 C   0  0  0  0  0  0  0  0  0  0  0  0
  -22.3545  -23.4818   22.9605 C   0  0  0  0  0  0  0  0  0  0  0  0
  -26.7902  -13.7570   21.5543 C   0  0  0  0  0  0  0  0  0  0  0  0
  -26.6030  -13.7858   19.1458 C   0  0  0  0  0  0  0  0  0  0  0  0
  -20.0072  -24.0350   22.9717 C   0  0  0  0  0  0  0  0  0  0  0  0
  -22.6543  -24.7749   22.5335 C   0  0  0  0  0  0  0  0  0  0  0  0
  -26.5522  -26.7986   25.0546 C   0  0  0  0  0  0  0  0  0  0  0  0
  -25.9702  -12.6298   21.6047 C   0  0  0  0  0  0  0  0  0  0  0  0
  -25.7830  -12.6585   19.1961 C   0  0  0  0  0  0  0  0  0  0  0  0
  -27.8320  -26.3875   24.6847 C   0  0  0  0  0  0  0  0  0  0  0  0
  -22.6669  -11.9423   21.4053 C   0  0  0  0  0  0  0  0  0  0  0  0
  -21.6499  -11.9237   22.3597 C   0  0  0  0  0  0  0  0  0  0  0  0
  -28.0998  -28.4057   23.3908 C   0  0  0  0  0  0  0  0  0  0  0  0
  -22.6136   -9.9408   23.3478 C   0  0  0  0  0  0  0  0  0  0  0  0
  -29.7041  -23.8416   19.5765 C   0  0  0  0  0  0  0  0  0  0  0  0
  -28.3083  -25.4412   20.5509 C   0  0  0  0  0  0  0  0  0  0  0  0
  -27.1066  -14.3350   20.3249 C   0  0  0  0  0  0  0  0  0  0  0  0
  -29.3564  -15.5266   20.1634 C   0  0  0  0  0  0  0  0  0  0  0  0
  -20.2953  -25.3430   22.5512 C   0  0  0  0  0  0  0  0  0  0  0  0
  -26.0315  -28.0133   24.5857 C   0  0  0  0  0  0  0  0  0  0  0  0
  -21.6330  -25.7161   22.3191 C   0  0  0  0  0  0  0  0  0  0  0  0
  -26.8141  -28.8312   23.7582 C   0  0  0  0  0  0  0  0  0  0  0  0
  -29.5921  -24.9731   20.3586 C   0  0  0  0  0  0  0  0  0  0  0  0
  -25.4666  -12.0805   20.4255 C   0  0  0  0  0  0  0  0  0  0  0  0
  -28.6050  -27.1897   23.8504 C   0  0  0  0  0  0  0  0  0  0  0  0
  -23.6572  -10.9601   21.4220 C   0  0  0  0  0  0  0  0  0  0  0  0
  -21.6233  -10.9230   23.3310 C   0  0  0  0  0  0  0  0  0  0  0  0
  -23.6305   -9.9594   22.3933 C   0  0  0  0  0  0  0  0  0  0  0  0
  -27.9532  -15.4998   20.2723 C   0  0  0  0  0  0  0  0  0  0  0  0
  -29.6747  -16.8626   20.1537 C   0  0  0  0  0  0  0  0  0  0  0  0
  -27.4517  -23.7614   19.2815 C   0  0  0  0  0  0  0  0  0  0  0  0
  -30.2889  -14.4408   20.0784 C   0  0  0  0  0  0  0  0  0  0  0  0
  -23.5452  -28.8429   22.7874 C   0  0  0  0  0  0  0  0  0  0  0  0
  -24.4711  -31.8489   23.5804 C   0  0  0  0  0  0  0  0  0  0  0  0
  -26.4977  -21.6095   18.5261 C   0  0  0  0  0  0  0  0  0  0  0  0
  -26.9725  -33.9374   24.5943 C   0  0  0  0  0  0  0  0  0  0  0  0
  -19.1513  -26.2917   22.2949 C   0  0  0  0  0  0  0  0  0  0  0  0
  -24.6594  -28.4551   25.0154 C   0  0  0  0  0  0  0  0  0  0  0  0
  -26.3092  -30.1537   23.2441 C   0  0  0  0  0  0  0  0  0  0  0  0
  -19.5812  -27.7536   22.2028 C   0  0  0  0  0  0  0  0  0  0  0  0
  -28.1321  -21.0988   21.7346 C   0  0  0  0  0  0  0  0  0  0  0  0
  -20.8082  -27.8937   21.3075 C   0  0  0  0  0  0  0  0  0  0  0  0
  -28.3728  -19.5899   21.7183 C   0  0  0  0  0  0  0  0  0  0  0  0
  -26.8216  -21.4657   21.0432 C   0  0  0  0  0  0  0  0  0  0  0  0
  -26.9533  -19.4409   19.6265 C   0  0  0  0  0  0  0  0  0  0  0  0
  -22.0002  -27.1168   21.8795 C   0  0  1  0  0  0  0  0  0  0  0  0
  -24.0327  -29.4690   24.0634 C   0  0  1  0  0  0  0  0  0  0  0  0
  -28.2802  -19.0317   20.2874 C   0  0  2  0  0  0  0  0  0  0  0  0
  -27.4352  -36.3473   25.1193 C   0  0  0  0  0  0  0  0  0  0  0  0
  -24.5157  -32.4877   20.5971 C   0  0  0  0  0  0  0  0  0  0  0  0
  -25.8637  -34.5302   21.1255 C   0  0  0  0  0  0  0  0  0  0  0  0
  -23.5534  -34.2926   22.0361 C   0  0  0  0  0  0  0  0  0  0  0  0
  -27.7018  -33.3082   27.3928 C   0  0  0  0  0  0  0  0  0  0  0  0
  -30.7946  -25.6545   20.9613 C   0  0  0  0  0  0  0  0  0  0  0  0
  -31.1656  -25.1333   22.3513 C   0  0  0  0  0  0  0  0  0  0  0  0
  -30.0869  -25.3854   23.3984 C   0  0  0  0  0  0  0  0  0  1  0  0
  -25.4133  -32.8687   22.9877 C   0  0  1  0  0  0  0  0  0  0  0  0
  -27.0224  -34.9959   25.6813 C   0  0  2  0  0  0  0  0  0  0  0  0
  -26.2628  -23.0910   18.6810 C   0  0  0  0  0  0  0  0  0  0  0  0
  -24.8456  -33.5190   21.6946 C   0  0  0  0  0  0  0  0  0  0  0  0
  -24.9427  -23.1680   19.5059 C   0  0  0  0  0  0  0  0  0  0  0  0
  -25.9568  -23.6512   17.2665 C   0  0  0  0  0  0  0  0  0  0  0  0
  -28.6511  -23.2077   19.0201 N   0  0  0  0  0  0  0  0  0  0  0  0
  -27.2111  -24.8580   20.0252 N   0  0  0  0  0  0  0  0  0  0  0  0
  -27.4169  -16.7218   20.3281 N   0  0  0  0  0  0  0  0  0  0  0  0
  -28.4888  -17.5290   20.2540 N   0  0  0  0  0  0  0  0  0  0  0  0
  -24.9591  -30.5389   23.6872 N   0  0  0  0  0  0  0  0  0  0  0  0
  -26.7607  -20.8923   19.6934 N   0  0  0  0  0  0  0  0  0  0  0  0
  -30.8503  -17.5208   20.0695 N   0  0  0  0  0  0  0  0  0  0  0  0
  -29.7925  -13.1303   20.1021 N   0  0  0  0  0  0  0  0  0  0  0  0
  -22.6031  -27.8491   22.9725 N   0  0  0  0  0  0  0  0  0  0  0  0
  -25.7094  -33.8192   24.0542 N   0  0  0  0  0  0  0  0  0  0  0  0
  -27.9995  -34.6079   26.7377 N   0  3  0  0  0  0  0  0  0  0  0  0
  -31.5270  -14.6269   20.0007 O   0  0  0  0  0  0  0  0  0  0  0  0
  -23.9897  -29.2336   21.7144 O   0  0  0  0  0  0  0  0  0  0  0  0
  -23.3462  -32.2032   23.9420 O   0  0  0  0  0  0  0  0  0  0  0  0
  -26.4510  -21.1071   17.4002 O   0  0  0  0  0  0  0  0  0  0  0  0
  -27.9565  -33.2836   24.2556 O   0  0  0  0  0  0  0  0  0  0  0  0
  -24.6666  -10.9804   20.4742 O   0  0  0  0  0  0  0  0  0  0  0  0
  -29.8542  -26.7905   23.4873 O   0  0  0  0  0  0  0  0  0  1  0  0
  -20.6475  -10.9061   24.2485 F   0  0  0  0  0  0  0  0  0  0  0  0
  -24.5799   -9.0138   22.4152 F   0  0  0  0  0  0  0  0  0  0  0  0
  -24.5339  -24.4428   19.7175 F   0  0  0  0  0  0  0  0  0  0  0  0
  -23.9348  -22.5306   18.8682 F   0  0  0  0  0  0  0  0  0  0  0  0
  -25.0848  -22.6005   20.7246 F   0  0  0  0  0  0  0  0  0  0  0  0
  -26.9812  -23.4798   16.3987 F   0  0  0  0  0  0  0  0  0  0  0  0
  -24.8761  -23.0346   16.7343 F   0  0  0  0  0  0  0  0  0  0  0  0
  -25.6864  -24.9750   17.3039 F   0  0  0  0  0  0  0  0  0  0  0  0
  1  2  1  0  0  0  0
  1  5  2  0  0  0  0
  2  6  2  0  0  0  0
  3  8  2  0  0  0  0
  3 17  1  0  0  0  0
  4  9  1  0  0  0  0
  4 17  2  0  0  0  0
  5 19  1  0  0  0  0
  6 21  1  0  0  0  0
  7 10  2  0  0  0  0
  7 20  1  0  0  0  0
  8 24  1  0  0  0  0
  9 24  2  0  0  0  0
 10 25  1  0  0  0  0
 11 12  2  0  0  0  0
 11 26  1  0  0  0  0
 12 27  1  0  0  0  0
 13 22  1  0  0  0  0
 13 25  2  0  0  0  0
 14 27  2  0  0  0  0
 14 28  1  0  0  0  0
 15 23  1  0  0  0  0
 15 63  2  0  0  0  0
 16 23  2  0  0  0  0
 16 64  1  0  0  0  0
 17 29  1  0  0  0  0
 18 29  1  0  0  0  0
 18 30  2  0  0  0  0
 18 32  1  0  0  0  0
 19 21  2  0  0  0  0
 19 37  1  0  0  0  0
 20 22  2  0  0  0  0
 20 38  1  0  0  0  0
 21 46  1  0  0  0  0
 22 39  1  0  0  0  0
 23 54  1  0  0  0  0
 24 79  1  0  0  0  0
 25 80  1  0  0  0  0
 26 28  2  0  0  0  0
 26 79  1  0  0  0  0
 27 81  1  0  0  0  0
 28 82  1  0  0  0  0
 29 65  2  0  0  0  0
 30 66  1  0  0  0  0
 30 69  1  0  0  0  0
 31 59  1  0  0  0  0
 31 63  1  0  0  0  0
 31 64  2  0  0  0  0
 32 70  1  0  0  0  0
 32 74  2  0  0  0  0
 33 47  1  0  0  0  0
 33 71  1  0  0  0  0
 33 75  2  0  0  0  0
 34 57  1  0  0  0  0
 34 67  1  0  0  0  0
 34 76  2  0  0  0  0
 35 59  1  0  0  0  0
 35 68  1  0  0  0  0
 35 77  2  0  0  0  0
 36 58  1  0  0  0  0
 36 72  1  0  0  0  0
 36 78  2  0  0  0  0
 37 40  1  0  0  0  0
 38 47  1  0  0  0  0
 39 67  1  0  0  0  0
 40 42  1  0  0  0  0
 41 43  1  0  0  0  0
 41 44  1  0  0  0  0
 42 46  1  0  0  0  0
 43 48  1  0  0  0  0
 44 68  1  0  0  0  0
 45 48  1  0  0  0  0
 45 68  1  0  0  0  0
 46 71  1  0  0  0  0
 47 67  1  0  0  0  0
 48 66  1  0  0  0  0
 49 58  1  0  0  0  0
 50 60  1  0  0  0  0
 51 60  1  0  0  0  0
 52 60  1  0  0  0  0
 53 73  1  0  0  0  0
 54 55  1  0  0  0  0
 55 56  1  0  0  0  0
 56 80  1  0  0  0  0
 57 60  1  0  0  0  0
 57 72  1  0  0  0  0
 58 73  1  0  0  0  0
 59 61  1  0  0  0  0
 59 62  1  0  0  0  0
 61 83  1  0  0  0  0
 61 84  1  0  0  0  0
 61 85  1  0  0  0  0
 62 86  1  0  0  0  0
 62 87  1  0  0  0  0
 62 88  1  0  0  0  0
 65 66  1  0  0  0  0
M  CHG  1  73   1
M  ISO  4  35 100  56 101  59 100  80 101
M  END
> <Batch ID>
0063

> <Smiles>
CNC(C)C(=O)NC(C(=O)N1Cc2cc([101O:1][101CH2:1]CCc3cnc([100C:0]([100C:0](=O)N4CCCC(n5nc(-c6ccc(Oc7ccc(F)cc7F)cc6)c(C(N)=O)c5N)C4)(C(F)(F)F)C(F)(F)F)nc3)ccc2CC1C(=O)NC1CCCc2ccccc21)C(C)(C)C

> <Shape>
0.249

> <Color>
0.098

> <Negative vol penalty>
0.000

$$$$

  -OEChem-04052318023D

 84 92  0     1  0  0  0  0  0999 V2000
  -23.4048  -10.2471   18.7280 C   0  0  0  0  0  0  0  0  0  0  0  0
  -22.6512  -11.4101   18.6065 C   0  0  0  0  0  0  0  0  0  0  0  0
  -30.5257  -26.8495   19.7388 C   0  0  0  0  0  0  0  0  0  0  0  0
  -29.5047  -25.1799   21.1555 C   0  0  0  0  0  0  0  0  0  0  0  0
  -24.5345  -10.2320   19.5450 C   0  0  0  0  0  0  0  0  0  0  0  0
  -23.0264  -12.5586   19.3027 C   0  0  0  0  0  0  0  0  0  0  0  0
  -22.9705  -19.6994   18.7354 C   0  0  0  0  0  0  0  0  0  0  0  0
  -31.7898  -26.4131   20.1355 C   0  0  0  0  0  0  0  0  0  0  0  0
  -30.7688  -24.7435   21.5521 C   0  0  0  0  0  0  0  0  0  0  0  0
  -22.5712  -20.8329   19.4422 C   0  0  0  0  0  0  0  0  0  0  0  0
  -33.7203  -23.4258   23.2139 C   0  0  0  0  0  0  0  0  0  0  0  0
  -33.9269  -23.1865   24.5725 C   0  0  0  0  0  0  0  0  0  0  0  0
  -24.5868  -20.7125   20.7621 C   0  0  0  0  0  0  0  0  0  0  0  0
  -33.3925  -25.4918   25.0597 C   0  0  0  0  0  0  0  0  0  0  0  0
  -21.4815  -26.5291   21.8149 C   0  0  0  0  0  0  0  0  0  0  0  0
  -29.3832  -26.2330   20.2489 C   0  0  0  0  0  0  0  0  0  0  0  0
  -27.3209  -26.2188   18.7473 C   0  0  0  0  0  0  0  0  0  0  0  0
  -24.9292  -11.3835   20.2440 C   0  0  0  0  0  0  0  0  0  0  0  0
  -24.1777  -19.0565   19.0445 C   0  0  0  0  0  0  0  0  0  0  0  0
  -24.1617  -12.5585   20.1309 C   0  0  0  0  0  0  0  0  0  0  0  0
  -25.0003  -19.5725   20.0560 C   0  0  0  0  0  0  0  0  0  0  0  0
  -31.9113  -25.3601   21.0421 C   0  0  0  0  0  0  0  0  0  0  0  0
  -23.3780  -21.3380   20.4576 C   0  0  0  0  0  0  0  0  0  0  0  0
  -33.3500  -24.6981   22.7782 C   0  0  0  0  0  0  0  0  0  0  0  0
  -33.7629  -24.2195   25.4954 C   0  0  0  0  0  0  0  0  0  0  0  0
  -33.1861  -25.7311   23.7011 C   0  0  0  0  0  0  0  0  0  0  0  0
  -28.0771  -26.6837   19.8399 C   0  0  0  0  0  0  0  0  0  0  0  0
  -21.0980  -26.4191   23.1334 C   0  0  0  0  0  0  0  0  0  0  0  0
  -21.1279  -24.1396   22.9517 C   0  0  0  0  0  0  0  0  0  0  0  0
  -21.5107  -24.2498   21.6331 C   0  0  0  0  0  0  0  0  0  0  0  0
  -26.1653  -26.9599   18.7894 C   0  0  0  0  0  0  0  0  0  0  0  0
  -27.6349  -25.2074   17.7808 C   0  0  0  0  0  0  0  0  0  0  0  0
  -24.9742  -16.1628   20.0915 C   0  0  0  0  0  0  0  0  0  0  0  0
  -27.9928  -17.2374   19.5865 C   0  0  0  0  0  0  0  0  0  0  0  0
  -30.1113  -19.8978   19.3009 C   0  0  0  0  0  0  0  0  0  0  0  0
  -23.2972  -29.7930   23.2164 C   0  0  0  0  0  0  0  0  0  0  0  0
  -26.1308  -11.3054   21.1521 C   0  0  0  0  0  0  0  0  0  0  0  0
  -24.6070  -17.8504   18.2549 C   0  0  0  0  0  0  0  0  0  0  0  0
  -26.3155  -18.9312   20.4130 C   0  0  0  0  0  0  0  0  0  0  0  0
  -26.6742  -12.6717   21.5624 C   0  0  0  0  0  0  0  0  0  0  0  0
  -24.4993  -31.2222   20.1851 C   0  0  0  0  0  0  0  0  0  0  0  0
  -25.5367  -13.5891   21.9998 C   0  0  0  0  0  0  0  0  0  0  0  0
  -25.4843  -30.1792   19.6543 C   0  0  0  0  0  0  0  0  0  0  0  0
  -24.5416  -31.3145   21.7088 C   0  0  0  0  0  0  0  0  0  0  0  0
  -25.3388  -28.9889   21.8816 C   0  0  0  0  0  0  0  0  0  0  0  0
  -24.5506  -13.8315   20.8507 C   0  0  1  0  0  0  0  0  0  0  0  0
  -25.6105  -16.9750   18.9992 C   0  0  1  0  0  0  0  0  0  0  0  0
  -25.2924  -28.8199   20.3533 C   0  0  2  0  0  0  0  0  0  0  0  0
  -19.9703  -21.5618   25.5823 C   0  0  0  0  0  0  0  0  0  0  0  0
  -19.7520  -27.4294   25.0019 C   0  0  0  0  0  0  0  0  0  0  0  0
  -32.2491  -21.1348   18.8572 C   0  0  0  0  0  0  0  0  0  0  0  0
  -28.6199  -16.4538   22.4679 C   0  0  0  0  0  0  0  0  0  0  0  0
  -30.6784  -17.8723   22.3323 C   0  0  0  0  0  0  0  0  0  0  0  0
  -30.4205  -15.9038   20.8218 C   0  0  0  0  0  0  0  0  0  0  0  0
  -29.5055  -20.1441   16.4145 C   0  0  0  0  0  0  0  0  0  0  0  0
  -20.9288  -22.8096   23.5946 C   0  0  0  0  0  0  0  0  0  0  0  0
  -21.7451  -23.0362   20.7824 C   0  0  0  0  0  0  0  0  0  1  0  0
  -20.2031  -22.9222   24.9444 C   0  0  0  0  0  0  0  0  0  0  0  0
  -22.1461  -28.1470   24.6742 C   0  0  0  0  0  0  0  0  0  0  0  0
  -20.8705  -27.6373   23.9580 C   0  0  1  0  0  0  0  0  0  0  0  0
  -29.0200  -17.9692   20.4163 C   0  0  1  0  0  0  0  0  0  0  0  0
  -31.1746  -20.2326   18.2705 C   0  0  2  0  0  0  0  0  0  0  0  0
  -29.6591  -17.0609   21.5044 C   0  0  0  0  0  0  0  0  0  0  0  0
  -21.6947  -25.4465   21.0411 N   0  0  0  0  0  0  0  0  0  0  0  0
  -27.4544  -27.6458   20.5259 N   0  0  0  0  0  0  0  0  0  0  0  0
  -20.9144  -25.2223   23.7255 N   0  0  0  0  0  0  0  0  0  0  0  0
  -26.2947  -27.7916   19.8626 N   0  0  0  0  0  0  0  0  0  0  0  0
  -26.6884  -17.7505   19.6164 N   0  0  0  0  0  0  0  0  0  0  0  0
  -24.3517  -29.9922   22.3101 N   0  0  0  0  0  0  0  0  0  0  0  0
  -25.0613  -26.9750   18.0126 N   0  0  0  0  0  0  0  0  0  0  0  0
  -28.8651  -24.5437   17.8839 N   0  0  0  0  0  0  0  0  0  0  0  0
  -25.0898  -14.7969   19.9171 N   0  0  0  0  0  0  0  0  0  0  0  0
  -29.9778  -18.5363   19.4732 N   0  0  0  0  0  0  0  0  0  0  0  0
  -23.1842  -28.5088   23.7349 N   0  0  0  0  0  0  0  0  0  0  0  0
  -30.5635  -20.9278   17.1026 N   0  3  0  0  0  0  0  0  0  0  0  0
  -26.8550  -24.9127   16.8436 O   0  0  0  0  0  0  0  0  0  0  0  0
  -24.4206  -16.7331   21.0242 O   0  0  0  0  0  0  0  0  0  0  0  0
  -28.3369  -16.2513   18.9302 O   0  0  0  0  0  0  0  0  0  0  0  0
  -29.4664  -20.7581   19.8963 O   0  0  0  0  0  0  0  0  0  0  0  0
  -22.5112  -30.6915   23.5355 O   0  0  0  0  0  0  0  0  0  0  0  0
  -33.1446  -24.9338   21.4292 O   0  0  0  0  0  0  0  0  0  0  0  0
  -22.9903  -22.4438   21.1495 O   0  0  0  0  0  0  0  0  0  1  0  0
  -33.9598  -23.9892   26.8001 F   0  0  0  0  0  0  0  0  0  0  0  0
  -32.8292  -26.9551   23.2886 F   0  0  0  0  0  0  0  0  0  0  0  0
  1  2  1  0  0  0  0
  1  5  2  0  0  0  0
  2  6  2  0  0  0  0
  3  8  2  0  0  0  0
  3 16  1  0  0  0  0
  4  9  1  0  0  0  0
  4 16  2  0  0  0  0
  5 18  1  0  0  0  0
  6 20  1  0  0  0  0
  7 10  2  0  0  0  0
  7 19  1  0  0  0  0
  8 22  1  0  0  0  0
  9 22  2  0  0  0  0
 10 23  1  0  0  0  0
 11 12  2  0  0  0  0
 11 24  1  0  0  0  0
 12 25  1  0  0  0  0
 13 21  1  0  0  0  0
 13 23  2  0  0  0  0
 14 25  2  0  0  0  0
 14 26  1  0  0  0  0
 15 28  1  0  0  0  0
 15 64  2  0  0  0  0
 16 27  1  0  0  0  0
 17 27  1  0  0  0  0
 17 31  2  0  0  0  0
 17 32  1  0  0  0  0
 18 20  2  0  0  0  0
 18 37  1  0  0  0  0
 19 21  2  0  0  0  0
 19 38  1  0  0  0  0
 20 46  1  0  0  0  0
 21 39  1  0  0  0  0
 22 81  1  0  0  0  0
 23 82  1  0  0  0  0
 24 26  2  0  0  0  0
 24 81  1  0  0  0  0
 25 83  1  0  0  0  0
 26 84  1  0  0  0  0
 27 65  2  0  0  0  0
 28 60  1  0  0  0  0
 28 66  2  0  0  0  0
 29 30  2  0  0  0  0
 29 56  1  0  0  0  0
 29 66  1  0  0  0  0
 30 57  1  0  0  0  0
 30 64  1  0  0  0  0
 31 67  1  0  0  0  0
 31 70  1  0  0  0  0
 32 71  1  0  0  0  0
 32 76  2  0  0  0  0
 33 47  1  0  0  0  0
 33 72  1  0  0  0  0
 33 77  2  0  0  0  0
 34 61  1  0  0  0  0
 34 68  1  0  0  0  0
 34 78  2  0  0  0  0
 35 62  1  0  0  0  0
 35 73  1  0  0  0  0
 35 79  2  0  0  0  0
 36 69  1  0  0  0  0
 36 74  1  0  0  0  0
 36 80  2  0  0  0  0
 37 40  1  0  0  0  0
 38 47  1  0  0  0  0
 39 68  1  0  0  0  0
 40 42  1  0  0  0  0
 41 43  1  0  0  0  0
 41 44  1  0  0  0  0
 42 46  1  0  0  0  0
 43 48  1  0  0  0  0
 44 69  1  0  0  0  0
 45 48  1  0  0  0  0
 45 69  1  0  0  0  0
 46 72  1  0  0  0  0
 47 68  1  0  0  0  0
 48 67  1  0  0  0  0
 49 58  1  0  0  0  0
 50 60  1  0  0  0  0
 51 62  1  0  0  0  0
 52 63  1  0  0  0  0
 53 63  1  0  0  0  0
 54 63  1  0  0  0  0
 55 75  1  0  0  0  0
 56 58  1  0  0  0  0
 57 82  1  0  0  0  0
 59 60  1  0  0  0  0
 59 74  1  0  0  0  0
 61 63  1  0  0  0  0
 61 73  1  0  0  0  0
 62 75  1  0  0  0  0
 65 67  1  0  0  0  0
M  CHG  1  75   1
M  ISO  4  36 100  57 101  74 100  82 101
M  END
> <Batch ID>
0063

> <Smiles>
CCCc1nc(C(C)C[100NH:0][100C:0](=O)N2CCCC(n3nc(-c4ccc(Oc5ccc(F)cc5F)cc4)c(C(N)=O)c3N)C2)cnc1[101CH2:1][101O:1]c1ccc2c(c1)CN(C(=O)C(NC(=O)C(C)NC)C(C)(C)C)C(C(=O)NC1CCCc3ccccc31)C2

> <Shape>
0.207

> <Color>
0.067

> <Negative vol penalty>
0.000

$$$$

  -OEChem-04052318022D

  0  0  0     0  0  0  0  0  0999 V2000
M  END
$$$$

  -OEChem-04052318023D

 84 92  0     1  0  0  0  0  0999 V2000
  -17.2316  -30.3790   23.2926 C   0  0  0  0  0  0  0  0  0  0  0  0
  -18.5812  -30.1969   23.0081 C   0  0  0  0  0  0  0  0  0  0  0  0
  -24.1733  -14.8785   20.8445 C   0  0  0  0  0  0  0  0  0  0  0  0
  -25.9627  -13.3425   21.3696 C   0  0  0  0  0  0  0  0  0  0  0  0
  -16.4661  -29.3073   23.7503 C   0  0  0  0  0  0  0  0  0  0  0  0
  -19.1663  -28.9432   23.1823 C   0  0  0  0  0  0  0  0  0  0  0  0
  -22.1389  -27.6301   19.2984 C   0  0  0  0  0  0  0  0  0  0  0  0
  -23.4282  -13.8276   20.3096 C   0  0  0  0  0  0  0  0  0  0  0  0
  -25.2176  -12.2916   20.8348 C   0  0  0  0  0  0  0  0  0  0  0  0
  -23.4072  -28.2065   19.2440 C   0  0  0  0  0  0  0  0  0  0  0  0
  -23.6384   -9.1429   19.9347 C   0  0  0  0  0  0  0  0  0  0  0  0
  -23.5834   -7.9518   20.6585 C   0  0  0  0  0  0  0  0  0  0  0  0
  -24.3560  -26.1917   20.1711 C   0  0  0  0  0  0  0  0  0  0  0  0
  -22.5889   -9.1286   22.5195 C   0  0  0  0  0  0  0  0  0  0  0  0
  -25.4406  -14.6359   21.3745 C   0  0  0  0  0  0  0  0  0  0  0  0
  -26.2083  -16.1735   23.2597 C   0  0  0  0  0  0  0  0  0  0  0  0
  -17.0399  -28.0376   23.9211 C   0  0  0  0  0  0  0  0  0  0  0  0
  -21.9680  -26.3320   19.8006 C   0  0  0  0  0  0  0  0  0  0  0  0
  -18.4081  -27.8539   23.6441 C   0  0  0  0  0  0  0  0  0  0  0  0
  -23.0849  -25.6001   20.2284 C   0  0  0  0  0  0  0  0  0  0  0  0
  -23.9503  -12.5342   20.3048 C   0  0  0  0  0  0  0  0  0  0  0  0
  -24.5156  -27.4884   19.6831 C   0  0  0  0  0  0  0  0  0  0  0  0
  -23.1688  -10.3269   20.5033 C   0  0  0  0  0  0  0  0  0  0  0  0
  -23.0586   -7.9446   21.9508 C   0  0  0  0  0  0  0  0  0  0  0  0
  -22.6440  -10.3197   21.7957 C   0  0  0  0  0  0  0  0  0  0  0  0
  -26.2110  -15.7212   21.9266 C   0  0  0  0  0  0  0  0  0  0  0  0
  -27.1018  -17.2166   23.2702 C   0  0  0  0  0  0  0  0  0  0  0  0
  -29.4180  -22.9393   20.1217 C   0  0  0  0  0  0  0  0  0  0  0  0
  -25.4647  -15.6936   24.3878 C   0  0  0  0  0  0  0  0  0  0  0  0
  -28.9995  -21.8509   21.0135 C   0  0  0  0  0  0  0  0  0  0  0  0
  -20.3954  -25.0655   22.2555 C   0  0  0  0  0  0  0  0  0  0  0  0
  -21.3384  -22.2671   20.9132 C   0  0  0  0  0  0  0  0  0  0  0  0
  -23.5545  -20.6161   18.9106 C   0  0  0  0  0  0  0  0  0  0  0  0
  -16.1834  -26.9209   24.4634 C   0  0  0  0  0  0  0  0  0  0  0  0
  -20.5967  -25.7145   19.8277 C   0  0  0  0  0  0  0  0  0  0  0  0
  -22.9576  -24.1956   20.7572 C   0  0  0  0  0  0  0  0  0  0  0  0
  -16.7916  -25.5350   24.2641 C   0  0  0  0  0  0  0  0  0  0  0  0
  -30.4264  -18.7492   19.7844 C   0  0  0  0  0  0  0  0  0  0  0  0
  -18.2629  -25.5347   24.6668 C   0  0  0  0  0  0  0  0  0  0  0  0
  -29.4359  -17.7210   20.3324 C   0  0  0  0  0  0  0  0  0  0  0  0
  -29.7200  -20.0380   19.3748 C   0  0  0  0  0  0  0  0  0  0  0  0
  -27.9123  -19.6305   21.0117 C   0  0  0  0  0  0  0  0  0  0  0  0
  -19.0732  -26.5032   23.7968 C   0  0  1  0  0  0  0  0  0  0  0  0
  -20.4735  -24.5770   20.8368 C   0  0  1  0  0  0  0  0  0  0  0  0
  -28.5799  -18.3200   21.4635 C   0  0  1  0  0  0  0  0  0  0  0  0
  -24.0901  -18.3266   18.0339 C   0  0  0  0  0  0  0  0  0  0  0  0
  -26.9502  -30.0021   21.4020 C   0  0  0  0  0  0  0  0  0  0  0  0
  -22.5091  -21.5048   23.6258 C   0  0  0  0  0  0  0  0  0  0  0  0
  -23.8205  -19.7081   22.4769 C   0  0  0  0  0  0  0  0  0  0  0  0
  -21.3270  -19.6469   22.4405 C   0  0  0  0  0  0  0  0  0  0  0  0
  -29.8756  -29.4988   22.0471 C   0  0  0  0  0  0  0  0  0  0  0  0
  -28.3788  -27.9046   23.2428 C   0  0  0  0  0  0  0  0  0  0  0  0
  -23.1682  -21.4736   16.1045 C   0  0  0  0  0  0  0  0  0  0  0  0
  -30.0621  -27.1878   19.7858 C   0  0  0  0  0  0  0  0  0  0  0  0
  -29.6911  -27.1027   21.2746 C   0  0  0  0  0  0  0  0  0  0  0  0
  -30.9216  -26.0037   19.3211 C   0  0  0  0  0  0  0  0  0  0  0  0
  -26.6971  -27.6293   20.6197 C   0  0  0  0  0  0  0  0  0  1  0  0
  -22.5450  -21.3699   21.0478 C   0  0  1  0  0  0  0  0  0  0  0  0
  -23.3454  -19.6276   17.7777 C   0  0  2  0  0  0  0  0  0  0  0  0
  -27.7097  -28.7574   20.9020 C   0  0  2  0  0  0  0  0  0  0  0  0
  -22.5529  -20.5846   22.3897 C   0  0  0  0  0  0  0  0  0  0  0  0
  -28.8939  -28.3204   21.8453 C   0  0  0  0  0  0  0  0  0  0  0  0
  -27.0402  -16.4198   21.1467 N   0  0  0  0  0  0  0  0  0  0  0  0
  -29.1691  -22.9505   18.7813 N   0  0  0  0  0  0  0  0  0  0  0  0
  -30.0813  -24.0116   20.5617 N   0  0  0  0  0  0  0  0  0  0  0  0
  -29.6923  -24.0805   18.3217 N   0  0  0  0  0  0  0  0  0  0  0  0
  -27.5669  -17.3218   21.9924 N   0  0  0  0  0  0  0  0  0  0  0  0
  -30.2177  -24.6723   19.4034 N   0  0  0  0  0  0  0  0  0  0  0  0
  -28.9116  -20.5613   20.4833 N   0  0  0  0  0  0  0  0  0  0  0  0
  -21.5951  -23.6380   20.7696 N   0  0  0  0  0  0  0  0  0  0  0  0
  -27.5269  -18.0450   24.2476 N   0  0  0  0  0  0  0  0  0  0  0  0
  -24.5912  -14.6135   24.2017 N   0  0  0  0  0  0  0  0  0  0  0  0
  -19.3358  -25.9183   22.4994 N   0  0  0  0  0  0  0  0  0  0  0  0
  -22.5586  -20.5231   19.8598 N   0  0  0  0  0  0  0  0  0  0  0  0
  -23.8326  -20.2026   16.4920 N   0  3  0  0  0  0  0  0  0  0  0  0
  -25.5595  -16.2179   25.5234 O   0  0  0  0  0  0  0  0  0  0  0  0
  -28.7652  -22.1647   22.1796 O   0  0  0  0  0  0  0  0  0  0  0  0
  -21.2335  -24.6949   23.0691 O   0  0  0  0  0  0  0  0  0  0  0  0
  -20.2099  -21.7691   20.9275 O   0  0  0  0  0  0  0  0  0  0  0  0
  -24.5079  -21.3905   18.9516 O   0  0  0  0  0  0  0  0  0  0  0  0
  -23.2234  -11.5084   19.7832 O   0  0  0  0  0  0  0  0  0  0  0  0
  -25.7621  -28.0523   19.6314 O   0  0  0  0  0  0  0  0  0  1  0  0
  -23.0043   -6.8005   22.6452 F   0  0  0  0  0  0  0  0  0  0  0  0
  -22.1902  -11.4538   22.3468 F   0  0  0  0  0  0  0  0  0  0  0  0
  1  2  1  0  0  0  0
  1  5  2  0  0  0  0
  2  6  2  0  0  0  0
  3  8  2  0  0  0  0
  3 15  1  0  0  0  0
  4  9  1  0  0  0  0
  4 15  2  0  0  0  0
  5 17  1  0  0  0  0
  6 19  1  0  0  0  0
  7 10  2  0  0  0  0
  7 18  1  0  0  0  0
  8 21  1  0  0  0  0
  9 21  2  0  0  0  0
 10 22  1  0  0  0  0
 11 12  2  0  0  0  0
 11 23  1  0  0  0  0
 12 24  1  0  0  0  0
 13 20  1  0  0  0  0
 13 22  2  0  0  0  0
 14 24  2  0  0  0  0
 14 25  1  0  0  0  0
 15 26  1  0  0  0  0
 16 26  1  0  0  0  0
 16 27  2  0  0  0  0
 16 29  1  0  0  0  0
 17 19  2  0  0  0  0
 17 34  1  0  0  0  0
 18 20  2  0  0  0  0
 18 35  1  0  0  0  0
 19 43  1  0  0  0  0
 20 36  1  0  0  0  0
 21 81  1  0  0  0  0
 22 82  1  0  0  0  0
 23 25  2  0  0  0  0
 23 81  1  0  0  0  0
 24 83  1  0  0  0  0
 25 84  1  0  0  0  0
 26 63  2  0  0  0  0
 27 67  1  0  0  0  0
 27 71  1  0  0  0  0
 28 30  1  0  0  0  0
 28 64  1  0  0  0  0
 28 65  2  0  0  0  0
 29 72  1  0  0  0  0
 29 76  2  0  0  0  0
 30 69  1  0  0  0  0
 30 77  2  0  0  0  0
 31 44  1  0  0  0  0
 31 73  1  0  0  0  0
 31 78  2  0  0  0  0
 32 58  1  0  0  0  0
 32 70  1  0  0  0  0
 32 79  2  0  0  0  0
 33 59  1  0  0  0  0
 33 74  1  0  0  0  0
 33 80  2  0  0  0  0
 34 37  1  0  0  0  0
 35 44  1  0  0  0  0
 36 70  1  0  0  0  0
 37 39  1  0  0  0  0
 38 40  1  0  0  0  0
 38 41  1  0  0  0  0
 39 43  1  0  0  0  0
 40 45  1  0  0  0  0
 41 69  1  0  0  0  0
 42 45  1  0  0  0  0
 42 69  1  0  0  0  0
 43 73  1  0  0  0  0
 44 70  1  0  0  0  0
 45 67  1  0  0  0  0
 46 59  1  0  0  0  0
 47 60  1  0  0  0  0
 48 61  1  0  0  0  0
 49 61  1  0  0  0  0
 50 61  1  0  0  0  0
 51 62  1  0  0  0  0
 52 62  1  0  0  0  0
 53 75  1  0  0  0  0
 54 55  1  0  0  0  0
 54 56  1  0  0  0  0
 55 62  1  0  0  0  0
 56 68  1  0  0  0  0
 57 60  1  0  0  0  0
 57 82  1  0  0  0  0
 58 61  1  0  0  0  0
 58 74  1  0  0  0  0
 59 75  1  0  0  0  0
 60 62  1  0  0  0  0
 63 67  1  0  0  0  0
 64 66  2  0  0  0  0
 65 68  1  0  0  0  0
 66 68  1  0  0  0  0
M  CHG  1  75   1
M  ISO  4  28 100  30 100  57 101  82 101
M  END
> <Batch ID>
0063

> <Smiles>
CNC(C)C(=O)NC(C(=O)N1Cc2cc([101O:1][101CH2:1]C(C)C(C)(C)CCCn3nn[100c:0]([100C:0](=O)N4CCCC(n5nc(-c6ccc(Oc7ccc(F)cc7F)cc6)c(C(N)=O)c5N)C4)n3)ccc2CC1C(=O)NC1CCCc2ccccc21)C(C)(C)C

> <Shape>
0.251

> <Color>
0.060

> <Negative vol penalty>
0.000

$$$$

  -OEChem-04052318023D

 89 97  0     1  0  0  0  0  0999 V2000
  -32.3810  -14.7498   20.0047 C   0  0  0  0  0  0  0  0  0  0  0  0
  -31.4996  -15.6976   20.5149 C   0  0  0  0  0  0  0  0  0  0  0  0
  -23.4218  -30.9216   22.2224 C   0  0  0  0  0  0  0  0  0  0  0  0
  -22.8043  -28.6271   22.6592 C   0  0  0  0  0  0  0  0  0  0  0  0
  -31.8871  -13.5950   19.3993 C   0  0  0  0  0  0  0  0  0  0  0  0
  -30.1238  -15.4916   20.4192 C   0  0  0  0  0  0  0  0  0  0  0  0
  -27.6944  -16.5614   24.7317 C   0  0  0  0  0  0  0  0  0  0  0  0
  -22.0956  -31.2189   21.9089 C   0  0  0  0  0  0  0  0  0  0  0  0
  -21.4780  -28.9243   22.3458 C   0  0  0  0  0  0  0  0  0  0  0  0
  -27.4658  -17.9068   25.0169 C   0  0  0  0  0  0  0  0  0  0  0  0
  -17.8658  -29.1622   22.0096 C   0  0  0  0  0  0  0  0  0  0  0  0
  -16.8726  -28.6707   22.8567 C   0  0  0  0  0  0  0  0  0  0  0  0
  -25.1974  -17.6825   24.2273 C   0  0  0  0  0  0  0  0  0  0  0  0
  -17.8367  -29.8997   24.6999 C   0  0  0  0  0  0  0  0  0  0  0  0
  -26.3755  -24.2952   21.0263 C   0  0  0  0  0  0  0  0  0  0  0  0
  -23.7762  -29.6257   22.5975 C   0  0  0  0  0  0  0  0  0  0  0  0
  -25.7587  -29.3937   24.1861 C   0  0  0  0  0  0  0  0  0  0  0  0
  -30.5047  -13.3702   19.3047 C   0  0  0  0  0  0  0  0  0  0  0  0
  -26.6778  -15.7678   24.1811 C   0  0  0  0  0  0  0  0  0  0  0  0
  -29.6110  -14.3333   19.8108 C   0  0  0  0  0  0  0  0  0  0  0  0
  -25.4149  -16.3266   23.9384 C   0  0  0  0  0  0  0  0  0  0  0  0
  -26.1488  -24.4004   22.3769 C   0  0  0  0  0  0  0  0  0  0  0  0
  -21.1237  -30.2203   21.9707 C   0  0  0  0  0  0  0  0  0  0  0  0
  -26.2180  -18.4683   24.7620 C   0  0  0  0  0  0  0  0  0  0  0  0
  -18.8445  -30.0224   22.5076 C   0  0  0  0  0  0  0  0  0  0  0  0
  -16.8580  -29.0395   24.2019 C   0  0  0  0  0  0  0  0  0  0  0  0
  -18.8299  -30.3911   23.8528 C   0  0  0  0  0  0  0  0  0  0  0  0
  -25.1462  -29.3178   22.9208 C   0  0  0  0  0  0  0  0  0  0  0  0
  -27.4028  -24.7405   22.9188 C   0  0  0  0  0  0  0  0  0  0  0  0
  -27.0560  -29.0013   23.9636 C   0  0  0  0  0  0  0  0  0  0  0  0
  -25.2045  -29.7838   25.4495 C   0  0  0  0  0  0  0  0  0  0  0  0
  -26.3120  -14.1569   21.4654 C   0  0  0  0  0  0  0  0  0  0  0  0
  -23.5845  -13.1351   22.8933 C   0  0  0  0  0  0  0  0  0  0  0  0
  -29.5364  -25.5783   19.6924 C   0  0  0  0  0  0  0  0  0  0  0  0
  -21.1461  -13.6913   25.2154 C   0  0  0  0  0  0  0  0  0  0  0  0
  -30.0177  -12.1292   18.5995 C   0  0  0  0  0  0  0  0  0  0  0  0
  -26.9323  -14.3114   23.9041 C   0  0  0  0  0  0  0  0  0  0  0  0
  -24.2839  -15.5125   23.3670 C   0  0  0  0  0  0  0  0  0  0  0  0
  -28.5502  -11.8095   18.8728 C   0  0  0  0  0  0  0  0  0  0  0  0
  -30.4279  -28.9333   20.5807 C   0  0  0  0  0  0  0  0  0  0  0  0
  -27.6951  -13.0647   18.7312 C   0  0  0  0  0  0  0  0  0  0  0  0
  -29.2181  -29.4287   21.3721 C   0  0  0  0  0  0  0  0  0  0  0  0
  -30.0112  -27.9933   19.4539 C   0  0  0  0  0  0  0  0  0  0  0  0
  -27.9805  -27.3218   20.6978 C   0  0  0  0  0  0  0  0  0  0  0  0
  -28.1122  -14.1341   19.7480 C   0  0  1  0  0  0  0  0  0  0  0  0
  -25.9804  -13.7254   22.8659 C   0  0  1  0  0  0  0  0  0  0  0  0
  -28.3599  -28.2502   21.8651 C   0  0  2  0  0  0  0  0  0  0  0  0
  -27.7411  -24.9781   24.3331 C   0  0  0  0  0  0  0  0  0  0  0  0
  -19.0285  -12.6983   26.1247 C   0  0  0  0  0  0  0  0  0  0  0  0
  -22.0809  -14.0734   20.4096 C   0  0  0  0  0  0  0  0  0  0  0  0
  -19.9585  -13.9455   21.7314 C   0  0  0  0  0  0  0  0  0  0  0  0
  -21.3043  -11.8832   21.3339 C   0  0  0  0  0  0  0  0  0  0  0  0
  -28.0793  -22.0223   19.1496 C   0  0  0  0  0  0  0  0  0  0  0  0
  -22.2976  -13.4285   27.9291 C   0  0  0  0  0  0  0  0  0  0  0  0
  -24.8437  -24.1946   23.1038 C   0  0  0  0  0  0  0  0  0  0  0  0
  -24.4507  -22.7220   23.2657 C   0  0  0  0  0  0  0  0  0  0  0  0
  -25.4422  -21.9279   24.1174 C   0  0  0  0  0  0  0  0  0  0  0  0
  -25.0406  -20.4630   24.2228 C   0  0  0  0  0  0  0  0  0  1  0  0
  -22.1588  -13.6281   22.9516 C   0  0  1  0  0  0  0  0  0  0  0  0
  -20.5391  -12.7889   26.2745 C   0  0  2  0  0  0  0  0  0  0  0  0
  -28.4105  -24.5802   19.5921 C   0  0  2  0  0  0  0  0  0  0  0  0
  -21.3973  -13.3986   21.6156 C   0  0  0  0  0  0  0  0  0  0  0  0
  -29.0402  -23.1904   19.2929 C   0  0  0  0  0  0  0  0  0  0  0  0
  -27.5762  -25.0712   18.3893 C   0  0  0  0  0  0  0  0  0  0  0  0
  -25.9854  -28.9095   21.9653 N   0  0  0  0  0  0  0  0  0  0  0  0
  -28.3556  -24.8443   21.9885 N   0  0  0  0  0  0  0  0  0  0  0  0
  -27.7000  -24.5678   20.8484 N   0  0  0  0  0  0  0  0  0  0  0  0
  -27.1386  -28.7254   22.6305 N   0  0  0  0  0  0  0  0  0  0  0  0
  -24.5841  -14.0947   23.1072 N   0  0  0  0  0  0  0  0  0  0  0  0
  -29.1790  -26.9000   19.9595 N   0  0  0  0  0  0  0  0  0  0  0  0
  -28.1228  -28.8689   24.7802 N   0  0  0  0  0  0  0  0  0  0  0  0
  -23.8547  -30.1575   25.5002 N   0  0  0  0  0  0  0  0  0  0  0  0
  -27.5881  -13.8165   21.0591 N   0  0  0  0  0  0  0  0  0  0  0  0
  -21.5488  -12.9778   24.1063 N   0  0  0  0  0  0  0  0  0  0  0  0
  -20.8459  -13.3100   27.6367 N   0  3  0  0  0  0  0  0  0  0  0  0
  -25.8904  -29.8163   26.4993 O   0  0  0  0  0  0  0  0  0  0  0  0
  -25.4717  -14.7532   20.8020 O   0  0  0  0  0  0  0  0  0  0  0  0
  -23.8029  -11.9412   22.6735 O   0  0  0  0  0  0  0  0  0  0  0  0
  -30.6984  -25.1923   19.5406 O   0  0  0  0  0  0  0  0  0  0  0  0
  -21.2491  -14.9079   25.3562 O   0  0  0  0  0  0  0  0  0  0  0  0
  -19.8294  -30.5100   21.6651 O   0  0  0  0  0  0  0  0  0  0  0  0
  -25.9924  -19.7814   25.0388 O   0  0  0  0  0  0  0  0  0  1  0  0
  -15.9033  -28.5687   25.0149 F   0  0  0  0  0  0  0  0  0  0  0  0
  -19.7668  -31.2181   24.3367 F   0  0  0  0  0  0  0  0  0  0  0  0
  -29.7712  -23.2667   18.1439 F   0  0  0  0  0  0  0  0  0  0  0  0
  -29.9339  -22.8646   20.2692 F   0  0  0  0  0  0  0  0  0  0  0  0
  -28.3185  -25.0928   17.2557 F   0  0  0  0  0  0  0  0  0  0  0  0
  -27.1155  -26.3296   18.5816 F   0  0  0  0  0  0  0  0  0  0  0  0
  -26.5074  -24.2850   18.1389 F   0  0  0  0  0  0  0  0  0  0  0  0
  1  2  1  0  0  0  0
  1  5  2  0  0  0  0
  2  6  2  0  0  0  0
  3  8  2  0  0  0  0
  3 16  1  0  0  0  0
  4  9  1  0  0  0  0
  4 16  2  0  0  0  0
  5 18  1  0  0  0  0
  6 20  1  0  0  0  0
  7 10  2  0  0  0  0
  7 19  1  0  0  0  0
  8 23  1  0  0  0  0
  9 23  2  0  0  0  0
 10 24  1  0  0  0  0
 11 12  2  0  0  0  0
 11 25  1  0  0  0  0
 12 26  1  0  0  0  0
 13 21  1  0  0  0  0
 13 24  2  0  0  0  0
 14 26  2  0  0  0  0
 14 27  1  0  0  0  0
 15 22  2  0  0  0  0
 15 67  1  0  0  0  0
 16 28  1  0  0  0  0
 17 28  1  0  0  0  0
 17 30  2  0  0  0  0
 17 31  1  0  0  0  0
 18 20  2  0  0  0  0
 18 36  1  0  0  0  0
 19 21  2  0  0  0  0
 19 37  1  0  0  0  0
 20 45  1  0  0  0  0
 21 38  1  0  0  0  0
 22 29  1  0  0  0  0
 22 55  1  0  0  0  0
 23 81  1  0  0  0  0
 24 82  1  0  0  0  0
 25 27  2  0  0  0  0
 25 81  1  0  0  0  0
 26 83  1  0  0  0  0
 27 84  1  0  0  0  0
 28 65  2  0  0  0  0
 29 48  1  0  0  0  0
 29 66  2  0  0  0  0
 30 68  1  0  0  0  0
 30 71  1  0  0  0  0
 31 72  1  0  0  0  0
 31 76  2  0  0  0  0
 32 46  1  0  0  0  0
 32 73  1  0  0  0  0
 32 77  2  0  0  0  0
 33 59  1  0  0  0  0
 33 69  1  0  0  0  0
 33 78  2  0  0  0  0
 34 61  1  0  0  0  0
 34 70  1  0  0  0  0
 34 79  2  0  0  0  0
 35 60  1  0  0  0  0
 35 74  1  0  0  0  0
 35 80  2  0  0  0  0
 36 39  1  0  0  0  0
 37 46  1  0  0  0  0
 38 69  1  0  0  0  0
 39 41  1  0  0  0  0
 40 42  1  0  0  0  0
 40 43  1  0  0  0  0
 41 45  1  0  0  0  0
 42 47  1  0  0  0  0
 43 70  1  0  0  0  0
 44 47  1  0  0  0  0
 44 70  1  0  0  0  0
 45 73  1  0  0  0  0
 46 69  1  0  0  0  0
 47 68  1  0  0  0  0
 49 60  1  0  0  0  0
 50 62  1  0  0  0  0
 51 62  1  0  0  0  0
 52 62  1  0  0  0  0
 53 63  1  0  0  0  0
 54 75  1  0  0  0  0
 55 56  1  0  0  0  0
 56 57  1  0  0  0  0
 57 58  1  0  0  0  0
 58 82  1  0  0  0  0
 59 62  1  0  0  0  0
 59 74  1  0  0  0  0
 60 75  1  0  0  0  0
 61 63  1  0  0  0  0
 61 64  1  0  0  0  0
 61 67  1  0  0  0  0
 63 85  1  0  0  0  0
 63 86  1  0  0  0  0
 64 87  1  0  0  0  0
 64 88  1  0  0  0  0
 64 89  1  0  0  0  0
 65 68  1  0  0  0  0
 66 67  1  0  0  0  0
M  CHG  1  75   1
M  ISO  4  34 100  58 101  61 100  82 101
M  END
> <Batch ID>
0063

> <Smiles>
CNC(C)C(=O)NC(C(=O)N1Cc2cc([101O:1][101CH2:1]CCCc3cn([100C:0]([100C:0](=O)N4CCCC(n5nc(-c6ccc(Oc7ccc(F)cc7F)cc6)c(C(N)=O)c5N)C4)(C(C)(F)F)C(F)(F)F)nc3C)ccc2CC1C(=O)NC1CCCc2ccccc21)C(C)(C)C

> <Shape>
0.246

> <Color>
0.067

> <Negative vol penalty>
0.000

$$$$

  -OEChem-04052318023D

 86 95  0     1  0  0  0  0  0999 V2000
  -33.0123  -25.2346   16.5147 C   0  0  0  0  0  0  0  0  0  0  0  0
  -31.7268  -25.4504   16.0286 C   0  0  0  0  0  0  0  0  0  0  0  0
  -26.8240  -13.3527   19.9376 C   0  0  0  0  0  0  0  0  0  0  0  0
  -24.6164  -13.9579   20.7107 C   0  0  0  0  0  0  0  0  0  0  0  0
  -33.2129  -25.0083   17.8758 C   0  0  0  0  0  0  0  0  0  0  0  0
  -30.6409  -25.4389   16.9033 C   0  0  0  0  0  0  0  0  0  0  0  0
  -24.2330  -28.4863   17.8879 C   0  0  0  0  0  0  0  0  0  0  0  0
  -26.6711  -12.0832   20.4949 C   0  0  0  0  0  0  0  0  0  0  0  0
  -24.4636  -12.6883   21.2680 C   0  0  0  0  0  0  0  0  0  0  0  0
  -22.8996  -28.1434   18.1076 C   0  0  0  0  0  0  0  0  0  0  0  0
  -23.7207   -9.5714   20.1939 C   0  0  0  0  0  0  0  0  0  0  0  0
  -22.5097   -8.9131   19.9803 C   0  0  0  0  0  0  0  0  0  0  0  0
  -23.3748  -27.8209   20.4505 C   0  0  0  0  0  0  0  0  0  0  0  0
  -22.1354   -8.8278   22.3656 C   0  0  0  0  0  0  0  0  0  0  0  0
  -20.7331  -21.5351   16.7827 C   0  0  0  0  0  0  0  0  0  0  0  0
  -25.7966  -14.2901   20.0456 C   0  0  0  0  0  0  0  0  0  0  0  0
  -25.6082  -16.0058   18.1672 C   0  0  0  0  0  0  0  0  0  0  0  0
  -32.1299  -25.0037   18.7690 C   0  0  0  0  0  0  0  0  0  0  0  0
  -25.1513  -28.4885   18.9477 C   0  0  0  0  0  0  0  0  0  0  0  0
  -30.8269  -25.2110   18.2774 C   0  0  0  0  0  0  0  0  0  0  0  0
  -24.7188  -28.1667   20.2421 C   0  0  0  0  0  0  0  0  0  0  0  0
  -25.4909  -11.7510   21.1600 C   0  0  0  0  0  0  0  0  0  0  0  0
  -22.4710  -27.8078   19.3885 C   0  0  0  0  0  0  0  0  0  0  0  0
  -24.1392   -9.8579   21.4934 C   0  0  0  0  0  0  0  0  0  0  0  0
  -21.7170   -8.5413   21.0661 C   0  0  0  0  0  0  0  0  0  0  0  0
  -23.3465   -9.4861   22.5792 C   0  0  0  0  0  0  0  0  0  0  0  0
  -25.9542  -15.6018   19.4706 C   0  0  0  0  0  0  0  0  0  0  0  0
  -19.4005  -21.7609   16.9957 C   0  0  0  0  0  0  0  0  0  0  0  0
  -25.9537  -17.3342   18.1164 C   0  0  0  0  0  0  0  0  0  0  0  0
  -20.5384  -23.1237   18.3178 C   0  0  0  0  0  0  0  0  0  0  0  0
  -20.9839  -24.0579   19.2223 C   0  0  0  0  0  0  0  0  0  0  0  0
  -23.0968  -23.4328   18.6272 C   0  0  0  0  0  0  0  0  0  0  0  0
  -25.0266  -15.2481   17.0980 C   0  0  0  0  0  0  0  0  0  0  0  0
  -27.8158  -26.8869   19.6104 C   0  0  0  0  0  0  0  0  0  0  0  0
  -27.9603  -28.9365   22.1205 C   0  0  0  0  0  0  0  0  0  0  0  0
  -26.3047  -31.0102   24.2666 C   0  0  0  0  0  0  0  0  0  0  0  0
  -26.0625  -22.4253   20.4000 C   0  0  0  0  0  0  0  0  0  0  0  0
  -32.3908  -24.7076   20.2247 C   0  0  0  0  0  0  0  0  0  0  0  0
  -26.5803  -28.8866   18.6991 C   0  0  0  0  0  0  0  0  0  0  0  0
  -25.6605  -28.1735   21.4175 C   0  0  0  0  0  0  0  0  0  0  0  0
  -31.2288  -25.0835   21.1404 C   0  0  0  0  0  0  0  0  0  0  0  0
  -28.6470  -20.1608   21.3324 C   0  0  0  0  0  0  0  0  0  0  0  0
  -29.9090  -24.5851   20.5602 C   0  0  0  0  0  0  0  0  0  0  0  0
  -28.1454  -18.8061   20.8294 C   0  0  0  0  0  0  0  0  0  0  0  0
  -27.5030  -21.0285   21.8527 C   0  0  0  0  0  0  0  0  0  0  0  0
  -25.8873  -19.8629   20.4020 C   0  0  0  0  0  0  0  0  0  0  0  0
  -29.6263  -25.2307   19.1983 C   0  0  1  0  0  0  0  0  0  0  0  0
  -27.5413  -28.3567   19.7588 C   0  0  1  0  0  0  0  0  0  0  0  0
  -26.9977  -18.9743   19.8157 C   0  0  2  0  0  0  0  0  0  0  0  0
  -18.2096  -21.1493   16.3994 C   0  0  0  0  0  0  0  0  0  0  0  0
  -25.2594  -24.0636   17.5918 C   0  0  0  0  0  0  0  0  0  0  0  0
  -26.6858  -32.5184   26.2358 C   0  0  0  0  0  0  0  0  0  0  0  0
  -28.2133  -26.4975   23.9364 C   0  0  0  0  0  0  0  0  0  0  0  0
  -27.6369  -27.9699   25.8776 C   0  0  0  0  0  0  0  0  0  0  0  0
  -29.7008  -28.4125   24.5483 C   0  0  0  0  0  0  0  0  0  0  0  0
  -25.3333  -33.3814   22.7859 C   0  0  0  0  0  0  0  0  0  0  0  0
  -19.9917  -24.8611   19.9935 C   0  0  0  0  0  0  0  0  0  0  0  0
  -19.3967  -25.9383   19.0984 C   0  0  0  0  0  0  0  0  0  0  0  0
  -20.4709  -26.8518   18.5273 C   0  0  0  0  0  0  0  0  0  1  0  0
  -24.5612  -23.6868   18.8789 C   0  0  2  0  0  0  0  0  0  0  0  0
  -27.4414  -28.9289   23.5382 C   0  0  1  0  0  0  0  0  0  0  0  0
  -26.5944  -32.4296   24.7204 C   0  0  2  0  0  0  0  0  0  0  0  0
  -28.2305  -27.9501   24.4528 C   0  0  0  0  0  0  0  0  0  0  0  0
  -26.4792  -16.5933   20.1955 N   0  0  0  0  0  0  0  0  0  0  0  0
  -22.2557  -24.2272   19.3911 N   0  0  0  0  0  0  0  0  0  0  0  0
  -22.7886  -22.5212   17.7448 N   0  0  0  0  0  0  0  0  0  0  0  0
  -21.4079  -22.3935   17.6156 N   0  0  0  0  0  0  0  0  0  0  0  0
  -26.4659  -17.6334   19.3446 N   0  0  0  0  0  0  0  0  0  0  0  0
  -19.3082  -22.7489   17.9505 N   0  3  0  0  0  0  0  0  0  0  0  0
  -27.0490  -28.5636   21.1223 N   0  0  0  0  0  0  0  0  0  0  0  0
  -26.4485  -21.1495   20.8431 N   0  0  0  0  0  0  0  0  0  0  0  0
  -25.8663  -18.2638   17.1415 N   0  0  0  0  0  0  0  0  0  0  0  0
  -24.7342  -13.8955   17.3197 N   0  0  0  0  0  0  0  0  0  0  0  0
  -29.1425  -26.5837   19.3711 N   0  0  0  0  0  0  0  0  0  0  0  0
  -27.4634  -30.3165   23.9883 N   0  0  0  0  0  0  0  0  0  0  0  0
  -25.0607  -22.4501   19.4374 N   0  0  0  0  0  0  0  0  0  0  0  0
  -25.5173  -33.3507   24.2597 N   0  3  0  0  0  0  0  0  0  0  0  0
  -24.7887  -15.7514   15.9739 O   0  0  0  0  0  0  0  0  0  0  0  0
  -26.8925  -26.0870   19.7075 O   0  0  0  0  0  0  0  0  0  0  0  0
  -29.1289  -29.2681   21.9060 O   0  0  0  0  0  0  0  0  0  0  0  0
  -25.1648  -30.5606   24.1724 O   0  0  0  0  0  0  0  0  0  0  0  0
  -26.5765  -23.4649   20.8265 O   0  0  0  0  0  0  0  0  0  0  0  0
  -25.3414  -10.5122   21.7037 O   0  0  0  0  0  0  0  0  0  0  0  0
  -21.1702  -27.4721   19.6055 O   0  0  0  0  0  0  0  0  0  1  0  0
  -20.5534   -7.9105   20.8608 F   0  0  0  0  0  0  0  0  0  0  0  0
  -23.7426   -9.7596   23.8298 F   0  0  0  0  0  0  0  0  0  0  0  0
  1  2  1  0  0  0  0
  1  5  2  0  0  0  0
  2  6  2  0  0  0  0
  3  8  2  0  0  0  0
  3 16  1  0  0  0  0
  4  9  1  0  0  0  0
  4 16  2  0  0  0  0
  5 18  1  0  0  0  0
  6 20  1  0  0  0  0
  7 10  2  0  0  0  0
  7 19  1  0  0  0  0
  8 22  1  0  0  0  0
  9 22  2  0  0  0  0
 10 23  1  0  0  0  0
 11 12  2  0  0  0  0
 11 24  1  0  0  0  0
 12 25  1  0  0  0  0
 13 21  1  0  0  0  0
 13 23  2  0  0  0  0
 14 25  2  0  0  0  0
 14 26  1  0  0  0  0
 15 28  2  0  0  0  0
 15 67  1  0  0  0  0
 16 27  1  0  0  0  0
 17 27  1  0  0  0  0
 17 29  2  0  0  0  0
 17 33  1  0  0  0  0
 18 20  2  0  0  0  0
 18 38  1  0  0  0  0
 19 21  2  0  0  0  0
 19 39  1  0  0  0  0
 20 47  1  0  0  0  0
 21 40  1  0  0  0  0
 22 83  1  0  0  0  0
 23 84  1  0  0  0  0
 24 26  2  0  0  0  0
 24 83  1  0  0  0  0
 25 85  1  0  0  0  0
 26 86  1  0  0  0  0
 27 64  2  0  0  0  0
 28 50  1  0  0  0  0
 28 69  1  0  0  0  0
 29 68  1  0  0  0  0
 29 72  1  0  0  0  0
 30 31  1  0  0  0  0
 30 67  1  0  0  0  0
 30 69  2  0  0  0  0
 31 57  1  0  0  0  0
 31 65  2  0  0  0  0
 32 60  1  0  0  0  0
 32 65  1  0  0  0  0
 32 66  2  0  0  0  0
 33 73  1  0  0  0  0
 33 78  2  0  0  0  0
 34 48  1  0  0  0  0
 34 74  1  0  0  0  0
 34 79  2  0  0  0  0
 35 61  1  0  0  0  0
 35 70  1  0  0  0  0
 35 80  2  0  0  0  0
 36 62  1  0  0  0  0
 36 75  1  0  0  0  0
 36 81  2  0  0  0  0
 37 71  1  0  0  0  0
 37 76  1  0  0  0  0
 37 82  2  0  0  0  0
 38 41  1  0  0  0  0
 39 48  1  0  0  0  0
 40 70  1  0  0  0  0
 41 43  1  0  0  0  0
 42 44  1  0  0  0  0
 42 45  1  0  0  0  0
 43 47  1  0  0  0  0
 44 49  1  0  0  0  0
 45 71  1  0  0  0  0
 46 49  1  0  0  0  0
 46 71  1  0  0  0  0
 47 74  1  0  0  0  0
 48 70  1  0  0  0  0
 49 68  1  0  0  0  0
 51 60  1  0  0  0  0
 52 62  1  0  0  0  0
 53 63  1  0  0  0  0
 54 63  1  0  0  0  0
 55 63  1  0  0  0  0
 56 77  1  0  0  0  0
 57 58  1  0  0  0  0
 58 59  1  0  0  0  0
 59 84  1  0  0  0  0
 60 76  1  0  0  0  0
 61 63  1  0  0  0  0
 61 75  1  0  0  0  0
 62 77  1  0  0  0  0
 64 68  1  0  0  0  0
 66 67  1  0  0  0  0
M  CHG  2  69   1  77   1
M  ISO  4  37 100  59 101  76 100  84 101
M  END
> <Batch ID>
0063

> <Smiles>
CNC(C)C(=O)NC(C(=O)N1Cc2cc([101O:1][101CH2:1]CCc3nc(C(C)[100NH:0][100C:0](=O)N4CCCC(n5nc(-c6ccc(Oc7ccc(F)cc7F)cc6)c(C(N)=O)c5N)C4)nn4cc(C)nc34)ccc2CC1C(=O)NC1CCCc2ccccc21)C(C)(C)C

> <Shape>
0.217

> <Color>
0.064

> <Negative vol penalty>
0.000

$$$$

  -OEChem-04052318023D

 89 97  0     1  0  0  0  0  0999 V2000
  -16.9659  -29.2859   24.4820 C   0  0  0  0  0  0  0  0  0  0  0  0
  -17.3829  -28.2003   23.7184 C   0  0  0  0  0  0  0  0  0  0  0  0
  -23.1031  -17.0758   22.5104 C   0  0  0  0  0  0  0  0  0  0  0  0
  -25.0671  -15.8762   21.7752 C   0  0  0  0  0  0  0  0  0  0  0  0
  -17.5889  -30.5239   24.3302 C   0  0  0  0  0  0  0  0  0  0  0  0
  -18.4225  -28.3525   22.8016 C   0  0  0  0  0  0  0  0  0  0  0  0
  -22.6630  -24.1897   21.3200 C   0  0  0  0  0  0  0  0  0  0  0  0
  -22.2908  -16.1130   21.9115 C   0  0  0  0  0  0  0  0  0  0  0  0
  -24.2548  -14.9133   21.1763 C   0  0  0  0  0  0  0  0  0  0  0  0
  -22.7720  -23.3012   20.2512 C   0  0  0  0  0  0  0  0  0  0  0  0
  -22.6974  -11.9475   19.7635 C   0  0  0  0  0  0  0  0  0  0  0  0
  -23.0268  -10.6065   19.9604 C   0  0  0  0  0  0  0  0  0  0  0  0
  -24.1779  -24.8803   19.0896 C   0  0  0  0  0  0  0  0  0  0  0  0
  -22.7652  -10.8924   22.3451 C   0  0  0  0  0  0  0  0  0  0  0  0
  -28.9932  -17.9293   17.8350 C   0  0  0  0  0  0  0  0  0  0  0  0
  -24.4913  -16.9575   22.4422 C   0  0  0  0  0  0  0  0  0  0  0  0
  -25.8228  -17.9487   24.3792 C   0  0  0  0  0  0  0  0  0  0  0  0
  -18.6432  -30.6889   23.4180 C   0  0  0  0  0  0  0  0  0  0  0  0
  -23.3029  -25.4368   21.2769 C   0  0  0  0  0  0  0  0  0  0  0  0
  -19.0593  -29.5942   22.6365 C   0  0  0  0  0  0  0  0  0  0  0  0
  -24.0776  -25.7818   20.1603 C   0  0  0  0  0  0  0  0  0  0  0  0
  -22.8666  -15.0318   21.2445 C   0  0  0  0  0  0  0  0  0  0  0  0
  -23.5271  -23.6476   19.1345 C   0  0  0  0  0  0  0  0  0  0  0  0
  -22.4019  -12.7610   20.8574 C   0  0  0  0  0  0  0  0  0  0  0  0
  -23.0607  -10.0789   21.2512 C   0  0  0  0  0  0  0  0  0  0  0  0
  -22.4358  -12.2334   22.1482 C   0  0  0  0  0  0  0  0  0  0  0  0
  -25.3309  -17.9521   23.0602 C   0  0  0  0  0  0  0  0  0  0  0  0
  -28.2224  -18.9599   17.3762 C   0  0  0  0  0  0  0  0  0  0  0  0
  -26.5631  -19.1019   24.4725 C   0  0  0  0  0  0  0  0  0  0  0  0
  -29.9479  -19.8267   18.4587 C   0  0  0  0  0  0  0  0  0  0  0  0
  -25.6281  -16.9891   25.4265 C   0  0  0  0  0  0  0  0  0  0  0  0
  -22.3276  -28.4615   21.3370 C   0  0  0  0  0  0  0  0  0  0  0  0
  -25.5096  -29.0768   21.4718 C   0  0  0  0  0  0  0  0  0  0  0  0
  -28.6929  -28.0299   20.8255 C   0  0  0  0  0  0  0  0  0  0  0  0
  -29.1029  -22.3716   19.9562 C   0  0  0  0  0  0  0  0  0  0  0  0
  -19.2544  -32.0580   23.2548 C   0  0  0  0  0  0  0  0  0  0  0  0
  -23.1974  -26.3730   22.4494 C   0  0  0  0  0  0  0  0  0  0  0  0
  -24.8007  -27.1001   20.0735 C   0  0  0  0  0  0  0  0  0  0  0  0
  -20.5981  -32.0428   22.5306 C   0  0  0  0  0  0  0  0  0  0  0  0
  -26.8752  -23.5205   22.6799 C   0  0  0  0  0  0  0  0  0  0  0  0
  -20.5226  -31.1673   21.2838 C   0  0  0  0  0  0  0  0  0  0  0  0
  -26.2190  -22.2213   23.1439 C   0  0  0  0  0  0  0  0  0  0  0  0
  -27.2760  -23.4598   21.2091 C   0  0  0  0  0  0  0  0  0  0  0  0
  -27.4856  -20.9991   21.3322 C   0  0  0  0  0  0  0  0  0  0  0  0
  -20.2001  -29.7134   21.6493 C   0  0  1  0  0  0  0  0  0  0  0  0
  -23.4700  -27.8276   22.0791 C   0  0  1  0  0  0  0  0  0  0  0  0
  -27.1118  -21.0103   22.8220 C   0  0  2  0  0  0  0  0  0  0  0  0
  -31.2021  -28.0648   20.8324 C   0  0  0  0  0  0  0  0  0  0  0  0
  -32.4613  -22.8252   18.7104 C   0  0  0  0  0  0  0  0  0  0  0  0
  -32.3198  -21.0631   16.9513 C   0  0  0  0  0  0  0  0  0  0  0  0
  -25.1292  -30.9141   19.0656 C   0  0  0  0  0  0  0  0  0  0  0  0
  -27.6081  -30.8583   18.7191 C   0  0  0  0  0  0  0  0  0  0  0  0
  -26.6661  -31.8052   20.8259 C   0  0  0  0  0  0  0  0  0  0  0  0
  -24.4313  -18.4682   16.5091 C   0  0  0  0  0  0  0  0  0  0  0  0
  -25.7066  -18.0180   18.6107 C   0  0  0  0  0  0  0  0  0  0  0  0
  -31.1216  -17.7566   19.1463 C   0  0  0  0  0  0  0  0  0  0  0  0
  -30.6336  -21.1824   21.4801 C   0  0  0  0  0  0  0  0  0  0  0  0
  -28.8208  -26.6252   23.4273 C   0  0  0  0  0  0  0  0  0  0  0  0
  -26.9363  -18.9685   16.5808 C   0  0  0  0  0  0  0  0  0  0  0  0
  -25.1135  -21.4479   16.7484 C   0  0  0  0  0  0  0  0  0  0  0  0
  -25.2541  -20.3993   17.8562 C   0  0  0  0  0  0  0  0  0  0  0  0
  -24.8399  -22.8313   17.3273 C   0  0  0  0  0  0  0  0  0  1  0  0
  -30.8819  -20.8150   19.0534 C   0  0  1  0  0  0  0  0  0  0  0  0
  -26.5984  -29.3057   20.4514 C   0  0  1  0  0  0  0  0  0  0  0  0
  -29.9439  -28.0192   21.6854 C   0  0  2  0  0  0  0  0  0  0  0  0
  -31.5284  -21.8120   18.0317 C   0  0  0  0  0  0  0  0  0  0  0  0
  -26.4854  -30.6967   19.7660 C   0  0  0  0  0  0  0  0  0  0  0  0
  -25.6047  -18.9515   17.3897 C   0  0  0  0  0  0  0  0  0  0  0  0
  -25.7253  -19.0225   22.3655 N   0  0  0  0  0  0  0  0  0  0  0  0
  -30.0542  -18.4946   18.5005 N   0  0  0  0  0  0  0  0  0  0  0  0
  -26.4728  -19.7026   23.2513 N   0  0  0  0  0  0  0  0  0  0  0  0
  -28.8365  -20.1220   17.7767 N   0  3  0  0  0  0  0  0  0  0  0  0
  -24.6617  -27.9840   21.2426 N   0  0  0  0  0  0  0  0  0  0  0  0
  -28.0877  -22.2765   20.9222 N   0  0  0  0  0  0  0  0  0  0  0  0
  -27.2759  -19.6505   25.4791 N   0  0  0  0  0  0  0  0  0  0  0  0
  -24.8392  -15.8615   25.1612 N   0  0  0  0  0  0  0  0  0  0  0  0
  -21.3801  -29.0459   22.1557 N   0  0  0  0  0  0  0  0  0  0  0  0
  -27.8620  -29.0827   21.1457 N   0  0  0  0  0  0  0  0  0  0  0  0
  -30.2311  -21.5561   20.1317 N   0  0  0  0  0  0  0  0  0  0  0  0
  -29.9872  -26.7863   22.5214 N   0  3  0  0  0  0  0  0  0  0  0  0
  -26.1252  -17.1356   26.5688 O   0  0  0  0  0  0  0  0  0  0  0  0
  -22.3079  -28.4246   20.1123 O   0  0  0  0  0  0  0  0  0  0  0  0
  -25.4194  -29.8354   22.4404 O   0  0  0  0  0  0  0  0  0  0  0  0
  -28.4764  -27.1906   19.9542 O   0  0  0  0  0  0  0  0  0  0  0  0
  -29.0106  -23.1484   18.9970 O   0  0  0  0  0  0  0  0  0  0  0  0
  -22.0742  -14.0919   20.6602 O   0  0  0  0  0  0  0  0  0  0  0  0
  -23.6346  -22.7824   18.0896 O   0  0  0  0  0  0  0  0  0  1  0  0
  -23.3756   -8.7908   21.4400 F   0  0  0  0  0  0  0  0  0  0  0  0
  -22.1518  -13.0097   23.2029 F   0  0  0  0  0  0  0  0  0  0  0  0
  1  2  1  0  0  0  0
  1  5  2  0  0  0  0
  2  6  2  0  0  0  0
  3  8  2  0  0  0  0
  3 16  1  0  0  0  0
  4  9  1  0  0  0  0
  4 16  2  0  0  0  0
  5 18  1  0  0  0  0
  6 20  1  0  0  0  0
  7 10  2  0  0  0  0
  7 19  1  0  0  0  0
  8 22  1  0  0  0  0
  9 22  2  0  0  0  0
 10 23  1  0  0  0  0
 11 12  2  0  0  0  0
 11 24  1  0  0  0  0
 12 25  1  0  0  0  0
 13 21  1  0  0  0  0
 13 23  2  0  0  0  0
 14 25  2  0  0  0  0
 14 26  1  0  0  0  0
 15 28  2  0  0  0  0
 15 70  1  0  0  0  0
 16 27  1  0  0  0  0
 17 27  1  0  0  0  0
 17 29  2  0  0  0  0
 17 31  1  0  0  0  0
 18 20  2  0  0  0  0
 18 36  1  0  0  0  0
 19 21  2  0  0  0  0
 19 37  1  0  0  0  0
 20 45  1  0  0  0  0
 21 38  1  0  0  0  0
 22 86  1  0  0  0  0
 23 87  1  0  0  0  0
 24 26  2  0  0  0  0
 24 86  1  0  0  0  0
 25 88  1  0  0  0  0
 26 89  1  0  0  0  0
 27 69  2  0  0  0  0
 28 59  1  0  0  0  0
 28 72  1  0  0  0  0
 29 71  1  0  0  0  0
 29 75  1  0  0  0  0
 30 63  1  0  0  0  0
 30 70  1  0  0  0  0
 30 72  2  0  0  0  0
 31 76  1  0  0  0  0
 31 81  2  0  0  0  0
 32 46  1  0  0  0  0
 32 77  1  0  0  0  0
 32 82  2  0  0  0  0
 33 64  1  0  0  0  0
 33 73  1  0  0  0  0
 33 83  2  0  0  0  0
 34 65  1  0  0  0  0
 34 78  1  0  0  0  0
 34 84  2  0  0  0  0
 35 74  1  0  0  0  0
 35 79  1  0  0  0  0
 35 85  2  0  0  0  0
 36 39  1  0  0  0  0
 37 46  1  0  0  0  0
 38 73  1  0  0  0  0
 39 41  1  0  0  0  0
 40 42  1  0  0  0  0
 40 43  1  0  0  0  0
 41 45  1  0  0  0  0
 42 47  1  0  0  0  0
 43 74  1  0  0  0  0
 44 47  1  0  0  0  0
 44 74  1  0  0  0  0
 45 77  1  0  0  0  0
 46 73  1  0  0  0  0
 47 71  1  0  0  0  0
 48 65  1  0  0  0  0
 49 66  1  0  0  0  0
 50 66  1  0  0  0  0
 51 67  1  0  0  0  0
 52 67  1  0  0  0  0
 53 67  1  0  0  0  0
 54 68  1  0  0  0  0
 55 68  1  0  0  0  0
 56 70  1  0  0  0  0
 57 79  1  0  0  0  0
 58 80  1  0  0  0  0
 59 68  1  0  0  0  0
 60 61  1  0  0  0  0
 60 62  1  0  0  0  0
 61 68  1  0  0  0  0
 62 87  1  0  0  0  0
 63 66  1  0  0  0  0
 63 79  1  0  0  0  0
 64 67  1  0  0  0  0
 64 78  1  0  0  0  0
 65 80  1  0  0  0  0
 69 71  1  0  0  0  0
M  CHG  2  72   1  80   1
M  ISO  4  35 100  62 101  79 100  87 101
M  END
> <Batch ID>
0063

> <Smiles>
CNC(C)C(=O)NC(C(=O)N1Cc2cc([101O:1][101CH2:1]CCC(C)(C)Cc3cn(C)c(C(C(C)C)[100N:0](C)[100C:0](=O)N4CCCC(n5nc(-c6ccc(Oc7ccc(F)cc7F)cc6)c(C(N)=O)c5N)C4)n3)ccc2CC1C(=O)NC1CCCc2ccccc21)C(C)(C)C

> <Shape>
0.208

> <Color>
0.080

> <Negative vol penalty>
0.000

$$$$

  -OEChem-04052318023D

 94102  0     1  0  0  0  0  0999 V2000
  -24.2098   -8.7862   18.5776 C   0  0  0  0  0  0  0  0  0  0  0  0
  -24.8943   -9.8063   17.9247 C   0  0  0  0  0  0  0  0  0  0  0  0
  -20.1366  -28.4951   23.8051 C   0  0  0  0  0  0  0  0  0  0  0  0
  -20.5082  -26.9468   21.9880 C   0  0  0  0  0  0  0  0  0  0  0  0
  -23.5441   -9.0495   19.7740 C   0  0  0  0  0  0  0  0  0  0  0  0
  -24.9126  -11.0906   18.4674 C   0  0  0  0  0  0  0  0  0  0  0  0
  -29.1189  -16.8641   19.0068 C   0  0  0  0  0  0  0  0  0  0  0  0
  -18.7867  -28.5731   23.4627 C   0  0  0  0  0  0  0  0  0  0  0  0
  -19.1583  -27.0248   21.6456 C   0  0  0  0  0  0  0  0  0  0  0  0
  -29.0939  -18.2397   18.7815 C   0  0  0  0  0  0  0  0  0  0  0  0
  -16.2337  -25.7331   22.7408 C   0  0  0  0  0  0  0  0  0  0  0  0
  -15.5679  -24.5400   22.4601 C   0  0  0  0  0  0  0  0  0  0  0  0
  -27.9749  -18.5594   20.8945 C   0  0  0  0  0  0  0  0  0  0  0  0
  -15.0713  -25.3405   20.2353 C   0  0  0  0  0  0  0  0  0  0  0  0
  -20.9974  -27.6820   23.0678 C   0  0  0  0  0  0  0  0  0  0  0  0
  -22.9915  -26.6949   24.3155 C   0  0  0  0  0  0  0  0  0  0  0  0
  -23.5623  -10.3355   20.3366 C   0  0  0  0  0  0  0  0  0  0  0  0
  -28.5613  -16.3239   20.1747 C   0  0  0  0  0  0  0  0  0  0  0  0
  -24.2454  -11.3717   19.6718 C   0  0  0  0  0  0  0  0  0  0  0  0
  -27.9964  -17.1769   21.1335 C   0  0  0  0  0  0  0  0  0  0  0  0
  -18.2975  -27.8379   22.3829 C   0  0  0  0  0  0  0  0  0  0  0  0
  -28.5193  -19.0874   19.7240 C   0  0  0  0  0  0  0  0  0  0  0  0
  -16.3183  -26.7300   21.7687 C   0  0  0  0  0  0  0  0  0  0  0  0
  -14.9867  -24.3437   21.2074 C   0  0  0  0  0  0  0  0  0  0  0  0
  -15.7371  -26.5336   20.5160 C   0  0  0  0  0  0  0  0  0  0  0  0
  -22.3920  -27.6014   23.4207 C   0  0  0  0  0  0  0  0  0  0  0  0
  -28.0220  -25.2263   19.2965 C   0  0  0  0  0  0  0  0  0  0  0  0
  -27.9316  -22.6756   20.0794 C   0  0  0  0  0  0  0  0  0  0  0  0
  -26.9625  -23.5736   20.4694 C   0  0  0  0  0  0  0  0  0  0  0  0
  -28.9915  -24.3286   18.9071 C   0  0  0  0  0  0  0  0  0  0  0  0
  -24.3236  -27.0291   24.3019 C   0  0  0  0  0  0  0  0  0  0  0  0
  -22.3973  -25.6444   25.0896 C   0  0  0  0  0  0  0  0  0  0  0  0
  -26.1867  -14.3058   20.8010 C   0  0  0  0  0  0  0  0  0  0  0  0
  -27.2810  -14.5738   23.8429 C   0  0  0  0  0  0  0  0  0  0  0  0
  -28.9847  -16.4144   26.1574 C   0  0  0  0  0  0  0  0  0  0  0  0
  -27.4523  -30.0291   19.9717 C   0  0  0  0  0  0  0  0  0  0  0  0
  -22.7885  -10.5829   21.6073 C   0  0  0  0  0  0  0  0  0  0  0  0
  -28.6201  -14.8403   20.4152 C   0  0  0  0  0  0  0  0  0  0  0  0
  -27.4025  -16.6489   22.4129 C   0  0  0  0  0  0  0  0  0  0  0  0
  -23.1700  -11.8837   22.3092 C   0  0  0  0  0  0  0  0  0  0  0  0
  -27.2598  -30.7335   23.6006 C   0  0  0  0  0  0  0  0  0  0  0  0
  -23.2367  -13.0316   21.3068 C   0  0  0  0  0  0  0  0  0  0  0  0
  -25.9948  -29.9856   24.0184 C   0  0  0  0  0  0  0  0  0  0  0  0
  -27.2008  -31.1771   22.1420 C   0  0  0  0  0  0  0  0  0  0  0  0
  -25.6555  -29.3231   21.6046 C   0  0  0  0  0  0  0  0  0  0  0  0
  -24.3090  -12.7722   20.2417 C   0  0  1  0  0  0  0  0  0  0  0  0
  -27.5633  -14.3525   21.4014 C   0  0  1  0  0  0  0  0  0  0  0  0
  -25.7025  -28.8216   23.0557 C   0  0  2  0  0  0  0  0  0  0  0  0
  -29.6804  -16.3911   28.5683 C   0  0  0  0  0  0  0  0  0  0  0  0
  -24.8516  -22.1343   19.0841 C   0  0  0  0  0  0  0  0  0  0  0  0
  -23.4453  -22.1140   21.1417 C   0  0  0  0  0  0  0  0  0  0  0  0
  -26.2475  -22.5960   22.7484 C   0  0  0  0  0  0  0  0  0  0  0  0
  -24.9498  -24.4172   21.6911 C   0  0  0  0  0  0  0  0  0  0  0  0
  -24.4373  -15.3101   24.6681 C   0  0  0  0  0  0  0  0  0  0  0  0
  -25.3633  -16.1818   26.8247 C   0  0  0  0  0  0  0  0  0  0  0  0
  -25.6154  -13.7684   26.2460 C   0  0  0  0  0  0  0  0  0  0  0  0
  -27.1136  -29.1136   17.7075 C   0  0  0  0  0  0  0  0  0  0  0  0
  -31.8578  -16.4646   25.4491 C   0  0  0  0  0  0  0  0  0  0  0  0
  -28.0641  -26.6522   18.8648 C   0  0  0  0  0  0  0  0  0  0  0  0
  -27.8887  -21.2401   20.5140 C   0  0  0  0  0  0  0  0  0  1  0  0
  -27.0758  -27.5522   19.6170 C   0  0  0  0  0  0  0  0  0  0  0  0
  -26.9905  -15.4904   25.0067 C   0  0  1  0  0  0  0  0  0  0  0  0
  -30.0741  -16.0335   27.1436 C   0  0  2  0  0  0  0  0  0  0  0  0
  -24.8915  -22.0800   20.6194 C   0  0  0  0  0  0  0  0  0  0  0  0
  -25.8264  -23.1610   21.3416 C   0  0  0  0  0  0  0  0  0  0  0  0
  -30.1282  -24.7416   18.0360 C   0  0  0  0  0  0  0  0  0  0  0  0
  -25.6110  -15.1978   25.6615 C   0  0  0  0  0  0  0  0  0  0  0  0
  -31.3288  -25.2254   18.8364 C   0  0  0  0  0  0  0  0  0  0  0  0
  -23.2712  -28.4481   22.8783 N   0  0  0  0  0  0  0  0  0  0  0  0
  -26.9901  -24.8650   20.0847 N   0  0  0  0  0  0  0  0  0  0  0  0
  -28.9636  -23.0370   19.2916 N   0  0  0  0  0  0  0  0  0  0  0  0
  -24.4366  -28.0751   23.4339 N   0  0  0  0  0  0  0  0  0  0  0  0
  -27.4785  -15.1905   22.5993 N   0  0  0  0  0  0  0  0  0  0  0  0
  -26.8788  -30.0600   21.2535 N   0  0  0  0  0  0  0  0  0  0  0  0
  -25.3976  -26.5276   24.9479 N   0  0  0  0  0  0  0  0  0  0  0  0
  -21.0152  -25.4370   24.9847 N   0  0  0  0  0  0  0  0  0  0  0  0
  -25.6269  -13.0427   20.7749 N   0  0  0  0  0  0  0  0  0  0  0  0
  -28.1230  -15.3649   25.9178 N   0  0  0  0  0  0  0  0  0  0  0  0
  -27.1291  -28.9367   19.1526 N   0  0  0  0  0  0  0  0  0  0  0  0
  -31.3423  -16.7435   26.8142 N   0  3  0  0  0  0  0  0  0  0  0  0
  -23.0695  -24.9222   25.8642 O   0  0  0  0  0  0  0  0  0  0  0  0
  -25.6701  -15.3394   20.3931 O   0  0  0  0  0  0  0  0  0  0  0  0
  -27.3380  -13.3561   24.0317 O   0  0  0  0  0  0  0  0  0  0  0  0
  -28.9038  -17.5322   25.6531 O   0  0  0  0  0  0  0  0  0  0  0  0
  -28.2175  -30.9218   19.5853 O   0  0  0  0  0  0  0  0  0  0  0  0
  -16.9803  -27.9136   22.0486 O   0  0  0  0  0  0  0  0  0  0  0  0
  -28.4930  -20.4304   19.5063 O   0  0  0  0  0  0  0  0  0  1  0  0
  -14.3487  -23.1973   20.9375 F   0  0  0  0  0  0  0  0  0  0  0  0
  -15.8160  -27.4872   19.5777 F   0  0  0  0  0  0  0  0  0  0  0  0
  -30.5728  -23.7285   17.2240 F   0  0  0  0  0  0  0  0  0  0  0  0
  -29.7951  -25.7513   17.1682 F   0  0  0  0  0  0  0  0  0  0  0  0
  -31.7885  -24.2532   19.6561 F   0  0  0  0  0  0  0  0  0  0  0  0
  -31.0107  -26.2885   19.6057 F   0  0  0  0  0  0  0  0  0  0  0  0
  -32.3461  -25.5877   18.0258 F   0  0  0  0  0  0  0  0  0  0  0  0
  1  2  1  0  0  0  0
  1  5  2  0  0  0  0
  2  6  2  0  0  0  0
  3  8  2  0  0  0  0
  3 15  1  0  0  0  0
  4  9  1  0  0  0  0
  4 15  2  0  0  0  0
  5 17  1  0  0  0  0
  6 19  1  0  0  0  0
  7 10  2  0  0  0  0
  7 18  1  0  0  0  0
  8 21  1  0  0  0  0
  9 21  2  0  0  0  0
 10 22  1  0  0  0  0
 11 12  2  0  0  0  0
 11 23  1  0  0  0  0
 12 24  1  0  0  0  0
 13 20  1  0  0  0  0
 13 22  2  0  0  0  0
 14 24  2  0  0  0  0
 14 25  1  0  0  0  0
 15 26  1  0  0  0  0
 16 26  1  0  0  0  0
 16 31  2  0  0  0  0
 16 32  1  0  0  0  0
 17 19  2  0  0  0  0
 17 37  1  0  0  0  0
 18 20  2  0  0  0  0
 18 38  1  0  0  0  0
 19 46  1  0  0  0  0
 20 39  1  0  0  0  0
 21 86  1  0  0  0  0
 22 87  1  0  0  0  0
 23 25  2  0  0  0  0
 23 86  1  0  0  0  0
 24 88  1  0  0  0  0
 25 89  1  0  0  0  0
 26 69  2  0  0  0  0
 27 30  1  0  0  0  0
 27 59  1  0  0  0  0
 27 70  2  0  0  0  0
 28 29  2  0  0  0  0
 28 60  1  0  0  0  0
 28 71  1  0  0  0  0
 29 65  1  0  0  0  0
 29 70  1  0  0  0  0
 30 66  1  0  0  0  0
 30 71  2  0  0  0  0
 31 72  1  0  0  0  0
 31 75  1  0  0  0  0
 32 76  1  0  0  0  0
 32 81  2  0  0  0  0
 33 47  1  0  0  0  0
 33 77  1  0  0  0  0
 33 82  2  0  0  0  0
 34 62  1  0  0  0  0
 34 73  1  0  0  0  0
 34 83  2  0  0  0  0
 35 63  1  0  0  0  0
 35 78  1  0  0  0  0
 35 84  2  0  0  0  0
 36 74  1  0  0  0  0
 36 79  1  0  0  0  0
 36 85  2  0  0  0  0
 37 40  1  0  0  0  0
 38 47  1  0  0  0  0
 39 73  1  0  0  0  0
 40 42  1  0  0  0  0
 41 43  1  0  0  0  0
 41 44  1  0  0  0  0
 42 46  1  0  0  0  0
 43 48  1  0  0  0  0
 44 74  1  0  0  0  0
 45 48  1  0  0  0  0
 45 74  1  0  0  0  0
 46 77  1  0  0  0  0
 47 73  1  0  0  0  0
 48 72  1  0  0  0  0
 49 63  1  0  0  0  0
 50 64  1  0  0  0  0
 51 64  1  0  0  0  0
 52 65  1  0  0  0  0
 53 65  1  0  0  0  0
 54 67  1  0  0  0  0
 55 67  1  0  0  0  0
 56 67  1  0  0  0  0
 57 79  1  0  0  0  0
 58 80  1  0  0  0  0
 59 61  1  0  0  0  0
 60 87  1  0  0  0  0
 61 79  1  0  0  0  0
 62 67  1  0  0  0  0
 62 78  1  0  0  0  0
 63 80  1  0  0  0  0
 64 65  1  0  0  0  0
 66 68  1  0  0  0  0
 66 90  1  0  0  0  0
 66 91  1  0  0  0  0
 68 92  1  0  0  0  0
 68 93  1  0  0  0  0
 68 94  1  0  0  0  0
 69 72  1  0  0  0  0
M  CHG  1  80   1
M  ISO  4  36 100  60 101  79 100  87 101
M  END
> <Batch ID>
0063

> <Smiles>
CNC(C)C(=O)NC(C(=O)N1Cc2cc([101O:1][101CH2:1]c3nc(C(F)(F)C(F)(F)F)c(CC[100N:0](C)[100C:0](=O)N4CCCC(n5nc(-c6ccc(Oc7ccc(F)cc7F)cc6)c(C(N)=O)c5N)C4)nc3C(C)(C)C(C)C)ccc2CC1C(=O)NC1CCCc2ccccc21)C(C)(C)C

> <Shape>
0.244

> <Color>
0.071

> <Negative vol penalty>
0.000

$$$$

  -OEChem-04052318023D

 87 95  0     1  0  0  0  0  0999 V2000
  -32.8634  -33.0420   25.4494 C   0  0  0  0  0  0  0  0  0  0  0  0
  -32.9493  -31.7321   25.9100 C   0  0  0  0  0  0  0  0  0  0  0  0
  -23.2243   -9.7355   20.0287 C   0  0  0  0  0  0  0  0  0  0  0  0
  -23.8239   -9.9789   22.3565 C   0  0  0  0  0  0  0  0  0  0  0  0
  -31.8267  -33.4123   24.5938 C   0  0  0  0  0  0  0  0  0  0  0  0
  -31.9978  -30.7919   25.5160 C   0  0  0  0  0  0  0  0  0  0  0  0
  -32.9239  -24.8267   24.4846 C   0  0  0  0  0  0  0  0  0  0  0  0
  -22.5081   -8.5783   20.3342 C   0  0  0  0  0  0  0  0  0  0  0  0
  -23.1076   -8.8216   22.6620 C   0  0  0  0  0  0  0  0  0  0  0  0
  -32.7103  -23.6947   25.2700 C   0  0  0  0  0  0  0  0  0  0  0  0
  -19.8772   -7.9426   23.1232 C   0  0  0  0  0  0  0  0  0  0  0  0
  -19.0435   -7.9744   24.2410 C   0  0  0  0  0  0  0  0  0  0  0  0
  -30.5743  -23.3623   24.1994 C   0  0  0  0  0  0  0  0  0  0  0  0
  -20.3019   -6.1651   25.2311 C   0  0  0  0  0  0  0  0  0  0  0  0
  -30.2246  -19.0283   24.9892 C   0  0  0  0  0  0  0  0  0  0  0  0
  -23.8823  -10.4359   21.0399 C   0  0  0  0  0  0  0  0  0  0  0  0
  -24.1382  -12.9527   20.7118 C   0  0  0  0  0  0  0  0  0  0  0  0
  -30.8676  -32.4739   24.1814 C   0  0  0  0  0  0  0  0  0  0  0  0
  -31.9578  -25.2418   23.5568 C   0  0  0  0  0  0  0  0  0  0  0  0
  -30.9466  -31.1504   24.6551 C   0  0  0  0  0  0  0  0  0  0  0  0
  -30.7792  -24.4984   23.4016 C   0  0  0  0  0  0  0  0  0  0  0  0
  -22.4497   -8.1213   21.6508 C   0  0  0  0  0  0  0  0  0  0  0  0
  -31.5342  -22.9640   25.1295 C   0  0  0  0  0  0  0  0  0  0  0  0
  -20.9233   -7.0220   23.0593 C   0  0  0  0  0  0  0  0  0  0  0  0
  -19.2559   -7.0857   25.2950 C   0  0  0  0  0  0  0  0  0  0  0  0
  -21.1357   -6.1333   24.1132 C   0  0  0  0  0  0  0  0  0  0  0  0
  -24.6228  -11.6311   20.7249 C   0  0  0  0  0  0  0  0  0  0  0  0
  -31.5712  -19.0039   25.2781 C   0  0  0  0  0  0  0  0  0  0  0  0
  -30.6145  -17.8463   23.0709 C   0  0  0  0  0  0  0  0  0  0  0  0
  -31.9613  -17.8224   23.3592 C   0  0  0  0  0  0  0  0  0  0  0  0
  -25.2243  -13.7132   20.3534 C   0  0  0  0  0  0  0  0  0  0  0  0
  -22.8237  -13.4486   20.9980 C   0  0  0  0  0  0  0  0  0  0  0  0
  -30.1752  -27.8477   23.1887 C   0  0  0  0  0  0  0  0  0  0  0  0
  -29.3131  -26.3934   20.4203 C   0  0  0  0  0  0  0  0  0  0  0  0
  -28.9773  -23.4927   18.6540 C   0  0  0  0  0  0  0  0  0  0  0  0
  -30.5542  -15.0220   20.6510 C   0  0  0  0  0  0  0  0  0  0  0  0
  -29.7382  -32.9326   23.2932 C   0  0  0  0  0  0  0  0  0  0  0  0
  -32.2151  -26.4498   22.6982 C   0  0  0  0  0  0  0  0  0  0  0  0
  -29.7196  -24.8904   22.4056 C   0  0  0  0  0  0  0  0  0  0  0  0
  -28.9849  -31.7856   22.6245 C   0  0  0  0  0  0  0  0  0  0  0  0
  -29.7515  -12.3704   18.5650 C   0  0  0  0  0  0  0  0  0  0  0  0
  -28.6648  -30.6933   23.6400 C   0  0  0  0  0  0  0  0  0  0  0  0
  -28.3062  -12.0378   18.9330 C   0  0  0  0  0  0  0  0  0  0  0  0
  -30.5694  -12.6942   19.8096 C   0  0  0  0  0  0  0  0  0  0  0  0
  -28.5563  -13.4956   21.0040 C   0  0  0  0  0  0  0  0  0  0  0  0
  -29.9477  -30.0958   24.2305 C   0  0  1  0  0  0  0  0  0  0  0  0
  -30.9368  -27.0756   22.1488 C   0  0  1  0  0  0  0  0  0  0  0  0
  -27.6806  -13.1604   19.7792 C   0  0  2  0  0  0  0  0  0  0  0  0
  -28.2110  -22.6178   16.4303 C   0  0  0  0  0  0  0  0  0  0  0  0
  -30.6218  -17.7519   20.4902 C   0  0  0  0  0  0  0  0  0  0  0  0
  -28.5252  -17.3617   21.7783 C   0  0  0  0  0  0  0  0  0  0  0  0
  -26.4085  -26.7479   21.2846 C   0  0  0  0  0  0  0  0  0  0  0  0
  -25.7602  -25.0594   19.5535 C   0  0  0  0  0  0  0  0  0  0  0  0
  -26.8389  -27.2000   18.8629 C   0  0  0  0  0  0  0  0  0  0  0  0
  -30.1692  -15.0749   23.0855 C   0  0  0  0  0  0  0  0  0  0  0  0
  -31.6594  -22.4113   18.0247 C   0  0  0  0  0  0  0  0  0  0  0  0
  -32.0980  -19.6618   26.5302 C   0  0  0  0  0  0  0  0  0  0  0  0
  -32.4745  -21.1219   26.3036 C   0  0  0  0  0  0  0  0  0  1  0  0
  -28.2268  -25.4274   20.0134 C   0  0  1  0  0  0  0  0  0  0  0  0
  -29.3947  -23.1182   17.2433 C   0  0  2  0  0  0  0  0  0  0  0  0
  -30.0714  -17.2028   21.8408 C   0  0  0  0  0  0  0  0  0  0  0  0
  -32.9379  -17.1520   22.4545 C   0  0  0  0  0  0  0  0  0  0  0  0
  -26.8275  -26.1021   19.9488 C   0  0  0  0  0  0  0  0  0  0  0  0
  -29.7220  -18.4499   23.8805 N   0  0  0  0  0  0  0  0  0  0  0  0
  -25.9161  -11.5529   20.4005 N   0  0  0  0  0  0  0  0  0  0  0  0
  -32.4638  -18.4005   24.4682 N   0  0  0  0  0  0  0  0  0  0  0  0
  -26.2534  -12.8350   20.1801 N   0  0  0  0  0  0  0  0  0  0  0  0
  -30.0147  -26.0826   21.5938 N   0  0  0  0  0  0  0  0  0  0  0  0
  -29.9434  -13.7605   20.5920 N   0  0  0  0  0  0  0  0  0  0  0  0
  -25.3900  -15.0407   20.1727 N   0  0  0  0  0  0  0  0  0  0  0  0
  -21.8252  -12.5304   21.3504 N   0  0  0  0  0  0  0  0  0  0  0  0
  -30.5528  -29.1727   23.2943 N   0  0  0  0  0  0  0  0  0  0  0  0
  -28.6612  -24.8310   18.7548 N   0  0  0  0  0  0  0  0  0  0  0  0
  -30.3667  -15.7714   21.8222 N   0  0  0  0  0  0  0  0  0  0  0  0
  -30.4290  -22.0457   17.2766 N   0  3  0  0  0  0  0  0  0  0  0  0
  -22.5388  -14.6682   20.9269 O   0  0  0  0  0  0  0  0  0  0  0  0
  -29.3081  -27.2835   23.8456 O   0  0  0  0  0  0  0  0  0  0  0  0
  -29.5360  -27.3833   19.7188 O   0  0  0  0  0  0  0  0  0  0  0  0
  -28.9323  -22.6785   19.5736 O   0  0  0  0  0  0  0  0  0  0  0  0
  -31.2362  -15.4531   19.7124 O   0  0  0  0  0  0  0  0  0  0  0  0
  -21.7506   -6.9922   21.9492 O   0  0  0  0  0  0  0  0  0  0  0  0
  -31.3229  -21.8591   25.8954 O   0  0  0  0  0  0  0  0  0  1  0  0
  -18.4561   -7.1173   26.3690 F   0  0  0  0  0  0  0  0  0  0  0  0
  -22.1397   -5.2475   24.0581 F   0  0  0  0  0  0  0  0  0  0  0  0
  -32.3644  -16.5869   21.3506 F   0  0  0  0  0  0  0  0  0  0  0  0
  -33.8974  -17.9926   21.9653 F   0  0  0  0  0  0  0  0  0  0  0  0
  -33.6177  -16.1411   23.0709 F   0  0  0  0  0  0  0  0  0  0  0  0
  1  2  1  0  0  0  0
  1  5  2  0  0  0  0
  2  6  2  0  0  0  0
  3  8  2  0  0  0  0
  3 16  1  0  0  0  0
  4  9  1  0  0  0  0
  4 16  2  0  0  0  0
  5 18  1  0  0  0  0
  6 20  1  0  0  0  0
  7 10  2  0  0  0  0
  7 19  1  0  0  0  0
  8 22  1  0  0  0  0
  9 22  2  0  0  0  0
 10 23  1  0  0  0  0
 11 12  2  0  0  0  0
 11 24  1  0  0  0  0
 12 25  1  0  0  0  0
 13 21  1  0  0  0  0
 13 23  2  0  0  0  0
 14 25  2  0  0  0  0
 14 26  1  0  0  0  0
 15 28  1  0  0  0  0
 15 64  2  0  0  0  0
 16 27  1  0  0  0  0
 17 27  1  0  0  0  0
 17 31  2  0  0  0  0
 17 32  1  0  0  0  0
 18 20  2  0  0  0  0
 18 37  1  0  0  0  0
 19 21  2  0  0  0  0
 19 38  1  0  0  0  0
 20 46  1  0  0  0  0
 21 39  1  0  0  0  0
 22 81  1  0  0  0  0
 23 82  1  0  0  0  0
 24 26  2  0  0  0  0
 24 81  1  0  0  0  0
 25 83  1  0  0  0  0
 26 84  1  0  0  0  0
 27 65  2  0  0  0  0
 28 57  1  0  0  0  0
 28 66  2  0  0  0  0
 29 30  2  0  0  0  0
 29 61  1  0  0  0  0
 29 64  1  0  0  0  0
 30 62  1  0  0  0  0
 30 66  1  0  0  0  0
 31 67  1  0  0  0  0
 31 70  1  0  0  0  0
 32 71  1  0  0  0  0
 32 76  2  0  0  0  0
 33 47  1  0  0  0  0
 33 72  1  0  0  0  0
 33 77  2  0  0  0  0
 34 59  1  0  0  0  0
 34 68  1  0  0  0  0
 34 78  2  0  0  0  0
 35 60  1  0  0  0  0
 35 73  1  0  0  0  0
 35 79  2  0  0  0  0
 36 69  1  0  0  0  0
 36 74  1  0  0  0  0
 36 80  2  0  0  0  0
 37 40  1  0  0  0  0
 38 47  1  0  0  0  0
 39 68  1  0  0  0  0
 40 42  1  0  0  0  0
 41 43  1  0  0  0  0
 41 44  1  0  0  0  0
 42 46  1  0  0  0  0
 43 48  1  0  0  0  0
 44 69  1  0  0  0  0
 45 48  1  0  0  0  0
 45 69  1  0  0  0  0
 46 72  1  0  0  0  0
 47 68  1  0  0  0  0
 48 67  1  0  0  0  0
 49 60  1  0  0  0  0
 50 61  1  0  0  0  0
 51 61  1  0  0  0  0
 52 63  1  0  0  0  0
 53 63  1  0  0  0  0
 54 63  1  0  0  0  0
 55 74  1  0  0  0  0
 56 75  1  0  0  0  0
 57 58  1  0  0  0  0
 58 82  1  0  0  0  0
 59 63  1  0  0  0  0
 59 73  1  0  0  0  0
 60 75  1  0  0  0  0
 61 74  1  0  0  0  0
 62 85  1  0  0  0  0
 62 86  1  0  0  0  0
 62 87  1  0  0  0  0
 65 67  1  0  0  0  0
M  CHG  1  75   1
M  ISO  4  36 100  58 101  74 100  82 101
M  END
> <Batch ID>
0063

> <Smiles>
CNC(C)C(=O)NC(C(=O)N1Cc2cc([101O:1][101CH2:1]Cc3cnc(C(C)(C)[100N:0](C)[100C:0](=O)N4CCCC(n5nc(-c6ccc(Oc7ccc(F)cc7F)cc6)c(C(N)=O)c5N)C4)c(C(F)(F)F)n3)ccc2CC1C(=O)NC1CCCc2ccccc21)C(C)(C)C

> <Shape>
0.251

> <Color>
0.191

> <Negative vol penalty>
0.000

$$$$

  -OEChem-04052318023D

 87 96  0     1  0  0  0  0  0999 V2000
  -24.7762  -17.4561   13.4679 C   0  0  0  0  0  0  0  0  0  0  0  0
  -24.4027  -18.3165   14.4953 C   0  0  0  0  0  0  0  0  0  0  0  0
  -25.0491  -31.2969   22.1845 C   0  0  0  0  0  0  0  0  0  0  0  0
  -25.6047  -30.1756   24.2511 C   0  0  0  0  0  0  0  0  0  0  0  0
  -25.5309  -16.3188   13.7523 C   0  0  0  0  0  0  0  0  0  0  0  0
  -24.7828  -18.0395   15.8081 C   0  0  0  0  0  0  0  0  0  0  0  0
  -26.2355  -22.1011   20.1553 C   0  0  0  0  0  0  0  0  0  0  0  0
  -25.8346  -32.3853   22.5638 C   0  0  0  0  0  0  0  0  0  0  0  0
  -26.3902  -31.2640   24.6304 C   0  0  0  0  0  0  0  0  0  0  0  0
  -25.5063  -22.6461   21.2112 C   0  0  0  0  0  0  0  0  0  0  0  0
  -27.4063  -35.6118   23.1494 C   0  0  0  0  0  0  0  0  0  0  0  0
  -26.8795  -36.8899   22.9634 C   0  0  0  0  0  0  0  0  0  0  0  0
  -26.4378  -20.9924   22.7001 C   0  0  0  0  0  0  0  0  0  0  0  0
  -25.0349  -36.3422   24.4244 C   0  0  0  0  0  0  0  0  0  0  0  0
  -23.8081  -25.3333   25.1502 C   0  0  0  0  0  0  0  0  0  0  0  0
  -18.3338  -24.2640   28.6655 C   0  0  0  0  0  0  0  0  0  0  0  0
  -24.9340  -30.1920   23.0281 C   0  0  0  0  0  0  0  0  0  0  0  0
  -24.5337  -27.9336   21.9114 C   0  0  0  0  0  0  0  0  0  0  0  0
  -25.9286  -16.0328   15.0679 C   0  0  0  0  0  0  0  0  0  0  0  0
  -27.0644  -20.9890   20.3619 C   0  0  0  0  0  0  0  0  0  0  0  0
  -25.5423  -16.8965   16.1105 C   0  0  0  0  0  0  0  0  0  0  0  0
  -27.1785  -20.4368   21.6457 C   0  0  0  0  0  0  0  0  0  0  0  0
  -23.3928  -24.1970   24.4864 C   0  0  0  0  0  0  0  0  0  0  0  0
  -26.5052  -32.3688   23.7868 C   0  0  0  0  0  0  0  0  0  0  0  0
  -25.6051  -22.0900   22.4832 C   0  0  0  0  0  0  0  0  0  0  0  0
  -26.7474  -34.6988   23.9729 C   0  0  0  0  0  0  0  0  0  0  0  0
  -25.6939  -37.2551   23.6010 C   0  0  0  0  0  0  0  0  0  0  0  0
  -25.5617  -35.0641   24.6104 C   0  0  0  0  0  0  0  0  0  0  0  0
  -24.1223  -29.0677   22.6371 C   0  0  0  0  0  0  0  0  0  0  0  0
  -22.3342  -23.5234   25.0608 C   0  0  0  0  0  0  0  0  0  0  0  0
  -23.3996  -27.1666   21.8011 C   0  0  0  0  0  0  0  0  0  0  0  0
  -22.2175  -25.0424   26.7479 C   0  0  0  0  0  0  0  0  0  0  0  0
  -19.1119  -25.4846   27.1616 C   0  0  0  0  0  0  0  0  0  0  0  0
  -25.8254  -27.6031   21.3843 C   0  0  0  0  0  0  0  0  0  0  0  0
  -27.1453  -18.0135   19.2467 C   0  0  0  0  0  0  0  0  0  0  0  0
  -29.9267  -17.8803   20.9106 C   0  0  0  0  0  0  0  0  0  0  0  0
  -31.8355  -19.0953   23.4654 C   0  0  0  0  0  0  0  0  0  0  0  0
  -18.4266  -26.7368   25.0858 C   0  0  0  0  0  0  0  0  0  0  0  0
  -26.7036  -14.7664   15.3328 C   0  0  0  0  0  0  0  0  0  0  0  0
  -27.8651  -20.4295   19.2181 C   0  0  0  0  0  0  0  0  0  0  0  0
  -28.0700  -19.2552   21.9243 C   0  0  0  0  0  0  0  0  0  0  0  0
  -27.3840  -14.7433   16.6992 C   0  0  0  0  0  0  0  0  0  0  0  0
  -18.6286  -27.5403   21.6231 C   0  0  0  0  0  0  0  0  0  0  0  0
  -26.4156  -15.2002   17.7855 C   0  0  0  0  0  0  0  0  0  0  0  0
  -20.0991  -27.9141   21.4228 C   0  0  0  0  0  0  0  0  0  0  0  0
  -18.1029  -28.0120   22.9777 C   0  0  0  0  0  0  0  0  0  0  0  0
  -20.3725  -27.9632   23.9347 C   0  0  0  0  0  0  0  0  0  0  0  0
  -25.9564  -16.6432   17.5439 C   0  0  1  0  0  0  0  0  0  0  0  0
  -28.2820  -18.9781   19.4342 C   0  0  1  0  0  0  0  0  0  0  0  0
  -20.9649  -27.4521   22.6113 C   0  0  2  0  0  0  0  0  0  0  0  0
  -21.7993  -22.2803   24.4299 C   0  0  0  0  0  0  0  0  0  0  0  0
  -34.0466  -18.7607   24.6039 C   0  0  0  0  0  0  0  0  0  0  0  0
  -21.5831  -27.0690   28.2487 C   0  0  0  0  0  0  0  0  0  0  0  0
  -22.3454  -24.9340   29.2427 C   0  0  0  0  0  0  0  0  0  0  0  0
  -28.8351  -15.3888   22.2928 C   0  0  0  0  0  0  0  0  0  0  0  0
  -30.6133  -15.6607   24.0341 C   0  0  0  0  0  0  0  0  0  0  0  0
  -31.2500  -15.2553   21.6565 C   0  0  0  0  0  0  0  0  0  0  0  0
  -32.7208  -21.8418   22.8080 C   0  0  0  0  0  0  0  0  0  0  0  0
  -24.0661  -23.7448   23.2241 C   0  0  0  0  0  0  0  0  0  1  0  0
  -30.3115  -17.5067   22.3217 C   0  0  1  0  0  0  0  0  0  0  0  0
  -33.2926  -19.5174   23.5215 C   0  0  2  0  0  0  0  0  0  0  0  0
  -21.5642  -25.5122   28.0035 C   0  0  0  0  0  0  0  0  0  0  0  0
  -30.2341  -15.9739   22.5710 C   0  0  0  0  0  0  0  0  0  0  0  0
  -23.2411  -25.7866   26.2875 N   0  0  0  0  0  0  0  0  0  0  0  0
  -17.9752  -24.9468   27.5386 N   0  0  0  0  0  0  0  0  0  0  0  0
  -19.6208  -24.3456   29.0095 N   0  0  0  0  0  0  0  0  0  0  0  0
  -22.8279  -29.0287   22.9645 N   0  0  0  0  0  0  0  0  0  0  0  0
  -21.7206  -23.9193   26.1953 N   0  0  0  0  0  0  0  0  0  0  0  0
  -22.4162  -27.8609   22.4421 N   0  0  0  0  0  0  0  0  0  0  0  0
  -20.0960  -25.1318   28.0316 N   0  0  0  0  0  0  0  0  0  0  0  0
  -28.8278  -18.7400   20.7720 N   0  0  0  0  0  0  0  0  0  0  0  0
  -18.9707  -27.5331   24.0559 N   0  0  0  0  0  0  0  0  0  0  0  0
  -23.1577  -25.9728   21.2192 N   0  0  0  0  0  0  0  0  0  0  0  0
  -26.8804  -28.5030   21.5880 N   0  0  0  0  0  0  0  0  0  0  0  0
  -19.3534  -26.3133   26.0378 N   0  0  0  0  0  0  0  0  0  0  0  0
  -26.9877  -17.5758   17.9456 N   0  0  0  0  0  0  0  0  0  0  0  0
  -31.6317  -18.0835   22.5511 N   0  0  0  0  0  0  0  0  0  0  0  0
  -33.3987  -20.9762   23.8072 N   0  3  0  0  0  0  0  0  0  0  0  0
  -26.0339  -26.5490   20.7371 O   0  0  0  0  0  0  0  0  0  0  0  0
  -26.4627  -17.6893   20.2114 O   0  0  0  0  0  0  0  0  0  0  0  0
  -30.5816  -17.4318   19.9663 O   0  0  0  0  0  0  0  0  0  0  0  0
  -30.9657  -19.6091   24.1654 O   0  0  0  0  0  0  0  0  0  0  0  0
  -17.2321  -26.4291   25.1059 O   0  0  0  0  0  0  0  0  0  0  0  0
  -27.2720  -33.4306   24.1571 O   0  0  0  0  0  0  0  0  0  0  0  0
  -24.8939  -22.6195   23.5155 O   0  0  0  0  0  0  0  0  0  1  0  0
  -25.1889  -38.4830   23.4235 F   0  0  0  0  0  0  0  0  0  0  0  0
  -24.9247  -34.1917   25.4036 F   0  0  0  0  0  0  0  0  0  0  0  0
  1  2  1  0  0  0  0
  1  5  2  0  0  0  0
  2  6  2  0  0  0  0
  3  8  2  0  0  0  0
  3 17  1  0  0  0  0
  4  9  1  0  0  0  0
  4 17  2  0  0  0  0
  5 19  1  0  0  0  0
  6 21  1  0  0  0  0
  7 10  2  0  0  0  0
  7 20  1  0  0  0  0
  8 24  1  0  0  0  0
  9 24  2  0  0  0  0
 10 25  1  0  0  0  0
 11 12  2  0  0  0  0
 11 26  1  0  0  0  0
 12 27  1  0  0  0  0
 13 22  1  0  0  0  0
 13 25  2  0  0  0  0
 14 27  2  0  0  0  0
 14 28  1  0  0  0  0
 15 23  1  0  0  0  0
 15 64  2  0  0  0  0
 16 65  1  0  0  0  0
 16 66  2  0  0  0  0
 17 29  1  0  0  0  0
 18 29  1  0  0  0  0
 18 31  2  0  0  0  0
 18 34  1  0  0  0  0
 19 21  2  0  0  0  0
 19 39  1  0  0  0  0
 20 22  2  0  0  0  0
 20 40  1  0  0  0  0
 21 48  1  0  0  0  0
 22 41  1  0  0  0  0
 23 30  2  0  0  0  0
 23 59  1  0  0  0  0
 24 84  1  0  0  0  0
 25 85  1  0  0  0  0
 26 28  2  0  0  0  0
 26 84  1  0  0  0  0
 27 86  1  0  0  0  0
 28 87  1  0  0  0  0
 29 67  2  0  0  0  0
 30 51  1  0  0  0  0
 30 68  1  0  0  0  0
 31 69  1  0  0  0  0
 31 73  1  0  0  0  0
 32 62  1  0  0  0  0
 32 64  1  0  0  0  0
 32 68  2  0  0  0  0
 33 65  2  0  0  0  0
 33 70  1  0  0  0  0
 33 75  1  0  0  0  0
 34 74  1  0  0  0  0
 34 79  2  0  0  0  0
 35 49  1  0  0  0  0
 35 76  1  0  0  0  0
 35 80  2  0  0  0  0
 36 60  1  0  0  0  0
 36 71  1  0  0  0  0
 36 81  2  0  0  0  0
 37 61  1  0  0  0  0
 37 77  1  0  0  0  0
 37 82  2  0  0  0  0
 38 72  1  0  0  0  0
 38 75  1  0  0  0  0
 38 83  2  0  0  0  0
 39 42  1  0  0  0  0
 40 49  1  0  0  0  0
 41 71  1  0  0  0  0
 42 44  1  0  0  0  0
 43 45  1  0  0  0  0
 43 46  1  0  0  0  0
 44 48  1  0  0  0  0
 45 50  1  0  0  0  0
 46 72  1  0  0  0  0
 47 50  1  0  0  0  0
 47 72  1  0  0  0  0
 48 76  1  0  0  0  0
 49 71  1  0  0  0  0
 50 69  1  0  0  0  0
 52 61  1  0  0  0  0
 53 62  1  0  0  0  0
 54 62  1  0  0  0  0
 55 63  1  0  0  0  0
 56 63  1  0  0  0  0
 57 63  1  0  0  0  0
 58 78  1  0  0  0  0
 59 85  1  0  0  0  0
 60 63  1  0  0  0  0
 60 77  1  0  0  0  0
 61 78  1  0  0  0  0
 62 70  1  0  0  0  0
 66 70  1  0  0  0  0
 67 69  1  0  0  0  0
M  CHG  1  78   1
M  ISO  4  38 100  59 101  75 100  85 101
M  END
> <Batch ID>
0063

> <Smiles>
CNC(C)C(=O)NC(C(=O)N1Cc2cc([101O:1][101CH2:1]c3cnc(C(C)(C)n4ncnc4[100NH:0][100C:0](=O)N4CCCC(n5nc(-c6ccc(Oc7ccc(F)cc7F)cc6)c(C(N)=O)c5N)C4)nc3C)ccc2CC1C(=O)NC1CCCc2ccccc21)C(C)(C)C

> <Shape>
0.194

> <Color>
0.042

> <Negative vol penalty>
0.000

$$$$

  -OEChem-04052318023D

 86 94  0     1  0  0  0  0  0999 V2000
  -28.0257  -29.8929   20.4083 C   0  0  0  0  0  0  0  0  0  0  0  0
  -27.0660  -28.8882   20.3387 C   0  0  0  0  0  0  0  0  0  0  0  0
  -21.4792  -23.2762   23.3703 C   0  0  0  0  0  0  0  0  0  0  0  0
  -20.8422  -22.3265   21.2420 C   0  0  0  0  0  0  0  0  0  0  0  0
  -29.3440  -29.6227   20.0435 C   0  0  0  0  0  0  0  0  0  0  0  0
  -27.4238  -27.6127   19.9032 C   0  0  0  0  0  0  0  0  0  0  0  0
  -25.8087  -20.7083   20.9214 C   0  0  0  0  0  0  0  0  0  0  0  0
  -21.3625  -24.5582   22.8331 C   0  0  0  0  0  0  0  0  0  0  0  0
  -20.7255  -23.6085   20.7049 C   0  0  0  0  0  0  0  0  0  0  0  0
  -25.4584  -19.5667   20.2019 C   0  0  0  0  0  0  0  0  0  0  0  0
  -20.8820  -28.0908   22.1227 C   0  0  0  0  0  0  0  0  0  0  0  0
  -20.2201  -29.0548   22.8832 C   0  0  0  0  0  0  0  0  0  0  0  0
  -27.7823  -19.1943   19.6729 C   0  0  0  0  0  0  0  0  0  0  0  0
  -18.2196  -27.7003   22.8591 C   0  0  0  0  0  0  0  0  0  0  0  0
  -24.3764  -12.5888   19.6405 C   0  0  0  0  0  0  0  0  0  0  0  0
  -25.1481  -11.5206   21.4068 C   0  0  0  0  0  0  0  0  0  0  0  0
  -21.2191  -22.1603   22.5747 C   0  0  0  0  0  0  0  0  0  0  0  0
  -20.3332  -20.0852   23.7649 C   0  0  0  0  0  0  0  0  0  0  0  0
  -29.7202  -28.3407   19.6125 C   0  0  0  0  0  0  0  0  0  0  0  0
  -27.1496  -21.1083   21.0131 C   0  0  0  0  0  0  0  0  0  0  0  0
  -28.7481  -27.3254   19.5311 C   0  0  0  0  0  0  0  0  0  0  0  0
  -28.1473  -20.3400   20.3963 C   0  0  0  0  0  0  0  0  0  0  0  0
  -20.9856  -24.7243   21.5005 C   0  0  0  0  0  0  0  0  0  0  0  0
  -26.4449  -18.8111   19.5751 C   0  0  0  0  0  0  0  0  0  0  0  0
  -20.2127  -26.9316   21.7304 C   0  0  0  0  0  0  0  0  0  0  0  0
  -18.8890  -28.8595   23.2514 C   0  0  0  0  0  0  0  0  0  0  0  0
  -18.8815  -26.7363   22.0986 C   0  0  0  0  0  0  0  0  0  0  0  0
  -21.3401  -20.8358   23.1288 C   0  0  0  0  0  0  0  0  0  0  0  0
  -25.7272  -12.3545   19.5360 C   0  0  0  0  0  0  0  0  0  0  0  0
  -20.9482  -18.9055   24.1063 C   0  0  0  0  0  0  0  0  0  0  0  0
  -18.9643  -20.4240   24.0238 C   0  0  0  0  0  0  0  0  0  0  0  0
  -28.7911  -23.6765   20.1111 C   0  0  0  0  0  0  0  0  0  0  0  0
  -31.2008  -22.2221   21.7237 C   0  0  0  0  0  0  0  0  0  0  0  0
  -32.5481  -19.3266   22.9269 C   0  0  0  0  0  0  0  0  0  0  0  0
  -24.2985  -14.6225   22.8506 C   0  0  0  0  0  0  0  0  0  0  0  0
  -31.1474  -28.1088   19.1836 C   0  0  0  0  0  0  0  0  0  0  0  0
  -27.5138  -22.3273   21.8154 C   0  0  0  0  0  0  0  0  0  0  0  0
  -29.6035  -20.7152   20.4815 C   0  0  0  0  0  0  0  0  0  0  0  0
  -31.5229  -26.6322   19.0898 C   0  0  0  0  0  0  0  0  0  0  0  0
  -25.8356  -17.6031   24.0465 C   0  0  0  0  0  0  0  0  0  0  0  0
  -30.4430  -25.8529   18.3458 C   0  0  0  0  0  0  0  0  0  0  0  0
  -24.7222  -18.6486   23.9608 C   0  0  0  0  0  0  0  0  0  0  0  0
  -25.7715  -16.6139   22.8849 C   0  0  0  0  0  0  0  0  0  0  0  0
  -23.3517  -16.9988   22.6197 C   0  0  0  0  0  0  0  0  0  0  0  0
  -29.1025  -25.9227   19.0873 C   0  0  1  0  0  0  0  0  0  0  0  0
  -28.8569  -22.9284   21.4126 C   0  0  1  0  0  0  0  0  0  0  0  0
  -23.3412  -17.9851   23.8001 C   0  0  2  0  0  0  0  0  0  0  0  0
  -34.5444  -18.4501   24.1695 C   0  0  0  0  0  0  0  0  0  0  0  0
  -27.8129  -11.6902   18.3202 C   0  0  0  0  0  0  0  0  0  0  0  0
  -26.0008  -12.7365   16.9921 C   0  0  0  0  0  0  0  0  0  0  0  0
  -32.8930  -22.5065   19.2007 C   0  0  0  0  0  0  0  0  0  0  0  0
  -34.4741  -20.8158   20.1545 C   0  0  0  0  0  0  0  0  0  0  0  0
  -34.1102  -22.9843   21.3325 C   0  0  0  0  0  0  0  0  0  0  0  0
  -21.6269  -12.7302   20.5359 C   0  0  0  0  0  0  0  0  0  0  0  0
  -22.2402  -10.5748   21.6009 C   0  0  0  0  0  0  0  0  0  0  0  0
  -30.8685  -18.3091   25.1411 C   0  0  0  0  0  0  0  0  0  0  0  0
  -26.3374  -15.3148   18.6743 C   0  0  0  0  0  0  0  0  0  0  0  0
  -27.3220  -14.1402   18.6277 C   0  0  0  0  0  0  0  0  0  0  0  0
  -22.6948  -12.7289   22.8122 C   0  0  0  0  0  0  0  0  0  0  0  0
  -27.0682  -16.6445   18.8177 C   0  0  0  0  0  0  0  0  0  1  0  0
  -32.2850  -21.2351   21.3640 C   0  0  1  0  0  0  0  0  0  0  0  0
  -33.1205  -18.9710   24.2872 C   0  0  2  0  0  0  0  0  0  0  0  0
  -26.6748  -12.7399   18.3855 C   0  0  0  0  0  0  0  0  0  0  0  0
  -33.4130  -21.8792   20.5095 C   0  0  0  0  0  0  0  0  0  0  0  0
  -22.6967  -12.0424   21.4190 C   0  0  0  0  0  0  0  0  0  0  0  0
  -26.2015  -11.6889   20.6385 N   0  0  0  0  0  0  0  0  0  0  0  0
  -22.5062  -20.1874   23.0686 N   0  0  0  0  0  0  0  0  0  0  0  0
  -24.0196  -12.0486   20.8438 N   0  0  0  0  0  0  0  0  0  0  0  0
  -22.2360  -19.0170   23.6712 N   0  0  0  0  0  0  0  0  0  0  0  0
  -29.9085  -21.9191   21.2721 N   0  0  0  0  0  0  0  0  0  0  0  0
  -24.4363  -16.0190   22.7884 N   0  0  0  0  0  0  0  0  0  0  0  0
  -20.5077  -17.7941   24.7333 N   0  0  0  0  0  0  0  0  0  0  0  0
  -18.4955  -21.6769   23.6059 N   0  0  0  0  0  0  0  0  0  0  0  0
  -29.1024  -25.0186   20.2173 N   0  0  0  0  0  0  0  0  0  0  0  0
  -32.7445  -20.6570   22.6221 N   0  0  0  0  0  0  0  0  0  0  0  0
  -22.9982  -14.1416   22.7579 N   0  0  0  0  0  0  0  0  0  0  0  0
  -32.2886  -17.9215   24.9409 N   0  3  0  0  0  0  0  0  0  0  0  0
  -18.1845  -19.6454   24.6232 O   0  0  0  0  0  0  0  0  0  0  0  0
  -28.4823  -23.0799   19.0863 O   0  0  0  0  0  0  0  0  0  0  0  0
  -31.4887  -23.2214   22.3872 O   0  0  0  0  0  0  0  0  0  0  0  0
  -31.9865  -18.5055   22.2052 O   0  0  0  0  0  0  0  0  0  0  0  0
  -25.2624  -13.8610   22.9846 O   0  0  0  0  0  0  0  0  0  0  0  0
  -20.8714  -25.9751   20.9761 O   0  0  0  0  0  0  0  0  0  0  0  0
  -26.1057  -17.6967   18.8716 O   0  0  0  0  0  0  0  0  0  1  0  0
  -18.2540  -29.7846   23.9830 F   0  0  0  0  0  0  0  0  0  0  0  0
  -18.2336  -25.6241   21.7256 F   0  0  0  0  0  0  0  0  0  0  0  0
  1  2  1  0  0  0  0
  1  5  2  0  0  0  0
  2  6  2  0  0  0  0
  3  8  2  0  0  0  0
  3 17  1  0  0  0  0
  4  9  1  0  0  0  0
  4 17  2  0  0  0  0
  5 19  1  0  0  0  0
  6 21  1  0  0  0  0
  7 10  2  0  0  0  0
  7 20  1  0  0  0  0
  8 23  1  0  0  0  0
  9 23  2  0  0  0  0
 10 24  1  0  0  0  0
 11 12  2  0  0  0  0
 11 25  1  0  0  0  0
 12 26  1  0  0  0  0
 13 22  1  0  0  0  0
 13 24  2  0  0  0  0
 14 26  2  0  0  0  0
 14 27  1  0  0  0  0
 15 29  2  0  0  0  0
 15 68  1  0  0  0  0
 16 66  2  0  0  0  0
 16 68  1  0  0  0  0
 17 28  1  0  0  0  0
 18 28  1  0  0  0  0
 18 30  2  0  0  0  0
 18 31  1  0  0  0  0
 19 21  2  0  0  0  0
 19 36  1  0  0  0  0
 20 22  2  0  0  0  0
 20 37  1  0  0  0  0
 21 45  1  0  0  0  0
 22 38  1  0  0  0  0
 23 83  1  0  0  0  0
 24 84  1  0  0  0  0
 25 27  2  0  0  0  0
 25 83  1  0  0  0  0
 26 85  1  0  0  0  0
 27 86  1  0  0  0  0
 28 67  2  0  0  0  0
 29 63  1  0  0  0  0
 29 66  1  0  0  0  0
 30 69  1  0  0  0  0
 30 72  1  0  0  0  0
 31 73  1  0  0  0  0
 31 78  2  0  0  0  0
 32 46  1  0  0  0  0
 32 74  1  0  0  0  0
 32 79  2  0  0  0  0
 33 61  1  0  0  0  0
 33 70  1  0  0  0  0
 33 80  2  0  0  0  0
 34 62  1  0  0  0  0
 34 75  1  0  0  0  0
 34 81  2  0  0  0  0
 35 71  1  0  0  0  0
 35 76  1  0  0  0  0
 35 82  2  0  0  0  0
 36 39  1  0  0  0  0
 37 46  1  0  0  0  0
 38 70  1  0  0  0  0
 39 41  1  0  0  0  0
 40 42  1  0  0  0  0
 40 43  1  0  0  0  0
 41 45  1  0  0  0  0
 42 47  1  0  0  0  0
 43 71  1  0  0  0  0
 44 47  1  0  0  0  0
 44 71  1  0  0  0  0
 45 74  1  0  0  0  0
 46 70  1  0  0  0  0
 47 69  1  0  0  0  0
 48 62  1  0  0  0  0
 49 63  1  0  0  0  0
 50 63  1  0  0  0  0
 51 64  1  0  0  0  0
 52 64  1  0  0  0  0
 53 64  1  0  0  0  0
 54 65  1  0  0  0  0
 55 65  1  0  0  0  0
 56 77  1  0  0  0  0
 57 58  1  0  0  0  0
 57 60  1  0  0  0  0
 58 63  1  0  0  0  0
 59 65  1  0  0  0  0
 59 76  1  0  0  0  0
 60 84  1  0  0  0  0
 61 64  1  0  0  0  0
 61 75  1  0  0  0  0
 62 77  1  0  0  0  0
 65 68  1  0  0  0  0
 67 69  1  0  0  0  0
M  CHG  1  77   1
M  ISO  4  35 100  60 101  76 100  84 101
M  END
> <Batch ID>
0063

> <Smiles>
CNC(C)C(=O)NC(C(=O)N1Cc2cc([101O:1][101CH2:1]CCC(C)(C)c3cn(C(C)(C)C[100NH:0][100C:0](=O)N4CCCC(n5nc(-c6ccc(Oc7ccc(F)cc7F)cc6)c(C(N)=O)c5N)C4)cn3)ccc2CC1C(=O)NC1CCCc2ccccc21)C(C)(C)C

> <Shape>
0.203

> <Color>
0.059

> <Negative vol penalty>
0.000

$$$$

  -OEChem-04052318023D

 86 94  0     1  0  0  0  0  0999 V2000
  -30.1664  -22.8970   11.3218 C   0  0  0  0  0  0  0  0  0  0  0  0
  -30.1738  -22.8893   12.7130 C   0  0  0  0  0  0  0  0  0  0  0  0
  -23.1741   -9.8110   19.9565 C   0  0  0  0  0  0  0  0  0  0  0  0
  -23.8013   -9.9226   22.2870 C   0  0  0  0  0  0  0  0  0  0  0  0
  -29.6405  -23.9902   10.6346 C   0  0  0  0  0  0  0  0  0  0  0  0
  -29.6561  -23.9754   13.4178 C   0  0  0  0  0  0  0  0  0  0  0  0
  -26.6979  -22.5564   17.2753 C   0  0  0  0  0  0  0  0  0  0  0  0
  -22.4445   -8.6492   20.2085 C   0  0  0  0  0  0  0  0  0  0  0  0
  -23.0717   -8.7609   22.5391 C   0  0  0  0  0  0  0  0  0  0  0  0
  -27.3326  -22.1152   18.4356 C   0  0  0  0  0  0  0  0  0  0  0  0
  -21.0785   -6.0253   23.8665 C   0  0  0  0  0  0  0  0  0  0  0  0
  -20.2578   -6.0058   24.9941 C   0  0  0  0  0  0  0  0  0  0  0  0
  -26.9793  -24.2780   19.4440 C   0  0  0  0  0  0  0  0  0  0  0  0
  -19.0118   -7.8820   24.1197 C   0  0  0  0  0  0  0  0  0  0  0  0
  -30.3937  -17.2540   20.7751 C   0  0  0  0  0  0  0  0  0  0  0  0
  -23.8526  -10.4477   20.9958 C   0  0  0  0  0  0  0  0  0  0  0  0
  -24.1413  -12.9746   20.7979 C   0  0  0  0  0  0  0  0  0  0  0  0
  -29.1073  -25.0860   11.3314 C   0  0  0  0  0  0  0  0  0  0  0  0
  -26.2080  -23.8673   17.1865 C   0  0  0  0  0  0  0  0  0  0  0  0
  -29.1237  -25.0849   12.7393 C   0  0  0  0  0  0  0  0  0  0  0  0
  -26.3365  -24.7325   18.2824 C   0  0  0  0  0  0  0  0  0  0  0  0
  -22.3932   -8.1242   21.4998 C   0  0  0  0  0  0  0  0  0  0  0  0
  -27.4759  -22.9769   19.5191 C   0  0  0  0  0  0  0  0  0  0  0  0
  -20.8660   -6.9732   22.8654 C   0  0  0  0  0  0  0  0  0  0  0  0
  -19.2244   -6.9342   25.1207 C   0  0  0  0  0  0  0  0  0  0  0  0
  -19.8326   -7.9015   22.9920 C   0  0  0  0  0  0  0  0  0  0  0  0
  -24.6069  -11.6475   20.7360 C   0  0  0  0  0  0  0  0  0  0  0  0
  -30.0737  -16.7455   22.0147 C   0  0  0  0  0  0  0  0  0  0  0  0
  -30.8440  -19.2851   21.7245 C   0  0  0  0  0  0  0  0  0  0  0  0
  -30.5232  -18.7769   22.9640 C   0  0  0  0  0  0  0  0  0  0  0  0
  -25.2345  -13.7378   20.4680 C   0  0  0  0  0  0  0  0  0  0  0  0
  -22.8372  -13.4728   21.1246 C   0  0  0  0  0  0  0  0  0  0  0  0
  -26.8323  -26.3747   15.3352 C   0  0  0  0  0  0  0  0  0  0  0  0
  -24.3120  -27.6735   16.9111 C   0  0  0  0  0  0  0  0  0  0  0  0
  -22.3411  -27.7046   19.6970 C   0  0  0  0  0  0  0  0  0  0  0  0
  -31.0713  -13.3766   21.4083 C   0  0  0  0  0  0  0  0  0  0  0  0
  -28.5928  -26.2656   10.5450 C   0  0  0  0  0  0  0  0  0  0  0  0
  -25.5021  -24.3195   15.9376 C   0  0  0  0  0  0  0  0  0  0  0  0
  -25.8100  -26.1431   18.2451 C   0  0  0  0  0  0  0  0  0  0  0  0
  -27.7223  -27.2127   11.3669 C   0  0  0  0  0  0  0  0  0  0  0  0
  -29.4848  -12.9233   18.0948 C   0  0  0  0  0  0  0  0  0  0  0  0
  -28.3804  -27.5123   12.7101 C   0  0  0  0  0  0  0  0  0  0  0  0
  -28.0369  -12.6006   18.4602 C   0  0  0  0  0  0  0  0  0  0  0  0
  -30.4559  -12.4898   19.1888 C   0  0  0  0  0  0  0  0  0  0  0  0
  -28.6844  -12.7160   20.8990 C   0  0  0  0  0  0  0  0  0  0  0  0
  -28.5487  -26.2335   13.5394 C   0  0  1  0  0  0  0  0  0  0  0  0
  -25.4985  -25.8358   15.7690 C   0  0  1  0  0  0  0  0  0  0  0  0
  -27.6761  -13.1822   19.8381 C   0  0  2  0  0  0  0  0  0  0  0  0
  -30.6139  -19.6390   26.7262 C   0  0  0  0  0  0  0  0  0  0  0  0
  -28.6684  -15.1137   23.3278 C   0  0  0  0  0  0  0  0  0  0  0  0
  -20.3844  -28.9036   20.7125 C   0  0  0  0  0  0  0  0  0  0  0  0
  -26.1179  -30.0359   17.5954 C   0  0  0  0  0  0  0  0  0  0  0  0
  -24.4617  -30.7040   19.3501 C   0  0  0  0  0  0  0  0  0  0  0  0
  -23.7837  -30.6598   16.9499 C   0  0  0  0  0  0  0  0  0  0  0  0
  -31.8018  -14.8356   23.2569 C   0  0  0  0  0  0  0  0  0  0  0  0
  -20.7191  -25.2305   19.7788 C   0  0  0  0  0  0  0  0  0  0  0  0
  -31.2798  -20.7181   21.5511 C   0  0  0  0  0  0  0  0  0  0  0  0
  -30.5921  -19.6201   24.1912 C   0  0  0  0  0  0  0  0  0  0  0  0
  -30.5088  -18.7806   25.4756 C   0  0  0  0  0  0  0  0  0  0  0  0
  -30.1294  -21.7247   21.6223 C   0  0  0  0  0  0  0  0  0  0  0  0
  -29.1084  -21.5548   20.5034 C   0  0  0  0  0  0  0  0  0  1  0  0
  -29.6465  -15.3271   22.1619 C   0  0  2  0  0  0  0  0  0  0  0  0
  -24.1424  -28.4785   18.1769 C   0  0  1  0  0  0  0  0  0  0  0  0
  -20.8323  -27.7242   19.8633 C   0  0  2  0  0  0  0  0  0  0  0  0
  -24.6382  -29.9436   18.0184 C   0  0  0  0  0  0  0  0  0  0  0  0
  -30.7847  -18.5329   20.6078 N   0  0  0  0  0  0  0  0  0  0  0  0
  -25.8955  -11.5687   20.3934 N   0  0  0  0  0  0  0  0  0  0  0  0
  -30.1326  -17.4978   23.1314 N   0  0  0  0  0  0  0  0  0  0  0  0
  -26.2489  -12.8558   20.2371 N   0  0  0  0  0  0  0  0  0  0  0  0
  -25.1330  -26.5404   16.9995 N   0  0  0  0  0  0  0  0  0  0  0  0
  -30.0652  -13.0210   20.4950 N   0  0  0  0  0  0  0  0  0  0  0  0
  -25.4174  -15.0706   20.3557 N   0  0  0  0  0  0  0  0  0  0  0  0
  -21.8293  -12.5512   21.4393 N   0  0  0  0  0  0  0  0  0  0  0  0
  -27.2889  -25.8515   14.1405 N   0  0  0  0  0  0  0  0  0  0  0  0
  -22.7371  -28.3604   18.5506 N   0  0  0  0  0  0  0  0  0  0  0  0
  -30.7862  -14.4228   22.2987 N   0  0  0  0  0  0  0  0  0  0  0  0
  -20.3671  -26.4694   20.5191 N   0  3  0  0  0  0  0  0  0  0  0  0
  -22.5692  -14.6983   21.1211 O   0  0  0  0  0  0  0  0  0  0  0  0
  -27.4041  -27.2048   16.0320 O   0  0  0  0  0  0  0  0  0  0  0  0
  -23.7316  -28.0328   15.8837 O   0  0  0  0  0  0  0  0  0  0  0  0
  -23.0934  -27.1650   20.5054 O   0  0  0  0  0  0  0  0  0  0  0  0
  -32.1658  -12.7987   21.4204 O   0  0  0  0  0  0  0  0  0  0  0  0
  -21.6811   -6.9907   21.7461 O   0  0  0  0  0  0  0  0  0  0  0  0
  -28.0956  -22.5490   20.6526 O   0  0  0  0  0  0  0  0  0  1  0  0
  -18.4354   -6.9144   26.2030 F   0  0  0  0  0  0  0  0  0  0  0  0
  -19.6228   -8.8137   22.0331 F   0  0  0  0  0  0  0  0  0  0  0  0
  1  2  1  0  0  0  0
  1  5  2  0  0  0  0
  2  6  2  0  0  0  0
  3  8  2  0  0  0  0
  3 16  1  0  0  0  0
  4  9  1  0  0  0  0
  4 16  2  0  0  0  0
  5 18  1  0  0  0  0
  6 20  1  0  0  0  0
  7 10  2  0  0  0  0
  7 19  1  0  0  0  0
  8 22  1  0  0  0  0
  9 22  2  0  0  0  0
 10 23  1  0  0  0  0
 11 12  2  0  0  0  0
 11 24  1  0  0  0  0
 12 25  1  0  0  0  0
 13 21  1  0  0  0  0
 13 23  2  0  0  0  0
 14 25  2  0  0  0  0
 14 26  1  0  0  0  0
 15 28  1  0  0  0  0
 15 66  2  0  0  0  0
 16 27  1  0  0  0  0
 17 27  1  0  0  0  0
 17 31  2  0  0  0  0
 17 32  1  0  0  0  0
 18 20  2  0  0  0  0
 18 37  1  0  0  0  0
 19 21  2  0  0  0  0
 19 38  1  0  0  0  0
 20 46  1  0  0  0  0
 21 39  1  0  0  0  0
 22 83  1  0  0  0  0
 23 84  1  0  0  0  0
 24 26  2  0  0  0  0
 24 83  1  0  0  0  0
 25 85  1  0  0  0  0
 26 86  1  0  0  0  0
 27 67  2  0  0  0  0
 28 62  1  0  0  0  0
 28 68  2  0  0  0  0
 29 30  2  0  0  0  0
 29 57  1  0  0  0  0
 29 66  1  0  0  0  0
 30 58  1  0  0  0  0
 30 68  1  0  0  0  0
 31 69  1  0  0  0  0
 31 72  1  0  0  0  0
 32 73  1  0  0  0  0
 32 78  2  0  0  0  0
 33 47  1  0  0  0  0
 33 74  1  0  0  0  0
 33 79  2  0  0  0  0
 34 63  1  0  0  0  0
 34 70  1  0  0  0  0
 34 80  2  0  0  0  0
 35 64  1  0  0  0  0
 35 75  1  0  0  0  0
 35 81  2  0  0  0  0
 36 71  1  0  0  0  0
 36 76  1  0  0  0  0
 36 82  2  0  0  0  0
 37 40  1  0  0  0  0
 38 47  1  0  0  0  0
 39 70  1  0  0  0  0
 40 42  1  0  0  0  0
 41 43  1  0  0  0  0
 41 44  1  0  0  0  0
 42 46  1  0  0  0  0
 43 48  1  0  0  0  0
 44 71  1  0  0  0  0
 45 48  1  0  0  0  0
 45 71  1  0  0  0  0
 46 74  1  0  0  0  0
 47 70  1  0  0  0  0
 48 69  1  0  0  0  0
 49 59  1  0  0  0  0
 50 62  1  0  0  0  0
 51 64  1  0  0  0  0
 52 65  1  0  0  0  0
 53 65  1  0  0  0  0
 54 65  1  0  0  0  0
 55 76  1  0  0  0  0
 56 77  1  0  0  0  0
 57 60  1  0  0  0  0
 58 59  1  0  0  0  0
 60 61  1  0  0  0  0
 61 84  1  0  0  0  0
 62 76  1  0  0  0  0
 63 65  1  0  0  0  0
 63 75  1  0  0  0  0
 64 77  1  0  0  0  0
 67 69  1  0  0  0  0
M  CHG  1  77   1
M  ISO  4  36 100  61 101  76 100  84 101
M  END
> <Batch ID>
0063

> <Smiles>
CCCc1nc(C(C)[100N:0](C)[100C:0](=O)N2CCCC(n3nc(-c4ccc(Oc5ccc(F)cc5F)cc4)c(C(N)=O)c3N)C2)cnc1CC[101CH2:1][101O:1]c1ccc2c(c1)CN(C(=O)C(NC(=O)C(C)NC)C(C)(C)C)C(C(=O)NC1CCCc3ccccc31)C2

> <Shape>
0.222

> <Color>
0.178

> <Negative vol penalty>
0.000

$$$$

  -OEChem-04052318023D

 82 90  0     1  0  0  0  0  0999 V2000
  -20.8417  -30.7750   23.9852 C   0  0  0  0  0  0  0  0  0  0  0  0
  -22.0056  -30.0511   23.7473 C   0  0  0  0  0  0  0  0  0  0  0  0
  -25.0344  -14.5958   19.6997 C   0  0  0  0  0  0  0  0  0  0  0  0
  -24.7582  -14.0650   22.0405 C   0  0  0  0  0  0  0  0  0  0  0  0
  -19.6018  -30.2252   23.6622 C   0  0  0  0  0  0  0  0  0  0  0  0
  -21.9302  -28.7762   23.1874 C   0  0  0  0  0  0  0  0  0  0  0  0
  -25.3378  -28.0654   19.5093 C   0  0  0  0  0  0  0  0  0  0  0  0
  -25.1766  -13.2391   19.4088 C   0  0  0  0  0  0  0  0  0  0  0  0
  -24.9004  -12.7083   21.7496 C   0  0  0  0  0  0  0  0  0  0  0  0
  -26.6514  -27.8085   19.8993 C   0  0  0  0  0  0  0  0  0  0  0  0
  -24.8308   -9.0774   21.5751 C   0  0  0  0  0  0  0  0  0  0  0  0
  -23.9353   -8.1886   22.1698 C   0  0  0  0  0  0  0  0  0  0  0  0
  -26.2973  -25.4528   19.5192 C   0  0  0  0  0  0  0  0  0  0  0  0
  -22.0938   -9.3249   21.0952 C   0  0  0  0  0  0  0  0  0  0  0  0
  -30.4243  -23.3533   20.7497 C   0  0  0  0  0  0  0  0  0  0  0  0
  -29.2417  -24.5473   22.1753 C   0  0  0  0  0  0  0  0  0  0  0  0
  -24.8252  -15.0088   21.0156 C   0  0  0  0  0  0  0  0  0  0  0  0
  -23.4835  -17.1534   21.3445 C   0  0  0  0  0  0  0  0  0  0  0  0
  -19.5118  -28.9469   23.0891 C   0  0  0  0  0  0  0  0  0  0  0  0
  -24.4892  -27.0149   19.1311 C   0  0  0  0  0  0  0  0  0  0  0  0
  -20.6879  -28.2082   22.8577 C   0  0  0  0  0  0  0  0  0  0  0  0
  -24.9741  -25.6993   19.1224 C   0  0  0  0  0  0  0  0  0  0  0  0
  -25.1096  -12.2953   20.4337 C   0  0  0  0  0  0  0  0  0  0  0  0
  -27.1305  -26.5018   19.9071 C   0  0  0  0  0  0  0  0  0  0  0  0
  -24.3578  -10.0901   20.7405 C   0  0  0  0  0  0  0  0  0  0  0  0
  -22.5668   -8.3123   21.9298 C   0  0  0  0  0  0  0  0  0  0  0  0
  -22.9893  -10.2138   20.5006 C   0  0  0  0  0  0  0  0  0  0  0  0
  -24.6788  -16.4102   21.3168 C   0  0  0  0  0  0  0  0  0  0  0  0
  -29.3771  -22.6273   21.2665 C   0  0  0  0  0  0  0  0  0  0  0  0
  -23.8778  -18.4255   21.6803 C   0  0  0  0  0  0  0  0  0  0  0  0
  -22.1371  -16.7315   21.0895 C   0  0  0  0  0  0  0  0  0  0  0  0
  -29.0450  -21.2341   20.9441 C   0  0  0  0  0  0  0  0  0  0  0  0
  -21.7540  -25.8319   20.2368 C   0  0  0  0  0  0  0  0  0  0  0  0
  -21.9237  -23.9914   17.5710 C   0  0  0  0  0  0  0  0  0  0  0  0
  -23.8641  -22.5741   15.1476 C   0  0  0  0  0  0  0  0  0  0  0  0
  -18.1463  -28.3751   22.8007 C   0  0  0  0  0  0  0  0  0  0  0  0
  -23.0830  -27.3115   18.6874 C   0  0  0  0  0  0  0  0  0  0  0  0
  -24.1097  -24.5384   18.7057 C   0  0  0  0  0  0  0  0  0  0  0  0
  -18.1760  -27.1699   21.8643 C   0  0  0  0  0  0  0  0  0  0  0  0
  -27.2719  -20.7903   24.0787 C   0  0  0  0  0  0  0  0  0  0  0  0
  -19.2596  -26.1862   22.2945 C   0  0  0  0  0  0  0  0  0  0  0  0
  -26.3021  -19.6629   23.7221 C   0  0  0  0  0  0  0  0  0  0  0  0
  -28.6146  -20.6112   23.3767 C   0  0  0  0  0  0  0  0  0  0  0  0
  -27.5440  -19.3599   21.5324 C   0  0  0  0  0  0  0  0  0  0  0  0
  -20.6487  -26.8323   22.2288 C   0  0  1  0  0  0  0  0  0  0  0  0
  -22.1506  -26.1107   18.8146 C   0  0  1  0  0  0  0  0  0  0  0  0
  -26.1640  -19.5087   22.1963 C   0  0  1  0  0  0  0  0  0  0  0  0
  -23.7231  -21.0923   13.1272 C   0  0  0  0  0  0  0  0  0  0  0  0
  -21.5937  -21.5579   19.3818 C   0  0  0  0  0  0  0  0  0  0  0  0
  -22.4009  -20.1287   17.4913 C   0  0  0  0  0  0  0  0  0  0  0  0
  -20.3000  -21.4507   17.2442 C   0  0  0  0  0  0  0  0  0  0  0  0
  -31.7694  -27.8488   19.5503 C   0  0  0  0  0  0  0  0  0  0  0  0
  -30.7726  -25.8133   18.5418 C   0  0  0  0  0  0  0  0  0  0  0  0
  -31.3296  -26.6580   22.4074 C   0  0  0  0  0  0  0  0  0  0  0  0
  -32.7378  -25.2971   20.9395 C   0  0  0  0  0  0  0  0  0  0  0  0
  -24.9243  -24.6940   13.3753 C   0  0  0  0  0  0  0  0  0  0  0  0
  -29.3777  -27.2690   20.0389 C   0  0  0  0  0  0  0  0  0  1  0  0
  -22.5264  -22.6486   17.2355 C   0  0  1  0  0  0  0  0  0  0  0  0
  -23.7140  -22.5248   13.6378 C   0  0  2  0  0  0  0  0  0  0  0  0
  -21.7212  -21.4679   17.8480 C   0  0  0  0  0  0  0  0  0  0  0  0
  -30.8023  -26.6692   19.8367 C   0  0  0  0  0  0  0  0  0  0  0  0
  -31.2683  -25.7937   21.1095 C   0  0  0  0  0  0  0  0  0  0  0  0
  -28.6448  -23.3764   22.1531 N   0  0  0  0  0  0  0  0  0  0  0  0
  -25.7521  -17.1487   21.6113 N   0  0  0  0  0  0  0  0  0  0  0  0
  -30.3245  -24.5809   21.3414 N   0  0  0  0  0  0  0  0  0  0  0  0
  -25.2326  -18.3692   21.8273 N   0  0  0  0  0  0  0  0  0  0  0  0
  -28.4264  -20.4593   21.9283 N   0  0  0  0  0  0  0  0  0  0  0  0
  -22.7402  -24.8789   18.2863 N   0  0  0  0  0  0  0  0  0  0  0  0
  -23.1944  -19.5755   21.8612 N   0  0  0  0  0  0  0  0  0  0  0  0
  -21.9091  -15.3891   20.7575 N   0  0  0  0  0  0  0  0  0  0  0  0
  -21.1163  -26.8873   20.8603 N   0  0  0  0  0  0  0  0  0  0  0  0
  -22.6401  -22.6039   15.7818 N   0  0  0  0  0  0  0  0  0  0  0  0
  -24.8293  -23.2645   12.9820 N   0  3  0  0  0  0  0  0  0  0  0  0
  -21.1670  -17.5252   21.1382 O   0  0  0  0  0  0  0  0  0  0  0  0
  -29.3337  -20.8563   19.8096 O   0  0  0  0  0  0  0  0  0  0  0  0
  -22.0065  -24.7394   20.7313 O   0  0  0  0  0  0  0  0  0  0  0  0
  -20.7735  -24.2463   17.2055 O   0  0  0  0  0  0  0  0  0  0  0  0
  -24.9577  -22.5814   15.7084 O   0  0  0  0  0  0  0  0  0  0  0  0
  -25.2481  -10.9713   20.1502 O   0  0  0  0  0  0  0  0  0  0  0  0
  -28.4121  -26.2483   20.2880 O   0  0  0  0  0  0  0  0  0  1  0  0
  -21.7072   -7.4577   22.4997 F   0  0  0  0  0  0  0  0  0  0  0  0
  -22.5290  -11.1839   19.6988 F   0  0  0  0  0  0  0  0  0  0  0  0
  1  2  1  0  0  0  0
  1  5  2  0  0  0  0
  2  6  2  0  0  0  0
  3  8  2  0  0  0  0
  3 17  1  0  0  0  0
  4  9  1  0  0  0  0
  4 17  2  0  0  0  0
  5 19  1  0  0  0  0
  6 21  1  0  0  0  0
  7 10  2  0  0  0  0
  7 20  1  0  0  0  0
  8 23  1  0  0  0  0
  9 23  2  0  0  0  0
 10 24  1  0  0  0  0
 11 12  2  0  0  0  0
 11 25  1  0  0  0  0
 12 26  1  0  0  0  0
 13 22  1  0  0  0  0
 13 24  2  0  0  0  0
 14 26  2  0  0  0  0
 14 27  1  0  0  0  0
 15 29  2  0  0  0  0
 15 65  1  0  0  0  0
 16 63  2  0  0  0  0
 16 65  1  0  0  0  0
 17 28  1  0  0  0  0
 18 28  1  0  0  0  0
 18 30  2  0  0  0  0
 18 31  1  0  0  0  0
 19 21  2  0  0  0  0
 19 36  1  0  0  0  0
 20 22  2  0  0  0  0
 20 37  1  0  0  0  0
 21 45  1  0  0  0  0
 22 38  1  0  0  0  0
 23 79  1  0  0  0  0
 24 80  1  0  0  0  0
 25 27  2  0  0  0  0
 25 79  1  0  0  0  0
 26 81  1  0  0  0  0
 27 82  1  0  0  0  0
 28 64  2  0  0  0  0
 29 32  1  0  0  0  0
 29 63  1  0  0  0  0
 30 66  1  0  0  0  0
 30 69  1  0  0  0  0
 31 70  1  0  0  0  0
 31 74  2  0  0  0  0
 32 67  1  0  0  0  0
 32 75  2  0  0  0  0
 33 46  1  0  0  0  0
 33 71  1  0  0  0  0
 33 76  2  0  0  0  0
 34 58  1  0  0  0  0
 34 68  1  0  0  0  0
 34 77  2  0  0  0  0
 35 59  1  0  0  0  0
 35 72  1  0  0  0  0
 35 78  2  0  0  0  0
 36 39  1  0  0  0  0
 37 46  1  0  0  0  0
 38 68  1  0  0  0  0
 39 41  1  0  0  0  0
 40 42  1  0  0  0  0
 40 43  1  0  0  0  0
 41 45  1  0  0  0  0
 42 47  1  0  0  0  0
 43 67  1  0  0  0  0
 44 47  1  0  0  0  0
 44 67  1  0  0  0  0
 45 71  1  0  0  0  0
 46 68  1  0  0  0  0
 47 66  1  0  0  0  0
 48 59  1  0  0  0  0
 49 60  1  0  0  0  0
 50 60  1  0  0  0  0
 51 60  1  0  0  0  0
 52 61  1  0  0  0  0
 53 61  1  0  0  0  0
 54 62  1  0  0  0  0
 55 62  1  0  0  0  0
 56 73  1  0  0  0  0
 57 61  1  0  0  0  0
 57 80  1  0  0  0  0
 58 60  1  0  0  0  0
 58 72  1  0  0  0  0
 59 73  1  0  0  0  0
 61 62  1  0  0  0  0
 62 65  1  0  0  0  0
 64 66  1  0  0  0  0
M  CHG  1  73   1
M  ISO  4  29 100  32 100  57 101  80 101
M  END
> <Batch ID>
0063

> <Smiles>
CNC(C)C(=O)NC(C(=O)N1Cc2cc([101O:1][101CH2:1]C(C)(C)C(C)(C)n3cn[100c:0]([100C:0](=O)N4CCCC(n5nc(-c6ccc(Oc7ccc(F)cc7F)cc6)c(C(N)=O)c5N)C4)c3)ccc2CC1C(=O)NC1CCCc2ccccc21)C(C)(C)C

> <Shape>
0.229

> <Color>
0.079

> <Negative vol penalty>
0.000

$$$$

  -OEChem-04052318023D

 92100  0     1  0  0  0  0  0999 V2000
  -25.9012  -33.9499   22.4275 C   0  0  0  0  0  0  0  0  0  0  0  0
  -26.6704  -33.0096   23.1055 C   0  0  0  0  0  0  0  0  0  0  0  0
  -23.1465   -9.9008   19.9428 C   0  0  0  0  0  0  0  0  0  0  0  0
  -24.2603   -9.4385   22.0363 C   0  0  0  0  0  0  0  0  0  0  0  0
  -24.9911  -33.5348   21.4563 C   0  0  0  0  0  0  0  0  0  0  0  0
  -26.5291  -31.6534   22.8133 C   0  0  0  0  0  0  0  0  0  0  0  0
  -30.9345  -27.3995   22.8575 C   0  0  0  0  0  0  0  0  0  0  0  0
  -22.5290   -8.6512   19.9954 C   0  0  0  0  0  0  0  0  0  0  0  0
  -23.6427   -8.1889   22.0889 C   0  0  0  0  0  0  0  0  0  0  0  0
  -31.3116  -26.4495   23.8057 C   0  0  0  0  0  0  0  0  0  0  0  0
  -20.6111   -6.9433   22.9124 C   0  0  0  0  0  0  0  0  0  0  0  0
  -20.0548   -6.5478   24.1288 C   0  0  0  0  0  0  0  0  0  0  0  0
  -29.9757  -24.7934   22.6690 C   0  0  0  0  0  0  0  0  0  0  0  0
  -21.5217   -4.6286   24.1756 C   0  0  0  0  0  0  0  0  0  0  0  0
  -30.4857  -18.7761   22.0882 C   0  0  0  0  0  0  0  0  0  0  0  0
  -24.0122  -10.2944   20.9632 C   0  0  0  0  0  0  0  0  0  0  0  0
  -24.1648  -12.7967   21.4355 C   0  0  0  0  0  0  0  0  0  0  0  0
  -24.8455  -32.1737   21.1452 C   0  0  0  0  0  0  0  0  0  0  0  0
  -30.0650  -27.0557   21.8124 C   0  0  0  0  0  0  0  0  0  0  0  0
  -25.6152  -31.2197   21.8379 C   0  0  0  0  0  0  0  0  0  0  0  0
  -29.5911  -25.7403   21.7073 C   0  0  0  0  0  0  0  0  0  0  0  0
  -22.7771   -7.7953   21.0684 C   0  0  0  0  0  0  0  0  0  0  0  0
  -30.8299  -25.1470   23.7132 C   0  0  0  0  0  0  0  0  0  0  0  0
  -21.6227   -6.1815   22.3275 C   0  0  0  0  0  0  0  0  0  0  0  0
  -20.5101   -5.3904   24.7604 C   0  0  0  0  0  0  0  0  0  0  0  0
  -22.0780   -5.0241   22.9591 C   0  0  0  0  0  0  0  0  0  0  0  0
  -24.6509  -11.5849   20.9091 C   0  0  0  0  0  0  0  0  0  0  0  0
  -30.6314  -18.5525   23.4283 C   0  0  0  0  0  0  0  0  0  0  0  0
  -25.1337  -13.7192   21.1247 C   0  0  0  0  0  0  0  0  0  0  0  0
  -30.0838  -16.6331   22.4709 C   0  0  0  0  0  0  0  0  0  0  0  0
  -22.9464  -13.0644   22.1423 C   0  0  0  0  0  0  0  0  0  0  0  0
  -27.1719  -28.0031   20.8979 C   0  0  0  0  0  0  0  0  0  0  0  0
  -27.7672  -26.0702   18.3618 C   0  0  0  0  0  0  0  0  0  0  0  0
  -29.4787  -23.4067   17.0879 C   0  0  0  0  0  0  0  0  0  0  0  0
  -31.0443  -13.6649   20.7444 C   0  0  0  0  0  0  0  0  0  0  0  0
  -23.8148  -31.7693   20.1211 C   0  0  0  0  0  0  0  0  0  0  0  0
  -29.6891  -28.0854   20.7823 C   0  0  0  0  0  0  0  0  0  0  0  0
  -28.6715  -25.3153   20.5929 C   0  0  0  0  0  0  0  0  0  0  0  0
  -23.9946  -30.3435   19.6062 C   0  0  0  0  0  0  0  0  0  0  0  0
  -28.7930  -13.9749   17.8225 C   0  0  0  0  0  0  0  0  0  0  0  0
  -24.2286  -29.3821   20.7671 C   0  0  0  0  0  0  0  0  0  0  0  0
  -27.4708  -13.4319   18.3618 C   0  0  0  0  0  0  0  0  0  0  0  0
  -29.9926  -13.3554   18.5332 C   0  0  0  0  0  0  0  0  0  0  0  0
  -28.6278  -12.9460   20.5540 C   0  0  0  0  0  0  0  0  0  0  0  0
  -25.5084  -29.7415   21.5316 C   0  0  1  0  0  0  0  0  0  0  0  0
  -28.3900  -27.7551   20.0538 C   0  0  1  0  0  0  0  0  0  0  0  0
  -27.3979  -13.5845   19.8911 C   0  0  2  0  0  0  0  0  0  0  0  0
  -29.0543  -14.5785   23.5102 C   0  0  0  0  0  0  0  0  0  0  0  0
  -29.7254  -22.0413   14.9969 C   0  0  0  0  0  0  0  0  0  0  0  0
  -29.6406  -18.5373   17.2137 C   0  0  0  0  0  0  0  0  0  0  0  0
  -27.2251  -18.9944   17.7058 C   0  0  0  0  0  0  0  0  0  0  0  0
  -28.1013  -16.6564   17.7932 C   0  0  0  0  0  0  0  0  0  0  0  0
  -25.1210  -24.6752   18.9634 C   0  0  0  0  0  0  0  0  0  0  0  0
  -25.8654  -22.7844   17.5008 C   0  0  0  0  0  0  0  0  0  0  0  0
  -25.5664  -25.0642   16.5334 C   0  0  0  0  0  0  0  0  0  0  0  0
  -28.6051  -21.5192   26.9083 C   0  0  0  0  0  0  0  0  0  0  0  0
  -30.6696  -20.2621   27.5418 C   0  0  0  0  0  0  0  0  0  0  0  0
  -32.1083  -14.6336   22.7467 C   0  0  0  0  0  0  0  0  0  0  0  0
  -32.3403  -24.1145   16.8246 C   0  0  0  0  0  0  0  0  0  0  0  0
  -30.9934  -19.4825   24.5612 C   0  0  0  0  0  0  0  0  0  0  0  0
  -29.7427  -20.1219   25.1796 C   0  0  0  0  0  0  0  0  0  0  0  0
  -28.7718  -18.2617   19.5953 C   0  0  0  0  0  0  0  0  0  0  0  0
  -30.8553  -22.2680   25.9915 C   0  0  0  0  0  0  0  0  0  0  0  0
  -29.8989  -17.3558   20.1089 C   0  0  0  0  0  0  0  0  0  0  0  0
  -30.2595  -23.1788   24.9203 C   0  0  0  0  0  0  0  0  0  1  0  0
  -29.7513  -15.1984   22.2869 C   0  0  2  0  0  0  0  0  0  0  0  0
  -27.5360  -24.6109   18.0524 C   0  0  1  0  0  0  0  0  0  0  0  0
  -30.2460  -23.2298   15.7900 C   0  0  2  0  0  0  0  0  0  0  0  0
  -28.4401  -18.1317   18.0846 C   0  0  0  0  0  0  0  0  0  0  0  0
  -26.0380  -24.2919   17.7847 C   0  0  0  0  0  0  0  0  0  0  0  0
  -29.9879  -21.0502   26.4080 C   0  0  0  0  0  0  0  0  0  0  0  0
  -25.8364  -11.7220   20.3093 N   0  0  0  0  0  0  0  0  0  0  0  0
  -30.1473  -17.5714   21.5206 N   0  0  0  0  0  0  0  0  0  0  0  0
  -26.1033  -13.0308   20.4568 N   0  0  0  0  0  0  0  0  0  0  0  0
  -30.3766  -17.2185   23.6367 N   0  3  0  0  0  0  0  0  0  0  0  0
  -28.3277  -26.3598   19.6139 N   0  0  0  0  0  0  0  0  0  0  0  0
  -29.8767  -13.4761   19.9868 N   0  0  0  0  0  0  0  0  0  0  0  0
  -25.2423  -15.0441   21.3603 N   0  0  0  0  0  0  0  0  0  0  0  0
  -22.0628  -12.0021   22.3770 N   0  0  0  0  0  0  0  0  0  0  0  0
  -26.6752  -29.2892   20.8046 N   0  0  0  0  0  0  0  0  0  0  0  0
  -28.4243  -24.2832   16.9424 N   0  0  0  0  0  0  0  0  0  0  0  0
  -30.9237  -14.4012   21.9327 N   0  0  0  0  0  0  0  0  0  0  0  0
  -31.6933  -23.0106   16.0697 N   0  3  0  0  0  0  0  0  0  0  0  0
  -22.6424  -14.2149   22.5392 O   0  0  0  0  0  0  0  0  0  0  0  0
  -26.7156  -27.0946   21.5820 O   0  0  0  0  0  0  0  0  0  0  0  0
  -27.4683  -26.9215   17.5206 O   0  0  0  0  0  0  0  0  0  0  0  0
  -29.7819  -22.8225   18.1259 O   0  0  0  0  0  0  0  0  0  0  0  0
  -32.1344  -13.2100   20.3745 O   0  0  0  0  0  0  0  0  0  0  0  0
  -22.1745   -6.5759   21.1202 O   0  0  0  0  0  0  0  0  0  0  0  0
  -31.1959  -24.2179   24.6378 O   0  0  0  0  0  0  0  0  0  1  0  0
  -19.9769   -5.0115   25.9293 F   0  0  0  0  0  0  0  0  0  0  0  0
  -23.0503   -4.2888   22.4026 F   0  0  0  0  0  0  0  0  0  0  0  0
  1  2  1  0  0  0  0
  1  5  2  0  0  0  0
  2  6  2  0  0  0  0
  3  8  2  0  0  0  0
  3 16  1  0  0  0  0
  4  9  1  0  0  0  0
  4 16  2  0  0  0  0
  5 18  1  0  0  0  0
  6 20  1  0  0  0  0
  7 10  2  0  0  0  0
  7 19  1  0  0  0  0
  8 22  1  0  0  0  0
  9 22  2  0  0  0  0
 10 23  1  0  0  0  0
 11 12  2  0  0  0  0
 11 24  1  0  0  0  0
 12 25  1  0  0  0  0
 13 21  1  0  0  0  0
 13 23  2  0  0  0  0
 14 25  2  0  0  0  0
 14 26  1  0  0  0  0
 15 28  2  0  0  0  0
 15 73  1  0  0  0  0
 16 27  1  0  0  0  0
 17 27  1  0  0  0  0
 17 29  2  0  0  0  0
 17 31  1  0  0  0  0
 18 20  2  0  0  0  0
 18 36  1  0  0  0  0
 19 21  2  0  0  0  0
 19 37  1  0  0  0  0
 20 45  1  0  0  0  0
 21 38  1  0  0  0  0
 22 89  1  0  0  0  0
 23 90  1  0  0  0  0
 24 26  2  0  0  0  0
 24 89  1  0  0  0  0
 25 91  1  0  0  0  0
 26 92  1  0  0  0  0
 27 72  2  0  0  0  0
 28 60  1  0  0  0  0
 28 75  1  0  0  0  0
 29 74  1  0  0  0  0
 29 78  1  0  0  0  0
 30 66  1  0  0  0  0
 30 73  1  0  0  0  0
 30 75  2  0  0  0  0
 31 79  1  0  0  0  0
 31 84  2  0  0  0  0
 32 46  1  0  0  0  0
 32 80  1  0  0  0  0
 32 85  2  0  0  0  0
 33 67  1  0  0  0  0
 33 76  1  0  0  0  0
 33 86  2  0  0  0  0
 34 68  1  0  0  0  0
 34 81  1  0  0  0  0
 34 87  2  0  0  0  0
 35 77  1  0  0  0  0
 35 82  1  0  0  0  0
 35 88  2  0  0  0  0
 36 39  1  0  0  0  0
 37 46  1  0  0  0  0
 38 76  1  0  0  0  0
 39 41  1  0  0  0  0
 40 42  1  0  0  0  0
 40 43  1  0  0  0  0
 41 45  1  0  0  0  0
 42 47  1  0  0  0  0
 43 77  1  0  0  0  0
 44 47  1  0  0  0  0
 44 77  1  0  0  0  0
 45 80  1  0  0  0  0
 46 76  1  0  0  0  0
 47 74  1  0  0  0  0
 48 66  1  0  0  0  0
 49 68  1  0  0  0  0
 50 69  1  0  0  0  0
 51 69  1  0  0  0  0
 52 69  1  0  0  0  0
 53 70  1  0  0  0  0
 54 70  1  0  0  0  0
 55 70  1  0  0  0  0
 56 71  1  0  0  0  0
 57 71  1  0  0  0  0
 58 82  1  0  0  0  0
 59 83  1  0  0  0  0
 60 61  1  0  0  0  0
 61 71  1  0  0  0  0
 62 64  1  0  0  0  0
 62 69  1  0  0  0  0
 63 65  1  0  0  0  0
 63 71  1  0  0  0  0
 64 73  1  0  0  0  0
 65 90  1  0  0  0  0
 66 82  1  0  0  0  0
 67 70  1  0  0  0  0
 67 81  1  0  0  0  0
 68 83  1  0  0  0  0
 72 74  1  0  0  0  0
M  CHG  2  75   1  83   1
M  ISO  4  35 100  65 101  82 100  90 101
M  END
> <Batch ID>
0063

> <Smiles>
CNC(C)C(=O)NC(C(=O)N1Cc2cc([101O:1][101CH2:1]CC(C)(C)CCc3cn(CCC(C)(C)C)c(C(C)[100N:0](C)[100C:0](=O)N4CCCC(n5nc(-c6ccc(Oc7ccc(F)cc7F)cc6)c(C(N)=O)c5N)C4)n3)ccc2CC1C(=O)NC1CCCc2ccccc21)C(C)(C)C

> <Shape>
0.327

> <Color>
0.129

> <Negative vol penalty>
0.000

$$$$

  -OEChem-04052318023D

 89 97  0     1  0  0  0  0  0999 V2000
  -19.4929  -27.8651   17.0910 C   0  0  0  0  0  0  0  0  0  0  0  0
  -20.3333  -26.9917   17.7737 C   0  0  0  0  0  0  0  0  0  0  0  0
  -22.4096  -10.5246   22.5749 C   0  0  0  0  0  0  0  0  0  0  0  0
  -24.3502   -9.1062   22.8184 C   0  0  0  0  0  0  0  0  0  0  0  0
  -19.8061  -29.2221   17.0233 C   0  0  0  0  0  0  0  0  0  0  0  0
  -21.4882  -27.4745   18.3882 C   0  0  0  0  0  0  0  0  0  0  0  0
  -23.9958  -25.4708   23.6038 C   0  0  0  0  0  0  0  0  0  0  0  0
  -21.6634   -9.4292   22.1404 C   0  0  0  0  0  0  0  0  0  0  0  0
  -23.6039   -8.0107   22.3839 C   0  0  0  0  0  0  0  0  0  0  0  0
  -25.0525  -24.5987   23.8622 C   0  0  0  0  0  0  0  0  0  0  0  0
  -22.1148   -4.7689   21.6830 C   0  0  0  0  0  0  0  0  0  0  0  0
  -22.2408   -3.5748   22.3929 C   0  0  0  0  0  0  0  0  0  0  0  0
  -30.1206  -18.0242   22.6392 C   0  0  0  0  0  0  0  0  0  0  0  0
  -30.1516  -16.8319   21.9375 C   0  0  0  0  0  0  0  0  0  0  0  0
  -26.5449  -26.4814   24.0806 C   0  0  0  0  0  0  0  0  0  0  0  0
  -21.4529   -4.6799   24.3917 C   0  0  0  0  0  0  0  0  0  0  0  0
  -23.7530  -10.3631   22.9138 C   0  0  0  0  0  0  0  0  0  0  0  0
  -24.6857  -11.9421   24.6871 C   0  0  0  0  0  0  0  0  0  0  0  0
  -20.9603  -29.7233   17.6455 C   0  0  0  0  0  0  0  0  0  0  0  0
  -24.2083  -26.8565   23.5711 C   0  0  0  0  0  0  0  0  0  0  0  0
  -21.8178  -28.8392   18.3276 C   0  0  0  0  0  0  0  0  0  0  0  0
  -25.4887  -27.3690   23.8242 C   0  0  0  0  0  0  0  0  0  0  0  0
  -22.2605   -8.1722   22.0449 C   0  0  0  0  0  0  0  0  0  0  0  0
  -26.3278  -25.1038   24.0977 C   0  0  0  0  0  0  0  0  0  0  0  0
  -21.6579   -5.9185   22.3275 C   0  0  0  0  0  0  0  0  0  0  0  0
  -21.9098   -3.5303   23.7472 C   0  0  0  0  0  0  0  0  0  0  0  0
  -21.3269   -5.8740   23.6818 C   0  0  0  0  0  0  0  0  0  0  0  0
  -24.5245  -11.4944   23.3622 C   0  0  0  0  0  0  0  0  0  0  0  0
  -30.1643  -19.2000   21.9173 C   0  0  0  0  0  0  0  0  0  0  0  0
  -30.2240  -16.8943   20.5604 C   0  0  0  0  0  0  0  0  0  0  0  0
  -25.5031  -13.0408   24.5812 C   0  0  0  0  0  0  0  0  0  0  0  0
  -24.1451  -11.4121   25.9047 C   0  0  0  0  0  0  0  0  0  0  0  0
  -23.9121  -29.1196   21.3589 C   0  0  0  0  0  0  0  0  0  0  0  0
  -24.6065  -31.0905   23.8400 C   0  0  0  0  0  0  0  0  0  0  0  0
  -29.5070  -14.5310   20.4553 C   0  0  0  0  0  0  0  0  0  0  0  0
  -26.0481  -31.4895   26.9074 C   0  0  0  0  0  0  0  0  0  0  0  0
  -21.2820  -31.1901   17.5049 C   0  0  0  0  0  0  0  0  0  0  0  0
  -23.0526  -27.7851   23.3175 C   0  0  0  0  0  0  0  0  0  0  0  0
  -25.7653  -28.8495   23.8204 C   0  0  0  0  0  0  0  0  0  0  0  0
  -22.3286  -31.6824   18.5012 C   0  0  0  0  0  0  0  0  0  0  0  0
  -26.6974  -16.5530   21.5710 C   0  0  0  0  0  0  0  0  0  0  0  0
  -23.5096  -30.7186   18.5547 C   0  0  0  0  0  0  0  0  0  0  0  0
  -25.8209  -15.5062   22.2571 C   0  0  0  0  0  0  0  0  0  0  0  0
  -27.4164  -15.9736   20.3554 C   0  0  0  0  0  0  0  0  0  0  0  0
  -27.3506  -13.7061   21.3446 C   0  0  0  0  0  0  0  0  0  0  0  0
  -23.0667  -29.3289   19.0281 C   0  0  1  0  0  0  0  0  0  0  0  0
  -23.4874  -29.1527   22.7998 C   0  0  1  0  0  0  0  0  0  0  0  0
  -26.6316  -14.2424   22.5938 C   0  0  2  0  0  0  0  0  0  0  0  0
  -26.4891  -33.2244   28.6661 C   0  0  0  0  0  0  0  0  0  0  0  0
  -26.8410  -32.2599   22.1227 C   0  0  0  0  0  0  0  0  0  0  0  0
  -27.8158  -33.2646   24.1985 C   0  0  0  0  0  0  0  0  0  0  0  0
  -25.5414  -33.9470   23.4340 C   0  0  0  0  0  0  0  0  0  0  0  0
  -24.4776  -30.0056   28.9299 C   0  0  0  0  0  0  0  0  0  0  0  0
  -30.1354  -20.5269   22.6330 C   0  0  0  0  0  0  0  0  0  0  0  0
  -28.7234  -21.0807   22.8537 C   0  0  0  0  0  0  0  0  0  0  0  0
  -28.7178  -22.4615   23.5112 C   0  0  0  0  0  0  0  0  0  0  0  0
  -27.2995  -22.9611   23.7504 C   0  0  0  0  0  0  0  0  0  1  0  0
  -25.8744  -31.6506   24.4379 C   0  0  1  0  0  0  0  0  0  0  0  0
  -25.5404  -32.1387   28.1822 C   0  0  2  0  0  0  0  0  0  0  0  0
  -30.2563  -15.6386   19.7583 C   0  0  0  0  0  0  0  0  0  0  0  0
  -26.5137  -32.7525   23.5465 C   0  0  0  0  0  0  0  0  0  0  0  0
  -29.5862  -15.7047   18.3523 C   0  0  0  0  0  0  0  0  0  0  0  0
  -31.7117  -15.1400   19.5525 C   0  0  0  0  0  0  0  0  0  0  0  0
  -25.1862  -12.2473   22.4794 N   0  0  0  0  0  0  0  0  0  0  0  0
  -30.2350  -19.2313   20.5696 N   0  0  0  0  0  0  0  0  0  0  0  0
  -30.2651  -18.0594   19.8801 N   0  0  0  0  0  0  0  0  0  0  0  0
  -25.7711  -13.1792   23.2511 N   0  0  0  0  0  0  0  0  0  0  0  0
  -24.6039  -29.7164   23.5612 N   0  0  0  0  0  0  0  0  0  0  0  0
  -28.1543  -14.7559   20.7120 N   0  0  0  0  0  0  0  0  0  0  0  0
  -26.0116  -13.8924   25.4971 N   0  0  0  0  0  0  0  0  0  0  0  0
  -23.3243  -10.2783   25.8334 N   0  0  0  0  0  0  0  0  0  0  0  0
  -22.8791  -29.3199   20.4631 N   0  0  0  0  0  0  0  0  0  0  0  0
  -25.5289  -32.0964   25.7834 N   0  0  0  0  0  0  0  0  0  0  0  0
  -25.4011  -31.1209   29.2619 N   0  3  0  0  0  0  0  0  0  0  0  0
  -24.3694  -11.9384   27.0210 O   0  0  0  0  0  0  0  0  0  0  0  0
  -25.0900  -28.9282   21.0804 O   0  0  0  0  0  0  0  0  0  0  0  0
  -23.6509  -31.8431   23.6346 O   0  0  0  0  0  0  0  0  0  0  0  0
  -30.1083  -13.4988   20.7639 O   0  0  0  0  0  0  0  0  0  0  0  0
  -26.8302  -30.5414   26.9085 O   0  0  0  0  0  0  0  0  0  0  0  0
  -21.5326   -7.1030   21.6212 O   0  0  0  0  0  0  0  0  0  0  0  0
  -27.3611  -24.2548   24.3495 O   0  0  0  0  0  0  0  0  0  1  0  0
  -22.0294   -2.3831   24.4283 F   0  0  0  0  0  0  0  0  0  0  0  0
  -20.8863   -6.9748   24.3061 F   0  0  0  0  0  0  0  0  0  0  0  0
  -30.1593  -16.6295   17.5441 F   0  0  0  0  0  0  0  0  0  0  0  0
  -29.6759  -14.5145   17.7166 F   0  0  0  0  0  0  0  0  0  0  0  0
  -28.2765  -16.0279   18.4414 F   0  0  0  0  0  0  0  0  0  0  0  0
  -32.3483  -14.8750   20.7171 F   0  0  0  0  0  0  0  0  0  0  0  0
  -31.7250  -14.0006   18.8226 F   0  0  0  0  0  0  0  0  0  0  0  0
  -32.4598  -16.0504   18.8902 F   0  0  0  0  0  0  0  0  0  0  0  0
  1  2  1  0  0  0  0
  1  5  2  0  0  0  0
  2  6  2  0  0  0  0
  3  8  2  0  0  0  0
  3 17  1  0  0  0  0
  4  9  1  0  0  0  0
  4 17  2  0  0  0  0
  5 19  1  0  0  0  0
  6 21  1  0  0  0  0
  7 10  2  0  0  0  0
  7 20  1  0  0  0  0
  8 23  1  0  0  0  0
  9 23  2  0  0  0  0
 10 24  1  0  0  0  0
 11 12  2  0  0  0  0
 11 25  1  0  0  0  0
 12 26  1  0  0  0  0
 13 14  2  0  0  0  0
 13 29  1  0  0  0  0
 14 30  1  0  0  0  0
 15 22  1  0  0  0  0
 15 24  2  0  0  0  0
 16 26  2  0  0  0  0
 16 27  1  0  0  0  0
 17 28  1  0  0  0  0
 18 28  1  0  0  0  0
 18 31  2  0  0  0  0
 18 32  1  0  0  0  0
 19 21  2  0  0  0  0
 19 37  1  0  0  0  0
 20 22  2  0  0  0  0
 20 38  1  0  0  0  0
 21 46  1  0  0  0  0
 22 39  1  0  0  0  0
 23 80  1  0  0  0  0
 24 81  1  0  0  0  0
 25 27  2  0  0  0  0
 25 80  1  0  0  0  0
 26 82  1  0  0  0  0
 27 83  1  0  0  0  0
 28 64  2  0  0  0  0
 29 54  1  0  0  0  0
 29 65  2  0  0  0  0
 30 60  1  0  0  0  0
 30 66  2  0  0  0  0
 31 67  1  0  0  0  0
 31 70  1  0  0  0  0
 32 71  1  0  0  0  0
 32 75  2  0  0  0  0
 33 47  1  0  0  0  0
 33 72  1  0  0  0  0
 33 76  2  0  0  0  0
 34 58  1  0  0  0  0
 34 68  1  0  0  0  0
 34 77  2  0  0  0  0
 35 60  1  0  0  0  0
 35 69  1  0  0  0  0
 35 78  2  0  0  0  0
 36 59  1  0  0  0  0
 36 73  1  0  0  0  0
 36 79  2  0  0  0  0
 37 40  1  0  0  0  0
 38 47  1  0  0  0  0
 39 68  1  0  0  0  0
 40 42  1  0  0  0  0
 41 43  1  0  0  0  0
 41 44  1  0  0  0  0
 42 46  1  0  0  0  0
 43 48  1  0  0  0  0
 44 69  1  0  0  0  0
 45 48  1  0  0  0  0
 45 69  1  0  0  0  0
 46 72  1  0  0  0  0
 47 68  1  0  0  0  0
 48 67  1  0  0  0  0
 49 59  1  0  0  0  0
 50 61  1  0  0  0  0
 51 61  1  0  0  0  0
 52 61  1  0  0  0  0
 53 74  1  0  0  0  0
 54 55  1  0  0  0  0
 55 56  1  0  0  0  0
 56 57  1  0  0  0  0
 57 81  1  0  0  0  0
 58 61  1  0  0  0  0
 58 73  1  0  0  0  0
 59 74  1  0  0  0  0
 60 62  1  0  0  0  0
 60 63  1  0  0  0  0
 62 84  1  0  0  0  0
 62 85  1  0  0  0  0
 62 86  1  0  0  0  0
 63 87  1  0  0  0  0
 63 88  1  0  0  0  0
 63 89  1  0  0  0  0
 64 67  1  0  0  0  0
 65 66  1  0  0  0  0
M  CHG  1  74   1
M  ISO  4  35 100  57 101  60 100  81 101
M  END
> <Batch ID>
0063

> <Smiles>
CNC(C)C(=O)NC(C(=O)N1Cc2cc([101O:1][101CH2:1]CCCc3ccc([100C:0]([100C:0](=O)N4CCCC(n5nc(-c6ccc(Oc7ccc(F)cc7F)cc6)c(C(N)=O)c5N)C4)(C(F)(F)F)C(F)(F)F)nn3)ccc2CC1C(=O)NC1CCCc2ccccc21)C(C)(C)C

> <Shape>
0.230

> <Color>
0.069

> <Negative vol penalty>
0.000

$$$$

  -OEChem-04052318023D

 87 95  0     1  0  0  0  0  0999 V2000
  -22.3772  -11.5422   19.6963 C   0  0  0  0  0  0  0  0  0  0  0  0
  -21.9083  -12.8191   19.9877 C   0  0  0  0  0  0  0  0  0  0  0  0
  -25.1398  -29.6788   19.4908 C   0  0  0  0  0  0  0  0  0  0  0  0
  -24.7757  -29.1556   21.8212 C   0  0  0  0  0  0  0  0  0  0  0  0
  -23.7243  -11.2358   19.8840 C   0  0  0  0  0  0  0  0  0  0  0  0
  -22.7861  -13.7902   20.4681 C   0  0  0  0  0  0  0  0  0  0  0  0
  -22.6171  -19.8018   19.3111 C   0  0  0  0  0  0  0  0  0  0  0  0
  -25.5965  -30.9477   19.8470 C   0  0  0  0  0  0  0  0  0  0  0  0
  -25.2325  -30.4245   22.1775 C   0  0  0  0  0  0  0  0  0  0  0  0
  -22.1163  -20.8827   20.0354 C   0  0  0  0  0  0  0  0  0  0  0  0
  -24.0248  -33.5819   22.2341 C   0  0  0  0  0  0  0  0  0  0  0  0
  -23.2898  -34.2925   23.1830 C   0  0  0  0  0  0  0  0  0  0  0  0
  -24.3196  -21.3002   20.9242 C   0  0  0  0  0  0  0  0  0  0  0  0
  -25.2254  -34.3662   24.6271 C   0  0  0  0  0  0  0  0  0  0  0  0
  -19.5608  -28.0073   23.4769 C   0  0  0  0  0  0  0  0  0  0  0  0
  -24.7293  -28.7828   20.4779 C   0  0  0  0  0  0  0  0  0  0  0  0
  -25.0247  -26.3008   19.9677 C   0  0  0  0  0  0  0  0  0  0  0  0
  -24.6210  -12.2064   20.3578 C   0  0  0  0  0  0  0  0  0  0  0  0
  -23.9731  -19.4547   19.3965 C   0  0  0  0  0  0  0  0  0  0  0  0
  -24.1462  -13.4962   20.6636 C   0  0  0  0  0  0  0  0  0  0  0  0
  -24.8357  -20.2161   20.1980 C   0  0  0  0  0  0  0  0  0  0  0  0
  -25.6429  -31.3205   21.1904 C   0  0  0  0  0  0  0  0  0  0  0  0
  -22.9669  -21.6303   20.8443 C   0  0  0  0  0  0  0  0  0  0  0  0
  -25.3601  -33.2634   22.4817 C   0  0  0  0  0  0  0  0  0  0  0  0
  -23.8901  -34.6847   24.3795 C   0  0  0  0  0  0  0  0  0  0  0  0
  -25.9604  -33.6556   23.6782 C   0  0  0  0  0  0  0  0  0  0  0  0
  -24.2568  -27.4721   20.1105 C   0  0  0  0  0  0  0  0  0  0  0  0
  -19.6567  -26.6476   23.3838 C   0  0  0  0  0  0  0  0  0  0  0  0
  -24.1153  -25.3357   19.6098 C   0  0  0  0  0  0  0  0  0  0  0  0
  -18.1782  -27.3323   21.8853 C   0  0  0  0  0  0  0  0  0  0  0  0
  -26.4338  -26.1029   20.1430 C   0  0  0  0  0  0  0  0  0  0  0  0
  -25.5748  -16.8922   20.3822 C   0  0  0  0  0  0  0  0  0  0  0  0
  -28.1290  -18.5280   19.2323 C   0  0  0  0  0  0  0  0  0  0  0  0
  -18.1889  -24.8812   20.4943 C   0  0  0  0  0  0  0  0  0  0  0  0
  -29.5109  -21.5387   18.4118 C   0  0  0  0  0  0  0  0  0  0  0  0
  -26.0589  -11.8148   20.5897 C   0  0  0  0  0  0  0  0  0  0  0  0
  -24.5031  -18.3023   18.5881 C   0  0  0  0  0  0  0  0  0  0  0  0
  -26.3035  -19.8972   20.3085 C   0  0  0  0  0  0  0  0  0  0  0  0
  -26.9975  -13.0083   20.7471 C   0  0  0  0  0  0  0  0  0  0  0  0
  -19.9360  -24.7648   17.3680 C   0  0  0  0  0  0  0  0  0  0  0  0
  -26.3991  -14.0357   21.7026 C   0  0  0  0  0  0  0  0  0  0  0  0
  -21.3019  -25.3656   17.6975 C   0  0  0  0  0  0  0  0  0  0  0  0
  -18.8237  -25.4339   18.1692 C   0  0  0  0  0  0  0  0  0  0  0  0
  -20.4079  -26.0133   19.9792 C   0  0  0  0  0  0  0  0  0  0  0  0
  -25.0724  -14.5838   21.1631 C   0  0  1  0  0  0  0  0  0  0  0  0
  -25.7976  -17.7234   19.1505 C   0  0  1  0  0  0  0  0  0  0  0  0
  -21.5637  -25.3448   19.2139 C   0  0  2  0  0  0  0  0  0  0  0  0
  -17.1687  -27.3543   20.7977 C   0  0  0  0  0  0  0  0  0  0  0  0
  -21.7355  -27.4425   27.4917 C   0  0  0  0  0  0  0  0  0  0  0  0
  -31.6275  -22.5605   17.5323 C   0  0  0  0  0  0  0  0  0  0  0  0
  -19.7054  -24.5894   24.9547 C   0  0  0  0  0  0  0  0  0  0  0  0
  -17.4164  -24.2670   22.7634 C   0  0  0  0  0  0  0  0  0  0  0  0
  -19.7955  -23.9692   22.0734 C   0  0  0  0  0  0  0  0  0  0  0  0
  -29.4451  -18.1420   21.9579 C   0  0  0  0  0  0  0  0  0  0  0  0
  -31.0738  -19.9433   21.3488 C   0  0  0  0  0  0  0  0  0  0  0  0
  -30.9803  -17.8428   20.0064 C   0  0  0  0  0  0  0  0  0  0  0  0
  -28.1304  -22.6367   16.0354 C   0  0  0  0  0  0  0  0  0  0  0  0
  -20.7479  -26.7841   26.5381 C   0  0  0  0  0  0  0  0  0  0  0  0
  -22.1270  -23.6057   23.7628 C   0  0  0  0  0  0  0  0  0  0  0  0
  -21.4218  -26.4223   25.2066 C   0  0  0  0  0  0  0  0  0  0  0  0
  -21.4981  -24.8944   23.2051 C   0  0  0  0  0  0  0  0  0  0  0  0
  -23.1274  -22.9923   22.7873 C   0  0  0  0  0  0  0  0  0  1  0  0
  -29.1052  -19.5268   19.8054 C   0  0  1  0  0  0  0  0  0  0  0  0
  -30.2600  -21.9995   17.1745 C   0  0  2  0  0  0  0  0  0  0  0  0
  -20.5242  -25.6504   24.1767 C   0  0  2  0  0  0  0  0  0  0  0  0
  -18.5671  -24.8914   21.9540 C   0  0  0  0  0  0  0  0  0  0  0  0
  -30.1231  -18.8688   20.7793 C   0  0  0  0  0  0  0  0  0  0  0  0
  -22.9596  -27.2716   19.8634 N   0  0  0  0  0  0  0  0  0  0  0  0
  -18.7901  -26.2568   22.3916 N   0  0  0  0  0  0  0  0  0  0  0  0
  -22.9053  -25.9631   19.5615 N   0  0  0  0  0  0  0  0  0  0  0  0
  -18.6392  -28.4040   22.5381 N   0  3  0  0  0  0  0  0  0  0  0  0
  -26.7727  -18.7572   19.5036 N   0  0  0  0  0  0  0  0  0  0  0  0
  -19.1204  -25.4134   19.6027 N   0  0  0  0  0  0  0  0  0  0  0  0
  -24.2408  -24.0200   19.3347 N   0  0  0  0  0  0  0  0  0  0  0  0
  -27.2220  -27.2015   20.5120 N   0  0  0  0  0  0  0  0  0  0  0  0
  -25.3147  -15.5601   20.1227 N   0  0  0  0  0  0  0  0  0  0  0  0
  -29.7181  -20.1992   18.6650 N   0  0  0  0  0  0  0  0  0  0  0  0
  -29.4879  -23.0593   16.4663 N   0  3  0  0  0  0  0  0  0  0  0  0
  -26.9805  -24.9886   19.9612 O   0  0  0  0  0  0  0  0  0  0  0  0
  -25.6359  -17.4200   21.4865 O   0  0  0  0  0  0  0  0  0  0  0  0
  -28.5538  -17.5834   18.5622 O   0  0  0  0  0  0  0  0  0  0  0  0
  -17.0988  -24.4110   20.1581 O   0  0  0  0  0  0  0  0  0  0  0  0
  -28.8148  -22.2925   19.0884 O   0  0  0  0  0  0  0  0  0  0  0  0
  -26.0887  -32.5585   21.5383 O   0  0  0  0  0  0  0  0  0  0  0  0
  -22.4806  -22.6854   21.5529 O   0  0  0  0  0  0  0  0  0  1  0  0
  -23.1846  -35.3684   25.2900 F   0  0  0  0  0  0  0  0  0  0  0  0
  -27.2432  -33.3535   23.9212 F   0  0  0  0  0  0  0  0  0  0  0  0
  1  2  1  0  0  0  0
  1  5  2  0  0  0  0
  2  6  2  0  0  0  0
  3  8  2  0  0  0  0
  3 16  1  0  0  0  0
  4  9  1  0  0  0  0
  4 16  2  0  0  0  0
  5 18  1  0  0  0  0
  6 20  1  0  0  0  0
  7 10  2  0  0  0  0
  7 19  1  0  0  0  0
  8 22  1  0  0  0  0
  9 22  2  0  0  0  0
 10 23  1  0  0  0  0
 11 12  2  0  0  0  0
 11 24  1  0  0  0  0
 12 25  1  0  0  0  0
 13 21  1  0  0  0  0
 13 23  2  0  0  0  0
 14 25  2  0  0  0  0
 14 26  1  0  0  0  0
 15 28  2  0  0  0  0
 15 71  1  0  0  0  0
 16 27  1  0  0  0  0
 17 27  1  0  0  0  0
 17 29  2  0  0  0  0
 17 31  1  0  0  0  0
 18 20  2  0  0  0  0
 18 36  1  0  0  0  0
 19 21  2  0  0  0  0
 19 37  1  0  0  0  0
 20 45  1  0  0  0  0
 21 38  1  0  0  0  0
 22 84  1  0  0  0  0
 23 85  1  0  0  0  0
 24 26  2  0  0  0  0
 24 84  1  0  0  0  0
 25 86  1  0  0  0  0
 26 87  1  0  0  0  0
 27 68  2  0  0  0  0
 28 65  1  0  0  0  0
 28 69  1  0  0  0  0
 29 70  1  0  0  0  0
 29 74  1  0  0  0  0
 30 48  1  0  0  0  0
 30 69  1  0  0  0  0
 30 71  2  0  0  0  0
 31 75  1  0  0  0  0
 31 79  2  0  0  0  0
 32 46  1  0  0  0  0
 32 76  1  0  0  0  0
 32 80  2  0  0  0  0
 33 63  1  0  0  0  0
 33 72  1  0  0  0  0
 33 81  2  0  0  0  0
 34 66  1  0  0  0  0
 34 73  1  0  0  0  0
 34 82  2  0  0  0  0
 35 64  1  0  0  0  0
 35 77  1  0  0  0  0
 35 83  2  0  0  0  0
 36 39  1  0  0  0  0
 37 46  1  0  0  0  0
 38 72  1  0  0  0  0
 39 41  1  0  0  0  0
 40 42  1  0  0  0  0
 40 43  1  0  0  0  0
 41 45  1  0  0  0  0
 42 47  1  0  0  0  0
 43 73  1  0  0  0  0
 44 47  1  0  0  0  0
 44 73  1  0  0  0  0
 45 76  1  0  0  0  0
 46 72  1  0  0  0  0
 47 70  1  0  0  0  0
 49 58  1  0  0  0  0
 50 64  1  0  0  0  0
 51 65  1  0  0  0  0
 52 66  1  0  0  0  0
 53 66  1  0  0  0  0
 54 67  1  0  0  0  0
 55 67  1  0  0  0  0
 56 67  1  0  0  0  0
 57 78  1  0  0  0  0
 58 60  1  0  0  0  0
 59 61  1  0  0  0  0
 59 62  1  0  0  0  0
 60 65  1  0  0  0  0
 61 65  1  0  0  0  0
 62 85  1  0  0  0  0
 63 67  1  0  0  0  0
 63 77  1  0  0  0  0
 64 78  1  0  0  0  0
 66 69  1  0  0  0  0
 68 70  1  0  0  0  0
M  CHG  2  71   1  78   1
M  ISO  4  34 100  62 101  66 100  85 101
M  END
> <Batch ID>
0063

> <Smiles>
CCCC(C)(CC[101CH2:1][101O:1]c1ccc2c(c1)CN(C(=O)C(NC(=O)C(C)NC)C(C)(C)C)C(C(=O)NC1CCCc3ccccc31)C2)c1cnc(C)n1[100C:0](C)(C)[100C:0](=O)N1CCCC(n2nc(-c3ccc(Oc4ccc(F)cc4F)cc3)c(C(N)=O)c2N)C1

> <Shape>
0.234

> <Color>
0.065

> <Negative vol penalty>
0.000

$$$$

  -OEChem-04052318023D

 85 93  0     1  0  0  0  0  0999 V2000
  -32.2537  -30.5343   16.9386 C   0  0  0  0  0  0  0  0  0  0  0  0
  -31.6750  -29.3619   17.4142 C   0  0  0  0  0  0  0  0  0  0  0  0
  -22.3748  -13.2331   20.7991 C   0  0  0  0  0  0  0  0  0  0  0  0
  -22.8361  -15.3239   21.9186 C   0  0  0  0  0  0  0  0  0  0  0  0
  -31.9756  -31.7502   17.5616 C   0  0  0  0  0  0  0  0  0  0  0  0
  -30.8187  -29.4047   18.5139 C   0  0  0  0  0  0  0  0  0  0  0  0
  -26.6430  -26.6216   17.8341 C   0  0  0  0  0  0  0  0  0  0  0  0
  -21.3931  -12.9425   21.7464 C   0  0  0  0  0  0  0  0  0  0  0  0
  -21.8543  -15.0333   22.8658 C   0  0  0  0  0  0  0  0  0  0  0  0
  -26.7648  -25.2418   17.9917 C   0  0  0  0  0  0  0  0  0  0  0  0
  -21.2590  -11.7887   24.9205 C   0  0  0  0  0  0  0  0  0  0  0  0
  -21.2350  -10.4999   25.4534 C   0  0  0  0  0  0  0  0  0  0  0  0
  -25.8380  -25.4196   20.2117 C   0  0  0  0  0  0  0  0  0  0  0  0
  -18.9911  -10.1937   24.6118 C   0  0  0  0  0  0  0  0  0  0  0  0
  -23.0964  -14.4238   20.8853 C   0  0  0  0  0  0  0  0  0  0  0  0
  -23.9422  -15.4129   18.6912 C   0  0  0  0  0  0  0  0  0  0  0  0
  -31.1078  -31.8092   18.6635 C   0  0  0  0  0  0  0  0  0  0  0  0
  -26.1270  -27.4136   18.8699 C   0  0  0  0  0  0  0  0  0  0  0  0
  -30.5298  -30.6224   19.1531 C   0  0  0  0  0  0  0  0  0  0  0  0
  -25.7082  -26.8090   20.0638 C   0  0  0  0  0  0  0  0  0  0  0  0
  -21.1328  -13.8426   22.7797 C   0  0  0  0  0  0  0  0  0  0  0  0
  -26.3650  -24.6409   19.1817 C   0  0  0  0  0  0  0  0  0  0  0  0
  -20.1490  -12.2800   24.2333 C   0  0  0  0  0  0  0  0  0  0  0  0
  -20.1011   -9.7024   25.2991 C   0  0  0  0  0  0  0  0  0  0  0  0
  -19.0151  -11.4825   24.0789 C   0  0  0  0  0  0  0  0  0  0  0  0
  -24.1111  -14.7243   19.9074 C   0  0  0  0  0  0  0  0  0  0  0  0
  -25.1968  -15.4361   18.1327 C   0  0  0  0  0  0  0  0  0  0  0  0
  -27.9505  -18.2714   19.6305 C   0  0  0  0  0  0  0  0  0  0  0  0
  -29.9113  -17.7005   19.1986 C   0  0  0  0  0  0  0  0  0  0  0  0
  -22.7572  -15.9809   18.1177 C   0  0  0  0  0  0  0  0  0  0  0  0
  -27.2581  -29.7885   20.6543 C   0  0  0  0  0  0  0  0  0  0  0  0
  -24.2086  -29.8944   21.7549 C   0  0  0  0  0  0  0  0  0  0  0  0
  -30.6791  -15.0562   20.5643 C   0  0  0  0  0  0  0  0  0  0  0  0
  -21.2528  -28.2651   22.2608 C   0  0  0  0  0  0  0  0  0  0  0  0
  -30.8746  -33.1402   19.3334 C   0  0  0  0  0  0  0  0  0  0  0  0
  -25.9772  -28.8974   18.6741 C   0  0  0  0  0  0  0  0  0  0  0  0
  -25.1290  -27.6121   21.1987 C   0  0  0  0  0  0  0  0  0  0  0  0
  -29.6621  -33.1512   20.2608 C   0  0  0  0  0  0  0  0  0  0  0  0
  -29.2899  -12.9772   17.9976 C   0  0  0  0  0  0  0  0  0  0  0  0
  -29.6653  -31.9177   21.1582 C   0  0  0  0  0  0  0  0  0  0  0  0
  -27.7868  -13.2305   18.1047 C   0  0  0  0  0  0  0  0  0  0  0  0
  -29.9616  -13.0153   19.3667 C   0  0  0  0  0  0  0  0  0  0  0  0
  -28.2113  -14.5313   20.2385 C   0  0  0  0  0  0  0  0  0  0  0  0
  -29.5763  -30.6314   20.3282 C   0  0  1  0  0  0  0  0  0  0  0  0
  -25.9166  -29.6703   19.9880 C   0  0  1  0  0  0  0  0  0  0  0  0
  -27.4990  -14.5319   18.8743 C   0  0  2  0  0  0  0  0  0  0  0  0
  -31.2461  -17.4788   18.6142 C   0  0  0  0  0  0  0  0  0  0  0  0
  -18.9567  -28.6010   23.2160 C   0  0  0  0  0  0  0  0  0  0  0  0
  -29.4095  -15.9431   22.4941 C   0  0  0  0  0  0  0  0  0  0  0  0
  -31.5859  -16.9442   21.7970 C   0  0  0  0  0  0  0  0  0  0  0  0
  -25.3510  -29.6668   24.5750 C   0  0  0  0  0  0  0  0  0  0  0  0
  -23.0599  -29.0562   25.3788 C   0  0  0  0  0  0  0  0  0  0  0  0
  -23.4622  -31.2893   24.3425 C   0  0  0  0  0  0  0  0  0  0  0  0
  -24.2795  -20.5346   20.7142 C   0  0  0  0  0  0  0  0  0  0  0  0
  -24.7334  -21.1868   18.3360 C   0  0  0  0  0  0  0  0  0  0  0  0
  -19.9632  -27.7391   19.6494 C   0  0  0  0  0  0  0  0  0  0  0  0
  -26.5973  -18.9248   19.4847 C   0  0  0  0  0  0  0  0  0  0  0  0
  -26.6597  -20.4209   19.8229 C   0  0  0  0  0  0  0  0  0  0  0  0
  -25.5349  -22.6537   20.1907 C   0  0  0  0  0  0  0  0  0  1  0  0
  -23.4541  -29.2273   22.8796 C   0  0  1  0  0  0  0  0  0  0  0  0
  -19.8186  -28.6650   21.9647 C   0  0  2  0  0  0  0  0  0  0  0  0
  -30.2754  -16.3212   21.2791 C   0  0  0  0  0  0  0  0  0  0  0  0
  -23.8445  -29.7947   24.2735 C   0  0  0  0  0  0  0  0  0  0  0  0
  -25.3047  -21.1826   19.7651 C   0  0  0  0  0  0  0  0  0  0  0  0
  -25.3734  -14.3378   20.1101 N   0  0  0  0  0  0  0  0  0  0  0  0
  -28.9318  -18.4125   18.6915 N   0  0  0  0  0  0  0  0  0  0  0  0
  -28.2612  -17.5168   20.6867 N   0  0  0  0  0  0  0  0  0  0  0  0
  -26.0091  -14.7850   19.0138 N   0  0  0  0  0  0  0  0  0  0  0  0
  -29.5203  -17.1642   20.3857 N   0  0  0  0  0  0  0  0  0  0  0  0
  -25.0086  -29.0601   20.9614 N   0  0  0  0  0  0  0  0  0  0  0  0
  -29.6457  -14.2570   20.0749 N   0  0  0  0  0  0  0  0  0  0  0  0
  -25.6733  -15.9497   16.9787 N   0  0  0  0  0  0  0  0  0  0  0  0
  -21.5523  -15.8675   18.8245 N   0  0  0  0  0  0  0  0  0  0  0  0
  -28.2178  -30.4121   19.8800 N   0  0  0  0  0  0  0  0  0  0  0  0
  -22.0377  -29.3597   22.5559 N   0  0  0  0  0  0  0  0  0  0  0  0
  -19.2287  -27.7573   20.9406 N   0  3  0  0  0  0  0  0  0  0  0  0
  -22.7635  -16.5573   17.0035 O   0  0  0  0  0  0  0  0  0  0  0  0
  -27.4108  -29.3480   21.7876 O   0  0  0  0  0  0  0  0  0  0  0  0
  -24.0867  -31.1097   21.5823 O   0  0  0  0  0  0  0  0  0  0  0  0
  -31.8775  -14.7896   20.4428 O   0  0  0  0  0  0  0  0  0  0  0  0
  -21.6374  -27.0980   22.2366 O   0  0  0  0  0  0  0  0  0  0  0  0
  -20.1747  -13.5595   23.7041 O   0  0  0  0  0  0  0  0  0  0  0  0
  -26.4834  -23.2943   19.3385 O   0  0  0  0  0  0  0  0  0  1  0  0
  -20.0787   -8.4642   25.8095 F   0  0  0  0  0  0  0  0  0  0  0  0
  -17.9462  -11.9486   23.4187 F   0  0  0  0  0  0  0  0  0  0  0  0
  1  2  1  0  0  0  0
  1  5  2  0  0  0  0
  2  6  2  0  0  0  0
  3  8  2  0  0  0  0
  3 15  1  0  0  0  0
  4  9  1  0  0  0  0
  4 15  2  0  0  0  0
  5 17  1  0  0  0  0
  6 19  1  0  0  0  0
  7 10  2  0  0  0  0
  7 18  1  0  0  0  0
  8 21  1  0  0  0  0
  9 21  2  0  0  0  0
 10 22  1  0  0  0  0
 11 12  2  0  0  0  0
 11 23  1  0  0  0  0
 12 24  1  0  0  0  0
 13 20  1  0  0  0  0
 13 22  2  0  0  0  0
 14 24  2  0  0  0  0
 14 25  1  0  0  0  0
 15 26  1  0  0  0  0
 16 26  1  0  0  0  0
 16 27  2  0  0  0  0
 16 30  1  0  0  0  0
 17 19  2  0  0  0  0
 17 35  1  0  0  0  0
 18 20  2  0  0  0  0
 18 36  1  0  0  0  0
 19 44  1  0  0  0  0
 20 37  1  0  0  0  0
 21 82  1  0  0  0  0
 22 83  1  0  0  0  0
 23 25  2  0  0  0  0
 23 82  1  0  0  0  0
 24 84  1  0  0  0  0
 25 85  1  0  0  0  0
 26 65  2  0  0  0  0
 27 68  1  0  0  0  0
 27 72  1  0  0  0  0
 28 57  1  0  0  0  0
 28 66  1  0  0  0  0
 28 67  2  0  0  0  0
 29 47  1  0  0  0  0
 29 66  2  0  0  0  0
 29 69  1  0  0  0  0
 30 73  1  0  0  0  0
 30 77  2  0  0  0  0
 31 45  1  0  0  0  0
 31 74  1  0  0  0  0
 31 78  2  0  0  0  0
 32 60  1  0  0  0  0
 32 70  1  0  0  0  0
 32 79  2  0  0  0  0
 33 62  1  0  0  0  0
 33 71  1  0  0  0  0
 33 80  2  0  0  0  0
 34 61  1  0  0  0  0
 34 75  1  0  0  0  0
 34 81  2  0  0  0  0
 35 38  1  0  0  0  0
 36 45  1  0  0  0  0
 37 70  1  0  0  0  0
 38 40  1  0  0  0  0
 39 41  1  0  0  0  0
 39 42  1  0  0  0  0
 40 44  1  0  0  0  0
 41 46  1  0  0  0  0
 42 71  1  0  0  0  0
 43 46  1  0  0  0  0
 43 71  1  0  0  0  0
 44 74  1  0  0  0  0
 45 70  1  0  0  0  0
 46 68  1  0  0  0  0
 48 61  1  0  0  0  0
 49 62  1  0  0  0  0
 50 62  1  0  0  0  0
 51 63  1  0  0  0  0
 52 63  1  0  0  0  0
 53 63  1  0  0  0  0
 54 64  1  0  0  0  0
 55 64  1  0  0  0  0
 56 76  1  0  0  0  0
 57 58  1  0  0  0  0
 58 64  1  0  0  0  0
 59 64  1  0  0  0  0
 59 83  1  0  0  0  0
 60 63  1  0  0  0  0
 60 75  1  0  0  0  0
 61 76  1  0  0  0  0
 62 69  1  0  0  0  0
 65 68  1  0  0  0  0
 67 69  1  0  0  0  0
M  CHG  1  76   1
M  ISO  4  33 100  59 101  62 100  83 101
M  END
> <Batch ID>
0063

> <Smiles>
CNC(C)C(=O)NC(C(=O)N1Cc2cc([101O:1][101CH2:1]C(C)(C)CCc3nc(C)n([100C:0](C)(C)[100C:0](=O)N4CCCC(n5nc(-c6ccc(Oc7ccc(F)cc7F)cc6)c(C(N)=O)c5N)C4)n3)ccc2CC1C(=O)NC1CCCc2ccccc21)C(C)(C)C

> <Shape>
0.226

> <Color>
0.057

> <Negative vol penalty>
0.000

$$$$

  -OEChem-04052318023D

 85 93  0     1  0  0  0  0  0999 V2000
  -20.3279  -22.4165   29.9847 C   0  0  0  0  0  0  0  0  0  0  0  0
  -21.3743  -22.3570   29.0698 C   0  0  0  0  0  0  0  0  0  0  0  0
  -26.9511  -13.5513   21.3496 C   0  0  0  0  0  0  0  0  0  0  0  0
  -26.8402  -13.6547   18.9383 C   0  0  0  0  0  0  0  0  0  0  0  0
  -19.1742  -23.1363   29.6767 C   0  0  0  0  0  0  0  0  0  0  0  0
  -21.2671  -23.0165   27.8459 C   0  0  0  0  0  0  0  0  0  0  0  0
  -25.4733  -25.5644   26.6371 C   0  0  0  0  0  0  0  0  0  0  0  0
  -26.2015  -12.3751   21.3336 C   0  0  0  0  0  0  0  0  0  0  0  0
  -26.0907  -12.4785   18.9223 C   0  0  0  0  0  0  0  0  0  0  0  0
  -26.5441  -24.8249   26.1368 C   0  0  0  0  0  0  0  0  0  0  0  0
  -22.9554  -11.4950   20.9976 C   0  0  0  0  0  0  0  0  0  0  0  0
  -21.9113  -11.3803   21.9154 C   0  0  0  0  0  0  0  0  0  0  0  0
  -25.9441  -25.4842   23.8952 C   0  0  0  0  0  0  0  0  0  0  0  0
  -22.9640   -9.4257   22.8686 C   0  0  0  0  0  0  0  0  0  0  0  0
  -30.8521  -23.1055   20.7043 C   0  0  0  0  0  0  0  0  0  0  0  0
  -27.2704  -14.1912   20.1519 C   0  0  0  0  0  0  0  0  0  0  0  0
  -29.4459  -15.5227   20.1082 C   0  0  0  0  0  0  0  0  0  0  0  0
  -19.0568  -23.8129   28.4523 C   0  0  0  0  0  0  0  0  0  0  0  0
  -24.6220  -26.2617   25.7680 C   0  0  0  0  0  0  0  0  0  0  0  0
  -20.1103  -23.7449   27.5206 C   0  0  0  0  0  0  0  0  0  0  0  0
  -24.8648  -26.2339   24.3873 C   0  0  0  0  0  0  0  0  0  0  0  0
  -25.7713  -11.8387   20.1200 C   0  0  0  0  0  0  0  0  0  0  0  0
  -26.7779  -24.7823   24.7654 C   0  0  0  0  0  0  0  0  0  0  0  0
  -24.0038  -10.5751   21.0153 C   0  0  0  0  0  0  0  0  0  0  0  0
  -21.9156  -10.3456   22.8509 C   0  0  0  0  0  0  0  0  0  0  0  0
  -24.0081   -9.5404   21.9508 C   0  0  0  0  0  0  0  0  0  0  0  0
  -28.0442  -15.4065   20.1678 C   0  0  0  0  0  0  0  0  0  0  0  0
  -31.1391  -23.7482   19.4852 C   0  0  0  0  0  0  0  0  0  0  0  0
  -30.3885  -24.1083   21.5203 C   0  0  0  0  0  0  0  0  0  0  0  0
  -29.6806  -16.8752   20.1545 C   0  0  0  0  0  0  0  0  0  0  0  0
  -30.4463  -14.4996   20.0187 C   0  0  0  0  0  0  0  0  0  0  0  0
  -21.5251  -26.1172   25.0664 C   0  0  0  0  0  0  0  0  0  0  0  0
  -22.2004  -28.7540   23.3018 C   0  0  0  0  0  0  0  0  0  0  0  0
  -24.5311  -30.6007   21.6273 C   0  0  0  0  0  0  0  0  0  0  0  0
  -28.4968  -22.0789   18.5220 C   0  0  0  0  0  0  0  0  0  0  0  0
  -17.7712  -24.5389   28.1445 C   0  0  0  0  0  0  0  0  0  0  0  0
  -23.4873  -27.0765   26.3256 C   0  0  0  0  0  0  0  0  0  0  0  0
  -23.9924  -26.9815   23.4134 C   0  0  0  0  0  0  0  0  0  0  0  0
  -17.8892  -25.5197   26.9806 C   0  0  0  0  0  0  0  0  0  0  0  0
  -26.5650  -20.7238   21.1881 C   0  0  0  0  0  0  0  0  0  0  0  0
  -18.6133  -24.8696   25.8060 C   0  0  0  0  0  0  0  0  0  0  0  0
  -26.8884  -19.2291   21.1512 C   0  0  0  0  0  0  0  0  0  0  0  0
  -26.5043  -21.3229   19.7848 C   0  0  0  0  0  0  0  0  0  0  0  0
  -28.0232  -19.5860   18.9188 C   0  0  0  0  0  0  0  0  0  0  0  0
  -20.0417  -24.4675   26.1927 C   0  0  1  0  0  0  0  0  0  0  0  0
  -22.3780  -27.3301   25.3094 C   0  0  1  0  0  0  0  0  0  0  0  0
  -28.1504  -18.9490   20.3132 C   0  0  2  0  0  0  0  0  0  0  0  0
  -24.7759  -32.6862   20.2532 C   0  0  0  0  0  0  0  0  0  0  0  0
  -32.6047  -21.8851   18.4472 C   0  0  0  0  0  0  0  0  0  0  0  0
  -32.5612  -24.1606   17.4591 C   0  0  0  0  0  0  0  0  0  0  0  0
  -30.7316  -24.9843   23.9274 C   0  0  0  0  0  0  0  0  0  0  0  0
  -30.0184  -22.6375   23.5252 C   0  0  0  0  0  0  0  0  0  0  0  0
  -20.9395  -27.3278   20.9173 C   0  0  0  0  0  0  0  0  0  0  0  0
  -22.0424  -29.0043   19.4202 C   0  0  0  0  0  0  0  0  0  0  0  0
  -20.3632  -29.7540   21.1057 C   0  0  0  0  0  0  0  0  0  0  0  0
  -30.0327  -26.5732   21.1852 C   0  0  0  0  0  0  0  0  0  0  0  0
  -26.4139  -31.7995   23.5708 C   0  0  0  0  0  0  0  0  0  0  0  0
  -30.5414  -22.6804   17.2503 C   0  0  0  0  0  0  0  0  0  0  0  0
  -28.4209  -24.5253   23.0653 C   0  0  0  0  0  0  0  0  0  1  0  0
  -22.6494  -29.0044   21.8824 C   0  0  1  0  0  0  0  0  0  0  0  0
  -24.8447  -32.0859   21.6488 C   0  0  2  0  0  0  0  0  0  0  0  0
  -31.6700  -23.1402   18.2535 C   0  0  0  0  0  0  0  0  0  0  0  0
  -29.9039  -24.0805   22.9821 C   0  0  0  0  0  0  0  0  0  0  0  0
  -21.5141  -28.7569   20.8493 C   0  0  0  0  0  0  0  0  0  0  0  0
  -27.4315  -16.5908   20.2463 N   0  0  0  0  0  0  0  0  0  0  0  0
  -30.8794  -25.0579   19.5191 N   0  0  0  0  0  0  0  0  0  0  0  0
  -30.4243  -25.2464   20.7695 N   0  0  0  0  0  0  0  0  0  0  0  0
  -28.4530  -17.4640   20.2363 N   0  0  0  0  0  0  0  0  0  0  0  0
  -22.8918  -27.7587   24.0070 N   0  0  0  0  0  0  0  0  0  0  0  0
  -27.7315  -21.0227   19.0433 N   0  0  0  0  0  0  0  0  0  0  0  0
  -30.8152  -17.6064   20.1330 N   0  0  0  0  0  0  0  0  0  0  0  0
  -30.0318  -13.1612   19.9811 N   0  0  0  0  0  0  0  0  0  0  0  0
  -20.9083  -25.6265   26.2014 N   0  0  0  0  0  0  0  0  0  0  0  0
  -23.1938  -30.3577   21.8592 N   0  0  0  0  0  0  0  0  0  0  0  0
  -29.6480  -21.7073   17.8383 N   0  0  0  0  0  0  0  0  0  0  0  0
  -26.2121  -32.3188   22.1937 N   0  3  0  0  0  0  0  0  0  0  0  0
  -31.6723  -14.7636   19.9900 O   0  0  0  0  0  0  0  0  0  0  0  0
  -21.4323  -25.6611   23.9327 O   0  0  0  0  0  0  0  0  0  0  0  0
  -21.2751  -29.4219   23.7701 O   0  0  0  0  0  0  0  0  0  0  0  0
  -25.3863  -29.7423   21.4215 O   0  0  0  0  0  0  0  0  0  0  0  0
  -28.1805  -23.2654   18.6603 O   0  0  0  0  0  0  0  0  0  0  0  0
  -25.0401  -10.6908   20.1040 O   0  0  0  0  0  0  0  0  0  0  0  0
  -27.8220  -24.0607   24.2743 O   0  0  0  0  0  0  0  0  0  1  0  0
  -20.9137  -10.2365   23.7332 F   0  0  0  0  0  0  0  0  0  0  0  0
  -25.0132   -8.6543   21.9735 F   0  0  0  0  0  0  0  0  0  0  0  0
  1  2  1  0  0  0  0
  1  5  2  0  0  0  0
  2  6  2  0  0  0  0
  3  8  2  0  0  0  0
  3 16  1  0  0  0  0
  4  9  1  0  0  0  0
  4 16  2  0  0  0  0
  5 18  1  0  0  0  0
  6 20  1  0  0  0  0
  7 10  2  0  0  0  0
  7 19  1  0  0  0  0
  8 22  1  0  0  0  0
  9 22  2  0  0  0  0
 10 23  1  0  0  0  0
 11 12  2  0  0  0  0
 11 24  1  0  0  0  0
 12 25  1  0  0  0  0
 13 21  1  0  0  0  0
 13 23  2  0  0  0  0
 14 25  2  0  0  0  0
 14 26  1  0  0  0  0
 15 28  1  0  0  0  0
 15 29  2  0  0  0  0
 16 27  1  0  0  0  0
 17 27  1  0  0  0  0
 17 30  2  0  0  0  0
 17 31  1  0  0  0  0
 18 20  2  0  0  0  0
 18 36  1  0  0  0  0
 19 21  2  0  0  0  0
 19 37  1  0  0  0  0
 20 45  1  0  0  0  0
 21 38  1  0  0  0  0
 22 82  1  0  0  0  0
 23 83  1  0  0  0  0
 24 26  2  0  0  0  0
 24 82  1  0  0  0  0
 25 84  1  0  0  0  0
 26 85  1  0  0  0  0
 27 65  2  0  0  0  0
 28 62  1  0  0  0  0
 28 66  2  0  0  0  0
 29 63  1  0  0  0  0
 29 67  1  0  0  0  0
 30 68  1  0  0  0  0
 30 71  1  0  0  0  0
 31 72  1  0  0  0  0
 31 77  2  0  0  0  0
 32 46  1  0  0  0  0
 32 73  1  0  0  0  0
 32 78  2  0  0  0  0
 33 60  1  0  0  0  0
 33 69  1  0  0  0  0
 33 79  2  0  0  0  0
 34 61  1  0  0  0  0
 34 74  1  0  0  0  0
 34 80  2  0  0  0  0
 35 70  1  0  0  0  0
 35 75  1  0  0  0  0
 35 81  2  0  0  0  0
 36 39  1  0  0  0  0
 37 46  1  0  0  0  0
 38 69  1  0  0  0  0
 39 41  1  0  0  0  0
 40 42  1  0  0  0  0
 40 43  1  0  0  0  0
 41 45  1  0  0  0  0
 42 47  1  0  0  0  0
 43 70  1  0  0  0  0
 44 47  1  0  0  0  0
 44 70  1  0  0  0  0
 45 73  1  0  0  0  0
 46 69  1  0  0  0  0
 47 68  1  0  0  0  0
 48 61  1  0  0  0  0
 49 62  1  0  0  0  0
 50 62  1  0  0  0  0
 51 63  1  0  0  0  0
 52 63  1  0  0  0  0
 53 64  1  0  0  0  0
 54 64  1  0  0  0  0
 55 64  1  0  0  0  0
 56 67  1  0  0  0  0
 57 76  1  0  0  0  0
 58 62  1  0  0  0  0
 58 75  1  0  0  0  0
 59 63  1  0  0  0  0
 59 83  1  0  0  0  0
 60 64  1  0  0  0  0
 60 74  1  0  0  0  0
 61 76  1  0  0  0  0
 65 68  1  0  0  0  0
 66 67  1  0  0  0  0
M  CHG  1  76   1
M  ISO  4  35 100  59 101  75 100  83 101
M  END
> <Batch ID>
0063

> <Smiles>
CNC(C)C(=O)NC(C(=O)N1Cc2cc([101O:1][101CH2:1]C(C)(C)c3cc(C(C)(C)C[100NH:0][100C:0](=O)N4CCCC(n5nc(-c6ccc(Oc7ccc(F)cc7F)cc6)c(C(N)=O)c5N)C4)nn3C)ccc2CC1C(=O)NC1CCCc2ccccc21)C(C)(C)C

> <Shape>
0.225

> <Color>
0.066

> <Negative vol penalty>
0.000

$$$$

  -OEChem-04052318023D

 92100  0     1  0  0  0  0  0999 V2000
  -21.5307  -23.2296   18.6634 C   0  0  0  0  0  0  0  0  0  0  0  0
  -22.8517  -22.8073   18.5532 C   0  0  0  0  0  0  0  0  0  0  0  0
  -21.2304  -29.5243   21.5557 C   0  0  0  0  0  0  0  0  0  0  0  0
  -22.4203  -29.0480   23.6037 C   0  0  0  0  0  0  0  0  0  0  0  0
  -20.6742  -22.6064   19.5699 C   0  0  0  0  0  0  0  0  0  0  0  0
  -23.3171  -21.7621   19.3503 C   0  0  0  0  0  0  0  0  0  0  0  0
  -27.4447  -17.5100   17.8050 C   0  0  0  0  0  0  0  0  0  0  0  0
  -20.0253  -29.2068   22.1820 C   0  0  0  0  0  0  0  0  0  0  0  0
  -21.2151  -28.7305   24.2301 C   0  0  0  0  0  0  0  0  0  0  0  0
  -28.8111  -17.3939   18.0567 C   0  0  0  0  0  0  0  0  0  0  0  0
  -17.8595  -30.6895   24.3137 C   0  0  0  0  0  0  0  0  0  0  0  0
  -16.7787  -31.5480   24.1128 C   0  0  0  0  0  0  0  0  0  0  0  0
  -28.3354  -15.9818   19.9538 C   0  0  0  0  0  0  0  0  0  0  0  0
  -15.5149  -29.7306   23.1447 C   0  0  0  0  0  0  0  0  0  0  0  0
  -22.4280  -29.4449   22.2665 C   0  0  0  0  0  0  0  0  0  0  0  0
  -24.2912  -31.0355   21.5550 C   0  0  0  0  0  0  0  0  0  0  0  0
  -21.1267  -21.5467   20.3717 C   0  0  0  0  0  0  0  0  0  0  0  0
  -26.5115  -16.8707   18.6336 C   0  0  0  0  0  0  0  0  0  0  0  0
  -22.4661  -21.1250   20.2694 C   0  0  0  0  0  0  0  0  0  0  0  0
  -26.9579  -16.0893   19.7089 C   0  0  0  0  0  0  0  0  0  0  0  0
  -20.0176  -28.8099   23.5192 C   0  0  0  0  0  0  0  0  0  0  0  0
  -29.2565  -16.6321   19.1330 C   0  0  0  0  0  0  0  0  0  0  0  0
  -17.7681  -29.3515   23.9300 C   0  0  0  0  0  0  0  0  0  0  0  0
  -15.6064  -31.0686   23.5284 C   0  0  0  0  0  0  0  0  0  0  0  0
  -16.5958  -28.8721   23.3456 C   0  0  0  0  0  0  0  0  0  0  0  0
  -23.6733  -29.7722   21.6199 C   0  0  0  0  0  0  0  0  0  0  0  0
  -25.4418  -30.8185   20.8370 C   0  0  0  0  0  0  0  0  0  0  0  0
  -31.3010  -21.3431   19.5492 C   0  0  0  0  0  0  0  0  0  0  0  0
  -30.3929  -23.2029   19.2781 C   0  0  0  0  0  0  0  0  0  0  0  0
  -23.8633  -32.2926   22.0954 C   0  0  0  0  0  0  0  0  0  0  0  0
  -24.1537  -17.8481   20.5282 C   0  0  0  0  0  0  0  0  0  0  0  0
  -23.5807  -14.6673   20.8047 C   0  0  0  0  0  0  0  0  0  0  0  0
  -29.4486  -26.5816   20.7831 C   0  0  0  0  0  0  0  0  0  0  0  0
  -24.7846  -11.4795   20.6170 C   0  0  0  0  0  0  0  0  0  0  0  0
  -20.1767  -20.9353   21.3708 C   0  0  0  0  0  0  0  0  0  0  0  0
  -25.0421  -16.9840   18.3327 C   0  0  0  0  0  0  0  0  0  0  0  0
  -25.9975  -15.3664   20.6164 C   0  0  0  0  0  0  0  0  0  0  0  0
  -20.6460  -19.5871   21.9116 C   0  0  0  0  0  0  0  0  0  0  0  0
  -26.9772  -26.8607   18.0905 C   0  0  0  0  0  0  0  0  0  0  0  0
  -22.1171  -19.6543   22.3092 C   0  0  0  0  0  0  0  0  0  0  0  0
  -25.9095  -27.5638   18.9350 C   0  0  0  0  0  0  0  0  0  0  0  0
  -28.4090  -27.1522   18.5385 C   0  0  0  0  0  0  0  0  0  0  0  0
  -27.6285  -28.2256   20.6496 C   0  0  0  0  0  0  0  0  0  0  0  0
  -23.0015  -19.9782   21.0990 C   0  0  1  0  0  0  0  0  0  0  0  0
  -24.1606  -16.7099   19.5473 C   0  0  1  0  0  0  0  0  0  0  0  0
  -26.4959  -28.7319   19.7401 C   0  0  2  0  0  0  0  0  0  0  0  0
  -33.4899  -17.2238   19.1417 C   0  0  0  0  0  0  0  0  0  0  0  0
  -32.7470  -23.4568   16.4091 C   0  0  0  0  0  0  0  0  0  0  0  0
  -24.0892   -9.0893   20.9346 C   0  0  0  0  0  0  0  0  0  0  0  0
  -31.1997  -26.5706   19.0807 C   0  0  0  0  0  0  0  0  0  0  0  0
  -31.4259  -25.1673   21.1151 C   0  0  0  0  0  0  0  0  0  0  0  0
  -23.7113  -15.0340   23.8309 C   0  0  0  0  0  0  0  0  0  0  0  0
  -23.9651  -12.5529   24.0506 C   0  0  0  0  0  0  0  0  0  0  0  0
  -21.8931  -13.5086   23.0424 C   0  0  0  0  0  0  0  0  0  0  0  0
  -30.4554  -17.3779   21.5979 C   0  0  0  0  0  0  0  0  0  0  0  0
  -25.3635  -10.8143   17.7918 C   0  0  0  0  0  0  0  0  0  0  0  0
  -31.6927  -20.0355   20.1927 C   0  0  0  0  0  0  0  0  0  0  0  0
  -32.6693  -17.1465   20.4243 C   0  0  0  0  0  0  0  0  0  0  0  0
  -30.9147  -18.8615   19.5900 C   0  0  0  0  0  0  0  0  0  0  0  0
  -31.3617  -23.6673   16.9957 C   0  0  0  0  0  0  0  0  0  0  0  0
  -24.0532  -13.5724   21.7303 C   0  0  1  0  0  0  0  0  0  0  0  0
  -24.2368  -10.2339   19.9441 C   0  0  2  0  0  0  0  0  0  0  0  0
  -29.6197  -24.4527   19.3899 C   0  0  2  0  0  0  0  0  0  0  0  0
  -30.4158  -25.6767   20.0636 C   0  0  0  0  0  0  0  0  0  0  0  0
  -23.4240  -13.6820   23.1478 C   0  0  0  0  0  0  0  0  0  0  0  0
  -31.1747  -17.4892   20.2474 C   0  0  2  0  0  0  0  0  0  1  0  0
  -28.2131  -24.2536   20.0552 C   0  0  0  0  0  0  0  0  0  0  0  0
  -24.3734  -28.8230   20.9930 N   0  0  0  0  0  0  0  0  0  0  0  0
  -30.4665  -22.2341   20.1610 N   0  0  0  0  0  0  0  0  0  0  0  0
  -31.7484  -21.6996   18.3433 N   0  0  0  0  0  0  0  0  0  0  0  0
  -25.4430  -29.4902   20.5273 N   0  0  0  0  0  0  0  0  0  0  0  0
  -31.1529  -22.8926   18.1937 N   0  0  0  0  0  0  0  0  0  0  0  0
  -24.5706  -15.5132   20.2848 N   0  0  0  0  0  0  0  0  0  0  0  0
  -28.5142  -27.2566   19.9958 N   0  0  0  0  0  0  0  0  0  0  0  0
  -26.4425  -31.6362   20.4467 N   0  0  0  0  0  0  0  0  0  0  0  0
  -22.6563  -32.3382   22.8064 N   0  0  0  0  0  0  0  0  0  0  0  0
  -23.1848  -18.8010   20.2775 N   0  0  0  0  0  0  0  0  0  0  0  0
  -23.7745  -12.3130   21.0486 N   0  0  0  0  0  0  0  0  0  0  0  0
  -25.1471   -9.7936   18.8493 N   0  3  0  0  0  0  0  0  0  0  0  0
  -24.5233  -33.3477   21.9381 O   0  0  0  0  0  0  0  0  0  0  0  0
  -24.9662  -17.8602   21.4454 O   0  0  0  0  0  0  0  0  0  0  0  0
  -22.3783  -14.7640   20.5466 O   0  0  0  0  0  0  0  0  0  0  0  0
  -29.5152  -26.6880   22.0107 O   0  0  0  0  0  0  0  0  0  0  0  0
  -25.9881  -11.6901   20.7500 O   0  0  0  0  0  0  0  0  0  0  0  0
  -29.2522  -24.9225   18.0519 O   0  0  0  0  0  0  0  0  0  0  0  0
  -18.8417  -28.5002   24.1308 O   0  0  0  0  0  0  0  0  0  0  0  0
  -30.5896  -16.5176   19.3813 O   0  0  0  0  0  0  0  0  0  1  0  0
  -14.5680  -31.8927   23.3370 F   0  0  0  0  0  0  0  0  0  0  0  0
  -16.5017  -27.5874   22.9760 F   0  0  0  0  0  0  0  0  0  0  0  0
  -28.3684  -23.7580   21.3062 F   0  0  0  0  0  0  0  0  0  0  0  0
  -27.4209  -23.3777   19.3925 F   0  0  0  0  0  0  0  0  0  0  0  0
  -27.5256  -25.4097   20.1570 F   0  0  0  0  0  0  0  0  0  0  0  0
  1  2  1  0  0  0  0
  1  5  2  0  0  0  0
  2  6  2  0  0  0  0
  3  8  2  0  0  0  0
  3 15  1  0  0  0  0
  4  9  1  0  0  0  0
  4 15  2  0  0  0  0
  5 17  1  0  0  0  0
  6 19  1  0  0  0  0
  7 10  2  0  0  0  0
  7 18  1  0  0  0  0
  8 21  1  0  0  0  0
  9 21  2  0  0  0  0
 10 22  1  0  0  0  0
 11 12  2  0  0  0  0
 11 23  1  0  0  0  0
 12 24  1  0  0  0  0
 13 20  1  0  0  0  0
 13 22  2  0  0  0  0
 14 24  2  0  0  0  0
 14 25  1  0  0  0  0
 15 26  1  0  0  0  0
 16 26  1  0  0  0  0
 16 27  2  0  0  0  0
 16 30  1  0  0  0  0
 17 19  2  0  0  0  0
 17 35  1  0  0  0  0
 18 20  2  0  0  0  0
 18 36  1  0  0  0  0
 19 44  1  0  0  0  0
 20 37  1  0  0  0  0
 21 86  1  0  0  0  0
 22 87  1  0  0  0  0
 23 25  2  0  0  0  0
 23 86  1  0  0  0  0
 24 88  1  0  0  0  0
 25 89  1  0  0  0  0
 26 68  2  0  0  0  0
 27 71  1  0  0  0  0
 27 75  1  0  0  0  0
 28 57  1  0  0  0  0
 28 69  1  0  0  0  0
 28 70  2  0  0  0  0
 29 63  1  0  0  0  0
 29 69  2  0  0  0  0
 29 72  1  0  0  0  0
 30 76  1  0  0  0  0
 30 80  2  0  0  0  0
 31 45  1  0  0  0  0
 31 77  1  0  0  0  0
 31 81  2  0  0  0  0
 32 61  1  0  0  0  0
 32 73  1  0  0  0  0
 32 82  2  0  0  0  0
 33 64  1  0  0  0  0
 33 74  1  0  0  0  0
 33 83  2  0  0  0  0
 34 62  1  0  0  0  0
 34 78  1  0  0  0  0
 34 84  2  0  0  0  0
 35 38  1  0  0  0  0
 36 45  1  0  0  0  0
 37 73  1  0  0  0  0
 38 40  1  0  0  0  0
 39 41  1  0  0  0  0
 39 42  1  0  0  0  0
 40 44  1  0  0  0  0
 41 46  1  0  0  0  0
 42 74  1  0  0  0  0
 43 46  1  0  0  0  0
 43 74  1  0  0  0  0
 44 77  1  0  0  0  0
 45 73  1  0  0  0  0
 46 71  1  0  0  0  0
 47 58  1  0  0  0  0
 48 60  1  0  0  0  0
 49 62  1  0  0  0  0
 50 64  1  0  0  0  0
 51 64  1  0  0  0  0
 52 65  1  0  0  0  0
 53 65  1  0  0  0  0
 54 65  1  0  0  0  0
 55 66  1  0  0  0  0
 56 79  1  0  0  0  0
 57 59  1  0  0  0  0
 58 66  1  0  0  0  0
 59 66  1  0  0  0  0
 60 72  1  0  0  0  0
 61 65  1  0  0  0  0
 61 78  1  0  0  0  0
 62 79  1  0  0  0  0
 63 64  1  0  0  0  0
 63 67  1  0  0  0  0
 63 85  1  0  0  0  0
 66 87  1  0  0  0  0
 67 90  1  0  0  0  0
 67 91  1  0  0  0  0
 67 92  1  0  0  0  0
 68 71  1  0  0  0  0
 70 72  1  0  0  0  0
M  CHG  1  79   1
M  ISO  4  33 100  64 100  66 101  87 101
M  END
> <Batch ID>
0063

> <Smiles>
CCn1nc(CC[101C:1](C)(CC)[101O:1]c2ccc3c(c2)CN(C(=O)C(NC(=O)C(C)NC)C(C)(C)C)C(C(=O)NC2CCCc4ccccc42)C3)nc1C(O)(C(F)(F)F)[100C:0](C)(C)[100C:0](=O)N1CCCC(n2nc(-c3ccc(Oc4ccc(F)cc4F)cc3)c(C(N)=O)c2N)C1

> <Shape>
0.285

> <Color>
0.060

> <Negative vol penalty>
0.000

$$$$

  -OEChem-04052318023D

 82 90  0     1  0  0  0  0  0999 V2000
  -24.4175  -35.3702   20.6354 C   0  0  0  0  0  0  0  0  0  0  0  0
  -25.2368  -34.2666   20.8505 C   0  0  0  0  0  0  0  0  0  0  0  0
  -27.2410  -11.8167   20.3332 C   0  0  0  0  0  0  0  0  0  0  0  0
  -26.2749  -13.0314   18.4816 C   0  0  0  0  0  0  0  0  0  0  0  0
  -23.0996  -35.3578   21.0902 C   0  0  0  0  0  0  0  0  0  0  0  0
  -24.7389  -33.1503   21.5216 C   0  0  0  0  0  0  0  0  0  0  0  0
  -26.0081  -28.7994   19.2626 C   0  0  0  0  0  0  0  0  0  0  0  0
  -26.2687  -10.8267   20.1910 C   0  0  0  0  0  0  0  0  0  0  0  0
  -25.3026  -12.0414   18.3395 C   0  0  0  0  0  0  0  0  0  0  0  0
  -27.3063  -28.3324   19.4640 C   0  0  0  0  0  0  0  0  0  0  0  0
  -23.8235   -8.1585   20.5452 C   0  0  0  0  0  0  0  0  0  0  0  0
  -23.2008   -7.6883   21.7013 C   0  0  0  0  0  0  0  0  0  0  0  0
  -26.4883  -26.7972   21.1353 C   0  0  0  0  0  0  0  0  0  0  0  0
  -22.3961   -9.9167   22.1743 C   0  0  0  0  0  0  0  0  0  0  0  0
  -29.8204  -22.3575   20.7408 C   0  0  0  0  0  0  0  0  0  0  0  0
  -27.2441  -12.9191   19.4785 C   0  0  0  0  0  0  0  0  0  0  0  0
  -29.5083  -13.9926   19.0002 C   0  0  0  0  0  0  0  0  0  0  0  0
  -22.5824  -34.2370   21.7587 C   0  0  0  0  0  0  0  0  0  0  0  0
  -24.9401  -28.2755   20.0051 C   0  0  0  0  0  0  0  0  0  0  0  0
  -23.4132  -33.1234   21.9870 C   0  0  0  0  0  0  0  0  0  0  0  0
  -25.1772  -27.2574   20.9396 C   0  0  0  0  0  0  0  0  0  0  0  0
  -25.2996  -10.9391   19.1942 C   0  0  0  0  0  0  0  0  0  0  0  0
  -27.5470  -27.3333   20.4025 C   0  0  0  0  0  0  0  0  0  0  0  0
  -23.7327   -9.5079   20.2036 C   0  0  0  0  0  0  0  0  0  0  0  0
  -22.4871   -8.5673   22.5158 C   0  0  0  0  0  0  0  0  0  0  0  0
  -23.0189  -10.3870   21.0181 C   0  0  0  0  0  0  0  0  0  0  0  0
  -30.3945  -23.6165   20.7505 C   0  0  0  0  0  0  0  0  0  0  0  0
  -28.2478  -13.9423   19.6252 C   0  0  0  0  0  0  0  0  0  0  0  0
  -29.0472  -22.0084   19.6519 C   0  0  0  0  0  0  0  0  0  0  0  0
  -30.1577  -24.4429   19.6705 C   0  0  0  0  0  0  0  0  0  0  0  0
  -30.0759  -15.1538   19.4648 C   0  0  0  0  0  0  0  0  0  0  0  0
  -30.1120  -13.0719   18.0817 C   0  0  0  0  0  0  0  0  0  0  0  0
  -22.8478  -29.4731   22.0768 C   0  0  0  0  0  0  0  0  0  0  0  0
  -21.5467  -26.5081   21.8809 C   0  0  0  0  0  0  0  0  0  0  0  0
  -21.9785  -23.1948   21.1864 C   0  0  0  0  0  0  0  0  0  0  0  0
  -27.2881  -20.0899   21.7889 C   0  0  0  0  0  0  0  0  0  0  0  0
  -21.1657  -34.2886   22.2736 C   0  0  0  0  0  0  0  0  0  0  0  0
  -23.5418  -28.7712   19.7570 C   0  0  0  0  0  0  0  0  0  0  0  0
  -24.0623  -26.6476   21.7480 C   0  0  0  0  0  0  0  0  0  0  0  0
  -20.6026  -32.9194   22.6458 C   0  0  0  0  0  0  0  0  0  0  0  0
  -30.0583  -18.1000   23.2270 C   0  0  0  0  0  0  0  0  0  0  0  0
  -21.6119  -32.1356   23.4788 C   0  0  0  0  0  0  0  0  0  0  0  0
  -29.9604  -16.7857   22.4544 C   0  0  0  0  0  0  0  0  0  0  0  0
  -28.7042  -18.7937   23.3401 C   0  0  0  0  0  0  0  0  0  0  0  0
  -27.9329  -17.7031   21.2593 C   0  0  0  0  0  0  0  0  0  0  0  0
  -22.9021  -31.8841   22.6891 C   0  0  1  0  0  0  0  0  0  0  0  0
  -22.6036  -28.5274   20.9350 C   0  0  1  0  0  0  0  0  0  0  0  0
  -29.2887  -17.0018   21.0871 C   0  0  2  0  0  0  0  0  0  0  0  0
  -20.7418  -21.0115   21.1536 C   0  0  0  0  0  0  0  0  0  0  0  0
  -21.7162  -26.3690   24.9242 C   0  0  0  0  0  0  0  0  0  0  0  0
  -21.3826  -23.8931   24.7601 C   0  0  0  0  0  0  0  0  0  0  0  0
  -19.6043  -25.4456   23.9537 C   0  0  0  0  0  0  0  0  0  0  0  0
  -26.0485  -21.2607   20.0079 C   0  0  0  0  0  0  0  0  0  0  0  0
  -22.4267  -22.8518   18.2812 C   0  0  0  0  0  0  0  0  0  0  0  0
  -30.7591  -25.8268   19.6296 C   0  0  0  0  0  0  0  0  0  0  0  0
  -28.4059  -20.6641   19.5927 C   0  0  0  0  0  0  0  0  0  0  0  0
  -29.7007  -26.9149   19.4847 C   0  0  0  0  0  0  0  0  0  1  0  0
  -21.7384  -25.2055   22.6195 C   0  0  1  0  0  0  0  0  0  0  0  0
  -21.1655  -22.2277   20.3449 C   0  0  2  0  0  0  0  0  0  0  0  0
  -21.1319  -25.2410   24.0507 C   0  0  0  0  0  0  0  0  0  0  0  0
  -28.0273  -14.9884   20.4259 N   0  0  0  0  0  0  0  0  0  0  0  0
  -28.8323  -22.8375   18.6086 N   0  0  0  0  0  0  0  0  0  0  0  0
  -29.3969  -24.0748   18.6180 N   0  0  0  0  0  0  0  0  0  0  0  0
  -29.1569  -15.7068   20.3072 N   0  0  0  0  0  0  0  0  0  0  0  0
  -22.7135  -27.1702   21.4736 N   0  0  0  0  0  0  0  0  0  0  0  0
  -28.0686  -18.9475   22.0311 N   0  0  0  0  0  0  0  0  0  0  0  0
  -31.2665  -15.7455   19.2308 N   0  0  0  0  0  0  0  0  0  0  0  0
  -29.3904  -11.9294   17.7097 N   0  0  0  0  0  0  0  0  0  0  0  0
  -22.7128  -30.8068   21.7415 N   0  0  0  0  0  0  0  0  0  0  0  0
  -21.1840  -24.1642   21.7612 N   0  0  0  0  0  0  0  0  0  0  0  0
  -27.2410  -20.5644   20.4694 N   0  0  0  0  0  0  0  0  0  0  0  0
  -21.9638  -21.7603   19.1764 N   0  3  0  0  0  0  0  0  0  0  0  0
  -31.2640  -13.2485   17.6178 O   0  0  0  0  0  0  0  0  0  0  0  0
  -23.1359  -29.0258   23.1807 O   0  0  0  0  0  0  0  0  0  0  0  0
  -20.4036  -26.9193   21.6668 O   0  0  0  0  0  0  0  0  0  0  0  0
  -23.1960  -23.0976   21.3235 O   0  0  0  0  0  0  0  0  0  0  0  0
  -26.6763  -20.6591   22.7020 O   0  0  0  0  0  0  0  0  0  0  0  0
  -24.3508   -9.9731   19.0551 O   0  0  0  0  0  0  0  0  0  0  0  0
  -28.8132  -26.8762   20.6015 O   0  0  0  0  0  0  0  0  0  1  0  0
  -21.8878   -8.1153   23.6252 F   0  0  0  0  0  0  0  0  0  0  0  0
  -22.9271  -11.6842   20.6945 F   0  0  0  0  0  0  0  0  0  0  0  0
  -31.1551  -24.0104   21.7791 F   0  0  0  0  0  0  0  0  0  0  0  0
  1  2  1  0  0  0  0
  1  5  2  0  0  0  0
  2  6  2  0  0  0  0
  3  8  2  0  0  0  0
  3 16  1  0  0  0  0
  4  9  1  0  0  0  0
  4 16  2  0  0  0  0
  5 18  1  0  0  0  0
  6 20  1  0  0  0  0
  7 10  2  0  0  0  0
  7 19  1  0  0  0  0
  8 22  1  0  0  0  0
  9 22  2  0  0  0  0
 10 23  1  0  0  0  0
 11 12  2  0  0  0  0
 11 24  1  0  0  0  0
 12 25  1  0  0  0  0
 13 21  1  0  0  0  0
 13 23  2  0  0  0  0
 14 25  2  0  0  0  0
 14 26  1  0  0  0  0
 15 27  1  0  0  0  0
 15 29  2  0  0  0  0
 16 28  1  0  0  0  0
 17 28  1  0  0  0  0
 17 31  2  0  0  0  0
 17 32  1  0  0  0  0
 18 20  2  0  0  0  0
 18 37  1  0  0  0  0
 19 21  2  0  0  0  0
 19 38  1  0  0  0  0
 20 46  1  0  0  0  0
 21 39  1  0  0  0  0
 22 78  1  0  0  0  0
 23 79  1  0  0  0  0
 24 26  2  0  0  0  0
 24 78  1  0  0  0  0
 25 80  1  0  0  0  0
 26 81  1  0  0  0  0
 27 30  2  0  0  0  0
 27 82  1  0  0  0  0
 28 61  2  0  0  0  0
 29 56  1  0  0  0  0
 29 62  1  0  0  0  0
 30 55  1  0  0  0  0
 30 63  1  0  0  0  0
 31 64  1  0  0  0  0
 31 67  1  0  0  0  0
 32 68  1  0  0  0  0
 32 73  2  0  0  0  0
 33 47  1  0  0  0  0
 33 69  1  0  0  0  0
 33 74  2  0  0  0  0
 34 58  1  0  0  0  0
 34 65  1  0  0  0  0
 34 75  2  0  0  0  0
 35 59  1  0  0  0  0
 35 70  1  0  0  0  0
 35 76  2  0  0  0  0
 36 66  1  0  0  0  0
 36 71  1  0  0  0  0
 36 77  2  0  0  0  0
 37 40  1  0  0  0  0
 38 47  1  0  0  0  0
 39 65  1  0  0  0  0
 40 42  1  0  0  0  0
 41 43  1  0  0  0  0
 41 44  1  0  0  0  0
 42 46  1  0  0  0  0
 43 48  1  0  0  0  0
 44 66  1  0  0  0  0
 45 48  1  0  0  0  0
 45 66  1  0  0  0  0
 46 69  1  0  0  0  0
 47 65  1  0  0  0  0
 48 64  1  0  0  0  0
 49 59  1  0  0  0  0
 50 60  1  0  0  0  0
 51 60  1  0  0  0  0
 52 60  1  0  0  0  0
 53 71  1  0  0  0  0
 54 72  1  0  0  0  0
 55 57  1  0  0  0  0
 56 71  1  0  0  0  0
 57 79  1  0  0  0  0
 58 60  1  0  0  0  0
 58 70  1  0  0  0  0
 59 72  1  0  0  0  0
 61 64  1  0  0  0  0
 62 63  2  0  0  0  0
M  CHG  1  72   1
M  ISO  4  36 100  57 101  71 100  79 101
M  END
> <Batch ID>
0063

> <Smiles>
CNC(C)C(=O)NC(C(=O)N1Cc2cc([101O:1][101CH2:1]Cc3nnc(C[100N:0](C)[100C:0](=O)N4CCCC(n5nc(-c6ccc(Oc7ccc(F)cc7F)cc6)c(C(N)=O)c5N)C4)cc3F)ccc2CC1C(=O)NC1CCCc2ccccc21)C(C)(C)C

> <Shape>
0.260

> <Color>
0.089

> <Negative vol penalty>
0.000

$$$$

  -OEChem-04052318023D

 85 93  0     1  0  0  0  0  0999 V2000
  -20.0732   -9.0315   23.5565 C   0  0  0  0  0  0  0  0  0  0  0  0
  -20.8801  -10.1122   23.8978 C   0  0  0  0  0  0  0  0  0  0  0  0
  -26.5482  -28.2761   18.8731 C   0  0  0  0  0  0  0  0  0  0  0  0
  -26.1530  -26.9860   20.8772 C   0  0  0  0  0  0  0  0  0  0  0  0
  -20.4774   -8.1503   22.5545 C   0  0  0  0  0  0  0  0  0  0  0  0
  -22.0922  -10.3117   23.2380 C   0  0  0  0  0  0  0  0  0  0  0  0
  -22.8122  -15.1471   21.9168 C   0  0  0  0  0  0  0  0  0  0  0  0
  -25.9862  -29.3971   19.4839 C   0  0  0  0  0  0  0  0  0  0  0  0
  -25.5910  -28.1070   21.4881 C   0  0  0  0  0  0  0  0  0  0  0  0
  -23.2209  -16.0267   22.9183 C   0  0  0  0  0  0  0  0  0  0  0  0
  -26.6800  -30.9341   22.9855 C   0  0  0  0  0  0  0  0  0  0  0  0
  -27.0642  -31.2171   24.2961 C   0  0  0  0  0  0  0  0  0  0  0  0
  -25.4945  -15.8586   22.1298 C   0  0  0  0  0  0  0  0  0  0  0  0
  -24.7671  -31.0073   25.0149 C   0  0  0  0  0  0  0  0  0  0  0  0
  -24.1454  -21.6049   22.2005 C   0  0  0  0  0  0  0  0  0  0  0  0
  -26.6315  -27.0705   19.5697 C   0  0  0  0  0  0  0  0  0  0  0  0
  -28.5642  -25.5229   18.9556 C   0  0  0  0  0  0  0  0  0  0  0  0
  -21.6905   -8.3446   21.8754 C   0  0  0  0  0  0  0  0  0  0  0  0
  -23.7449  -14.6072   21.0196 C   0  0  0  0  0  0  0  0  0  0  0  0
  -22.5136   -9.4315   22.2269 C   0  0  0  0  0  0  0  0  0  0  0  0
  -25.0947  -14.9743   21.1162 C   0  0  0  0  0  0  0  0  0  0  0  0
  -25.5077  -29.3126   20.7914 C   0  0  0  0  0  0  0  0  0  0  0  0
  -24.5626  -16.3803   23.0268 C   0  0  0  0  0  0  0  0  0  0  0  0
  -25.3393  -30.6879   22.6894 C   0  0  0  0  0  0  0  0  0  0  0  0
  -26.1079  -31.2536   25.3108 C   0  0  0  0  0  0  0  0  0  0  0  0
  -24.3829  -30.7244   23.7041 C   0  0  0  0  0  0  0  0  0  0  0  0
  -27.2114  -25.9120   18.9391 C   0  0  0  0  0  0  0  0  0  0  0  0
  -24.8071  -20.4589   22.5404 C   0  0  0  0  0  0  0  0  0  0  0  0
  -28.5975  -24.3649   18.2177 C   0  0  0  0  0  0  0  0  0  0  0  0
  -23.8813  -20.1496   20.5535 C   0  0  0  0  0  0  0  0  0  0  0  0
  -29.6902  -26.1519   19.5820 C   0  0  0  0  0  0  0  0  0  0  0  0
  -24.7558  -11.6736   20.3299 C   0  0  0  0  0  0  0  0  0  0  0  0
  -26.3793  -13.2069   17.9771 C   0  0  0  0  0  0  0  0  0  0  0  0
  -27.7671  -16.1058   16.8295 C   0  0  0  0  0  0  0  0  0  0  0  0
  -24.0095  -20.4891   17.0064 C   0  0  0  0  0  0  0  0  0  0  0  0
  -22.1075   -7.3386   20.8320 C   0  0  0  0  0  0  0  0  0  0  0  0
  -23.2838  -13.6805   19.9282 C   0  0  0  0  0  0  0  0  0  0  0  0
  -26.1323  -14.4384   20.1652 C   0  0  0  0  0  0  0  0  0  0  0  0
  -23.2295   -7.8334   19.9229 C   0  0  0  0  0  0  0  0  0  0  0  0
  -26.3502  -22.1199   14.6477 C   0  0  0  0  0  0  0  0  0  0  0  0
  -24.3414   -8.4742   20.7475 C   0  0  0  0  0  0  0  0  0  0  0  0
  -26.8928  -23.2872   15.4706 C   0  0  0  0  0  0  0  0  0  0  0  0
  -24.9428  -21.7242   15.0842 C   0  0  0  0  0  0  0  0  0  0  0  0
  -25.3671  -22.5926   17.3601 C   0  0  0  0  0  0  0  0  0  0  0  0
  -23.8238   -9.6955   21.5170 C   0  0  1  0  0  0  0  0  0  0  0  0
  -24.3992  -12.7900   19.3896 C   0  0  1  0  0  0  0  0  0  0  0  0
  -26.8016  -22.9859   16.9766 C   0  0  2  0  0  0  0  0  0  0  0  0
  -20.5445  -23.4609   19.9820 C   0  0  0  0  0  0  0  0  0  0  0  0
  -23.3048  -17.9868   19.3910 C   0  0  0  0  0  0  0  0  0  0  0  0
  -28.8995  -17.6707   15.2276 C   0  0  0  0  0  0  0  0  0  0  0  0
  -28.9119  -11.8627   19.0206 C   0  0  0  0  0  0  0  0  0  0  0  0
  -30.2500  -13.5215   17.7067 C   0  0  0  0  0  0  0  0  0  0  0  0
  -28.7230  -11.9398   16.5281 C   0  0  0  0  0  0  0  0  0  0  0  0
  -25.8034  -19.6777   18.4907 C   0  0  0  0  0  0  0  0  0  0  0  0
  -25.1889  -16.9355   15.6364 C   0  0  0  0  0  0  0  0  0  0  0  0
  -25.6095  -20.0976   23.7649 C   0  0  0  0  0  0  0  0  0  0  0  0
  -21.3653  -22.4558   20.7733 C   0  0  0  0  0  0  0  0  0  0  0  0
  -24.7773  -19.4633   24.8815 C   0  0  0  0  0  0  0  0  0  0  0  0
  -22.7882  -22.3486   20.2296 C   0  0  0  0  0  0  0  0  0  0  0  0
  -24.0206  -18.2170   24.4370 C   0  0  0  0  0  0  0  0  0  1  0  0
  -23.4712  -19.5119   19.2776 C   0  0  2  0  0  0  0  0  0  0  0  0
  -27.7402  -13.8499   17.8613 C   0  0  1  0  0  0  0  0  0  0  0  0
  -27.6783  -16.8011   15.4830 C   0  0  2  0  0  0  0  0  0  0  0  0
  -28.8873  -12.8022   17.7985 C   0  0  0  0  0  0  0  0  0  0  0  0
  -26.4410  -25.0697   18.2455 N   0  0  0  0  0  0  0  0  0  0  0  0
  -23.5824  -21.3856   20.9664 N   0  0  0  0  0  0  0  0  0  0  0  0
  -27.3126  -24.1398   17.8193 N   0  0  0  0  0  0  0  0  0  0  0  0
  -24.6266  -19.5756   21.5035 N   0  3  0  0  0  0  0  0  0  0  0  0
  -25.6330  -13.5308   19.1190 N   0  0  0  0  0  0  0  0  0  0  0  0
  -24.8749  -21.4858   16.5263 N   0  0  0  0  0  0  0  0  0  0  0  0
  -29.6001  -23.5275   17.8772 N   0  0  0  0  0  0  0  0  0  0  0  0
  -29.4791  -27.3359   20.3017 N   0  0  0  0  0  0  0  0  0  0  0  0
  -23.7004  -10.8347   20.6331 N   0  0  0  0  0  0  0  0  0  0  0  0
  -27.6759  -14.7357   16.7039 N   0  0  0  0  0  0  0  0  0  0  0  0
  -24.3879  -19.8264   18.1838 N   0  0  0  0  0  0  0  0  0  0  0  0
  -26.4655  -17.6653   15.4252 N   0  3  0  0  0  0  0  0  0  0  0  0
  -30.8517  -25.6869   19.4920 O   0  0  0  0  0  0  0  0  0  0  0  0
  -25.9037  -11.5793   20.7481 O   0  0  0  0  0  0  0  0  0  0  0  0
  -25.9897  -12.4508   17.0837 O   0  0  0  0  0  0  0  0  0  0  0  0
  -27.9072  -16.7168   17.8867 O   0  0  0  0  0  0  0  0  0  0  0  0
  -22.9632  -20.2012   16.4111 O   0  0  0  0  0  0  0  0  0  0  0  0
  -24.9595  -30.4064   21.3878 O   0  0  0  0  0  0  0  0  0  0  0  0
  -24.9643  -17.2382   24.0038 O   0  0  0  0  0  0  0  0  0  1  0  0
  -26.4772  -31.5238   26.5697 F   0  0  0  0  0  0  0  0  0  0  0  0
  -23.0936  -30.4875   23.4261 F   0  0  0  0  0  0  0  0  0  0  0  0
  1  2  1  0  0  0  0
  1  5  2  0  0  0  0
  2  6  2  0  0  0  0
  3  8  2  0  0  0  0
  3 16  1  0  0  0  0
  4  9  1  0  0  0  0
  4 16  2  0  0  0  0
  5 18  1  0  0  0  0
  6 20  1  0  0  0  0
  7 10  2  0  0  0  0
  7 19  1  0  0  0  0
  8 22  1  0  0  0  0
  9 22  2  0  0  0  0
 10 23  1  0  0  0  0
 11 12  2  0  0  0  0
 11 24  1  0  0  0  0
 12 25  1  0  0  0  0
 13 21  1  0  0  0  0
 13 23  2  0  0  0  0
 14 25  2  0  0  0  0
 14 26  1  0  0  0  0
 15 28  2  0  0  0  0
 15 66  1  0  0  0  0
 16 27  1  0  0  0  0
 17 27  1  0  0  0  0
 17 29  2  0  0  0  0
 17 31  1  0  0  0  0
 18 20  2  0  0  0  0
 18 36  1  0  0  0  0
 19 21  2  0  0  0  0
 19 37  1  0  0  0  0
 20 45  1  0  0  0  0
 21 38  1  0  0  0  0
 22 82  1  0  0  0  0
 23 83  1  0  0  0  0
 24 26  2  0  0  0  0
 24 82  1  0  0  0  0
 25 84  1  0  0  0  0
 26 85  1  0  0  0  0
 27 65  2  0  0  0  0
 28 56  1  0  0  0  0
 28 68  1  0  0  0  0
 29 67  1  0  0  0  0
 29 71  1  0  0  0  0
 30 61  1  0  0  0  0
 30 66  1  0  0  0  0
 30 68  2  0  0  0  0
 31 72  1  0  0  0  0
 31 77  2  0  0  0  0
 32 46  1  0  0  0  0
 32 73  1  0  0  0  0
 32 78  2  0  0  0  0
 33 62  1  0  0  0  0
 33 69  1  0  0  0  0
 33 79  2  0  0  0  0
 34 63  1  0  0  0  0
 34 74  1  0  0  0  0
 34 80  2  0  0  0  0
 35 70  1  0  0  0  0
 35 75  1  0  0  0  0
 35 81  2  0  0  0  0
 36 39  1  0  0  0  0
 37 46  1  0  0  0  0
 38 69  1  0  0  0  0
 39 41  1  0  0  0  0
 40 42  1  0  0  0  0
 40 43  1  0  0  0  0
 41 45  1  0  0  0  0
 42 47  1  0  0  0  0
 43 70  1  0  0  0  0
 44 47  1  0  0  0  0
 44 70  1  0  0  0  0
 45 73  1  0  0  0  0
 46 69  1  0  0  0  0
 47 67  1  0  0  0  0
 48 57  1  0  0  0  0
 49 61  1  0  0  0  0
 50 63  1  0  0  0  0
 51 64  1  0  0  0  0
 52 64  1  0  0  0  0
 53 64  1  0  0  0  0
 54 75  1  0  0  0  0
 55 76  1  0  0  0  0
 56 58  1  0  0  0  0
 57 59  1  0  0  0  0
 58 60  1  0  0  0  0
 59 66  1  0  0  0  0
 60 83  1  0  0  0  0
 61 75  1  0  0  0  0
 62 64  1  0  0  0  0
 62 74  1  0  0  0  0
 63 76  1  0  0  0  0
 65 67  1  0  0  0  0
M  CHG  2  68   1  76   1
M  ISO  4  35 100  60 101  75 100  83 101
M  END
> <Batch ID>
0063

> <Smiles>
CCCn1cc(CC[101CH2:1][101O:1]c2ccc3c(c2)CN(C(=O)C(NC(=O)C(C)NC)C(C)(C)C)C(C(=O)NC2CCCc4ccccc42)C3)nc1C(C)[100N:0](C)[100C:0](=O)N1CCCC(n2nc(-c3ccc(Oc4ccc(F)cc4F)cc3)c(C(N)=O)c2N)C1

> <Shape>
0.208

> <Color>
0.071

> <Negative vol penalty>
0.000

$$$$

  -OEChem-04052318023D

 84 92  0     1  0  0  0  0  0999 V2000
  -23.7811  -11.8100   20.2189 C   0  0  0  0  0  0  0  0  0  0  0  0
  -23.4393  -13.1532   20.0998 C   0  0  0  0  0  0  0  0  0  0  0  0
  -28.9877  -28.9583   20.7868 C   0  0  0  0  0  0  0  0  0  0  0  0
  -28.7231  -26.6954   21.5909 C   0  0  0  0  0  0  0  0  0  0  0  0
  -24.9880  -11.4493   20.8164 C   0  0  0  0  0  0  0  0  0  0  0  0
  -24.3038  -14.1366   20.5792 C   0  0  0  0  0  0  0  0  0  0  0  0
  -24.8686  -17.9792   17.3295 C   0  0  0  0  0  0  0  0  0  0  0  0
  -30.3262  -28.9412   21.1790 C   0  0  0  0  0  0  0  0  0  0  0  0
  -30.0616  -26.6783   21.9831 C   0  0  0  0  0  0  0  0  0  0  0  0
  -23.8416  -18.9204   17.2718 C   0  0  0  0  0  0  0  0  0  0  0  0
  -33.9069  -29.3656   21.6405 C   0  0  0  0  0  0  0  0  0  0  0  0
  -34.8511  -29.8712   20.7469 C   0  0  0  0  0  0  0  0  0  0  0  0
  -25.1292  -20.4023   18.6736 C   0  0  0  0  0  0  0  0  0  0  0  0
  -34.1947  -28.2141   19.1158 C   0  0  0  0  0  0  0  0  0  0  0  0
  -19.7827  -24.6680   18.1853 C   0  0  0  0  0  0  0  0  0  0  0  0
  -28.1861  -27.8354   20.9928 C   0  0  0  0  0  0  0  0  0  0  0  0
  -26.2780  -27.4702   19.3396 C   0  0  0  0  0  0  0  0  0  0  0  0
  -25.8722  -12.4291   21.2947 C   0  0  0  0  0  0  0  0  0  0  0  0
  -26.0309  -18.2385   18.0700 C   0  0  0  0  0  0  0  0  0  0  0  0
  -25.5232  -13.7887   21.1849 C   0  0  0  0  0  0  0  0  0  0  0  0
  -26.1705  -19.4638   18.7371 C   0  0  0  0  0  0  0  0  0  0  0  0
  -30.8631  -27.8012   21.7772 C   0  0  0  0  0  0  0  0  0  0  0  0
  -23.9706  -20.1310   17.9462 C   0  0  0  0  0  0  0  0  0  0  0  0
  -33.1067  -28.2843   21.2718 C   0  0  0  0  0  0  0  0  0  0  0  0
  -34.9950  -29.2955   19.4845 C   0  0  0  0  0  0  0  0  0  0  0  0
  -33.2505  -27.7085   20.0095 C   0  0  0  0  0  0  0  0  0  0  0  0
  -26.8033  -27.8527   20.5884 C   0  0  0  0  0  0  0  0  0  0  0  0
  -20.0393  -23.9962   19.3602 C   0  0  0  0  0  0  0  0  0  0  0  0
  -21.6945  -23.8052   17.2743 C   0  0  0  0  0  0  0  0  0  0  0  0
  -21.9516  -23.1339   18.4494 C   0  0  0  0  0  0  0  0  0  0  0  0
  -24.9246  -27.6705   19.4604 C   0  0  0  0  0  0  0  0  0  0  0  0
  -26.9531  -26.9777   18.1745 C   0  0  0  0  0  0  0  0  0  0  0  0
  -27.4376  -16.8909   20.5817 C   0  0  0  0  0  0  0  0  0  0  0  0
  -29.7789  -19.0400   19.9321 C   0  0  0  0  0  0  0  0  0  0  0  0
  -30.6693  -22.0154   18.5175 C   0  0  0  0  0  0  0  0  0  0  0  0
  -20.1782  -27.2209   22.3613 C   0  0  0  0  0  0  0  0  0  0  0  0
  -27.1440  -11.9891   21.9757 C   0  0  0  0  0  0  0  0  0  0  0  0
  -27.1408  -17.2238   18.1004 C   0  0  0  0  0  0  0  0  0  0  0  0
  -27.4068  -19.7991   19.5293 C   0  0  0  0  0  0  0  0  0  0  0  0
  -28.1751  -13.1053   22.1203 C   0  0  0  0  0  0  0  0  0  0  0  0
  -22.2535  -30.0310   23.0493 C   0  0  0  0  0  0  0  0  0  0  0  0
  -27.5155  -14.3768   22.6446 C   0  0  0  0  0  0  0  0  0  0  0  0
  -23.5800  -29.6804   22.3730 C   0  0  0  0  0  0  0  0  0  0  0  0
  -21.5849  -28.7982   23.6536 C   0  0  0  0  0  0  0  0  0  0  0  0
  -22.7245  -27.3231   22.0414 C   0  0  0  0  0  0  0  0  0  0  0  0
  -26.4459  -14.8854   21.6705 C   0  0  1  0  0  0  0  0  0  0  0  0
  -28.0619  -17.3818   19.3062 C   0  0  1  0  0  0  0  0  0  0  0  0
  -23.4090  -28.5250   21.3684 C   0  0  2  0  0  0  0  0  0  0  0  0
  -22.3166  -24.7581   15.0401 C   0  0  0  0  0  0  0  0  0  0  0  0
  -32.6470  -23.5230   18.1808 C   0  0  0  0  0  0  0  0  0  0  0  0
  -19.5114  -23.2974   21.7952 C   0  0  0  0  0  0  0  0  0  0  0  0
  -17.6902  -23.5684   20.1323 C   0  0  0  0  0  0  0  0  0  0  0  0
  -29.5761  -19.9509   22.8371 C   0  0  0  0  0  0  0  0  0  0  0  0
  -30.8358  -22.0197   22.2034 C   0  0  0  0  0  0  0  0  0  0  0  0
  -31.9110  -19.7823   21.9572 C   0  0  0  0  0  0  0  0  0  0  0  0
  -30.4813  -21.7964   15.5721 C   0  0  0  0  0  0  0  0  0  0  0  0
  -22.6131  -23.7046   16.1047 C   0  0  0  0  0  0  0  0  0  0  0  0
  -23.1684  -22.2701   18.6068 C   0  0  0  0  0  0  0  0  0  1  0  0
  -18.9028  -25.5980   20.9833 C   0  0  0  0  0  0  0  0  0  0  0  0
  -30.0756  -20.4584   20.3553 C   0  0  1  0  0  0  0  0  0  0  0  0
  -31.8172  -22.3898   17.5974 C   0  0  2  0  0  0  0  0  0  0  0  0
  -19.1071  -24.1111   20.5150 C   0  0  0  0  0  0  0  0  0  0  0  0
  -30.5754  -20.5460   21.8250 C   0  0  0  0  0  0  0  0  0  0  0  0
  -20.6057  -24.5845   17.1212 N   0  0  0  0  0  0  0  0  0  0  0  0
  -25.8605  -28.2650   21.4399 N   0  0  0  0  0  0  0  0  0  0  0  0
  -21.1284  -23.2171   19.5133 N   0  0  0  0  0  0  0  0  0  0  0  0
  -24.7292  -28.1428   20.7249 N   0  0  0  0  0  0  0  0  0  0  0  0
  -28.4616  -18.7720   19.5338 N   0  0  0  0  0  0  0  0  0  0  0  0
  -21.4511  -27.7405   22.6488 N   0  0  0  0  0  0  0  0  0  0  0  0
  -23.8945  -27.4871   18.6074 N   0  0  0  0  0  0  0  0  0  0  0  0
  -28.3462  -26.8321   18.2210 N   0  0  0  0  0  0  0  0  0  0  0  0
  -27.0635  -15.5611   20.5495 N   0  0  0  0  0  0  0  0  0  0  0  0
  -31.0136  -20.9899   19.3725 N   0  0  0  0  0  0  0  0  0  0  0  0
  -20.1395  -26.2259   21.3922 N   0  0  0  0  0  0  0  0  0  0  0  0
  -31.2968  -22.8235   16.2700 N   0  3  0  0  0  0  0  0  0  0  0  0
  -26.3408  -26.6912   17.1178 O   0  0  0  0  0  0  0  0  0  0  0  0
  -27.3065  -17.6612   21.5257 O   0  0  0  0  0  0  0  0  0  0  0  0
  -30.6844  -18.2024   19.9472 O   0  0  0  0  0  0  0  0  0  0  0  0
  -29.5776  -22.5790   18.4838 O   0  0  0  0  0  0  0  0  0  0  0  0
  -19.1516  -27.6182   22.9227 O   0  0  0  0  0  0  0  0  0  0  0  0
  -32.1692  -27.7840   22.1598 O   0  0  0  0  0  0  0  0  0  0  0  0
  -22.9695  -21.0512   17.8921 O   0  0  0  0  0  0  0  0  0  1  0  0
  -35.9006  -29.7820   18.6259 F   0  0  0  0  0  0  0  0  0  0  0  0
  -32.4837  -26.6703   19.6492 F   0  0  0  0  0  0  0  0  0  0  0  0
  1  2  1  0  0  0  0
  1  5  2  0  0  0  0
  2  6  2  0  0  0  0
  3  8  2  0  0  0  0
  3 16  1  0  0  0  0
  4  9  1  0  0  0  0
  4 16  2  0  0  0  0
  5 18  1  0  0  0  0
  6 20  1  0  0  0  0
  7 10  2  0  0  0  0
  7 19  1  0  0  0  0
  8 22  1  0  0  0  0
  9 22  2  0  0  0  0
 10 23  1  0  0  0  0
 11 12  2  0  0  0  0
 11 24  1  0  0  0  0
 12 25  1  0  0  0  0
 13 21  1  0  0  0  0
 13 23  2  0  0  0  0
 14 25  2  0  0  0  0
 14 26  1  0  0  0  0
 15 28  1  0  0  0  0
 15 64  2  0  0  0  0
 16 27  1  0  0  0  0
 17 27  1  0  0  0  0
 17 31  2  0  0  0  0
 17 32  1  0  0  0  0
 18 20  2  0  0  0  0
 18 37  1  0  0  0  0
 19 21  2  0  0  0  0
 19 38  1  0  0  0  0
 20 46  1  0  0  0  0
 21 39  1  0  0  0  0
 22 81  1  0  0  0  0
 23 82  1  0  0  0  0
 24 26  2  0  0  0  0
 24 81  1  0  0  0  0
 25 83  1  0  0  0  0
 26 84  1  0  0  0  0
 27 65  2  0  0  0  0
 28 62  1  0  0  0  0
 28 66  2  0  0  0  0
 29 30  2  0  0  0  0
 29 57  1  0  0  0  0
 29 64  1  0  0  0  0
 30 58  1  0  0  0  0
 30 66  1  0  0  0  0
 31 67  1  0  0  0  0
 31 70  1  0  0  0  0
 32 71  1  0  0  0  0
 32 76  2  0  0  0  0
 33 47  1  0  0  0  0
 33 72  1  0  0  0  0
 33 77  2  0  0  0  0
 34 60  1  0  0  0  0
 34 68  1  0  0  0  0
 34 78  2  0  0  0  0
 35 61  1  0  0  0  0
 35 73  1  0  0  0  0
 35 79  2  0  0  0  0
 36 69  1  0  0  0  0
 36 74  1  0  0  0  0
 36 80  2  0  0  0  0
 37 40  1  0  0  0  0
 38 47  1  0  0  0  0
 39 68  1  0  0  0  0
 40 42  1  0  0  0  0
 41 43  1  0  0  0  0
 41 44  1  0  0  0  0
 42 46  1  0  0  0  0
 43 48  1  0  0  0  0
 44 69  1  0  0  0  0
 45 48  1  0  0  0  0
 45 69  1  0  0  0  0
 46 72  1  0  0  0  0
 47 68  1  0  0  0  0
 48 67  1  0  0  0  0
 49 57  1  0  0  0  0
 50 61  1  0  0  0  0
 51 62  1  0  0  0  0
 52 62  1  0  0  0  0
 53 63  1  0  0  0  0
 54 63  1  0  0  0  0
 55 63  1  0  0  0  0
 56 75  1  0  0  0  0
 58 82  1  0  0  0  0
 59 62  1  0  0  0  0
 59 74  1  0  0  0  0
 60 63  1  0  0  0  0
 60 73  1  0  0  0  0
 61 75  1  0  0  0  0
 65 67  1  0  0  0  0
M  CHG  1  75   1
M  ISO  4  36 100  58 101  74 100  82 101
M  END
> <Batch ID>
0063

> <Smiles>
CCc1ncc(C(C)(C)C[100NH:0][100C:0](=O)N2CCCC(n3nc(-c4ccc(Oc5ccc(F)cc5F)cc4)c(C(N)=O)c3N)C2)nc1[101CH2:1][101O:1]c1ccc2c(c1)CN(C(=O)C(NC(=O)C(C)NC)C(C)(C)C)C(C(=O)NC1CCCc3ccccc31)C2

> <Shape>
0.203

> <Color>
0.049

> <Negative vol penalty>
0.000

$$$$

  -OEChem-04052318023D

 84 92  0     1  0  0  0  0  0999 V2000
  -27.1655  -28.9367   19.3359 C   0  0  0  0  0  0  0  0  0  0  0  0
  -27.2836  -27.5544   19.2317 C   0  0  0  0  0  0  0  0  0  0  0  0
  -30.0524  -22.4856   21.4946 C   0  0  0  0  0  0  0  0  0  0  0  0
  -29.1197  -22.0035   19.3187 C   0  0  0  0  0  0  0  0  0  0  0  0
  -26.2337  -29.4915   20.2121 C   0  0  0  0  0  0  0  0  0  0  0  0
  -26.4706  -26.7261   20.0046 C   0  0  0  0  0  0  0  0  0  0  0  0
  -24.1696  -21.2840   18.3938 C   0  0  0  0  0  0  0  0  0  0  0  0
  -30.3561  -23.7814   21.0774 C   0  0  0  0  0  0  0  0  0  0  0  0
  -29.4233  -23.2995   18.9015 C   0  0  0  0  0  0  0  0  0  0  0  0
  -24.5763  -19.9774   18.6609 C   0  0  0  0  0  0  0  0  0  0  0  0
  -32.7348  -25.3078   19.2238 C   0  0  0  0  0  0  0  0  0  0  0  0
  -33.9966  -25.8109   19.5407 C   0  0  0  0  0  0  0  0  0  0  0  0
  -23.0298  -19.8803   20.5097 C   0  0  0  0  0  0  0  0  0  0  0  0
  -32.9674  -27.6067   20.7870 C   0  0  0  0  0  0  0  0  0  0  0  0
  -29.4342  -21.5966   20.6152 C   0  0  0  0  0  0  0  0  0  0  0  0
  -27.9300  -19.8168   21.6533 C   0  0  0  0  0  0  0  0  0  0  0  0
  -25.4022  -28.6695   20.9891 C   0  0  0  0  0  0  0  0  0  0  0  0
  -23.1961  -21.9034   19.1908 C   0  0  0  0  0  0  0  0  0  0  0  0
  -25.5277  -27.2704   20.8930 C   0  0  0  0  0  0  0  0  0  0  0  0
  -22.6106  -21.1939   20.2491 C   0  0  0  0  0  0  0  0  0  0  0  0
  -30.0415  -24.1884   19.7809 C   0  0  0  0  0  0  0  0  0  0  0  0
  -24.0085  -19.2764   19.7207 C   0  0  0  0  0  0  0  0  0  0  0  0
  -31.5893  -25.9542   19.6884 C   0  0  0  0  0  0  0  0  0  0  0  0
  -34.1129  -26.9604   20.3223 C   0  0  0  0  0  0  0  0  0  0  0  0
  -31.7056  -27.1036   20.4700 C   0  0  0  0  0  0  0  0  0  0  0  0
  -29.1208  -20.2576   21.0454 C   0  0  0  0  0  0  0  0  0  0  0  0
  -28.1289  -18.4743   21.8645 C   0  0  0  0  0  0  0  0  0  0  0  0
  -23.2062  -13.5541   21.2252 C   0  0  0  0  0  0  0  0  0  0  0  0
  -24.2092  -15.0767   20.0484 C   0  0  0  0  0  0  0  0  0  0  0  0
  -26.7497  -20.5549   21.9963 C   0  0  0  0  0  0  0  0  0  0  0  0
  -23.1376  -24.4588   21.0802 C   0  0  0  0  0  0  0  0  0  0  0  0
  -19.9721  -23.7729   21.2567 C   0  0  0  0  0  0  0  0  0  0  0  0
  -17.4937  -21.4415   20.9936 C   0  0  0  0  0  0  0  0  0  0  0  0
  -29.8828  -13.4778   20.1027 C   0  0  0  0  0  0  0  0  0  0  0  0
  -24.4427  -29.3153   21.9570 C   0  0  0  0  0  0  0  0  0  0  0  0
  -22.7491  -23.3039   18.8731 C   0  0  0  0  0  0  0  0  0  0  0  0
  -21.5471  -21.8065   21.1220 C   0  0  0  0  0  0  0  0  0  0  0  0
  -23.3595  -28.3671   22.4649 C   0  0  0  0  0  0  0  0  0  0  0  0
  -32.3212  -15.6685   21.4927 C   0  0  0  0  0  0  0  0  0  0  0  0
  -23.9709  -27.0341   22.8845 C   0  0  0  0  0  0  0  0  0  0  0  0
  -31.6099  -17.0218   21.5444 C   0  0  0  0  0  0  0  0  0  0  0  0
  -31.9261  -14.8704   20.2521 C   0  0  0  0  0  0  0  0  0  0  0  0
  -29.7626  -16.0433   20.1200 C   0  0  0  0  0  0  0  0  0  0  0  0
  -24.6466  -26.3387   21.6965 C   0  0  1  0  0  0  0  0  0  0  0  0
  -22.1203  -24.0157   20.0670 C   0  0  1  0  0  0  0  0  0  0  0  0
  -30.0864  -16.8612   21.3820 C   0  0  2  0  0  0  0  0  0  0  0  0
  -22.9991  -12.3618   22.0662 C   0  0  0  0  0  0  0  0  0  0  0  0
  -15.0104  -21.1708   21.2323 C   0  0  0  0  0  0  0  0  0  0  0  0
  -20.2639  -23.7973   24.2939 C   0  0  0  0  0  0  0  0  0  0  0  0
  -18.0623  -22.6147   24.4452 C   0  0  0  0  0  0  0  0  0  0  0  0
  -18.1856  -24.8930   23.4367 C   0  0  0  0  0  0  0  0  0  0  0  0
  -25.4602  -11.1256   19.8370 C   0  0  0  0  0  0  0  0  0  0  0  0
  -17.1908  -20.6476   18.1586 C   0  0  0  0  0  0  0  0  0  0  0  0
  -25.3119  -15.8501   19.3670 C   0  0  0  0  0  0  0  0  0  0  0  0
  -25.6998  -13.3118   21.0370 C   0  0  0  0  0  0  0  0  0  0  0  0
  -27.7479  -12.2202   19.9628 C   0  0  0  0  0  0  0  0  0  0  0  0
  -24.8444  -17.2161   18.8767 C   0  0  0  0  0  0  0  0  0  1  0  0
  -19.1117  -22.9192   22.1567 C   0  0  1  0  0  0  0  0  0  0  0  0
  -16.1555  -21.4704   20.2775 C   0  0  2  0  0  0  0  0  0  0  0  0
  -18.9273  -23.5449   23.5681 C   0  0  0  0  0  0  0  0  0  0  0  0
  -26.2331  -12.4465   19.8761 C   0  0  1  0  0  0  0  0  0  0  0  0
  -30.0104  -19.2749   20.8813 N   0  0  0  0  0  0  0  0  0  0  0  0
  -22.2869  -14.3859   20.7900 N   0  0  0  0  0  0  0  0  0  0  0  0
  -22.9250  -15.3546   20.0413 N   0  0  0  0  0  0  0  0  0  0  0  0
  -29.3781  -18.2032   21.3892 N   0  0  0  0  0  0  0  0  0  0  0  0
  -24.4313  -13.9510   20.7821 N   0  0  0  0  0  0  0  0  0  0  0  0
  -21.1481  -23.1806   20.7752 N   0  0  0  0  0  0  0  0  0  0  0  0
  -30.4689  -14.7532   20.1579 N   0  0  0  0  0  0  0  0  0  0  0  0
  -27.3552  -17.5111   22.4087 N   0  0  0  0  0  0  0  0  0  0  0  0
  -26.7122  -21.9263   21.7093 N   0  0  0  0  0  0  0  0  0  0  0  0
  -23.6555  -25.7179   20.8439 N   0  0  0  0  0  0  0  0  0  0  0  0
  -17.8639  -22.6942   21.4351 N   0  0  0  0  0  0  0  0  0  0  0  0
  -28.4959  -13.4563   20.0207 N   0  0  0  0  0  0  0  0  0  0  0  0
  -16.1316  -20.4592   19.1831 N   0  3  0  0  0  0  0  0  0  0  0  0
  -25.7639  -20.0177   22.5559 O   0  0  0  0  0  0  0  0  0  0  0  0
  -23.4298  -23.7141   22.0085 O   0  0  0  0  0  0  0  0  0  0  0  0
  -19.6103  -24.9204   20.9851 O   0  0  0  0  0  0  0  0  0  0  0  0
  -18.1438  -20.4101   21.1491 O   0  0  0  0  0  0  0  0  0  0  0  0
  -30.5460  -12.4356   20.1301 O   0  0  0  0  0  0  0  0  0  0  0  0
  -30.3374  -25.4529   19.3735 O   0  0  0  0  0  0  0  0  0  0  0  0
  -24.4041  -18.0012   19.9839 O   0  0  0  0  0  0  0  0  0  1  0  0
  -35.3246  -27.4426   20.6279 F   0  0  0  0  0  0  0  0  0  0  0  0
  -30.6088  -27.7282   20.9202 F   0  0  0  0  0  0  0  0  0  0  0  0
  -25.9688  -13.0982   18.7039 F   0  0  0  0  0  0  0  0  0  0  0  0
  1  2  1  0  0  0  0
  1  5  2  0  0  0  0
  2  6  2  0  0  0  0
  3  8  2  0  0  0  0
  3 15  1  0  0  0  0
  4  9  1  0  0  0  0
  4 15  2  0  0  0  0
  5 17  1  0  0  0  0
  6 19  1  0  0  0  0
  7 10  2  0  0  0  0
  7 18  1  0  0  0  0
  8 21  1  0  0  0  0
  9 21  2  0  0  0  0
 10 22  1  0  0  0  0
 11 12  2  0  0  0  0
 11 23  1  0  0  0  0
 12 24  1  0  0  0  0
 13 20  1  0  0  0  0
 13 22  2  0  0  0  0
 14 24  2  0  0  0  0
 14 25  1  0  0  0  0
 15 26  1  0  0  0  0
 16 26  1  0  0  0  0
 16 27  2  0  0  0  0
 16 30  1  0  0  0  0
 17 19  2  0  0  0  0
 17 35  1  0  0  0  0
 18 20  2  0  0  0  0
 18 36  1  0  0  0  0
 19 44  1  0  0  0  0
 20 37  1  0  0  0  0
 21 80  1  0  0  0  0
 22 81  1  0  0  0  0
 23 25  2  0  0  0  0
 23 80  1  0  0  0  0
 24 82  1  0  0  0  0
 25 83  1  0  0  0  0
 26 62  2  0  0  0  0
 27 65  1  0  0  0  0
 27 69  1  0  0  0  0
 28 47  1  0  0  0  0
 28 63  2  0  0  0  0
 28 66  1  0  0  0  0
 29 54  1  0  0  0  0
 29 64  2  0  0  0  0
 29 66  1  0  0  0  0
 30 70  1  0  0  0  0
 30 75  2  0  0  0  0
 31 45  1  0  0  0  0
 31 71  1  0  0  0  0
 31 76  2  0  0  0  0
 32 58  1  0  0  0  0
 32 67  1  0  0  0  0
 32 77  2  0  0  0  0
 33 59  1  0  0  0  0
 33 72  1  0  0  0  0
 33 78  2  0  0  0  0
 34 68  1  0  0  0  0
 34 73  1  0  0  0  0
 34 79  2  0  0  0  0
 35 38  1  0  0  0  0
 36 45  1  0  0  0  0
 37 67  1  0  0  0  0
 38 40  1  0  0  0  0
 39 41  1  0  0  0  0
 39 42  1  0  0  0  0
 40 44  1  0  0  0  0
 41 46  1  0  0  0  0
 42 68  1  0  0  0  0
 43 46  1  0  0  0  0
 43 68  1  0  0  0  0
 44 71  1  0  0  0  0
 45 67  1  0  0  0  0
 46 65  1  0  0  0  0
 48 59  1  0  0  0  0
 49 60  1  0  0  0  0
 50 60  1  0  0  0  0
 51 60  1  0  0  0  0
 52 61  1  0  0  0  0
 53 74  1  0  0  0  0
 54 57  1  0  0  0  0
 55 61  1  0  0  0  0
 55 66  1  0  0  0  0
 56 61  1  0  0  0  0
 56 73  1  0  0  0  0
 57 81  1  0  0  0  0
 58 60  1  0  0  0  0
 58 72  1  0  0  0  0
 59 74  1  0  0  0  0
 61 84  1  0  0  0  0
 62 65  1  0  0  0  0
 63 64  1  0  0  0  0
M  CHG  1  74   1
M  ISO  4  34 100  57 101  73 100  81 101
M  END
> <Batch ID>
0063

> <Smiles>
CNC(C)C(=O)NC(C(=O)N1Cc2cc([101O:1][101CH2:1]Cc3nnc(C)n3CC(C)(F)C[100NH:0][100C:0](=O)N3CCCC(n4nc(-c5ccc(Oc6ccc(F)cc6F)cc5)c(C(N)=O)c4N)C3)ccc2CC1C(=O)NC1CCCc2ccccc21)C(C)(C)C

> <Shape>
0.212

> <Color>
0.057

> <Negative vol penalty>
0.000

$$$$

  -OEChem-04052318023D

 85 93  0     1  0  0  0  0  0999 V2000
  -38.3499  -26.2351   32.9455 C   0  0  0  0  0  0  0  0  0  0  0  0
  -37.5888  -25.1101   33.2464 C   0  0  0  0  0  0  0  0  0  0  0  0
  -23.1885   -9.8184   19.9317 C   0  0  0  0  0  0  0  0  0  0  0  0
  -23.5617  -10.0000   22.3118 C   0  0  0  0  0  0  0  0  0  0  0  0
  -38.2004  -26.8668   31.7116 C   0  0  0  0  0  0  0  0  0  0  0  0
  -36.6768  -24.6169   32.3140 C   0  0  0  0  0  0  0  0  0  0  0  0
  -33.8069  -18.4649   30.0264 C   0  0  0  0  0  0  0  0  0  0  0  0
  -22.4202   -8.6730   20.1396 C   0  0  0  0  0  0  0  0  0  0  0  0
  -22.7933   -8.8546   22.5197 C   0  0  0  0  0  0  0  0  0  0  0  0
  -32.5644  -17.8789   29.7884 C   0  0  0  0  0  0  0  0  0  0  0  0
  -23.1903   -5.5072   22.2589 C   0  0  0  0  0  0  0  0  0  0  0  0
  -23.6854   -4.5458   23.1400 C   0  0  0  0  0  0  0  0  0  0  0  0
  -32.4480  -19.0050   27.6582 C   0  0  0  0  0  0  0  0  0  0  0  0
  -21.7261   -4.8096   24.5287 C   0  0  0  0  0  0  0  0  0  0  0  0
  -30.6333  -14.2000   26.2164 C   0  0  0  0  0  0  0  0  0  0  0  0
  -23.7594  -10.4819   21.0178 C   0  0  0  0  0  0  0  0  0  0  0  0
  -24.1021  -12.9979   20.7730 C   0  0  0  0  0  0  0  0  0  0  0  0
  -37.2931  -26.3753   30.7598 C   0  0  0  0  0  0  0  0  0  0  0  0
  -34.3752  -19.3355   29.0853 C   0  0  0  0  0  0  0  0  0  0  0  0
  -36.5140  -25.2434   31.0667 C   0  0  0  0  0  0  0  0  0  0  0  0
  -33.6989  -19.5988   27.8855 C   0  0  0  0  0  0  0  0  0  0  0  0
  -22.2225   -8.1911   21.4335 C   0  0  0  0  0  0  0  0  0  0  0  0
  -31.8835  -18.1511   28.6055 C   0  0  0  0  0  0  0  0  0  0  0  0
  -21.9632   -6.1198   22.5128 C   0  0  0  0  0  0  0  0  0  0  0  0
  -22.9533   -4.1970   24.2748 C   0  0  0  0  0  0  0  0  0  0  0  0
  -21.2310   -5.7710   23.6477 C   0  0  0  0  0  0  0  0  0  0  0  0
  -24.5536  -11.6649   20.8037 C   0  0  0  0  0  0  0  0  0  0  0  0
  -29.8984  -15.2991   26.6999 C   0  0  0  0  0  0  0  0  0  0  0  0
  -30.8128  -14.4676   24.8813 C   0  0  0  0  0  0  0  0  0  0  0  0
  -25.2349  -13.7388   20.5397 C   0  0  0  0  0  0  0  0  0  0  0  0
  -22.7773  -13.5198   20.9405 C   0  0  0  0  0  0  0  0  0  0  0  0
  -35.2303  -22.3969   29.0913 C   0  0  0  0  0  0  0  0  0  0  0  0
  -36.4121  -21.6694   26.1593 C   0  0  0  0  0  0  0  0  0  0  0  0
  -36.3101  -19.6421   23.4159 C   0  0  0  0  0  0  0  0  0  0  0  0
  -31.0460  -12.7415   21.5826 C   0  0  0  0  0  0  0  0  0  0  0  0
  -37.1322  -27.1198   29.4580 C   0  0  0  0  0  0  0  0  0  0  0  0
  -35.7284  -19.9386   29.3452 C   0  0  0  0  0  0  0  0  0  0  0  0
  -34.2751  -20.5104   26.8341 C   0  0  0  0  0  0  0  0  0  0  0  0
  -36.4143  -26.3127   28.3794 C   0  0  0  0  0  0  0  0  0  0  0  0
  -29.5266  -13.4587   18.4436 C   0  0  0  0  0  0  0  0  0  0  0  0
  -35.1675  -25.6464   28.9524 C   0  0  0  0  0  0  0  0  0  0  0  0
  -28.0391  -13.2006   18.6897 C   0  0  0  0  0  0  0  0  0  0  0  0
  -30.4048  -12.4686   19.2055 C   0  0  0  0  0  0  0  0  0  0  0  0
  -28.6470  -12.1296   20.8993 C   0  0  0  0  0  0  0  0  0  0  0  0
  -35.5321  -24.6637   30.0718 C   0  0  1  0  0  0  0  0  0  0  0  0
  -35.9780  -21.2134   28.5453 C   0  0  1  0  0  0  0  0  0  0  0  0
  -27.7225  -13.1381   20.1961 C   0  0  2  0  0  0  0  0  0  0  0  0
  -37.3706  -19.3191   21.1646 C   0  0  0  0  0  0  0  0  0  0  0  0
  -32.1522  -12.3486   24.2608 C   0  0  0  0  0  0  0  0  0  0  0  0
  -32.6557  -14.5398   23.1874 C   0  0  0  0  0  0  0  0  0  0  0  0
  -34.7940  -24.0127   25.0636 C   0  0  0  0  0  0  0  0  0  0  0  0
  -35.1215  -23.0741   22.7658 C   0  0  0  0  0  0  0  0  0  0  0  0
  -37.0954  -23.7971   24.1088 C   0  0  0  0  0  0  0  0  0  0  0  0
  -30.1151  -15.3617   22.2301 C   0  0  0  0  0  0  0  0  0  0  0  0
  -31.3149  -17.3325   23.2577 C   0  0  0  0  0  0  0  0  0  0  0  0
  -28.8332  -17.2311   23.2472 C   0  0  0  0  0  0  0  0  0  0  0  0
  -37.3119  -16.9543   24.1445 C   0  0  0  0  0  0  0  0  0  0  0  0
  -29.4158  -15.5339   28.1106 C   0  0  0  0  0  0  0  0  0  0  0  0
  -30.4320  -16.2993   28.9513 C   0  0  0  0  0  0  0  0  0  1  0  0
  -35.8651  -21.6842   24.7523 C   0  0  1  0  0  0  0  0  0  0  0  0
  -37.4108  -18.9439   22.6378 C   0  0  2  0  0  0  0  0  0  0  0  0
  -31.5011  -13.7039   23.8245 C   0  0  0  0  0  0  0  0  0  0  0  0
  -35.7070  -23.1263   24.1931 C   0  0  0  0  0  0  0  0  0  0  0  0
  -30.1130  -16.3720   23.3988 C   0  0  0  0  0  0  0  0  0  0  0  0
  -25.8705  -11.5618   20.6056 N   0  0  0  0  0  0  0  0  0  0  0  0
  -29.6296  -16.1980   25.7492 N   0  0  0  0  0  0  0  0  0  0  0  0
  -30.1987  -15.6642   24.6550 N   0  0  0  0  0  0  0  0  0  0  0  0
  -26.2562  -12.8395   20.4481 N   0  0  0  0  0  0  0  0  0  0  0  0
  -35.5980  -21.0808   27.1374 N   0  0  0  0  0  0  0  0  0  0  0  0
  -30.0551  -12.4590   20.6280 N   0  0  0  0  0  0  0  0  0  0  0  0
  -25.4470  -15.0653   20.4059 N   0  0  0  0  0  0  0  0  0  0  0  0
  -21.7288  -12.6192   21.1728 N   0  0  0  0  0  0  0  0  0  0  0  0
  -36.0444  -23.4302   29.5145 N   0  0  0  0  0  0  0  0  0  0  0  0
  -36.7460  -20.8304   23.9629 N   0  0  0  0  0  0  0  0  0  0  0  0
  -30.6002  -13.3463   22.7515 N   0  0  0  0  0  0  0  0  0  0  0  0
  -37.2666  -17.4649   22.7502 N   0  3  0  0  0  0  0  0  0  0  0  0
  -22.5279  -14.7471   20.8694 O   0  0  0  0  0  0  0  0  0  0  0  0
  -34.0056  -22.3749   29.1247 O   0  0  0  0  0  0  0  0  0  0  0  0
  -37.5239  -22.1556   26.3810 O   0  0  0  0  0  0  0  0  0  0  0  0
  -35.1758  -19.1814   23.5242 O   0  0  0  0  0  0  0  0  0  0  0  0
  -32.2403  -12.4793   21.4042 O   0  0  0  0  0  0  0  0  0  0  0  0
  -21.4726   -7.0736   21.6367 O   0  0  0  0  0  0  0  0  0  0  0  0
  -30.6703  -17.5810   28.3709 O   0  0  0  0  0  0  0  0  0  1  0  0
  -23.4281   -3.2726   25.1200 F   0  0  0  0  0  0  0  0  0  0  0  0
  -20.0509   -6.3553   23.8963 F   0  0  0  0  0  0  0  0  0  0  0  0
  1  2  1  0  0  0  0
  1  5  2  0  0  0  0
  2  6  2  0  0  0  0
  3  8  2  0  0  0  0
  3 16  1  0  0  0  0
  4  9  1  0  0  0  0
  4 16  2  0  0  0  0
  5 18  1  0  0  0  0
  6 20  1  0  0  0  0
  7 10  2  0  0  0  0
  7 19  1  0  0  0  0
  8 22  1  0  0  0  0
  9 22  2  0  0  0  0
 10 23  1  0  0  0  0
 11 12  2  0  0  0  0
 11 24  1  0  0  0  0
 12 25  1  0  0  0  0
 13 21  1  0  0  0  0
 13 23  2  0  0  0  0
 14 25  2  0  0  0  0
 14 26  1  0  0  0  0
 15 28  1  0  0  0  0
 15 29  2  0  0  0  0
 16 27  1  0  0  0  0
 17 27  1  0  0  0  0
 17 30  2  0  0  0  0
 17 31  1  0  0  0  0
 18 20  2  0  0  0  0
 18 36  1  0  0  0  0
 19 21  2  0  0  0  0
 19 37  1  0  0  0  0
 20 45  1  0  0  0  0
 21 38  1  0  0  0  0
 22 82  1  0  0  0  0
 23 83  1  0  0  0  0
 24 26  2  0  0  0  0
 24 82  1  0  0  0  0
 25 84  1  0  0  0  0
 26 85  1  0  0  0  0
 27 65  2  0  0  0  0
 28 58  1  0  0  0  0
 28 66  2  0  0  0  0
 29 62  1  0  0  0  0
 29 67  1  0  0  0  0
 30 68  1  0  0  0  0
 30 71  1  0  0  0  0
 31 72  1  0  0  0  0
 31 77  2  0  0  0  0
 32 46  1  0  0  0  0
 32 73  1  0  0  0  0
 32 78  2  0  0  0  0
 33 60  1  0  0  0  0
 33 69  1  0  0  0  0
 33 79  2  0  0  0  0
 34 61  1  0  0  0  0
 34 74  1  0  0  0  0
 34 80  2  0  0  0  0
 35 70  1  0  0  0  0
 35 75  1  0  0  0  0
 35 81  2  0  0  0  0
 36 39  1  0  0  0  0
 37 46  1  0  0  0  0
 38 69  1  0  0  0  0
 39 41  1  0  0  0  0
 40 42  1  0  0  0  0
 40 43  1  0  0  0  0
 41 45  1  0  0  0  0
 42 47  1  0  0  0  0
 43 70  1  0  0  0  0
 44 47  1  0  0  0  0
 44 70  1  0  0  0  0
 45 73  1  0  0  0  0
 46 69  1  0  0  0  0
 47 68  1  0  0  0  0
 48 61  1  0  0  0  0
 49 62  1  0  0  0  0
 50 62  1  0  0  0  0
 51 63  1  0  0  0  0
 52 63  1  0  0  0  0
 53 63  1  0  0  0  0
 54 64  1  0  0  0  0
 55 64  1  0  0  0  0
 56 64  1  0  0  0  0
 57 76  1  0  0  0  0
 58 59  1  0  0  0  0
 59 83  1  0  0  0  0
 60 63  1  0  0  0  0
 60 74  1  0  0  0  0
 61 76  1  0  0  0  0
 62 75  1  0  0  0  0
 64 67  1  0  0  0  0
 65 68  1  0  0  0  0
 66 67  1  0  0  0  0
M  CHG  1  76   1
M  ISO  4  35 100  59 101  75 100  83 101
M  END
> <Batch ID>
0063

> <Smiles>
CNC(C)C(=O)NC(C(=O)N1Cc2cc([101O:1][101CH2:1]Cc3cc(C(C)(C)[100NH:0][100C:0](=O)N4CCCC(n5nc(-c6ccc(Oc7ccc(F)cc7F)cc6)c(C(N)=O)c5N)C4)n(C(C)(C)C)n3)ccc2CC1C(=O)NC1CCCc2ccccc21)C(C)(C)C

> <Shape>
0.153

> <Color>
0.178

> <Negative vol penalty>
0.000

$$$$

  -OEChem-04052318023D

 87 95  0     1  0  0  0  0  0999 V2000
  -23.3918   -8.3614   24.9668 C   0  0  0  0  0  0  0  0  0  0  0  0
  -24.4016   -9.2870   25.2098 C   0  0  0  0  0  0  0  0  0  0  0  0
  -24.5220  -29.0522   23.8736 C   0  0  0  0  0  0  0  0  0  0  0  0
  -24.6834  -29.5150   21.5079 C   0  0  0  0  0  0  0  0  0  0  0  0
  -22.9003   -8.1911   23.6733 C   0  0  0  0  0  0  0  0  0  0  0  0
  -24.9213  -10.0421   24.1590 C   0  0  0  0  0  0  0  0  0  0  0  0
  -27.6677  -16.5076   22.7550 C   0  0  0  0  0  0  0  0  0  0  0  0
  -25.1348  -30.2733   24.1544 C   0  0  0  0  0  0  0  0  0  0  0  0
  -25.2962  -30.7362   21.7886 C   0  0  0  0  0  0  0  0  0  0  0  0
  -28.7857  -17.0986   22.1681 C   0  0  0  0  0  0  0  0  0  0  0  0
  -28.2665  -31.5449   24.1607 C   0  0  0  0  0  0  0  0  0  0  0  0
  -29.2759  -31.5565   25.1233 C   0  0  0  0  0  0  0  0  0  0  0  0
  -27.8042  -16.7759   19.9882 C   0  0  0  0  0  0  0  0  0  0  0  0
  -27.9947  -33.1189   26.4479 C   0  0  0  0  0  0  0  0  0  0  0  0
  -29.0243  -20.4634   17.2737 C   0  0  0  0  0  0  0  0  0  0  0  0
  -24.2964  -28.6729   22.5504 C   0  0  0  0  0  0  0  0  0  0  0  0
  -22.2853  -27.1644   22.1172 C   0  0  0  0  0  0  0  0  0  0  0  0
  -23.4075   -8.9514   22.6077 C   0  0  0  0  0  0  0  0  0  0  0  0
  -26.6126  -16.0357   21.9610 C   0  0  0  0  0  0  0  0  0  0  0  0
  -24.4371   -9.8809   22.8497 C   0  0  0  0  0  0  0  0  0  0  0  0
  -26.6728  -16.1817   20.5677 C   0  0  0  0  0  0  0  0  0  0  0  0
  -25.5219  -31.1153   23.1119 C   0  0  0  0  0  0  0  0  0  0  0  0
  -28.8554  -17.2302   20.7843 C   0  0  0  0  0  0  0  0  0  0  0  0
  -27.1212  -32.3203   24.3416 C   0  0  0  0  0  0  0  0  0  0  0  0
  -29.1400  -32.3435   26.2669 C   0  0  0  0  0  0  0  0  0  0  0  0
  -26.9853  -33.1073   25.4852 C   0  0  0  0  0  0  0  0  0  0  0  0
  -23.6639  -27.4113   22.2598 C   0  0  0  0  0  0  0  0  0  0  0  0
  -28.6486  -21.7654   17.5207 C   0  0  0  0  0  0  0  0  0  0  0  0
  -30.3641  -20.4985   19.1266 C   0  0  0  0  0  0  0  0  0  0  0  0
  -29.9890  -21.8008   19.3732 C   0  0  0  0  0  0  0  0  0  0  0  0
  -22.2034  -25.8201   21.8478 C   0  0  0  0  0  0  0  0  0  0  0  0
  -21.1778  -28.0693   22.2192 C   0  0  0  0  0  0  0  0  0  0  0  0
  -25.2901  -13.1912   21.4473 C   0  0  0  0  0  0  0  0  0  0  0  0
  -23.1598  -14.9268   19.7234 C   0  0  0  0  0  0  0  0  0  0  0  0
  -22.4914  -17.7737   17.9640 C   0  0  0  0  0  0  0  0  0  0  0  0
  -26.0440  -21.8999   19.4534 C   0  0  0  0  0  0  0  0  0  0  0  0
  -22.8775   -8.6985   21.2186 C   0  0  0  0  0  0  0  0  0  0  0  0
  -25.4017  -15.4248   22.6112 C   0  0  0  0  0  0  0  0  0  0  0  0
  -25.5577  -15.7098   19.6720 C   0  0  0  0  0  0  0  0  0  0  0  0
  -23.2214   -9.8049   20.2246 C   0  0  0  0  0  0  0  0  0  0  0  0
  -24.4892  -21.6943   22.6498 C   0  0  0  0  0  0  0  0  0  0  0  0
  -24.6925  -10.1904   20.3428 C   0  0  0  0  0  0  0  0  0  0  0  0
  -23.9770  -23.1139   22.8995 C   0  0  0  0  0  0  0  0  0  0  0  0
  -25.8267  -21.6983   21.9128 C   0  0  0  0  0  0  0  0  0  0  0  0
  -25.3275  -23.8923   20.9072 C   0  0  0  0  0  0  0  0  0  0  0  0
  -25.0092  -10.7364   21.7403 C   0  0  1  0  0  0  0  0  0  0  0  0
  -24.6150  -14.5144   21.6732 C   0  0  1  0  0  0  0  0  0  0  0  0
  -23.9541  -23.9386   21.5985 C   0  0  2  0  0  0  0  0  0  0  0  0
  -29.7489  -23.8445   20.8057 C   0  0  0  0  0  0  0  0  0  0  0  0
  -20.6758  -18.8904   16.6398 C   0  0  0  0  0  0  0  0  0  0  0  0
  -23.7216  -13.0555   17.3798 C   0  0  0  0  0  0  0  0  0  0  0  0
  -22.6539  -14.7416   15.8680 C   0  0  0  0  0  0  0  0  0  0  0  0
  -21.3139  -13.6639   17.6751 C   0  0  0  0  0  0  0  0  0  0  0  0
  -22.3913  -20.0747   19.8226 C   0  0  0  0  0  0  0  0  0  0  0  0
  -31.3336  -19.7743   20.0288 C   0  0  0  0  0  0  0  0  0  0  0  0
  -30.5232  -22.5551   20.5426 C   0  0  0  0  0  0  0  0  0  0  0  0
  -26.2029  -22.2539   17.0022 C   0  0  0  0  0  0  0  0  0  0  0  0
  -30.6331  -18.7992   20.9688 C   0  0  0  0  0  0  0  0  0  1  0  0
  -27.6903  -22.4593   16.6173 C   0  0  1  0  0  0  0  0  0  0  0  0
  -23.0649  -15.3818   18.2871 C   0  0  1  0  0  0  0  0  0  0  0  0
  -21.3164  -18.7338   18.0101 C   0  0  2  0  0  0  0  0  0  0  0  0
  -22.7106  -14.2180   17.3190 C   0  0  0  0  0  0  0  0  0  0  0  0
  -27.9854  -23.9650   16.4999 C   0  0  0  0  0  0  0  0  0  0  0  0
  -29.8888  -19.8065   18.0722 N   0  0  0  0  0  0  0  0  0  0  0  0
  -24.4044  -26.3121   22.0947 N   0  0  0  0  0  0  0  0  0  0  0  0
  -29.1242  -22.4575   18.5749 N   0  0  0  0  0  0  0  0  0  0  0  0
  -23.4878  -25.3613   21.8457 N   0  0  0  0  0  0  0  0  0  0  0  0
  -24.3977  -15.1135   20.3548 N   0  0  0  0  0  0  0  0  0  0  0  0
  -25.7369  -22.4962   20.6876 N   0  0  0  0  0  0  0  0  0  0  0  0
  -21.1586  -24.9975   21.6149 N   0  0  0  0  0  0  0  0  0  0  0  0
  -21.4399  -29.4169   22.5014 N   0  0  0  0  0  0  0  0  0  0  0  0
  -24.5487  -12.1027   21.8654 N   0  0  0  0  0  0  0  0  0  0  0  0
  -22.1099  -16.4846   18.2705 N   0  0  0  0  0  0  0  0  0  0  0  0
  -25.9271  -22.7246   18.3412 N   0  0  0  0  0  0  0  0  0  0  0  0
  -21.7630  -20.0769   18.4764 N   0  3  0  0  0  0  0  0  0  0  0  0
  -19.9900  -27.6908   22.0808 O   0  0  0  0  0  0  0  0  0  0  0  0
  -26.4008  -13.1601   20.9305 O   0  0  0  0  0  0  0  0  0  0  0  0
  -22.1700  -14.4309   20.2673 O   0  0  0  0  0  0  0  0  0  0  0  0
  -23.6327  -18.1309   17.6806 O   0  0  0  0  0  0  0  0  0  0  0  0
  -26.3911  -20.7185   19.3498 O   0  0  0  0  0  0  0  0  0  0  0  0
  -26.1197  -32.3071   23.3854 O   0  0  0  0  0  0  0  0  0  0  0  0
  -29.9458  -17.8061   20.2087 O   0  0  0  0  0  0  0  0  0  1  0  0
  -30.1087  -32.3533   27.1919 F   0  0  0  0  0  0  0  0  0  0  0  0
  -25.8868  -33.8535   25.6652 F   0  0  0  0  0  0  0  0  0  0  0  0
  -27.1186  -24.5806   15.6625 F   0  0  0  0  0  0  0  0  0  0  0  0
  -27.9055  -24.5885   17.6942 F   0  0  0  0  0  0  0  0  0  0  0  0
  -29.2274  -24.1698   16.0066 F   0  0  0  0  0  0  0  0  0  0  0  0
  1  2  1  0  0  0  0
  1  5  2  0  0  0  0
  2  6  2  0  0  0  0
  3  8  2  0  0  0  0
  3 16  1  0  0  0  0
  4  9  1  0  0  0  0
  4 16  2  0  0  0  0
  5 18  1  0  0  0  0
  6 20  1  0  0  0  0
  7 10  2  0  0  0  0
  7 19  1  0  0  0  0
  8 22  1  0  0  0  0
  9 22  2  0  0  0  0
 10 23  1  0  0  0  0
 11 12  2  0  0  0  0
 11 24  1  0  0  0  0
 12 25  1  0  0  0  0
 13 21  1  0  0  0  0
 13 23  2  0  0  0  0
 14 25  2  0  0  0  0
 14 26  1  0  0  0  0
 15 28  1  0  0  0  0
 15 64  2  0  0  0  0
 16 27  1  0  0  0  0
 17 27  1  0  0  0  0
 17 31  2  0  0  0  0
 17 32  1  0  0  0  0
 18 20  2  0  0  0  0
 18 37  1  0  0  0  0
 19 21  2  0  0  0  0
 19 38  1  0  0  0  0
 20 46  1  0  0  0  0
 21 39  1  0  0  0  0
 22 81  1  0  0  0  0
 23 82  1  0  0  0  0
 24 26  2  0  0  0  0
 24 81  1  0  0  0  0
 25 83  1  0  0  0  0
 26 84  1  0  0  0  0
 27 65  2  0  0  0  0
 28 59  1  0  0  0  0
 28 66  2  0  0  0  0
 29 30  2  0  0  0  0
 29 55  1  0  0  0  0
 29 64  1  0  0  0  0
 30 56  1  0  0  0  0
 30 66  1  0  0  0  0
 31 67  1  0  0  0  0
 31 70  1  0  0  0  0
 32 71  1  0  0  0  0
 32 76  2  0  0  0  0
 33 47  1  0  0  0  0
 33 72  1  0  0  0  0
 33 77  2  0  0  0  0
 34 60  1  0  0  0  0
 34 68  1  0  0  0  0
 34 78  2  0  0  0  0
 35 61  1  0  0  0  0
 35 73  1  0  0  0  0
 35 79  2  0  0  0  0
 36 69  1  0  0  0  0
 36 74  1  0  0  0  0
 36 80  2  0  0  0  0
 37 40  1  0  0  0  0
 38 47  1  0  0  0  0
 39 68  1  0  0  0  0
 40 42  1  0  0  0  0
 41 43  1  0  0  0  0
 41 44  1  0  0  0  0
 42 46  1  0  0  0  0
 43 48  1  0  0  0  0
 44 69  1  0  0  0  0
 45 48  1  0  0  0  0
 45 69  1  0  0  0  0
 46 72  1  0  0  0  0
 47 68  1  0  0  0  0
 48 67  1  0  0  0  0
 49 56  1  0  0  0  0
 50 61  1  0  0  0  0
 51 62  1  0  0  0  0
 52 62  1  0  0  0  0
 53 62  1  0  0  0  0
 54 75  1  0  0  0  0
 55 58  1  0  0  0  0
 57 59  1  0  0  0  0
 57 74  1  0  0  0  0
 58 82  1  0  0  0  0
 59 63  1  0  0  0  0
 60 62  1  0  0  0  0
 60 73  1  0  0  0  0
 61 75  1  0  0  0  0
 63 85  1  0  0  0  0
 63 86  1  0  0  0  0
 63 87  1  0  0  0  0
 65 67  1  0  0  0  0
M  CHG  1  75   1
M  ISO  4  36 100  58 101  74 100  82 101
M  END
> <Batch ID>
0063

> <Smiles>
CCc1nc(C(C[100NH:0][100C:0](=O)N2CCCC(n3nc(-c4ccc(Oc5ccc(F)cc5F)cc4)c(C(N)=O)c3N)C2)C(F)(F)F)cnc1C[101CH2:1][101O:1]c1ccc2c(c1)CN(C(=O)C(NC(=O)C(C)NC)C(C)(C)C)C(C(=O)NC1CCCc3ccccc31)C2

> <Shape>
0.212

> <Color>
0.071

> <Negative vol penalty>
0.000

$$$$

  -OEChem-04052318023D

 91 99  0     1  0  0  0  0  0999 V2000
  -31.2910  -18.8749   21.3058 C   0  0  0  0  0  0  0  0  0  0  0  0
  -30.0195  -19.1529   20.8145 C   0  0  0  0  0  0  0  0  0  0  0  0
  -24.1672  -29.9994   19.8941 C   0  0  0  0  0  0  0  0  0  0  0  0
  -24.3174  -27.9898   21.2268 C   0  0  0  0  0  0  0  0  0  0  0  0
  -31.6981  -17.5521   21.4743 C   0  0  0  0  0  0  0  0  0  0  0  0
  -29.1547  -18.1082   20.4903 C   0  0  0  0  0  0  0  0  0  0  0  0
  -24.4506  -18.8787   22.2000 C   0  0  0  0  0  0  0  0  0  0  0  0
  -23.0010  -30.3599   20.5690 C   0  0  0  0  0  0  0  0  0  0  0  0
  -23.1512  -28.3503   21.9018 C   0  0  0  0  0  0  0  0  0  0  0  0
  -23.6466  -19.7589   21.4772 C   0  0  0  0  0  0  0  0  0  0  0  0
  -19.8187  -28.2648   21.3379 C   0  0  0  0  0  0  0  0  0  0  0  0
  -18.8544  -27.2772   21.5385 C   0  0  0  0  0  0  0  0  0  0  0  0
  -22.5580  -17.8850   20.4177 C   0  0  0  0  0  0  0  0  0  0  0  0
  -19.0494  -27.5720   23.9285 C   0  0  0  0  0  0  0  0  0  0  0  0
  -24.8254  -28.8143   20.2229 C   0  0  0  0  0  0  0  0  0  0  0  0
  -27.3524  -28.7723   19.8762 C   0  0  0  0  0  0  0  0  0  0  0  0
  -30.8343  -16.4907   21.1611 C   0  0  0  0  0  0  0  0  0  0  0  0
  -24.3216  -17.4929   22.0288 C   0  0  0  0  0  0  0  0  0  0  0  0
  -29.5511  -16.7699   20.6535 C   0  0  0  0  0  0  0  0  0  0  0  0
  -23.3598  -16.9892   21.1415 C   0  0  0  0  0  0  0  0  0  0  0  0
  -22.4930  -29.5354   21.5729 C   0  0  0  0  0  0  0  0  0  0  0  0
  -22.7021  -19.2622   20.5837 C   0  0  0  0  0  0  0  0  0  0  0  0
  -20.3985  -28.9060   22.4327 C   0  0  0  0  0  0  0  0  0  0  0  0
  -18.4697  -26.9308   22.8337 C   0  0  0  0  0  0  0  0  0  0  0  0
  -20.0138  -28.5596   23.7279 C   0  0  0  0  0  0  0  0  0  0  0  0
  -26.0298  -28.4411   19.5256 C   0  0  0  0  0  0  0  0  0  0  0  0
  -28.1231  -28.1838   18.9035 C   0  0  0  0  0  0  0  0  0  0  0  0
  -27.9124  -23.0006   19.7318 C   0  0  0  0  0  0  0  0  0  0  0  0
  -27.8249  -22.0989   17.8513 C   0  0  0  0  0  0  0  0  0  0  0  0
  -27.8406  -29.5429   20.9823 C   0  0  0  0  0  0  0  0  0  0  0  0
  -26.2409  -15.1693   21.0184 C   0  0  0  0  0  0  0  0  0  0  0  0
  -23.7733  -13.2684   21.9241 C   0  0  0  0  0  0  0  0  0  0  0  0
  -29.2941  -23.7431   15.7100 C   0  0  0  0  0  0  0  0  0  0  0  0
  -20.4310  -12.9560   22.5389 C   0  0  0  0  0  0  0  0  0  0  0  0
  -31.3360  -15.0768   21.3153 C   0  0  0  0  0  0  0  0  0  0  0  0
  -25.1780  -16.5561   22.8358 C   0  0  0  0  0  0  0  0  0  0  0  0
  -23.1678  -15.5096   20.9363 C   0  0  0  0  0  0  0  0  0  0  0  0
  -30.2241  -14.0310   21.3017 C   0  0  0  0  0  0  0  0  0  0  0  0
  -26.8337  -26.0546   14.5089 C   0  0  0  0  0  0  0  0  0  0  0  0
  -29.2539  -14.2983   20.1553 C   0  0  0  0  0  0  0  0  0  0  0  0
  -26.4919  -26.8886   15.7430 C   0  0  0  0  0  0  0  0  0  0  0  0
  -27.1304  -24.6049   14.8794 C   0  0  0  0  0  0  0  0  0  0  0  0
  -27.8626  -25.2812   17.1440 C   0  0  0  0  0  0  0  0  0  0  0  0
  -28.5753  -15.6642   20.3139 C   0  0  1  0  0  0  0  0  0  0  0  0
  -25.3148  -15.1753   22.2016 C   0  0  1  0  0  0  0  0  0  0  0  0
  -27.5860  -26.7595   16.8176 C   0  0  2  0  0  0  0  0  0  0  0  0
  -18.7038  -11.2708   23.2276 C   0  0  0  0  0  0  0  0  0  0  0  0
  -22.2949  -22.9995   16.6968 C   0  0  0  0  0  0  0  0  0  0  0  0
  -30.6021  -21.8110   16.5340 C   0  0  0  0  0  0  0  0  0  0  0  0
  -31.0370  -24.1246   17.3602 C   0  0  0  0  0  0  0  0  0  0  0  0
  -23.8446  -12.0551   19.1254 C   0  0  0  0  0  0  0  0  0  0  0  0
  -21.5662  -11.1093   19.5531 C   0  0  0  0  0  0  0  0  0  0  0  0
  -23.4940  -10.4031   20.9700 C   0  0  0  0  0  0  0  0  0  0  0  0
  -19.7329  -14.4929   24.9698 C   0  0  0  0  0  0  0  0  0  0  0  0
  -23.1439  -20.4627   15.4749 C   0  0  0  0  0  0  0  0  0  0  0  0
  -27.4757  -21.3030   16.6191 C   0  0  0  0  0  0  0  0  0  0  0  0
  -26.0746  -20.6788   16.6594 C   0  0  0  0  0  0  0  0  0  0  0  0
  -21.2883  -20.9118   17.7010 C   0  0  0  0  0  0  0  0  0  0  0  0
  -24.9179  -21.6706   16.7376 C   0  0  0  0  0  0  0  0  0  0  0  0
  -21.4792  -19.6869   18.5887 C   0  0  0  0  0  0  0  0  0  1  0  0
  -22.5371  -12.7267   21.2480 C   0  0  1  0  0  0  0  0  0  0  0  0
  -19.6739  -12.3414   23.7023 C   0  0  2  0  0  0  0  0  0  0  0  0
  -22.5569  -21.7487   17.5251 C   0  0  1  0  0  0  0  0  0  0  0  0
  -27.5486  -23.3635   21.1066 C   0  0  0  0  0  0  0  0  0  0  0  0
  -29.9330  -23.1379   16.9346 C   0  0  0  0  0  0  0  0  0  0  0  0
  -22.8652  -11.6015   20.2263 C   0  0  0  0  0  0  0  0  0  0  0  0
  -25.9606  -27.6999   18.4166 N   0  0  0  0  0  0  0  0  0  0  0  0
  -27.1572  -22.1462   18.9806 N   0  0  0  0  0  0  0  0  0  0  0  0
  -29.0054  -23.4849   19.1384 N   0  0  0  0  0  0  0  0  0  0  0  0
  -27.2493  -27.5605   18.0620 N   0  0  0  0  0  0  0  0  0  0  0  0
  -28.9260  -22.8928   17.9370 N   0  0  0  0  0  0  0  0  0  0  0  0
  -24.0334  -14.6343   21.7437 N   0  0  0  0  0  0  0  0  0  0  0  0
  -28.1584  -24.5258   15.9187 N   0  0  0  0  0  0  0  0  0  0  0  0
  -29.4562  -28.1439   18.6944 N   0  0  0  0  0  0  0  0  0  0  0  0
  -26.9123  -30.0748   21.8876 N   0  0  0  0  0  0  0  0  0  0  0  0
  -27.5239  -15.5941   21.3060 N   0  0  0  0  0  0  0  0  0  0  0  0
  -21.6330  -12.3176   22.3174 N   0  0  0  0  0  0  0  0  0  0  0  0
  -18.9002  -13.3884   24.4277 N   0  3  0  0  0  0  0  0  0  0  0  0
  -23.5997  -20.9461   16.8274 N   0  3  1  0  0  0  0  0  0  0  0  0
  -29.0629  -29.7673   21.1534 O   0  0  0  0  0  0  0  0  0  0  0  0
  -25.8227  -14.8047   19.9257 O   0  0  0  0  0  0  0  0  0  0  0  0
  -24.4783  -12.5092   22.5937 O   0  0  0  0  0  0  0  0  0  0  0  0
  -29.7927  -23.5278   14.6022 O   0  0  0  0  0  0  0  0  0  0  0  0
  -19.9976  -13.9048   21.8889 O   0  0  0  0  0  0  0  0  0  0  0  0
  -21.3552  -29.8869   22.2319 O   0  0  0  0  0  0  0  0  0  0  0  0
  -21.9165  -20.1192   19.8764 O   0  0  0  0  0  0  0  0  0  1  0  0
  -17.5425  -25.9834   23.0261 F   0  0  0  0  0  0  0  0  0  0  0  0
  -20.5664  -29.1730   24.7835 F   0  0  0  0  0  0  0  0  0  0  0  0
  -26.3936  -22.7743   21.5664 F   0  0  0  0  0  0  0  0  0  0  0  0
  -28.4914  -23.0334   22.0523 F   0  0  0  0  0  0  0  0  0  0  0  0
  -27.3414  -24.7106   21.2821 F   0  0  0  0  0  0  0  0  0  0  0  0
  1  2  1  0  0  0  0
  1  5  2  0  0  0  0
  2  6  2  0  0  0  0
  3  8  2  0  0  0  0
  3 15  1  0  0  0  0
  4  9  1  0  0  0  0
  4 15  2  0  0  0  0
  5 17  1  0  0  0  0
  6 19  1  0  0  0  0
  7 10  2  0  0  0  0
  7 18  1  0  0  0  0
  8 21  1  0  0  0  0
  9 21  2  0  0  0  0
 10 22  1  0  0  0  0
 11 12  2  0  0  0  0
 11 23  1  0  0  0  0
 12 24  1  0  0  0  0
 13 20  1  0  0  0  0
 13 22  2  0  0  0  0
 14 24  2  0  0  0  0
 14 25  1  0  0  0  0
 15 26  1  0  0  0  0
 16 26  1  0  0  0  0
 16 27  2  0  0  0  0
 16 30  1  0  0  0  0
 17 19  2  0  0  0  0
 17 35  1  0  0  0  0
 18 20  2  0  0  0  0
 18 36  1  0  0  0  0
 19 44  1  0  0  0  0
 20 37  1  0  0  0  0
 21 85  1  0  0  0  0
 22 86  1  0  0  0  0
 23 25  2  0  0  0  0
 23 85  1  0  0  0  0
 24 87  1  0  0  0  0
 25 88  1  0  0  0  0
 26 67  2  0  0  0  0
 27 70  1  0  0  0  0
 27 74  1  0  0  0  0
 28 64  1  0  0  0  0
 28 68  1  0  0  0  0
 28 69  2  0  0  0  0
 29 56  1  0  0  0  0
 29 68  2  0  0  0  0
 29 71  1  0  0  0  0
 30 75  1  0  0  0  0
 30 80  2  0  0  0  0
 31 45  1  0  0  0  0
 31 76  1  0  0  0  0
 31 81  2  0  0  0  0
 32 61  1  0  0  0  0
 32 72  1  0  0  0  0
 32 82  2  0  0  0  0
 33 65  1  0  0  0  0
 33 73  1  0  0  0  0
 33 83  2  0  0  0  0
 34 62  1  0  0  0  0
 34 77  1  0  0  0  0
 34 84  2  0  0  0  0
 35 38  1  0  0  0  0
 36 45  1  0  0  0  0
 37 72  1  0  0  0  0
 38 40  1  0  0  0  0
 39 41  1  0  0  0  0
 39 42  1  0  0  0  0
 40 44  1  0  0  0  0
 41 46  1  0  0  0  0
 42 73  1  0  0  0  0
 43 46  1  0  0  0  0
 43 73  1  0  0  0  0
 44 76  1  0  0  0  0
 45 72  1  0  0  0  0
 46 70  1  0  0  0  0
 47 62  1  0  0  0  0
 48 63  1  0  0  0  0
 49 65  1  0  0  0  0
 50 65  1  0  0  0  0
 51 66  1  0  0  0  0
 52 66  1  0  0  0  0
 53 66  1  0  0  0  0
 54 78  1  0  0  0  0
 55 79  1  0  0  0  0
 56 57  1  0  0  0  0
 57 59  1  0  0  0  0
 58 60  1  0  0  0  0
 58 63  1  0  0  0  0
 59 79  1  0  0  0  0
 60 86  1  0  0  0  0
 61 66  1  0  0  0  0
 61 77  1  0  0  0  0
 62 78  1  0  0  0  0
 63 79  1  0  0  0  0
 64 89  1  0  0  0  0
 64 90  1  0  0  0  0
 64 91  1  0  0  0  0
 65 71  1  0  0  0  0
 67 70  1  0  0  0  0
 69 71  1  0  0  0  0
M  CHG  2  78   1  79   1
M  ISO  4  33 100  60 101  65 100  86 101
M  END
> <Batch ID>
0063

> <Smiles>
CNC(C)C(=O)NC(C(=O)N1Cc2cc([101O:1][101CH2:1]CC(C)N(C)CCCc3nc(C(F)(F)F)nn3[100C:0](C)(C)[100C:0](=O)N3CCCC(n4nc(-c5ccc(Oc6ccc(F)cc6F)cc5)c(C(N)=O)c4N)C3)ccc2CC1C(=O)NC1CCCc2ccccc21)C(C)(C)C

> <Shape>
0.239

> <Color>
0.056

> <Negative vol penalty>
0.000

$$$$

  -OEChem-04052318023D

 94102  0     1  0  0  0  0  0999 V2000
  -32.0898  -24.9161   14.4353 C   0  0  0  0  0  0  0  0  0  0  0  0
  -31.1659  -24.1955   15.1852 C   0  0  0  0  0  0  0  0  0  0  0  0
  -20.5937  -18.4574   22.0787 C   0  0  0  0  0  0  0  0  0  0  0  0
  -20.5136  -17.8927   19.7310 C   0  0  0  0  0  0  0  0  0  0  0  0
  -32.6728  -26.0656   14.9670 C   0  0  0  0  0  0  0  0  0  0  0  0
  -30.8251  -24.6234   16.4678 C   0  0  0  0  0  0  0  0  0  0  0  0
  -25.8334  -24.4647   17.3065 C   0  0  0  0  0  0  0  0  0  0  0  0
  -19.9487  -19.6646   21.8104 C   0  0  0  0  0  0  0  0  0  0  0  0
  -19.8685  -19.1000   19.4627 C   0  0  0  0  0  0  0  0  0  0  0  0
  -25.2733  -23.2179   17.5815 C   0  0  0  0  0  0  0  0  0  0  0  0
  -18.6443  -23.0570   21.6926 C   0  0  0  0  0  0  0  0  0  0  0  0
  -19.1452  -24.2100   22.2970 C   0  0  0  0  0  0  0  0  0  0  0  0
  -25.2785  -23.7416   19.9363 C   0  0  0  0  0  0  0  0  0  0  0  0
  -21.2681  -23.8647   21.1964 C   0  0  0  0  0  0  0  0  0  0  0  0
  -30.7069  -14.1139   20.0324 C   0  0  0  0  0  0  0  0  0  0  0  0
  -20.8763  -17.5714   21.0390 C   0  0  0  0  0  0  0  0  0  0  0  0
  -20.9425  -15.0912   21.6324 C   0  0  0  0  0  0  0  0  0  0  0  0
  -32.3317  -26.5132   16.2531 C   0  0  0  0  0  0  0  0  0  0  0  0
  -26.1309  -25.3564   18.3471 C   0  0  0  0  0  0  0  0  0  0  0  0
  -31.4050  -25.7792   17.0178 C   0  0  0  0  0  0  0  0  0  0  0  0
  -25.8400  -25.0001   19.6717 C   0  0  0  0  0  0  0  0  0  0  0  0
  -19.5861  -19.9859   20.5024 C   0  0  0  0  0  0  0  0  0  0  0  0
  -24.9985  -22.8550   18.8967 C   0  0  0  0  0  0  0  0  0  0  0  0
  -19.4554  -22.3078   20.8401 C   0  0  0  0  0  0  0  0  0  0  0  0
  -20.4570  -24.6139   22.0489 C   0  0  0  0  0  0  0  0  0  0  0  0
  -20.7672  -22.7117   20.5921 C   0  0  0  0  0  0  0  0  0  0  0  0
  -21.5431  -16.3244   21.3155 C   0  0  0  0  0  0  0  0  0  0  0  0
  -29.4840  -14.0280   19.4043 C   0  0  0  0  0  0  0  0  0  0  0  0
  -31.0826  -16.1322   19.0250 C   0  0  0  0  0  0  0  0  0  0  0  0
  -29.8599  -16.0460   18.3963 C   0  0  0  0  0  0  0  0  0  0  0  0
  -21.9980  -14.2290   21.8029 C   0  0  0  0  0  0  0  0  0  0  0  0
  -19.5546  -14.7552   21.7611 C   0  0  0  0  0  0  0  0  0  0  0  0
  -28.7884  -26.7000   19.4588 C   0  0  0  0  0  0  0  0  0  0  0  0
  -26.7120  -28.3255   21.3479 C   0  0  0  0  0  0  0  0  0  0  0  0
  -27.1451  -13.2163   19.5011 C   0  0  0  0  0  0  0  0  0  0  0  0
  -23.6470  -28.4538   22.8434 C   0  0  0  0  0  0  0  0  0  0  0  0
  -33.0236  -27.7350   16.8037 C   0  0  0  0  0  0  0  0  0  0  0  0
  -26.7102  -26.7082   18.0316 C   0  0  0  0  0  0  0  0  0  0  0  0
  -26.1217  -25.9293   20.8230 C   0  0  0  0  0  0  0  0  0  0  0  0
  -32.3281  -28.3302   18.0253 C   0  0  0  0  0  0  0  0  0  0  0  0
  -26.8077  -14.7443   22.7841 C   0  0  0  0  0  0  0  0  0  0  0  0
  -31.9676  -27.2330   19.0218 C   0  0  0  0  0  0  0  0  0  0  0  0
  -25.3549  -15.2170   22.7534 C   0  0  0  0  0  0  0  0  0  0  0  0
  -27.4654  -14.8621   21.4117 C   0  0  0  0  0  0  0  0  0  0  0  0
  -25.2709  -14.6241   20.2928 C   0  0  0  0  0  0  0  0  0  0  0  0
  -30.9910  -26.2253   18.4034 C   0  0  1  0  0  0  0  0  0  0  0  0
  -27.4479  -27.3324   19.2121 C   0  0  1  0  0  0  0  0  0  0  0  0
  -24.5621  -14.4929   21.6513 C   0  0  2  0  0  0  0  0  0  0  0  0
  -33.3930  -17.0521   19.3449 C   0  0  0  0  0  0  0  0  0  0  0  0
  -22.2522  -29.8895   24.3569 C   0  0  0  0  0  0  0  0  0  0  0  0
  -27.6934  -19.1596   22.1249 C   0  0  0  0  0  0  0  0  0  0  0  0
  -27.8790  -21.3613   20.9034 C   0  0  0  0  0  0  0  0  0  0  0  0
  -28.3570  -27.3945   23.7431 C   0  0  0  0  0  0  0  0  0  0  0  0
  -26.4374  -28.0290   25.2198 C   0  0  0  0  0  0  0  0  0  0  0  0
  -27.5943  -29.7732   23.8626 C   0  0  0  0  0  0  0  0  0  0  0  0
  -21.5604  -28.8092   20.7749 C   0  0  0  0  0  0  0  0  0  0  0  0
  -31.9817  -17.3031   18.8190 C   0  0  0  0  0  0  0  0  0  0  0  0
  -29.3739  -17.1322   17.4702 C   0  0  0  0  0  0  0  0  0  0  0  0
  -28.7913  -18.3523   18.1956 C   0  0  0  0  0  0  0  0  0  0  0  0
  -24.7309  -19.2590   19.0500 C   0  0  0  0  0  0  0  0  0  0  0  0
  -27.6235  -18.0607   19.1330 C   0  0  0  0  0  0  0  0  0  0  0  0
  -25.7011  -19.2106   20.2207 C   0  0  0  0  0  0  0  0  0  0  0  0
  -24.7693  -20.5708   18.2757 C   0  0  0  0  0  0  0  0  0  1  0  0
  -26.0979  -28.0944   22.7075 C   0  0  1  0  0  0  0  0  0  0  0  0
  -22.6070  -29.5573   22.9159 C   0  0  2  0  0  0  0  0  0  0  0  0
  -28.0329  -19.8515   20.8145 C   0  0  0  0  0  0  0  0  0  0  0  0
  -28.6023  -12.8492   19.6257 C   0  0  1  0  0  0  0  0  0  0  0  0
  -27.1180  -28.3043   23.8620 C   0  0  0  0  0  0  0  0  0  0  0  0
  -28.8979  -11.6979   18.6545 C   0  0  0  0  0  0  0  0  0  0  0  0
  -31.5282  -15.1676   19.8541 N   0  0  0  0  0  0  0  0  0  0  0  0
  -22.8767  -16.2559   21.2859 N   0  0  0  0  0  0  0  0  0  0  0  0
  -29.0386  -14.9925   18.5749 N   0  0  0  0  0  0  0  0  0  0  0  0
  -23.1228  -14.9694   21.5865 N   0  0  0  0  0  0  0  0  0  0  0  0
  -26.6941  -27.2373   20.4639 N   0  0  0  0  0  0  0  0  0  0  0  0
  -26.6656  -14.1831   20.3852 N   0  0  0  0  0  0  0  0  0  0  0  0
  -22.0643  -12.9174   22.1154 N   0  0  0  0  0  0  0  0  0  0  0  0
  -18.6014  -15.7612   21.5524 N   0  0  0  0  0  0  0  0  0  0  0  0
  -29.6502  -26.7694   18.3809 N   0  0  0  0  0  0  0  0  0  0  0  0
  -24.9272  -28.9620   22.7795 N   0  0  0  0  0  0  0  0  0  0  0  0
  -21.3622  -29.1431   22.2089 N   0  3  0  0  0  0  0  0  0  0  0  0
  -27.0989  -19.3371   19.7456 N   0  3  1  0  0  0  0  0  0  0  0  0
  -19.1717  -13.6009   22.0686 O   0  0  0  0  0  0  0  0  0  0  0  0
  -29.0240  -26.1884   20.5472 O   0  0  0  0  0  0  0  0  0  0  0  0
  -27.1835  -29.4328   21.0776 O   0  0  0  0  0  0  0  0  0  0  0  0
  -26.4546  -12.6575   18.6449 O   0  0  0  0  0  0  0  0  0  0  0  0
  -23.3533  -27.2604   22.8472 O   0  0  0  0  0  0  0  0  0  0  0  0
  -18.9564  -21.1638   20.2402 O   0  0  0  0  0  0  0  0  0  0  0  0
  -24.4524  -21.6384   19.1679 O   0  0  0  0  0  0  0  0  0  1  0  0
  -20.9374  -25.7220   22.6282 F   0  0  0  0  0  0  0  0  0  0  0  0
  -21.5508  -21.9967   19.7731 F   0  0  0  0  0  0  0  0  0  0  0  0
  -28.7603  -12.2947   20.8823 F   0  0  0  0  0  0  0  0  0  0  0  0
  -30.1714  -11.2558   18.7738 F   0  0  0  0  0  0  0  0  0  0  0  0
  -28.0836  -10.6403   18.8562 F   0  0  0  0  0  0  0  0  0  0  0  0
  -28.7337  -12.1044   17.3751 F   0  0  0  0  0  0  0  0  0  0  0  0
  1  2  1  0  0  0  0
  1  5  2  0  0  0  0
  2  6  2  0  0  0  0
  3  8  2  0  0  0  0
  3 16  1  0  0  0  0
  4  9  1  0  0  0  0
  4 16  2  0  0  0  0
  5 18  1  0  0  0  0
  6 20  1  0  0  0  0
  7 10  2  0  0  0  0
  7 19  1  0  0  0  0
  8 22  1  0  0  0  0
  9 22  2  0  0  0  0
 10 23  1  0  0  0  0
 11 12  2  0  0  0  0
 11 24  1  0  0  0  0
 12 25  1  0  0  0  0
 13 21  1  0  0  0  0
 13 23  2  0  0  0  0
 14 25  2  0  0  0  0
 14 26  1  0  0  0  0
 15 28  1  0  0  0  0
 15 70  2  0  0  0  0
 16 27  1  0  0  0  0
 17 27  1  0  0  0  0
 17 31  2  0  0  0  0
 17 32  1  0  0  0  0
 18 20  2  0  0  0  0
 18 37  1  0  0  0  0
 19 21  2  0  0  0  0
 19 38  1  0  0  0  0
 20 46  1  0  0  0  0
 21 39  1  0  0  0  0
 22 87  1  0  0  0  0
 23 88  1  0  0  0  0
 24 26  2  0  0  0  0
 24 87  1  0  0  0  0
 25 89  1  0  0  0  0
 26 90  1  0  0  0  0
 27 71  2  0  0  0  0
 28 67  1  0  0  0  0
 28 72  2  0  0  0  0
 29 30  2  0  0  0  0
 29 57  1  0  0  0  0
 29 70  1  0  0  0  0
 30 58  1  0  0  0  0
 30 72  1  0  0  0  0
 31 73  1  0  0  0  0
 31 76  1  0  0  0  0
 32 77  1  0  0  0  0
 32 82  2  0  0  0  0
 33 47  1  0  0  0  0
 33 78  1  0  0  0  0
 33 83  2  0  0  0  0
 34 64  1  0  0  0  0
 34 74  1  0  0  0  0
 34 84  2  0  0  0  0
 35 67  1  0  0  0  0
 35 75  1  0  0  0  0
 35 85  2  0  0  0  0
 36 65  1  0  0  0  0
 36 79  1  0  0  0  0
 36 86  2  0  0  0  0
 37 40  1  0  0  0  0
 38 47  1  0  0  0  0
 39 74  1  0  0  0  0
 40 42  1  0  0  0  0
 41 43  1  0  0  0  0
 41 44  1  0  0  0  0
 42 46  1  0  0  0  0
 43 48  1  0  0  0  0
 44 75  1  0  0  0  0
 45 48  1  0  0  0  0
 45 75  1  0  0  0  0
 46 78  1  0  0  0  0
 47 74  1  0  0  0  0
 48 73  1  0  0  0  0
 49 57  1  0  0  0  0
 50 65  1  0  0  0  0
 51 66  1  0  0  0  0
 52 66  1  0  0  0  0
 53 68  1  0  0  0  0
 54 68  1  0  0  0  0
 55 68  1  0  0  0  0
 56 80  1  0  0  0  0
 58 59  1  0  0  0  0
 59 61  1  0  0  0  0
 60 62  1  0  0  0  0
 60 63  1  0  0  0  0
 61 81  1  0  0  0  0
 62 81  1  0  0  0  0
 63 88  1  0  0  0  0
 64 68  1  0  0  0  0
 64 79  1  0  0  0  0
 65 80  1  0  0  0  0
 66 81  1  0  0  0  0
 67 69  1  0  0  0  0
 67 91  1  0  0  0  0
 69 92  1  0  0  0  0
 69 93  1  0  0  0  0
 69 94  1  0  0  0  0
 71 73  1  0  0  0  0
M  CHG  2  80   1  81   1
M  ISO  4  35 100  63 101  67 100  88 101
M  END
> <Batch ID>
0063

> <Smiles>
CCc1ncc([100C:0](F)([100C:0](=O)N2CCCC(n3nc(-c4ccc(Oc5ccc(F)cc5F)cc4)c(C(N)=O)c3N)C2)C(F)(F)F)nc1CCCN(CC[101CH2:1][101O:1]c1ccc2c(c1)CN(C(=O)C(NC(=O)C(C)NC)C(C)(C)C)C(C(=O)NC1CCCc3ccccc31)C2)C(C)C

> <Shape>
0.210

> <Color>
0.056

> <Negative vol penalty>
0.000

$$$$

  -OEChem-04052318023D

 88 96  0     1  0  0  0  0  0999 V2000
  -25.1743  -13.1121   21.2859 C   0  0  0  0  0  0  0  0  0  0  0  0
  -25.5537  -14.2804   21.9389 C   0  0  0  0  0  0  0  0  0  0  0  0
  -19.9799  -28.9085   23.1603 C   0  0  0  0  0  0  0  0  0  0  0  0
  -20.5448  -26.6012   22.7193 C   0  0  0  0  0  0  0  0  0  0  0  0
  -25.9591  -12.6077   20.2498 C   0  0  0  0  0  0  0  0  0  0  0  0
  -26.7188  -14.9445   21.5568 C   0  0  0  0  0  0  0  0  0  0  0  0
  -26.0655  -19.9520   21.1782 C   0  0  0  0  0  0  0  0  0  0  0  0
  -18.7371  -28.7198   22.5557 C   0  0  0  0  0  0  0  0  0  0  0  0
  -19.3020  -26.4125   22.1147 C   0  0  0  0  0  0  0  0  0  0  0  0
  -26.0466  -20.6832   22.3651 C   0  0  0  0  0  0  0  0  0  0  0  0
  -16.1363  -25.2266   20.7766 C   0  0  0  0  0  0  0  0  0  0  0  0
  -15.4228  -24.0741   21.1053 C   0  0  0  0  0  0  0  0  0  0  0  0
  -28.3421  -21.3275   21.9977 C   0  0  0  0  0  0  0  0  0  0  0  0
  -15.3916  -24.7546   23.4233 C   0  0  0  0  0  0  0  0  0  0  0  0
  -26.8002  -25.0907   22.7760 C   0  0  0  0  0  0  0  0  0  0  0  0
  -28.1595  -26.6014   23.6284 C   0  0  0  0  0  0  0  0  0  0  0  0
  -20.8838  -27.8492   23.2420 C   0  0  0  0  0  0  0  0  0  0  0  0
  -22.4892  -27.8624   25.2245 C   0  0  0  0  0  0  0  0  0  0  0  0
  -27.1293  -13.2711   19.8483 C   0  0  0  0  0  0  0  0  0  0  0  0
  -27.2282  -19.8940   20.3963 C   0  0  0  0  0  0  0  0  0  0  0  0
  -27.5207  -14.4478   20.5152 C   0  0  0  0  0  0  0  0  0  0  0  0
  -28.3724  -20.5969   20.8000 C   0  0  0  0  0  0  0  0  0  0  0  0
  -18.3981  -27.4718   22.0330 C   0  0  0  0  0  0  0  0  0  0  0  0
  -27.1859  -21.3687   22.7765 C   0  0  0  0  0  0  0  0  0  0  0  0
  -16.4776  -26.1431   21.7713 C   0  0  0  0  0  0  0  0  0  0  0  0
  -15.0503  -23.8381   22.4287 C   0  0  0  0  0  0  0  0  0  0  0  0
  -16.1052  -25.9071   23.0946 C   0  0  0  0  0  0  0  0  0  0  0  0
  -22.1679  -28.0437   23.8659 C   0  0  0  0  0  0  0  0  0  0  0  0
  -26.8685  -24.9900   24.1456 C   0  0  0  0  0  0  0  0  0  0  0  0
  -23.8246  -28.1730   25.3059 C   0  0  0  0  0  0  0  0  0  0  0  0
  -21.6550  -27.4501   26.3153 C   0  0  0  0  0  0  0  0  0  0  0  0
  -29.1816  -17.5718   19.4500 C   0  0  0  0  0  0  0  0  0  0  0  0
  -30.5397  -19.9526   17.7151 C   0  0  0  0  0  0  0  0  0  0  0  0
  -28.2183  -28.1007   21.2069 C   0  0  0  0  0  0  0  0  0  0  0  0
  -31.0945  -23.2969   17.3217 C   0  0  0  0  0  0  0  0  0  0  0  0
  -27.9703  -12.6620   18.7546 C   0  0  0  0  0  0  0  0  0  0  0  0
  -27.2241  -19.1227   19.1050 C   0  0  0  0  0  0  0  0  0  0  0  0
  -29.6397  -20.5833   19.9862 C   0  0  0  0  0  0  0  0  0  0  0  0
  -28.9912  -13.6293   18.1609 C   0  0  0  0  0  0  0  0  0  0  0  0
  -27.1836  -30.8663   23.2369 C   0  0  0  0  0  0  0  0  0  0  0  0
  -29.7316  -14.3707   19.2695 C   0  0  0  0  0  0  0  0  0  0  0  0
  -25.7974  -30.4519   23.7287 C   0  0  0  0  0  0  0  0  0  0  0  0
  -27.4450  -30.3683   21.8189 C   0  0  0  0  0  0  0  0  0  0  0  0
  -25.8825  -28.4773   22.1416 C   0  0  0  0  0  0  0  0  0  0  0  0
  -28.7645  -15.2102   20.1130 C   0  0  1  0  0  0  0  0  0  0  0  0
  -28.6212  -18.7131   18.6493 C   0  0  1  0  0  0  0  0  0  0  0  0
  -25.5897  -28.9341   23.5818 C   0  0  2  0  0  0  0  0  0  0  0  0
  -32.2727  -24.9363   15.8312 C   0  0  0  0  0  0  0  0  0  0  0  0
  -24.7596  -24.5020   25.5575 C   0  0  0  0  0  0  0  0  0  0  0  0
  -26.9987  -23.7432   26.3246 C   0  0  0  0  0  0  0  0  0  0  0  0
  -33.2062  -19.1874   18.9855 C   0  0  0  0  0  0  0  0  0  0  0  0
  -34.1214  -21.3900   18.2245 C   0  0  0  0  0  0  0  0  0  0  0  0
  -33.3287  -19.7238   16.5459 C   0  0  0  0  0  0  0  0  0  0  0  0
  -28.5569  -24.6329   16.5905 C   0  0  0  0  0  0  0  0  0  0  0  0
  -25.9212  -22.6450   24.3345 C   0  0  0  0  0  0  0  0  0  1  0  0
  -31.6362  -20.9612   17.9587 C   0  0  1  0  0  0  0  0  0  0  0  0
  -30.9700  -24.2029   16.1101 C   0  0  2  0  0  0  0  0  0  0  0  0
  -26.1369  -23.9951   25.0659 C   0  0  0  0  0  0  0  0  0  0  0  0
  -27.9093  -26.6265   21.1347 C   0  0  0  0  0  0  0  0  0  0  0  0
  -33.0500  -20.3145   17.9452 C   0  0  0  0  0  0  0  0  0  0  0  0
  -29.1316  -25.9000   20.5518 C   0  0  0  0  0  0  0  0  0  0  0  0
  -26.7356  -26.5077   20.1447 C   0  0  0  0  0  0  0  0  0  0  0  0
  -27.7161  -25.9334   24.6701 N   0  0  0  0  0  0  0  0  0  0  0  0
  -23.2149  -28.4389   23.1368 N   0  0  0  0  0  0  0  0  0  0  0  0
  -27.6320  -26.1275   22.4594 N   0  0  0  0  0  0  0  0  0  0  0  0
  -24.2071  -28.5086   24.0405 N   0  0  0  0  0  0  0  0  0  0  0  0
  -29.5878  -19.8097   18.7346 N   0  0  0  0  0  0  0  0  0  0  0  0
  -27.2153  -28.9262   21.7155 N   0  0  0  0  0  0  0  0  0  0  0  0
  -24.6972  -28.1890   26.3358 N   0  0  0  0  0  0  0  0  0  0  0  0
  -20.3063  -27.1702   26.0564 N   0  0  0  0  0  0  0  0  0  0  0  0
  -28.4092  -16.4266   19.4140 N   0  0  0  0  0  0  0  0  0  0  0  0
  -31.4509  -22.0135   16.9653 N   0  0  0  0  0  0  0  0  0  0  0  0
  -29.8982  -25.2151   16.3282 N   0  3  0  0  0  0  0  0  0  0  0  0
  -22.0888  -27.3493   27.4880 O   0  0  0  0  0  0  0  0  0  0  0  0
  -30.2373  -17.7189   20.0546 O   0  0  0  0  0  0  0  0  0  0  0  0
  -30.5241  -19.3201   16.6562 O   0  0  0  0  0  0  0  0  0  0  0  0
  -29.3198  -28.5044   20.8249 O   0  0  0  0  0  0  0  0  0  0  0  0
  -30.8990  -23.6894   18.4699 O   0  0  0  0  0  0  0  0  0  0  0  0
  -17.1854  -27.2873   21.4432 O   0  0  0  0  0  0  0  0  0  0  0  0
  -27.1704  -22.0826   23.9349 O   0  0  0  0  0  0  0  0  0  1  0  0
  -14.3637  -22.7320   22.7439 F   0  0  0  0  0  0  0  0  0  0  0  0
  -16.4292  -26.7845   24.0543 F   0  0  0  0  0  0  0  0  0  0  0  0
  -30.2291  -26.0830   21.3225 F   0  0  0  0  0  0  0  0  0  0  0  0
  -29.4320  -26.3589   19.3147 F   0  0  0  0  0  0  0  0  0  0  0  0
  -28.9373  -24.5663   20.4495 F   0  0  0  0  0  0  0  0  0  0  0  0
  -27.0586  -26.9841   18.9209 F   0  0  0  0  0  0  0  0  0  0  0  0
  -25.6403  -27.1751   20.5719 F   0  0  0  0  0  0  0  0  0  0  0  0
  -26.3623  -25.2152   19.9804 F   0  0  0  0  0  0  0  0  0  0  0  0
  1  2  1  0  0  0  0
  1  5  2  0  0  0  0
  2  6  2  0  0  0  0
  3  8  2  0  0  0  0
  3 17  1  0  0  0  0
  4  9  1  0  0  0  0
  4 17  2  0  0  0  0
  5 19  1  0  0  0  0
  6 21  1  0  0  0  0
  7 10  2  0  0  0  0
  7 20  1  0  0  0  0
  8 23  1  0  0  0  0
  9 23  2  0  0  0  0
 10 24  1  0  0  0  0
 11 12  2  0  0  0  0
 11 25  1  0  0  0  0
 12 26  1  0  0  0  0
 13 22  1  0  0  0  0
 13 24  2  0  0  0  0
 14 26  2  0  0  0  0
 14 27  1  0  0  0  0
 15 29  2  0  0  0  0
 15 65  1  0  0  0  0
 16 63  2  0  0  0  0
 16 65  1  0  0  0  0
 17 28  1  0  0  0  0
 18 28  1  0  0  0  0
 18 30  2  0  0  0  0
 18 31  1  0  0  0  0
 19 21  2  0  0  0  0
 19 36  1  0  0  0  0
 20 22  2  0  0  0  0
 20 37  1  0  0  0  0
 21 45  1  0  0  0  0
 22 38  1  0  0  0  0
 23 79  1  0  0  0  0
 24 80  1  0  0  0  0
 25 27  2  0  0  0  0
 25 79  1  0  0  0  0
 26 81  1  0  0  0  0
 27 82  1  0  0  0  0
 28 64  2  0  0  0  0
 29 58  1  0  0  0  0
 29 63  1  0  0  0  0
 30 66  1  0  0  0  0
 30 69  1  0  0  0  0
 31 70  1  0  0  0  0
 31 74  2  0  0  0  0
 32 46  1  0  0  0  0
 32 71  1  0  0  0  0
 32 75  2  0  0  0  0
 33 56  1  0  0  0  0
 33 67  1  0  0  0  0
 33 76  2  0  0  0  0
 34 59  1  0  0  0  0
 34 68  1  0  0  0  0
 34 77  2  0  0  0  0
 35 57  1  0  0  0  0
 35 72  1  0  0  0  0
 35 78  2  0  0  0  0
 36 39  1  0  0  0  0
 37 46  1  0  0  0  0
 38 67  1  0  0  0  0
 39 41  1  0  0  0  0
 40 42  1  0  0  0  0
 40 43  1  0  0  0  0
 41 45  1  0  0  0  0
 42 47  1  0  0  0  0
 43 68  1  0  0  0  0
 44 47  1  0  0  0  0
 44 68  1  0  0  0  0
 45 71  1  0  0  0  0
 46 67  1  0  0  0  0
 47 66  1  0  0  0  0
 48 57  1  0  0  0  0
 49 58  1  0  0  0  0
 50 58  1  0  0  0  0
 51 60  1  0  0  0  0
 52 60  1  0  0  0  0
 53 60  1  0  0  0  0
 54 73  1  0  0  0  0
 55 58  1  0  0  0  0
 55 80  1  0  0  0  0
 56 60  1  0  0  0  0
 56 72  1  0  0  0  0
 57 73  1  0  0  0  0
 59 61  1  0  0  0  0
 59 62  1  0  0  0  0
 59 65  1  0  0  0  0
 61 83  1  0  0  0  0
 61 84  1  0  0  0  0
 61 85  1  0  0  0  0
 62 86  1  0  0  0  0
 62 87  1  0  0  0  0
 62 88  1  0  0  0  0
 64 66  1  0  0  0  0
M  CHG  1  73   1
M  ISO  4  34 100  55 101  59 100  80 101
M  END
> <Batch ID>
0063

> <Smiles>
CNC(C)C(=O)NC(C(=O)N1Cc2cc([101O:1][101CH2:1]C(C)(C)c3cn([100C:0]([100C:0](=O)N4CCCC(n5nc(-c6ccc(Oc7ccc(F)cc7F)cc6)c(C(N)=O)c5N)C4)(C(F)(F)F)C(F)(F)F)cn3)ccc2CC1C(=O)NC1CCCc2ccccc21)C(C)(C)C

> <Shape>
0.240

> <Color>
0.056

> <Negative vol penalty>
0.000

$$$$

  -OEChem-04052318023D

 93101  0     1  0  0  0  0  0999 V2000
  -39.9287  -19.8008   11.2219 C   0  0  0  0  0  0  0  0  0  0  0  0
  -39.7486  -19.2800   12.4993 C   0  0  0  0  0  0  0  0  0  0  0  0
  -23.0676   -9.8706   19.9510 C   0  0  0  0  0  0  0  0  0  0  0  0
  -23.8602   -9.8739   22.2333 C   0  0  0  0  0  0  0  0  0  0  0  0
  -39.9114  -21.1808   11.0241 C   0  0  0  0  0  0  0  0  0  0  0  0
  -39.5521  -20.1391   13.5800 C   0  0  0  0  0  0  0  0  0  0  0  0
  -36.0200  -19.1405   18.4823 C   0  0  0  0  0  0  0  0  0  0  0  0
  -22.3310   -8.7144   20.2085 C   0  0  0  0  0  0  0  0  0  0  0  0
  -23.1235   -8.7178   22.4908 C   0  0  0  0  0  0  0  0  0  0  0  0
  -36.3094  -18.6988   19.7726 C   0  0  0  0  0  0  0  0  0  0  0  0
  -21.1664   -5.9709   23.8483 C   0  0  0  0  0  0  0  0  0  0  0  0
  -20.4271   -5.9219   25.0301 C   0  0  0  0  0  0  0  0  0  0  0  0
  -36.3988  -20.9875   20.5296 C   0  0  0  0  0  0  0  0  0  0  0  0
  -19.1662   -7.8572   24.3216 C   0  0  0  0  0  0  0  0  0  0  0  0
  -23.8323  -10.4503   20.9634 C   0  0  0  0  0  0  0  0  0  0  0  0
  -24.1645  -12.9768   20.8453 C   0  0  0  0  0  0  0  0  0  0  0  0
  -39.7050  -22.0569   12.1014 C   0  0  0  0  0  0  0  0  0  0  0  0
  -35.9284  -20.5117   18.2032 C   0  0  0  0  0  0  0  0  0  0  0  0
  -39.5333  -21.5322   13.3966 C   0  0  0  0  0  0  0  0  0  0  0  0
  -36.1056  -21.4440   19.2354 C   0  0  0  0  0  0  0  0  0  0  0  0
  -22.3589   -8.1380   21.4784 C   0  0  0  0  0  0  0  0  0  0  0  0
  -36.5017  -19.6224   20.7959 C   0  0  0  0  0  0  0  0  0  0  0  0
  -20.9057   -6.9631   22.9032 C   0  0  0  0  0  0  0  0  0  0  0  0
  -19.4270   -6.8650   25.2667 C   0  0  0  0  0  0  0  0  0  0  0  0
  -19.9055   -7.9062   23.1398 C   0  0  0  0  0  0  0  0  0  0  0  0
  -24.5939  -11.6442   20.6979 C   0  0  0  0  0  0  0  0  0  0  0  0
  -25.2490  -13.7307   20.4684 C   0  0  0  0  0  0  0  0  0  0  0  0
  -34.1270  -16.2013   23.8365 C   0  0  0  0  0  0  0  0  0  0  0  0
  -32.2308  -16.3240   22.7884 C   0  0  0  0  0  0  0  0  0  0  0  0
  -22.8985  -13.4875   21.2837 C   0  0  0  0  0  0  0  0  0  0  0  0
  -37.5106  -22.5287   16.3238 C   0  0  0  0  0  0  0  0  0  0  0  0
  -30.7542  -14.6998   20.6776 C   0  0  0  0  0  0  0  0  0  0  0  0
  -35.2168  -24.6114   17.2846 C   0  0  0  0  0  0  0  0  0  0  0  0
  -32.8974  -25.4874   19.6298 C   0  0  0  0  0  0  0  0  0  0  0  0
  -39.7415  -23.5429   11.8458 C   0  0  0  0  0  0  0  0  0  0  0  0
  -35.5892  -20.9712   16.8117 C   0  0  0  0  0  0  0  0  0  0  0  0
  -35.9981  -22.9264   18.9922 C   0  0  0  0  0  0  0  0  0  0  0  0
  -39.1537  -24.3715   12.9852 C   0  0  0  0  0  0  0  0  0  0  0  0
  -29.5609  -12.4061   18.1966 C   0  0  0  0  0  0  0  0  0  0  0  0
  -39.6907  -23.8885   14.3287 C   0  0  0  0  0  0  0  0  0  0  0  0
  -28.1379  -12.0897   18.6550 C   0  0  0  0  0  0  0  0  0  0  0  0
  -30.4979  -12.6085   19.3833 C   0  0  0  0  0  0  0  0  0  0  0  0
  -28.6125  -13.3336   20.8120 C   0  0  0  0  0  0  0  0  0  0  0  0
  -39.2927  -22.4309   14.5902 C   0  0  1  0  0  0  0  0  0  0  0  0
  -36.0277  -22.4055   16.5325 C   0  0  1  0  0  0  0  0  0  0  0  0
  -27.6268  -13.1521   19.6442 C   0  0  2  0  0  0  0  0  0  0  0  0
  -32.9323  -19.0844   24.7358 C   0  0  0  0  0  0  0  0  0  0  0  0
  -31.2029  -27.2614   20.1579 C   0  0  0  0  0  0  0  0  0  0  0  0
  -35.2593  -16.8142   26.0798 C   0  0  0  0  0  0  0  0  0  0  0  0
  -36.4829  -15.5257   24.3514 C   0  0  0  0  0  0  0  0  0  0  0  0
  -37.4604  -26.5011   18.1242 C   0  0  0  0  0  0  0  0  0  0  0  0
  -35.7837  -27.7806   19.4731 C   0  0  0  0  0  0  0  0  0  0  0  0
  -35.5253  -27.6148   16.9975 C   0  0  0  0  0  0  0  0  0  0  0  0
  -28.4412  -17.9992   25.0735 C   0  0  0  0  0  0  0  0  0  0  0  0
  -30.0309  -16.0846   24.9540 C   0  0  0  0  0  0  0  0  0  0  0  0
  -30.6710  -23.5381   19.5835 C   0  0  0  0  0  0  0  0  0  0  0  0
  -30.1366  -15.6894   21.6333 C   0  0  0  0  0  0  0  0  0  0  0  0
  -35.9813  -17.9577   23.9484 C   0  0  0  0  0  0  0  0  0  0  0  0
  -30.1120  -17.7757   23.1005 C   0  0  0  0  0  0  0  0  0  0  0  0
  -33.2938  -18.5252   23.3705 C   0  0  0  0  0  0  0  0  0  0  0  0
  -36.2560  -17.9271   22.4456 C   0  0  0  0  0  0  0  0  0  1  0  0
  -35.0669  -25.5829   18.4304 C   0  0  1  0  0  0  0  0  0  0  0  0
  -31.4455  -25.9113   19.5013 C   0  0  2  0  0  0  0  0  0  0  0  0
  -35.4198  -16.6347   24.5511 C   0  0  0  0  0  0  0  0  0  0  0  0
  -31.0427  -16.8964   22.1308 C   0  0  1  0  0  0  0  0  0  0  0  0
  -35.9631  -26.8421   18.2608 C   0  0  0  0  0  0  0  0  0  0  0  0
  -29.1979  -17.0728   24.1311 C   0  0  0  0  0  0  0  0  0  0  0  0
  -31.3189  -17.7826   20.8508 C   0  0  0  0  0  0  0  0  0  0  0  0
  -25.8529  -11.5535   20.2613 N   0  0  0  0  0  0  0  0  0  0  0  0
  -33.7188  -14.9724   23.6139 N   0  0  0  0  0  0  0  0  0  0  0  0
  -32.5124  -15.0505   22.9471 N   0  0  0  0  0  0  0  0  0  0  0  0
  -26.2240  -12.8386   20.1310 N   0  0  0  0  0  0  0  0  0  0  0  0
  -33.2205  -17.0844   23.3335 N   0  0  0  0  0  0  0  0  0  0  0  0
  -35.6707  -23.3263   17.6136 N   0  0  0  0  0  0  0  0  0  0  0  0
  -29.9661  -13.6087   20.3107 N   0  0  0  0  0  0  0  0  0  0  0  0
  -25.4542  -15.0630   20.3960 N   0  0  0  0  0  0  0  0  0  0  0  0
  -21.8944  -12.5743   21.6329 N   0  0  0  0  0  0  0  0  0  0  0  0
  -37.9109  -22.3523   15.0130 N   0  0  0  0  0  0  0  0  0  0  0  0
  -33.6411  -25.8739   18.5349 N   0  0  0  0  0  0  0  0  0  0  0  0
  -30.5536  -24.9074   20.1476 N   0  3  0  0  0  0  0  0  0  0  0  0
  -22.6593  -14.7172   21.3477 O   0  0  0  0  0  0  0  0  0  0  0  0
  -38.2377  -22.7678   17.2809 O   0  0  0  0  0  0  0  0  0  0  0  0
  -31.9017  -14.8940   20.2681 O   0  0  0  0  0  0  0  0  0  0  0  0
  -34.9345  -24.9771   16.1409 O   0  0  0  0  0  0  0  0  0  0  0  0
  -33.3295  -24.8779   20.6057 O   0  0  0  0  0  0  0  0  0  0  0  0
  -21.6400   -7.0100   21.7300 O   0  0  0  0  0  0  0  0  0  0  0  0
  -36.7849  -19.1939   22.0560 O   0  0  0  0  0  0  0  0  0  1  0  0
  -18.7160   -6.8168   26.4009 F   0  0  0  0  0  0  0  0  0  0  0  0
  -19.6497   -8.8611   22.2350 F   0  0  0  0  0  0  0  0  0  0  0  0
  -28.2771  -16.3243   23.4547 F   0  0  0  0  0  0  0  0  0  0  0  0
  -31.9457  -17.0571   19.8954 F   0  0  0  0  0  0  0  0  0  0  0  0
  -32.1186  -18.8297   21.1504 F   0  0  0  0  0  0  0  0  0  0  0  0
  -30.2024  -18.2964   20.2826 F   0  0  0  0  0  0  0  0  0  0  0  0
  1  2  1  0  0  0  0
  1  5  2  0  0  0  0
  2  6  2  0  0  0  0
  3  8  2  0  0  0  0
  3 15  1  0  0  0  0
  4  9  1  0  0  0  0
  4 15  2  0  0  0  0
  5 17  1  0  0  0  0
  6 19  1  0  0  0  0
  7 10  2  0  0  0  0
  7 18  1  0  0  0  0
  8 21  1  0  0  0  0
  9 21  2  0  0  0  0
 10 22  1  0  0  0  0
 11 12  2  0  0  0  0
 11 23  1  0  0  0  0
 12 24  1  0  0  0  0
 13 20  1  0  0  0  0
 13 22  2  0  0  0  0
 14 24  2  0  0  0  0
 14 25  1  0  0  0  0
 15 26  1  0  0  0  0
 16 26  1  0  0  0  0
 16 27  2  0  0  0  0
 16 30  1  0  0  0  0
 17 19  2  0  0  0  0
 17 35  1  0  0  0  0
 18 20  2  0  0  0  0
 18 36  1  0  0  0  0
 19 44  1  0  0  0  0
 20 37  1  0  0  0  0
 21 86  1  0  0  0  0
 22 87  1  0  0  0  0
 23 25  2  0  0  0  0
 23 86  1  0  0  0  0
 24 88  1  0  0  0  0
 25 89  1  0  0  0  0
 26 69  2  0  0  0  0
 27 72  1  0  0  0  0
 27 76  1  0  0  0  0
 28 64  1  0  0  0  0
 28 70  2  0  0  0  0
 28 73  1  0  0  0  0
 29 65  1  0  0  0  0
 29 71  2  0  0  0  0
 29 73  1  0  0  0  0
 30 77  1  0  0  0  0
 30 81  2  0  0  0  0
 31 45  1  0  0  0  0
 31 78  1  0  0  0  0
 31 82  2  0  0  0  0
 32 57  1  0  0  0  0
 32 75  1  0  0  0  0
 32 83  2  0  0  0  0
 33 62  1  0  0  0  0
 33 74  1  0  0  0  0
 33 84  2  0  0  0  0
 34 63  1  0  0  0  0
 34 79  1  0  0  0  0
 34 85  2  0  0  0  0
 35 38  1  0  0  0  0
 36 45  1  0  0  0  0
 37 74  1  0  0  0  0
 38 40  1  0  0  0  0
 39 41  1  0  0  0  0
 39 42  1  0  0  0  0
 40 44  1  0  0  0  0
 41 46  1  0  0  0  0
 42 75  1  0  0  0  0
 43 46  1  0  0  0  0
 43 75  1  0  0  0  0
 44 78  1  0  0  0  0
 45 74  1  0  0  0  0
 46 72  1  0  0  0  0
 47 60  1  0  0  0  0
 48 63  1  0  0  0  0
 49 64  1  0  0  0  0
 50 64  1  0  0  0  0
 51 66  1  0  0  0  0
 52 66  1  0  0  0  0
 53 66  1  0  0  0  0
 54 67  1  0  0  0  0
 55 67  1  0  0  0  0
 56 80  1  0  0  0  0
 57 65  1  0  0  0  0
 58 61  1  0  0  0  0
 58 64  1  0  0  0  0
 59 65  1  0  0  0  0
 59 67  1  0  0  0  0
 60 73  1  0  0  0  0
 61 87  1  0  0  0  0
 62 66  1  0  0  0  0
 62 79  1  0  0  0  0
 63 80  1  0  0  0  0
 65 68  1  0  0  0  0
 67 90  1  0  0  0  0
 68 91  1  0  0  0  0
 68 92  1  0  0  0  0
 68 93  1  0  0  0  0
 69 72  1  0  0  0  0
 70 71  1  0  0  0  0
M  CHG  1  80   1
M  ISO  4  32 100  57 100  61 101  87 101
M  END
> <Batch ID>
0063

> <Smiles>
CCn1c(C(C)(C)C[101CH2:1][101O:1]c2ccc3c(c2)CN(C(=O)C(NC(=O)C(C)NC)C(C)(C)C)C(C(=O)NC2CCCc4ccccc42)C3)nnc1C(CC(C)(C)F)([100CH2:0][100C:0](=O)N1CCCC(n2nc(-c3ccc(Oc4ccc(F)cc4F)cc3)c(C(N)=O)c2N)C1)C(F)(F)F

> <Shape>
0.192

> <Color>
0.185

> <Negative vol penalty>
0.000

$$$$

  -OEChem-04052318023D

 88 96  0     1  0  0  0  0  0999 V2000
  -22.4188  -10.2630   22.2331 C   0  0  0  0  0  0  0  0  0  0  0  0
  -22.6416  -11.3841   23.0262 C   0  0  0  0  0  0  0  0  0  0  0  0
  -22.9984  -26.6420   20.4853 C   0  0  0  0  0  0  0  0  0  0  0  0
  -23.5252  -24.8796   22.0516 C   0  0  0  0  0  0  0  0  0  0  0  0
  -23.1808  -10.0615   21.0830 C   0  0  0  0  0  0  0  0  0  0  0  0
  -23.6274  -12.3038   22.6702 C   0  0  0  0  0  0  0  0  0  0  0  0
  -26.4915  -19.6620   21.6550 C   0  0  0  0  0  0  0  0  0  0  0  0
  -21.6741  -26.6353   20.9231 C   0  0  0  0  0  0  0  0  0  0  0  0
  -22.2009  -24.8729   22.4895 C   0  0  0  0  0  0  0  0  0  0  0  0
  -27.6890  -20.3319   21.4083 C   0  0  0  0  0  0  0  0  0  0  0  0
  -19.9132  -27.8301   23.5507 C   0  0  0  0  0  0  0  0  0  0  0  0
  -19.3052  -29.0613   23.7958 C   0  0  0  0  0  0  0  0  0  0  0  0
  -27.9048  -19.1611   19.3102 C   0  0  0  0  0  0  0  0  0  0  0  0
  -17.6286  -28.5653   22.1285 C   0  0  0  0  0  0  0  0  0  0  0  0
  -34.5137  -22.8230   21.3991 C   0  0  0  0  0  0  0  0  0  0  0  0
  -23.9240  -25.7641   21.0495 C   0  0  0  0  0  0  0  0  0  0  0  0
  -26.1969  -26.8478   20.6404 C   0  0  0  0  0  0  0  0  0  0  0  0
  -24.1699  -10.9842   20.7076 C   0  0  0  0  0  0  0  0  0  0  0  0
  -25.9963  -18.7270   20.7346 C   0  0  0  0  0  0  0  0  0  0  0  0
  -24.4043  -12.1138   21.5148 C   0  0  0  0  0  0  0  0  0  0  0  0
  -26.6994  -18.4826   19.5463 C   0  0  0  0  0  0  0  0  0  0  0  0
  -21.2753  -25.7508   21.9252 C   0  0  0  0  0  0  0  0  0  0  0  0
  -28.3974  -20.0794   20.2371 C   0  0  0  0  0  0  0  0  0  0  0  0
  -19.3789  -26.9665   22.5945 C   0  0  0  0  0  0  0  0  0  0  0  0
  -18.1629  -29.4289   23.0848 C   0  0  0  0  0  0  0  0  0  0  0  0
  -18.2366  -27.3341   21.8834 C   0  0  0  0  0  0  0  0  0  0  0  0
  -25.2920  -25.7702   20.5973 C   0  0  0  0  0  0  0  0  0  0  0  0
  -34.5043  -22.9782   22.7983 C   0  0  0  0  0  0  0  0  0  0  0  0
  -33.6647  -21.7690   21.1649 C   0  0  0  0  0  0  0  0  0  0  0  0
  -27.3541  -26.3464   20.0965 C   0  0  0  0  0  0  0  0  0  0  0  0
  -26.0082  -28.1826   21.1285 C   0  0  0  0  0  0  0  0  0  0  0  0
  -25.3697  -15.6118   20.8188 C   0  0  0  0  0  0  0  0  0  0  0  0
  -24.1601  -16.1715   17.8614 C   0  0  0  0  0  0  0  0  0  0  0  0
  -22.7186  -18.5499   15.8836 C   0  0  0  0  0  0  0  0  0  0  0  0
  -31.1324  -22.4019   19.7600 C   0  0  0  0  0  0  0  0  0  0  0  0
  -25.0005  -10.6993   19.4813 C   0  0  0  0  0  0  0  0  0  0  0  0
  -24.6894  -18.0324   21.0030 C   0  0  0  0  0  0  0  0  0  0  0  0
  -26.2003  -17.5031   18.5167 C   0  0  0  0  0  0  0  0  0  0  0  0
  -25.7707  -11.9147   18.9715 C   0  0  0  0  0  0  0  0  0  0  0  0
  -28.2301  -22.0158   17.6328 C   0  0  0  0  0  0  0  0  0  0  0  0
  -26.4664  -12.6286   20.1261 C   0  0  0  0  0  0  0  0  0  0  0  0
  -27.2780  -23.0561   18.2255 C   0  0  0  0  0  0  0  0  0  0  0  0
  -29.0439  -21.3262   18.7238 C   0  0  0  0  0  0  0  0  0  0  0  0
  -28.8619  -23.2959   20.1937 C   0  0  0  0  0  0  0  0  0  0  0  0
  -25.4477  -13.1469   21.1484 C   0  0  1  0  0  0  0  0  0  0  0  0
  -24.5409  -16.7217   20.2366 C   0  0  1  0  0  0  0  0  0  0  0  0
  -28.0265  -24.0445   19.1393 C   0  0  2  0  0  0  0  0  0  0  0  0
  -21.0410  -18.8247   14.0376 C   0  0  0  0  0  0  0  0  0  0  0  0
  -34.8651  -25.4372   23.2091 C   0  0  0  0  0  0  0  0  0  0  0  0
  -36.7965  -23.8341   23.3983 C   0  0  0  0  0  0  0  0  0  0  0  0
  -35.0369  -23.8973   25.1535 C   0  0  0  0  0  0  0  0  0  0  0  0
  -33.5870  -19.5962   19.7714 C   0  0  0  0  0  0  0  0  0  0  0  0
  -33.9147  -21.8086   18.6737 C   0  0  0  0  0  0  0  0  0  0  0  0
  -26.1844  -15.0710   15.8611 C   0  0  0  0  0  0  0  0  0  0  0  0
  -24.9042  -16.2176   14.0405 C   0  0  0  0  0  0  0  0  0  0  0  0
  -23.8102  -14.4347   15.3997 C   0  0  0  0  0  0  0  0  0  0  0  0
  -31.3752  -20.4495   23.9559 C   0  0  0  0  0  0  0  0  0  0  0  0
  -33.0562  -18.9352   22.9432 C   0  0  0  0  0  0  0  0  0  0  0  0
  -21.0046  -20.2998   17.5446 C   0  0  0  0  0  0  0  0  0  0  0  0
  -31.2864  -19.9634   21.4804 C   0  0  0  0  0  0  0  0  0  0  0  0
  -30.3447  -21.1141   21.1276 C   0  0  0  0  0  0  0  0  0  1  0  0
  -24.2615  -16.6909   16.4476 C   0  0  1  0  0  0  0  0  0  0  0  0
  -21.2665  -18.8308   15.5416 C   0  0  2  0  0  0  0  0  0  0  0  0
  -35.2477  -23.9677   23.5963 C   0  0  0  0  0  0  0  0  0  0  0  0
  -33.2514  -21.1193   19.9076 C   0  0  0  0  0  0  0  0  0  0  0  0
  -24.8003  -15.6184   15.4593 C   0  0  0  0  0  0  0  0  0  0  0  0
  -32.2351  -20.2241   22.6890 C   0  0  0  0  0  0  0  0  0  0  0  0
  -25.8283  -24.6675   20.0677 N   0  0  0  0  0  0  0  0  0  0  0  0
  -33.7121  -22.0937   23.4099 N   0  0  0  0  0  0  0  0  0  0  0  0
  -33.2157  -21.3726   22.3902 N   0  0  0  0  0  0  0  0  0  0  0  0
  -27.0826  -25.0495   19.7730 N   0  0  0  0  0  0  0  0  0  0  0  0
  -24.9209  -16.8446   18.8278 N   0  0  0  0  0  0  0  0  0  0  0  0
  -29.7463  -22.3215   19.5460 N   0  0  0  0  0  0  0  0  0  0  0  0
  -28.5673  -26.8927   19.8682 N   0  0  0  0  0  0  0  0  0  0  0  0
  -24.7568  -28.5309   21.6549 N   0  0  0  0  0  0  0  0  0  0  0  0
  -24.8157  -14.3554   20.6641 N   0  0  0  0  0  0  0  0  0  0  0  0
  -22.9403  -17.2075   16.1068 N   0  0  0  0  0  0  0  0  0  0  0  0
  -31.8206  -21.1958   19.7125 N   0  0  0  0  0  0  0  0  0  0  0  0
  -20.8573  -20.1617   16.0728 N   0  3  0  0  0  0  0  0  0  0  0  0
  -26.9172  -29.0459   21.0837 O   0  0  0  0  0  0  0  0  0  0  0  0
  -26.4338  -15.8757   21.3663 O   0  0  0  0  0  0  0  0  0  0  0  0
  -23.4272  -15.2085   18.1007 O   0  0  0  0  0  0  0  0  0  0  0  0
  -23.5717  -19.4327   15.9429 O   0  0  0  0  0  0  0  0  0  0  0  0
  -31.7149  -23.4709   19.9725 O   0  0  0  0  0  0  0  0  0  0  0  0
  -19.9832  -25.7441   22.3528 O   0  0  0  0  0  0  0  0  0  0  0  0
  -29.5668  -20.7314   19.9941 O   0  0  0  0  0  0  0  0  0  1  0  0
  -17.5783  -30.6106   23.3213 F   0  0  0  0  0  0  0  0  0  0  0  0
  -17.7180  -26.5081   20.9643 F   0  0  0  0  0  0  0  0  0  0  0  0
  1  2  1  0  0  0  0
  1  5  2  0  0  0  0
  2  6  2  0  0  0  0
  3  8  2  0  0  0  0
  3 16  1  0  0  0  0
  4  9  1  0  0  0  0
  4 16  2  0  0  0  0
  5 18  1  0  0  0  0
  6 20  1  0  0  0  0
  7 10  2  0  0  0  0
  7 19  1  0  0  0  0
  8 22  1  0  0  0  0
  9 22  2  0  0  0  0
 10 23  1  0  0  0  0
 11 12  2  0  0  0  0
 11 24  1  0  0  0  0
 12 25  1  0  0  0  0
 13 21  1  0  0  0  0
 13 23  2  0  0  0  0
 14 25  2  0  0  0  0
 14 26  1  0  0  0  0
 15 28  1  0  0  0  0
 15 29  2  0  0  0  0
 16 27  1  0  0  0  0
 17 27  1  0  0  0  0
 17 30  2  0  0  0  0
 17 31  1  0  0  0  0
 18 20  2  0  0  0  0
 18 36  1  0  0  0  0
 19 21  2  0  0  0  0
 19 37  1  0  0  0  0
 20 45  1  0  0  0  0
 21 38  1  0  0  0  0
 22 85  1  0  0  0  0
 23 86  1  0  0  0  0
 24 26  2  0  0  0  0
 24 85  1  0  0  0  0
 25 87  1  0  0  0  0
 26 88  1  0  0  0  0
 27 68  2  0  0  0  0
 28 64  1  0  0  0  0
 28 69  2  0  0  0  0
 29 65  1  0  0  0  0
 29 70  1  0  0  0  0
 30 71  1  0  0  0  0
 30 74  1  0  0  0  0
 31 75  1  0  0  0  0
 31 80  2  0  0  0  0
 32 46  1  0  0  0  0
 32 76  1  0  0  0  0
 32 81  2  0  0  0  0
 33 62  1  0  0  0  0
 33 72  1  0  0  0  0
 33 82  2  0  0  0  0
 34 63  1  0  0  0  0
 34 77  1  0  0  0  0
 34 83  2  0  0  0  0
 35 73  1  0  0  0  0
 35 78  1  0  0  0  0
 35 84  2  0  0  0  0
 36 39  1  0  0  0  0
 37 46  1  0  0  0  0
 38 72  1  0  0  0  0
 39 41  1  0  0  0  0
 40 42  1  0  0  0  0
 40 43  1  0  0  0  0
 41 45  1  0  0  0  0
 42 47  1  0  0  0  0
 43 73  1  0  0  0  0
 44 47  1  0  0  0  0
 44 73  1  0  0  0  0
 45 76  1  0  0  0  0
 46 72  1  0  0  0  0
 47 71  1  0  0  0  0
 48 63  1  0  0  0  0
 49 64  1  0  0  0  0
 50 64  1  0  0  0  0
 51 64  1  0  0  0  0
 52 65  1  0  0  0  0
 53 65  1  0  0  0  0
 54 66  1  0  0  0  0
 55 66  1  0  0  0  0
 56 66  1  0  0  0  0
 57 67  1  0  0  0  0
 58 67  1  0  0  0  0
 59 79  1  0  0  0  0
 60 61  1  0  0  0  0
 60 67  1  0  0  0  0
 61 86  1  0  0  0  0
 62 66  1  0  0  0  0
 62 77  1  0  0  0  0
 63 79  1  0  0  0  0
 65 78  1  0  0  0  0
 67 70  1  0  0  0  0
 68 71  1  0  0  0  0
 69 70  1  0  0  0  0
M  CHG  1  79   1
M  ISO  4  35 100  61 101  78 100  86 101
M  END
> <Batch ID>
0063

> <Smiles>
CNC(C)C(=O)NC(C(=O)N1Cc2cc([101O:1][101CH2:1]CC(C)(C)n3nc(C(C)(C)C)cc3C(C)(C)[100NH:0][100C:0](=O)N3CCCC(n4nc(-c5ccc(Oc6ccc(F)cc6F)cc5)c(C(N)=O)c4N)C3)ccc2CC1C(=O)NC1CCCc2ccccc21)C(C)(C)C

> <Shape>
0.191

> <Color>
0.061

> <Negative vol penalty>
0.000

$$$$

  -OEChem-04052318023D

 84 92  0     1  0  0  0  0  0999 V2000
  -28.3867  -10.6044   16.7517 C   0  0  0  0  0  0  0  0  0  0  0  0
  -27.4497  -11.5685   16.3941 C   0  0  0  0  0  0  0  0  0  0  0  0
  -25.4508  -28.3598   20.0889 C   0  0  0  0  0  0  0  0  0  0  0  0
  -25.1340  -26.0870   19.3331 C   0  0  0  0  0  0  0  0  0  0  0  0
  -29.1297  -10.7561   17.9217 C   0  0  0  0  0  0  0  0  0  0  0  0
  -27.2543  -12.6845   17.2070 C   0  0  0  0  0  0  0  0  0  0  0  0
  -25.8796  -18.3685   15.3883 C   0  0  0  0  0  0  0  0  0  0  0  0
  -26.8281  -28.1481   20.1485 C   0  0  0  0  0  0  0  0  0  0  0  0
  -26.5115  -25.8753   19.3926 C   0  0  0  0  0  0  0  0  0  0  0  0
  -24.6742  -19.0657   15.3198 C   0  0  0  0  0  0  0  0  0  0  0  0
  -30.4595  -28.3167   20.1537 C   0  0  0  0  0  0  0  0  0  0  0  0
  -31.2909  -29.3052   19.6274 C   0  0  0  0  0  0  0  0  0  0  0  0
  -25.1341  -20.0598   17.4691 C   0  0  0  0  0  0  0  0  0  0  0  0
  -30.2590  -29.0201   17.4615 C   0  0  0  0  0  0  0  0  0  0  0  0
  -24.6037  -27.3293   19.6813 C   0  0  0  0  0  0  0  0  0  0  0  0
  -22.4391  -28.0164   18.5194 C   0  0  0  0  0  0  0  0  0  0  0  0
  -28.9501  -11.8793   18.7444 C   0  0  0  0  0  0  0  0  0  0  0  0
  -26.7176  -18.5036   16.5045 C   0  0  0  0  0  0  0  0  0  0  0  0
  -27.9946  -12.8507   18.3898 C   0  0  0  0  0  0  0  0  0  0  0  0
  -26.3508  -19.3652   17.5482 C   0  0  0  0  0  0  0  0  0  0  0  0
  -27.3585  -26.9059   19.8003 C   0  0  0  0  0  0  0  0  0  0  0  0
  -24.2999  -19.9093   16.3616 C   0  0  0  0  0  0  0  0  0  0  0  0
  -29.5278  -27.6797   19.3339 C   0  0  0  0  0  0  0  0  0  0  0  0
  -31.1907  -29.6570   18.2814 C   0  0  0  0  0  0  0  0  0  0  0  0
  -29.4276  -28.0315   17.9879 C   0  0  0  0  0  0  0  0  0  0  0  0
  -23.1807  -27.5472   19.6201 C   0  0  0  0  0  0  0  0  0  0  0  0
  -21.1412  -28.0472   18.9678 C   0  0  0  0  0  0  0  0  0  0  0  0
  -19.5799  -19.6019   22.8852 C   0  0  0  0  0  0  0  0  0  0  0  0
  -18.6452  -21.5353   22.2335 C   0  0  0  0  0  0  0  0  0  0  0  0
  -19.9201  -20.3670   20.8029 C   0  0  0  0  0  0  0  0  0  0  0  0
  -22.8836  -28.3908   17.2087 C   0  0  0  0  0  0  0  0  0  0  0  0
  -27.8176  -16.5252   18.7361 C   0  0  0  0  0  0  0  0  0  0  0  0
  -29.5520  -19.1178   19.6265 C   0  0  0  0  0  0  0  0  0  0  0  0
  -29.8828  -22.5144   19.6470 C   0  0  0  0  0  0  0  0  0  0  0  0
  -18.2406  -25.0550   23.2671 C   0  0  0  0  0  0  0  0  0  0  0  0
  -29.7428  -11.9763   20.0238 C   0  0  0  0  0  0  0  0  0  0  0  0
  -28.0272  -17.7652   16.5510 C   0  0  0  0  0  0  0  0  0  0  0  0
  -27.2245  -19.5607   18.7593 C   0  0  0  0  0  0  0  0  0  0  0  0
  -29.7419  -13.3744   20.6365 C   0  0  0  0  0  0  0  0  0  0  0  0
  -18.5738  -28.5872   22.9687 C   0  0  0  0  0  0  0  0  0  0  0  0
  -28.3287  -13.9484   20.6546 C   0  0  0  0  0  0  0  0  0  0  0  0
  -19.7254  -28.7635   21.9774 C   0  0  0  0  0  0  0  0  0  0  0  0
  -18.7981  -27.3877   23.8868 C   0  0  0  0  0  0  0  0  0  0  0  0
  -20.2210  -26.2929   22.1984 C   0  0  0  0  0  0  0  0  0  0  0  0
  -27.7715  -14.0876   19.2328 C   0  0  1  0  0  0  0  0  0  0  0  0
  -28.5601  -17.5824   17.9687 C   0  0  1  0  0  0  0  0  0  0  0  0
  -20.0133  -27.4567   21.2142 C   0  0  2  0  0  0  0  0  0  0  0  0
  -19.8067  -18.5660   23.9333 C   0  0  0  0  0  0  0  0  0  0  0  0
  -16.5694  -22.8293   21.6185 C   0  0  0  0  0  0  0  0  0  0  0  0
  -31.3841  -24.3423   20.4849 C   0  0  0  0  0  0  0  0  0  0  0  0
  -28.4317  -18.7449   22.4400 C   0  0  0  0  0  0  0  0  0  0  0  0
  -29.1770  -21.0755   22.9704 C   0  0  0  0  0  0  0  0  0  0  0  0
  -30.8593  -19.3397   22.3542 C   0  0  0  0  0  0  0  0  0  0  0  0
  -30.4558  -23.4607   16.9020 C   0  0  0  0  0  0  0  0  0  0  0  0
  -20.9707  -20.9604   17.3223 C   0  0  0  0  0  0  0  0  0  0  0  0
  -22.4745  -20.8833   17.5343 C   0  0  0  0  0  0  0  0  0  1  0  0
  -20.2279  -21.2514   18.6169 C   0  0  0  0  0  0  0  0  0  0  0  0
  -17.7992  -22.7258   22.5326 C   0  0  2  0  0  0  0  0  0  0  0  0
  -29.3346  -20.2773   20.5685 C   0  0  1  0  0  0  0  0  0  0  0  0
  -31.0627  -23.4135   19.3244 C   0  0  2  0  0  0  0  0  0  0  0  0
  -29.4330  -19.8544   22.0615 C   0  0  0  0  0  0  0  0  0  0  0  0
  -22.4175  -27.2980   20.6876 N   0  0  0  0  0  0  0  0  0  0  0  0
  -18.8061  -20.6452   23.2258 N   0  0  0  0  0  0  0  0  0  0  0  0
  -20.1692  -19.3959   21.6963 N   0  0  0  0  0  0  0  0  0  0  0  0
  -19.1700  -21.4631   20.9996 N   0  0  0  0  0  0  0  0  0  0  0  0
  -21.1828  -27.6119   20.2597 N   0  0  0  0  0  0  0  0  0  0  0  0
  -28.4921  -18.8120   18.7610 N   0  0  0  0  0  0  0  0  0  0  0  0
  -19.0643  -26.1805   23.1008 N   0  0  0  0  0  0  0  0  0  0  0  0
  -19.9799  -28.4040   18.3791 N   0  0  0  0  0  0  0  0  0  0  0  0
  -24.2510  -28.2986   16.9152 N   0  0  0  0  0  0  0  0  0  0  0  0
  -28.3324  -15.2521   18.5819 N   0  0  0  0  0  0  0  0  0  0  0  0
  -30.2898  -21.3074   20.1751 N   0  0  0  0  0  0  0  0  0  0  0  0
  -18.5581  -23.9554   22.4791 N   0  0  0  0  0  0  0  0  0  0  0  0
  -30.7667  -24.2458   18.1242 N   0  3  0  0  0  0  0  0  0  0  0  0
  -22.0939  -28.8107   16.3291 O   0  0  0  0  0  0  0  0  0  0  0  0
  -26.8502  -16.8413   19.4187 O   0  0  0  0  0  0  0  0  0  0  0  0
  -30.6253  -18.5104   19.6526 O   0  0  0  0  0  0  0  0  0  0  0  0
  -28.7166  -22.8507   19.4536 O   0  0  0  0  0  0  0  0  0  0  0  0
  -17.2891  -25.0335   24.0552 O   0  0  0  0  0  0  0  0  0  0  0  0
  -28.7025  -26.6990   19.8581 O   0  0  0  0  0  0  0  0  0  0  0  0
  -23.1236  -20.5904   16.2976 O   0  0  0  0  0  0  0  0  0  1  0  0
  -20.4898  -20.2250   19.5644 O   0  0  0  0  0  0  0  0  0  0  0  0
  -31.9881  -30.6074   17.7765 F   0  0  0  0  0  0  0  0  0  0  0  0
  -28.5336  -27.4239   17.1957 F   0  0  0  0  0  0  0  0  0  0  0  0
  1  2  1  0  0  0  0
  1  5  2  0  0  0  0
  2  6  2  0  0  0  0
  3  8  2  0  0  0  0
  3 15  1  0  0  0  0
  4  9  1  0  0  0  0
  4 15  2  0  0  0  0
  5 17  1  0  0  0  0
  6 19  1  0  0  0  0
  7 10  2  0  0  0  0
  7 18  1  0  0  0  0
  8 21  1  0  0  0  0
  9 21  2  0  0  0  0
 10 22  1  0  0  0  0
 11 12  2  0  0  0  0
 11 23  1  0  0  0  0
 12 24  1  0  0  0  0
 13 20  1  0  0  0  0
 13 22  2  0  0  0  0
 14 24  2  0  0  0  0
 14 25  1  0  0  0  0
 15 26  1  0  0  0  0
 16 26  1  0  0  0  0
 16 27  2  0  0  0  0
 16 31  1  0  0  0  0
 17 19  2  0  0  0  0
 17 36  1  0  0  0  0
 18 20  2  0  0  0  0
 18 37  1  0  0  0  0
 19 45  1  0  0  0  0
 20 38  1  0  0  0  0
 21 80  1  0  0  0  0
 22 81  1  0  0  0  0
 23 25  2  0  0  0  0
 23 80  1  0  0  0  0
 24 83  1  0  0  0  0
 25 84  1  0  0  0  0
 26 62  2  0  0  0  0
 27 66  1  0  0  0  0
 27 69  1  0  0  0  0
 28 48  1  0  0  0  0
 28 63  1  0  0  0  0
 28 64  2  0  0  0  0
 29 58  1  0  0  0  0
 29 63  2  0  0  0  0
 29 65  1  0  0  0  0
 30 64  1  0  0  0  0
 30 65  2  0  0  0  0
 30 82  1  0  0  0  0
 31 70  1  0  0  0  0
 31 75  2  0  0  0  0
 32 46  1  0  0  0  0
 32 71  1  0  0  0  0
 32 76  2  0  0  0  0
 33 59  1  0  0  0  0
 33 67  1  0  0  0  0
 33 77  2  0  0  0  0
 34 60  1  0  0  0  0
 34 72  1  0  0  0  0
 34 78  2  0  0  0  0
 35 68  1  0  0  0  0
 35 73  1  0  0  0  0
 35 79  2  0  0  0  0
 36 39  1  0  0  0  0
 37 46  1  0  0  0  0
 38 67  1  0  0  0  0
 39 41  1  0  0  0  0
 40 42  1  0  0  0  0
 40 43  1  0  0  0  0
 41 45  1  0  0  0  0
 42 47  1  0  0  0  0
 43 68  1  0  0  0  0
 44 47  1  0  0  0  0
 44 68  1  0  0  0  0
 45 71  1  0  0  0  0
 46 67  1  0  0  0  0
 47 66  1  0  0  0  0
 49 58  1  0  0  0  0
 50 60  1  0  0  0  0
 51 61  1  0  0  0  0
 52 61  1  0  0  0  0
 53 61  1  0  0  0  0
 54 74  1  0  0  0  0
 55 56  1  0  0  0  0
 55 57  1  0  0  0  0
 56 81  1  0  0  0  0
 57 82  1  0  0  0  0
 58 73  1  0  0  0  0
 59 61  1  0  0  0  0
 59 72  1  0  0  0  0
 60 74  1  0  0  0  0
 62 66  1  0  0  0  0
M  CHG  1  74   1
M  ISO  4  35 100  56 101  73 100  81 101
M  END
> <Batch ID>
0063

> <Smiles>
CNC(C)C(=O)NC(C(=O)N1Cc2cc([101O:1][101CH2:1]CCOc3nc(C)nc(C(C)[100NH:0][100C:0](=O)N4CCCC(n5nc(-c6ccc(Oc7ccc(F)cc7F)cc6)c(C(N)=O)c5N)C4)n3)ccc2CC1C(=O)NC1CCCc2ccccc21)C(C)(C)C

> <Shape>
0.204

> <Color>
0.075

> <Negative vol penalty>
0.000

$$$$

  -OEChem-04052318023D

 89 98  0     1  0  0  0  0  0999 V2000
  -27.5518  -30.0261   18.6931 C   0  0  0  0  0  0  0  0  0  0  0  0
  -27.4681  -28.6595   18.9401 C   0  0  0  0  0  0  0  0  0  0  0  0
  -26.7770  -17.7735   15.7394 C   0  0  0  0  0  0  0  0  0  0  0  0
  -25.2209  -17.8971   17.5834 C   0  0  0  0  0  0  0  0  0  0  0  0
  -26.6719  -30.9029   19.3263 C   0  0  0  0  0  0  0  0  0  0  0  0
  -26.5051  -28.1691   19.8212 C   0  0  0  0  0  0  0  0  0  0  0  0
  -23.5011  -22.8487   19.4028 C   0  0  0  0  0  0  0  0  0  0  0  0
  -25.7585  -18.1309   14.8559 C   0  0  0  0  0  0  0  0  0  0  0  0
  -24.2024  -18.2547   16.6999 C   0  0  0  0  0  0  0  0  0  0  0  0
  -23.6960  -21.6109   20.0140 C   0  0  0  0  0  0  0  0  0  0  0  0
  -23.1832  -21.0338   15.0696 C   0  0  0  0  0  0  0  0  0  0  0  0
  -22.3481  -22.0884   15.4383 C   0  0  0  0  0  0  0  0  0  0  0  0
  -22.0655  -22.1908   21.6947 C   0  0  0  0  0  0  0  0  0  0  0  0
  -20.4400  -20.6092   15.3474 C   0  0  0  0  0  0  0  0  0  0  0  0
  -26.5082  -17.6565   17.1031 C   0  0  0  0  0  0  0  0  0  0  0  0
  -28.4364  -18.1514   18.6983 C   0  0  0  0  0  0  0  0  0  0  0  0
  -25.6913  -30.4220   20.2083 C   0  0  0  0  0  0  0  0  0  0  0  0
  -22.5934  -23.7727   19.9401 C   0  0  0  0  0  0  0  0  0  0  0  0
  -25.6121  -29.0404   20.4678 C   0  0  0  0  0  0  0  0  0  0  0  0
  -21.8591  -23.4386   21.0869 C   0  0  0  0  0  0  0  0  0  0  0  0
  -24.4712  -18.3716   15.3362 C   0  0  0  0  0  0  0  0  0  0  0  0
  -22.9803  -21.2829   21.1618 C   0  0  0  0  0  0  0  0  0  0  0  0
  -22.6467  -19.7669   14.8397 C   0  0  0  0  0  0  0  0  0  0  0  0
  -20.9765  -21.8762   15.5772 C   0  0  0  0  0  0  0  0  0  0  0  0
  -21.2751  -19.5546   14.9787 C   0  0  0  0  0  0  0  0  0  0  0  0
  -27.5597  -17.2866   18.0162 C   0  0  0  0  0  0  0  0  0  0  0  0
  -29.2403  -17.3152   19.4338 C   0  0  0  0  0  0  0  0  0  0  0  0
  -26.0569  -12.5302   21.4520 C   0  0  0  0  0  0  0  0  0  0  0  0
  -24.6307  -12.1623   19.9561 C   0  0  0  0  0  0  0  0  0  0  0  0
  -22.3105  -13.5942   19.3996 C   0  0  0  0  0  0  0  0  0  0  0  0
  -23.0912  -14.0050   20.4108 C   0  0  0  0  0  0  0  0  0  0  0  0
  -22.7799  -12.3832   18.6614 C   0  0  0  0  0  0  0  0  0  0  0  0
  -28.5169  -19.5827   18.6696 C   0  0  0  0  0  0  0  0  0  0  0  0
  -22.8248  -26.7087   21.1361 C   0  0  0  0  0  0  0  0  0  0  0  0
  -19.5877  -26.5134   21.2099 C   0  0  0  0  0  0  0  0  0  0  0  0
  -28.3956  -11.7402   21.5117 C   0  0  0  0  0  0  0  0  0  0  0  0
  -16.8060  -24.5392   21.3184 C   0  0  0  0  0  0  0  0  0  0  0  0
  -24.7932  -31.4129   20.9054 C   0  0  0  0  0  0  0  0  0  0  0  0
  -22.3750  -25.0931   19.2536 C   0  0  0  0  0  0  0  0  0  0  0  0
  -20.8578  -24.3873   21.6918 C   0  0  0  0  0  0  0  0  0  0  0  0
  -23.5582  -30.7760   21.5374 C   0  0  0  0  0  0  0  0  0  0  0  0
  -31.0677  -12.9017   19.4258 C   0  0  0  0  0  0  0  0  0  0  0  0
  -23.9440  -29.5245   22.3195 C   0  0  0  0  0  0  0  0  0  0  0  0
  -30.5392  -14.2224   18.8675 C   0  0  0  0  0  0  0  0  0  0  0  0
  -29.9487  -11.8784   19.5926 C   0  0  0  0  0  0  0  0  0  0  0  0
  -28.2751  -13.6795   19.8697 C   0  0  0  0  0  0  0  0  0  0  0  0
  -24.5649  -28.4676   21.3981 C   0  0  1  0  0  0  0  0  0  0  0  0
  -21.8026  -26.1611   20.1806 C   0  0  1  0  0  0  0  0  0  0  0  0
  -29.3683  -14.7515   19.7146 C   0  0  2  0  0  0  0  0  0  0  0  0
  -22.7043  -11.9606   16.2172 C   0  0  0  0  0  0  0  0  0  0  0  0
  -21.4070  -10.4954   17.7947 C   0  0  0  0  0  0  0  0  0  0  0  0
  -14.3015  -24.6677   21.4078 C   0  0  0  0  0  0  0  0  0  0  0  0
  -26.9960  -11.4500   23.5120 C   0  0  0  0  0  0  0  0  0  0  0  0
  -27.9067  -13.6778   22.8477 C   0  0  0  0  0  0  0  0  0  0  0  0
  -19.7343  -27.2690   24.1624 C   0  0  0  0  0  0  0  0  0  0  0  0
  -17.3768  -26.4644   24.4137 C   0  0  0  0  0  0  0  0  0  0  0  0
  -17.8852  -28.3754   22.8930 C   0  0  0  0  0  0  0  0  0  0  0  0
  -16.5245  -23.0989   18.7483 C   0  0  0  0  0  0  0  0  0  0  0  0
  -22.7600  -15.1977   21.2434 C   0  0  0  0  0  0  0  0  0  0  0  0
  -23.3588  -16.4800   20.6654 C   0  0  0  0  0  0  0  0  0  0  0  0
  -22.9843  -17.6963   21.5103 C   0  0  0  0  0  0  0  0  0  0  0  0
  -23.5404  -18.9843   20.9196 C   0  0  0  0  0  0  0  0  0  1  0  0
  -21.9188  -11.9031   17.5198 C   0  0  0  0  0  0  0  0  0  0  0  0
  -18.5680  -26.0371   22.2161 C   0  0  1  0  0  0  0  0  0  0  0  0
  -15.5227  -24.5615   20.5078 C   0  0  2  0  0  0  0  0  0  0  0  0
  -27.2590  -12.3692   22.2776 C   0  0  0  0  0  0  0  0  0  0  0  0
  -18.4113  -27.0191   23.4113 C   0  0  0  0  0  0  0  0  0  0  0  0
  -27.7853  -15.9997   18.2935 N   0  0  0  0  0  0  0  0  0  0  0  0
  -25.7627  -11.6841   20.4322 N   0  0  0  0  0  0  0  0  0  0  0  0
  -25.1884  -13.5157   21.6576 N   0  0  0  0  0  0  0  0  0  0  0  0
  -23.8647  -11.7146   18.9217 N   0  0  0  0  0  0  0  0  0  0  0  0
  -28.8131  -16.0497   19.1580 N   0  0  0  0  0  0  0  0  0  0  0  0
  -24.2583  -13.2891   20.6949 N   0  0  0  0  0  0  0  0  0  0  0  0
  -20.6844  -25.6686   20.9876 N   0  0  0  0  0  0  0  0  0  0  0  0
  -28.8459  -12.4268   20.3839 N   0  0  0  0  0  0  0  0  0  0  0  0
  -30.2639  -17.5464   20.2830 N   0  0  0  0  0  0  0  0  0  0  0  0
  -27.6148  -20.2865   17.8602 N   0  0  0  0  0  0  0  0  0  0  0  0
  -23.5346  -27.7870   20.6434 N   0  0  0  0  0  0  0  0  0  0  0  0
  -17.3366  -25.8028   21.4698 N   0  0  0  0  0  0  0  0  0  0  0  0
  -15.4013  -23.3179   19.6956 N   0  3  0  0  0  0  0  0  0  0  0  0
  -29.3744  -20.2176   19.3292 O   0  0  0  0  0  0  0  0  0  0  0  0
  -22.9584  -26.1921   22.2393 O   0  0  0  0  0  0  0  0  0  0  0  0
  -19.4137  -27.5918   20.6368 O   0  0  0  0  0  0  0  0  0  0  0  0
  -28.8697  -10.6720   21.9072 O   0  0  0  0  0  0  0  0  0  0  0  0
  -17.2875  -23.5046   21.7750 O   0  0  0  0  0  0  0  0  0  0  0  0
  -23.4772  -18.7207   14.4744 O   0  0  0  0  0  0  0  0  0  0  0  0
  -23.1691  -20.0756   21.7607 O   0  0  0  0  0  0  0  0  0  1  0  0
  -20.1749  -22.8886   15.9328 F   0  0  0  0  0  0  0  0  0  0  0  0
  -20.7541  -18.3394   14.7603 F   0  0  0  0  0  0  0  0  0  0  0  0
  1  2  1  0  0  0  0
  1  5  2  0  0  0  0
  2  6  2  0  0  0  0
  3  8  2  0  0  0  0
  3 15  1  0  0  0  0
  4  9  1  0  0  0  0
  4 15  2  0  0  0  0
  5 17  1  0  0  0  0
  6 19  1  0  0  0  0
  7 10  2  0  0  0  0
  7 18  1  0  0  0  0
  8 21  1  0  0  0  0
  9 21  2  0  0  0  0
 10 22  1  0  0  0  0
 11 12  2  0  0  0  0
 11 23  1  0  0  0  0
 12 24  1  0  0  0  0
 13 20  1  0  0  0  0
 13 22  2  0  0  0  0
 14 24  2  0  0  0  0
 14 25  1  0  0  0  0
 15 26  1  0  0  0  0
 16 26  1  0  0  0  0
 16 27  2  0  0  0  0
 16 33  1  0  0  0  0
 17 19  2  0  0  0  0
 17 38  1  0  0  0  0
 18 20  2  0  0  0  0
 18 39  1  0  0  0  0
 19 47  1  0  0  0  0
 20 40  1  0  0  0  0
 21 86  1  0  0  0  0
 22 87  1  0  0  0  0
 23 25  2  0  0  0  0
 23 86  1  0  0  0  0
 24 88  1  0  0  0  0
 25 89  1  0  0  0  0
 26 68  2  0  0  0  0
 27 72  1  0  0  0  0
 27 76  1  0  0  0  0
 28 66  1  0  0  0  0
 28 69  1  0  0  0  0
 28 70  2  0  0  0  0
 29 69  2  0  0  0  0
 29 71  1  0  0  0  0
 29 73  1  0  0  0  0
 30 31  2  0  0  0  0
 30 32  1  0  0  0  0
 31 59  1  0  0  0  0
 31 73  1  0  0  0  0
 32 63  1  0  0  0  0
 32 71  2  0  0  0  0
 33 77  1  0  0  0  0
 33 81  2  0  0  0  0
 34 48  1  0  0  0  0
 34 78  1  0  0  0  0
 34 82  2  0  0  0  0
 35 64  1  0  0  0  0
 35 74  1  0  0  0  0
 35 83  2  0  0  0  0
 36 66  1  0  0  0  0
 36 75  1  0  0  0  0
 36 84  2  0  0  0  0
 37 65  1  0  0  0  0
 37 79  1  0  0  0  0
 37 85  2  0  0  0  0
 38 41  1  0  0  0  0
 39 48  1  0  0  0  0
 40 74  1  0  0  0  0
 41 43  1  0  0  0  0
 42 44  1  0  0  0  0
 42 45  1  0  0  0  0
 43 47  1  0  0  0  0
 44 49  1  0  0  0  0
 45 75  1  0  0  0  0
 46 49  1  0  0  0  0
 46 75  1  0  0  0  0
 47 78  1  0  0  0  0
 48 74  1  0  0  0  0
 49 72  1  0  0  0  0
 50 63  1  0  0  0  0
 51 63  1  0  0  0  0
 52 65  1  0  0  0  0
 53 66  1  0  0  0  0
 54 66  1  0  0  0  0
 55 67  1  0  0  0  0
 56 67  1  0  0  0  0
 57 67  1  0  0  0  0
 58 80  1  0  0  0  0
 59 60  1  0  0  0  0
 60 61  1  0  0  0  0
 61 62  1  0  0  0  0
 62 87  1  0  0  0  0
 64 67  1  0  0  0  0
 64 79  1  0  0  0  0
 65 80  1  0  0  0  0
 68 72  1  0  0  0  0
 70 73  1  0  0  0  0
M  CHG  1  80   1
M  ISO  4  36 100  62 101  66 100  87 101
M  END
> <Batch ID>
0063

> <Smiles>
CNC(C)C(=O)NC(C(=O)N1Cc2cc([101O:1][101CH2:1]CCCc3cc(C(C)C)nc4nc([100C:0](C)(C)[100C:0](=O)N5CCCC(n6nc(-c7ccc(Oc8ccc(F)cc8F)cc7)c(C(N)=O)c6N)C5)nn34)ccc2CC1C(=O)NC1CCCc2ccccc21)C(C)(C)C

> <Shape>
0.191

> <Color>
0.093

> <Negative vol penalty>
0.000

$$$$

  -OEChem-04052318023D

 84 92  0     1  0  0  0  0  0999 V2000
  -17.4142  -19.9208   12.0403 C   0  0  0  0  0  0  0  0  0  0  0  0
  -17.9071  -21.0192   12.7375 C   0  0  0  0  0  0  0  0  0  0  0  0
  -29.0502  -17.4242   19.5375 C   0  0  0  0  0  0  0  0  0  0  0  0
  -30.6350  -17.8833   21.3023 C   0  0  0  0  0  0  0  0  0  0  0  0
  -18.1312  -18.7251   12.0285 C   0  0  0  0  0  0  0  0  0  0  0  0
  -19.1169  -20.9221   13.4242 C   0  0  0  0  0  0  0  0  0  0  0  0
  -23.2997  -25.3352   14.1550 C   0  0  0  0  0  0  0  0  0  0  0  0
  -24.9876  -28.6776   20.9280 C   0  0  0  0  0  0  0  0  0  0  0  0
  -29.6343  -16.1733   19.3384 C   0  0  0  0  0  0  0  0  0  0  0  0
  -31.2190  -16.6324   21.1034 C   0  0  0  0  0  0  0  0  0  0  0  0
  -23.5649  -26.2114   15.2066 C   0  0  0  0  0  0  0  0  0  0  0  0
  -29.5630  -13.1288   20.8078 C   0  0  0  0  0  0  0  0  0  0  0  0
  -28.7132  -12.0323   20.6627 C   0  0  0  0  0  0  0  0  0  0  0  0
  -24.8474  -27.7003   19.9490 C   0  0  0  0  0  0  0  0  0  0  0  0
  -25.2710  -24.7113   16.0181 C   0  0  0  0  0  0  0  0  0  0  0  0
  -29.6273  -11.6145   18.4657 C   0  0  0  0  0  0  0  0  0  0  0  0
  -29.5506  -18.2793   20.5194 C   0  0  0  0  0  0  0  0  0  0  0  0
  -27.8876  -19.8866   21.5957 C   0  0  0  0  0  0  0  0  0  0  0  0
  -19.3551  -18.6162   12.7075 C   0  0  0  0  0  0  0  0  0  0  0  0
  -24.0118  -24.1334   14.0331 C   0  0  0  0  0  0  0  0  0  0  0  0
  -19.8502  -19.7234   13.4226 C   0  0  0  0  0  0  0  0  0  0  0  0
  -25.0146  -23.8229   14.9626 C   0  0  0  0  0  0  0  0  0  0  0  0
  -26.2055  -29.3307   21.0812 C   0  0  0  0  0  0  0  0  0  0  0  0
  -30.7186  -15.7773   20.1214 C   0  0  0  0  0  0  0  0  0  0  0  0
  -24.5487  -25.8981   16.1400 C   0  0  0  0  0  0  0  0  0  0  0  0
  -30.4450  -13.4682   19.7818 C   0  0  0  0  0  0  0  0  0  0  0  0
  -28.7453  -11.2751   19.4917 C   0  0  0  0  0  0  0  0  0  0  0  0
  -30.4771  -12.7110   18.6107 C   0  0  0  0  0  0  0  0  0  0  0  0
  -28.9481  -19.5719   20.7250 C   0  0  0  0  0  0  0  0  0  0  0  0
  -25.9466  -27.4151   19.1552 C   0  0  0  0  0  0  0  0  0  0  0  0
  -27.2440  -28.9724   20.2368 C   0  0  0  0  0  0  0  0  0  0  0  0
  -27.6903  -21.2349   21.4232 C   0  0  0  0  0  0  0  0  0  0  0  0
  -27.1470  -19.0363   22.4813 C   0  0  0  0  0  0  0  0  0  0  0  0
  -23.2353  -21.0514   14.0788 C   0  0  0  0  0  0  0  0  0  0  0  0
  -26.3578  -20.6535   13.2955 C   0  0  0  0  0  0  0  0  0  0  0  0
  -29.5342  -21.9010   13.3263 C   0  0  0  0  0  0  0  0  0  0  0  0
  -29.6731  -26.3201   21.0280 C   0  0  0  0  0  0  0  0  0  0  0  0
  -20.0709  -17.2887   12.7052 C   0  0  0  0  0  0  0  0  0  0  0  0
  -23.7321  -23.2117   12.8778 C   0  0  0  0  0  0  0  0  0  0  0  0
  -25.8215  -22.5548   14.8648 C   0  0  0  0  0  0  0  0  0  0  0  0
  -21.5289  -17.3822   13.1477 C   0  0  0  0  0  0  0  0  0  0  0  0
  -29.5386  -24.4175   17.9524 C   0  0  0  0  0  0  0  0  0  0  0  0
  -21.6504  -18.2300   14.4100 C   0  0  0  0  0  0  0  0  0  0  0  0
  -29.2834  -23.0044   18.4799 C   0  0  0  0  0  0  0  0  0  0  0  0
  -30.4829  -25.1880   18.8704 C   0  0  0  0  0  0  0  0  0  0  0  0
  -29.7807  -23.8528   20.8192 C   0  0  0  0  0  0  0  0  0  0  0  0
  -21.1709  -19.6648   14.1591 C   0  0  1  0  0  0  0  0  0  0  0  0
  -24.1639  -21.7728   13.1434 C   0  0  1  0  0  0  0  0  0  0  0  0
  -28.8153  -23.0299   19.9470 C   0  0  2  0  0  0  0  0  0  0  0  0
  -31.8814  -21.3304   12.6461 C   0  0  0  0  0  0  0  0  0  0  0  0
  -26.5831  -18.7554   15.6739 C   0  0  0  0  0  0  0  0  0  0  0  0
  -29.0727  -18.9718   15.5218 C   0  0  0  0  0  0  0  0  0  0  0  0
  -27.7885  -17.9987   13.6175 C   0  0  0  0  0  0  0  0  0  0  0  0
  -29.6933  -24.2243   11.4998 C   0  0  0  0  0  0  0  0  0  0  0  0
  -28.5738  -29.6425   20.3533 C   0  0  0  0  0  0  0  0  0  0  0  0
  -25.8303  -26.3673   18.0876 C   0  0  0  0  0  0  0  0  0  1  0  0
  -29.6211  -28.8001   21.0896 C   0  0  0  0  0  0  0  0  0  0  0  0
  -27.6412  -20.4814   14.0716 C   0  0  1  0  0  0  0  0  0  0  0  0
  -30.5843  -22.0099   12.2354 C   0  0  2  0  0  0  0  0  0  0  0  0
  -26.3621  -30.3777   22.1291 C   0  0  0  0  0  0  0  0  0  0  0  0
  -27.7550  -19.0749   14.7244 C   0  0  0  0  0  0  0  0  0  0  0  0
  -29.3933  -20.6346   20.0495 N   0  0  0  0  0  0  0  0  0  0  0  0
  -27.1456  -28.0282   19.2743 N   0  0  0  0  0  0  0  0  0  0  0  0
  -28.6087  -21.6303   20.4956 N   0  0  0  0  0  0  0  0  0  0  0  0
  -25.5064  -21.6830   13.7210 N   0  0  0  0  0  0  0  0  0  0  0  0
  -29.9704  -25.1903   20.2479 N   0  0  0  0  0  0  0  0  0  0  0  0
  -26.8226  -22.1089   21.9760 N   0  0  0  0  0  0  0  0  0  0  0  0
  -27.4800  -17.6759   22.5352 N   0  0  0  0  0  0  0  0  0  0  0  0
  -22.1814  -20.4183   13.4480 N   0  0  0  0  0  0  0  0  0  0  0  0
  -28.7235  -20.8003   13.1467 N   0  0  0  0  0  0  0  0  0  0  0  0
  -29.8869  -27.5488   20.4154 N   0  0  0  0  0  0  0  0  0  0  0  0
  -30.8767  -23.4408   11.9388 N   0  3  0  0  0  0  0  0  0  0  0  0
  -26.2068  -19.4668   23.1912 O   0  0  0  0  0  0  0  0  0  0  0  0
  -23.4592  -21.0668   15.2835 O   0  0  0  0  0  0  0  0  0  0  0  0
  -26.1229  -19.9067   12.3422 O   0  0  0  0  0  0  0  0  0  0  0  0
  -29.4447  -22.7094   14.2477 O   0  0  0  0  0  0  0  0  0  0  0  0
  -29.2436  -26.2399   22.1840 O   0  0  0  0  0  0  0  0  0  0  0  0
  -31.2886  -14.5566   19.9276 O   0  0  0  0  0  0  0  0  0  0  0  0
  -24.8091  -26.7512   17.1678 O   0  0  0  0  0  0  0  0  0  1  0  0
  -27.9302  -10.2212   19.3531 F   0  0  0  0  0  0  0  0  0  0  0  0
  -31.3231  -13.0315   17.6221 F   0  0  0  0  0  0  0  0  0  0  0  0
  -25.2303  -30.5927   22.8644 F   0  0  0  0  0  0  0  0  0  0  0  0
  -27.3328  -30.0931   23.0481 F   0  0  0  0  0  0  0  0  0  0  0  0
  -26.6968  -31.5960   21.6109 F   0  0  0  0  0  0  0  0  0  0  0  0
  1  2  1  0  0  0  0
  1  5  2  0  0  0  0
  2  6  2  0  0  0  0
  3  9  2  0  0  0  0
  3 17  1  0  0  0  0
  4 10  1  0  0  0  0
  4 17  2  0  0  0  0
  5 19  1  0  0  0  0
  6 21  1  0  0  0  0
  7 11  2  0  0  0  0
  7 20  1  0  0  0  0
  8 14  2  0  0  0  0
  8 23  1  0  0  0  0
  9 24  1  0  0  0  0
 10 24  2  0  0  0  0
 11 25  1  0  0  0  0
 12 13  2  0  0  0  0
 12 26  1  0  0  0  0
 13 27  1  0  0  0  0
 14 30  1  0  0  0  0
 15 22  1  0  0  0  0
 15 25  2  0  0  0  0
 16 27  2  0  0  0  0
 16 28  1  0  0  0  0
 17 29  1  0  0  0  0
 18 29  1  0  0  0  0
 18 32  2  0  0  0  0
 18 33  1  0  0  0  0
 19 21  2  0  0  0  0
 19 38  1  0  0  0  0
 20 22  2  0  0  0  0
 20 39  1  0  0  0  0
 21 47  1  0  0  0  0
 22 40  1  0  0  0  0
 23 31  2  0  0  0  0
 23 60  1  0  0  0  0
 24 78  1  0  0  0  0
 25 79  1  0  0  0  0
 26 28  2  0  0  0  0
 26 78  1  0  0  0  0
 27 80  1  0  0  0  0
 28 81  1  0  0  0  0
 29 62  2  0  0  0  0
 30 56  1  0  0  0  0
 30 63  2  0  0  0  0
 31 55  1  0  0  0  0
 31 63  1  0  0  0  0
 32 64  1  0  0  0  0
 32 67  1  0  0  0  0
 33 68  1  0  0  0  0
 33 73  2  0  0  0  0
 34 48  1  0  0  0  0
 34 69  1  0  0  0  0
 34 74  2  0  0  0  0
 35 58  1  0  0  0  0
 35 65  1  0  0  0  0
 35 75  2  0  0  0  0
 36 59  1  0  0  0  0
 36 70  1  0  0  0  0
 36 76  2  0  0  0  0
 37 66  1  0  0  0  0
 37 71  1  0  0  0  0
 37 77  2  0  0  0  0
 38 41  1  0  0  0  0
 39 48  1  0  0  0  0
 40 65  1  0  0  0  0
 41 43  1  0  0  0  0
 42 44  1  0  0  0  0
 42 45  1  0  0  0  0
 43 47  1  0  0  0  0
 44 49  1  0  0  0  0
 45 66  1  0  0  0  0
 46 49  1  0  0  0  0
 46 66  1  0  0  0  0
 47 69  1  0  0  0  0
 48 65  1  0  0  0  0
 49 64  1  0  0  0  0
 50 59  1  0  0  0  0
 51 61  1  0  0  0  0
 52 61  1  0  0  0  0
 53 61  1  0  0  0  0
 54 72  1  0  0  0  0
 55 57  1  0  0  0  0
 56 79  1  0  0  0  0
 57 71  1  0  0  0  0
 58 61  1  0  0  0  0
 58 70  1  0  0  0  0
 59 72  1  0  0  0  0
 60 82  1  0  0  0  0
 60 83  1  0  0  0  0
 60 84  1  0  0  0  0
 62 64  1  0  0  0  0
M  CHG  1  72   1
M  ISO  4  37 100  56 101  71 100  79 101
M  END
> <Batch ID>
0063

> <Smiles>
CNC(C)C(=O)NC(C(=O)N1Cc2cc([101O:1][101CH2:1]c3ccc(C(F)(F)F)c(CC[100NH:0][100C:0](=O)N4CCCC(n5nc(-c6ccc(Oc7ccc(F)cc7F)cc6)c(C(N)=O)c5N)C4)n3)ccc2CC1C(=O)NC1CCCc2ccccc21)C(C)(C)C

> <Shape>
0.204

> <Color>
0.065

> <Negative vol penalty>
0.000

$$$$

  -OEChem-04052318023D

 87 95  0     1  0  0  0  0  0999 V2000
  -26.1548  -23.9491   31.8295 C   0  0  0  0  0  0  0  0  0  0  0  0
  -26.0919  -23.4601   30.5286 C   0  0  0  0  0  0  0  0  0  0  0  0
  -23.7354   -9.7012   21.1512 C   0  0  0  0  0  0  0  0  0  0  0  0
  -24.3164  -10.5813   23.3249 C   0  0  0  0  0  0  0  0  0  0  0  0
  -25.1891  -24.8466   32.2831 C   0  0  0  0  0  0  0  0  0  0  0  0
  -25.0625  -23.8676   29.6808 C   0  0  0  0  0  0  0  0  0  0  0  0
  -26.7174  -25.0443   25.0417 C   0  0  0  0  0  0  0  0  0  0  0  0
  -23.1965   -8.5652   21.7551 C   0  0  0  0  0  0  0  0  0  0  0  0
  -23.7774   -9.4453   23.9288 C   0  0  0  0  0  0  0  0  0  0  0  0
  -26.9994  -23.9861   24.1788 C   0  0  0  0  0  0  0  0  0  0  0  0
  -20.3453   -7.7126   23.3603 C   0  0  0  0  0  0  0  0  0  0  0  0
  -19.1062   -7.2623   22.9048 C   0  0  0  0  0  0  0  0  0  0  0  0
  -24.8671  -24.3076   23.0975 C   0  0  0  0  0  0  0  0  0  0  0  0
  -20.1008   -5.1483   22.2893 C   0  0  0  0  0  0  0  0  0  0  0  0
  -29.2934  -16.0891   21.7118 C   0  0  0  0  0  0  0  0  0  0  0  0
  -24.2954  -10.7092   21.9360 C   0  0  0  0  0  0  0  0  0  0  0  0
  -24.1825  -13.0821   21.0065 C   0  0  0  0  0  0  0  0  0  0  0  0
  -24.1529  -25.2728   31.4374 C   0  0  0  0  0  0  0  0  0  0  0  0
  -25.5015  -25.7362   24.9459 C   0  0  0  0  0  0  0  0  0  0  0  0
  -24.0813  -24.7707   30.1239 C   0  0  0  0  0  0  0  0  0  0  0  0
  -24.5732  -25.3758   23.9587 C   0  0  0  0  0  0  0  0  0  0  0  0
  -23.2175   -8.4373   23.1439 C   0  0  0  0  0  0  0  0  0  0  0  0
  -26.0730  -23.6157   23.2084 C   0  0  0  0  0  0  0  0  0  0  0  0
  -21.4622   -6.8808   23.2802 C   0  0  0  0  0  0  0  0  0  0  0  0
  -18.9839   -5.9802   22.3693 C   0  0  0  0  0  0  0  0  0  0  0  0
  -21.3399   -5.5986   22.7447 C   0  0  0  0  0  0  0  0  0  0  0  0
  -24.8528  -11.8827   21.3127 C   0  0  0  0  0  0  0  0  0  0  0  0
  -29.7397  -15.0810   22.5289 C   0  0  0  0  0  0  0  0  0  0  0  0
  -25.1441  -13.8751   20.4294 C   0  0  0  0  0  0  0  0  0  0  0  0
  -22.8132  -13.4470   21.2242 C   0  0  0  0  0  0  0  0  0  0  0  0
  -23.0241  -26.1970   26.8834 C   0  0  0  0  0  0  0  0  0  0  0  0
  -22.0434  -28.1891   24.5187 C   0  0  0  0  0  0  0  0  0  0  0  0
  -31.1369  -13.8822   20.8750 C   0  0  0  0  0  0  0  0  0  0  0  0
  -22.1711  -29.0535   21.2197 C   0  0  0  0  0  0  0  0  0  0  0  0
  -23.1051  -26.2078   31.9874 C   0  0  0  0  0  0  0  0  0  0  0  0
  -25.2238  -26.8926   25.8667 C   0  0  0  0  0  0  0  0  0  0  0  0
  -23.2618  -26.0996   23.8011 C   0  0  0  0  0  0  0  0  0  0  0  0
  -22.2604  -26.8790   30.9075 C   0  0  0  0  0  0  0  0  0  0  0  0
  -29.1792  -13.6290   17.8845 C   0  0  0  0  0  0  0  0  0  0  0  0
  -21.7983  -25.8536   29.8770 C   0  0  0  0  0  0  0  0  0  0  0  0
  -27.7940  -13.2337   18.3946 C   0  0  0  0  0  0  0  0  0  0  0  0
  -30.2848  -13.0012   18.7274 C   0  0  0  0  0  0  0  0  0  0  0  0
  -28.7947  -12.9051   20.7002 C   0  0  0  0  0  0  0  0  0  0  0  0
  -22.9941  -25.2082   29.1664 C   0  0  1  0  0  0  0  0  0  0  0  0
  -23.7358  -27.1950   26.0143 C   0  0  1  0  0  0  0  0  0  0  0  0
  -27.6486  -13.5429   19.8952 C   0  0  2  0  0  0  0  0  0  0  0  0
  -21.2318  -30.7023   19.5775 C   0  0  0  0  0  0  0  0  0  0  0  0
  -19.4045  -26.6576   24.4940 C   0  0  0  0  0  0  0  0  0  0  0  0
  -18.9072  -27.6886   22.2673 C   0  0  0  0  0  0  0  0  0  0  0  0
  -19.1728  -29.1385   24.2798 C   0  0  0  0  0  0  0  0  0  0  0  0
  -24.8544  -30.1324   20.5915 C   0  0  0  0  0  0  0  0  0  0  0  0
  -27.6607  -19.0694   22.6756 C   0  0  0  0  0  0  0  0  0  0  0  0
  -26.8089  -20.2360   22.1724 C   0  0  0  0  0  0  0  0  0  0  0  0
  -27.3377  -17.7448   21.9750 C   0  0  0  0  0  0  0  0  0  0  0  0
  -27.1816  -21.5400   22.8649 C   0  0  0  0  0  0  0  0  0  1  0  0
  -21.2110  -28.0362   23.2685 C   0  0  1  0  0  0  0  0  0  0  0  0
  -22.3711  -30.3945   20.5368 C   0  0  2  0  0  0  0  0  0  0  0  0
  -30.7055  -12.7304   22.9497 C   0  0  0  0  0  0  0  0  0  0  0  0
  -30.8688  -14.1628   22.3322 C   0  0  2  0  0  0  0  0  0  0  0  0
  -19.6977  -27.8651   23.5814 C   0  0  0  0  0  0  0  0  0  0  0  0
  -32.1926  -14.7458   22.9113 C   0  0  0  0  0  0  0  0  0  0  0  0
  -26.1406  -11.9068   20.9593 N   0  0  0  0  0  0  0  0  0  0  0  0
  -28.9564  -15.0156   23.6477 N   0  0  0  0  0  0  0  0  0  0  0  0
  -28.0270  -15.9601   23.5510 N   0  0  0  0  0  0  0  0  0  0  0  0
  -28.2307  -16.6025   22.3895 N   0  0  0  0  0  0  0  0  0  0  0  0
  -26.2873  -13.1312   20.4249 N   0  0  0  0  0  0  0  0  0  0  0  0
  -23.0338  -27.2194   24.7294 N   0  0  0  0  0  0  0  0  0  0  0  0
  -30.0984  -13.2992   20.1486 N   0  0  0  0  0  0  0  0  0  0  0  0
  -25.1149  -15.1290   19.9303 N   0  0  0  0  0  0  0  0  0  0  0  0
  -21.9610  -12.5132   21.8293 N   0  0  0  0  0  0  0  0  0  0  0  0
  -23.5314  -26.1048   28.1655 N   0  0  0  0  0  0  0  0  0  0  0  0
  -21.5211  -29.1878   22.4283 N   0  0  0  0  0  0  0  0  0  0  0  0
  -23.6474  -30.3987   19.7674 N   0  3  0  0  0  0  0  0  0  0  0  0
  -22.3548  -14.5619   20.8772 O   0  0  0  0  0  0  0  0  0  0  0  0
  -22.0835  -25.5591   26.4253 O   0  0  0  0  0  0  0  0  0  0  0  0
  -21.8275  -29.1382   25.2765 O   0  0  0  0  0  0  0  0  0  0  0  0
  -32.2361  -14.1758   20.3977 O   0  0  0  0  0  0  0  0  0  0  0  0
  -22.5500  -27.9927   20.7283 O   0  0  0  0  0  0  0  0  0  0  0  0
  -22.6915   -7.3290   23.7336 O   0  0  0  0  0  0  0  0  0  0  0  0
  -26.3454  -22.5828   22.3654 O   0  0  0  0  0  0  0  0  0  1  0  0
  -17.7937   -5.5473   21.9334 F   0  0  0  0  0  0  0  0  0  0  0  0
  -22.4090   -4.7945   22.6663 F   0  0  0  0  0  0  0  0  0  0  0  0
  -30.5182  -12.8377   24.2905 F   0  0  0  0  0  0  0  0  0  0  0  0
  -29.6168  -12.0764   22.4648 F   0  0  0  0  0  0  0  0  0  0  0  0
  -32.1418  -14.9972   24.2401 F   0  0  0  0  0  0  0  0  0  0  0  0
  -32.4979  -15.9119   22.2962 F   0  0  0  0  0  0  0  0  0  0  0  0
  -33.2255  -13.8981   22.7060 F   0  0  0  0  0  0  0  0  0  0  0  0
  1  2  1  0  0  0  0
  1  5  2  0  0  0  0
  2  6  2  0  0  0  0
  3  8  2  0  0  0  0
  3 16  1  0  0  0  0
  4  9  1  0  0  0  0
  4 16  2  0  0  0  0
  5 18  1  0  0  0  0
  6 20  1  0  0  0  0
  7 10  2  0  0  0  0
  7 19  1  0  0  0  0
  8 22  1  0  0  0  0
  9 22  2  0  0  0  0
 10 23  1  0  0  0  0
 11 12  2  0  0  0  0
 11 24  1  0  0  0  0
 12 25  1  0  0  0  0
 13 21  1  0  0  0  0
 13 23  2  0  0  0  0
 14 25  2  0  0  0  0
 14 26  1  0  0  0  0
 15 28  2  0  0  0  0
 15 65  1  0  0  0  0
 16 27  1  0  0  0  0
 17 27  1  0  0  0  0
 17 29  2  0  0  0  0
 17 30  1  0  0  0  0
 18 20  2  0  0  0  0
 18 35  1  0  0  0  0
 19 21  2  0  0  0  0
 19 36  1  0  0  0  0
 20 44  1  0  0  0  0
 21 37  1  0  0  0  0
 22 79  1  0  0  0  0
 23 80  1  0  0  0  0
 24 26  2  0  0  0  0
 24 79  1  0  0  0  0
 25 81  1  0  0  0  0
 26 82  1  0  0  0  0
 27 62  2  0  0  0  0
 28 59  1  0  0  0  0
 28 63  1  0  0  0  0
 29 66  1  0  0  0  0
 29 69  1  0  0  0  0
 30 70  1  0  0  0  0
 30 74  2  0  0  0  0
 31 45  1  0  0  0  0
 31 71  1  0  0  0  0
 31 75  2  0  0  0  0
 32 56  1  0  0  0  0
 32 67  1  0  0  0  0
 32 76  2  0  0  0  0
 33 59  1  0  0  0  0
 33 68  1  0  0  0  0
 33 77  2  0  0  0  0
 34 57  1  0  0  0  0
 34 72  1  0  0  0  0
 34 78  2  0  0  0  0
 35 38  1  0  0  0  0
 36 45  1  0  0  0  0
 37 67  1  0  0  0  0
 38 40  1  0  0  0  0
 39 41  1  0  0  0  0
 39 42  1  0  0  0  0
 40 44  1  0  0  0  0
 41 46  1  0  0  0  0
 42 68  1  0  0  0  0
 43 46  1  0  0  0  0
 43 68  1  0  0  0  0
 44 71  1  0  0  0  0
 45 67  1  0  0  0  0
 46 66  1  0  0  0  0
 47 57  1  0  0  0  0
 48 60  1  0  0  0  0
 49 60  1  0  0  0  0
 50 60  1  0  0  0  0
 51 73  1  0  0  0  0
 52 53  1  0  0  0  0
 52 54  1  0  0  0  0
 53 55  1  0  0  0  0
 54 65  1  0  0  0  0
 55 80  1  0  0  0  0
 56 60  1  0  0  0  0
 56 72  1  0  0  0  0
 57 73  1  0  0  0  0
 58 59  1  0  0  0  0
 58 83  1  0  0  0  0
 58 84  1  0  0  0  0
 59 61  1  0  0  0  0
 61 85  1  0  0  0  0
 61 86  1  0  0  0  0
 61 87  1  0  0  0  0
 62 66  1  0  0  0  0
 63 64  2  0  0  0  0
 64 65  1  0  0  0  0
M  CHG  1  73   1
M  ISO  4  33 100  55 101  59 100  80 101
M  END
> <Batch ID>
0063

> <Smiles>
CNC(C)C(=O)NC(C(=O)N1Cc2cc([101O:1][101CH2:1]CCCn3cc([100C:0](C(F)F)([100C:0](=O)N4CCCC(n5nc(-c6ccc(Oc7ccc(F)cc7F)cc6)c(C(N)=O)c5N)C4)C(F)(F)F)nn3)ccc2CC1C(=O)NC1CCCc2ccccc21)C(C)(C)C

> <Shape>
0.218

> <Color>
0.154

> <Negative vol penalty>
0.000

$$$$

  -OEChem-04052318023D

 86 94  0     1  0  0  0  0  0999 V2000
  -13.7762  -21.1559   20.3433 C   0  0  0  0  0  0  0  0  0  0  0  0
  -15.1663  -21.1000   20.3541 C   0  0  0  0  0  0  0  0  0  0  0  0
  -30.8961  -19.1750   19.2861 C   0  0  0  0  0  0  0  0  0  0  0  0
  -28.9766  -19.5160   20.7130 C   0  0  0  0  0  0  0  0  0  0  0  0
  -13.1302  -22.3539   20.0414 C   0  0  0  0  0  0  0  0  0  0  0  0
  -15.9111  -22.2421   20.0619 C   0  0  0  0  0  0  0  0  0  0  0  0
  -19.7662  -22.9217   23.2745 C   0  0  0  0  0  0  0  0  0  0  0  0
  -30.7614  -20.4734   18.7945 C   0  0  0  0  0  0  0  0  0  0  0  0
  -28.8419  -20.8144   20.2215 C   0  0  0  0  0  0  0  0  0  0  0  0
  -20.9033  -22.1390   23.0792 C   0  0  0  0  0  0  0  0  0  0  0  0
  -31.5090  -23.6111   19.8090 C   0  0  0  0  0  0  0  0  0  0  0  0
  -32.6635  -24.3863   19.7007 C   0  0  0  0  0  0  0  0  0  0  0  0
  -21.9818  -23.9921   21.9738 C   0  0  0  0  0  0  0  0  0  0  0  0
  -32.2980  -24.5983   17.3219 C   0  0  0  0  0  0  0  0  0  0  0  0
  -24.1894  -15.6972   18.8590 C   0  0  0  0  0  0  0  0  0  0  0  0
  -30.0037  -18.6963   20.2453 C   0  0  0  0  0  0  0  0  0  0  0  0
  -30.8966  -16.9414   21.8672 C   0  0  0  0  0  0  0  0  0  0  0  0
  -13.8675  -23.5136   19.7548 C   0  0  0  0  0  0  0  0  0  0  0  0
  -19.7243  -24.2443   22.8104 C   0  0  0  0  0  0  0  0  0  0  0  0
  -15.2743  -23.4565   19.7546 C   0  0  0  0  0  0  0  0  0  0  0  0
  -20.8439  -24.7903   22.1667 C   0  0  0  0  0  0  0  0  0  0  0  0
  -29.7343  -21.2931   19.2622 C   0  0  0  0  0  0  0  0  0  0  0  0
  -22.0103  -22.6732   22.4263 C   0  0  0  0  0  0  0  0  0  0  0  0
  -30.7490  -23.3294   18.6737 C   0  0  0  0  0  0  0  0  0  0  0  0
  -33.0580  -24.8799   18.4572 C   0  0  0  0  0  0  0  0  0  0  0  0
  -31.1435  -23.8230   17.4302 C   0  0  0  0  0  0  0  0  0  0  0  0
  -30.1420  -17.3550   20.7531 C   0  0  0  0  0  0  0  0  0  0  0  0
  -24.8198  -16.3531   19.8785 C   0  0  0  0  0  0  0  0  0  0  0  0
  -30.7006  -15.5834   21.9296 C   0  0  0  0  0  0  0  0  0  0  0  0
  -25.0274  -14.1780   20.2337 C   0  0  0  0  0  0  0  0  0  0  0  0
  -31.7024  -17.7155   22.7655 C   0  0  0  0  0  0  0  0  0  0  0  0
  -17.9410  -25.8290   20.7099 C   0  0  0  0  0  0  0  0  0  0  0  0
  -19.5919  -28.3883   21.8266 C   0  0  0  0  0  0  0  0  0  0  0  0
  -26.2581  -12.0735   19.9155 C   0  0  0  0  0  0  0  0  0  0  0  0
  -22.4057  -29.5835   23.3434 C   0  0  0  0  0  0  0  0  0  0  0  0
  -13.1247  -24.7739   19.3879 C   0  0  0  0  0  0  0  0  0  0  0  0
  -18.5001  -25.0840   23.0526 C   0  0  0  0  0  0  0  0  0  0  0  0
  -20.8571  -26.2112   21.6674 C   0  0  0  0  0  0  0  0  0  0  0  0
  -13.9874  -26.0314   19.4568 C   0  0  0  0  0  0  0  0  0  0  0  0
  -29.7530  -11.7985   19.1738 C   0  0  0  0  0  0  0  0  0  0  0  0
  -15.3294  -25.7963   18.7707 C   0  0  0  0  0  0  0  0  0  0  0  0
  -30.3125  -13.1644   19.5693 C   0  0  0  0  0  0  0  0  0  0  0  0
  -28.3451  -11.9170   18.5986 C   0  0  0  0  0  0  0  0  0  0  0  0
  -27.9363  -13.9852   19.8937 C   0  0  0  0  0  0  0  0  0  0  0  0
  -16.1171  -24.6801   19.4673 C   0  0  1  0  0  0  0  0  0  0  0  0
  -18.3776  -26.2554   22.0829 C   0  0  1  0  0  0  0  0  0  0  0  0
  -29.3452  -13.9072   20.5080 C   0  0  2  0  0  0  0  0  0  0  0  0
  -21.7882  -11.9641   17.5822 C   0  0  0  0  0  0  0  0  0  0  0  0
  -23.4853  -31.7234   24.0867 C   0  0  0  0  0  0  0  0  0  0  0  0
  -26.3003  -12.9683   22.1374 C   0  0  0  0  0  0  0  0  0  0  0  0
  -20.3212  -29.0226   18.9325 C   0  0  0  0  0  0  0  0  0  0  0  0
  -22.1191  -30.5387   19.7911 C   0  0  0  0  0  0  0  0  0  0  0  0
  -19.7288  -31.0170   20.3203 C   0  0  0  0  0  0  0  0  0  0  0  0
  -22.4359  -28.7206   26.1743 C   0  0  0  0  0  0  0  0  0  0  0  0
  -24.9984  -17.8243   20.1568 C   0  0  0  0  0  0  0  0  0  0  0  0
  -22.3135  -13.0871   18.4613 C   0  0  0  0  0  0  0  0  0  0  0  0
  -23.8773  -18.4345   21.0055 C   0  0  0  0  0  0  0  0  0  0  0  0
  -24.0355  -19.9415   21.2122 C   0  0  0  0  0  0  0  0  0  0  0  0
  -23.8139  -13.2920   18.2645 C   0  0  0  0  0  0  0  0  0  0  0  0
  -24.1699  -11.9819   21.1883 C   0  0  0  0  0  0  0  0  0  0  0  0
  -22.9272  -20.5046   22.0915 C   0  0  0  0  0  0  0  0  0  1  0  0
  -20.8838  -29.0735   21.4519 C   0  0  1  0  0  0  0  0  0  0  0  0
  -22.5943  -30.5592   24.4910 C   0  0  2  0  0  0  0  0  0  0  0  0
  -25.4049  -12.8851   20.8574 C   0  0  1  0  0  0  0  0  0  0  0  0
  -20.7626  -29.8855   20.1315 C   0  0  0  0  0  0  0  0  0  0  0  0
  -29.5138  -16.3417   20.1509 N   0  0  0  0  0  0  0  0  0  0  0  0
  -24.3341  -14.3529   19.1041 N   0  0  0  0  0  0  0  0  0  0  0  0
  -29.8732  -15.2779   20.8893 N   0  0  0  0  0  0  0  0  0  0  0  0
  -25.3288  -15.3886   20.7144 N   0  3  0  0  0  0  0  0  0  0  0  0
  -19.6340  -26.9901   21.9225 N   0  0  0  0  0  0  0  0  0  0  0  0
  -27.4628  -12.6481   19.5098 N   0  0  0  0  0  0  0  0  0  0  0  0
  -31.1573  -14.6326   22.7723 N   0  0  0  0  0  0  0  0  0  0  0  0
  -31.7944  -19.0985   22.5576 N   0  0  0  0  0  0  0  0  0  0  0  0
  -16.7245  -25.1740   20.6844 N   0  0  0  0  0  0  0  0  0  0  0  0
  -21.2740  -29.8704   22.6099 N   0  0  0  0  0  0  0  0  0  0  0  0
  -23.2549  -12.6569   22.1440 N   0  3  0  0  0  0  0  0  0  0  0  0
  -23.2185  -29.8727   25.6573 N   0  3  0  0  0  0  0  0  0  0  0  0
  -32.3357  -17.1939   23.7144 O   0  0  0  0  0  0  0  0  0  0  0  0
  -18.6542  -26.0773   19.7448 O   0  0  0  0  0  0  0  0  0  0  0  0
  -18.5843  -29.0690   22.0338 O   0  0  0  0  0  0  0  0  0  0  0  0
  -25.8654  -10.9609   19.5546 O   0  0  0  0  0  0  0  0  0  0  0  0
  -23.1864  -28.6614   23.1180 O   0  0  0  0  0  0  0  0  0  0  0  0
  -29.6026  -22.5602   18.7830 O   0  0  0  0  0  0  0  0  0  0  0  0
  -23.1212  -21.9111   22.2338 O   0  0  0  0  0  0  0  0  0  1  0  0
  -34.1659  -25.6256   18.3536 F   0  0  0  0  0  0  0  0  0  0  0  0
  -30.4169  -23.5567   16.3362 F   0  0  0  0  0  0  0  0  0  0  0  0
  1  2  1  0  0  0  0
  1  5  2  0  0  0  0
  2  6  2  0  0  0  0
  3  8  2  0  0  0  0
  3 16  1  0  0  0  0
  4  9  1  0  0  0  0
  4 16  2  0  0  0  0
  5 18  1  0  0  0  0
  6 20  1  0  0  0  0
  7 10  2  0  0  0  0
  7 19  1  0  0  0  0
  8 22  1  0  0  0  0
  9 22  2  0  0  0  0
 10 23  1  0  0  0  0
 11 12  2  0  0  0  0
 11 24  1  0  0  0  0
 12 25  1  0  0  0  0
 13 21  1  0  0  0  0
 13 23  2  0  0  0  0
 14 25  2  0  0  0  0
 14 26  1  0  0  0  0
 15 28  2  0  0  0  0
 15 67  1  0  0  0  0
 16 27  1  0  0  0  0
 17 27  1  0  0  0  0
 17 29  2  0  0  0  0
 17 31  1  0  0  0  0
 18 20  2  0  0  0  0
 18 36  1  0  0  0  0
 19 21  2  0  0  0  0
 19 37  1  0  0  0  0
 20 45  1  0  0  0  0
 21 38  1  0  0  0  0
 22 83  1  0  0  0  0
 23 84  1  0  0  0  0
 24 26  2  0  0  0  0
 24 83  1  0  0  0  0
 25 85  1  0  0  0  0
 26 86  1  0  0  0  0
 27 66  2  0  0  0  0
 28 55  1  0  0  0  0
 28 69  1  0  0  0  0
 29 68  1  0  0  0  0
 29 72  1  0  0  0  0
 30 64  1  0  0  0  0
 30 67  1  0  0  0  0
 30 69  2  0  0  0  0
 31 73  1  0  0  0  0
 31 78  2  0  0  0  0
 32 46  1  0  0  0  0
 32 74  1  0  0  0  0
 32 79  2  0  0  0  0
 33 62  1  0  0  0  0
 33 70  1  0  0  0  0
 33 80  2  0  0  0  0
 34 64  1  0  0  0  0
 34 71  1  0  0  0  0
 34 81  2  0  0  0  0
 35 63  1  0  0  0  0
 35 75  1  0  0  0  0
 35 82  2  0  0  0  0
 36 39  1  0  0  0  0
 37 46  1  0  0  0  0
 38 70  1  0  0  0  0
 39 41  1  0  0  0  0
 40 42  1  0  0  0  0
 40 43  1  0  0  0  0
 41 45  1  0  0  0  0
 42 47  1  0  0  0  0
 43 71  1  0  0  0  0
 44 47  1  0  0  0  0
 44 71  1  0  0  0  0
 45 74  1  0  0  0  0
 46 70  1  0  0  0  0
 47 68  1  0  0  0  0
 48 56  1  0  0  0  0
 49 63  1  0  0  0  0
 50 64  1  0  0  0  0
 51 65  1  0  0  0  0
 52 65  1  0  0  0  0
 53 65  1  0  0  0  0
 54 77  1  0  0  0  0
 55 57  1  0  0  0  0
 56 59  1  0  0  0  0
 57 58  1  0  0  0  0
 58 61  1  0  0  0  0
 59 67  1  0  0  0  0
 60 64  1  0  0  0  0
 60 76  1  0  0  0  0
 61 84  1  0  0  0  0
 62 65  1  0  0  0  0
 62 75  1  0  0  0  0
 63 77  1  0  0  0  0
 66 68  1  0  0  0  0
M  CHG  3  69   1  76   1  77   1
M  ISO  4  34 100  61 101  64 100  84 101
M  END
> <Batch ID>
0063

> <Smiles>
CCCn1cc(CCC[101CH2:1][101O:1]c2ccc3c(c2)CN(C(=O)C(NC(=O)C(C)NC)C(C)(C)C)C(C(=O)NC2CCCc4ccccc42)C3)nc1[100C:0](C)(CN)[100C:0](=O)N1CCCC(n2nc(-c3ccc(Oc4ccc(F)cc4F)cc3)c(C(N)=O)c2N)C1

> <Shape>
0.234

> <Color>
0.083

> <Negative vol penalty>
0.000

$$$$

  -OEChem-04052318023D

 87 95  0     1  0  0  0  0  0999 V2000
  -26.8053  -30.9838   17.4708 C   0  0  0  0  0  0  0  0  0  0  0  0
  -26.7983  -29.5968   17.5790 C   0  0  0  0  0  0  0  0  0  0  0  0
  -22.7194   -9.9915   20.1407 C   0  0  0  0  0  0  0  0  0  0  0  0
  -24.3885   -9.2419   21.7185 C   0  0  0  0  0  0  0  0  0  0  0  0
  -26.2445  -31.7635   18.4814 C   0  0  0  0  0  0  0  0  0  0  0  0
  -26.2314  -28.9888   18.6986 C   0  0  0  0  0  0  0  0  0  0  0  0
  -23.2902  -25.0479   17.4888 C   0  0  0  0  0  0  0  0  0  0  0  0
  -22.0636   -8.7655   20.2520 C   0  0  0  0  0  0  0  0  0  0  0  0
  -23.7327   -8.0159   21.8298 C   0  0  0  0  0  0  0  0  0  0  0  0
  -23.9293  -23.8503   17.1710 C   0  0  0  0  0  0  0  0  0  0  0  0
  -21.0231   -6.7783   23.4258 C   0  0  0  0  0  0  0  0  0  0  0  0
  -20.8420   -6.2558   24.7063 C   0  0  0  0  0  0  0  0  0  0  0  0
  -23.4817  -23.0284   19.3944 C   0  0  0  0  0  0  0  0  0  0  0  0
  -22.1166   -4.2987   24.0880 C   0  0  0  0  0  0  0  0  0  0  0  0
  -30.7272  -16.9057   18.4920 C   0  0  0  0  0  0  0  0  0  0  0  0
  -23.8819  -10.2297   20.8739 C   0  0  0  0  0  0  0  0  0  0  0  0
  -24.3440  -12.6496   21.5360 C   0  0  0  0  0  0  0  0  0  0  0  0
  -25.6618  -31.1645   19.6094 C   0  0  0  0  0  0  0  0  0  0  0  0
  -22.7507  -25.2493   18.7674 C   0  0  0  0  0  0  0  0  0  0  0  0
  -25.6635  -29.7613   19.7259 C   0  0  0  0  0  0  0  0  0  0  0  0
  -22.8340  -24.2285   19.7251 C   0  0  0  0  0  0  0  0  0  0  0  0
  -22.5702   -7.7777   21.0966 C   0  0  0  0  0  0  0  0  0  0  0  0
  -24.0277  -22.8414   18.1247 C   0  0  0  0  0  0  0  0  0  0  0  0
  -21.7509   -6.0609   22.4763 C   0  0  0  0  0  0  0  0  0  0  0  0
  -21.3888   -5.0160   25.0375 C   0  0  0  0  0  0  0  0  0  0  0  0
  -22.2976   -4.8211   22.8074 C   0  0  0  0  0  0  0  0  0  0  0  0
  -24.5601  -11.4957   20.7590 C   0  0  0  0  0  0  0  0  0  0  0  0
  -31.7720  -16.0279   18.8379 C   0  0  0  0  0  0  0  0  0  0  0  0
  -25.2314  -13.5712   21.0364 C   0  0  0  0  0  0  0  0  0  0  0  0
  -30.1023  -17.1822   19.6834 C   0  0  0  0  0  0  0  0  0  0  0  0
  -23.4235  -12.8686   22.6132 C   0  0  0  0  0  0  0  0  0  0  0  0
  -23.2965  -27.2987   21.1350 C   0  0  0  0  0  0  0  0  0  0  0  0
  -20.7112  -25.8549   22.4595 C   0  0  0  0  0  0  0  0  0  0  0  0
  -18.7114  -23.0956   22.6438 C   0  0  0  0  0  0  0  0  0  0  0  0
  -30.3590  -13.1395   18.3664 C   0  0  0  0  0  0  0  0  0  0  0  0
  -25.1102  -32.0503   20.6983 C   0  0  0  0  0  0  0  0  0  0  0  0
  -22.0409  -26.5366   19.0860 C   0  0  0  0  0  0  0  0  0  0  0  0
  -22.2534  -24.3871   21.1057 C   0  0  0  0  0  0  0  0  0  0  0  0
  -24.1949  -31.3165   21.6751 C   0  0  0  0  0  0  0  0  0  0  0  0
  -27.5314  -14.7783   17.0283 C   0  0  0  0  0  0  0  0  0  0  0  0
  -24.8267  -29.9983   22.1111 C   0  0  0  0  0  0  0  0  0  0  0  0
  -26.4143  -14.2237   17.9112 C   0  0  0  0  0  0  0  0  0  0  0  0
  -28.5625  -13.7078   16.6661 C   0  0  0  0  0  0  0  0  0  0  0  0
  -28.0086  -12.4448   18.7206 C   0  0  0  0  0  0  0  0  0  0  0  0
  -25.0358  -29.0640   20.9133 C   0  0  1  0  0  0  0  0  0  0  0  0
  -21.9801  -26.8311   20.5816 C   0  0  1  0  0  0  0  0  0  0  0  0
  -26.9916  -13.5142   19.1482 C   0  0  2  0  0  0  0  0  0  0  0  0
  -16.6990  -22.1979   23.8445 C   0  0  0  0  0  0  0  0  0  0  0  0
  -34.2735  -15.7518   18.2358 C   0  0  0  0  0  0  0  0  0  0  0  0
  -32.5502  -15.8893   16.4562 C   0  0  0  0  0  0  0  0  0  0  0  0
  -22.4166  -25.3570   24.9402 C   0  0  0  0  0  0  0  0  0  0  0  0
  -20.7173  -23.6762   25.6856 C   0  0  0  0  0  0  0  0  0  0  0  0
  -20.0668  -26.0692   25.4153 C   0  0  0  0  0  0  0  0  0  0  0  0
  -30.5058  -16.4443   22.0505 C   0  0  0  0  0  0  0  0  0  0  0  0
  -31.3474  -12.8970   16.0493 C   0  0  0  0  0  0  0  0  0  0  0  0
  -17.1860  -22.8195   20.1226 C   0  0  0  0  0  0  0  0  0  0  0  0
  -26.5044  -20.2180   18.3504 C   0  0  0  0  0  0  0  0  0  0  0  0
  -27.2173  -19.4471   19.4559 C   0  0  0  0  0  0  0  0  0  0  0  0
  -32.6773  -13.8379   17.9018 C   0  0  0  0  0  0  0  0  0  0  0  0
  -25.2998  -20.9814   18.8848 C   0  0  0  0  0  0  0  0  0  1  0  0
  -28.3958  -18.6497   18.9153 C   0  0  0  0  0  0  0  0  0  0  0  0
  -20.4971  -24.6619   23.3595 C   0  0  1  0  0  0  0  0  0  0  0  0
  -17.2013  -22.9425   22.6173 C   0  0  2  0  0  0  0  0  0  0  0  0
  -32.7624  -15.4137   17.9379 C   0  0  0  0  0  0  0  0  0  0  0  0
  -20.9372  -24.9385   24.8248 C   0  0  0  0  0  0  0  0  0  0  0  0
  -25.5102  -11.6663   19.8357 N   0  0  0  0  0  0  0  0  0  0  0  0
  -31.8119  -15.7644   20.1467 N   0  0  0  0  0  0  0  0  0  0  0  0
  -25.8989  -12.9381   20.0294 N   0  0  0  0  0  0  0  0  0  0  0  0
  -30.7845  -16.4809   20.6336 N   0  0  0  0  0  0  0  0  0  0  0  0
  -21.5746  -25.6663   21.3710 N   0  0  0  0  0  0  0  0  0  0  0  0
  -29.0521  -13.0235   17.8707 N   0  0  0  0  0  0  0  0  0  0  0  0
  -25.4980  -14.8532   21.3645 N   0  0  0  0  0  0  0  0  0  0  0  0
  -22.5841  -11.8149   22.9995 N   0  0  0  0  0  0  0  0  0  0  0  0
  -23.7856  -28.4422   20.5329 N   0  0  0  0  0  0  0  0  0  0  0  0
  -19.0936  -24.2899   23.2172 N   0  0  0  0  0  0  0  0  0  0  0  0
  -31.3822  -13.3652   17.4334 N   0  0  0  0  0  0  0  0  0  0  0  0
  -16.7784  -22.1877   21.4039 N   0  3  0  0  0  0  0  0  0  0  0  0
  -23.3362  -13.9715   23.2045 O   0  0  0  0  0  0  0  0  0  0  0  0
  -23.8283  -26.6695   22.0422 O   0  0  0  0  0  0  0  0  0  0  0  0
  -20.1281  -26.9129   22.7088 O   0  0  0  0  0  0  0  0  0  0  0  0
  -19.4755  -22.2397   22.2034 O   0  0  0  0  0  0  0  0  0  0  0  0
  -30.6013  -13.0389   19.5761 O   0  0  0  0  0  0  0  0  0  0  0  0
  -21.9304   -6.5813   21.2056 O   0  0  0  0  0  0  0  0  0  0  0  0
  -24.6516  -21.6717   17.8174 O   0  0  0  0  0  0  0  0  0  1  0  0
  -29.0235  -17.9691   19.9932 O   0  0  0  0  0  0  0  0  0  0  0  0
  -21.2162   -4.5151   26.2677 F   0  0  0  0  0  0  0  0  0  0  0  0
  -22.9987   -4.1279   21.8999 F   0  0  0  0  0  0  0  0  0  0  0  0
  1  2  1  0  0  0  0
  1  5  2  0  0  0  0
  2  6  2  0  0  0  0
  3  8  2  0  0  0  0
  3 16  1  0  0  0  0
  4  9  1  0  0  0  0
  4 16  2  0  0  0  0
  5 18  1  0  0  0  0
  6 20  1  0  0  0  0
  7 10  2  0  0  0  0
  7 19  1  0  0  0  0
  8 22  1  0  0  0  0
  9 22  2  0  0  0  0
 10 23  1  0  0  0  0
 11 12  2  0  0  0  0
 11 24  1  0  0  0  0
 12 25  1  0  0  0  0
 13 21  1  0  0  0  0
 13 23  2  0  0  0  0
 14 25  2  0  0  0  0
 14 26  1  0  0  0  0
 15 28  1  0  0  0  0
 15 30  2  0  0  0  0
 16 27  1  0  0  0  0
 17 27  1  0  0  0  0
 17 29  2  0  0  0  0
 17 31  1  0  0  0  0
 18 20  2  0  0  0  0
 18 36  1  0  0  0  0
 19 21  2  0  0  0  0
 19 37  1  0  0  0  0
 20 45  1  0  0  0  0
 21 38  1  0  0  0  0
 22 83  1  0  0  0  0
 23 84  1  0  0  0  0
 24 26  2  0  0  0  0
 24 83  1  0  0  0  0
 25 86  1  0  0  0  0
 26 87  1  0  0  0  0
 27 66  2  0  0  0  0
 28 64  1  0  0  0  0
 28 67  2  0  0  0  0
 29 68  1  0  0  0  0
 29 72  1  0  0  0  0
 30 69  1  0  0  0  0
 30 85  1  0  0  0  0
 31 73  1  0  0  0  0
 31 78  2  0  0  0  0
 32 46  1  0  0  0  0
 32 74  1  0  0  0  0
 32 79  2  0  0  0  0
 33 62  1  0  0  0  0
 33 70  1  0  0  0  0
 33 80  2  0  0  0  0
 34 63  1  0  0  0  0
 34 75  1  0  0  0  0
 34 81  2  0  0  0  0
 35 71  1  0  0  0  0
 35 76  1  0  0  0  0
 35 82  2  0  0  0  0
 36 39  1  0  0  0  0
 37 46  1  0  0  0  0
 38 70  1  0  0  0  0
 39 41  1  0  0  0  0
 40 42  1  0  0  0  0
 40 43  1  0  0  0  0
 41 45  1  0  0  0  0
 42 47  1  0  0  0  0
 43 71  1  0  0  0  0
 44 47  1  0  0  0  0
 44 71  1  0  0  0  0
 45 74  1  0  0  0  0
 46 70  1  0  0  0  0
 47 68  1  0  0  0  0
 48 63  1  0  0  0  0
 49 64  1  0  0  0  0
 50 64  1  0  0  0  0
 51 65  1  0  0  0  0
 52 65  1  0  0  0  0
 53 65  1  0  0  0  0
 54 69  1  0  0  0  0
 55 76  1  0  0  0  0
 56 77  1  0  0  0  0
 57 58  1  0  0  0  0
 57 60  1  0  0  0  0
 58 61  1  0  0  0  0
 59 64  1  0  0  0  0
 59 76  1  0  0  0  0
 60 84  1  0  0  0  0
 61 85  1  0  0  0  0
 62 65  1  0  0  0  0
 62 75  1  0  0  0  0
 63 77  1  0  0  0  0
 66 68  1  0  0  0  0
 67 69  1  0  0  0  0
M  CHG  1  77   1
M  ISO  4  35 100  60 101  76 100  84 101
M  END
> <Batch ID>
0063

> <Smiles>
CNC(C)C(=O)NC(C(=O)N1Cc2cc([101O:1][101CH2:1]CCCOc3cc(C(C)(C)C[100N:0](C)[100C:0](=O)N4CCCC(n5nc(-c6ccc(Oc7ccc(F)cc7F)cc6)c(C(N)=O)c5N)C4)nn3C)ccc2CC1C(=O)NC1CCCc2ccccc21)C(C)(C)C

> <Shape>
0.248

> <Color>
0.120

> <Negative vol penalty>
0.000

$$$$

  -OEChem-04052318023D

 83 91  0     1  0  0  0  0  0999 V2000
  -32.4610  -14.3024   20.1462 C   0  0  0  0  0  0  0  0  0  0  0  0
  -31.6124  -15.3405   20.5174 C   0  0  0  0  0  0  0  0  0  0  0  0
  -24.5823  -27.9547   19.3980 C   0  0  0  0  0  0  0  0  0  0  0  0
  -24.4888  -27.0160   21.6222 C   0  0  0  0  0  0  0  0  0  0  0  0
  -31.9303  -13.1174   19.6383 C   0  0  0  0  0  0  0  0  0  0  0  0
  -30.2324  -15.1945   20.3797 C   0  0  0  0  0  0  0  0  0  0  0  0
  -27.6914  -16.8225   24.4463 C   0  0  0  0  0  0  0  0  0  0  0  0
  -23.1966  -27.8373   19.2901 C   0  0  0  0  0  0  0  0  0  0  0  0
  -23.1031  -26.8987   21.5144 C   0  0  0  0  0  0  0  0  0  0  0  0
  -27.5247  -18.1999   24.5836 C   0  0  0  0  0  0  0  0  0  0  0  0
  -20.4065  -28.9195   21.7697 C   0  0  0  0  0  0  0  0  0  0  0  0
  -19.6363  -29.3283   22.8584 C   0  0  0  0  0  0  0  0  0  0  0  0
  -25.2815  -18.0087   23.7173 C   0  0  0  0  0  0  0  0  0  0  0  0
  -18.7312  -27.0970   23.0560 C   0  0  0  0  0  0  0  0  0  0  0  0
  -28.3241  -22.7388   23.0306 C   0  0  0  0  0  0  0  0  0  0  0  0
  -25.2284  -27.5440   20.5640 C   0  0  0  0  0  0  0  0  0  0  0  0
  -27.3843  -28.7653   21.1710 C   0  0  0  0  0  0  0  0  0  0  0  0
  -30.5426  -12.9532   19.5034 C   0  0  0  0  0  0  0  0  0  0  0  0
  -26.6564  -16.0281   23.9324 C   0  0  0  0  0  0  0  0  0  0  0  0
  -29.6827  -14.0067   19.8682 C   0  0  0  0  0  0  0  0  0  0  0  0
  -25.4366  -16.6212   23.5768 C   0  0  0  0  0  0  0  0  0  0  0  0
  -27.1851  -22.1745   22.5102 C   0  0  0  0  0  0  0  0  0  0  0  0
  -22.4570  -27.3093   20.3483 C   0  0  0  0  0  0  0  0  0  0  0  0
  -26.3206  -18.7936   24.2164 C   0  0  0  0  0  0  0  0  0  0  0  0
  -20.3390  -27.5994   21.3241 C   0  0  0  0  0  0  0  0  0  0  0  0
  -18.7987  -28.4171   23.5016 C   0  0  0  0  0  0  0  0  0  0  0  0
  -19.5014  -26.6882   21.9673 C   0  0  0  0  0  0  0  0  0  0  0  0
  -26.6599  -27.6645   20.6758 C   0  0  0  0  0  0  0  0  0  0  0  0
  -27.6106  -21.5586   21.3179 C   0  0  0  0  0  0  0  0  0  0  0  0
  -28.7001  -28.3854   21.0669 C   0  0  0  0  0  0  0  0  0  0  0  0
  -26.9101  -30.0191   21.6797 C   0  0  0  0  0  0  0  0  0  0  0  0
  -26.3144  -14.1662   21.3789 C   0  0  0  0  0  0  0  0  0  0  0  0
  -23.4798  -13.4341   22.7757 C   0  0  0  0  0  0  0  0  0  0  0  0
  -31.3136  -22.9768   20.8979 C   0  0  0  0  0  0  0  0  0  0  0  0
  -20.9829  -14.3473   24.9154 C   0  0  0  0  0  0  0  0  0  0  0  0
  -30.0181  -11.6719   18.9052 C   0  0  0  0  0  0  0  0  0  0  0  0
  -26.8426  -14.5401   23.8155 C   0  0  0  0  0  0  0  0  0  0  0  0
  -24.2873  -15.8098   23.0390 C   0  0  0  0  0  0  0  0  0  0  0  0
  -28.5256  -11.4557   19.1416 C   0  0  0  0  0  0  0  0  0  0  0  0
  -31.6122  -25.6123   18.4886 C   0  0  0  0  0  0  0  0  0  0  0  0
  -27.7462  -12.7306   18.8351 C   0  0  0  0  0  0  0  0  0  0  0  0
  -30.4256  -26.5224   18.8031 C   0  0  0  0  0  0  0  0  0  0  0  0
  -31.2666  -24.1445   18.7188 C   0  0  0  0  0  0  0  0  0  0  0  0
  -29.5652  -24.7582   20.4070 C   0  0  0  0  0  0  0  0  0  0  0  0
  -28.1791  -13.8769   19.7571 C   0  0  1  0  0  0  0  0  0  0  0  0
  -25.9033  -13.8984   22.7990 C   0  0  1  0  0  0  0  0  0  0  0  0
  -29.8814  -26.2523   20.2171 C   0  0  2  0  0  0  0  0  0  0  0  0
  -26.7957  -20.8011   20.3520 C   0  0  0  0  0  0  0  0  0  0  0  0
  -18.7793  -13.5600   25.8219 C   0  0  0  0  0  0  0  0  0  0  0  0
  -24.7223  -22.8861   22.1829 C   0  0  0  0  0  0  0  0  0  0  0  0
  -25.7935  -23.0294   24.4212 C   0  0  0  0  0  0  0  0  0  0  0  0
  -31.4877  -21.7254   23.0254 C   0  0  0  0  0  0  0  0  0  0  0  0
  -30.9501  -24.1614   22.9886 C   0  0  0  0  0  0  0  0  0  0  0  0
  -22.1315  -14.1852   20.1436 C   0  0  0  0  0  0  0  0  0  0  0  0
  -19.9533  -14.3001   21.3726 C   0  0  0  0  0  0  0  0  0  0  0  0
  -21.2003  -12.1433   21.2472 C   0  0  0  0  0  0  0  0  0  0  0  0
  -22.0072  -14.3085   27.6918 C   0  0  0  0  0  0  0  0  0  0  0  0
  -25.2759  -20.7783   23.4254 C   0  0  0  0  0  0  0  0  0  1  0  0
  -22.0818  -14.0009   22.7184 C   0  0  1  0  0  0  0  0  0  0  0  0
  -20.2853  -13.5902   26.0310 C   0  0  2  0  0  0  0  0  0  0  0  0
  -25.7660  -22.2146   23.1076 C   0  0  0  0  0  0  0  0  0  0  0  0
  -30.7107  -22.8192   22.2711 C   0  0  0  0  0  0  0  0  0  0  0  0
  -21.3638  -13.6732   21.3787 C   0  0  0  0  0  0  0  0  0  0  0  0
  -27.4500  -26.6606   20.2859 N   0  0  0  0  0  0  0  0  0  0  0  0
  -28.9179  -21.7168   21.0939 N   0  0  0  0  0  0  0  0  0  0  0  0
  -29.3236  -22.4386   22.1525 N   0  0  0  0  0  0  0  0  0  0  0  0
  -28.6845  -27.1292   20.5360 N   0  0  0  0  0  0  0  0  0  0  0  0
  -24.5204  -14.3597   22.9375 N   0  0  0  0  0  0  0  0  0  0  0  0
  -30.7322  -23.9332   20.0652 N   0  0  0  0  0  0  0  0  0  0  0  0
  -29.8573  -29.0067   21.3786 N   0  0  0  0  0  0  0  0  0  0  0  0
  -25.5275  -30.2454   21.7163 N   0  0  0  0  0  0  0  0  0  0  0  0
  -27.5857  -13.7226   21.0680 N   0  0  0  0  0  0  0  0  0  0  0  0
  -21.3910  -13.5042   23.9035 N   0  0  0  0  0  0  0  0  0  0  0  0
  -20.5643  -14.2329   27.3464 N   0  3  0  0  0  0  0  0  0  0  0  0
  -27.6901  -30.9187   22.0745 O   0  0  0  0  0  0  0  0  0  0  0  0
  -25.5354  -14.7321   20.6208 O   0  0  0  0  0  0  0  0  0  0  0  0
  -23.6419  -12.2144   22.6875 O   0  0  0  0  0  0  0  0  0  0  0  0
  -32.2744  -22.2721   20.5777 O   0  0  0  0  0  0  0  0  0  0  0  0
  -21.1459  -15.5653   24.9375 O   0  0  0  0  0  0  0  0  0  0  0  0
  -21.1048  -27.1949   20.2435 O   0  0  0  0  0  0  0  0  0  0  0  0
  -26.1555  -20.1379   24.3488 O   0  0  0  0  0  0  0  0  0  1  0  0
  -18.0604  -28.8094   24.5481 F   0  0  0  0  0  0  0  0  0  0  0  0
  -19.4332  -25.4183   21.5445 F   0  0  0  0  0  0  0  0  0  0  0  0
  1  2  1  0  0  0  0
  1  5  2  0  0  0  0
  2  6  2  0  0  0  0
  3  8  2  0  0  0  0
  3 16  1  0  0  0  0
  4  9  1  0  0  0  0
  4 16  2  0  0  0  0
  5 18  1  0  0  0  0
  6 20  1  0  0  0  0
  7 10  2  0  0  0  0
  7 19  1  0  0  0  0
  8 23  1  0  0  0  0
  9 23  2  0  0  0  0
 10 24  1  0  0  0  0
 11 12  2  0  0  0  0
 11 25  1  0  0  0  0
 12 26  1  0  0  0  0
 13 21  1  0  0  0  0
 13 24  2  0  0  0  0
 14 26  2  0  0  0  0
 14 27  1  0  0  0  0
 15 22  2  0  0  0  0
 15 66  1  0  0  0  0
 16 28  1  0  0  0  0
 17 28  1  0  0  0  0
 17 30  2  0  0  0  0
 17 31  1  0  0  0  0
 18 20  2  0  0  0  0
 18 36  1  0  0  0  0
 19 21  2  0  0  0  0
 19 37  1  0  0  0  0
 20 45  1  0  0  0  0
 21 38  1  0  0  0  0
 22 29  1  0  0  0  0
 22 61  1  0  0  0  0
 23 80  1  0  0  0  0
 24 81  1  0  0  0  0
 25 27  2  0  0  0  0
 25 80  1  0  0  0  0
 26 82  1  0  0  0  0
 27 83  1  0  0  0  0
 28 64  2  0  0  0  0
 29 48  1  0  0  0  0
 29 65  2  0  0  0  0
 30 67  1  0  0  0  0
 30 70  1  0  0  0  0
 31 71  1  0  0  0  0
 31 75  2  0  0  0  0
 32 46  1  0  0  0  0
 32 72  1  0  0  0  0
 32 76  2  0  0  0  0
 33 59  1  0  0  0  0
 33 68  1  0  0  0  0
 33 77  2  0  0  0  0
 34 62  1  0  0  0  0
 34 69  1  0  0  0  0
 34 78  2  0  0  0  0
 35 60  1  0  0  0  0
 35 73  1  0  0  0  0
 35 79  2  0  0  0  0
 36 39  1  0  0  0  0
 37 46  1  0  0  0  0
 38 68  1  0  0  0  0
 39 41  1  0  0  0  0
 40 42  1  0  0  0  0
 40 43  1  0  0  0  0
 41 45  1  0  0  0  0
 42 47  1  0  0  0  0
 43 69  1  0  0  0  0
 44 47  1  0  0  0  0
 44 69  1  0  0  0  0
 45 72  1  0  0  0  0
 46 68  1  0  0  0  0
 47 67  1  0  0  0  0
 49 60  1  0  0  0  0
 50 61  1  0  0  0  0
 51 61  1  0  0  0  0
 52 62  1  0  0  0  0
 53 62  1  0  0  0  0
 54 63  1  0  0  0  0
 55 63  1  0  0  0  0
 56 63  1  0  0  0  0
 57 74  1  0  0  0  0
 58 61  1  0  0  0  0
 58 81  1  0  0  0  0
 59 63  1  0  0  0  0
 59 73  1  0  0  0  0
 60 74  1  0  0  0  0
 62 66  1  0  0  0  0
 64 67  1  0  0  0  0
 65 66  1  0  0  0  0
M  CHG  1  74   1
M  ISO  4  34 100  58 101  62 100  81 101
M  END
> <Batch ID>
0063

> <Smiles>
CNC(C)C(=O)NC(C(=O)N1Cc2cc([101O:1][101CH2:1]C(C)(C)c3cn([100C:0](C)(C)[100C:0](=O)N4CCCC(n5nc(-c6ccc(Oc7ccc(F)cc7F)cc6)c(C(N)=O)c5N)C4)nc3C)ccc2CC1C(=O)NC1CCCc2ccccc21)C(C)(C)C

> <Shape>
0.245

> <Color>
0.056

> <Negative vol penalty>
0.000

$$$$

  -OEChem-04052318023D

 86 94  0     1  0  0  0  0  0999 V2000
  -25.8937  -35.4664   23.6688 C   0  0  0  0  0  0  0  0  0  0  0  0
  -26.4945  -34.2527   23.3505 C   0  0  0  0  0  0  0  0  0  0  0  0
  -23.5882  -11.8937   19.5845 C   0  0  0  0  0  0  0  0  0  0  0  0
  -25.0052  -11.6364   21.5243 C   0  0  0  0  0  0  0  0  0  0  0  0
  -24.5855  -35.4903   24.1505 C   0  0  0  0  0  0  0  0  0  0  0  0
  -25.7877  -33.0619   23.5148 C   0  0  0  0  0  0  0  0  0  0  0  0
  -26.2980  -29.9388   19.5612 C   0  0  0  0  0  0  0  0  0  0  0  0
  -23.6200  -10.5146   19.3783 C   0  0  0  0  0  0  0  0  0  0  0  0
  -25.0370  -10.2572   21.3181 C   0  0  0  0  0  0  0  0  0  0  0  0
  -27.4852  -29.2134   19.4719 C   0  0  0  0  0  0  0  0  0  0  0  0
  -25.1965   -6.6303   21.5132 C   0  0  0  0  0  0  0  0  0  0  0  0
  -25.0177   -5.8037   22.6224 C   0  0  0  0  0  0  0  0  0  0  0  0
  -26.3655  -27.2804   20.3824 C   0  0  0  0  0  0  0  0  0  0  0  0
  -22.8391   -6.7785   22.9976 C   0  0  0  0  0  0  0  0  0  0  0  0
  -24.2809  -12.4547   20.6575 C   0  0  0  0  0  0  0  0  0  0  0  0
  -23.3214  -14.6025   21.6444 C   0  0  0  0  0  0  0  0  0  0  0  0
  -23.8590  -34.2999   24.3115 C   0  0  0  0  0  0  0  0  0  0  0  0
  -25.1364  -29.3427   20.0728 C   0  0  0  0  0  0  0  0  0  0  0  0
  -24.4690  -33.0698   24.0003 C   0  0  0  0  0  0  0  0  0  0  0  0
  -25.1642  -27.9996   20.4748 C   0  0  0  0  0  0  0  0  0  0  0  0
  -24.3444   -9.6963   20.2451 C   0  0  0  0  0  0  0  0  0  0  0  0
  -27.5199  -27.8848   19.8852 C   0  0  0  0  0  0  0  0  0  0  0  0
  -24.1967   -7.5311   21.1463 C   0  0  0  0  0  0  0  0  0  0  0  0
  -23.8390   -5.8778   23.3646 C   0  0  0  0  0  0  0  0  0  0  0  0
  -23.0180   -7.6051   21.8884 C   0  0  0  0  0  0  0  0  0  0  0  0
  -24.2489  -13.8793   20.8707 C   0  0  0  0  0  0  0  0  0  0  0  0
  -23.7220  -15.9109   21.5264 C   0  0  0  0  0  0  0  0  0  0  0  0
  -26.2935  -21.7774   18.5617 C   0  0  0  0  0  0  0  0  0  0  0  0
  -28.3630  -22.2801   17.8538 C   0  0  0  0  0  0  0  0  0  0  0  0
  -28.0665  -21.3103   19.8559 C   0  0  0  0  0  0  0  0  0  0  0  0
  -22.1982  -14.1334   22.4020 C   0  0  0  0  0  0  0  0  0  0  0  0
  -23.2498  -29.8873   22.5724 C   0  0  0  0  0  0  0  0  0  0  0  0
  -21.4378  -27.5628   21.2176 C   0  0  0  0  0  0  0  0  0  0  0  0
  -27.7536  -19.6538   21.6482 C   0  0  0  0  0  0  0  0  0  0  0  0
  -21.2777  -24.8407   19.1655 C   0  0  0  0  0  0  0  0  0  0  0  0
  -22.4639  -34.3722   24.8801 C   0  0  0  0  0  0  0  0  0  0  0  0
  -23.8569  -30.1309   20.1376 C   0  0  0  0  0  0  0  0  0  0  0  0
  -23.9394  -27.3072   21.0123 C   0  0  0  0  0  0  0  0  0  0  0  0
  -21.6540  -33.0953   24.6709 C   0  0  0  0  0  0  0  0  0  0  0  0
  -27.0903  -18.0682   18.4431 C   0  0  0  0  0  0  0  0  0  0  0  0
  -22.4857  -31.8698   25.0357 C   0  0  0  0  0  0  0  0  0  0  0  0
  -26.2355  -16.8736   18.8642 C   0  0  0  0  0  0  0  0  0  0  0  0
  -28.1616  -18.3861   19.4830 C   0  0  0  0  0  0  0  0  0  0  0  0
  -26.7644  -17.4161   21.2806 C   0  0  0  0  0  0  0  0  0  0  0  0
  -23.7263  -31.7588   24.1413 C   0  0  1  0  0  0  0  0  0  0  0  0
  -22.8640  -29.5757   21.1541 C   0  0  1  0  0  0  0  0  0  0  0  0
  -25.6520  -17.0817   20.2727 C   0  0  2  0  0  0  0  0  0  0  0  0
  -24.8197  -21.7638   18.3369 C   0  0  0  0  0  0  0  0  0  0  0  0
  -19.6670  -23.1298   18.2846 C   0  0  0  0  0  0  0  0  0  0  0  0
  -30.0258  -20.0636   21.0024 C   0  0  0  0  0  0  0  0  0  0  0  0
  -21.5112  -26.1148   23.9024 C   0  0  0  0  0  0  0  0  0  0  0  0
  -20.7385  -24.0434   22.7275 C   0  0  0  0  0  0  0  0  0  0  0  0
  -19.2893  -26.0737   22.7553 C   0  0  0  0  0  0  0  0  0  0  0  0
  -21.7213  -25.6946   16.3668 C   0  0  0  0  0  0  0  0  0  0  0  0
  -29.2810  -22.8513   16.8025 C   0  0  0  0  0  0  0  0  0  0  0  0
  -30.1870  -23.9761   17.3161 C   0  0  0  0  0  0  0  0  0  0  0  0
  -29.4059  -25.2058   17.7898 C   0  0  0  0  0  0  0  0  0  0  0  0
  -30.3454  -26.2873   18.3206 C   0  0  0  0  0  0  0  0  0  0  0  0
  -28.7107  -21.8229   22.2625 C   0  0  0  0  0  0  0  0  0  0  0  0
  -29.5822  -27.5305   18.7550 C   0  0  0  0  0  0  0  0  0  1  0  0
  -21.3738  -26.0583   21.3248 C   0  0  1  0  0  0  0  0  0  0  0  0
  -20.3220  -24.4808   18.0423 C   0  0  2  0  0  0  0  0  0  0  0  0
  -28.6329  -20.7593   21.1201 C   0  0  1  0  0  0  0  0  0  0  0  0
  -20.7519  -25.5859   22.6692 C   0  0  0  0  0  0  0  0  0  0  0  0
  -25.1693  -14.6633   20.3030 N   0  0  0  0  0  0  0  0  0  0  0  0
  -27.0482  -22.3014   17.5823 N   0  0  0  0  0  0  0  0  0  0  0  0
  -26.7312  -21.2644   19.7229 N   0  0  0  0  0  0  0  0  0  0  0  0
  -28.9437  -21.8021   18.9661 N   0  0  0  0  0  0  0  0  0  0  0  0
  -24.8221  -15.8927   20.7203 N   0  0  0  0  0  0  0  0  0  0  0  0
  -22.7141  -28.1219   21.0620 N   0  0  0  0  0  0  0  0  0  0  0  0
  -27.5687  -18.5498   20.8157 N   0  0  0  0  0  0  0  0  0  0  0  0
  -23.2371  -17.0638   22.0345 N   0  0  0  0  0  0  0  0  0  0  0  0
  -21.9288  -12.7581   22.4155 N   0  0  0  0  0  0  0  0  0  0  0  0
  -23.3662  -31.2380   22.8399 N   0  0  0  0  0  0  0  0  0  0  0  0
  -20.6593  -25.5948   20.1403 N   0  0  0  0  0  0  0  0  0  0  0  0
  -29.5801  -22.9634   21.8760 N   0  3  0  0  0  0  0  0  0  0  0  0
  -21.0484  -24.4245   16.7423 N   0  3  0  0  0  0  0  0  0  0  0  0
  -21.4458  -14.9126   23.0347 O   0  0  0  0  0  0  0  0  0  0  0  0
  -23.4273  -28.9704   23.3657 O   0  0  0  0  0  0  0  0  0  0  0  0
  -20.3932  -28.2173   21.2629 O   0  0  0  0  0  0  0  0  0  0  0  0
  -27.2452  -19.7712   22.7662 O   0  0  0  0  0  0  0  0  0  0  0  0
  -22.4541  -24.4850   19.1788 O   0  0  0  0  0  0  0  0  0  0  0  0
  -24.3754   -8.3505   20.0443 O   0  0  0  0  0  0  0  0  0  0  0  0
  -28.6776  -27.1747   19.7998 O   0  0  0  0  0  0  0  0  0  1  0  0
  -23.6668   -5.0828   24.4289 F   0  0  0  0  0  0  0  0  0  0  0  0
  -22.0534   -8.4677   21.5400 F   0  0  0  0  0  0  0  0  0  0  0  0
  1  2  1  0  0  0  0
  1  5  2  0  0  0  0
  2  6  2  0  0  0  0
  3  8  2  0  0  0  0
  3 15  1  0  0  0  0
  4  9  1  0  0  0  0
  4 15  2  0  0  0  0
  5 17  1  0  0  0  0
  6 19  1  0  0  0  0
  7 10  2  0  0  0  0
  7 18  1  0  0  0  0
  8 21  1  0  0  0  0
  9 21  2  0  0  0  0
 10 22  1  0  0  0  0
 11 12  2  0  0  0  0
 11 23  1  0  0  0  0
 12 24  1  0  0  0  0
 13 20  1  0  0  0  0
 13 22  2  0  0  0  0
 14 24  2  0  0  0  0
 14 25  1  0  0  0  0
 15 26  1  0  0  0  0
 16 26  1  0  0  0  0
 16 27  2  0  0  0  0
 16 31  1  0  0  0  0
 17 19  2  0  0  0  0
 17 36  1  0  0  0  0
 18 20  2  0  0  0  0
 18 37  1  0  0  0  0
 19 45  1  0  0  0  0
 20 38  1  0  0  0  0
 21 83  1  0  0  0  0
 22 84  1  0  0  0  0
 23 25  2  0  0  0  0
 23 83  1  0  0  0  0
 24 85  1  0  0  0  0
 25 86  1  0  0  0  0
 26 65  2  0  0  0  0
 27 69  1  0  0  0  0
 27 72  1  0  0  0  0
 28 48  1  0  0  0  0
 28 66  2  0  0  0  0
 28 67  1  0  0  0  0
 29 55  1  0  0  0  0
 29 66  1  0  0  0  0
 29 68  2  0  0  0  0
 30 63  1  0  0  0  0
 30 67  2  0  0  0  0
 30 68  1  0  0  0  0
 31 73  1  0  0  0  0
 31 78  2  0  0  0  0
 32 46  1  0  0  0  0
 32 74  1  0  0  0  0
 32 79  2  0  0  0  0
 33 61  1  0  0  0  0
 33 70  1  0  0  0  0
 33 80  2  0  0  0  0
 34 63  1  0  0  0  0
 34 71  1  0  0  0  0
 34 81  2  0  0  0  0
 35 62  1  0  0  0  0
 35 75  1  0  0  0  0
 35 82  2  0  0  0  0
 36 39  1  0  0  0  0
 37 46  1  0  0  0  0
 38 70  1  0  0  0  0
 39 41  1  0  0  0  0
 40 42  1  0  0  0  0
 40 43  1  0  0  0  0
 41 45  1  0  0  0  0
 42 47  1  0  0  0  0
 43 71  1  0  0  0  0
 44 47  1  0  0  0  0
 44 71  1  0  0  0  0
 45 74  1  0  0  0  0
 46 70  1  0  0  0  0
 47 69  1  0  0  0  0
 49 62  1  0  0  0  0
 50 63  1  0  0  0  0
 51 64  1  0  0  0  0
 52 64  1  0  0  0  0
 53 64  1  0  0  0  0
 54 77  1  0  0  0  0
 55 56  1  0  0  0  0
 56 57  1  0  0  0  0
 57 58  1  0  0  0  0
 58 60  1  0  0  0  0
 59 63  1  0  0  0  0
 59 76  1  0  0  0  0
 60 84  1  0  0  0  0
 61 64  1  0  0  0  0
 61 75  1  0  0  0  0
 62 77  1  0  0  0  0
 65 69  1  0  0  0  0
M  CHG  2  76   1  77   1
M  ISO  4  34 100  60 101  63 100  84 101
M  END
> <Batch ID>
0063

> <Smiles>
CNC(C)C(=O)NC(C(=O)N1Cc2cc([101O:1][101CH2:1]CCCCc3nc(C)nc([100C:0](C)(CN)[100C:0](=O)N4CCCC(n5nc(-c6ccc(Oc7ccc(F)cc7F)cc6)c(C(N)=O)c5N)C4)n3)ccc2CC1C(=O)NC1CCCc2ccccc21)C(C)(C)C

> <Shape>
0.285

> <Color>
0.080

> <Negative vol penalty>
0.000

$$$$

  -OEChem-04052318023D

 88 96  0     1  0  0  0  0  0999 V2000
  -23.8689  -27.0731   26.5487 C   0  0  0  0  0  0  0  0  0  0  0  0
  -24.5219  -25.8464   26.6129 C   0  0  0  0  0  0  0  0  0  0  0  0
  -23.2842   -9.7975   19.9084 C   0  0  0  0  0  0  0  0  0  0  0  0
  -23.7221   -9.9370   22.2803 C   0  0  0  0  0  0  0  0  0  0  0  0
  -23.1838  -27.5560   27.6629 C   0  0  0  0  0  0  0  0  0  0  0  0
  -24.4911  -25.1023   27.7918 C   0  0  0  0  0  0  0  0  0  0  0  0
  -23.5536  -20.1945   26.9676 C   0  0  0  0  0  0  0  0  0  0  0  0
  -22.5519   -8.6280   20.1123 C   0  0  0  0  0  0  0  0  0  0  0  0
  -22.9897   -8.7675   22.4842 C   0  0  0  0  0  0  0  0  0  0  0  0
  -24.6129  -19.4120   26.5100 C   0  0  0  0  0  0  0  0  0  0  0  0
  -19.7378   -7.8698   22.6832 C   0  0  0  0  0  0  0  0  0  0  0  0
  -18.8293   -7.8521   23.7415 C   0  0  0  0  0  0  0  0  0  0  0  0
  -24.9645  -18.5885   28.7499 C   0  0  0  0  0  0  0  0  0  0  0  0
  -20.0218   -6.0002   24.7343 C   0  0  0  0  0  0  0  0  0  0  0  0
  -23.8694  -10.4520   20.9924 C   0  0  0  0  0  0  0  0  0  0  0  0
  -24.1402  -12.9809   20.7946 C   0  0  0  0  0  0  0  0  0  0  0  0
  -23.1365  -26.8130   28.8530 C   0  0  0  0  0  0  0  0  0  0  0  0
  -23.1982  -20.1881   28.3241 C   0  0  0  0  0  0  0  0  0  0  0  0
  -23.8059  -25.5764   28.9234 C   0  0  0  0  0  0  0  0  0  0  0  0
  -23.8987  -19.3698   29.2218 C   0  0  0  0  0  0  0  0  0  0  0  0
  -22.4046   -8.1130   21.4002 C   0  0  0  0  0  0  0  0  0  0  0  0
  -25.3204  -18.6111   27.4016 C   0  0  0  0  0  0  0  0  0  0  0  0
  -20.7883   -6.9526   22.6504 C   0  0  0  0  0  0  0  0  0  0  0  0
  -18.9713   -6.9173   24.7670 C   0  0  0  0  0  0  0  0  0  0  0  0
  -20.9303   -6.0179   23.6760 C   0  0  0  0  0  0  0  0  0  0  0  0
  -24.6265  -11.6598   20.7823 C   0  0  0  0  0  0  0  0  0  0  0  0
  -25.2463  -13.7562   20.5457 C   0  0  0  0  0  0  0  0  0  0  0  0
  -27.8454  -12.1357   25.3208 C   0  0  0  0  0  0  0  0  0  0  0  0
  -29.0011  -13.3077   24.0371 C   0  0  0  0  0  0  0  0  0  0  0  0
  -22.8079  -13.4640   21.0116 C   0  0  0  0  0  0  0  0  0  0  0  0
  -23.1111  -22.3738   30.6304 C   0  0  0  0  0  0  0  0  0  0  0  0
  -21.7411  -19.9692   32.3225 C   0  0  0  0  0  0  0  0  0  0  0  0
  -21.3043  -16.6118   32.7517 C   0  0  0  0  0  0  0  0  0  0  0  0
  -31.1497  -12.3495   21.3879 C   0  0  0  0  0  0  0  0  0  0  0  0
  -22.4231  -27.3980   30.0461 C   0  0  0  0  0  0  0  0  0  0  0  0
  -22.0360  -21.0175   28.7972 C   0  0  0  0  0  0  0  0  0  0  0  0
  -23.5439  -19.3118   30.6844 C   0  0  0  0  0  0  0  0  0  0  0  0
  -22.1237  -26.3749   31.1387 C   0  0  0  0  0  0  0  0  0  0  0  0
  -29.4883  -13.6533   18.3479 C   0  0  0  0  0  0  0  0  0  0  0  0
  -23.3549  -25.5198   31.4212 C   0  0  0  0  0  0  0  0  0  0  0  0
  -28.0176  -13.3318   18.6082 C   0  0  0  0  0  0  0  0  0  0  0  0
  -30.4173  -12.6696   19.0528 C   0  0  0  0  0  0  0  0  0  0  0  0
  -28.6995  -12.2284   20.7757 C   0  0  0  0  0  0  0  0  0  0  0  0
  -23.7745  -24.7285   30.1765 C   0  0  1  0  0  0  0  0  0  0  0  0
  -22.0901  -21.3251   30.2905 C   0  0  1  0  0  0  0  0  0  0  0  0
  -27.7374  -13.2287   20.1175 C   0  0  2  0  0  0  0  0  0  0  0  0
  -20.1609  -14.9489   34.2433 C   0  0  0  0  0  0  0  0  0  0  0  0
  -23.8612  -20.4379   34.4662 C   0  0  0  0  0  0  0  0  0  0  0  0
  -23.2789  -18.2027   35.4320 C   0  0  0  0  0  0  0  0  0  0  0  0
  -21.5611  -20.0097   35.3497 C   0  0  0  0  0  0  0  0  0  0  0  0
  -29.2215  -18.3387   27.1687 C   0  0  0  0  0  0  0  0  0  0  0  0
  -29.3074  -18.4404   24.6746 C   0  0  0  0  0  0  0  0  0  0  0  0
  -32.0554  -12.6955   23.6549 C   0  0  0  0  0  0  0  0  0  0  0  0
  -19.6926  -15.5382   30.5138 C   0  0  0  0  0  0  0  0  0  0  0  0
  -29.9558  -13.8396   23.0482 C   0  0  0  0  0  0  0  0  0  0  0  0
  -28.6436  -16.2865   25.8619 C   0  0  0  0  0  0  0  0  0  0  0  0
  -27.9722  -15.5922   24.6695 C   0  0  0  0  0  0  0  0  0  0  0  0
  -27.0887  -18.3355   25.8353 C   0  0  0  0  0  0  0  0  0  1  0  0
  -22.2527  -18.8584   33.2076 C   0  0  1  0  0  0  0  0  0  0  0  0
  -20.0548  -15.7788   32.9734 C   0  0  2  0  0  0  0  0  0  0  0  0
  -27.3179  -10.9515   26.0087 C   0  0  0  0  0  0  0  0  0  0  0  0
  -22.7466  -19.3795   34.5867 C   0  0  0  0  0  0  0  0  0  0  0  0
  -28.5498  -17.8384   25.8715 C   0  0  0  0  0  0  0  0  0  0  0  0
  -25.9392  -11.5957   20.5443 N   0  0  0  0  0  0  0  0  0  0  0  0
  -28.8368  -12.0527   24.3855 N   0  0  0  0  0  0  0  0  0  0  0  0
  -27.3859  -13.3632   25.5731 N   0  0  0  0  0  0  0  0  0  0  0  0
  -26.2872  -12.8862   20.4046 N   0  0  0  0  0  0  0  0  0  0  0  0
  -28.1415  -14.0938   24.7392 N   0  0  0  0  0  0  0  0  0  0  0  0
  -22.4038  -20.1457   31.0996 N   0  0  0  0  0  0  0  0  0  0  0  0
  -30.1011  -12.5587   20.4772 N   0  0  0  0  0  0  0  0  0  0  0  0
  -25.4203  -15.0904   20.4358 N   0  0  0  0  0  0  0  0  0  0  0  0
  -21.7901  -12.5313   21.2536 N   0  0  0  0  0  0  0  0  0  0  0  0
  -22.9105  -23.5824   29.9912 N   0  0  0  0  0  0  0  0  0  0  0  0
  -21.1784  -17.8748   33.2904 N   0  0  0  0  0  0  0  0  0  0  0  0
  -30.9906  -12.8763   22.6785 N   0  0  0  0  0  0  0  0  0  0  0  0
  -19.8379  -14.8545   31.8246 N   0  3  0  0  0  0  0  0  0  0  0  0
  -22.5252  -14.6856   20.9754 O   0  0  0  0  0  0  0  0  0  0  0  0
  -24.0132  -22.1067   31.4157 O   0  0  0  0  0  0  0  0  0  0  0  0
  -20.7841  -20.6503   32.6989 O   0  0  0  0  0  0  0  0  0  0  0  0
  -22.2946  -16.1836   32.1631 O   0  0  0  0  0  0  0  0  0  0  0  0
  -32.1741  -11.7356   21.0628 O   0  0  0  0  0  0  0  0  0  0  0  0
  -21.6899   -6.9720   21.5995 O   0  0  0  0  0  0  0  0  0  0  0  0
  -26.3552  -17.8469   26.9577 O   0  0  0  0  0  0  0  0  0  1  0  0
  -18.0997   -6.9015   25.7840 F   0  0  0  0  0  0  0  0  0  0  0  0
  -21.9382   -5.1351   23.6506 F   0  0  0  0  0  0  0  0  0  0  0  0
  -27.9030   -9.7645   25.6328 F   0  0  0  0  0  0  0  0  0  0  0  0
  -27.4602  -10.9756   27.3767 F   0  0  0  0  0  0  0  0  0  0  0  0
  -25.9734  -10.7521   25.8057 F   0  0  0  0  0  0  0  0  0  0  0  0
  1  2  1  0  0  0  0
  1  5  2  0  0  0  0
  2  6  2  0  0  0  0
  3  8  2  0  0  0  0
  3 15  1  0  0  0  0
  4  9  1  0  0  0  0
  4 15  2  0  0  0  0
  5 17  1  0  0  0  0
  6 19  1  0  0  0  0
  7 10  2  0  0  0  0
  7 18  1  0  0  0  0
  8 21  1  0  0  0  0
  9 21  2  0  0  0  0
 10 22  1  0  0  0  0
 11 12  2  0  0  0  0
 11 23  1  0  0  0  0
 12 24  1  0  0  0  0
 13 20  1  0  0  0  0
 13 22  2  0  0  0  0
 14 24  2  0  0  0  0
 14 25  1  0  0  0  0
 15 26  1  0  0  0  0
 16 26  1  0  0  0  0
 16 27  2  0  0  0  0
 16 30  1  0  0  0  0
 17 19  2  0  0  0  0
 17 35  1  0  0  0  0
 18 20  2  0  0  0  0
 18 36  1  0  0  0  0
 19 44  1  0  0  0  0
 20 37  1  0  0  0  0
 21 82  1  0  0  0  0
 22 83  1  0  0  0  0
 23 25  2  0  0  0  0
 23 82  1  0  0  0  0
 24 84  1  0  0  0  0
 25 85  1  0  0  0  0
 26 64  2  0  0  0  0
 27 67  1  0  0  0  0
 27 71  1  0  0  0  0
 28 61  1  0  0  0  0
 28 65  1  0  0  0  0
 28 66  2  0  0  0  0
 29 55  1  0  0  0  0
 29 65  2  0  0  0  0
 29 68  1  0  0  0  0
 30 72  1  0  0  0  0
 30 77  2  0  0  0  0
 31 45  1  0  0  0  0
 31 73  1  0  0  0  0
 31 78  2  0  0  0  0
 32 59  1  0  0  0  0
 32 69  1  0  0  0  0
 32 79  2  0  0  0  0
 33 60  1  0  0  0  0
 33 74  1  0  0  0  0
 33 80  2  0  0  0  0
 34 70  1  0  0  0  0
 34 75  1  0  0  0  0
 34 81  2  0  0  0  0
 35 38  1  0  0  0  0
 36 45  1  0  0  0  0
 37 69  1  0  0  0  0
 38 40  1  0  0  0  0
 39 41  1  0  0  0  0
 39 42  1  0  0  0  0
 40 44  1  0  0  0  0
 41 46  1  0  0  0  0
 42 70  1  0  0  0  0
 43 46  1  0  0  0  0
 43 70  1  0  0  0  0
 44 73  1  0  0  0  0
 45 69  1  0  0  0  0
 46 67  1  0  0  0  0
 47 60  1  0  0  0  0
 48 62  1  0  0  0  0
 49 62  1  0  0  0  0
 50 62  1  0  0  0  0
 51 63  1  0  0  0  0
 52 63  1  0  0  0  0
 53 75  1  0  0  0  0
 54 76  1  0  0  0  0
 55 75  1  0  0  0  0
 56 57  1  0  0  0  0
 56 63  1  0  0  0  0
 57 68  1  0  0  0  0
 58 63  1  0  0  0  0
 58 83  1  0  0  0  0
 59 62  1  0  0  0  0
 59 74  1  0  0  0  0
 60 76  1  0  0  0  0
 61 86  1  0  0  0  0
 61 87  1  0  0  0  0
 61 88  1  0  0  0  0
 64 67  1  0  0  0  0
 66 68  1  0  0  0  0
M  CHG  1  76   1
M  ISO  4  34 100  58 101  75 100  83 101
M  END
> <Batch ID>
0063

> <Smiles>
CNC(C)C(=O)NC(C(=O)N1Cc2cc([101O:1][101CH2:1]C(C)(C)CCn3nc(C(F)(F)F)nc3C[100N:0](C)[100C:0](=O)N3CCCC(n4nc(-c5ccc(Oc6ccc(F)cc6F)cc5)c(C(N)=O)c4N)C3)ccc2CC1C(=O)NC1CCCc2ccccc21)C(C)(C)C

> <Shape>
0.131

> <Color>
0.173

> <Negative vol penalty>
0.000

$$$$

  -OEChem-04052318023D

 84 92  0     1  0  0  0  0  0999 V2000
  -24.9484  -35.6006   15.3873 C   0  0  0  0  0  0  0  0  0  0  0  0
  -25.7049  -34.4997   15.7761 C   0  0  0  0  0  0  0  0  0  0  0  0
  -26.2588  -12.6870   21.2432 C   0  0  0  0  0  0  0  0  0  0  0  0
  -26.2804  -12.7132   18.8274 C   0  0  0  0  0  0  0  0  0  0  0  0
  -24.4225  -36.4593   16.3516 C   0  0  0  0  0  0  0  0  0  0  0  0
  -25.9368  -34.2575   17.1297 C   0  0  0  0  0  0  0  0  0  0  0  0
  -25.2950  -29.3897   18.3698 C   0  0  0  0  0  0  0  0  0  0  0  0
  -25.0539  -11.9846   21.2249 C   0  0  0  0  0  0  0  0  0  0  0  0
  -25.0755  -12.0107   18.8091 C   0  0  0  0  0  0  0  0  0  0  0  0
  -26.3246  -28.5083   18.0431 C   0  0  0  0  0  0  0  0  0  0  0  0
  -24.0355   -8.7981   20.7332 C   0  0  0  0  0  0  0  0  0  0  0  0
  -23.9084   -7.7065   21.5921 C   0  0  0  0  0  0  0  0  0  0  0  0
  -27.1176  -28.6004   20.3195 C   0  0  0  0  0  0  0  0  0  0  0  0
  -22.0294   -8.7747   22.6717 C   0  0  0  0  0  0  0  0  0  0  0  0
  -31.1089  -26.2264   18.1618 C   0  0  0  0  0  0  0  0  0  0  0  0
  -30.4691  -24.6874   19.5961 C   0  0  0  0  0  0  0  0  0  0  0  0
  -26.8720  -13.0514   20.0445 C   0  0  0  0  0  0  0  0  0  0  0  0
  -29.4162  -13.2368   20.0683 C   0  0  0  0  0  0  0  0  0  0  0  0
  -24.6399  -36.2220   17.7181 C   0  0  0  0  0  0  0  0  0  0  0  0
  -25.1752  -29.8924   19.6734 C   0  0  0  0  0  0  0  0  0  0  0  0
  -25.4143  -35.1145   18.1131 C   0  0  0  0  0  0  0  0  0  0  0  0
  -26.0840  -29.4860   20.6608 C   0  0  0  0  0  0  0  0  0  0  0  0
  -30.1907  -25.9722   19.1981 C   0  0  0  0  0  0  0  0  0  0  0  0
  -24.4622  -11.6464   20.0078 C   0  0  0  0  0  0  0  0  0  0  0  0
  -27.2378  -28.1158   19.0172 C   0  0  0  0  0  0  0  0  0  0  0  0
  -23.1596   -9.8781   20.8435 C   0  0  0  0  0  0  0  0  0  0  0  0
  -22.9053   -7.6947   22.5614 C   0  0  0  0  0  0  0  0  0  0  0  0
  -22.1566   -9.8664   21.8128 C   0  0  0  0  0  0  0  0  0  0  0  0
  -28.1164  -13.7775   20.0628 C   0  0  0  0  0  0  0  0  0  0  0  0
  -30.2439  -14.3327   20.0868 C   0  0  0  0  0  0  0  0  0  0  0  0
  -29.8377  -11.8664   20.0577 C   0  0  0  0  0  0  0  0  0  0  0  0
  -25.2924  -32.7874   20.9807 C   0  0  0  0  0  0  0  0  0  0  0  0
  -24.4370  -31.1828   23.6669 C   0  0  0  0  0  0  0  0  0  0  0  0
  -24.3662  -28.2322   25.3804 C   0  0  0  0  0  0  0  0  0  0  0  0
  -29.6899  -19.7889   18.2079 C   0  0  0  0  0  0  0  0  0  0  0  0
  -24.0907  -37.2046   18.7218 C   0  0  0  0  0  0  0  0  0  0  0  0
  -24.0430  -30.8215   20.0162 C   0  0  0  0  0  0  0  0  0  0  0  0
  -25.9871  -29.9811   22.0799 C   0  0  0  0  0  0  0  0  0  0  0  0
  -24.0679  -36.6673   20.1505 C   0  0  0  0  0  0  0  0  0  0  0  0
  -30.4219  -18.8786   21.5407 C   0  0  0  0  0  0  0  0  0  0  0  0
  -25.3974  -36.0018   20.4918 C   0  0  0  0  0  0  0  0  0  0  0  0
  -30.0288  -17.4020   21.5444 C   0  0  0  0  0  0  0  0  0  0  0  0
  -29.4421  -19.7320   20.7332 C   0  0  0  0  0  0  0  0  0  0  0  0
  -28.8308  -17.7696   19.3555 C   0  0  0  0  0  0  0  0  0  0  0  0
  -25.6670  -34.8044   19.5726 C   0  0  1  0  0  0  0  0  0  0  0  0
  -24.3217  -31.6728   21.2511 C   0  0  1  0  0  0  0  0  0  0  0  0
  -29.8321  -16.8815   20.1100 C   0  0  2  0  0  0  0  0  0  0  0  0
  -23.6363  -27.2414   27.5673 C   0  0  0  0  0  0  0  0  0  0  0  0
  -33.5860  -23.1230   19.3591 C   0  0  0  0  0  0  0  0  0  0  0  0
  -26.8404  -32.4609   25.0452 C   0  0  0  0  0  0  0  0  0  0  0  0
  -26.6216  -30.7498   26.8597 C   0  0  0  0  0  0  0  0  0  0  0  0
  -24.7671  -32.3646   26.4404 C   0  0  0  0  0  0  0  0  0  0  0  0
  -32.6681  -22.7830   16.3071 C   0  0  0  0  0  0  0  0  0  0  0  0
  -32.6942  -20.7420   17.7250 C   0  0  0  0  0  0  0  0  0  0  0  0
  -28.8636  -22.0528   18.9803 C   0  0  0  0  0  0  0  0  0  0  0  0
  -22.4975  -26.3664   24.0441 C   0  0  0  0  0  0  0  0  0  0  0  0
  -29.1442  -26.8961   19.7481 C   0  0  0  0  0  0  0  0  0  1  0  0
  -30.5133  -21.8611   17.1561 C   0  0  0  0  0  0  0  0  0  0  0  0
  -25.1831  -30.4981   24.7865 C   0  0  1  0  0  0  0  0  0  0  0  0
  -23.2473  -27.5265   26.1251 C   0  0  2  0  0  0  0  0  0  0  0  0
  -32.1390  -22.9747   18.8499 C   0  0  2  0  0  0  0  0  0  0  0  0
  -25.8563  -31.5103   25.7559 C   0  0  0  0  0  0  0  0  0  0  0  0
  -32.0015  -22.1141   17.5297 C   0  0  0  0  0  0  0  0  0  0  0  0
  -31.9108  -25.1867   17.9168 N   0  0  0  0  0  0  0  0  0  0  0  0
  -28.1135  -15.1131   20.0767 N   0  0  0  0  0  0  0  0  0  0  0  0
  -31.4974  -24.2667   18.8050 N   0  0  0  0  0  0  0  0  0  0  0  0
  -29.4217  -15.4208   20.0913 N   0  0  0  0  0  0  0  0  0  0  0  0
  -24.8666  -30.8928   22.3641 N   0  0  0  0  0  0  0  0  0  0  0  0
  -29.2469  -19.1738   19.3881 N   0  0  0  0  0  0  0  0  0  0  0  0
  -31.5876  -14.4620   20.0995 N   0  0  0  0  0  0  0  0  0  0  0  0
  -28.8565  -10.8657   20.0389 N   0  0  0  0  0  0  0  0  0  0  0  0
  -24.8848  -33.6605   19.9902 N   0  0  0  0  0  0  0  0  0  0  0  0
  -24.2258  -29.6031   25.4275 N   0  0  0  0  0  0  0  0  0  0  0  0
  -29.7457  -21.1907   18.1961 N   0  0  0  0  0  0  0  0  0  0  0  0
  -22.9194  -26.2327   25.4622 N   0  3  0  0  0  0  0  0  0  0  0  0
  -31.0483  -11.5387   20.0813 O   0  0  0  0  0  0  0  0  0  0  0  0
  -26.3333  -32.8515   21.6241 O   0  0  0  0  0  0  0  0  0  0  0  0
  -23.5027  -31.9412   23.9379 O   0  0  0  0  0  0  0  0  0  0  0  0
  -25.2758  -27.6279   24.8166 O   0  0  0  0  0  0  0  0  0  0  0  0
  -30.0109  -19.1232   17.2150 O   0  0  0  0  0  0  0  0  0  0  0  0
  -23.2866  -10.9607   19.9895 O   0  0  0  0  0  0  0  0  0  0  0  0
  -28.2442  -27.2561   18.7009 O   0  0  0  0  0  0  0  0  0  1  0  0
  -22.7824   -6.6457   23.3851 F   0  0  0  0  0  0  0  0  0  0  0  0
  -21.3114  -10.9005   21.9228 F   0  0  0  0  0  0  0  0  0  0  0  0
  1  2  1  0  0  0  0
  1  5  2  0  0  0  0
  2  6  2  0  0  0  0
  3  8  2  0  0  0  0
  3 17  1  0  0  0  0
  4  9  1  0  0  0  0
  4 17  2  0  0  0  0
  5 19  1  0  0  0  0
  6 21  1  0  0  0  0
  7 10  2  0  0  0  0
  7 20  1  0  0  0  0
  8 24  1  0  0  0  0
  9 24  2  0  0  0  0
 10 25  1  0  0  0  0
 11 12  2  0  0  0  0
 11 26  1  0  0  0  0
 12 27  1  0  0  0  0
 13 22  1  0  0  0  0
 13 25  2  0  0  0  0
 14 27  2  0  0  0  0
 14 28  1  0  0  0  0
 15 23  1  0  0  0  0
 15 64  2  0  0  0  0
 16 23  2  0  0  0  0
 16 66  1  0  0  0  0
 17 29  1  0  0  0  0
 18 29  1  0  0  0  0
 18 30  2  0  0  0  0
 18 31  1  0  0  0  0
 19 21  2  0  0  0  0
 19 36  1  0  0  0  0
 20 22  2  0  0  0  0
 20 37  1  0  0  0  0
 21 45  1  0  0  0  0
 22 38  1  0  0  0  0
 23 57  1  0  0  0  0
 24 81  1  0  0  0  0
 25 82  1  0  0  0  0
 26 28  2  0  0  0  0
 26 81  1  0  0  0  0
 27 83  1  0  0  0  0
 28 84  1  0  0  0  0
 29 65  2  0  0  0  0
 30 67  1  0  0  0  0
 30 70  1  0  0  0  0
 31 71  1  0  0  0  0
 31 76  2  0  0  0  0
 32 46  1  0  0  0  0
 32 72  1  0  0  0  0
 32 77  2  0  0  0  0
 33 59  1  0  0  0  0
 33 68  1  0  0  0  0
 33 78  2  0  0  0  0
 34 60  1  0  0  0  0
 34 73  1  0  0  0  0
 34 79  2  0  0  0  0
 35 69  1  0  0  0  0
 35 74  1  0  0  0  0
 35 80  2  0  0  0  0
 36 39  1  0  0  0  0
 37 46  1  0  0  0  0
 38 68  1  0  0  0  0
 39 41  1  0  0  0  0
 40 42  1  0  0  0  0
 40 43  1  0  0  0  0
 41 45  1  0  0  0  0
 42 47  1  0  0  0  0
 43 69  1  0  0  0  0
 44 47  1  0  0  0  0
 44 69  1  0  0  0  0
 45 72  1  0  0  0  0
 46 68  1  0  0  0  0
 47 67  1  0  0  0  0
 48 60  1  0  0  0  0
 49 61  1  0  0  0  0
 50 62  1  0  0  0  0
 51 62  1  0  0  0  0
 52 62  1  0  0  0  0
 53 63  1  0  0  0  0
 54 63  1  0  0  0  0
 55 74  1  0  0  0  0
 56 75  1  0  0  0  0
 57 82  1  0  0  0  0
 58 63  1  0  0  0  0
 58 74  1  0  0  0  0
 59 62  1  0  0  0  0
 59 73  1  0  0  0  0
 60 75  1  0  0  0  0
 61 63  1  0  0  0  0
 61 66  1  0  0  0  0
 64 66  1  0  0  0  0
 65 67  1  0  0  0  0
M  CHG  1  75   1
M  ISO  4  35 100  57 101  74 100  82 101
M  END
> <Batch ID>
0063

> <Smiles>
CNC(C)C(=O)NC(C(=O)N1Cc2cc([101O:1][101CH2:1]c3cnn(C(C)C(C)(C)C[100N:0](C)[100C:0](=O)N4CCCC(n5nc(-c6ccc(Oc7ccc(F)cc7F)cc6)c(C(N)=O)c5N)C4)c3)ccc2CC1C(=O)NC1CCCc2ccccc21)C(C)(C)C

> <Shape>
0.289

> <Color>
0.094

> <Negative vol penalty>
0.000

$$$$

  -OEChem-04052318023D

 91 99  0     1  0  0  0  0  0999 V2000
  -36.8449  -24.2100   27.5473 C   0  0  0  0  0  0  0  0  0  0  0  0
  -35.7315  -23.7707   26.8383 C   0  0  0  0  0  0  0  0  0  0  0  0
  -23.1556   -9.8238   19.9247 C   0  0  0  0  0  0  0  0  0  0  0  0
  -23.8771   -9.8763   22.2299 C   0  0  0  0  0  0  0  0  0  0  0  0
  -37.3028  -25.5168   27.3841 C   0  0  0  0  0  0  0  0  0  0  0  0
  -35.0745  -24.6384   25.9665 C   0  0  0  0  0  0  0  0  0  0  0  0
  -33.9451  -22.4563   21.5384 C   0  0  0  0  0  0  0  0  0  0  0  0
  -22.4599   -8.6399   20.1694 C   0  0  0  0  0  0  0  0  0  0  0  0
  -23.1813   -8.6924   22.4746 C   0  0  0  0  0  0  0  0  0  0  0  0
  -32.8414  -21.6049   21.5113 C   0  0  0  0  0  0  0  0  0  0  0  0
  -19.9825   -7.7545   23.0300 C   0  0  0  0  0  0  0  0  0  0  0  0
  -19.2091   -7.6868   24.1888 C   0  0  0  0  0  0  0  0  0  0  0  0
  -31.5074  -23.3745   20.5582 C   0  0  0  0  0  0  0  0  0  0  0  0
  -20.5234   -5.8104   24.9563 C   0  0  0  0  0  0  0  0  0  0  0  0
  -31.6960  -18.8370   18.8080 C   0  0  0  0  0  0  0  0  0  0  0  0
  -23.8643  -10.4420   20.9549 C   0  0  0  0  0  0  0  0  0  0  0  0
  -24.0953  -12.9792   20.8258 C   0  0  0  0  0  0  0  0  0  0  0  0
  -36.6569  -26.3979   26.5026 C   0  0  0  0  0  0  0  0  0  0  0  0
  -33.8353  -23.7787   21.0850 C   0  0  0  0  0  0  0  0  0  0  0  0
  -35.5234  -25.9586   25.7924 C   0  0  0  0  0  0  0  0  0  0  0  0
  -32.6119  -24.2398   20.5782 C   0  0  0  0  0  0  0  0  0  0  0  0
  -22.4727   -8.0742   21.4443 C   0  0  0  0  0  0  0  0  0  0  0  0
  -31.6216  -22.0648   21.0238 C   0  0  0  0  0  0  0  0  0  0  0  0
  -21.0263   -6.8501   22.8342 C   0  0  0  0  0  0  0  0  0  0  0  0
  -19.4796   -6.7148   25.1520 C   0  0  0  0  0  0  0  0  0  0  0  0
  -21.2967   -5.8781   23.7974 C   0  0  0  0  0  0  0  0  0  0  0  0
  -24.5837  -11.6647   20.7026 C   0  0  0  0  0  0  0  0  0  0  0  0
  -25.1588  -13.7748   20.4757 C   0  0  0  0  0  0  0  0  0  0  0  0
  -30.2073  -17.7872   19.8272 C   0  0  0  0  0  0  0  0  0  0  0  0
  -22.7965  -13.4400   21.2213 C   0  0  0  0  0  0  0  0  0  0  0  0
  -34.1824  -26.6433   22.4181 C   0  0  0  0  0  0  0  0  0  0  0  0
  -33.7693  -27.6800   19.3723 C   0  0  0  0  0  0  0  0  0  0  0  0
  -32.5256  -27.0804   16.2514 C   0  0  0  0  0  0  0  0  0  0  0  0
  -30.7167  -14.7400   21.1792 C   0  0  0  0  0  0  0  0  0  0  0  0
  -37.1601  -27.8156   26.3951 C   0  0  0  0  0  0  0  0  0  0  0  0
  -35.0421  -24.6763   21.0960 C   0  0  0  0  0  0  0  0  0  0  0  0
  -32.4469  -25.6446   20.0608 C   0  0  0  0  0  0  0  0  0  0  0  0
  -36.6328  -28.5578   25.1698 C   0  0  0  0  0  0  0  0  0  0  0  0
  -29.5949  -12.6264   18.3551 C   0  0  0  0  0  0  0  0  0  0  0  0
  -35.1294  -28.3458   25.0233 C   0  0  0  0  0  0  0  0  0  0  0  0
  -28.1751  -12.2433   18.7692 C   0  0  0  0  0  0  0  0  0  0  0  0
  -30.4875  -12.8875   19.5645 C   0  0  0  0  0  0  0  0  0  0  0  0
  -28.5200  -13.5142   20.9247 C   0  0  0  0  0  0  0  0  0  0  0  0
  -34.7988  -26.8624   24.8187 C   0  0  1  0  0  0  0  0  0  0  0  0
  -34.6839  -26.1592   21.0870 C   0  0  1  0  0  0  0  0  0  0  0  0
  -27.5824  -13.2897   19.7289 C   0  0  2  0  0  0  0  0  0  0  0  0
  -27.1405  -17.6270   18.2365 C   0  0  0  0  0  0  0  0  0  0  0  0
  -32.3090  -28.1295   13.9821 C   0  0  0  0  0  0  0  0  0  0  0  0
  -31.5407  -29.4813   20.4205 C   0  0  0  0  0  0  0  0  0  0  0  0
  -30.7548  -29.7647   18.0603 C   0  0  0  0  0  0  0  0  0  0  0  0
  -33.0301  -30.5477   18.7179 C   0  0  0  0  0  0  0  0  0  0  0  0
  -28.5182  -19.4597   22.2253 C   0  0  0  0  0  0  0  0  0  0  0  0
  -26.7518  -20.9238   21.2864 C   0  0  0  0  0  0  0  0  0  0  0  0
  -27.9907  -20.5223   18.3902 C   0  0  0  0  0  0  0  0  0  0  0  0
  -30.6621  -16.6862   22.6921 C   0  0  0  0  0  0  0  0  0  0  0  0
  -34.0855  -24.9143   14.9732 C   0  0  0  0  0  0  0  0  0  0  0  0
  -29.3958  -16.8130   20.5788 C   0  0  0  0  0  0  0  0  0  0  0  0
  -27.1808  -18.4660   19.5187 C   0  0  0  0  0  0  0  0  0  0  0  0
  -32.5801  -28.0672   18.5268 C   0  0  1  0  0  0  0  0  0  0  0  0
  -33.1470  -27.2269   14.8741 C   0  0  2  0  0  0  0  0  0  0  0  0
  -31.9787  -29.4393   18.9429 C   0  0  0  0  0  0  0  0  0  0  0  0
  -28.2038  -20.4199   21.0435 C   0  0  0  0  0  0  0  0  0  0  0  0
  -28.3026  -19.5827   19.6069 C   0  0  2  0  0  0  0  0  0  0  0  0
  -29.1823  -21.6888   21.1235 C   0  0  1  0  0  0  0  0  0  1  0  0
  -29.0918  -22.5376   22.4010 C   0  0  0  0  0  0  0  0  0  0  0  0
  -31.4613  -17.6604   19.4599 N   0  0  0  0  0  0  0  0  0  0  0  0
  -30.6662  -19.6840   18.7488 N   0  0  0  0  0  0  0  0  0  0  0  0
  -25.8582  -11.6232   20.3052 N   0  0  0  0  0  0  0  0  0  0  0  0
  -26.1797  -12.9216   20.1755 N   0  0  0  0  0  0  0  0  0  0  0  0
  -29.7269  -18.9886   19.4079 N   0  0  0  0  0  0  0  0  0  0  0  0
  -33.6544  -26.4860   20.0983 N   0  0  0  0  0  0  0  0  0  0  0  0
  -29.8806  -13.8530   20.4814 N   0  0  0  0  0  0  0  0  0  0  0  0
  -25.3109  -15.1139   20.3983 N   0  0  0  0  0  0  0  0  0  0  0  0
  -21.8207  -12.4883   21.5476 N   0  0  0  0  0  0  0  0  0  0  0  0
  -35.0781  -26.4657   23.4553 N   0  0  0  0  0  0  0  0  0  0  0  0
  -33.0285  -28.0072   17.1398 N   0  0  0  0  0  0  0  0  0  0  0  0
  -30.1880  -15.9997   21.4988 N   0  0  0  0  0  0  0  0  0  0  0  0
  -33.2667  -25.8954   14.2156 N   0  3  0  0  0  0  0  0  0  0  0  0
  -22.5048  -14.6591   21.2677 O   0  0  0  0  0  0  0  0  0  0  0  0
  -33.0660  -27.1423   22.4980 O   0  0  0  0  0  0  0  0  0  0  0  0
  -34.7662  -28.4064   19.3825 O   0  0  0  0  0  0  0  0  0  0  0  0
  -31.6760  -26.2313   16.5119 O   0  0  0  0  0  0  0  0  0  0  0  0
  -31.8733  -14.4275   21.4899 O   0  0  0  0  0  0  0  0  0  0  0  0
  -21.7936   -6.9191   21.6835 O   0  0  0  0  0  0  0  0  0  0  0  0
  -30.5385  -21.2331   20.9967 O   0  0  0  0  0  0  0  0  0  1  0  0
  -18.7379   -6.6509   26.2655 F   0  0  0  0  0  0  0  0  0  0  0  0
  -22.2989   -5.0073   23.6154 F   0  0  0  0  0  0  0  0  0  0  0  0
  -28.8621  -22.5037   20.0785 F   0  0  0  0  0  0  0  0  0  0  0  0
  -29.3821  -21.8081   23.5030 F   0  0  0  0  0  0  0  0  0  0  0  0
  -29.9643  -23.5667   22.3930 F   0  0  0  0  0  0  0  0  0  0  0  0
  -27.8549  -23.0433   22.5898 F   0  0  0  0  0  0  0  0  0  0  0  0
  1  2  1  0  0  0  0
  1  5  2  0  0  0  0
  2  6  2  0  0  0  0
  3  8  2  0  0  0  0
  3 16  1  0  0  0  0
  4  9  1  0  0  0  0
  4 16  2  0  0  0  0
  5 18  1  0  0  0  0
  6 20  1  0  0  0  0
  7 10  2  0  0  0  0
  7 19  1  0  0  0  0
  8 22  1  0  0  0  0
  9 22  2  0  0  0  0
 10 23  1  0  0  0  0
 11 12  2  0  0  0  0
 11 24  1  0  0  0  0
 12 25  1  0  0  0  0
 13 21  1  0  0  0  0
 13 23  2  0  0  0  0
 14 25  2  0  0  0  0
 14 26  1  0  0  0  0
 15 66  1  0  0  0  0
 15 67  2  0  0  0  0
 16 27  1  0  0  0  0
 17 27  1  0  0  0  0
 17 28  2  0  0  0  0
 17 30  1  0  0  0  0
 18 20  2  0  0  0  0
 18 35  1  0  0  0  0
 19 21  2  0  0  0  0
 19 36  1  0  0  0  0
 20 44  1  0  0  0  0
 21 37  1  0  0  0  0
 22 84  1  0  0  0  0
 23 85  1  0  0  0  0
 24 26  2  0  0  0  0
 24 84  1  0  0  0  0
 25 86  1  0  0  0  0
 26 87  1  0  0  0  0
 27 68  2  0  0  0  0
 28 69  1  0  0  0  0
 28 73  1  0  0  0  0
 29 57  1  0  0  0  0
 29 66  2  0  0  0  0
 29 70  1  0  0  0  0
 30 74  1  0  0  0  0
 30 79  2  0  0  0  0
 31 45  1  0  0  0  0
 31 75  1  0  0  0  0
 31 80  2  0  0  0  0
 32 59  1  0  0  0  0
 32 71  1  0  0  0  0
 32 81  2  0  0  0  0
 33 60  1  0  0  0  0
 33 76  1  0  0  0  0
 33 82  2  0  0  0  0
 34 72  1  0  0  0  0
 34 77  1  0  0  0  0
 34 83  2  0  0  0  0
 35 38  1  0  0  0  0
 36 45  1  0  0  0  0
 37 71  1  0  0  0  0
 38 40  1  0  0  0  0
 39 41  1  0  0  0  0
 39 42  1  0  0  0  0
 40 44  1  0  0  0  0
 41 46  1  0  0  0  0
 42 72  1  0  0  0  0
 43 46  1  0  0  0  0
 43 72  1  0  0  0  0
 44 75  1  0  0  0  0
 45 71  1  0  0  0  0
 46 69  1  0  0  0  0
 47 58  1  0  0  0  0
 48 60  1  0  0  0  0
 49 61  1  0  0  0  0
 50 61  1  0  0  0  0
 51 61  1  0  0  0  0
 52 62  1  0  0  0  0
 53 62  1  0  0  0  0
 54 63  1  0  0  0  0
 55 77  1  0  0  0  0
 56 78  1  0  0  0  0
 57 77  1  0  0  0  0
 58 63  1  0  0  0  0
 59 61  1  0  0  0  0
 59 76  1  0  0  0  0
 60 78  1  0  0  0  0
 62 63  1  0  0  0  0
 62 64  1  0  0  0  0
 63 70  1  0  0  0  0
 64 65  1  0  0  0  0
 64 85  1  0  0  0  0
 64 88  1  0  0  0  0
 65 89  1  0  0  0  0
 65 90  1  0  0  0  0
 65 91  1  0  0  0  0
 67 70  1  0  0  0  0
 68 69  1  0  0  0  0
M  CHG  1  78   1
M  ISO  4  34 100  64 101  77 100  85 101
M  END
> <Batch ID>
0063

> <Smiles>
CCC(C)(n1ncnc1C[100N:0](C)[100C:0](=O)N1CCCC(n2nc(-c3ccc(Oc4ccc(F)cc4F)cc3)c(C(N)=O)c2N)C1)C(C)(C)[101C:1](F)(C(F)(F)F)[101O:1]c1ccc2c(c1)CN(C(=O)C(NC(=O)C(C)NC)C(C)(C)C)C(C(=O)NC1CCCc3ccccc31)C2

> <Shape>
0.236

> <Color>
0.175

> <Negative vol penalty>
0.000

$$$$

  -OEChem-04052318023D

 85 93  0     1  0  0  0  0  0999 V2000
  -20.2000  -23.0073   19.2485 C   0  0  0  0  0  0  0  0  0  0  0  0
  -21.3344  -22.5409   19.9050 C   0  0  0  0  0  0  0  0  0  0  0  0
  -26.9649  -13.5693   21.6466 C   0  0  0  0  0  0  0  0  0  0  0  0
  -26.5597  -13.9624   19.2975 C   0  0  0  0  0  0  0  0  0  0  0  0
  -20.1660  -24.3126   18.7598 C   0  0  0  0  0  0  0  0  0  0  0  0
  -22.4360  -23.3794   20.0722 C   0  0  0  0  0  0  0  0  0  0  0  0
  -27.7630  -24.7502   24.6614 C   0  0  0  0  0  0  0  0  0  0  0  0
  -26.1396  -12.4457   21.6009 C   0  0  0  0  0  0  0  0  0  0  0  0
  -25.7344  -12.8388   19.2518 C   0  0  0  0  0  0  0  0  0  0  0  0
  -29.1506  -24.8817   24.6926 C   0  0  0  0  0  0  0  0  0  0  0  0
  -22.8239  -11.7895   21.6038 C   0  0  0  0  0  0  0  0  0  0  0  0
  -21.8978  -11.6243   22.6336 C   0  0  0  0  0  0  0  0  0  0  0  0
  -28.9486  -27.1428   23.8767 C   0  0  0  0  0  0  0  0  0  0  0  0
  -22.9239   -9.5165   23.2181 C   0  0  0  0  0  0  0  0  0  0  0  0
  -32.0482  -23.2099   20.1633 C   0  0  0  0  0  0  0  0  0  0  0  0
  -27.1749  -14.3276   20.4948 C   0  0  0  0  0  0  0  0  0  0  0  0
  -29.4147  -15.5346   20.3096 C   0  0  0  0  0  0  0  0  0  0  0  0
  -21.2641  -25.1706   18.9296 C   0  0  0  0  0  0  0  0  0  0  0  0
  -26.9570  -25.8121   24.2264 C   0  0  0  0  0  0  0  0  0  0  0  0
  -22.4172  -24.6970   19.5841 C   0  0  0  0  0  0  0  0  0  0  0  0
  -27.5509  -27.0231   23.8433 C   0  0  0  0  0  0  0  0  0  0  0  0
  -25.5243  -12.0805   20.4036 C   0  0  0  0  0  0  0  0  0  0  0  0
  -29.7438  -26.0771   24.2975 C   0  0  0  0  0  0  0  0  0  0  0  0
  -23.8000  -10.8182   21.3810 C   0  0  0  0  0  0  0  0  0  0  0  0
  -21.9478  -10.4878   23.4408 C   0  0  0  0  0  0  0  0  0  0  0  0
  -23.8500   -9.6817   22.1882 C   0  0  0  0  0  0  0  0  0  0  0  0
  -28.0269  -15.4887   20.5415 C   0  0  0  0  0  0  0  0  0  0  0  0
  -31.2603  -23.7670   19.1803 C   0  0  0  0  0  0  0  0  0  0  0  0
  -32.3897  -25.2835   21.0649 C   0  0  0  0  0  0  0  0  0  0  0  0
  -31.6025  -25.8408   20.0814 C   0  0  0  0  0  0  0  0  0  0  0  0
  -29.7465  -16.8574   20.4728 C   0  0  0  0  0  0  0  0  0  0  0  0
  -30.3226  -14.4763   19.9763 C   0  0  0  0  0  0  0  0  0  0  0  0
  -24.9107  -26.2404   21.8321 C   0  0  0  0  0  0  0  0  0  0  0  0
  -24.3611  -29.0683   23.3231 C   0  0  0  0  0  0  0  0  0  0  0  0
  -25.5008  -31.5071   25.4207 C   0  0  0  0  0  0  0  0  0  0  0  0
  -28.7304  -22.2741   19.5937 C   0  0  0  0  0  0  0  0  0  0  0  0
  -21.1987  -26.5583   18.3425 C   0  0  0  0  0  0  0  0  0  0  0  0
  -25.4602  -25.6634   24.2240 C   0  0  0  0  0  0  0  0  0  0  0  0
  -26.7291  -28.2001   23.3875 C   0  0  0  0  0  0  0  0  0  0  0  0
  -22.2655  -27.5025   18.8907 C   0  0  0  0  0  0  0  0  0  0  0  0
  -27.0594  -20.7210   22.3273 C   0  0  0  0  0  0  0  0  0  0  0  0
  -23.6295  -26.8197   18.8986 C   0  0  0  0  0  0  0  0  0  0  0  0
  -27.2713  -19.2258   22.0837 C   0  0  0  0  0  0  0  0  0  0  0  0
  -26.8646  -21.4839   21.0188 C   0  0  0  0  0  0  0  0  0  0  0  0
  -28.1389  -19.7812   19.7734 C   0  0  0  0  0  0  0  0  0  0  0  0
  -23.6227  -25.5842   19.8069 C   0  0  1  0  0  0  0  0  0  0  0  0
  -24.7649  -26.6343   23.2747 C   0  0  1  0  0  0  0  0  0  0  0  0
  -28.3957  -18.9782   21.0601 C   0  0  2  0  0  0  0  0  0  0  0  0
  -30.2152  -27.6683   19.0703 C   0  0  0  0  0  0  0  0  0  0  0  0
  -24.8421  -33.7137   26.4181 C   0  0  0  0  0  0  0  0  0  0  0  0
  -31.6241  -22.0941   17.2469 C   0  0  0  0  0  0  0  0  0  0  0  0
  -29.7811  -23.7683   17.1598 C   0  0  0  0  0  0  0  0  0  0  0  0
  -24.9380  -30.4415   20.6601 C   0  0  0  0  0  0  0  0  0  0  0  0
  -25.2030  -32.5958   21.9079 C   0  0  0  0  0  0  0  0  0  0  0  0
  -23.0124  -31.4027   21.9339 C   0  0  0  0  0  0  0  0  0  0  0  0
  -25.6532  -30.4385   28.1764 C   0  0  0  0  0  0  0  0  0  0  0  0
  -33.0318  -26.1321   22.1331 C   0  0  0  0  0  0  0  0  0  0  0  0
  -31.3489  -27.3087   20.0277 C   0  0  0  0  0  0  0  0  0  0  0  0
  -33.1957  -25.4140   23.4744 C   0  0  0  0  0  0  0  0  0  0  0  0
  -31.8694  -25.0257   24.1174 C   0  0  0  0  0  0  0  0  0  1  0  0
  -24.9565  -30.4532   23.2419 C   0  0  1  0  0  0  0  0  0  0  0  0
  -24.8509  -32.2041   26.6023 C   0  0  2  0  0  0  0  0  0  0  0  0
  -30.6360  -22.9092   18.1361 C   0  0  0  0  0  0  0  0  0  0  0  0
  -24.5434  -31.2006   21.9426 C   0  0  0  0  0  0  0  0  0  0  0  0
  -32.6270  -23.9581   21.1233 N   0  0  0  0  0  0  0  0  0  0  0  0
  -27.5124  -16.6870   20.8302 N   0  0  0  0  0  0  0  0  0  0  0  0
  -31.0234  -25.0925   19.1216 N   0  0  0  0  0  0  0  0  0  0  0  0
  -28.5826  -17.4983   20.7810 N   0  0  0  0  0  0  0  0  0  0  0  0
  -25.2701  -28.0033   23.3966 N   0  0  0  0  0  0  0  0  0  0  0  0
  -27.9654  -21.2070   20.0927 N   0  0  0  0  0  0  0  0  0  0  0  0
  -30.9173  -17.5232   20.3816 N   0  0  0  0  0  0  0  0  0  0  0  0
  -29.8150  -13.1763   19.8471 N   0  0  0  0  0  0  0  0  0  0  0  0
  -23.7120  -25.9780   21.1966 N   0  0  0  0  0  0  0  0  0  0  0  0
  -24.5714  -31.1359   24.4722 N   0  0  0  0  0  0  0  0  0  0  0  0
  -29.7582  -21.9236   18.7268 N   0  0  0  0  0  0  0  0  0  0  0  0
  -25.5870  -31.8883   27.8590 N   0  3  0  0  0  0  0  0  0  0  0  0
  -31.5506  -14.6747   19.8145 O   0  0  0  0  0  0  0  0  0  0  0  0
  -26.0279  -26.1803   21.3321 O   0  0  0  0  0  0  0  0  0  0  0  0
  -23.1346  -28.9368   23.3285 O   0  0  0  0  0  0  0  0  0  0  0  0
  -26.7123  -31.3148   25.3448 O   0  0  0  0  0  0  0  0  0  0  0  0
  -28.5170  -23.4514   19.9025 O   0  0  0  0  0  0  0  0  0  0  0  0
  -24.7191  -10.9840   20.3586 O   0  0  0  0  0  0  0  0  0  0  0  0
  -31.0980  -26.2079   24.3265 O   0  0  0  0  0  0  0  0  0  1  0  0
  -21.0594  -10.3300   24.4308 F   0  0  0  0  0  0  0  0  0  0  0  0
  -24.7861   -8.7457   21.9798 F   0  0  0  0  0  0  0  0  0  0  0  0
  1  2  1  0  0  0  0
  1  5  2  0  0  0  0
  2  6  2  0  0  0  0
  3  8  2  0  0  0  0
  3 16  1  0  0  0  0
  4  9  1  0  0  0  0
  4 16  2  0  0  0  0
  5 18  1  0  0  0  0
  6 20  1  0  0  0  0
  7 10  2  0  0  0  0
  7 19  1  0  0  0  0
  8 22  1  0  0  0  0
  9 22  2  0  0  0  0
 10 23  1  0  0  0  0
 11 12  2  0  0  0  0
 11 24  1  0  0  0  0
 12 25  1  0  0  0  0
 13 21  1  0  0  0  0
 13 23  2  0  0  0  0
 14 25  2  0  0  0  0
 14 26  1  0  0  0  0
 15 28  1  0  0  0  0
 15 65  2  0  0  0  0
 16 27  1  0  0  0  0
 17 27  1  0  0  0  0
 17 31  2  0  0  0  0
 17 32  1  0  0  0  0
 18 20  2  0  0  0  0
 18 37  1  0  0  0  0
 19 21  2  0  0  0  0
 19 38  1  0  0  0  0
 20 46  1  0  0  0  0
 21 39  1  0  0  0  0
 22 82  1  0  0  0  0
 23 83  1  0  0  0  0
 24 26  2  0  0  0  0
 24 82  1  0  0  0  0
 25 84  1  0  0  0  0
 26 85  1  0  0  0  0
 27 66  2  0  0  0  0
 28 63  1  0  0  0  0
 28 67  2  0  0  0  0
 29 30  2  0  0  0  0
 29 57  1  0  0  0  0
 29 65  1  0  0  0  0
 30 58  1  0  0  0  0
 30 67  1  0  0  0  0
 31 68  1  0  0  0  0
 31 71  1  0  0  0  0
 32 72  1  0  0  0  0
 32 77  2  0  0  0  0
 33 47  1  0  0  0  0
 33 73  1  0  0  0  0
 33 78  2  0  0  0  0
 34 61  1  0  0  0  0
 34 69  1  0  0  0  0
 34 79  2  0  0  0  0
 35 62  1  0  0  0  0
 35 74  1  0  0  0  0
 35 80  2  0  0  0  0
 36 70  1  0  0  0  0
 36 75  1  0  0  0  0
 36 81  2  0  0  0  0
 37 40  1  0  0  0  0
 38 47  1  0  0  0  0
 39 69  1  0  0  0  0
 40 42  1  0  0  0  0
 41 43  1  0  0  0  0
 41 44  1  0  0  0  0
 42 46  1  0  0  0  0
 43 48  1  0  0  0  0
 44 70  1  0  0  0  0
 45 48  1  0  0  0  0
 45 70  1  0  0  0  0
 46 73  1  0  0  0  0
 47 69  1  0  0  0  0
 48 68  1  0  0  0  0
 49 58  1  0  0  0  0
 50 62  1  0  0  0  0
 51 63  1  0  0  0  0
 52 63  1  0  0  0  0
 53 64  1  0  0  0  0
 54 64  1  0  0  0  0
 55 64  1  0  0  0  0
 56 76  1  0  0  0  0
 57 59  1  0  0  0  0
 59 60  1  0  0  0  0
 60 83  1  0  0  0  0
 61 64  1  0  0  0  0
 61 74  1  0  0  0  0
 62 76  1  0  0  0  0
 63 75  1  0  0  0  0
 66 68  1  0  0  0  0
M  CHG  1  76   1
M  ISO  4  36 100  60 101  75 100  83 101
M  END
> <Batch ID>
0063

> <Smiles>
CCc1nc(C(C)(C)[100NH:0][100C:0](=O)N2CCCC(n3nc(-c4ccc(Oc5ccc(F)cc5F)cc4)c(C(N)=O)c3N)C2)cnc1CC[101CH2:1][101O:1]c1ccc2c(c1)CN(C(=O)C(NC(=O)C(C)NC)C(C)(C)C)C(C(=O)NC1CCCc3ccccc31)C2

> <Shape>
0.244

> <Color>
0.070

> <Negative vol penalty>
0.000

$$$$

  -OEChem-04052318023D

 82 90  0     1  0  0  0  0  0999 V2000
  -21.9205  -11.3600   19.4275 C   0  0  0  0  0  0  0  0  0  0  0  0
  -21.6682  -12.2971   20.4243 C   0  0  0  0  0  0  0  0  0  0  0  0
  -21.0516  -26.6371   20.8912 C   0  0  0  0  0  0  0  0  0  0  0  0
  -22.1327  -26.4054   23.0393 C   0  0  0  0  0  0  0  0  0  0  0  0
  -23.2309  -11.1124   19.0208 C   0  0  0  0  0  0  0  0  0  0  0  0
  -22.7262  -12.9864   21.0157 C   0  0  0  0  0  0  0  0  0  0  0  0
  -24.3348  -19.3509   23.8832 C   0  0  0  0  0  0  0  0  0  0  0  0
  -19.9357  -25.9574   21.3795 C   0  0  0  0  0  0  0  0  0  0  0  0
  -21.0168  -25.7258   23.5277 C   0  0  0  0  0  0  0  0  0  0  0  0
  -24.8818  -19.9035   25.0405 C   0  0  0  0  0  0  0  0  0  0  0  0
  -19.0390  -22.7558   21.9878 C   0  0  0  0  0  0  0  0  0  0  0  0
  -18.4800  -21.7652   21.1805 C   0  0  0  0  0  0  0  0  0  0  0  0
  -27.0979  -19.4508   24.2020 C   0  0  0  0  0  0  0  0  0  0  0  0
  -16.3886  -22.9742   21.1450 C   0  0  0  0  0  0  0  0  0  0  0  0
  -30.5210  -22.8812   24.8798 C   0  0  0  0  0  0  0  0  0  0  0  0
  -29.4321  -24.8493   25.5100 C   0  0  0  0  0  0  0  0  0  0  0  0
  -22.1502  -26.8610   21.7211 C   0  0  0  0  0  0  0  0  0  0  0  0
  -23.5356  -28.9507   21.2502 C   0  0  0  0  0  0  0  0  0  0  0  0
  -24.3048  -11.8060   19.6008 C   0  0  0  0  0  0  0  0  0  0  0  0
  -25.1665  -18.8333   22.8798 C   0  0  0  0  0  0  0  0  0  0  0  0
  -24.0524  -12.7469   20.6173 C   0  0  0  0  0  0  0  0  0  0  0  0
  -26.5591  -18.8944   23.0319 C   0  0  0  0  0  0  0  0  0  0  0  0
  -29.8257  -23.5715   25.8515 C   0  0  0  0  0  0  0  0  0  0  0  0
  -19.9183  -25.5018   22.6977 C   0  0  0  0  0  0  0  0  0  0  0  0
  -26.2634  -19.9509   25.2013 C   0  0  0  0  0  0  0  0  0  0  0  0
  -18.2728  -23.8557   22.3738 C   0  0  0  0  0  0  0  0  0  0  0  0
  -17.1548  -21.8744   20.7591 C   0  0  0  0  0  0  0  0  0  0  0  0
  -16.9476  -23.9649   21.9523 C   0  0  0  0  0  0  0  0  0  0  0  0
  -23.3034  -27.5626   21.2171 C   0  0  0  0  0  0  0  0  0  0  0  0
  -24.7615  -29.1081   20.6511 C   0  0  0  0  0  0  0  0  0  0  0  0
  -30.3765  -24.6445   23.4525 C   0  0  0  0  0  0  0  0  0  0  0  0
  -22.7164  -30.0036   21.7755 C   0  0  0  0  0  0  0  0  0  0  0  0
  -25.5931  -15.9648   21.5783 C   0  0  0  0  0  0  0  0  0  0  0  0
  -27.5548  -17.5959   19.5749 C   0  0  0  0  0  0  0  0  0  0  0  0
  -29.5229  -20.3319   19.0385 C   0  0  0  0  0  0  0  0  0  0  0  0
  -29.4655  -25.4664   19.9719 C   0  0  0  0  0  0  0  0  0  0  0  0
  -25.7080  -11.4701   19.1614 C   0  0  0  0  0  0  0  0  0  0  0  0
  -24.5614  -18.2647   21.6256 C   0  0  0  0  0  0  0  0  0  0  0  0
  -27.4959  -18.3707   21.9752 C   0  0  0  0  0  0  0  0  0  0  0  0
  -26.7422  -12.5137   19.5756 C   0  0  0  0  0  0  0  0  0  0  0  0
  -27.6237  -27.0883   17.3924 C   0  0  0  0  0  0  0  0  0  0  0  0
  -26.5512  -12.9035   21.0379 C   0  0  0  0  0  0  0  0  0  0  0  0
  -26.3285  -27.5190   18.0831 C   0  0  0  0  0  0  0  0  0  0  0  0
  -28.1184  -25.7399   17.9110 C   0  0  0  0  0  0  0  0  0  0  0  0
  -26.9754  -26.0885   20.0664 C   0  0  0  0  0  0  0  0  0  0  0  0
  -25.1715  -13.5327   21.2655 C   0  0  1  0  0  0  0  0  0  0  0  0
  -25.4923  -17.3003   20.8971 C   0  0  1  0  0  0  0  0  0  0  0  0
  -26.4674  -27.4690   19.6165 C   0  0  2  0  0  0  0  0  0  0  0  0
  -31.5405  -26.5135   22.2223 C   0  0  0  0  0  0  0  0  0  0  0  0
  -30.9885  -21.9359   17.7828 C   0  0  0  0  0  0  0  0  0  0  0  0
  -29.7392  -15.5852   20.2785 C   0  0  0  0  0  0  0  0  0  0  0  0
  -31.4168  -17.1781   19.3212 C   0  0  0  0  0  0  0  0  0  0  0  0
  -29.6398  -16.2139   17.8600 C   0  0  0  0  0  0  0  0  0  0  0  0
  -27.1958  -21.8901   18.0817 C   0  0  0  0  0  0  0  0  0  0  0  0
  -29.5186  -22.9694   27.1994 C   0  0  0  0  0  0  0  0  0  0  0  0
  -28.1866  -22.2180   27.2494 C   0  0  0  0  0  0  0  0  0  0  0  0
  -28.0798  -21.1087   26.2094 C   0  0  0  0  0  0  0  0  0  1  0  0
  -30.6849  -25.2422   22.1218 C   0  0  2  0  0  0  0  0  0  0  0  0
  -29.0190  -17.9631   19.5766 C   0  0  1  0  0  0  0  0  0  0  0  0
  -29.6121  -21.2947   17.8682 C   0  0  2  0  0  0  0  0  0  0  0  0
  -29.9363  -16.7433   19.2800 C   0  0  0  0  0  0  0  0  0  0  0  0
  -30.8149  -23.3890   23.6648 N   0  0  0  0  0  0  0  0  0  0  0  0
  -29.6916  -25.4195   24.3151 N   0  0  0  0  0  0  0  0  0  0  0  0
  -24.3016  -26.8863   20.6424 N   0  0  0  0  0  0  0  0  0  0  0  0
  -25.1729  -27.8536   20.3087 N   0  0  0  0  0  0  0  0  0  0  0  0
  -26.8559  -17.8187   20.7697 N   0  0  0  0  0  0  0  0  0  0  0  0
  -28.2299  -25.7596   19.3715 N   0  0  0  0  0  0  0  0  0  0  0  0
  -25.5168  -30.1958   20.3891 N   0  0  0  0  0  0  0  0  0  0  0  0
  -21.4867  -29.6664   22.3572 N   0  0  0  0  0  0  0  0  0  0  0  0
  -25.1596  -14.9048   20.8052 N   0  0  0  0  0  0  0  0  0  0  0  0
  -29.1648  -19.0643   18.6307 N   0  0  0  0  0  0  0  0  0  0  0  0
  -29.4859  -25.5135   21.3604 N   0  0  0  0  0  0  0  0  0  0  0  0
  -28.5974  -22.3771   18.0094 N   0  3  0  0  0  0  0  0  0  0  0  0
  -23.0572  -31.2093   21.7156 O   0  0  0  0  0  0  0  0  0  0  0  0
  -26.0331  -15.9008   22.7202 O   0  0  0  0  0  0  0  0  0  0  0  0
  -27.0480  -17.1353   18.5489 O   0  0  0  0  0  0  0  0  0  0  0  0
  -29.7518  -20.6695   20.1978 O   0  0  0  0  0  0  0  0  0  0  0  0
  -30.4770  -25.1889   19.3186 O   0  0  0  0  0  0  0  0  0  0  0  0
  -18.8295  -24.8388   23.1746 O   0  0  0  0  0  0  0  0  0  0  0  0
  -26.7999  -20.4893   26.3301 O   0  0  0  0  0  0  0  0  0  1  0  0
  -16.6186  -20.9237   19.9826 F   0  0  0  0  0  0  0  0  0  0  0  0
  -16.2069  -25.0198   22.3189 F   0  0  0  0  0  0  0  0  0  0  0  0
  1  2  1  0  0  0  0
  1  5  2  0  0  0  0
  2  6  2  0  0  0  0
  3  8  2  0  0  0  0
  3 17  1  0  0  0  0
  4  9  1  0  0  0  0
  4 17  2  0  0  0  0
  5 19  1  0  0  0  0
  6 21  1  0  0  0  0
  7 10  2  0  0  0  0
  7 20  1  0  0  0  0
  8 24  1  0  0  0  0
  9 24  2  0  0  0  0
 10 25  1  0  0  0  0
 11 12  2  0  0  0  0
 11 26  1  0  0  0  0
 12 27  1  0  0  0  0
 13 22  1  0  0  0  0
 13 25  2  0  0  0  0
 14 27  2  0  0  0  0
 14 28  1  0  0  0  0
 15 23  1  0  0  0  0
 15 62  2  0  0  0  0
 16 23  2  0  0  0  0
 16 63  1  0  0  0  0
 17 29  1  0  0  0  0
 18 29  1  0  0  0  0
 18 30  2  0  0  0  0
 18 32  1  0  0  0  0
 19 21  2  0  0  0  0
 19 37  1  0  0  0  0
 20 22  2  0  0  0  0
 20 38  1  0  0  0  0
 21 46  1  0  0  0  0
 22 39  1  0  0  0  0
 23 55  1  0  0  0  0
 24 79  1  0  0  0  0
 25 80  1  0  0  0  0
 26 28  2  0  0  0  0
 26 79  1  0  0  0  0
 27 81  1  0  0  0  0
 28 82  1  0  0  0  0
 29 64  2  0  0  0  0
 30 65  1  0  0  0  0
 30 68  1  0  0  0  0
 31 58  1  0  0  0  0
 31 62  1  0  0  0  0
 31 63  2  0  0  0  0
 32 69  1  0  0  0  0
 32 74  2  0  0  0  0
 33 47  1  0  0  0  0
 33 70  1  0  0  0  0
 33 75  2  0  0  0  0
 34 59  1  0  0  0  0
 34 66  1  0  0  0  0
 34 76  2  0  0  0  0
 35 60  1  0  0  0  0
 35 71  1  0  0  0  0
 35 77  2  0  0  0  0
 36 67  1  0  0  0  0
 36 72  1  0  0  0  0
 36 78  2  0  0  0  0
 37 40  1  0  0  0  0
 38 47  1  0  0  0  0
 39 66  1  0  0  0  0
 40 42  1  0  0  0  0
 41 43  1  0  0  0  0
 41 44  1  0  0  0  0
 42 46  1  0  0  0  0
 43 48  1  0  0  0  0
 44 67  1  0  0  0  0
 45 48  1  0  0  0  0
 45 67  1  0  0  0  0
 46 70  1  0  0  0  0
 47 66  1  0  0  0  0
 48 65  1  0  0  0  0
 49 58  1  0  0  0  0
 50 60  1  0  0  0  0
 51 61  1  0  0  0  0
 52 61  1  0  0  0  0
 53 61  1  0  0  0  0
 54 73  1  0  0  0  0
 55 56  1  0  0  0  0
 56 57  1  0  0  0  0
 57 80  1  0  0  0  0
 58 72  1  0  0  0  0
 59 61  1  0  0  0  0
 59 71  1  0  0  0  0
 60 73  1  0  0  0  0
 64 65  1  0  0  0  0
M  CHG  1  73   1
M  ISO  4  36 100  57 101  72 100  80 101
M  END
> <Batch ID>
0063

> <Smiles>
CNC(C)C(=O)NC(C(=O)N1Cc2cc([101O:1][101CH2:1]CCc3cnc(C(C)[100NH:0][100C:0](=O)N4CCCC(n5nc(-c6ccc(Oc7ccc(F)cc7F)cc6)c(C(N)=O)c5N)C4)nc3)ccc2CC1C(=O)NC1CCCc2ccccc21)C(C)(C)C

> <Shape>
0.198

> <Color>
0.079

> <Negative vol penalty>
0.000

$$$$

  -OEChem-04052318023D

 87 95  0     1  0  0  0  0  0999 V2000
  -25.3917  -34.9033   24.6101 C   0  0  0  0  0  0  0  0  0  0  0  0
  -26.0861  -33.7770   24.1804 C   0  0  0  0  0  0  0  0  0  0  0  0
  -23.5946  -10.0774   22.3099 C   0  0  0  0  0  0  0  0  0  0  0  0
  -23.4894   -9.7750   19.9152 C   0  0  0  0  0  0  0  0  0  0  0  0
  -24.0527  -34.7949   24.9836 C   0  0  0  0  0  0  0  0  0  0  0  0
  -25.4423  -32.5414   24.1249 C   0  0  0  0  0  0  0  0  0  0  0  0
  -26.3663  -28.0897   20.0219 C   0  0  0  0  0  0  0  0  0  0  0  0
  -22.6953   -9.0252   22.4823 C   0  0  0  0  0  0  0  0  0  0  0  0
  -22.5901   -8.7227   20.0876 C   0  0  0  0  0  0  0  0  0  0  0  0
  -27.1220  -26.9188   20.0624 C   0  0  0  0  0  0  0  0  0  0  0  0
  -22.7810   -5.6451   22.4534 C   0  0  0  0  0  0  0  0  0  0  0  0
  -23.0687   -4.7015   23.4395 C   0  0  0  0  0  0  0  0  0  0  0  0
  -25.1533  -25.6771   20.6960 C   0  0  0  0  0  0  0  0  0  0  0  0
  -20.9949   -5.2374   24.5572 C   0  0  0  0  0  0  0  0  0  0  0  0
  -25.1124  -20.7985   19.3144 C   0  0  0  0  0  0  0  0  0  0  0  0
  -27.0823  -19.8213   19.1701 C   0  0  0  0  0  0  0  0  0  0  0  0
  -23.9916  -10.4523   21.0263 C   0  0  0  0  0  0  0  0  0  0  0  0
  -26.3246  -11.4583   20.7960 C   0  0  0  0  0  0  0  0  0  0  0  0
  -23.3895  -33.5591   24.9234 C   0  0  0  0  0  0  0  0  0  0  0  0
  -24.9983  -28.0648   20.3293 C   0  0  0  0  0  0  0  0  0  0  0  0
  -24.0937  -32.4160   24.4992 C   0  0  0  0  0  0  0  0  0  0  0  0
  -24.3819  -26.8486   20.6561 C   0  0  0  0  0  0  0  0  0  0  0  0
  -22.1931   -8.3478   21.3712 C   0  0  0  0  0  0  0  0  0  0  0  0
  -26.5162  -25.7128   20.4023 C   0  0  0  0  0  0  0  0  0  0  0  0
  -21.6003   -6.3850   22.5192 C   0  0  0  0  0  0  0  0  0  0  0  0
  -22.1756   -4.4976   24.4914 C   0  0  0  0  0  0  0  0  0  0  0  0
  -20.7072   -6.1811   23.5711 C   0  0  0  0  0  0  0  0  0  0  0  0
  -24.9201  -11.5396   20.8476 C   0  0  0  0  0  0  0  0  0  0  0  0
  -25.0243  -19.5801   18.6834 C   0  0  0  0  0  0  0  0  0  0  0  0
  -26.7371  -12.7555   20.6132 C   0  0  0  0  0  0  0  0  0  0  0  0
  -27.1798  -10.3125   20.9036 C   0  0  0  0  0  0  0  0  0  0  0  0
  -23.1760  -29.4068   22.5614 C   0  0  0  0  0  0  0  0  0  0  0  0
  -20.7674  -28.0862   20.8360 C   0  0  0  0  0  0  0  0  0  0  0  0
  -23.9610  -17.4205   18.2035 C   0  0  0  0  0  0  0  0  0  0  0  0
  -19.7617  -25.6802   18.6345 C   0  0  0  0  0  0  0  0  0  0  0  0
  -21.9549  -33.4821   25.3824 C   0  0  0  0  0  0  0  0  0  0  0  0
  -24.1914  -29.3320   20.2550 C   0  0  0  0  0  0  0  0  0  0  0  0
  -22.9122  -26.7649   20.9748 C   0  0  0  0  0  0  0  0  0  0  0  0
  -21.2408  -32.2081   24.9381 C   0  0  0  0  0  0  0  0  0  0  0  0
  -25.4483  -17.2658   21.5187 C   0  0  0  0  0  0  0  0  0  0  0  0
  -22.1160  -30.9866   25.2000 C   0  0  0  0  0  0  0  0  0  0  0  0
  -25.5815  -15.7574   21.7239 C   0  0  0  0  0  0  0  0  0  0  0  0
  -24.1907  -17.6158   20.7275 C   0  0  0  0  0  0  0  0  0  0  0  0
  -24.2248  -15.4055   19.6148 C   0  0  0  0  0  0  0  0  0  0  0  0
  -23.4230  -31.0629   24.4017 C   0  0  1  0  0  0  0  0  0  0  0  0
  -22.9142  -29.2768   21.0875 C   0  0  1  0  0  0  0  0  0  0  0  0
  -25.4967  -15.0084   20.3825 C   0  0  2  0  0  0  0  0  0  0  0  0
  -17.7250  -24.8303   17.4400 C   0  0  0  0  0  0  0  0  0  0  0  0
  -22.4784  -19.1608   18.9073 C   0  0  0  0  0  0  0  0  0  0  0  0
  -19.7988  -26.7836   23.4196 C   0  0  0  0  0  0  0  0  0  0  0  0
  -18.3960  -25.2408   22.0338 C   0  0  0  0  0  0  0  0  0  0  0  0
  -17.9802  -27.6995   21.9676 C   0  0  0  0  0  0  0  0  0  0  0  0
  -26.5898  -24.7878   17.3991 C   0  0  0  0  0  0  0  0  0  0  0  0
  -28.8960  -24.4175   18.2236 C   0  0  0  0  0  0  0  0  0  0  0  0
  -27.5742  -22.5168   17.2718 C   0  0  0  0  0  0  0  0  0  0  0  0
  -26.3868  -22.2299   21.7299 C   0  0  0  0  0  0  0  0  0  0  0  0
  -28.5862  -21.9389   20.6559 C   0  0  0  0  0  0  0  0  0  0  0  0
  -20.9507  -26.2217   15.9789 C   0  0  0  0  0  0  0  0  0  0  0  0
  -23.5701  -19.2435   16.6239 C   0  0  0  0  0  0  0  0  0  0  0  0
  -20.0445  -26.7610   20.8495 C   0  0  1  0  0  0  0  0  0  0  0  0
  -18.9276  -25.7584   17.3686 C   0  0  2  0  0  0  0  0  0  0  0  0
  -26.8568  -23.5110   19.5703 C   0  0  1  0  0  0  0  0  0  1  0  0
  -23.8271  -18.9211   18.1395 C   0  0  1  0  0  0  0  0  0  0  0  0
  -19.0830  -26.6228   22.0636 C   0  0  0  0  0  0  0  0  0  0  0  0
  -27.4943  -23.7737   18.1515 C   0  0  0  0  0  0  0  0  0  0  0  0
  -27.0873  -22.1430   20.3375 C   0  0  0  0  0  0  0  0  0  0  0  0
  -26.2539  -18.9767   18.5969 N   0  0  0  0  0  0  0  0  0  0  0  0
  -24.4705  -12.7896   20.7090 N   0  0  0  0  0  0  0  0  0  0  0  0
  -26.4366  -20.9390   19.6207 N   0  0  0  0  0  0  0  0  0  0  0  0
  -25.5990  -13.5058   20.5685 N   0  0  0  0  0  0  0  0  0  0  0  0
  -22.1672  -28.0322   20.8947 N   0  0  0  0  0  0  0  0  0  0  0  0
  -24.1337  -16.8612   19.4698 N   0  0  0  0  0  0  0  0  0  0  0  0
  -27.9587  -13.3162   20.4880 N   0  0  0  0  0  0  0  0  0  0  0  0
  -26.5910   -9.0543   21.0891 N   0  0  0  0  0  0  0  0  0  0  0  0
  -23.1909  -30.7112   23.0172 N   0  0  0  0  0  0  0  0  0  0  0  0
  -19.3893  -26.6401   19.5516 N   0  0  0  0  0  0  0  0  0  0  0  0
  -23.3757  -20.7016   16.4185 N   0  3  0  0  0  0  0  0  0  0  0  0
  -19.7468  -25.3757   16.1840 N   0  3  0  0  0  0  0  0  0  0  0  0
  -28.4299  -10.4040   20.8536 O   0  0  0  0  0  0  0  0  0  0  0  0
  -23.3501  -28.3983   23.2353 O   0  0  0  0  0  0  0  0  0  0  0  0
  -20.1144  -29.1306   20.7684 O   0  0  0  0  0  0  0  0  0  0  0  0
  -23.9159  -16.7670   17.1580 O   0  0  0  0  0  0  0  0  0  0  0  0
  -20.6519  -24.8482   18.7953 O   0  0  0  0  0  0  0  0  0  0  0  0
  -21.3157   -7.3209   21.5390 O   0  0  0  0  0  0  0  0  0  0  0  0
  -27.2517  -24.5686   20.4432 O   0  0  0  0  0  0  0  0  0  1  0  0
  -22.4513   -3.5903   25.4374 F   0  0  0  0  0  0  0  0  0  0  0  0
  -19.5708   -6.8879   23.6391 F   0  0  0  0  0  0  0  0  0  0  0  0
  1  2  1  0  0  0  0
  1  5  2  0  0  0  0
  2  6  2  0  0  0  0
  3  8  2  0  0  0  0
  3 17  1  0  0  0  0
  4  9  1  0  0  0  0
  4 17  2  0  0  0  0
  5 19  1  0  0  0  0
  6 21  1  0  0  0  0
  7 10  2  0  0  0  0
  7 20  1  0  0  0  0
  8 23  1  0  0  0  0
  9 23  2  0  0  0  0
 10 24  1  0  0  0  0
 11 12  2  0  0  0  0
 11 25  1  0  0  0  0
 12 26  1  0  0  0  0
 13 22  1  0  0  0  0
 13 24  2  0  0  0  0
 14 26  2  0  0  0  0
 14 27  1  0  0  0  0
 15 29  2  0  0  0  0
 15 69  1  0  0  0  0
 16 67  2  0  0  0  0
 16 69  1  0  0  0  0
 17 28  1  0  0  0  0
 18 28  1  0  0  0  0
 18 30  2  0  0  0  0
 18 31  1  0  0  0  0
 19 21  2  0  0  0  0
 19 36  1  0  0  0  0
 20 22  2  0  0  0  0
 20 37  1  0  0  0  0
 21 45  1  0  0  0  0
 22 38  1  0  0  0  0
 23 84  1  0  0  0  0
 24 85  1  0  0  0  0
 25 27  2  0  0  0  0
 25 84  1  0  0  0  0
 26 86  1  0  0  0  0
 27 87  1  0  0  0  0
 28 68  2  0  0  0  0
 29 63  1  0  0  0  0
 29 67  1  0  0  0  0
 30 70  1  0  0  0  0
 30 73  1  0  0  0  0
 31 74  1  0  0  0  0
 31 79  2  0  0  0  0
 32 46  1  0  0  0  0
 32 75  1  0  0  0  0
 32 80  2  0  0  0  0
 33 60  1  0  0  0  0
 33 71  1  0  0  0  0
 33 81  2  0  0  0  0
 34 63  1  0  0  0  0
 34 72  1  0  0  0  0
 34 82  2  0  0  0  0
 35 61  1  0  0  0  0
 35 76  1  0  0  0  0
 35 83  2  0  0  0  0
 36 39  1  0  0  0  0
 37 46  1  0  0  0  0
 38 71  1  0  0  0  0
 39 41  1  0  0  0  0
 40 42  1  0  0  0  0
 40 43  1  0  0  0  0
 41 45  1  0  0  0  0
 42 47  1  0  0  0  0
 43 72  1  0  0  0  0
 44 47  1  0  0  0  0
 44 72  1  0  0  0  0
 45 75  1  0  0  0  0
 46 71  1  0  0  0  0
 47 70  1  0  0  0  0
 48 61  1  0  0  0  0
 49 63  1  0  0  0  0
 50 64  1  0  0  0  0
 51 64  1  0  0  0  0
 52 64  1  0  0  0  0
 53 65  1  0  0  0  0
 54 65  1  0  0  0  0
 55 65  1  0  0  0  0
 56 66  1  0  0  0  0
 57 66  1  0  0  0  0
 58 78  1  0  0  0  0
 59 63  1  0  0  0  0
 59 77  1  0  0  0  0
 60 64  1  0  0  0  0
 60 76  1  0  0  0  0
 61 78  1  0  0  0  0
 62 65  1  0  0  0  0
 62 66  1  0  0  0  0
 62 85  1  0  0  0  0
 66 69  1  0  0  0  0
 68 70  1  0  0  0  0
M  CHG  2  77   1  78   1
M  ISO  4  34 100  62 101  63 100  85 101
M  END
> <Batch ID>
0063

> <Smiles>
CNC(C)C(=O)NC(C(=O)N1Cc2cc([101O:1][101CH:1](C(C)(C)C)C(C)(C)n3cnc([100C:0](C)(CN)[100C:0](=O)N4CCCC(n5nc(-c6ccc(Oc7ccc(F)cc7F)cc6)c(C(N)=O)c5N)C4)c3)ccc2CC1C(=O)NC1CCCc2ccccc21)C(C)(C)C

> <Shape>
0.264

> <Color>
0.080

> <Negative vol penalty>
0.000

$$$$

  -OEChem-04052318023D

 89 97  0     1  0  0  0  0  0999 V2000
  -27.3926  -34.2426   24.9511 C   0  0  0  0  0  0  0  0  0  0  0  0
  -27.6872  -32.9767   24.4550 C   0  0  0  0  0  0  0  0  0  0  0  0
  -26.0984  -13.1557   21.9279 C   0  0  0  0  0  0  0  0  0  0  0  0
  -25.6966  -14.1681   19.7714 C   0  0  0  0  0  0  0  0  0  0  0  0
  -26.0953  -34.5438   25.3637 C   0  0  0  0  0  0  0  0  0  0  0  0
  -26.6848  -32.0109   24.3722 C   0  0  0  0  0  0  0  0  0  0  0  0
  -26.7443  -29.5225   19.9620 C   0  0  0  0  0  0  0  0  0  0  0  0
  -25.6397  -11.9325   21.4392 C   0  0  0  0  0  0  0  0  0  0  0  0
  -25.2379  -12.9449   19.2826 C   0  0  0  0  0  0  0  0  0  0  0  0
  -27.7071  -28.5263   19.8060 C   0  0  0  0  0  0  0  0  0  0  0  0
  -24.2361   -8.6281   20.8611 C   0  0  0  0  0  0  0  0  0  0  0  0
  -23.3571   -7.8972   21.6603 C   0  0  0  0  0  0  0  0  0  0  0  0
  -26.0454  -26.8505   20.3060 C   0  0  0  0  0  0  0  0  0  0  0  0
  -21.7827   -9.7290   21.6039 C   0  0  0  0  0  0  0  0  0  0  0  0
  -26.1269  -14.2736   21.0940 C   0  0  0  0  0  0  0  0  0  0  0  0
  -27.9226  -16.0196   21.5781 C   0  0  0  0  0  0  0  0  0  0  0  0
  -25.0743  -33.5843   25.2768 C   0  0  0  0  0  0  0  0  0  0  0  0
  -25.4251  -29.1904   20.3025 C   0  0  0  0  0  0  0  0  0  0  0  0
  -25.3729  -32.2992   24.7852 C   0  0  0  0  0  0  0  0  0  0  0  0
  -25.0672  -27.8443   20.4632 C   0  0  0  0  0  0  0  0  0  0  0  0
  -25.2094  -11.8271   20.1166 C   0  0  0  0  0  0  0  0  0  0  0  0
  -27.3584  -27.1902   19.9809 C   0  0  0  0  0  0  0  0  0  0  0  0
  -23.8885   -9.9095   20.4333 C   0  0  0  0  0  0  0  0  0  0  0  0
  -22.1304   -8.4477   22.0317 C   0  0  0  0  0  0  0  0  0  0  0  0
  -22.6618  -10.4599   20.8047 C   0  0  0  0  0  0  0  0  0  0  0  0
  -26.6001  -15.5376   21.5985 C   0  0  0  0  0  0  0  0  0  0  0  0
  -27.8467  -17.2559   22.1717 C   0  0  0  0  0  0  0  0  0  0  0  0
  -28.0729  -20.4151   19.5802 C   0  0  0  0  0  0  0  0  0  0  0  0
  -27.1589  -21.6959   20.9517 C   0  0  0  0  0  0  0  0  0  0  0  0
  -29.1133  -15.4048   21.0681 C   0  0  0  0  0  0  0  0  0  0  0  0
  -23.5148  -29.8281   22.7617 C   0  0  0  0  0  0  0  0  0  0  0  0
  -21.3013  -28.3209   20.9312 C   0  0  0  0  0  0  0  0  0  0  0  0
  -20.6394  -26.0981   18.4276 C   0  0  0  0  0  0  0  0  0  0  0  0
  -23.8740  -21.6479   22.2786 C   0  0  0  0  0  0  0  0  0  0  0  0
  -23.6978  -33.9414   25.7791 C   0  0  0  0  0  0  0  0  0  0  0  0
  -24.3922  -30.2750   20.4409 C   0  0  0  0  0  0  0  0  0  0  0  0
  -23.6600  -27.4338   20.8091 C   0  0  0  0  0  0  0  0  0  0  0  0
  -22.6093  -32.9800   25.3087 C   0  0  0  0  0  0  0  0  0  0  0  0
  -24.6506  -19.4989   25.1907 C   0  0  0  0  0  0  0  0  0  0  0  0
  -23.0581  -31.5339   25.4937 C   0  0  0  0  0  0  0  0  0  0  0  0
  -25.2902  -18.2738   24.5394 C   0  0  0  0  0  0  0  0  0  0  0  0
  -23.6600  -20.1861   24.2557 C   0  0  0  0  0  0  0  0  0  0  0  0
  -24.8741  -19.3257   22.2809 C   0  0  0  0  0  0  0  0  0  0  0  0
  -24.3071  -31.2325   24.6566 C   0  0  1  0  0  0  0  0  0  0  0  0
  -23.1979  -29.8575   21.2933 C   0  0  1  0  0  0  0  0  0  0  0  0
  -25.9120  -18.6371   23.1798 C   0  0  2  0  0  0  0  0  0  0  0  0
  -18.7328  -25.0457   17.1808 C   0  0  0  0  0  0  0  0  0  0  0  0
  -20.7436  -26.5067   23.3203 C   0  0  0  0  0  0  0  0  0  0  0  0
  -19.5775  -24.9310   21.7628 C   0  0  0  0  0  0  0  0  0  0  0  0
  -18.7054  -27.2472   22.0745 C   0  0  0  0  0  0  0  0  0  0  0  0
  -30.3717  -25.3789   21.6785 C   0  0  0  0  0  0  0  0  0  0  0  0
  -30.2175  -24.1113   19.5517 C   0  0  0  0  0  0  0  0  0  0  0  0
  -28.6258  -23.2131   23.1051 C   0  0  0  0  0  0  0  0  0  0  0  0
  -30.7003  -22.3663   22.1206 C   0  0  0  0  0  0  0  0  0  0  0  0
  -24.3865  -23.0080   20.2869 C   0  0  0  0  0  0  0  0  0  0  0  0
  -21.5516  -27.2260   15.8479 C   0  0  0  0  0  0  0  0  0  0  0  0
  -26.2327  -22.4422   21.8222 C   0  0  0  0  0  0  0  0  0  0  0  0
  -28.1310  -25.0294   20.6053 C   0  0  0  0  0  0  0  0  0  1  0  0
  -20.8413  -26.8922   20.7692 C   0  0  1  0  0  0  0  0  0  0  0  0
  -19.7342  -26.1898   17.2125 C   0  0  2  0  0  0  0  0  0  0  0  0
  -28.2335  -19.3653   18.5672 C   0  0  0  0  0  0  0  0  0  0  0  0
  -19.9940  -26.4018   21.9771 C   0  0  0  0  0  0  0  0  0  0  0  0
  -29.5012  -24.3506   20.9082 C   0  0  0  0  0  0  0  0  0  0  0  0
  -29.3173  -22.9724   21.7270 C   0  0  0  0  0  0  0  0  0  0  0  0
  -25.7465  -16.3974   22.1606 N   0  0  0  0  0  0  0  0  0  0  0  0
  -26.8562  -20.7329   20.1124 N   0  0  0  0  0  0  0  0  0  0  0  0
  -29.1094  -21.1209   20.0375 N   0  0  0  0  0  0  0  0  0  0  0  0
  -26.5345  -17.4322   22.4990 N   0  0  0  0  0  0  0  0  0  0  0  0
  -28.4976  -21.9327   20.9131 N   0  0  0  0  0  0  0  0  0  0  0  0
  -22.6874  -28.5313   20.9400 N   0  0  0  0  0  0  0  0  0  0  0  0
  -24.2643  -20.4811   22.9561 N   0  0  0  0  0  0  0  0  0  0  0  0
  -28.7750  -18.1984   22.4403 N   0  0  0  0  0  0  0  0  0  0  0  0
  -29.0131  -14.1320   20.4901 N   0  0  0  0  0  0  0  0  0  0  0  0
  -23.9499  -31.0381   23.2677 N   0  0  0  0  0  0  0  0  0  0  0  0
  -20.1471  -26.8297   19.4876 N   0  0  0  0  0  0  0  0  0  0  0  0
  -24.8305  -22.2588   21.4537 N   0  0  0  0  0  0  0  0  0  0  0  0
  -20.5413  -26.1427   15.9605 N   0  3  0  0  0  0  0  0  0  0  0  0
  -30.2357  -15.9606   21.1382 O   0  0  0  0  0  0  0  0  0  0  0  0
  -23.3737  -28.7852   23.3895 O   0  0  0  0  0  0  0  0  0  0  0  0
  -20.4615  -29.2180   21.0386 O   0  0  0  0  0  0  0  0  0  0  0  0
  -21.6774  -25.4401   18.4368 O   0  0  0  0  0  0  0  0  0  0  0  0
  -22.7385  -22.1221   22.4114 O   0  0  0  0  0  0  0  0  0  0  0  0
  -24.7619  -10.6336   19.6393 O   0  0  0  0  0  0  0  0  0  0  0  0
  -28.2963  -26.2159   19.8298 O   0  0  0  0  0  0  0  0  0  1  0  0
  -21.2857   -7.7451   22.7979 F   0  0  0  0  0  0  0  0  0  0  0  0
  -22.3218  -11.6900   20.3959 F   0  0  0  0  0  0  0  0  0  0  0  0
  -27.0644  -18.7371   18.2052 F   0  0  0  0  0  0  0  0  0  0  0  0
  -28.7624  -19.8000   17.3740 F   0  0  0  0  0  0  0  0  0  0  0  0
  -29.0651  -18.3448   18.9614 F   0  0  0  0  0  0  0  0  0  0  0  0
  1  2  1  0  0  0  0
  1  5  2  0  0  0  0
  2  6  2  0  0  0  0
  3  8  2  0  0  0  0
  3 15  1  0  0  0  0
  4  9  1  0  0  0  0
  4 15  2  0  0  0  0
  5 17  1  0  0  0  0
  6 19  1  0  0  0  0
  7 10  2  0  0  0  0
  7 18  1  0  0  0  0
  8 21  1  0  0  0  0
  9 21  2  0  0  0  0
 10 22  1  0  0  0  0
 11 12  2  0  0  0  0
 11 23  1  0  0  0  0
 12 24  1  0  0  0  0
 13 20  1  0  0  0  0
 13 22  2  0  0  0  0
 14 24  2  0  0  0  0
 14 25  1  0  0  0  0
 15 26  1  0  0  0  0
 16 26  1  0  0  0  0
 16 27  2  0  0  0  0
 16 30  1  0  0  0  0
 17 19  2  0  0  0  0
 17 35  1  0  0  0  0
 18 20  2  0  0  0  0
 18 36  1  0  0  0  0
 19 44  1  0  0  0  0
 20 37  1  0  0  0  0
 21 83  1  0  0  0  0
 22 84  1  0  0  0  0
 23 25  2  0  0  0  0
 23 83  1  0  0  0  0
 24 85  1  0  0  0  0
 25 86  1  0  0  0  0
 26 65  2  0  0  0  0
 27 68  1  0  0  0  0
 27 72  1  0  0  0  0
 28 61  1  0  0  0  0
 28 66  1  0  0  0  0
 28 67  2  0  0  0  0
 29 57  1  0  0  0  0
 29 66  2  0  0  0  0
 29 69  1  0  0  0  0
 30 73  1  0  0  0  0
 30 78  2  0  0  0  0
 31 45  1  0  0  0  0
 31 74  1  0  0  0  0
 31 79  2  0  0  0  0
 32 59  1  0  0  0  0
 32 70  1  0  0  0  0
 32 80  2  0  0  0  0
 33 60  1  0  0  0  0
 33 75  1  0  0  0  0
 33 81  2  0  0  0  0
 34 71  1  0  0  0  0
 34 76  1  0  0  0  0
 34 82  2  0  0  0  0
 35 38  1  0  0  0  0
 36 45  1  0  0  0  0
 37 70  1  0  0  0  0
 38 40  1  0  0  0  0
 39 41  1  0  0  0  0
 39 42  1  0  0  0  0
 40 44  1  0  0  0  0
 41 46  1  0  0  0  0
 42 71  1  0  0  0  0
 43 46  1  0  0  0  0
 43 71  1  0  0  0  0
 44 74  1  0  0  0  0
 45 70  1  0  0  0  0
 46 68  1  0  0  0  0
 47 60  1  0  0  0  0
 48 62  1  0  0  0  0
 49 62  1  0  0  0  0
 50 62  1  0  0  0  0
 51 63  1  0  0  0  0
 52 63  1  0  0  0  0
 53 64  1  0  0  0  0
 54 64  1  0  0  0  0
 55 76  1  0  0  0  0
 56 77  1  0  0  0  0
 57 76  1  0  0  0  0
 58 63  1  0  0  0  0
 58 84  1  0  0  0  0
 59 62  1  0  0  0  0
 59 75  1  0  0  0  0
 60 77  1  0  0  0  0
 61 87  1  0  0  0  0
 61 88  1  0  0  0  0
 61 89  1  0  0  0  0
 63 64  1  0  0  0  0
 64 69  1  0  0  0  0
 65 68  1  0  0  0  0
 67 69  1  0  0  0  0
M  CHG  1  77   1
M  ISO  4  34 100  58 101  76 100  84 101
M  END
> <Batch ID>
0063

> <Smiles>
CNC(C)C(=O)NC(C(=O)N1Cc2cc([101O:1][101CH2:1]C(C)(C)C(C)(C)n3nc(C(F)(F)F)nc3C[100N:0](C)[100C:0](=O)N3CCCC(n4nc(-c5ccc(Oc6ccc(F)cc6F)cc5)c(C(N)=O)c4N)C3)ccc2CC1C(=O)NC1CCCc2ccccc21)C(C)(C)C

> <Shape>
0.295

> <Color>
0.097

> <Negative vol penalty>
0.000

$$$$

  -OEChem-04052318023D

 89 97  0     1  0  0  0  0  0999 V2000
  -16.9707  -29.2075   24.6250 C   0  0  0  0  0  0  0  0  0  0  0  0
  -17.5921  -28.0971   24.0625 C   0  0  0  0  0  0  0  0  0  0  0  0
  -29.3611  -20.7635   17.2241 C   0  0  0  0  0  0  0  0  0  0  0  0
  -26.9742  -20.4461   17.0274 C   0  0  0  0  0  0  0  0  0  0  0  0
  -17.3246  -30.4895   24.2064 C   0  0  0  0  0  0  0  0  0  0  0  0
  -18.5671  -28.2681   23.0804 C   0  0  0  0  0  0  0  0  0  0  0  0
  -22.6228  -25.3315   23.8368 C   0  0  0  0  0  0  0  0  0  0  0  0
  -29.3944  -21.3088   15.9408 C   0  0  0  0  0  0  0  0  0  0  0  0
  -27.0075  -20.9914   15.7440 C   0  0  0  0  0  0  0  0  0  0  0  0
  -22.5111  -23.9879   23.4818 C   0  0  0  0  0  0  0  0  0  0  0  0
  -26.4079  -22.6319   12.5553 C   0  0  0  0  0  0  0  0  0  0  0  0
  -25.4269  -23.5654   12.2209 C   0  0  0  0  0  0  0  0  0  0  0  0
  -23.6832  -24.4407   21.4226 C   0  0  0  0  0  0  0  0  0  0  0  0
  -26.1819  -25.0003   14.0120 C   0  0  0  0  0  0  0  0  0  0  0  0
  -23.4828  -16.1974   22.7537 C   0  0  0  0  0  0  0  0  0  0  0  0
  -28.1510  -20.3320   17.7675 C   0  0  0  0  0  0  0  0  0  0  0  0
  -27.9242  -20.4575   20.3053 C   0  0  0  0  0  0  0  0  0  0  0  0
  -18.3112  -30.6767   23.2256 C   0  0  0  0  0  0  0  0  0  0  0  0
  -23.2569  -26.2435   22.9809 C   0  0  0  0  0  0  0  0  0  0  0  0
  -18.9335  -29.5538   22.6473 C   0  0  0  0  0  0  0  0  0  0  0  0
  -23.8038  -25.7949   21.7702 C   0  0  0  0  0  0  0  0  0  0  0  0
  -28.2176  -21.4228   15.2007 C   0  0  0  0  0  0  0  0  0  0  0  0
  -23.0388  -23.5428   22.2733 C   0  0  0  0  0  0  0  0  0  0  0  0
  -27.2758  -22.8825   13.6181 C   0  0  0  0  0  0  0  0  0  0  0  0
  -25.3139  -24.7496   12.9492 C   0  0  0  0  0  0  0  0  0  0  0  0
  -27.1628  -24.0668   14.3464 C   0  0  0  0  0  0  0  0  0  0  0  0
  -28.1160  -19.7681   19.0929 C   0  0  0  0  0  0  0  0  0  0  0  0
  -23.2574  -15.2957   21.7370 C   0  0  0  0  0  0  0  0  0  0  0  0
  -22.9829  -17.9208   21.3363 C   0  0  0  0  0  0  0  0  0  0  0  0
  -22.7582  -17.0193   20.3193 C   0  0  0  0  0  0  0  0  0  0  0  0
  -27.9741  -19.4792   21.2681 C   0  0  0  0  0  0  0  0  0  0  0  0
  -27.7192  -21.8569   20.5401 C   0  0  0  0  0  0  0  0  0  0  0  0
  -22.3484  -28.8587   21.4192 C   0  0  0  0  0  0  0  0  0  0  0  0
  -25.5031  -29.0459   20.6877 C   0  0  0  0  0  0  0  0  0  0  0  0
  -28.4871  -27.4365   20.2971 C   0  0  0  0  0  0  0  0  0  0  0  0
  -26.8935  -13.5910   21.1581 C   0  0  0  0  0  0  0  0  0  0  0  0
  -18.6265  -32.0799   22.7715 C   0  0  0  0  0  0  0  0  0  0  0  0
  -23.3927  -27.6843   23.3906 C   0  0  0  0  0  0  0  0  0  0  0  0
  -24.5121  -26.7298   20.8253 C   0  0  0  0  0  0  0  0  0  0  0  0
  -19.9357  -32.1889   21.9942 C   0  0  0  0  0  0  0  0  0  0  0  0
  -29.9108  -15.1956   22.1571 C   0  0  0  0  0  0  0  0  0  0  0  0
  -20.0262  -31.0865   20.9437 C   0  0  0  0  0  0  0  0  0  0  0  0
  -29.7757  -16.6116   21.5944 C   0  0  0  0  0  0  0  0  0  0  0  0
  -29.3049  -14.1549   21.2179 C   0  0  0  0  0  0  0  0  0  0  0  0
  -27.7726  -15.8314   20.2611 C   0  0  0  0  0  0  0  0  0  0  0  0
  -20.0134  -29.6993   21.5972 C   0  0  1  0  0  0  0  0  0  0  0  0
  -23.6056  -28.6243   22.2080 C   0  0  1  0  0  0  0  0  0  0  0  0
  -28.3193  -16.9212   21.1990 C   0  0  2  0  0  0  0  0  0  0  0  0
  -30.8782  -27.8482   19.6564 C   0  0  0  0  0  0  0  0  0  0  0  0
  -23.4305  -18.4076   18.3277 C   0  0  0  0  0  0  0  0  0  0  0  0
  -21.0085  -18.2590   18.9969 C   0  0  0  0  0  0  0  0  0  0  0  0
  -22.1345  -16.3275   17.9093 C   0  0  0  0  0  0  0  0  0  0  0  0
  -24.6841  -29.2209   17.7536 C   0  0  0  0  0  0  0  0  0  0  0  0
  -27.0475  -28.6747   17.1336 C   0  0  0  0  0  0  0  0  0  0  0  0
  -26.5445  -30.7575   18.4109 C   0  0  0  0  0  0  0  0  0  0  0  0
  -29.4711  -26.5396   22.9403 C   0  0  0  0  0  0  0  0  0  0  0  0
  -22.3247  -11.5949   21.9998 C   0  0  0  0  0  0  0  0  0  0  0  0
  -21.0584  -13.6034   22.7502 C   0  0  0  0  0  0  0  0  0  0  0  0
  -22.8305  -19.4052   21.1192 C   0  0  0  0  0  0  0  0  0  0  0  0
  -24.1035  -20.2037   21.4076 C   0  0  0  0  0  0  0  0  0  0  0  0
  -24.4493  -13.1769   21.0422 C   0  0  0  0  0  0  0  0  0  0  0  0
  -23.9652  -21.6910   21.1036 C   0  0  0  0  0  0  0  0  0  1  0  0
  -23.4134  -13.8346   21.9749 C   0  0  2  0  0  0  0  0  0  0  0  0
  -26.3754  -28.5190   19.5739 C   0  0  1  0  0  0  0  0  0  0  0  0
  -29.8812  -27.7629   20.8016 C   0  0  2  0  0  0  0  0  0  0  0  0
  -22.3540  -17.4694   18.9570 C   0  0  0  0  0  0  0  0  0  0  0  0
  -26.1479  -29.2756   18.2347 C   0  0  0  0  0  0  0  0  0  0  0  0
  -23.3495  -17.5261   22.5717 N   0  0  0  0  0  0  0  0  0  0  0  0
  -28.2760  -18.4535   19.2670 N   0  0  0  0  0  0  0  0  0  0  0  0
  -22.8911  -15.6905   20.5015 N   0  0  0  0  0  0  0  0  0  0  0  0
  -28.1849  -18.3090   20.6000 N   0  0  0  0  0  0  0  0  0  0  0  0
  -24.6137  -28.1303   21.2677 N   0  0  0  0  0  0  0  0  0  0  0  0
  -27.9228  -14.5064   20.8830 N   0  0  0  0  0  0  0  0  0  0  0  0
  -27.8578  -19.5145   22.6126 N   0  0  0  0  0  0  0  0  0  0  0  0
  -27.6957  -22.7229   19.4383 N   0  0  0  0  0  0  0  0  0  0  0  0
  -21.3113  -29.3935   22.1594 N   0  0  0  0  0  0  0  0  0  0  0  0
  -27.7470  -28.5770   20.0674 N   0  0  0  0  0  0  0  0  0  0  0  0
  -25.6123  -14.0055   20.8153 N   0  0  0  0  0  0  0  0  0  0  0  0
  -30.3466  -26.7144   21.7528 N   0  3  0  0  0  0  0  0  0  0  0  0
  -22.1212  -13.0721   21.8342 N   0  3  0  0  0  0  0  0  0  0  0  0
  -27.5780  -22.3278   21.6941 O   0  0  0  0  0  0  0  0  0  0  0  0
  -22.3217  -28.5766   20.2270 O   0  0  0  0  0  0  0  0  0  0  0  0
  -25.6121  -30.2244   21.0352 O   0  0  0  0  0  0  0  0  0  0  0  0
  -28.0952  -26.2851   20.1208 O   0  0  0  0  0  0  0  0  0  0  0  0
  -27.1003  -12.4883   21.6760 O   0  0  0  0  0  0  0  0  0  0  0  0
  -28.2497  -21.9551   13.9484 O   0  0  0  0  0  0  0  0  0  0  0  0
  -22.9306  -22.2320   21.9241 O   0  0  0  0  0  0  0  0  0  1  0  0
  -24.3728  -25.6467   12.6270 F   0  0  0  0  0  0  0  0  0  0  0  0
  -27.9945  -24.3137   15.3678 F   0  0  0  0  0  0  0  0  0  0  0  0
  1  2  1  0  0  0  0
  1  5  2  0  0  0  0
  2  6  2  0  0  0  0
  3  8  2  0  0  0  0
  3 16  1  0  0  0  0
  4  9  1  0  0  0  0
  4 16  2  0  0  0  0
  5 18  1  0  0  0  0
  6 20  1  0  0  0  0
  7 10  2  0  0  0  0
  7 19  1  0  0  0  0
  8 22  1  0  0  0  0
  9 22  2  0  0  0  0
 10 23  1  0  0  0  0
 11 12  2  0  0  0  0
 11 24  1  0  0  0  0
 12 25  1  0  0  0  0
 13 21  1  0  0  0  0
 13 23  2  0  0  0  0
 14 25  2  0  0  0  0
 14 26  1  0  0  0  0
 15 28  1  0  0  0  0
 15 68  2  0  0  0  0
 16 27  1  0  0  0  0
 17 27  1  0  0  0  0
 17 31  2  0  0  0  0
 17 32  1  0  0  0  0
 18 20  2  0  0  0  0
 18 37  1  0  0  0  0
 19 21  2  0  0  0  0
 19 38  1  0  0  0  0
 20 46  1  0  0  0  0
 21 39  1  0  0  0  0
 22 86  1  0  0  0  0
 23 87  1  0  0  0  0
 24 26  2  0  0  0  0
 24 86  1  0  0  0  0
 25 88  1  0  0  0  0
 26 89  1  0  0  0  0
 27 69  2  0  0  0  0
 28 63  1  0  0  0  0
 28 70  2  0  0  0  0
 29 30  2  0  0  0  0
 29 59  1  0  0  0  0
 29 68  1  0  0  0  0
 30 66  1  0  0  0  0
 30 70  1  0  0  0  0
 31 71  1  0  0  0  0
 31 74  1  0  0  0  0
 32 75  1  0  0  0  0
 32 81  2  0  0  0  0
 33 47  1  0  0  0  0
 33 76  1  0  0  0  0
 33 82  2  0  0  0  0
 34 64  1  0  0  0  0
 34 72  1  0  0  0  0
 34 83  2  0  0  0  0
 35 65  1  0  0  0  0
 35 77  1  0  0  0  0
 35 84  2  0  0  0  0
 36 73  1  0  0  0  0
 36 78  1  0  0  0  0
 36 85  2  0  0  0  0
 37 40  1  0  0  0  0
 38 47  1  0  0  0  0
 39 72  1  0  0  0  0
 40 42  1  0  0  0  0
 41 43  1  0  0  0  0
 41 44  1  0  0  0  0
 42 46  1  0  0  0  0
 43 48  1  0  0  0  0
 44 73  1  0  0  0  0
 45 48  1  0  0  0  0
 45 73  1  0  0  0  0
 46 76  1  0  0  0  0
 47 72  1  0  0  0  0
 48 71  1  0  0  0  0
 49 65  1  0  0  0  0
 50 66  1  0  0  0  0
 51 66  1  0  0  0  0
 52 66  1  0  0  0  0
 53 67  1  0  0  0  0
 54 67  1  0  0  0  0
 55 67  1  0  0  0  0
 56 79  1  0  0  0  0
 57 80  1  0  0  0  0
 58 80  1  0  0  0  0
 59 60  1  0  0  0  0
 60 62  1  0  0  0  0
 61 63  1  0  0  0  0
 61 78  1  0  0  0  0
 62 87  1  0  0  0  0
 63 80  1  0  0  0  0
 64 67  1  0  0  0  0
 64 77  1  0  0  0  0
 65 79  1  0  0  0  0
 69 71  1  0  0  0  0
M  CHG  2  79   1  80   1
M  ISO  4  36 100  62 101  78 100  87 101
M  END
> <Batch ID>
0063

> <Smiles>
CNC(C)C(=O)NC(C(=O)N1Cc2cc([101O:1][101CH2:1]CCc3ncc(C(C[100NH:0][100C:0](=O)N4CCCC(n5nc(-c6ccc(Oc7ccc(F)cc7F)cc6)c(C(N)=O)c5N)C4)N(C)C)nc3C(C)(C)C)ccc2CC1C(=O)NC1CCCc2ccccc21)C(C)(C)C

> <Shape>
0.211

> <Color>
0.073

> <Negative vol penalty>
0.000

$$$$

  -OEChem-04052318023D

 84 92  0     1  0  0  0  0  0999 V2000
  -29.6775  -31.7070   18.4548 C   0  0  0  0  0  0  0  0  0  0  0  0
  -29.9150  -30.3572   18.2160 C   0  0  0  0  0  0  0  0  0  0  0  0
  -23.0974   -9.7715   19.9953 C   0  0  0  0  0  0  0  0  0  0  0  0
  -23.8577   -9.8825   22.2859 C   0  0  0  0  0  0  0  0  0  0  0  0
  -29.5210  -32.1655   19.7622 C   0  0  0  0  0  0  0  0  0  0  0  0
  -29.9971  -29.4652   19.2846 C   0  0  0  0  0  0  0  0  0  0  0  0
  -28.1412  -23.6294   19.3597 C   0  0  0  0  0  0  0  0  0  0  0  0
  -22.3875   -8.6069   20.2873 C   0  0  0  0  0  0  0  0  0  0  0  0
  -23.1477   -8.7179   22.5779 C   0  0  0  0  0  0  0  0  0  0  0  0
  -28.8254  -22.4254   19.1985 C   0  0  0  0  0  0  0  0  0  0  0  0
  -19.9444   -7.8487   23.2132 C   0  0  0  0  0  0  0  0  0  0  0  0
  -19.1894   -7.8286   24.3858 C   0  0  0  0  0  0  0  0  0  0  0  0
  -28.9998  -22.2107   21.5949 C   0  0  0  0  0  0  0  0  0  0  0  0
  -20.4869   -5.9556   25.1892 C   0  0  0  0  0  0  0  0  0  0  0  0
  -23.8326  -10.4093   20.9946 C   0  0  0  0  0  0  0  0  0  0  0  0
  -24.1008  -12.9374   20.7840 C   0  0  0  0  0  0  0  0  0  0  0  0
  -29.5916  -31.2770   20.8468 C   0  0  0  0  0  0  0  0  0  0  0  0
  -27.8903  -24.1394   20.6416 C   0  0  0  0  0  0  0  0  0  0  0  0
  -29.8427  -29.9124   20.6078 C   0  0  0  0  0  0  0  0  0  0  0  0
  -28.3100  -23.4201   21.7697 C   0  0  0  0  0  0  0  0  0  0  0  0
  -22.4126   -8.0801   21.5786 C   0  0  0  0  0  0  0  0  0  0  0  0
  -29.2574  -21.7173   20.3161 C   0  0  0  0  0  0  0  0  0  0  0  0
  -20.9706   -6.9221   23.0285 C   0  0  0  0  0  0  0  0  0  0  0  0
  -19.4606   -6.8821   25.3739 C   0  0  0  0  0  0  0  0  0  0  0  0
  -21.2419   -5.9756   24.0165 C   0  0  0  0  0  0  0  0  0  0  0  0
  -24.5666  -11.6120   20.6934 C   0  0  0  0  0  0  0  0  0  0  0  0
  -25.1706  -13.7048   20.3926 C   0  0  0  0  0  0  0  0  0  0  0  0
  -31.8168  -17.4756   20.8092 C   0  0  0  0  0  0  0  0  0  0  0  0
  -22.8161  -13.4307   21.1861 C   0  0  0  0  0  0  0  0  0  0  0  0
  -28.7228  -26.7764   22.2092 C   0  0  0  0  0  0  0  0  0  0  0  0
  -30.6453  -14.8264   20.6358 C   0  0  0  0  0  0  0  0  0  0  0  0
  -26.6978  -25.6102   24.4590 C   0  0  0  0  0  0  0  0  0  0  0  0
  -25.1298  -22.9024   25.8214 C   0  0  0  0  0  0  0  0  0  0  0  0
  -29.4630  -31.8270   22.2452 C   0  0  0  0  0  0  0  0  0  0  0  0
  -27.1275  -25.4262   20.7991 C   0  0  0  0  0  0  0  0  0  0  0  0
  -28.0479  -23.9143   23.1681 C   0  0  0  0  0  0  0  0  0  0  0  0
  -29.1913  -30.7558   23.2984 C   0  0  0  0  0  0  0  0  0  0  0  0
  -29.5467  -12.4094   18.2294 C   0  0  0  0  0  0  0  0  0  0  0  0
  -30.1297  -29.5687   23.1069 C   0  0  0  0  0  0  0  0  0  0  0  0
  -28.1262  -12.0731   18.6811 C   0  0  0  0  0  0  0  0  0  0  0  0
  -30.4614  -12.6814   19.4195 C   0  0  0  0  0  0  0  0  0  0  0  0
  -28.5381  -13.4101   20.7948 C   0  0  0  0  0  0  0  0  0  0  0  0
  -29.9138  -28.9098   21.7391 C   0  0  1  0  0  0  0  0  0  0  0  0
  -27.3783  -26.1091   22.1401 C   0  0  1  0  0  0  0  0  0  0  0  0
  -27.5738  -13.1584   19.6221 C   0  0  2  0  0  0  0  0  0  0  0  0
  -23.5662  -22.2579   27.6753 C   0  0  0  0  0  0  0  0  0  0  0  0
  -30.0729  -18.1084   22.6064 C   0  0  0  0  0  0  0  0  0  0  0  0
  -28.9738  -25.8884   26.4720 C   0  0  0  0  0  0  0  0  0  0  0  0
  -27.6995  -24.3844   28.0155 C   0  0  0  0  0  0  0  0  0  0  0  0
  -26.7296  -26.5790   27.3328 C   0  0  0  0  0  0  0  0  0  0  0  0
  -23.1087  -21.8784   23.9173 C   0  0  0  0  0  0  0  0  0  0  0  0
  -29.9890  -15.8349   21.5448 C   0  0  0  0  0  0  0  0  0  0  0  0
  -29.8789  -18.2892   19.2935 C   0  0  0  0  0  0  0  0  0  0  0  0
  -29.6119  -19.7630   19.0080 C   0  0  0  0  0  0  0  0  0  1  0  0
  -26.8370  -24.6943   25.6510 C   0  0  1  0  0  0  0  0  0  0  0  0
  -23.6826  -22.6694   26.2159 C   0  0  2  0  0  0  0  0  0  0  0  0
  -30.9803  -17.0081   21.9262 C   0  0  1  0  0  0  0  0  0  0  0  0
  -27.5668  -25.3779   26.8416 C   0  0  0  0  0  0  0  0  0  0  0  0
  -31.8649  -16.4582   23.0989 C   0  0  0  0  0  0  0  0  0  0  0  0
  -25.8336  -11.5380   20.2770 N   0  0  0  0  0  0  0  0  0  0  0  0
  -33.1261  -17.4427   20.7147 N   0  0  0  0  0  0  0  0  0  0  0  0
  -33.4238  -17.9927   19.4884 N   0  0  0  0  0  0  0  0  0  0  0  0
  -32.3192  -18.3535   18.8466 N   0  0  0  0  0  0  0  0  0  0  0  0
  -26.1730  -12.8266   20.1024 N   0  0  0  0  0  0  0  0  0  0  0  0
  -31.3161  -18.0294   19.6743 N   0  0  0  0  0  0  0  0  0  0  0  0
  -27.3038  -25.1806   23.2699 N   0  0  0  0  0  0  0  0  0  0  0  0
  -29.8910  -13.7017   20.3009 N   0  0  0  0  0  0  0  0  0  0  0  0
  -25.3422  -15.0383   20.2718 N   0  0  0  0  0  0  0  0  0  0  0  0
  -21.8311  -12.5052   21.5570 N   0  0  0  0  0  0  0  0  0  0  0  0
  -28.7264  -28.0826   21.7584 N   0  0  0  0  0  0  0  0  0  0  0  0
  -25.4916  -24.2252   25.9646 N   0  0  0  0  0  0  0  0  0  0  0  0
  -23.0831  -21.5947   25.3753 N   0  3  0  0  0  0  0  0  0  0  0  0
  -22.5442  -14.6552   21.1998 O   0  0  0  0  0  0  0  0  0  0  0  0
  -29.6853  -26.1528   22.6410 O   0  0  0  0  0  0  0  0  0  0  0  0
  -31.7930  -15.0352   20.2342 O   0  0  0  0  0  0  0  0  0  0  0  0
  -26.0682  -26.6645   24.5767 O   0  0  0  0  0  0  0  0  0  0  0  0
  -25.8668  -22.0004   25.4292 O   0  0  0  0  0  0  0  0  0  0  0  0
  -21.7198   -6.9438   21.8640 O   0  0  0  0  0  0  0  0  0  0  0  0
  -29.9260  -20.5422   20.1616 O   0  0  0  0  0  0  0  0  0  1  0  0
  -18.7365   -6.8640   26.5006 F   0  0  0  0  0  0  0  0  0  0  0  0
  -22.2273   -5.0837   23.8452 F   0  0  0  0  0  0  0  0  0  0  0  0
  -32.6857  -17.4300   23.5596 F   0  0  0  0  0  0  0  0  0  0  0  0
  -31.1463  -16.0086   24.1549 F   0  0  0  0  0  0  0  0  0  0  0  0
  -32.6417  -15.4324   22.6867 F   0  0  0  0  0  0  0  0  0  0  0  0
  1  2  1  0  0  0  0
  1  5  2  0  0  0  0
  2  6  2  0  0  0  0
  3  8  2  0  0  0  0
  3 15  1  0  0  0  0
  4  9  1  0  0  0  0
  4 15  2  0  0  0  0
  5 17  1  0  0  0  0
  6 19  1  0  0  0  0
  7 10  2  0  0  0  0
  7 18  1  0  0  0  0
  8 21  1  0  0  0  0
  9 21  2  0  0  0  0
 10 22  1  0  0  0  0
 11 12  2  0  0  0  0
 11 23  1  0  0  0  0
 12 24  1  0  0  0  0
 13 20  1  0  0  0  0
 13 22  2  0  0  0  0
 14 24  2  0  0  0  0
 14 25  1  0  0  0  0
 15 26  1  0  0  0  0
 16 26  1  0  0  0  0
 16 27  2  0  0  0  0
 16 29  1  0  0  0  0
 17 19  2  0  0  0  0
 17 34  1  0  0  0  0
 18 20  2  0  0  0  0
 18 35  1  0  0  0  0
 19 43  1  0  0  0  0
 20 36  1  0  0  0  0
 21 78  1  0  0  0  0
 22 79  1  0  0  0  0
 23 25  2  0  0  0  0
 23 78  1  0  0  0  0
 24 80  1  0  0  0  0
 25 81  1  0  0  0  0
 26 60  2  0  0  0  0
 27 64  1  0  0  0  0
 27 68  1  0  0  0  0
 28 57  1  0  0  0  0
 28 61  2  0  0  0  0
 28 65  1  0  0  0  0
 29 69  1  0  0  0  0
 29 73  2  0  0  0  0
 30 44  1  0  0  0  0
 30 70  1  0  0  0  0
 30 74  2  0  0  0  0
 31 52  1  0  0  0  0
 31 67  1  0  0  0  0
 31 75  2  0  0  0  0
 32 55  1  0  0  0  0
 32 66  1  0  0  0  0
 32 76  2  0  0  0  0
 33 56  1  0  0  0  0
 33 71  1  0  0  0  0
 33 77  2  0  0  0  0
 34 37  1  0  0  0  0
 35 44  1  0  0  0  0
 36 66  1  0  0  0  0
 37 39  1  0  0  0  0
 38 40  1  0  0  0  0
 38 41  1  0  0  0  0
 39 43  1  0  0  0  0
 40 45  1  0  0  0  0
 41 67  1  0  0  0  0
 42 45  1  0  0  0  0
 42 67  1  0  0  0  0
 43 70  1  0  0  0  0
 44 66  1  0  0  0  0
 45 64  1  0  0  0  0
 46 56  1  0  0  0  0
 47 57  1  0  0  0  0
 48 58  1  0  0  0  0
 49 58  1  0  0  0  0
 50 58  1  0  0  0  0
 51 72  1  0  0  0  0
 52 57  1  0  0  0  0
 53 54  1  0  0  0  0
 53 65  1  0  0  0  0
 54 79  1  0  0  0  0
 55 58  1  0  0  0  0
 55 71  1  0  0  0  0
 56 72  1  0  0  0  0
 57 59  1  0  0  0  0
 59 82  1  0  0  0  0
 59 83  1  0  0  0  0
 59 84  1  0  0  0  0
 60 64  1  0  0  0  0
 61 62  1  0  0  0  0
 62 63  2  0  0  0  0
 63 65  1  0  0  0  0
M  CHG  1  72   1
M  ISO  4  31 100  52 100  54 101  79 101
M  END
> <Batch ID>
0063

> <Smiles>
CNC(C)C(=O)NC(C(=O)N1Cc2cc([101O:1][101CH2:1]Cn3nnnc3C(C)([100CH2:0][100C:0](=O)N3CCCC(n4nc(-c5ccc(Oc6ccc(F)cc6F)cc5)c(C(N)=O)c4N)C3)C(F)(F)F)ccc2CC1C(=O)NC1CCCc2ccccc21)C(C)(C)C

> <Shape>
0.242

> <Color>
0.197

> <Negative vol penalty>
0.000

$$$$

  -OEChem-04052318023D

 87 95  0     1  0  0  0  0  0999 V2000
  -28.8786  -23.9142   17.2995 C   0  0  0  0  0  0  0  0  0  0  0  0
  -27.6663  -24.0791   17.9617 C   0  0  0  0  0  0  0  0  0  0  0  0
  -27.7212  -17.7967   22.8065 C   0  0  0  0  0  0  0  0  0  0  0  0
  -26.0062  -16.7344   21.4771 C   0  0  0  0  0  0  0  0  0  0  0  0
  -30.0249  -24.5470   17.7784 C   0  0  0  0  0  0  0  0  0  0  0  0
  -27.5999  -24.8762   19.1039 C   0  0  0  0  0  0  0  0  0  0  0  0
  -23.5917  -27.9712   19.0826 C   0  0  0  0  0  0  0  0  0  0  0  0
  -28.4806  -16.6276   22.7610 C   0  0  0  0  0  0  0  0  0  0  0  0
  -26.7657  -15.5653   21.4316 C   0  0  0  0  0  0  0  0  0  0  0  0
  -22.3556  -27.4145   19.4080 C   0  0  0  0  0  0  0  0  0  0  0  0
  -29.4391  -14.3986   19.7251 C   0  0  0  0  0  0  0  0  0  0  0  0
  -29.5621  -13.7550   18.4937 C   0  0  0  0  0  0  0  0  0  0  0  0
  -22.5561  -28.2924   21.6459 C   0  0  0  0  0  0  0  0  0  0  0  0
  -28.5386  -11.7752   19.4263 C   0  0  0  0  0  0  0  0  0  0  0  0
  -26.4839  -17.8500   22.1646 C   0  0  0  0  0  0  0  0  0  0  0  0
  -25.7367  -20.1321   21.3034 C   0  0  0  0  0  0  0  0  0  0  0  0
  -29.9706  -25.3601   18.9215 C   0  0  0  0  0  0  0  0  0  0  0  0
  -24.3255  -28.6847   20.0412 C   0  0  0  0  0  0  0  0  0  0  0  0
  -28.7468  -25.5195   19.5993 C   0  0  0  0  0  0  0  0  0  0  0  0
  -23.8001  -28.8594   21.3294 C   0  0  0  0  0  0  0  0  0  0  0  0
  -28.0029  -15.5119   22.0736 C   0  0  0  0  0  0  0  0  0  0  0  0
  -21.8390  -27.5726   20.6907 C   0  0  0  0  0  0  0  0  0  0  0  0
  -28.8660  -13.7305   20.8071 C   0  0  0  0  0  0  0  0  0  0  0  0
  -29.1118  -12.4433   18.3443 C   0  0  0  0  0  0  0  0  0  0  0  0
  -28.4156  -12.4188   20.6577 C   0  0  0  0  0  0  0  0  0  0  0  0
  -25.6987  -19.0572   22.2117 C   0  0  0  0  0  0  0  0  0  0  0  0
  -24.8094  -21.0227   21.7864 C   0  0  0  0  0  0  0  0  0  0  0  0
  -17.5839  -21.8321   23.4674 C   0  0  0  0  0  0  0  0  0  0  0  0
  -17.1157  -23.5722   24.5208 C   0  0  0  0  0  0  0  0  0  0  0  0
  -26.5385  -20.3095   20.1281 C   0  0  0  0  0  0  0  0  0  0  0  0
  -27.1657  -28.3187   21.4207 C   0  0  0  0  0  0  0  0  0  0  0  0
  -26.4787  -31.2153   22.7091 C   0  0  0  0  0  0  0  0  0  0  0  0
  -24.1043  -33.4886   23.6265 C   0  0  0  0  0  0  0  0  0  0  0  0
  -19.9417  -20.3838   25.2140 C   0  0  0  0  0  0  0  0  0  0  0  0
  -31.2457  -25.9857   19.4287 C   0  0  0  0  0  0  0  0  0  0  0  0
  -25.6451  -29.3019   19.6666 C   0  0  0  0  0  0  0  0  0  0  0  0
  -24.5391  -29.6339   22.3890 C   0  0  0  0  0  0  0  0  0  0  0  0
  -31.0141  -27.1149   20.4295 C   0  0  0  0  0  0  0  0  0  0  0  0
  -22.7637  -22.4539   25.8678 C   0  0  0  0  0  0  0  0  0  0  0  0
  -29.9857  -26.6980   21.4761 C   0  0  0  0  0  0  0  0  0  0  0  0
  -23.8393  -21.9151   24.9230 C   0  0  0  0  0  0  0  0  0  0  0  0
  -21.8855  -21.3335   26.4207 C   0  0  0  0  0  0  0  0  0  0  0  0
  -22.3514  -19.9241   24.4534 C   0  0  0  0  0  0  0  0  0  0  0  0
  -28.6294  -26.3962   20.8273 C   0  0  1  0  0  0  0  0  0  0  0  0
  -26.5424  -29.5704   20.8707 C   0  0  1  0  0  0  0  0  0  0  0  0
  -23.2268  -21.0228   23.8267 C   0  0  2  0  0  0  0  0  0  0  0  0
  -23.8459  -35.7474   24.6887 C   0  0  0  0  0  0  0  0  0  0  0  0
  -18.1274  -20.2122   21.5239 C   0  0  0  0  0  0  0  0  0  0  0  0
  -15.9715  -20.0515   22.7412 C   0  0  0  0  0  0  0  0  0  0  0  0
  -15.1622  -24.1588   25.9992 C   0  0  0  0  0  0  0  0  0  0  0  0
  -16.1990  -25.9188   24.5283 C   0  0  0  0  0  0  0  0  0  0  0  0
  -17.3807  -25.1270   26.5673 C   0  0  0  0  0  0  0  0  0  0  0  0
  -27.0265  -29.9874   25.4481 C   0  0  0  0  0  0  0  0  0  0  0  0
  -25.8585  -31.9455   26.4823 C   0  0  0  0  0  0  0  0  0  0  0  0
  -27.9319  -32.2983   25.1409 C   0  0  0  0  0  0  0  0  0  0  0  0
  -22.8329  -34.6119   21.2015 C   0  0  0  0  0  0  0  0  0  0  0  0
  -19.4567  -25.4686   22.4026 C   0  0  0  0  0  0  0  0  0  0  0  0
  -19.1864  -24.9446   23.8147 C   0  0  0  0  0  0  0  0  0  0  0  0
  -18.0988  -19.3735   23.8941 C   0  0  0  0  0  0  0  0  0  0  0  0
  -20.4391  -26.6336   22.3683 C   0  0  0  0  0  0  0  0  0  1  0  0
  -25.7804  -31.6903   23.9604 C   0  0  1  0  0  0  0  0  0  0  0  0
  -23.9926  -34.9827   23.3824 C   0  0  2  0  0  0  0  0  0  0  0  0
  -17.4749  -20.4672   22.9390 C   0  0  0  0  0  0  0  0  0  0  0  0
  -16.5122  -24.6261   25.3560 C   0  0  0  0  0  0  0  0  0  0  0  0
  -26.6360  -31.4641   25.2388 C   0  0  0  0  0  0  0  0  0  0  0  0
  -24.8171  -19.2459   23.1973 N   0  0  0  0  0  0  0  0  0  0  0  0
  -16.6410  -22.3690   24.2963 N   0  0  0  0  0  0  0  0  0  0  0  0
  -18.6123  -22.6274   23.1648 N   0  0  0  0  0  0  0  0  0  0  0  0
  -24.2927  -20.4497   22.9111 N   0  0  0  0  0  0  0  0  0  0  0  0
  -18.2884  -23.7338   23.8511 N   0  0  0  0  0  0  0  0  0  0  0  0
  -25.8281  -30.2128   21.9758 N   0  0  0  0  0  0  0  0  0  0  0  0
  -21.3343  -20.5257   25.3300 N   0  0  0  0  0  0  0  0  0  0  0  0
  -24.3938  -22.2324   21.3546 N   0  0  0  0  0  0  0  0  0  0  0  0
  -27.4405  -19.2964   19.7754 N   0  0  0  0  0  0  0  0  0  0  0  0
  -27.9374  -27.6262   20.5072 N   0  0  0  0  0  0  0  0  0  0  0  0
  -25.4188  -33.0835   23.7223 N   0  0  0  0  0  0  0  0  0  0  0  0
  -19.5029  -19.6070   24.1488 N   0  0  0  0  0  0  0  0  0  0  0  0
  -22.8087  -35.2808   22.5277 N   0  3  0  0  0  0  0  0  0  0  0  0
  -26.4692  -21.3433   19.4210 O   0  0  0  0  0  0  0  0  0  0  0  0
  -26.9629  -28.0053   22.5879 O   0  0  0  0  0  0  0  0  0  0  0  0
  -27.5579  -31.7203   22.3901 O   0  0  0  0  0  0  0  0  0  0  0  0
  -23.1234  -32.7548   23.7263 O   0  0  0  0  0  0  0  0  0  0  0  0
  -19.1480  -20.9147   25.9984 O   0  0  0  0  0  0  0  0  0  0  0  0
  -28.7439  -14.3711   22.0287 O   0  0  0  0  0  0  0  0  0  0  0  0
  -20.6330  -27.0296   21.0112 O   0  0  0  0  0  0  0  0  0  1  0  0
  -29.2285  -11.8259   17.1614 F   0  0  0  0  0  0  0  0  0  0  0  0
  -27.8631  -11.7722   21.6933 F   0  0  0  0  0  0  0  0  0  0  0  0
  1  2  1  0  0  0  0
  1  5  2  0  0  0  0
  2  6  2  0  0  0  0
  3  8  2  0  0  0  0
  3 15  1  0  0  0  0
  4  9  1  0  0  0  0
  4 15  2  0  0  0  0
  5 17  1  0  0  0  0
  6 19  1  0  0  0  0
  7 10  2  0  0  0  0
  7 18  1  0  0  0  0
  8 21  1  0  0  0  0
  9 21  2  0  0  0  0
 10 22  1  0  0  0  0
 11 12  2  0  0  0  0
 11 23  1  0  0  0  0
 12 24  1  0  0  0  0
 13 20  1  0  0  0  0
 13 22  2  0  0  0  0
 14 24  2  0  0  0  0
 14 25  1  0  0  0  0
 15 26  1  0  0  0  0
 16 26  1  0  0  0  0
 16 27  2  0  0  0  0
 16 30  1  0  0  0  0
 17 19  2  0  0  0  0
 17 35  1  0  0  0  0
 18 20  2  0  0  0  0
 18 36  1  0  0  0  0
 19 44  1  0  0  0  0
 20 37  1  0  0  0  0
 21 84  1  0  0  0  0
 22 85  1  0  0  0  0
 23 25  2  0  0  0  0
 23 84  1  0  0  0  0
 24 86  1  0  0  0  0
 25 87  1  0  0  0  0
 26 66  2  0  0  0  0
 27 69  1  0  0  0  0
 27 73  1  0  0  0  0
 28 63  1  0  0  0  0
 28 67  1  0  0  0  0
 28 68  2  0  0  0  0
 29 64  1  0  0  0  0
 29 67  2  0  0  0  0
 29 70  1  0  0  0  0
 30 74  1  0  0  0  0
 30 79  2  0  0  0  0
 31 45  1  0  0  0  0
 31 75  1  0  0  0  0
 31 80  2  0  0  0  0
 32 61  1  0  0  0  0
 32 71  1  0  0  0  0
 32 81  2  0  0  0  0
 33 62  1  0  0  0  0
 33 76  1  0  0  0  0
 33 82  2  0  0  0  0
 34 72  1  0  0  0  0
 34 77  1  0  0  0  0
 34 83  2  0  0  0  0
 35 38  1  0  0  0  0
 36 45  1  0  0  0  0
 37 71  1  0  0  0  0
 38 40  1  0  0  0  0
 39 41  1  0  0  0  0
 39 42  1  0  0  0  0
 40 44  1  0  0  0  0
 41 46  1  0  0  0  0
 42 72  1  0  0  0  0
 43 46  1  0  0  0  0
 43 72  1  0  0  0  0
 44 75  1  0  0  0  0
 45 71  1  0  0  0  0
 46 69  1  0  0  0  0
 47 62  1  0  0  0  0
 48 63  1  0  0  0  0
 49 63  1  0  0  0  0
 50 64  1  0  0  0  0
 51 64  1  0  0  0  0
 52 64  1  0  0  0  0
 53 65  1  0  0  0  0
 54 65  1  0  0  0  0
 55 65  1  0  0  0  0
 56 78  1  0  0  0  0
 57 58  1  0  0  0  0
 57 60  1  0  0  0  0
 58 70  1  0  0  0  0
 59 63  1  0  0  0  0
 59 77  1  0  0  0  0
 60 85  1  0  0  0  0
 61 65  1  0  0  0  0
 61 76  1  0  0  0  0
 62 78  1  0  0  0  0
 66 69  1  0  0  0  0
 68 70  1  0  0  0  0
M  CHG  1  78   1
M  ISO  4  34 100  60 101  77 100  85 101
M  END
> <Batch ID>
0063

> <Smiles>
CNC(C)C(=O)NC(C(=O)N1Cc2cc([101O:1][101CH2:1]CCn3nc(C(C)(C)C[100NH:0][100C:0](=O)N4CCCC(n5nc(-c6ccc(Oc7ccc(F)cc7F)cc6)c(C(N)=O)c5N)C4)nc3C(C)(C)C)ccc2CC1C(=O)NC1CCCc2ccccc21)C(C)(C)C

> <Shape>
0.244

> <Color>
0.061

> <Negative vol penalty>
0.000

$$$$

  -OEChem-04052318023D

 83 91  0     1  0  0  0  0  0999 V2000
  -39.5257  -20.7543   18.1732 C   0  0  0  0  0  0  0  0  0  0  0  0
  -38.1400  -20.6318   18.1572 C   0  0  0  0  0  0  0  0  0  0  0  0
  -23.1325   -9.8222   19.9321 C   0  0  0  0  0  0  0  0  0  0  0  0
  -23.8246   -9.8850   22.2460 C   0  0  0  0  0  0  0  0  0  0  0  0
  -40.1137  -22.0163   18.0976 C   0  0  0  0  0  0  0  0  0  0  0  0
  -37.3414  -21.7713   18.0666 C   0  0  0  0  0  0  0  0  0  0  0  0
  -33.5624  -21.2356   14.7384 C   0  0  0  0  0  0  0  0  0  0  0  0
  -22.4088   -8.6559   20.1802 C   0  0  0  0  0  0  0  0  0  0  0  0
  -23.1009   -8.7186   22.4941 C   0  0  0  0  0  0  0  0  0  0  0  0
  -32.4521  -20.4989   15.1488 C   0  0  0  0  0  0  0  0  0  0  0  0
  -19.8761   -7.8539   23.0167 C   0  0  0  0  0  0  0  0  0  0  0  0
  -19.0863   -7.8150   24.1658 C   0  0  0  0  0  0  0  0  0  0  0  0
  -31.2669  -22.5501   15.6039 C   0  0  0  0  0  0  0  0  0  0  0  0
  -20.3507   -5.9202   24.9708 C   0  0  0  0  0  0  0  0  0  0  0  0
  -30.0983  -19.2915   19.7747 C   0  0  0  0  0  0  0  0  0  0  0  0
  -30.1655  -17.8875   17.9091 C   0  0  0  0  0  0  0  0  0  0  0  0
  -23.8404  -10.4368   20.9650 C   0  0  0  0  0  0  0  0  0  0  0  0
  -24.1264  -12.9670   20.8118 C   0  0  0  0  0  0  0  0  0  0  0  0
  -39.3220  -23.1712   17.9963 C   0  0  0  0  0  0  0  0  0  0  0  0
  -33.5370  -22.6373   14.7681 C   0  0  0  0  0  0  0  0  0  0  0  0
  -37.9193  -23.0499   17.9909 C   0  0  0  0  0  0  0  0  0  0  0  0
  -32.3772  -23.3022   15.1909 C   0  0  0  0  0  0  0  0  0  0  0  0
  -29.6568  -19.0292   18.4939 C   0  0  0  0  0  0  0  0  0  0  0  0
  -22.3930   -8.1041   21.4611 C   0  0  0  0  0  0  0  0  0  0  0  0
  -31.3052  -21.1561   15.5844 C   0  0  0  0  0  0  0  0  0  0  0  0
  -20.9031   -6.9258   22.8446 C   0  0  0  0  0  0  0  0  0  0  0  0
  -19.3236   -6.8482   25.1428 C   0  0  0  0  0  0  0  0  0  0  0  0
  -21.1404   -5.9590   23.8216 C   0  0  0  0  0  0  0  0  0  0  0  0
  -24.5886  -11.6413   20.7093 C   0  0  0  0  0  0  0  0  0  0  0  0
  -25.2109  -13.7364   20.4674 C   0  0  0  0  0  0  0  0  0  0  0  0
  -31.3924  -17.4227   19.7654 C   0  0  0  0  0  0  0  0  0  0  0  0
  -22.8325  -13.4591   21.1850 C   0  0  0  0  0  0  0  0  0  0  0  0
  -35.1902  -24.8789   16.2999 C   0  0  0  0  0  0  0  0  0  0  0  0
  -33.4730  -26.8833   14.4142 C   0  0  0  0  0  0  0  0  0  0  0  0
  -30.6614  -27.4132   12.5539 C   0  0  0  0  0  0  0  0  0  0  0  0
  -30.4318  -15.0154   20.7261 C   0  0  0  0  0  0  0  0  0  0  0  0
  -40.0021  -24.5169   17.9647 C   0  0  0  0  0  0  0  0  0  0  0  0
  -34.7334  -23.4177   14.2968 C   0  0  0  0  0  0  0  0  0  0  0  0
  -32.2918  -24.8056   15.2225 C   0  0  0  0  0  0  0  0  0  0  0  0
  -39.0922  -25.6483   17.4933 C   0  0  0  0  0  0  0  0  0  0  0  0
  -29.6442  -12.4664   18.4122 C   0  0  0  0  0  0  0  0  0  0  0  0
  -37.7403  -25.5742   18.1960 C   0  0  0  0  0  0  0  0  0  0  0  0
  -28.2122  -12.1210   18.8182 C   0  0  0  0  0  0  0  0  0  0  0  0
  -30.5376  -12.7308   19.6256 C   0  0  0  0  0  0  0  0  0  0  0  0
  -28.5661  -13.4040   20.9607 C   0  0  0  0  0  0  0  0  0  0  0  0
  -37.0197  -24.2607   17.8687 C   0  0  1  0  0  0  0  0  0  0  0  0
  -34.7791  -24.8366   14.8552 C   0  0  1  0  0  0  0  0  0  0  0  0
  -27.6333  -13.1926   19.7583 C   0  0  2  0  0  0  0  0  0  0  0  0
  -29.5202  -29.1628   11.1632 C   0  0  0  0  0  0  0  0  0  0  0  0
  -32.7585  -16.9717   21.9099 C   0  0  0  0  0  0  0  0  0  0  0  0
  -33.6844  -16.4194   19.6639 C   0  0  0  0  0  0  0  0  0  0  0  0
  -32.6305  -28.3493   16.9541 C   0  0  0  0  0  0  0  0  0  0  0  0
  -30.8004  -29.4365   15.6362 C   0  0  0  0  0  0  0  0  0  0  0  0
  -33.1848  -29.8402   15.0242 C   0  0  0  0  0  0  0  0  0  0  0  0
  -32.8010  -14.1463   20.9166 C   0  0  0  0  0  0  0  0  0  0  0  0
  -30.7525  -25.7138   10.1326 C   0  0  0  0  0  0  0  0  0  0  0  0
  -28.6830  -19.9339   17.7787 C   0  0  0  0  0  0  0  0  0  0  0  0
  -29.3856  -21.0283   16.9826 C   0  0  0  0  0  0  0  0  0  1  0  0
  -32.1438  -27.5887   14.5353 C   0  0  1  0  0  0  0  0  0  0  0  0
  -30.4690  -27.9743   11.1565 C   0  0  2  0  0  0  0  0  0  0  0  0
  -32.3587  -16.5318   20.4695 C   0  0  0  0  0  0  0  0  0  0  0  0
  -32.1918  -28.7753   15.5388 C   0  0  0  0  0  0  0  0  0  0  0  0
  -30.9690  -18.5067   20.4429 N   0  0  0  0  0  0  0  0  0  0  0  0
  -31.0385  -17.0584   18.5181 N   0  0  0  0  0  0  0  0  0  0  0  0
  -25.8671  -11.5689   20.3294 N   0  0  0  0  0  0  0  0  0  0  0  0
  -26.2174  -12.8588   20.1901 N   0  0  0  0  0  0  0  0  0  0  0  0
  -33.4899  -25.5241   14.7579 N   0  0  0  0  0  0  0  0  0  0  0  0
  -29.9260  -13.7235   20.5197 N   0  0  0  0  0  0  0  0  0  0  0  0
  -25.3921  -15.0711   20.3778 N   0  0  0  0  0  0  0  0  0  0  0  0
  -21.8327  -12.5317   21.5084 N   0  0  0  0  0  0  0  0  0  0  0  0
  -36.4306  -24.3229   16.5483 N   0  0  0  0  0  0  0  0  0  0  0  0
  -31.7576  -27.9673   13.1803 N   0  0  0  0  0  0  0  0  0  0  0  0
  -31.8198  -15.1869   20.6156 N   0  0  0  0  0  0  0  0  0  0  0  0
  -29.9089  -26.9308   10.2519 N   0  3  0  0  0  0  0  0  0  0  0  0
  -22.5659  -14.6845   21.2145 O   0  0  0  0  0  0  0  0  0  0  0  0
  -34.4383  -25.3802   17.1276 O   0  0  0  0  0  0  0  0  0  0  0  0
  -34.4584  -27.5133   14.0220 O   0  0  0  0  0  0  0  0  0  0  0  0
  -29.9117  -26.5705   13.0423 O   0  0  0  0  0  0  0  0  0  0  0  0
  -29.6857  -15.9636   21.0023 O   0  0  0  0  0  0  0  0  0  0  0  0
  -21.6868   -6.9661   21.7036 O   0  0  0  0  0  0  0  0  0  0  0  0
  -30.2203  -20.4394   15.9861 O   0  0  0  0  0  0  0  0  0  1  0  0
  -18.5662   -6.8120   26.2470 F   0  0  0  0  0  0  0  0  0  0  0  0
  -22.1264   -5.0655   23.6624 F   0  0  0  0  0  0  0  0  0  0  0  0
  1  2  1  0  0  0  0
  1  5  2  0  0  0  0
  2  6  2  0  0  0  0
  3  8  2  0  0  0  0
  3 17  1  0  0  0  0
  4  9  1  0  0  0  0
  4 17  2  0  0  0  0
  5 19  1  0  0  0  0
  6 21  1  0  0  0  0
  7 10  2  0  0  0  0
  7 20  1  0  0  0  0
  8 24  1  0  0  0  0
  9 24  2  0  0  0  0
 10 25  1  0  0  0  0
 11 12  2  0  0  0  0
 11 26  1  0  0  0  0
 12 27  1  0  0  0  0
 13 22  1  0  0  0  0
 13 25  2  0  0  0  0
 14 27  2  0  0  0  0
 14 28  1  0  0  0  0
 15 23  1  0  0  0  0
 15 63  2  0  0  0  0
 16 23  2  0  0  0  0
 16 64  1  0  0  0  0
 17 29  1  0  0  0  0
 18 29  1  0  0  0  0
 18 30  2  0  0  0  0
 18 32  1  0  0  0  0
 19 21  2  0  0  0  0
 19 37  1  0  0  0  0
 20 22  2  0  0  0  0
 20 38  1  0  0  0  0
 21 46  1  0  0  0  0
 22 39  1  0  0  0  0
 23 57  1  0  0  0  0
 24 80  1  0  0  0  0
 25 81  1  0  0  0  0
 26 28  2  0  0  0  0
 26 80  1  0  0  0  0
 27 82  1  0  0  0  0
 28 83  1  0  0  0  0
 29 65  2  0  0  0  0
 30 66  1  0  0  0  0
 30 69  1  0  0  0  0
 31 61  1  0  0  0  0
 31 63  1  0  0  0  0
 31 64  2  0  0  0  0
 32 70  1  0  0  0  0
 32 75  2  0  0  0  0
 33 47  1  0  0  0  0
 33 71  1  0  0  0  0
 33 76  2  0  0  0  0
 34 59  1  0  0  0  0
 34 67  1  0  0  0  0
 34 77  2  0  0  0  0
 35 60  1  0  0  0  0
 35 72  1  0  0  0  0
 35 78  2  0  0  0  0
 36 68  1  0  0  0  0
 36 73  1  0  0  0  0
 36 79  2  0  0  0  0
 37 40  1  0  0  0  0
 38 47  1  0  0  0  0
 39 67  1  0  0  0  0
 40 42  1  0  0  0  0
 41 43  1  0  0  0  0
 41 44  1  0  0  0  0
 42 46  1  0  0  0  0
 43 48  1  0  0  0  0
 44 68  1  0  0  0  0
 45 48  1  0  0  0  0
 45 68  1  0  0  0  0
 46 71  1  0  0  0  0
 47 67  1  0  0  0  0
 48 66  1  0  0  0  0
 49 60  1  0  0  0  0
 50 61  1  0  0  0  0
 51 61  1  0  0  0  0
 52 62  1  0  0  0  0
 53 62  1  0  0  0  0
 54 62  1  0  0  0  0
 55 73  1  0  0  0  0
 56 74  1  0  0  0  0
 57 58  1  0  0  0  0
 58 81  1  0  0  0  0
 59 62  1  0  0  0  0
 59 72  1  0  0  0  0
 60 74  1  0  0  0  0
 61 73  1  0  0  0  0
 65 66  1  0  0  0  0
M  CHG  1  74   1
M  ISO  4  36 100  58 101  73 100  81 101
M  END
> <Batch ID>
0063

> <Smiles>
CNC(C)C(=O)NC(C(=O)N1Cc2cc([101O:1][101CH2:1]Cc3cnc(C(C)(C)[100N:0](C)[100C:0](=O)N4CCCC(n5nc(-c6ccc(Oc7ccc(F)cc7F)cc6)c(C(N)=O)c5N)C4)nc3)ccc2CC1C(=O)NC1CCCc2ccccc21)C(C)(C)C

> <Shape>
0.182

> <Color>
0.178

> <Negative vol penalty>
0.000

$$$$

  -OEChem-04052318023D

 85 93  0     1  0  0  0  0  0999 V2000
  -31.2501  -26.4874   17.1978 C   0  0  0  0  0  0  0  0  0  0  0  0
  -29.9078  -26.1866   17.4060 C   0  0  0  0  0  0  0  0  0  0  0  0
  -23.0656  -14.0351   19.6655 C   0  0  0  0  0  0  0  0  0  0  0  0
  -24.7090  -14.9146   21.2027 C   0  0  0  0  0  0  0  0  0  0  0  0
  -31.9699  -27.1714   18.1765 C   0  0  0  0  0  0  0  0  0  0  0  0
  -29.2849  -26.5687   18.5936 C   0  0  0  0  0  0  0  0  0  0  0  0
  -23.4671  -28.3495   19.2917 C   0  0  0  0  0  0  0  0  0  0  0  0
  -23.6453  -12.7707   19.7691 C   0  0  0  0  0  0  0  0  0  0  0  0
  -25.2886  -13.6501   21.3064 C   0  0  0  0  0  0  0  0  0  0  0  0
  -22.3238  -27.6738   19.7161 C   0  0  0  0  0  0  0  0  0  0  0  0
  -23.6313  -10.1962   21.9612 C   0  0  0  0  0  0  0  0  0  0  0  0
  -22.7794   -9.1042   22.1264 C   0  0  0  0  0  0  0  0  0  0  0  0
  -22.6602  -28.5200   21.9499 C   0  0  0  0  0  0  0  0  0  0  0  0
  -23.6185   -8.1394   20.0765 C   0  0  0  0  0  0  0  0  0  0  0  0
  -24.6590  -24.0385   21.0046 C   0  0  0  0  0  0  0  0  0  0  0  0
  -25.1394  -21.8928   21.0215 C   0  0  0  0  0  0  0  0  0  0  0  0
  -23.5975  -15.1071   20.3822 C   0  0  0  0  0  0  0  0  0  0  0  0
  -21.9688  -16.9449   21.0733 C   0  0  0  0  0  0  0  0  0  0  0  0
  -31.3530  -27.5706   19.3727 C   0  0  0  0  0  0  0  0  0  0  0  0
  -24.2229  -29.1080   20.1972 C   0  0  0  0  0  0  0  0  0  0  0  0
  -29.9975  -27.2575   19.5898 C   0  0  0  0  0  0  0  0  0  0  0  0
  -23.8112  -29.2064   21.5340 C   0  0  0  0  0  0  0  0  0  0  0  0
  -24.5601  -22.8736   21.7889 C   0  0  0  0  0  0  0  0  0  0  0  0
  -24.7567  -12.5782   20.5896 C   0  0  0  0  0  0  0  0  0  0  0  0
  -21.9218  -27.7566   21.0460 C   0  0  0  0  0  0  0  0  0  0  0  0
  -24.4768  -10.2599   20.8535 C   0  0  0  0  0  0  0  0  0  0  0  0
  -22.7731   -8.0757   21.1841 C   0  0  0  0  0  0  0  0  0  0  0  0
  -24.4704   -9.2315   19.9112 C   0  0  0  0  0  0  0  0  0  0  0  0
  -22.9995  -16.4137   20.2750 C   0  0  0  0  0  0  0  0  0  0  0  0
  -21.7627  -18.2072   20.5727 C   0  0  0  0  0  0  0  0  0  0  0  0
  -21.2610  -16.3505   22.1694 C   0  0  0  0  0  0  0  0  0  0  0  0
  -27.2049  -28.9787   21.2903 C   0  0  0  0  0  0  0  0  0  0  0  0
  -25.3385  -21.9431   17.5118 C   0  0  0  0  0  0  0  0  0  0  0  0
  -26.3869  -31.7716   22.7230 C   0  0  0  0  0  0  0  0  0  0  0  0
  -23.9170  -33.7951   23.9278 C   0  0  0  0  0  0  0  0  0  0  0  0
  -32.1843  -28.2662   20.4213 C   0  0  0  0  0  0  0  0  0  0  0  0
  -25.4387  -29.8526   19.7178 C   0  0  0  0  0  0  0  0  0  0  0  0
  -24.5764  -30.0240   22.5412 C   0  0  0  0  0  0  0  0  0  0  0  0
  -31.3522  -28.9652   21.4933 C   0  0  0  0  0  0  0  0  0  0  0  0
  -22.1032  -20.7468   16.5413 C   0  0  0  0  0  0  0  0  0  0  0  0
  -30.2415  -28.0457   21.9908 C   0  0  0  0  0  0  0  0  0  0  0  0
  -21.8850  -19.5314   17.4415 C   0  0  0  0  0  0  0  0  0  0  0  0
  -23.5687  -20.8905   16.1428 C   0  0  0  0  0  0  0  0  0  0  0  0
  -24.2946  -19.7286   18.2030 C   0  0  0  0  0  0  0  0  0  0  0  0
  -29.2801  -27.6770   20.8545 C   0  0  1  0  0  0  0  0  0  0  0  0
  -26.4206  -30.1782   20.8390 C   0  0  1  0  0  0  0  0  0  0  0  0
  -22.8323  -19.5642   18.6539 C   0  0  2  0  0  0  0  0  0  0  0  0
  -27.5673  -22.4899   18.4651 C   0  0  0  0  0  0  0  0  0  0  0  0
  -23.5597  -35.9978   25.0759 C   0  0  0  0  0  0  0  0  0  0  0  0
  -19.3133  -23.6560   21.0098 C   0  0  0  0  0  0  0  0  0  0  0  0
  -27.3065  -30.5433   25.3603 C   0  0  0  0  0  0  0  0  0  0  0  0
  -26.0721  -32.3627   26.5578 C   0  0  0  0  0  0  0  0  0  0  0  0
  -27.9653  -32.9341   25.0372 C   0  0  0  0  0  0  0  0  0  0  0  0
  -22.3201  -34.8456   21.6683 C   0  0  0  0  0  0  0  0  0  0  0  0
  -19.7548  -24.2401   24.0867 C   0  0  0  0  0  0  0  0  0  0  0  0
  -23.9570  -22.7323   23.1637 C   0  0  0  0  0  0  0  0  0  0  0  0
  -22.8129  -23.7154   23.4441 C   0  0  0  0  0  0  0  0  0  0  0  0
  -21.5905  -23.5719   22.5427 C   0  0  0  0  0  0  0  0  0  0  0  0
  -20.4730  -25.8894   20.7808 C   0  0  0  0  0  0  0  0  0  1  0  0
  -26.1971  -21.8800   18.7499 C   0  0  1  0  0  0  0  0  0  0  0  0
  -25.7732  -32.1537   24.0483 C   0  0  1  0  0  0  0  0  0  0  0  0
  -23.6476  -35.2772   23.7396 C   0  0  2  0  0  0  0  0  0  0  0  0
  -19.6976  -24.9539   21.7016 C   0  0  2  0  0  0  0  0  0  0  0  0
  -26.7657  -31.9814   25.2326 C   0  0  0  0  0  0  0  0  0  0  0  0
  -25.2544  -23.8197   19.8292 N   0  0  0  0  0  0  0  0  0  0  0  0
  -23.4189  -17.2685   19.3384 N   0  0  0  0  0  0  0  0  0  0  0  0
  -25.5350  -22.5060   19.8692 N   0  0  0  0  0  0  0  0  0  0  0  0
  -22.6478  -18.3497   19.5449 N   0  0  0  0  0  0  0  0  0  0  0  0
  -25.7617  -30.7285   22.0253 N   0  0  0  0  0  0  0  0  0  0  0  0
  -24.4378  -20.8951   17.3209 N   0  0  0  0  0  0  0  0  0  0  0  0
  -20.9125  -19.1981   20.9159 N   0  0  0  0  0  0  0  0  0  0  0  0
  -21.5986  -15.0456   22.5538 N   0  0  0  0  0  0  0  0  0  0  0  0
  -28.3742  -28.7725   20.5834 N   0  0  0  0  0  0  0  0  0  0  0  0
  -25.2658  -33.5120   23.8867 N   0  0  0  0  0  0  0  0  0  0  0  0
  -22.3643  -35.4818   23.0100 N   0  3  0  0  0  0  0  0  0  0  0  0
  -20.5599  -24.6196   22.8719 N   0  3  1  0  0  0  0  0  0  0  0  0
  -20.3447  -16.9524   22.7790 O   0  0  0  0  0  0  0  0  0  0  0  0
  -26.7813  -28.2919   22.2125 O   0  0  0  0  0  0  0  0  0  0  0  0
  -25.4640  -22.8975   16.7402 O   0  0  0  0  0  0  0  0  0  0  0  0
  -27.3801  -32.3811   22.3183 O   0  0  0  0  0  0  0  0  0  0  0  0
  -23.0208  -32.9716   24.0982 O   0  0  0  0  0  0  0  0  0  0  0  0
  -25.3225  -11.3444   20.6912 O   0  0  0  0  0  0  0  0  0  0  0  0
  -20.8066  -27.0975   21.4630 O   0  0  0  0  0  0  0  0  0  1  0  0
  -21.9561   -7.0264   21.3438 F   0  0  0  0  0  0  0  0  0  0  0  0
  -25.2812   -9.2865   18.8457 F   0  0  0  0  0  0  0  0  0  0  0  0
  1  2  1  0  0  0  0
  1  5  2  0  0  0  0
  2  6  2  0  0  0  0
  3  8  2  0  0  0  0
  3 17  1  0  0  0  0
  4  9  1  0  0  0  0
  4 17  2  0  0  0  0
  5 19  1  0  0  0  0
  6 21  1  0  0  0  0
  7 10  2  0  0  0  0
  7 20  1  0  0  0  0
  8 24  1  0  0  0  0
  9 24  2  0  0  0  0
 10 25  1  0  0  0  0
 11 12  2  0  0  0  0
 11 26  1  0  0  0  0
 12 27  1  0  0  0  0
 13 22  1  0  0  0  0
 13 25  2  0  0  0  0
 14 27  2  0  0  0  0
 14 28  1  0  0  0  0
 15 23  1  0  0  0  0
 15 65  2  0  0  0  0
 16 23  2  0  0  0  0
 16 67  1  0  0  0  0
 17 29  1  0  0  0  0
 18 29  1  0  0  0  0
 18 30  2  0  0  0  0
 18 31  1  0  0  0  0
 19 21  2  0  0  0  0
 19 36  1  0  0  0  0
 20 22  2  0  0  0  0
 20 37  1  0  0  0  0
 21 45  1  0  0  0  0
 22 38  1  0  0  0  0
 23 56  1  0  0  0  0
 24 82  1  0  0  0  0
 25 83  1  0  0  0  0
 26 28  2  0  0  0  0
 26 82  1  0  0  0  0
 27 84  1  0  0  0  0
 28 85  1  0  0  0  0
 29 66  2  0  0  0  0
 30 68  1  0  0  0  0
 30 71  1  0  0  0  0
 31 72  1  0  0  0  0
 31 77  2  0  0  0  0
 32 46  1  0  0  0  0
 32 73  1  0  0  0  0
 32 78  2  0  0  0  0
 33 60  1  0  0  0  0
 33 70  1  0  0  0  0
 33 79  2  0  0  0  0
 34 61  1  0  0  0  0
 34 69  1  0  0  0  0
 34 80  2  0  0  0  0
 35 62  1  0  0  0  0
 35 74  1  0  0  0  0
 35 81  2  0  0  0  0
 36 39  1  0  0  0  0
 37 46  1  0  0  0  0
 38 69  1  0  0  0  0
 39 41  1  0  0  0  0
 40 42  1  0  0  0  0
 40 43  1  0  0  0  0
 41 45  1  0  0  0  0
 42 47  1  0  0  0  0
 43 70  1  0  0  0  0
 44 47  1  0  0  0  0
 44 70  1  0  0  0  0
 45 73  1  0  0  0  0
 46 69  1  0  0  0  0
 47 68  1  0  0  0  0
 48 60  1  0  0  0  0
 49 62  1  0  0  0  0
 50 63  1  0  0  0  0
 51 64  1  0  0  0  0
 52 64  1  0  0  0  0
 53 64  1  0  0  0  0
 54 75  1  0  0  0  0
 55 76  1  0  0  0  0
 56 57  1  0  0  0  0
 57 58  1  0  0  0  0
 58 76  1  0  0  0  0
 59 63  1  0  0  0  0
 59 83  1  0  0  0  0
 60 67  1  0  0  0  0
 61 64  1  0  0  0  0
 61 74  1  0  0  0  0
 62 75  1  0  0  0  0
 63 76  1  0  0  0  0
 65 67  1  0  0  0  0
 66 68  1  0  0  0  0
M  CHG  2  75   1  76   1
M  ISO  4  33 100  59 101  60 100  83 101
M  END
> <Batch ID>
0063

> <Smiles>
CNC(C)C(=O)NC(C(=O)N1Cc2cc([101O:1][101CH2:1]C(C)N(C)CCCc3cnn([100CH:0](C)[100C:0](=O)N4CCCC(n5nc(-c6ccc(Oc7ccc(F)cc7F)cc6)c(C(N)=O)c5N)C4)c3)ccc2CC1C(=O)NC1CCCc2ccccc21)C(C)(C)C

> <Shape>
0.231

> <Color>
0.077

> <Negative vol penalty>
0.000

$$$$

  -OEChem-04052318023D

 82 90  0     1  0  0  0  0  0999 V2000
  -16.8107  -29.3082   24.3530 C   0  0  0  0  0  0  0  0  0  0  0  0
  -17.3929  -28.2694   23.6337 C   0  0  0  0  0  0  0  0  0  0  0  0
  -28.8463  -12.7000   20.8481 C   0  0  0  0  0  0  0  0  0  0  0  0
  -30.0678  -13.8408   19.1035 C   0  0  0  0  0  0  0  0  0  0  0  0
  -17.3012  -30.6066   24.2208 C   0  0  0  0  0  0  0  0  0  0  0  0
  -18.4652  -28.5286   22.7809 C   0  0  0  0  0  0  0  0  0  0  0  0
  -22.1907  -25.1317   23.2564 C   0  0  0  0  0  0  0  0  0  0  0  0
  -28.5523  -11.6623   19.9637 C   0  0  0  0  0  0  0  0  0  0  0  0
  -29.7739  -12.8030   18.2191 C   0  0  0  0  0  0  0  0  0  0  0  0
  -22.0077  -23.8953   22.6387 C   0  0  0  0  0  0  0  0  0  0  0  0
  -30.8995   -9.6808   17.5828 C   0  0  0  0  0  0  0  0  0  0  0  0
  -31.9365   -9.1986   16.7842 C   0  0  0  0  0  0  0  0  0  0  0  0
  -23.3977  -24.6135   20.8026 C   0  0  0  0  0  0  0  0  0  0  0  0
  -30.6904   -9.7994   14.8034 C   0  0  0  0  0  0  0  0  0  0  0  0
  -28.3335  -18.9745   17.5803 C   0  0  0  0  0  0  0  0  0  0  0  0
  -29.6040  -13.7893   20.4180 C   0  0  0  0  0  0  0  0  0  0  0  0
  -31.0255  -14.9644   22.1805 C   0  0  0  0  0  0  0  0  0  0  0  0
  -18.3863  -30.8803   23.3732 C   0  0  0  0  0  0  0  0  0  0  0  0
  -22.9711  -26.1239   22.6456 C   0  0  0  0  0  0  0  0  0  0  0  0
  -18.9698  -29.8321   22.6361 C   0  0  0  0  0  0  0  0  0  0  0  0
  -23.5912  -25.8608   21.4158 C   0  0  0  0  0  0  0  0  0  0  0  0
  -29.0161  -11.7137   18.6492 C   0  0  0  0  0  0  0  0  0  0  0  0
  -22.6089  -23.6371   21.4103 C   0  0  0  0  0  0  0  0  0  0  0  0
  -29.7579  -10.2222   16.9917 C   0  0  0  0  0  0  0  0  0  0  0  0
  -31.8320   -9.2579   15.3945 C   0  0  0  0  0  0  0  0  0  0  0  0
  -29.6534  -10.2815   15.6021 C   0  0  0  0  0  0  0  0  0  0  0  0
  -29.9076  -14.8619   21.3310 C   0  0  0  0  0  0  0  0  0  0  0  0
  -30.8497  -16.1581   22.8368 C   0  0  0  0  0  0  0  0  0  0  0  0
  -27.0035  -19.9115   18.8881 C   0  0  0  0  0  0  0  0  0  0  0  0
  -32.1246  -14.0615   22.3602 C   0  0  0  0  0  0  0  0  0  0  0  0
  -22.4190  -29.0598   21.5595 C   0  0  0  0  0  0  0  0  0  0  0  0
  -25.6329  -29.0815   21.1207 C   0  0  0  0  0  0  0  0  0  0  0  0
  -27.7896  -21.1222   21.3857 C   0  0  0  0  0  0  0  0  0  0  0  0
  -28.5051  -27.2989   20.6519 C   0  0  0  0  0  0  0  0  0  0  0  0
  -18.8512  -32.3076   23.2269 C   0  0  0  0  0  0  0  0  0  0  0  0
  -23.1806  -27.4429   23.3376 C   0  0  0  0  0  0  0  0  0  0  0  0
  -24.4551  -26.8851   20.7281 C   0  0  0  0  0  0  0  0  0  0  0  0
  -20.2315  -32.4361   22.5877 C   0  0  0  0  0  0  0  0  0  0  0  0
  -27.4396  -19.1409   24.3508 C   0  0  0  0  0  0  0  0  0  0  0  0
  -20.3325  -31.5469   21.3523 C   0  0  0  0  0  0  0  0  0  0  0  0
  -28.1092  -17.8183   23.9800 C   0  0  0  0  0  0  0  0  0  0  0  0
  -26.7251  -19.7600   23.1537 C   0  0  0  0  0  0  0  0  0  0  0  0
  -28.2705  -18.6321   21.5848 C   0  0  0  0  0  0  0  0  0  0  0  0
  -20.1505  -30.0693   21.7198 C   0  0  1  0  0  0  0  0  0  0  0  0
  -23.5753  -28.5636   22.3807 C   0  0  1  0  0  0  0  0  0  0  0  0
  -29.0297  -17.9883   22.7584 C   0  0  2  0  0  0  0  0  0  0  0  0
  -30.9702  -27.5953   20.2876 C   0  0  0  0  0  0  0  0  0  0  0  0
  -28.7761  -22.6129   19.6748 C   0  0  0  0  0  0  0  0  0  0  0  0
  -30.1276  -20.8354   20.7877 C   0  0  0  0  0  0  0  0  0  0  0  0
  -25.1062  -29.8806   18.2235 C   0  0  0  0  0  0  0  0  0  0  0  0
  -27.4668  -29.2393   17.6905 C   0  0  0  0  0  0  0  0  0  0  0  0
  -27.0121  -31.0836   19.3074 C   0  0  0  0  0  0  0  0  0  0  0  0
  -29.1662  -25.8328   23.1364 C   0  0  0  0  0  0  0  0  0  0  0  0
  -23.5337  -20.4386   20.0075 C   0  0  0  0  0  0  0  0  0  0  0  0
  -23.4921  -21.9584   19.9757 C   0  0  0  0  0  0  0  0  0  1  0  0
  -24.6370  -19.8811   19.1220 C   0  0  0  0  0  0  0  0  0  0  0  0
  -26.5609  -28.6928   19.9952 C   0  0  1  0  0  0  0  0  0  0  0  0
  -29.8676  -27.3914   21.3149 C   0  0  2  0  0  0  0  0  0  0  0  0
  -28.7378  -21.1719   20.2142 C   0  0  0  0  0  0  0  0  0  0  0  0
  -26.5187  -29.7053   18.8159 C   0  0  0  0  0  0  0  0  0  0  0  0
  -27.0037  -19.0810   17.8713 N   0  0  0  0  0  0  0  0  0  0  0  0
  -29.1563  -19.6869   18.3531 N   0  0  0  0  0  0  0  0  0  0  0  0
  -29.0826  -15.9070   21.4361 N   0  0  0  0  0  0  0  0  0  0  0  0
  -29.6825  -16.6776   22.3594 N   0  0  0  0  0  0  0  0  0  0  0  0
  -28.2805  -20.2767   19.1809 N   0  0  0  0  0  0  0  0  0  0  0  0
  -24.6245  -28.1617   21.4416 N   0  0  0  0  0  0  0  0  0  0  0  0
  -27.6270  -19.8839   22.0072 N   0  0  0  0  0  0  0  0  0  0  0  0
  -31.5811  -16.8035   23.7700 N   0  0  0  0  0  0  0  0  0  0  0  0
  -32.1491  -12.8804   21.6061 N   0  0  0  0  0  0  0  0  0  0  0  0
  -21.3627  -29.5419   22.3087 N   0  0  0  0  0  0  0  0  0  0  0  0
  -27.8811  -28.5271   20.5934 N   0  0  0  0  0  0  0  0  0  0  0  0
  -30.1591  -26.1437   22.0759 N   0  3  0  0  0  0  0  0  0  0  0  0
  -33.0489  -14.2872   23.1776 O   0  0  0  0  0  0  0  0  0  0  0  0
  -22.4811  -29.0103   20.3366 O   0  0  0  0  0  0  0  0  0  0  0  0
  -25.8011  -30.1582   21.6987 O   0  0  0  0  0  0  0  0  0  0  0  0
  -27.2138  -22.1548   21.7384 O   0  0  0  0  0  0  0  0  0  0  0  0
  -28.0423  -26.2433   20.2251 O   0  0  0  0  0  0  0  0  0  0  0  0
  -28.7296  -10.7012   17.7860 O   0  0  0  0  0  0  0  0  0  0  0  0
  -22.4313  -22.4313   20.8049 O   0  0  0  0  0  0  0  0  0  1  0  0
  -25.8995  -20.3609   19.5647 O   0  0  0  0  0  0  0  0  0  0  0  0
  -32.8285   -8.7963   14.6277 F   0  0  0  0  0  0  0  0  0  0  0  0
  -28.5596  -10.8016   15.0285 F   0  0  0  0  0  0  0  0  0  0  0  0
  1  2  1  0  0  0  0
  1  5  2  0  0  0  0
  2  6  2  0  0  0  0
  3  8  2  0  0  0  0
  3 16  1  0  0  0  0
  4  9  1  0  0  0  0
  4 16  2  0  0  0  0
  5 18  1  0  0  0  0
  6 20  1  0  0  0  0
  7 10  2  0  0  0  0
  7 19  1  0  0  0  0
  8 22  1  0  0  0  0
  9 22  2  0  0  0  0
 10 23  1  0  0  0  0
 11 12  2  0  0  0  0
 11 24  1  0  0  0  0
 12 25  1  0  0  0  0
 13 21  1  0  0  0  0
 13 23  2  0  0  0  0
 14 25  2  0  0  0  0
 14 26  1  0  0  0  0
 15 61  1  0  0  0  0
 15 62  2  0  0  0  0
 16 27  1  0  0  0  0
 17 27  1  0  0  0  0
 17 28  2  0  0  0  0
 17 30  1  0  0  0  0
 18 20  2  0  0  0  0
 18 35  1  0  0  0  0
 19 21  2  0  0  0  0
 19 36  1  0  0  0  0
 20 44  1  0  0  0  0
 21 37  1  0  0  0  0
 22 78  1  0  0  0  0
 23 79  1  0  0  0  0
 24 26  2  0  0  0  0
 24 78  1  0  0  0  0
 25 81  1  0  0  0  0
 26 82  1  0  0  0  0
 27 63  2  0  0  0  0
 28 64  1  0  0  0  0
 28 68  1  0  0  0  0
 29 61  2  0  0  0  0
 29 65  1  0  0  0  0
 29 80  1  0  0  0  0
 30 69  1  0  0  0  0
 30 73  2  0  0  0  0
 31 45  1  0  0  0  0
 31 70  1  0  0  0  0
 31 74  2  0  0  0  0
 32 57  1  0  0  0  0
 32 66  1  0  0  0  0
 32 75  2  0  0  0  0
 33 59  1  0  0  0  0
 33 67  1  0  0  0  0
 33 76  2  0  0  0  0
 34 58  1  0  0  0  0
 34 71  1  0  0  0  0
 34 77  2  0  0  0  0
 35 38  1  0  0  0  0
 36 45  1  0  0  0  0
 37 66  1  0  0  0  0
 38 40  1  0  0  0  0
 39 41  1  0  0  0  0
 39 42  1  0  0  0  0
 40 44  1  0  0  0  0
 41 46  1  0  0  0  0
 42 67  1  0  0  0  0
 43 46  1  0  0  0  0
 43 67  1  0  0  0  0
 44 70  1  0  0  0  0
 45 66  1  0  0  0  0
 46 64  1  0  0  0  0
 47 58  1  0  0  0  0
 48 59  1  0  0  0  0
 49 59  1  0  0  0  0
 50 60  1  0  0  0  0
 51 60  1  0  0  0  0
 52 60  1  0  0  0  0
 53 72  1  0  0  0  0
 54 55  1  0  0  0  0
 54 56  1  0  0  0  0
 55 79  1  0  0  0  0
 56 80  1  0  0  0  0
 57 60  1  0  0  0  0
 57 71  1  0  0  0  0
 58 72  1  0  0  0  0
 59 65  1  0  0  0  0
 62 65  1  0  0  0  0
 63 64  1  0  0  0  0
M  CHG  1  72   1
M  ISO  4  33 100  55 101  59 100  79 101
M  END
> <Batch ID>
0063

> <Smiles>
CNC(C)C(=O)NC(C(=O)N1Cc2cc([101O:1][101CH2:1]CCOc3ncnn3[100C:0](C)(C)[100C:0](=O)N3CCCC(n4nc(-c5ccc(Oc6ccc(F)cc6F)cc5)c(C(N)=O)c4N)C3)ccc2CC1C(=O)NC1CCCc2ccccc21)C(C)(C)C

> <Shape>
0.230

> <Color>
0.067

> <Negative vol penalty>
0.000

$$$$

  -OEChem-04052318023D

 94102  0     1  0  0  0  0  0999 V2000
  -20.6909  -28.4188   16.0817 C   0  0  0  0  0  0  0  0  0  0  0  0
  -21.2430  -27.4692   16.9355 C   0  0  0  0  0  0  0  0  0  0  0  0
  -22.8480  -10.3171   20.0885 C   0  0  0  0  0  0  0  0  0  0  0  0
  -24.2732   -9.6172   21.9095 C   0  0  0  0  0  0  0  0  0  0  0  0
  -21.1096  -29.7467   16.1538 C   0  0  0  0  0  0  0  0  0  0  0  0
  -22.2150  -27.8469   17.8612 C   0  0  0  0  0  0  0  0  0  0  0  0
  -23.0269  -25.5634   23.4855 C   0  0  0  0  0  0  0  0  0  0  0  0
  -22.1466   -9.1146   20.1753 C   0  0  0  0  0  0  0  0  0  0  0  0
  -23.5717   -8.4147   21.9964 C   0  0  0  0  0  0  0  0  0  0  0  0
  -23.9037  -24.6045   23.9909 C   0  0  0  0  0  0  0  0  0  0  0  0
  -20.6407   -7.3300   23.2821 C   0  0  0  0  0  0  0  0  0  0  0  0
  -20.2782   -6.8832   24.5527 C   0  0  0  0  0  0  0  0  0  0  0  0
  -25.4117  -26.3561   24.6816 C   0  0  0  0  0  0  0  0  0  0  0  0
  -21.5629   -4.8660   24.2101 C   0  0  0  0  0  0  0  0  0  0  0  0
  -23.9114  -10.5684   20.9556 C   0  0  0  0  0  0  0  0  0  0  0  0
  -24.3559  -13.0097   21.5472 C   0  0  0  0  0  0  0  0  0  0  0  0
  -22.0802  -30.1427   17.0875 C   0  0  0  0  0  0  0  0  0  0  0  0
  -23.3415  -26.9277   23.5647 C   0  0  0  0  0  0  0  0  0  0  0  0
  -22.6480  -29.1811   17.9450 C   0  0  0  0  0  0  0  0  0  0  0  0
  -24.5360  -27.3305   24.1787 C   0  0  0  0  0  0  0  0  0  0  0  0
  -22.5084   -8.1634   21.1293 C   0  0  0  0  0  0  0  0  0  0  0  0
  -25.0976  -25.0006   24.5865 C   0  0  0  0  0  0  0  0  0  0  0  0
  -21.4643   -6.5447   22.4754 C   0  0  0  0  0  0  0  0  0  0  0  0
  -20.7393   -5.6513   25.0168 C   0  0  0  0  0  0  0  0  0  0  0  0
  -21.9254   -5.3128   22.9394 C   0  0  0  0  0  0  0  0  0  0  0  0
  -24.6368  -11.8101   20.8661 C   0  0  0  0  0  0  0  0  0  0  0  0
  -29.4430  -17.8115   20.8548 C   0  0  0  0  0  0  0  0  0  0  0  0
  -29.6250  -18.5013   19.6480 C   0  0  0  0  0  0  0  0  0  0  0  0
  -25.3284  -13.8816   21.1223 C   0  0  0  0  0  0  0  0  0  0  0  0
  -23.3096  -13.3091   22.4806 C   0  0  0  0  0  0  0  0  0  0  0  0
  -23.8364  -29.2424   21.4431 C   0  0  0  0  0  0  0  0  0  0  0  0
  -23.9602  -31.1106   24.0920 C   0  0  0  0  0  0  0  0  0  0  0  0
  -24.5221  -31.3423   27.4502 C   0  0  0  0  0  0  0  0  0  0  0  0
  -30.8868  -14.5931   20.1659 C   0  0  0  0  0  0  0  0  0  0  0  0
  -22.5352  -31.5806   17.0960 C   0  0  0  0  0  0  0  0  0  0  0  0
  -22.3727  -27.9509   23.0386 C   0  0  0  0  0  0  0  0  0  0  0  0
  -24.9110  -28.7835   24.3069 C   0  0  0  0  0  0  0  0  0  0  0  0
  -23.2985  -31.9704   18.3592 C   0  0  0  0  0  0  0  0  0  0  0  0
  -28.6999  -13.5125   17.3817 C   0  0  0  0  0  0  0  0  0  0  0  0
  -24.3444  -30.9132   18.6986 C   0  0  0  0  0  0  0  0  0  0  0  0
  -27.4564  -13.0077   18.1116 C   0  0  0  0  0  0  0  0  0  0  0  0
  -29.9562  -13.3688   18.2355 C   0  0  0  0  0  0  0  0  0  0  0  0
  -28.6081  -13.5063   20.3038 C   0  0  0  0  0  0  0  0  0  0  0  0
  -23.6868  -29.5567   18.9795 C   0  0  1  0  0  0  0  0  0  0  0  0
  -23.0332  -29.2868   22.7122 C   0  0  1  0  0  0  0  0  0  0  0  0
  -27.3178  -13.6799   19.4887 C   0  0  2  0  0  0  0  0  0  0  0  0
  -24.5856  -33.0074   29.3266 C   0  0  0  0  0  0  0  0  0  0  0  0
  -28.9227  -26.1870   18.5433 C   0  0  0  0  0  0  0  0  0  0  0  0
  -30.0021  -26.8386   20.7103 C   0  0  0  0  0  0  0  0  0  0  0  0
  -30.9007  -24.9160   19.3905 C   0  0  0  0  0  0  0  0  0  0  0  0
  -26.6625  -32.1221   23.0997 C   0  0  0  0  0  0  0  0  0  0  0  0
  -27.0959  -33.0111   25.3997 C   0  0  0  0  0  0  0  0  0  0  0  0
  -25.1786  -33.8879   24.0664 C   0  0  0  0  0  0  0  0  0  0  0  0
  -31.7391  -16.3539   21.6668 C   0  0  0  0  0  0  0  0  0  0  0  0
  -22.3485  -29.9587   28.9062 C   0  0  0  0  0  0  0  0  0  0  0  0
  -29.3391  -16.3657   21.0961 C   0  0  0  0  0  0  0  0  0  0  0  0
  -27.3590  -22.1876   24.5772 C   0  0  0  0  0  0  0  0  0  0  0  0
  -28.7028  -24.6514   20.5645 C   0  0  0  0  0  0  0  0  0  0  0  0
  -29.4805  -21.1133   21.9336 C   0  0  0  0  0  0  0  0  0  0  0  0
  -28.4605  -23.0418   23.9679 C   0  0  0  0  0  0  0  0  0  0  0  0
  -29.2752  -24.1074   21.8700 C   0  0  0  0  0  0  0  0  0  0  0  0
  -28.1711  -21.8770   21.7859 C   0  0  0  0  0  0  0  0  0  0  0  0
  -25.9671  -22.7919   24.4388 C   0  0  0  0  0  0  0  0  0  1  0  0
  -25.0508  -31.5564   25.0359 C   0  0  1  0  0  0  0  0  0  0  0  0
  -23.7307  -32.0102   28.5602 C   0  0  2  0  0  0  0  0  0  0  0  0
  -29.7639  -17.9732   18.2834 C   0  0  0  0  0  0  0  0  0  0  0  0
  -29.6144  -25.6545   19.8091 C   0  0  0  0  0  0  0  0  0  0  0  0
  -25.9911  -32.6168   24.3964 C   0  0  0  0  0  0  0  0  0  0  0  0
  -25.7040  -11.9075   20.0689 N   0  0  0  0  0  0  0  0  0  0  0  0
  -29.3653  -18.6807   21.8664 N   0  0  0  0  0  0  0  0  0  0  0  0
  -29.6636  -19.8165   19.8795 N   0  0  0  0  0  0  0  0  0  0  0  0
  -26.1023  -13.1787   20.2463 N   0  0  0  0  0  0  0  0  0  0  0  0
  -29.5039  -19.8453   21.2123 N   0  0  0  0  0  0  0  0  0  0  0  0
  -23.9338  -29.7459   23.7716 N   0  0  0  0  0  0  0  0  0  0  0  0
  -29.7819  -13.9785   19.5542 N   0  0  0  0  0  0  0  0  0  0  0  0
  -25.5885  -15.1733   21.4161 N   0  0  0  0  0  0  0  0  0  0  0  0
  -22.3954  -12.2979   22.8064 N   0  0  0  0  0  0  0  0  0  0  0  0
  -23.1093  -29.5400   20.3064 N   0  0  0  0  0  0  0  0  0  0  0  0
  -24.3803  -32.0072   26.2506 N   0  0  0  0  0  0  0  0  0  0  0  0
  -30.6253  -15.6764   21.0183 N   0  0  0  0  0  0  0  0  0  0  0  0
  -23.2236  -30.9900   29.5209 N   0  3  0  0  0  0  0  0  0  0  0  0
  -28.2521  -23.1997   22.5095 N   0  3  1  0  0  0  0  0  0  0  0  0
  -23.1790  -14.4446   22.9975 O   0  0  0  0  0  0  0  0  0  0  0  0
  -25.0280  -28.9604   21.4918 O   0  0  0  0  0  0  0  0  0  0  0  0
  -23.1568  -31.9414   23.6607 O   0  0  0  0  0  0  0  0  0  0  0  0
  -25.2014  -30.3340   27.6302 O   0  0  0  0  0  0  0  0  0  0  0  0
  -32.0420  -14.2023   19.9542 O   0  0  0  0  0  0  0  0  0  0  0  0
  -21.8240   -6.9900   21.2144 O   0  0  0  0  0  0  0  0  0  0  0  0
  -25.9555  -24.0667   25.0801 O   0  0  0  0  0  0  0  0  0  1  0  0
  -20.3923   -5.2231   26.2376 F   0  0  0  0  0  0  0  0  0  0  0  0
  -22.7178   -4.5545   22.1694 F   0  0  0  0  0  0  0  0  0  0  0  0
  -29.7045  -16.6025   18.1949 F   0  0  0  0  0  0  0  0  0  0  0  0
  -28.8007  -18.4088   17.4047 F   0  0  0  0  0  0  0  0  0  0  0  0
  -30.9545  -18.3076   17.6863 F   0  0  0  0  0  0  0  0  0  0  0  0
  1  2  1  0  0  0  0
  1  5  2  0  0  0  0
  2  6  2  0  0  0  0
  3  8  2  0  0  0  0
  3 15  1  0  0  0  0
  4  9  1  0  0  0  0
  4 15  2  0  0  0  0
  5 17  1  0  0  0  0
  6 19  1  0  0  0  0
  7 10  2  0  0  0  0
  7 18  1  0  0  0  0
  8 21  1  0  0  0  0
  9 21  2  0  0  0  0
 10 22  1  0  0  0  0
 11 12  2  0  0  0  0
 11 23  1  0  0  0  0
 12 24  1  0  0  0  0
 13 20  1  0  0  0  0
 13 22  2  0  0  0  0
 14 24  2  0  0  0  0
 14 25  1  0  0  0  0
 15 26  1  0  0  0  0
 16 26  1  0  0  0  0
 16 29  2  0  0  0  0
 16 30  1  0  0  0  0
 17 19  2  0  0  0  0
 17 35  1  0  0  0  0
 18 20  2  0  0  0  0
 18 36  1  0  0  0  0
 19 44  1  0  0  0  0
 20 37  1  0  0  0  0
 21 88  1  0  0  0  0
 22 89  1  0  0  0  0
 23 25  2  0  0  0  0
 23 88  1  0  0  0  0
 24 90  1  0  0  0  0
 25 91  1  0  0  0  0
 26 69  2  0  0  0  0
 27 28  1  0  0  0  0
 27 56  1  0  0  0  0
 27 70  2  0  0  0  0
 28 66  1  0  0  0  0
 28 71  2  0  0  0  0
 29 72  1  0  0  0  0
 29 76  1  0  0  0  0
 30 77  1  0  0  0  0
 30 83  2  0  0  0  0
 31 45  1  0  0  0  0
 31 78  1  0  0  0  0
 31 84  2  0  0  0  0
 32 64  1  0  0  0  0
 32 74  1  0  0  0  0
 32 85  2  0  0  0  0
 33 65  1  0  0  0  0
 33 79  1  0  0  0  0
 33 86  2  0  0  0  0
 34 75  1  0  0  0  0
 34 80  1  0  0  0  0
 34 87  2  0  0  0  0
 35 38  1  0  0  0  0
 36 45  1  0  0  0  0
 37 74  1  0  0  0  0
 38 40  1  0  0  0  0
 39 41  1  0  0  0  0
 39 42  1  0  0  0  0
 40 44  1  0  0  0  0
 41 46  1  0  0  0  0
 42 75  1  0  0  0  0
 43 46  1  0  0  0  0
 43 75  1  0  0  0  0
 44 78  1  0  0  0  0
 45 74  1  0  0  0  0
 46 72  1  0  0  0  0
 47 65  1  0  0  0  0
 48 67  1  0  0  0  0
 49 67  1  0  0  0  0
 50 67  1  0  0  0  0
 51 68  1  0  0  0  0
 52 68  1  0  0  0  0
 53 68  1  0  0  0  0
 54 80  1  0  0  0  0
 55 81  1  0  0  0  0
 56 80  1  0  0  0  0
 57 60  1  0  0  0  0
 57 63  1  0  0  0  0
 58 61  1  0  0  0  0
 58 67  1  0  0  0  0
 59 62  1  0  0  0  0
 59 73  1  0  0  0  0
 60 82  1  0  0  0  0
 61 82  1  0  0  0  0
 62 82  1  0  0  0  0
 63 89  1  0  0  0  0
 64 68  1  0  0  0  0
 64 79  1  0  0  0  0
 65 81  1  0  0  0  0
 66 92  1  0  0  0  0
 66 93  1  0  0  0  0
 66 94  1  0  0  0  0
 69 72  1  0  0  0  0
 70 73  1  0  0  0  0
 71 73  1  0  0  0  0
M  CHG  2  81   1  82   1
M  ISO  4  34 100  63 101  80 100  89 101
M  END
> <Batch ID>
0063

> <Smiles>
CNC(C)C(=O)NC(C(=O)N1Cc2cc([101O:1][101CH2:1]CCN(CCn3nc(C[100N:0](C)[100C:0](=O)N4CCCC(n5nc(-c6ccc(Oc7ccc(F)cc7F)cc6)c(C(N)=O)c5N)C4)c(C(F)(F)F)n3)CCC(C)(C)C)ccc2CC1C(=O)NC1CCCc2ccccc21)C(C)(C)C

> <Shape>
0.348

> <Color>
0.147

> <Negative vol penalty>
0.000

$$$$

  -OEChem-04052318022D

  0  0  0     0  0  0  0  0  0999 V2000
M  END
$$$$

  -OEChem-04052318023D

 83 91  0     1  0  0  0  0  0999 V2000
  -22.0594  -23.4793   19.7822 C   0  0  0  0  0  0  0  0  0  0  0  0
  -23.3570  -23.0184   19.5843 C   0  0  0  0  0  0  0  0  0  0  0  0
  -24.5020  -29.1243   20.4876 C   0  0  0  0  0  0  0  0  0  0  0  0
  -24.2432  -27.4261   22.1864 C   0  0  0  0  0  0  0  0  0  0  0  0
  -21.2042  -22.7999   20.6488 C   0  0  0  0  0  0  0  0  0  0  0  0
  -23.8005  -21.8784   20.2538 C   0  0  0  0  0  0  0  0  0  0  0  0
  -27.6931  -17.6488   18.1409 C   0  0  0  0  0  0  0  0  0  0  0  0
  -23.2547  -29.6504   20.8235 C   0  0  0  0  0  0  0  0  0  0  0  0
  -22.9958  -27.9523   22.5224 C   0  0  0  0  0  0  0  0  0  0  0  0
  -29.0600  -17.4529   18.3326 C   0  0  0  0  0  0  0  0  0  0  0  0
  -19.8418  -27.8547   21.3084 C   0  0  0  0  0  0  0  0  0  0  0  0
  -18.7888  -26.9587   21.4927 C   0  0  0  0  0  0  0  0  0  0  0  0
  -28.5808  -15.8716   20.0902 C   0  0  0  0  0  0  0  0  0  0  0  0
  -18.5307  -27.7300   23.7677 C   0  0  0  0  0  0  0  0  0  0  0  0
  -24.9963  -28.0120   21.1690 C   0  0  0  0  0  0  0  0  0  0  0  0
  -27.5274  -28.1267   20.8727 C   0  0  0  0  0  0  0  0  0  0  0  0
  -21.6343  -21.6455   21.3218 C   0  0  0  0  0  0  0  0  0  0  0  0
  -26.7582  -16.9646   18.9310 C   0  0  0  0  0  0  0  0  0  0  0  0
  -22.9507  -21.1838   21.1312 C   0  0  0  0  0  0  0  0  0  0  0  0
  -27.2025  -16.0586   19.9047 C   0  0  0  0  0  0  0  0  0  0  0  0
  -22.5016  -29.0645   21.8409 C   0  0  0  0  0  0  0  0  0  0  0  0
  -29.5041  -16.5664   19.3093 C   0  0  0  0  0  0  0  0  0  0  0  0
  -20.2393  -28.6883   22.3538 C   0  0  0  0  0  0  0  0  0  0  0  0
  -18.1332  -26.8964   22.7223 C   0  0  0  0  0  0  0  0  0  0  0  0
  -19.5837  -28.6260   23.5834 C   0  0  0  0  0  0  0  0  0  0  0  0
  -26.2845  -27.4677   20.8221 C   0  0  0  0  0  0  0  0  0  0  0  0
  -28.4327  -27.1854   20.4473 C   0  0  0  0  0  0  0  0  0  0  0  0
  -30.1584  -19.9076   22.4700 C   0  0  0  0  0  0  0  0  0  0  0  0
  -32.2241  -19.9770   22.1775 C   0  0  0  0  0  0  0  0  0  0  0  0
  -27.8361  -29.4696   21.2688 C   0  0  0  0  0  0  0  0  0  0  0  0
  -24.5024  -17.8331   20.9951 C   0  0  0  0  0  0  0  0  0  0  0  0
  -23.8012  -14.6662   20.9636 C   0  0  0  0  0  0  0  0  0  0  0  0
  -24.8605  -11.4697   20.4093 C   0  0  0  0  0  0  0  0  0  0  0  0
  -28.4004  -21.1980   20.4623 C   0  0  0  0  0  0  0  0  0  0  0  0
  -20.6890  -20.9720   22.2849 C   0  0  0  0  0  0  0  0  0  0  0  0
  -25.2868  -17.1669   18.6936 C   0  0  0  0  0  0  0  0  0  0  0  0
  -26.2393  -15.2843   20.7656 C   0  0  0  0  0  0  0  0  0  0  0  0
  -21.1158  -19.5574   22.6683 C   0  0  0  0  0  0  0  0  0  0  0  0
  -28.7838  -23.3297   17.6364 C   0  0  0  0  0  0  0  0  0  0  0  0
  -22.5996  -19.5243   23.0203 C   0  0  0  0  0  0  0  0  0  0  0  0
  -28.2989  -24.6914   18.1370 C   0  0  0  0  0  0  0  0  0  0  0  0
  -27.9665  -22.1856   18.2323 C   0  0  0  0  0  0  0  0  0  0  0  0
  -27.3968  -23.5481   20.2053 C   0  0  0  0  0  0  0  0  0  0  0  0
  -23.4606  -19.9366   21.8202 C   0  0  1  0  0  0  0  0  0  0  0  0
  -24.4309  -16.8035   19.9031 C   0  0  1  0  0  0  0  0  0  0  0  0
  -28.2266  -24.7300   19.6753 C   0  0  2  0  0  0  0  0  0  0  0  0
  -33.6426  -20.3532   22.0406 C   0  0  0  0  0  0  0  0  0  0  0  0
  -24.0725   -9.0890   20.5038 C   0  0  0  0  0  0  0  0  0  0  0  0
  -28.5449  -20.9759   24.1799 C   0  0  0  0  0  0  0  0  0  0  0  0
  -27.7721  -19.1698   22.6477 C   0  0  0  0  0  0  0  0  0  0  0  0
  -24.0378  -14.7112   24.0053 C   0  0  0  0  0  0  0  0  0  0  0  0
  -24.1908  -12.2126   23.9608 C   0  0  0  0  0  0  0  0  0  0  0  0
  -22.1328  -13.3495   23.1272 C   0  0  0  0  0  0  0  0  0  0  0  0
  -25.3257  -11.0788   17.5127 C   0  0  0  0  0  0  0  0  0  0  0  0
  -32.9138  -17.3976   20.1305 C   0  0  0  0  0  0  0  0  0  0  0  0
  -32.5553  -17.4782   21.6160 C   0  0  0  0  0  0  0  0  0  0  0  0
  -31.7003  -17.4736   19.2112 C   0  0  0  0  0  0  0  0  0  1  0  0
  -24.2536  -13.4631   21.7555 C   0  0  1  0  0  0  0  0  0  0  0  0
  -24.2396  -10.3234   19.6314 C   0  0  2  0  0  0  0  0  0  0  0  0
  -28.7903  -20.3512   22.7623 C   0  0  0  0  0  0  0  0  0  0  0  0
  -23.6722  -13.4500   23.1974 C   0  0  0  0  0  0  0  0  0  0  0  0
  -26.3870  -26.2053   20.3979 N   0  0  0  0  0  0  0  0  0  0  0  0
  -31.2211  -20.7649   22.4888 N   0  0  0  0  0  0  0  0  0  0  0  0
  -30.4408  -18.6388   22.1667 N   0  0  0  0  0  0  0  0  0  0  0  0
  -27.7052  -26.0636   20.1779 N   0  0  0  0  0  0  0  0  0  0  0  0
  -31.7681  -18.7103   21.9843 N   0  0  0  0  0  0  0  0  0  0  0  0
  -24.8108  -15.5213   20.4997 N   0  0  0  0  0  0  0  0  0  0  0  0
  -27.9388  -22.2795   19.6939 N   0  0  0  0  0  0  0  0  0  0  0  0
  -29.7720  -27.2162   20.2810 N   0  0  0  0  0  0  0  0  0  0  0  0
  -28.1332  -29.7173   22.6160 N   0  0  0  0  0  0  0  0  0  0  0  0
  -23.5685  -18.8447   20.8766 N   0  0  0  0  0  0  0  0  0  0  0  0
  -23.9006  -12.2934   20.9582 N   0  0  0  0  0  0  0  0  0  0  0  0
  -28.3454  -21.3718   21.8397 N   0  0  0  0  0  0  0  0  0  0  0  0
  -25.0970   -9.9633   18.4668 N   0  3  0  0  0  0  0  0  0  0  0  0
  -27.8321  -30.4246   20.4555 O   0  0  0  0  0  0  0  0  0  0  0  0
  -25.3417  -17.7176   21.8805 O   0  0  0  0  0  0  0  0  0  0  0  0
  -22.5970  -14.8369   20.7580 O   0  0  0  0  0  0  0  0  0  0  0  0
  -26.0754  -11.6173   20.5220 O   0  0  0  0  0  0  0  0  0  0  0  0
  -28.8346  -20.1568   19.9579 O   0  0  0  0  0  0  0  0  0  0  0  0
  -21.2845  -29.5778   22.1691 O   0  0  0  0  0  0  0  0  0  0  0  0
  -30.8378  -16.3738   19.4990 O   0  0  0  0  0  0  0  0  0  1  0  0
  -17.1210  -26.0371   22.8986 F   0  0  0  0  0  0  0  0  0  0  0  0
  -19.9604  -29.4251   24.5911 F   0  0  0  0  0  0  0  0  0  0  0  0
  1  2  1  0  0  0  0
  1  5  2  0  0  0  0
  2  6  2  0  0  0  0
  3  8  2  0  0  0  0
  3 15  1  0  0  0  0
  4  9  1  0  0  0  0
  4 15  2  0  0  0  0
  5 17  1  0  0  0  0
  6 19  1  0  0  0  0
  7 10  2  0  0  0  0
  7 18  1  0  0  0  0
  8 21  1  0  0  0  0
  9 21  2  0  0  0  0
 10 22  1  0  0  0  0
 11 12  2  0  0  0  0
 11 23  1  0  0  0  0
 12 24  1  0  0  0  0
 13 20  1  0  0  0  0
 13 22  2  0  0  0  0
 14 24  2  0  0  0  0
 14 25  1  0  0  0  0
 15 26  1  0  0  0  0
 16 26  1  0  0  0  0
 16 27  2  0  0  0  0
 16 30  1  0  0  0  0
 17 19  2  0  0  0  0
 17 35  1  0  0  0  0
 18 20  2  0  0  0  0
 18 36  1  0  0  0  0
 19 44  1  0  0  0  0
 20 37  1  0  0  0  0
 21 80  1  0  0  0  0
 22 81  1  0  0  0  0
 23 25  2  0  0  0  0
 23 80  1  0  0  0  0
 24 82  1  0  0  0  0
 25 83  1  0  0  0  0
 26 62  2  0  0  0  0
 27 65  1  0  0  0  0
 27 69  1  0  0  0  0
 28 60  1  0  0  0  0
 28 63  1  0  0  0  0
 28 64  2  0  0  0  0
 29 47  1  0  0  0  0
 29 63  2  0  0  0  0
 29 66  1  0  0  0  0
 30 70  1  0  0  0  0
 30 75  2  0  0  0  0
 31 45  1  0  0  0  0
 31 71  1  0  0  0  0
 31 76  2  0  0  0  0
 32 58  1  0  0  0  0
 32 67  1  0  0  0  0
 32 77  2  0  0  0  0
 33 59  1  0  0  0  0
 33 72  1  0  0  0  0
 33 78  2  0  0  0  0
 34 68  1  0  0  0  0
 34 73  1  0  0  0  0
 34 79  2  0  0  0  0
 35 38  1  0  0  0  0
 36 45  1  0  0  0  0
 37 67  1  0  0  0  0
 38 40  1  0  0  0  0
 39 41  1  0  0  0  0
 39 42  1  0  0  0  0
 40 44  1  0  0  0  0
 41 46  1  0  0  0  0
 42 68  1  0  0  0  0
 43 46  1  0  0  0  0
 43 68  1  0  0  0  0
 44 71  1  0  0  0  0
 45 67  1  0  0  0  0
 46 65  1  0  0  0  0
 48 59  1  0  0  0  0
 49 60  1  0  0  0  0
 50 60  1  0  0  0  0
 51 61  1  0  0  0  0
 52 61  1  0  0  0  0
 53 61  1  0  0  0  0
 54 74  1  0  0  0  0
 55 56  1  0  0  0  0
 55 57  1  0  0  0  0
 56 66  1  0  0  0  0
 57 81  1  0  0  0  0
 58 61  1  0  0  0  0
 58 72  1  0  0  0  0
 59 74  1  0  0  0  0
 60 73  1  0  0  0  0
 62 65  1  0  0  0  0
 64 66  1  0  0  0  0
M  CHG  1  74   1
M  ISO  4  34 100  57 101  73 100  81 101
M  END
> <Batch ID>
0063

> <Smiles>
CNC(C)C(=O)NC(C(=O)N1Cc2cc([101O:1][101CH2:1]CCn3nc(C(C)(C)[100NH:0][100C:0](=O)N4CCCC(n5nc(-c6ccc(Oc7ccc(F)cc7F)cc6)c(C(N)=O)c5N)C4)nc3C)ccc2CC1C(=O)NC1CCCc2ccccc21)C(C)(C)C

> <Shape>
0.231

> <Color>
0.072

> <Negative vol penalty>
0.000

$$$$

  -OEChem-04052318023D

 89 97  0     1  0  0  0  0  0999 V2000
  -16.6991  -28.4954   22.8429 C   0  0  0  0  0  0  0  0  0  0  0  0
  -17.6314  -28.1436   21.8722 C   0  0  0  0  0  0  0  0  0  0  0  0
  -25.2642  -14.7464   20.9571 C   0  0  0  0  0  0  0  0  0  0  0  0
  -24.0300  -16.4511   22.1437 C   0  0  0  0  0  0  0  0  0  0  0  0
  -17.0440  -29.4049   23.8419 C   0  0  0  0  0  0  0  0  0  0  0  0
  -18.9090  -28.7018   21.8992 C   0  0  0  0  0  0  0  0  0  0  0  0
  -24.1505  -25.9812   20.2774 C   0  0  0  0  0  0  0  0  0  0  0  0
  -24.4179  -13.7691   21.4807 C   0  0  0  0  0  0  0  0  0  0  0  0
  -23.1835  -15.4738   22.6673 C   0  0  0  0  0  0  0  0  0  0  0  0
  -24.9064  -26.0240   19.1067 C   0  0  0  0  0  0  0  0  0  0  0  0
  -21.3121  -12.5783   20.8732 C   0  0  0  0  0  0  0  0  0  0  0  0
  -20.8314  -11.6020   20.0007 C   0  0  0  0  0  0  0  0  0  0  0  0
  -26.3054  -27.7315   20.0796 C   0  0  0  0  0  0  0  0  0  0  0  0
  -21.8772   -9.8871   21.3434 C   0  0  0  0  0  0  0  0  0  0  0  0
  -30.4894  -22.8019   17.8917 C   0  0  0  0  0  0  0  0  0  0  0  0
  -25.0703  -16.0874   21.2887 C   0  0  0  0  0  0  0  0  0  0  0  0
  -25.7776  -17.8127   19.5477 C   0  0  0  0  0  0  0  0  0  0  0  0
  -18.3295  -29.9672   23.8868 C   0  0  0  0  0  0  0  0  0  0  0  0
  -24.4602  -26.8224   21.3558 C   0  0  0  0  0  0  0  0  0  0  0  0
  -19.2709  -29.6206   22.8989 C   0  0  0  0  0  0  0  0  0  0  0  0
  -25.5534  -27.6956   21.2639 C   0  0  0  0  0  0  0  0  0  0  0  0
  -23.3775  -14.1328   22.3357 C   0  0  0  0  0  0  0  0  0  0  0  0
  -25.9823  -26.9013   19.0066 C   0  0  0  0  0  0  0  0  0  0  0  0
  -22.0754  -12.2090   21.9808 C   0  0  0  0  0  0  0  0  0  0  0  0
  -21.1139  -10.2564   20.2357 C   0  0  0  0  0  0  0  0  0  0  0  0
  -22.3579  -10.8634   22.2159 C   0  0  0  0  0  0  0  0  0  0  0  0
  -25.9447  -17.0974   20.7487 C   0  0  0  0  0  0  0  0  0  0  0  0
  -26.8688  -18.6448   19.4890 C   0  0  0  0  0  0  0  0  0  0  0  0
  -29.6357  -23.0072   19.7854 C   0  0  0  0  0  0  0  0  0  0  0  0
  -24.7297  -17.7322   18.5725 C   0  0  0  0  0  0  0  0  0  0  0  0
  -22.9354  -29.1466   22.8975 C   0  0  0  0  0  0  0  0  0  0  0  0
  -25.5188  -29.0121   24.8547 C   0  0  0  0  0  0  0  0  0  0  0  0
  -30.3337  -22.2375   22.0141 C   0  0  0  0  0  0  0  0  0  0  0  0
  -28.8032  -28.1803   25.2641 C   0  0  0  0  0  0  0  0  0  0  0  0
  -18.6409  -30.9818   24.9583 C   0  0  0  0  0  0  0  0  0  0  0  0
  -23.6514  -26.7451   22.6216 C   0  0  0  0  0  0  0  0  0  0  0  0
  -25.9397  -28.6050   22.4006 C   0  0  0  0  0  0  0  0  0  0  0  0
  -20.1346  -31.2425   25.1346 C   0  0  0  0  0  0  0  0  0  0  0  0
  -31.0965  -18.7444   22.2503 C   0  0  0  0  0  0  0  0  0  0  0  0
  -20.8054  -31.4418   23.7791 C   0  0  0  0  0  0  0  0  0  0  0  0
  -29.8008  -18.0635   21.8111 C   0  0  0  0  0  0  0  0  0  0  0  0
  -30.8177  -20.0313   23.0204 C   0  0  0  0  0  0  0  0  0  0  0  0
  -28.6619  -20.3278   21.8429 C   0  0  0  0  0  0  0  0  0  0  0  0
  -20.6747  -30.1858   22.9090 C   0  0  1  0  0  0  0  0  0  0  0  0
  -23.7406  -28.0125   23.4660 C   0  0  1  0  0  0  0  0  0  0  0  0
  -28.8990  -19.0396   21.0350 C   0  0  2  0  0  0  0  0  0  0  0  0
  -30.9805  -27.8109   26.4558 C   0  0  0  0  0  0  0  0  0  0  0  0
  -25.8528  -32.0127   24.4132 C   0  0  0  0  0  0  0  0  0  0  0  0
  -28.1788  -31.8164   25.3184 C   0  0  0  0  0  0  0  0  0  0  0  0
  -26.2270  -31.2566   26.7675 C   0  0  0  0  0  0  0  0  0  0  0  0
  -28.2786  -23.7840   12.9357 C   0  0  0  0  0  0  0  0  0  0  0  0
  -27.0363  -25.7610   13.7373 C   0  0  0  0  0  0  0  0  0  0  0  0
  -26.2924  -23.4959   14.4230 C   0  0  0  0  0  0  0  0  0  0  0  0
  -29.9737  -24.6777   15.0374 C   0  0  0  0  0  0  0  0  0  0  0  0
  -28.0701  -25.4055   25.9867 C   0  0  0  0  0  0  0  0  0  0  0  0
  -28.1731  -25.6832   16.4071 C   0  0  0  0  0  0  0  0  0  0  0  0
  -28.4180  -23.1125   16.3065 C   0  0  0  0  0  0  0  0  0  0  0  0
  -26.8214  -25.7348   17.1116 C   0  0  0  0  0  0  0  0  0  1  0  0
  -26.8683  -29.6876   24.8916 C   0  0  1  0  0  0  0  0  0  0  0  0
  -29.5176  -27.4070   26.3577 C   0  0  2  0  0  0  0  0  0  0  0  0
  -29.4788  -24.5299   21.7861 C   0  0  0  0  0  0  0  0  0  0  0  0
  -29.3786  -23.0929   21.2203 C   0  0  1  0  0  0  0  0  0  0  0  0
  -26.7735  -31.1777   25.3254 C   0  0  0  0  0  0  0  0  0  0  0  0
  -27.5513  -24.3613   14.1749 C   0  0  0  0  0  0  0  0  0  0  0  0
  -28.4961  -24.4546   15.4855 C   0  0  2  0  0  0  0  0  0  0  0  0
  -30.8005  -22.7873   19.2212 N   0  0  0  0  0  0  0  0  0  0  0  0
  -27.0547  -17.4446   21.4055 N   0  0  0  0  0  0  0  0  0  0  0  0
  -28.6813  -23.1451   18.8262 N   0  0  0  0  0  0  0  0  0  0  0  0
  -29.2054  -23.0171   17.5977 N   0  0  0  0  0  0  0  0  0  0  0  0
  -27.5950  -18.3871   20.6144 N   0  0  0  0  0  0  0  0  0  0  0  0
  -25.1144  -28.4969   23.6150 N   0  0  0  0  0  0  0  0  0  0  0  0
  -29.9398  -20.9219   22.2593 N   0  0  0  0  0  0  0  0  0  0  0  0
  -27.2683  -19.5643   18.5851 N   0  0  0  0  0  0  0  0  0  0  0  0
  -23.6843  -16.8239   18.7884 N   0  0  0  0  0  0  0  0  0  0  0  0
  -21.6236  -29.1778   23.3308 N   0  0  0  0  0  0  0  0  0  0  0  0
  -27.7121  -28.8669   25.7535 N   0  0  0  0  0  0  0  0  0  0  0  0
  -29.4514  -25.9434   26.0850 N   0  3  0  0  0  0  0  0  0  0  0  0
  -24.7291  -18.4329   17.5320 O   0  0  0  0  0  0  0  0  0  0  0  0
  -23.4654  -29.9357   22.1242 O   0  0  0  0  0  0  0  0  0  0  0  0
  -24.8512  -28.9379   25.8893 O   0  0  0  0  0  0  0  0  0  0  0  0
  -31.3989  -22.7250   22.4013 O   0  0  0  0  0  0  0  0  0  0  0  0
  -29.1778  -28.1786   24.0936 O   0  0  0  0  0  0  0  0  0  0  0  0
  -22.5513  -13.1794   22.8466 O   0  0  0  0  0  0  0  0  0  0  0  0
  -26.7256  -26.9458   17.8584 O   0  0  0  0  0  0  0  0  0  1  0  0
  -20.6509   -9.3188   19.3986 F   0  0  0  0  0  0  0  0  0  0  0  0
  -23.0897  -10.5025   23.2789 F   0  0  0  0  0  0  0  0  0  0  0  0
  -28.5501  -25.3066   21.1711 F   0  0  0  0  0  0  0  0  0  0  0  0
  -29.1841  -24.5630   23.1124 F   0  0  0  0  0  0  0  0  0  0  0  0
  -28.1015  -22.6806   21.5927 F   0  0  0  0  0  0  0  0  0  0  0  0
  1  2  1  0  0  0  0
  1  5  2  0  0  0  0
  2  6  2  0  0  0  0
  3  8  2  0  0  0  0
  3 16  1  0  0  0  0
  4  9  1  0  0  0  0
  4 16  2  0  0  0  0
  5 18  1  0  0  0  0
  6 20  1  0  0  0  0
  7 10  2  0  0  0  0
  7 19  1  0  0  0  0
  8 22  1  0  0  0  0
  9 22  2  0  0  0  0
 10 23  1  0  0  0  0
 11 12  2  0  0  0  0
 11 24  1  0  0  0  0
 12 25  1  0  0  0  0
 13 21  1  0  0  0  0
 13 23  2  0  0  0  0
 14 25  2  0  0  0  0
 14 26  1  0  0  0  0
 15 66  2  0  0  0  0
 15 69  1  0  0  0  0
 16 27  1  0  0  0  0
 17 27  1  0  0  0  0
 17 28  2  0  0  0  0
 17 30  1  0  0  0  0
 18 20  2  0  0  0  0
 18 35  1  0  0  0  0
 19 21  2  0  0  0  0
 19 36  1  0  0  0  0
 20 44  1  0  0  0  0
 21 37  1  0  0  0  0
 22 83  1  0  0  0  0
 23 84  1  0  0  0  0
 24 26  2  0  0  0  0
 24 83  1  0  0  0  0
 25 85  1  0  0  0  0
 26 86  1  0  0  0  0
 27 67  2  0  0  0  0
 28 70  1  0  0  0  0
 28 73  1  0  0  0  0
 29 62  1  0  0  0  0
 29 66  1  0  0  0  0
 29 68  2  0  0  0  0
 30 74  1  0  0  0  0
 30 78  2  0  0  0  0
 31 45  1  0  0  0  0
 31 75  1  0  0  0  0
 31 79  2  0  0  0  0
 32 59  1  0  0  0  0
 32 71  1  0  0  0  0
 32 80  2  0  0  0  0
 33 62  1  0  0  0  0
 33 72  1  0  0  0  0
 33 81  2  0  0  0  0
 34 60  1  0  0  0  0
 34 76  1  0  0  0  0
 34 82  2  0  0  0  0
 35 38  1  0  0  0  0
 36 45  1  0  0  0  0
 37 71  1  0  0  0  0
 38 40  1  0  0  0  0
 39 41  1  0  0  0  0
 39 42  1  0  0  0  0
 40 44  1  0  0  0  0
 41 46  1  0  0  0  0
 42 72  1  0  0  0  0
 43 46  1  0  0  0  0
 43 72  1  0  0  0  0
 44 75  1  0  0  0  0
 45 71  1  0  0  0  0
 46 70  1  0  0  0  0
 47 60  1  0  0  0  0
 48 63  1  0  0  0  0
 49 63  1  0  0  0  0
 50 63  1  0  0  0  0
 51 64  1  0  0  0  0
 52 64  1  0  0  0  0
 53 64  1  0  0  0  0
 54 65  1  0  0  0  0
 55 77  1  0  0  0  0
 56 58  1  0  0  0  0
 56 65  1  0  0  0  0
 57 65  1  0  0  0  0
 57 69  1  0  0  0  0
 58 84  1  0  0  0  0
 59 63  1  0  0  0  0
 59 76  1  0  0  0  0
 60 77  1  0  0  0  0
 61 62  1  0  0  0  0
 61 87  1  0  0  0  0
 61 88  1  0  0  0  0
 62 89  1  0  0  0  0
 64 65  1  0  0  0  0
 67 70  1  0  0  0  0
 68 69  1  0  0  0  0
M  CHG  1  77   1
M  ISO  4  33 100  58 101  62 100  84 101
M  END
> <Batch ID>
0063

> <Smiles>
CNC(C)C(=O)NC(C(=O)N1Cc2cc([101O:1][101CH2:1]CC(C)(Cn3cnc([100C:0](F)(C(F)F)[100C:0](=O)N4CCCC(n5nc(-c6ccc(Oc7ccc(F)cc7F)cc6)c(C(N)=O)c5N)C4)n3)C(C)(C)C)ccc2CC1C(=O)NC1CCCc2ccccc21)C(C)(C)C

> <Shape>
0.243

> <Color>
0.057

> <Negative vol penalty>
0.000

$$$$

  -OEChem-04052318023D

 88 96  0     1  0  0  0  0  0999 V2000
  -21.4780  -12.1366   20.2844 C   0  0  0  0  0  0  0  0  0  0  0  0
  -21.5211  -13.4056   20.8527 C   0  0  0  0  0  0  0  0  0  0  0  0
  -29.3494  -28.9825   19.0509 C   0  0  0  0  0  0  0  0  0  0  0  0
  -28.6073  -27.0324   20.2688 C   0  0  0  0  0  0  0  0  0  0  0  0
  -22.6622  -11.4412   20.0437 C   0  0  0  0  0  0  0  0  0  0  0  0
  -22.7486  -13.9796   21.1818 C   0  0  0  0  0  0  0  0  0  0  0  0
  -23.0710  -18.8278   19.7548 C   0  0  0  0  0  0  0  0  0  0  0  0
  -30.5890  -28.3788   18.8396 C   0  0  0  0  0  0  0  0  0  0  0  0
  -29.8468  -26.4287   20.0575 C   0  0  0  0  0  0  0  0  0  0  0  0
  -22.4243  -19.7707   20.5527 C   0  0  0  0  0  0  0  0  0  0  0  0
  -33.4279  -27.8403   20.5931 C   0  0  0  0  0  0  0  0  0  0  0  0
  -34.5690  -28.6157   20.7985 C   0  0  0  0  0  0  0  0  0  0  0  0
  -24.5285  -20.3225   21.5954 C   0  0  0  0  0  0  0  0  0  0  0  0
  -35.2158  -28.2738   18.4959 C   0  0  0  0  0  0  0  0  0  0  0  0
  -28.3586  -28.3093   19.7656 C   0  0  0  0  0  0  0  0  0  0  0  0
  -25.9403  -28.8502   19.1598 C   0  0  0  0  0  0  0  0  0  0  0  0
  -23.9054  -12.0109   20.3611 C   0  0  0  0  0  0  0  0  0  0  0  0
  -24.4518  -18.6171   19.8792 C   0  0  0  0  0  0  0  0  0  0  0  0
  -23.9505  -13.2907   20.9464 C   0  0  0  0  0  0  0  0  0  0  0  0
  -25.1907  -19.3782   20.7962 C   0  0  0  0  0  0  0  0  0  0  0  0
  -30.8377  -27.1019   19.3429 C   0  0  0  0  0  0  0  0  0  0  0  0
  -23.1526  -20.5162   21.4752 C   0  0  0  0  0  0  0  0  0  0  0  0
  -33.1808  -27.2815   19.3392 C   0  0  0  0  0  0  0  0  0  0  0  0
  -35.4629  -28.8325   19.7499 C   0  0  0  0  0  0  0  0  0  0  0  0
  -34.0747  -27.4982   18.2906 C   0  0  0  0  0  0  0  0  0  0  0  0
  -27.0781  -28.9326   19.9847 C   0  0  0  0  0  0  0  0  0  0  0  0
  -23.0234  -26.2221   23.5426 C   0  0  0  0  0  0  0  0  0  0  0  0
  -22.3421  -25.7809   22.4297 C   0  0  0  0  0  0  0  0  0  0  0  0
  -22.1014  -28.2987   23.2839 C   0  0  0  0  0  0  0  0  0  0  0  0
  -21.4206  -27.8578   22.1704 C   0  0  0  0  0  0  0  0  0  0  0  0
  -24.9943  -29.6107   19.8027 C   0  0  0  0  0  0  0  0  0  0  0  0
  -25.7550  -28.1489   17.9231 C   0  0  0  0  0  0  0  0  0  0  0  0
  -26.2796  -16.1482   20.6961 C   0  0  0  0  0  0  0  0  0  0  0  0
  -28.6872  -18.1506   19.8499 C   0  0  0  0  0  0  0  0  0  0  0  0
  -29.7664  -21.3570   19.4016 C   0  0  0  0  0  0  0  0  0  0  0  0
  -23.5798  -30.6961   25.4511 C   0  0  0  0  0  0  0  0  0  0  0  0
  -25.1561  -11.2015   20.1261 C   0  0  0  0  0  0  0  0  0  0  0  0
  -25.1388  -17.6152   18.9924 C   0  0  0  0  0  0  0  0  0  0  0  0
  -26.6784  -19.2045   20.9541 C   0  0  0  0  0  0  0  0  0  0  0  0
  -26.4353  -12.0338   20.1584 C   0  0  0  0  0  0  0  0  0  0  0  0
  -25.0989  -33.2007   23.1881 C   0  0  0  0  0  0  0  0  0  0  0  0
  -26.4339  -12.9683   21.3640 C   0  0  0  0  0  0  0  0  0  0  0  0
  -25.7178  -32.3305   22.0956 C   0  0  0  0  0  0  0  0  0  0  0  0
  -25.0268  -32.4678   24.5243 C   0  0  0  0  0  0  0  0  0  0  0  0
  -24.9449  -30.2865   23.3626 C   0  0  0  0  0  0  0  0  0  0  0  0
  -25.2639  -13.9570   21.2944 C   0  0  1  0  0  0  0  0  0  0  0  0
  -26.4633  -17.1198   19.5648 C   0  0  1  0  0  0  0  0  0  0  0  0
  -24.9895  -30.9791   21.9923 C   0  0  2  0  0  0  0  0  0  0  0  0
  -24.3164  -25.9049   25.6672 C   0  0  0  0  0  0  0  0  0  0  0  0
  -31.7948  -22.6786   18.7409 C   0  0  0  0  0  0  0  0  0  0  0  0
  -29.9186  -17.6269   22.5921 C   0  0  0  0  0  0  0  0  0  0  0  0
  -31.3658  -19.6410   22.2496 C   0  0  0  0  0  0  0  0  0  0  0  0
  -31.5601  -17.6908   20.7064 C   0  0  0  0  0  0  0  0  0  0  0  0
  -21.6375  -29.3686   26.1891 C   0  0  0  0  0  0  0  0  0  0  0  0
  -28.3782  -22.5426   17.0722 C   0  0  0  0  0  0  0  0  0  0  0  0
  -23.9200  -25.3163   24.3153 C   0  0  0  0  0  0  0  0  0  0  0  0
  -22.4712  -24.3603   21.9408 C   0  0  0  0  0  0  0  0  0  0  0  0
  -21.9728  -29.7026   23.7680 C   0  0  0  0  0  0  0  0  0  0  0  0
  -21.2666  -23.4800   22.2809 C   0  0  0  0  0  0  0  0  0  0  0  0
  -21.3680  -22.0707   21.7092 C   0  0  0  0  0  0  0  0  0  1  0  0
  -29.5228  -19.1817   20.5692 C   0  0  1  0  0  0  0  0  0  0  0  0
  -30.5134  -22.0177   18.2571 C   0  0  2  0  0  0  0  0  0  0  0  0
  -20.5242  -28.7639   21.3978 C   0  0  0  0  0  0  0  0  0  0  0  0
  -30.5635  -18.5373   21.5280 C   0  0  0  0  0  0  0  0  0  0  0  0
  -26.8756  -29.6861   21.0688 N   0  0  0  0  0  0  0  0  0  0  0  0
  -22.9152  -27.4889   23.9898 N   0  0  0  0  0  0  0  0  0  0  0  0
  -21.5285  -26.5908   21.7236 N   0  0  0  0  0  0  0  0  0  0  0  0
  -25.5996  -30.0842   20.9295 N   0  0  0  0  0  0  0  0  0  0  0  0
  -27.3035  -18.2081   20.0687 N   0  0  0  0  0  0  0  0  0  0  0  0
  -24.3684  -31.1680   24.3889 N   0  0  0  0  0  0  0  0  0  0  0  0
  -23.7122  -29.9139   19.5084 N   0  0  0  0  0  0  0  0  0  0  0  0
  -26.8304  -27.4158   17.4031 N   0  0  0  0  0  0  0  0  0  0  0  0
  -25.5561  -15.0207   20.3575 N   0  0  0  0  0  0  0  0  0  0  0  0
  -30.1074  -20.0276   19.5342 N   0  0  0  0  0  0  0  0  0  0  0  0
  -22.4916  -29.8733   25.1234 N   0  0  0  0  0  0  0  0  0  0  0  0
  -29.6616  -23.0581   17.6146 N   0  3  0  0  0  0  0  0  0  0  0  0
  -24.6731  -28.1851   17.2893 O   0  0  0  0  0  0  0  0  0  0  0  0
  -26.7599  -16.4021   21.7946 O   0  0  0  0  0  0  0  0  0  0  0  0
  -29.2411  -17.3290   19.1151 O   0  0  0  0  0  0  0  0  0  0  0  0
  -28.9636  -21.9609   20.1097 O   0  0  0  0  0  0  0  0  0  0  0  0
  -23.8283  -31.0011   26.6247 O   0  0  0  0  0  0  0  0  0  0  0  0
  -32.0471  -26.5125   19.1367 O   0  0  0  0  0  0  0  0  0  0  0  0
  -22.5238  -21.4367   22.2556 O   0  0  0  0  0  0  0  0  0  1  0  0
  -36.5578  -29.5785   19.9468 F   0  0  0  0  0  0  0  0  0  0  0  0
  -33.8420  -26.9650   17.0834 F   0  0  0  0  0  0  0  0  0  0  0  0
  -20.4592  -30.0320   21.9026 F   0  0  0  0  0  0  0  0  0  0  0  0
  -20.8964  -28.9200   20.0925 F   0  0  0  0  0  0  0  0  0  0  0  0
  -19.2338  -28.3197   21.3591 F   0  0  0  0  0  0  0  0  0  0  0  0
  1  2  1  0  0  0  0
  1  5  2  0  0  0  0
  2  6  2  0  0  0  0
  3  8  2  0  0  0  0
  3 15  1  0  0  0  0
  4  9  1  0  0  0  0
  4 15  2  0  0  0  0
  5 17  1  0  0  0  0
  6 19  1  0  0  0  0
  7 10  2  0  0  0  0
  7 18  1  0  0  0  0
  8 21  1  0  0  0  0
  9 21  2  0  0  0  0
 10 22  1  0  0  0  0
 11 12  2  0  0  0  0
 11 23  1  0  0  0  0
 12 24  1  0  0  0  0
 13 20  1  0  0  0  0
 13 22  2  0  0  0  0
 14 24  2  0  0  0  0
 14 25  1  0  0  0  0
 15 26  1  0  0  0  0
 16 26  1  0  0  0  0
 16 31  2  0  0  0  0
 16 32  1  0  0  0  0
 17 19  2  0  0  0  0
 17 37  1  0  0  0  0
 18 20  2  0  0  0  0
 18 38  1  0  0  0  0
 19 46  1  0  0  0  0
 20 39  1  0  0  0  0
 21 82  1  0  0  0  0
 22 83  1  0  0  0  0
 23 25  2  0  0  0  0
 23 82  1  0  0  0  0
 24 84  1  0  0  0  0
 25 85  1  0  0  0  0
 26 65  2  0  0  0  0
 27 28  2  0  0  0  0
 27 56  1  0  0  0  0
 27 66  1  0  0  0  0
 28 57  1  0  0  0  0
 28 67  1  0  0  0  0
 29 30  1  0  0  0  0
 29 58  1  0  0  0  0
 29 66  2  0  0  0  0
 30 63  1  0  0  0  0
 30 67  2  0  0  0  0
 31 68  1  0  0  0  0
 31 71  1  0  0  0  0
 32 72  1  0  0  0  0
 32 77  2  0  0  0  0
 33 47  1  0  0  0  0
 33 73  1  0  0  0  0
 33 78  2  0  0  0  0
 34 61  1  0  0  0  0
 34 69  1  0  0  0  0
 34 79  2  0  0  0  0
 35 62  1  0  0  0  0
 35 74  1  0  0  0  0
 35 80  2  0  0  0  0
 36 70  1  0  0  0  0
 36 75  1  0  0  0  0
 36 81  2  0  0  0  0
 37 40  1  0  0  0  0
 38 47  1  0  0  0  0
 39 69  1  0  0  0  0
 40 42  1  0  0  0  0
 41 43  1  0  0  0  0
 41 44  1  0  0  0  0
 42 46  1  0  0  0  0
 43 48  1  0  0  0  0
 44 70  1  0  0  0  0
 45 48  1  0  0  0  0
 45 70  1  0  0  0  0
 46 73  1  0  0  0  0
 47 69  1  0  0  0  0
 48 68  1  0  0  0  0
 49 56  1  0  0  0  0
 50 62  1  0  0  0  0
 51 64  1  0  0  0  0
 52 64  1  0  0  0  0
 53 64  1  0  0  0  0
 54 75  1  0  0  0  0
 55 76  1  0  0  0  0
 57 59  1  0  0  0  0
 58 75  1  0  0  0  0
 59 60  1  0  0  0  0
 60 83  1  0  0  0  0
 61 64  1  0  0  0  0
 61 74  1  0  0  0  0
 62 76  1  0  0  0  0
 63 86  1  0  0  0  0
 63 87  1  0  0  0  0
 63 88  1  0  0  0  0
 65 68  1  0  0  0  0
M  CHG  1  76   1
M  ISO  4  36 100  60 101  75 100  83 101
M  END
> <Batch ID>
0063

> <Smiles>
CCc1nc(C[100N:0](C)[100C:0](=O)N2CCCC(n3nc(-c4ccc(Oc5ccc(F)cc5F)cc4)c(C(N)=O)c3N)C2)c(C(F)(F)F)nc1CC[101CH2:1][101O:1]c1ccc2c(c1)CN(C(=O)C(NC(=O)C(C)NC)C(C)(C)C)C(C(=O)NC1CCCc3ccccc31)C2

> <Shape>
0.262

> <Color>
0.049

> <Negative vol penalty>
0.000

$$$$

  -OEChem-04052318023D

 89 97  0     1  0  0  0  0  0999 V2000
  -31.0332  -32.9865   19.4921 C   0  0  0  0  0  0  0  0  0  0  0  0
  -30.0092  -32.0467   19.5520 C   0  0  0  0  0  0  0  0  0  0  0  0
  -23.4526   -9.6734   21.1107 C   0  0  0  0  0  0  0  0  0  0  0  0
  -24.2235  -10.4754   23.2554 C   0  0  0  0  0  0  0  0  0  0  0  0
  -32.3421  -32.5749   19.2449 C   0  0  0  0  0  0  0  0  0  0  0  0
  -30.2935  -30.6946   19.3636 C   0  0  0  0  0  0  0  0  0  0  0  0
  -27.5700  -25.9433   22.1047 C   0  0  0  0  0  0  0  0  0  0  0  0
  -22.8648   -8.5725   21.7337 C   0  0  0  0  0  0  0  0  0  0  0  0
  -23.6356   -9.3746   23.8784 C   0  0  0  0  0  0  0  0  0  0  0  0
  -26.5561  -25.0787   21.6944 C   0  0  0  0  0  0  0  0  0  0  0  0
  -20.8518   -5.7395   22.8000 C   0  0  0  0  0  0  0  0  0  0  0  0
  -19.5593   -5.3879   22.4111 C   0  0  0  0  0  0  0  0  0  0  0  0
  -28.2161  -23.4811   20.9792 C   0  0  0  0  0  0  0  0  0  0  0  0
  -18.7601   -7.5602   23.1039 C   0  0  0  0  0  0  0  0  0  0  0  0
  -28.4219  -16.8348   21.5452 C   0  0  0  0  0  0  0  0  0  0  0  0
  -24.1320  -10.6249   21.8716 C   0  0  0  0  0  0  0  0  0  0  0  0
  -24.1462  -13.0129   20.9744 C   0  0  0  0  0  0  0  0  0  0  0  0
  -32.6441  -31.2161   19.0630 C   0  0  0  0  0  0  0  0  0  0  0  0
  -28.9170  -25.5872   21.9450 C   0  0  0  0  0  0  0  0  0  0  0  0
  -31.6075  -30.2645   19.1124 C   0  0  0  0  0  0  0  0  0  0  0  0
  -29.2452  -24.3418   21.3906 C   0  0  0  0  0  0  0  0  0  0  0  0
  -22.9563   -8.4231   23.1175 C   0  0  0  0  0  0  0  0  0  0  0  0
  -26.8791  -23.8487   21.1289 C   0  0  0  0  0  0  0  0  0  0  0  0
  -21.0986   -7.0013   23.3409 C   0  0  0  0  0  0  0  0  0  0  0  0
  -18.5134   -6.2983   22.5630 C   0  0  0  0  0  0  0  0  0  0  0  0
  -20.0527   -7.9117   23.4928 C   0  0  0  0  0  0  0  0  0  0  0  0
  -24.7399  -11.7620   21.2285 C   0  0  0  0  0  0  0  0  0  0  0  0
  -29.7583  -16.4837   21.2758 C   0  0  0  0  0  0  0  0  0  0  0  0
  -28.2584  -18.0554   20.9372 C   0  0  0  0  0  0  0  0  0  0  0  0
  -25.1303  -13.7395   20.3499 C   0  0  0  0  0  0  0  0  0  0  0  0
  -22.8234  -13.4765   21.2760 C   0  0  0  0  0  0  0  0  0  0  0  0
  -31.3753  -26.7806   20.3214 C   0  0  0  0  0  0  0  0  0  0  0  0
  -30.8973  -14.4160   20.5273 C   0  0  0  0  0  0  0  0  0  0  0  0
  -33.0327  -24.4842   21.9031 C   0  0  0  0  0  0  0  0  0  0  0  0
  -32.9950  -21.4822   23.5258 C   0  0  0  0  0  0  0  0  0  0  0  0
  -34.0667  -30.8240   18.7513 C   0  0  0  0  0  0  0  0  0  0  0  0
  -29.9986  -26.5197   22.4173 C   0  0  0  0  0  0  0  0  0  0  0  0
  -30.6755  -23.9037   21.2159 C   0  0  0  0  0  0  0  0  0  0  0  0
  -34.3419  -29.3337   18.9349 C   0  0  0  0  0  0  0  0  0  0  0  0
  -29.2608  -12.6315   17.8859 C   0  0  0  0  0  0  0  0  0  0  0  0
  -33.2390  -28.5033   18.2864 C   0  0  0  0  0  0  0  0  0  0  0  0
  -27.8816  -12.3186   18.4647 C   0  0  0  0  0  0  0  0  0  0  0  0
  -30.3415  -12.5847   18.9615 C   0  0  0  0  0  0  0  0  0  0  0  0
  -28.6925  -13.1608   20.7138 C   0  0  0  0  0  0  0  0  0  0  0  0
  -31.8799  -28.7862   18.9379 C   0  0  1  0  0  0  0  0  0  0  0  0
  -31.3405  -26.2724   21.7350 C   0  0  1  0  0  0  0  0  0  0  0  0
  -27.5671  -13.2276   19.6661 C   0  0  2  0  0  0  0  0  0  0  0  0
  -31.7048  -15.5335   22.5799 C   0  0  0  0  0  0  0  0  0  0  0  0
  -34.5102  -19.8451   24.6753 C   0  0  0  0  0  0  0  0  0  0  0  0
  -30.8988  -18.3447   17.7024 C   0  0  0  0  0  0  0  0  0  0  0  0
  -28.4657  -18.8717   17.5196 C   0  0  0  0  0  0  0  0  0  0  0  0
  -30.1650  -20.7061   17.3621 C   0  0  0  0  0  0  0  0  0  0  0  0
  -34.0568  -23.5316   19.1913 C   0  0  0  0  0  0  0  0  0  0  0  0
  -34.7579  -21.3918   20.2858 C   0  0  0  0  0  0  0  0  0  0  0  0
  -35.7761  -23.5517   21.0073 C   0  0  0  0  0  0  0  0  0  0  0  0
  -31.5528  -21.7733   26.0937 C   0  0  0  0  0  0  0  0  0  0  0  0
  -24.7713  -20.7129   23.5047 C   0  0  0  0  0  0  0  0  0  0  0  0
  -27.0608  -18.9678   20.8536 C   0  0  0  0  0  0  0  0  0  0  0  0
  -25.8182  -18.4294   21.5751 C   0  0  0  0  0  0  0  0  0  0  0  0
  -29.7924  -19.5327   19.6034 C   0  0  0  0  0  0  0  0  0  0  0  0
  -24.5692  -19.2986   21.4652 C   0  0  0  0  0  0  0  0  0  0  0  0
  -23.9669  -21.7129   21.3705 C   0  0  0  0  0  0  0  0  0  0  0  0
  -24.6568  -23.0610   21.4403 C   0  0  0  0  0  0  0  0  0  1  0  0
  -30.4683  -15.2645   21.6978 C   0  0  1  0  0  0  0  0  0  0  0  0
  -33.3809  -23.0401   21.6341 C   0  0  1  0  0  0  0  0  0  0  0  0
  -33.5936  -21.0458   24.8508 C   0  0  2  0  0  0  0  0  0  0  0  0
  -29.8134  -19.3806   18.0577 C   0  0  0  0  0  0  0  0  0  0  0  0
  -34.4659  -22.8876   20.5310 C   0  0  0  0  0  0  0  0  0  0  0  0
  -26.0033  -11.6943   20.8003 N   0  0  0  0  0  0  0  0  0  0  0  0
  -30.3982  -17.4066   20.5528 N   0  0  0  0  0  0  0  0  0  0  0  0
  -29.4599  -18.3497   20.3627 N   0  0  0  0  0  0  0  0  0  0  0  0
  -26.2114  -12.9118   20.2707 N   0  0  0  0  0  0  0  0  0  0  0  0
  -31.6973  -24.8531   21.6873 N   0  0  0  0  0  0  0  0  0  0  0  0
  -29.9950  -13.4438   20.0951 N   0  0  0  0  0  0  0  0  0  0  0  0
  -25.1676  -14.9993   19.8662 N   0  0  0  0  0  0  0  0  0  0  0  0
  -21.9392  -12.6007   21.9205 N   0  0  0  0  0  0  0  0  0  0  0  0
  -31.7749  -28.0985   20.2070 N   0  0  0  0  0  0  0  0  0  0  0  0
  -33.7525  -22.4632   22.9216 N   0  0  0  0  0  0  0  0  0  0  0  0
  -32.5145  -20.6770   25.8103 N   0  3  0  0  0  0  0  0  0  0  0  0
  -24.8354  -20.6850   21.9977 N   0  3  1  0  0  0  0  0  0  0  0  0
  -22.4318  -14.6277   20.9679 O   0  0  0  0  0  0  0  0  0  0  0  0
  -31.0641  -26.0321   19.4024 O   0  0  0  0  0  0  0  0  0  0  0  0
  -32.0005  -14.6149   20.0119 O   0  0  0  0  0  0  0  0  0  0  0  0
  -33.9116  -25.2549   22.2971 O   0  0  0  0  0  0  0  0  0  0  0  0
  -31.9610  -20.9984   23.0704 O   0  0  0  0  0  0  0  0  0  0  0  0
  -22.3826   -7.3491   23.7257 O   0  0  0  0  0  0  0  0  0  0  0  0
  -25.8914  -23.0032   20.7270 O   0  0  0  0  0  0  0  0  0  1  0  0
  -17.2724   -5.9611   22.1881 F   0  0  0  0  0  0  0  0  0  0  0  0
  -20.2838   -9.1258   24.0107 F   0  0  0  0  0  0  0  0  0  0  0  0
  1  2  1  0  0  0  0
  1  5  2  0  0  0  0
  2  6  2  0  0  0  0
  3  8  2  0  0  0  0
  3 16  1  0  0  0  0
  4  9  1  0  0  0  0
  4 16  2  0  0  0  0
  5 18  1  0  0  0  0
  6 20  1  0  0  0  0
  7 10  2  0  0  0  0
  7 19  1  0  0  0  0
  8 22  1  0  0  0  0
  9 22  2  0  0  0  0
 10 23  1  0  0  0  0
 11 12  2  0  0  0  0
 11 24  1  0  0  0  0
 12 25  1  0  0  0  0
 13 21  1  0  0  0  0
 13 23  2  0  0  0  0
 14 25  2  0  0  0  0
 14 26  1  0  0  0  0
 15 28  1  0  0  0  0
 15 29  2  0  0  0  0
 16 27  1  0  0  0  0
 17 27  1  0  0  0  0
 17 30  2  0  0  0  0
 17 31  1  0  0  0  0
 18 20  2  0  0  0  0
 18 36  1  0  0  0  0
 19 21  2  0  0  0  0
 19 37  1  0  0  0  0
 20 45  1  0  0  0  0
 21 38  1  0  0  0  0
 22 86  1  0  0  0  0
 23 87  1  0  0  0  0
 24 26  2  0  0  0  0
 24 86  1  0  0  0  0
 25 88  1  0  0  0  0
 26 89  1  0  0  0  0
 27 69  2  0  0  0  0
 28 64  1  0  0  0  0
 28 70  2  0  0  0  0
 29 58  1  0  0  0  0
 29 71  1  0  0  0  0
 30 72  1  0  0  0  0
 30 75  1  0  0  0  0
 31 76  1  0  0  0  0
 31 81  2  0  0  0  0
 32 46  1  0  0  0  0
 32 77  1  0  0  0  0
 32 82  2  0  0  0  0
 33 64  1  0  0  0  0
 33 74  1  0  0  0  0
 33 83  2  0  0  0  0
 34 65  1  0  0  0  0
 34 73  1  0  0  0  0
 34 84  2  0  0  0  0
 35 66  1  0  0  0  0
 35 78  1  0  0  0  0
 35 85  2  0  0  0  0
 36 39  1  0  0  0  0
 37 46  1  0  0  0  0
 38 73  1  0  0  0  0
 39 41  1  0  0  0  0
 40 42  1  0  0  0  0
 40 43  1  0  0  0  0
 41 45  1  0  0  0  0
 42 47  1  0  0  0  0
 43 74  1  0  0  0  0
 44 47  1  0  0  0  0
 44 74  1  0  0  0  0
 45 77  1  0  0  0  0
 46 73  1  0  0  0  0
 47 72  1  0  0  0  0
 48 64  1  0  0  0  0
 49 66  1  0  0  0  0
 50 67  1  0  0  0  0
 51 67  1  0  0  0  0
 52 67  1  0  0  0  0
 53 68  1  0  0  0  0
 54 68  1  0  0  0  0
 55 68  1  0  0  0  0
 56 79  1  0  0  0  0
 57 80  1  0  0  0  0
 58 59  1  0  0  0  0
 59 61  1  0  0  0  0
 60 67  1  0  0  0  0
 60 71  1  0  0  0  0
 61 80  1  0  0  0  0
 62 63  1  0  0  0  0
 62 80  1  0  0  0  0
 63 87  1  0  0  0  0
 65 68  1  0  0  0  0
 65 78  1  0  0  0  0
 66 79  1  0  0  0  0
 69 72  1  0  0  0  0
 70 71  1  0  0  0  0
M  CHG  2  79   1  80   1
M  ISO  4  33 100  63 101  64 100  87 101
M  END
> <Batch ID>
0063

> <Smiles>
CNC(C)C(=O)NC(C(=O)N1Cc2cc([101O:1][101CH2:1]CN(C)CCCc3cc([100CH:0](C)[100C:0](=O)N4CCCC(n5nc(-c6ccc(Oc7ccc(F)cc7F)cc6)c(C(N)=O)c5N)C4)nn3CC(C)(C)C)ccc2CC1C(=O)NC1CCCc2ccccc21)C(C)(C)C

> <Shape>
0.214

> <Color>
0.168

> <Negative vol penalty>
0.000

$$$$

  -OEChem-04052318023D

 87 95  0     1  0  0  0  0  0999 V2000
  -21.9221   -8.8139   20.8091 C   0  0  0  0  0  0  0  0  0  0  0  0
  -22.0333  -10.1995   20.7848 C   0  0  0  0  0  0  0  0  0  0  0  0
  -22.3690  -28.4427   20.6856 C   0  0  0  0  0  0  0  0  0  0  0  0
  -23.3789  -26.8564   22.2024 C   0  0  0  0  0  0  0  0  0  0  0  0
  -23.0047   -8.0388   21.2194 C   0  0  0  0  0  0  0  0  0  0  0  0
  -23.2308  -10.8099   21.1593 C   0  0  0  0  0  0  0  0  0  0  0  0
  -23.5636  -15.6732   20.4951 C   0  0  0  0  0  0  0  0  0  0  0  0
  -21.1155  -28.1670   21.2317 C   0  0  0  0  0  0  0  0  0  0  0  0
  -22.1254  -26.5807   22.7486 C   0  0  0  0  0  0  0  0  0  0  0  0
  -22.8725  -16.5909   21.2850 C   0  0  0  0  0  0  0  0  0  0  0  0
  -19.3625  -29.0124   23.9967 C   0  0  0  0  0  0  0  0  0  0  0  0
  -18.5319  -30.0935   24.2917 C   0  0  0  0  0  0  0  0  0  0  0  0
  -24.9085  -17.0861   22.4804 C   0  0  0  0  0  0  0  0  0  0  0  0
  -16.8668  -29.2296   22.7692 C   0  0  0  0  0  0  0  0  0  0  0  0
  -27.8497  -22.5302   20.9465 C   0  0  0  0  0  0  0  0  0  0  0  0
  -23.5007  -27.7873   21.1708 C   0  0  0  0  0  0  0  0  0  0  0  0
  -25.4550  -29.3147   20.5748 C   0  0  0  0  0  0  0  0  0  0  0  0
  -24.2116   -8.6413   21.6109 C   0  0  0  0  0  0  0  0  0  0  0  0
  -24.9324  -15.4467   20.6994 C   0  0  0  0  0  0  0  0  0  0  0  0
  -24.3426  -10.0438   21.5536 C   0  0  0  0  0  0  0  0  0  0  0  0
  -25.6152  -16.1669   21.6900 C   0  0  0  0  0  0  0  0  0  0  0  0
  -20.9937  -27.2360   22.2633 C   0  0  0  0  0  0  0  0  0  0  0  0
  -23.5443  -17.2954   22.2798 C   0  0  0  0  0  0  0  0  0  0  0  0
  -18.9453  -28.0399   23.0879 C   0  0  0  0  0  0  0  0  0  0  0  0
  -17.2840  -30.2020   23.6780 C   0  0  0  0  0  0  0  0  0  0  0  0
  -17.6974  -28.1485   22.4741 C   0  0  0  0  0  0  0  0  0  0  0  0
  -24.7957  -28.0713   20.6066 C   0  0  0  0  0  0  0  0  0  0  0  0
  -28.7101  -23.5282   21.4420 C   0  0  0  0  0  0  0  0  0  0  0  0
  -26.8815  -22.4013   21.9122 C   0  0  0  0  0  0  0  0  0  0  0  0
  -26.6436  -29.0569   19.9366 C   0  0  0  0  0  0  0  0  0  0  0  0
  -25.0310  -30.5889   21.0772 C   0  0  0  0  0  0  0  0  0  0  0  0
  -26.6896  -12.9341   21.5377 C   0  0  0  0  0  0  0  0  0  0  0  0
  -29.1582  -14.9470   20.9236 C   0  0  0  0  0  0  0  0  0  0  0  0
  -29.8440  -24.0107   19.3001 C   0  0  0  0  0  0  0  0  0  0  0  0
  -30.2824  -18.1590   20.6670 C   0  0  0  0  0  0  0  0  0  0  0  0
  -25.3541   -7.7542   22.0388 C   0  0  0  0  0  0  0  0  0  0  0  0
  -25.6692  -14.4730   19.8211 C   0  0  0  0  0  0  0  0  0  0  0  0
  -27.0887  -15.9753   21.9361 C   0  0  0  0  0  0  0  0  0  0  0  0
  -26.4204   -8.5002   22.8342 C   0  0  0  0  0  0  0  0  0  0  0  0
  -28.6104  -26.1457   16.7001 C   0  0  0  0  0  0  0  0  0  0  0  0
  -26.8180   -9.7739   22.1033 C   0  0  0  0  0  0  0  0  0  0  0  0
  -27.5326  -26.9747   17.3975 C   0  0  0  0  0  0  0  0  0  0  0  0
  -28.6624  -24.7230   17.2481 C   0  0  0  0  0  0  0  0  0  0  0  0
  -27.7692  -25.4770   19.4288 C   0  0  0  0  0  0  0  0  0  0  0  0
  -25.6252  -10.7312   21.9858 C   0  0  1  0  0  0  0  0  0  0  0  0
  -26.9513  -13.9458   20.4580 C   0  0  1  0  0  0  0  0  0  0  0  0
  -27.7037  -26.9302   18.9263 C   0  0  2  0  0  0  0  0  0  0  0  0
  -32.3566  -19.4877   20.1880 C   0  0  0  0  0  0  0  0  0  0  0  0
  -31.1922  -23.2478   21.2113 C   0  0  0  0  0  0  0  0  0  0  0  0
  -30.2660  -25.5632   21.0882 C   0  0  0  0  0  0  0  0  0  0  0  0
  -30.2078  -14.3111   23.7172 C   0  0  0  0  0  0  0  0  0  0  0  0
  -31.6856  -16.3247   23.5445 C   0  0  0  0  0  0  0  0  0  0  0  0
  -31.9674  -14.4320   21.9442 C   0  0  0  0  0  0  0  0  0  0  0  0
  -21.2720  -20.1411   24.6011 C   0  0  0  0  0  0  0  0  0  0  0  0
  -20.4040  -20.9791   22.3881 C   0  0  0  0  0  0  0  0  0  0  0  0
  -26.4907  -23.5371   24.1194 C   0  0  0  0  0  0  0  0  0  0  0  0
  -29.0536  -19.4422   18.3000 C   0  0  0  0  0  0  0  0  0  0  0  0
  -25.6727  -21.5033   21.9890 C   0  0  0  0  0  0  0  0  0  0  0  0
  -24.4045  -22.1152   21.3794 C   0  0  0  0  0  0  0  0  0  0  0  0
  -23.1466  -21.2589   21.4886 C   0  0  0  0  0  0  0  0  0  0  0  0
  -21.7574  -18.8546   22.4577 C   0  0  0  0  0  0  0  0  0  1  0  0
  -29.9518  -15.9436   21.7335 C   0  0  1  0  0  0  0  0  0  0  0  0
  -31.1052  -18.8558   19.5984 C   0  0  2  0  0  0  0  0  0  0  0  0
  -29.9258  -24.0620   20.8050 C   0  0  0  0  0  0  0  0  0  0  0  0
  -30.9249  -15.2553   22.7317 C   0  0  0  0  0  0  0  0  0  0  0  0
  -21.5347  -20.2313   23.0963 C   0  0  0  0  0  0  0  0  0  0  0  0
  -25.5064  -27.0960   20.0341 N   0  0  0  0  0  0  0  0  0  0  0  0
  -28.3226  -24.0000   22.6299 N   0  0  0  0  0  0  0  0  0  0  0  0
  -27.2079  -23.2954   22.8890 N   0  0  0  0  0  0  0  0  0  0  0  0
  -26.6246  -27.7266   19.6364 N   0  0  0  0  0  0  0  0  0  0  0  0
  -27.7636  -15.0075   21.0555 N   0  0  0  0  0  0  0  0  0  0  0  0
  -28.8029  -24.7237   18.7053 N   0  0  0  0  0  0  0  0  0  0  0  0
  -27.6927  -29.8406   19.6085 N   0  0  0  0  0  0  0  0  0  0  0  0
  -25.3610  -30.9307   22.3957 N   0  0  0  0  0  0  0  0  0  0  0  0
  -25.9829  -11.8260   21.1110 N   0  0  0  0  0  0  0  0  0  0  0  0
  -30.6066  -16.8228   20.7708 N   0  0  0  0  0  0  0  0  0  0  0  0
  -30.3024  -19.9265   18.9426 N   0  3  0  0  0  0  0  0  0  0  0  0
  -22.7877  -21.0333   22.9085 N   0  3  0  0  0  0  0  0  0  0  0  0
  -24.3645  -31.3935   20.3829 O   0  0  0  0  0  0  0  0  0  0  0  0
  -27.0998  -13.1428   22.6734 O   0  0  0  0  0  0  0  0  0  0  0  0
  -29.7534  -14.1489   20.1952 O   0  0  0  0  0  0  0  0  0  0  0  0
  -30.6829  -23.3582   18.6735 O   0  0  0  0  0  0  0  0  0  0  0  0
  -29.4393  -18.7425   21.3446 O   0  0  0  0  0  0  0  0  0  0  0  0
  -19.7707  -26.9669   22.7967 O   0  0  0  0  0  0  0  0  0  0  0  0
  -22.8719  -18.1912   23.0527 O   0  0  0  0  0  0  0  0  0  1  0  0
  -16.4859  -31.2394   23.9625 F   0  0  0  0  0  0  0  0  0  0  0  0
  -17.2906  -27.2168   21.6011 F   0  0  0  0  0  0  0  0  0  0  0  0
  1  2  1  0  0  0  0
  1  5  2  0  0  0  0
  2  6  2  0  0  0  0
  3  8  2  0  0  0  0
  3 16  1  0  0  0  0
  4  9  1  0  0  0  0
  4 16  2  0  0  0  0
  5 18  1  0  0  0  0
  6 20  1  0  0  0  0
  7 10  2  0  0  0  0
  7 19  1  0  0  0  0
  8 22  1  0  0  0  0
  9 22  2  0  0  0  0
 10 23  1  0  0  0  0
 11 12  2  0  0  0  0
 11 24  1  0  0  0  0
 12 25  1  0  0  0  0
 13 21  1  0  0  0  0
 13 23  2  0  0  0  0
 14 25  2  0  0  0  0
 14 26  1  0  0  0  0
 15 28  1  0  0  0  0
 15 29  2  0  0  0  0
 16 27  1  0  0  0  0
 17 27  1  0  0  0  0
 17 30  2  0  0  0  0
 17 31  1  0  0  0  0
 18 20  2  0  0  0  0
 18 36  1  0  0  0  0
 19 21  2  0  0  0  0
 19 37  1  0  0  0  0
 20 45  1  0  0  0  0
 21 38  1  0  0  0  0
 22 84  1  0  0  0  0
 23 85  1  0  0  0  0
 24 26  2  0  0  0  0
 24 84  1  0  0  0  0
 25 86  1  0  0  0  0
 26 87  1  0  0  0  0
 27 67  2  0  0  0  0
 28 64  1  0  0  0  0
 28 68  2  0  0  0  0
 29 58  1  0  0  0  0
 29 69  1  0  0  0  0
 30 70  1  0  0  0  0
 30 73  1  0  0  0  0
 31 74  1  0  0  0  0
 31 79  2  0  0  0  0
 32 46  1  0  0  0  0
 32 75  1  0  0  0  0
 32 80  2  0  0  0  0
 33 62  1  0  0  0  0
 33 71  1  0  0  0  0
 33 81  2  0  0  0  0
 34 64  1  0  0  0  0
 34 72  1  0  0  0  0
 34 82  2  0  0  0  0
 35 63  1  0  0  0  0
 35 76  1  0  0  0  0
 35 83  2  0  0  0  0
 36 39  1  0  0  0  0
 37 46  1  0  0  0  0
 38 71  1  0  0  0  0
 39 41  1  0  0  0  0
 40 42  1  0  0  0  0
 40 43  1  0  0  0  0
 41 45  1  0  0  0  0
 42 47  1  0  0  0  0
 43 72  1  0  0  0  0
 44 47  1  0  0  0  0
 44 72  1  0  0  0  0
 45 75  1  0  0  0  0
 46 71  1  0  0  0  0
 47 70  1  0  0  0  0
 48 63  1  0  0  0  0
 49 64  1  0  0  0  0
 50 64  1  0  0  0  0
 51 65  1  0  0  0  0
 52 65  1  0  0  0  0
 53 65  1  0  0  0  0
 54 66  1  0  0  0  0
 55 66  1  0  0  0  0
 56 69  1  0  0  0  0
 57 77  1  0  0  0  0
 58 59  1  0  0  0  0
 59 60  1  0  0  0  0
 60 78  1  0  0  0  0
 61 66  1  0  0  0  0
 61 85  1  0  0  0  0
 62 65  1  0  0  0  0
 62 76  1  0  0  0  0
 63 77  1  0  0  0  0
 66 78  1  0  0  0  0
 67 70  1  0  0  0  0
 68 69  1  0  0  0  0
M  CHG  2  77   1  78   1
M  ISO  4  34 100  61 101  64 100  85 101
M  END
> <Batch ID>
0063

> <Smiles>
CNC(C)C(=O)NC(C(=O)N1Cc2cc([101O:1][101CH2:1]C(C)(C)NCCCc3cc([100C:0](C)(C)[100C:0](=O)N4CCCC(n5nc(-c6ccc(Oc7ccc(F)cc7F)cc6)c(C(N)=O)c5N)C4)nn3C)ccc2CC1C(=O)NC1CCCc2ccccc21)C(C)(C)C

> <Shape>
0.299

> <Color>
0.052

> <Negative vol penalty>
0.000

$$$$

  -OEChem-04052318023D

 90 98  0     1  0  0  0  0  0999 V2000
  -16.8198  -25.9797   24.9969 C   0  0  0  0  0  0  0  0  0  0  0  0
  -17.9289  -25.5700   24.2639 C   0  0  0  0  0  0  0  0  0  0  0  0
  -29.7587  -17.3821   19.2831 C   0  0  0  0  0  0  0  0  0  0  0  0
  -27.8615  -17.5545   20.7690 C   0  0  0  0  0  0  0  0  0  0  0  0
  -16.4660  -27.3279   25.0289 C   0  0  0  0  0  0  0  0  0  0  0  0
  -18.6845  -26.5082   23.5616 C   0  0  0  0  0  0  0  0  0  0  0  0
  -23.6671  -25.8384   24.1695 C   0  0  0  0  0  0  0  0  0  0  0  0
  -29.9176  -18.7672   19.3252 C   0  0  0  0  0  0  0  0  0  0  0  0
  -28.0204  -18.9397   20.8111 C   0  0  0  0  0  0  0  0  0  0  0  0
  -24.2665  -24.8163   23.4346 C   0  0  0  0  0  0  0  0  0  0  0  0
  -28.4868  -21.4822   17.9091 C   0  0  0  0  0  0  0  0  0  0  0  0
  -28.7139  -22.1447   16.7029 C   0  0  0  0  0  0  0  0  0  0  0  0
  -25.0545  -26.4386   21.8326 C   0  0  0  0  0  0  0  0  0  0  0  0
  -30.8277  -22.9557   17.5462 C   0  0  0  0  0  0  0  0  0  0  0  0
  -22.1998  -15.6066   20.3138 C   0  0  0  0  0  0  0  0  0  0  0  0
  -28.7306  -16.7757   20.0050 C   0  0  0  0  0  0  0  0  0  0  0  0
  -29.5002  -14.3691   20.3562 C   0  0  0  0  0  0  0  0  0  0  0  0
  -17.2232  -28.2845   24.3344 C   0  0  0  0  0  0  0  0  0  0  0  0
  -23.7478  -27.1692   23.7348 C   0  0  0  0  0  0  0  0  0  0  0  0
  -18.3397  -27.8704   23.5832 C   0  0  0  0  0  0  0  0  0  0  0  0
  -24.4574  -27.4759   22.5650 C   0  0  0  0  0  0  0  0  0  0  0  0
  -22.7306  -16.3427   21.3534 C   0  0  0  0  0  0  0  0  0  0  0  0
  -29.0485  -19.5460   20.0892 C   0  0  0  0  0  0  0  0  0  0  0  0
  -24.9578  -25.1160   22.2645 C   0  0  0  0  0  0  0  0  0  0  0  0
  -29.4301  -21.5565   18.9340 C   0  0  0  0  0  0  0  0  0  0  0  0
  -29.8844  -22.8814   16.5214 C   0  0  0  0  0  0  0  0  0  0  0  0
  -30.6005  -22.2932   18.7526 C   0  0  0  0  0  0  0  0  0  0  0  0
  -28.5656  -15.3450   19.9614 C   0  0  0  0  0  0  0  0  0  0  0  0
  -23.3596  -15.6130   22.3413 C   0  0  0  0  0  0  0  0  0  0  0  0
  -28.8681  -13.1728   20.1196 C   0  0  0  0  0  0  0  0  0  0  0  0
  -22.9104  -13.6653   21.2589 C   0  0  0  0  0  0  0  0  0  0  0  0
  -30.8215  -14.5295   20.8891 C   0  0  0  0  0  0  0  0  0  0  0  0
  -21.6346  -29.3690   22.8409 C   0  0  0  0  0  0  0  0  0  0  0  0
  -24.2479  -31.2894   22.7697 C   0  0  0  0  0  0  0  0  0  0  0  0
  -23.0502  -11.7082   19.7739 C   0  0  0  0  0  0  0  0  0  0  0  0
  -27.6376  -31.5597   22.4807 C   0  0  0  0  0  0  0  0  0  0  0  0
  -16.7742  -29.7241   24.3603 C   0  0  0  0  0  0  0  0  0  0  0  0
  -23.1185  -28.2632   24.5530 C   0  0  0  0  0  0  0  0  0  0  0  0
  -24.5905  -28.8908   22.0662 C   0  0  0  0  0  0  0  0  0  0  0  0
  -17.8465  -30.7050   23.8932 C   0  0  0  0  0  0  0  0  0  0  0  0
  -25.5816  -11.1591   17.2979 C   0  0  0  0  0  0  0  0  0  0  0  0
  -18.5005  -30.2088   22.6076 C   0  0  0  0  0  0  0  0  0  0  0  0
  -26.7073  -12.1024   17.7200 C   0  0  0  0  0  0  0  0  0  0  0  0
  -24.2103  -11.7597   17.5908 C   0  0  0  0  0  0  0  0  0  0  0  0
  -25.1433  -13.1146   19.4389 C   0  0  0  0  0  0  0  0  0  0  0  0
  -19.1988  -28.8615   22.8283 C   0  0  1  0  0  0  0  0  0  0  0  0
  -22.8264  -29.5225   23.7429 C   0  0  1  0  0  0  0  0  0  0  0  0
  -26.5461  -12.5331   19.1886 C   0  0  2  0  0  0  0  0  0  0  0  0
  -24.8807  -15.3795   24.3208 C   0  0  0  0  0  0  0  0  0  0  0  0
  -29.4800  -33.2625   22.4218 C   0  0  0  0  0  0  0  0  0  0  0  0
  -24.3107  -11.5569   21.8078 C   0  0  0  0  0  0  0  0  0  0  0  0
  -23.4798  -32.0180   19.9080 C   0  0  0  0  0  0  0  0  0  0  0  0
  -25.7917  -32.9255   19.5926 C   0  0  0  0  0  0  0  0  0  0  0  0
  -24.2773  -33.9397   21.2956 C   0  0  0  0  0  0  0  0  0  0  0  0
  -28.9215  -30.4243   24.8935 C   0  0  0  0  0  0  0  0  0  0  0  0
  -23.2374  -22.7415   18.8996 C   0  0  0  0  0  0  0  0  0  0  0  0
  -22.6162  -17.8460   21.3838 C   0  0  0  0  0  0  0  0  0  0  0  0
  -23.9718  -16.3032   23.5154 C   0  0  0  0  0  0  0  0  0  0  0  0
  -23.6228  -18.5623   20.4763 C   0  0  0  0  0  0  0  0  0  0  0  0
  -23.5427  -20.0884   20.5790 C   0  0  0  0  0  0  0  0  0  0  0  0
  -24.5377  -20.7496   19.6358 C   0  0  0  0  0  0  0  0  0  0  0  0
  -25.6583  -22.9646   19.4393 C   0  0  0  0  0  0  0  0  0  0  0  0
  -21.7805  -11.4657   21.8542 C   0  0  0  0  0  0  0  0  0  0  0  0
  -25.6453  -24.3117   20.1346 C   0  0  0  0  0  0  0  0  0  1  0  0
  -25.2759  -31.6576   21.7274 C   0  0  1  0  0  0  0  0  0  0  0  0
  -28.6601  -32.3283   23.2981 C   0  0  2  0  0  0  0  0  0  0  0  0
  -23.0110  -12.1783   21.2062 C   0  0  1  0  0  0  0  0  0  0  0  0
  -24.7022  -32.6082   20.6390 C   0  0  0  0  0  0  0  0  0  0  0  0
  -22.2717  -14.2617   20.2343 N   0  0  0  0  0  0  0  0  0  0  0  0
  -27.4265  -14.8147   19.5083 N   0  0  0  0  0  0  0  0  0  0  0  0
  -23.4682  -14.2682   22.3261 N   0  0  0  0  0  0  0  0  0  0  0  0
  -27.6412  -13.4925   19.6168 N   0  0  0  0  0  0  0  0  0  0  0  0
  -23.9525  -29.9248   22.8978 N   0  0  0  0  0  0  0  0  0  0  0  0
  -24.1050  -12.1766   18.9902 N   0  0  0  0  0  0  0  0  0  0  0  0
  -29.2476  -11.8892   20.2947 N   0  0  0  0  0  0  0  0  0  0  0  0
  -30.9745  -14.6229   22.2791 N   0  0  0  0  0  0  0  0  0  0  0  0
  -20.4642  -29.0528   23.5040 N   0  0  0  0  0  0  0  0  0  0  0  0
  -26.4176  -32.2018   22.4545 N   0  0  0  0  0  0  0  0  0  0  0  0
  -21.6452  -11.8260   23.2888 N   0  3  0  0  0  0  0  0  0  0  0  0
  -29.5914  -31.3863   23.9809 N   0  3  0  0  0  0  0  0  0  0  0  0
  -24.3922  -22.2480   19.7356 N   0  3  1  0  0  0  0  0  0  0  0  0
  -31.8348  -14.6047   20.1535 O   0  0  0  0  0  0  0  0  0  0  0  0
  -21.7667  -29.5272   21.6330 O   0  0  0  0  0  0  0  0  0  0  0  0
  -23.7313  -32.1791   23.4503 O   0  0  0  0  0  0  0  0  0  0  0  0
  -22.1706  -10.9451   19.3664 O   0  0  0  0  0  0  0  0  0  0  0  0
  -27.8963  -30.4980   21.9183 O   0  0  0  0  0  0  0  0  0  0  0  0
  -29.2035  -20.8976   20.1307 O   0  0  0  0  0  0  0  0  0  0  0  0
  -25.5432  -24.1202   21.5450 O   0  0  0  0  0  0  0  0  0  1  0  0
  -30.1031  -23.5163   15.3624 F   0  0  0  0  0  0  0  0  0  0  0  0
  -31.5110  -22.3672   19.7331 F   0  0  0  0  0  0  0  0  0  0  0  0
  1  2  1  0  0  0  0
  1  5  2  0  0  0  0
  2  6  2  0  0  0  0
  3  8  2  0  0  0  0
  3 16  1  0  0  0  0
  4  9  1  0  0  0  0
  4 16  2  0  0  0  0
  5 18  1  0  0  0  0
  6 20  1  0  0  0  0
  7 10  2  0  0  0  0
  7 19  1  0  0  0  0
  8 23  1  0  0  0  0
  9 23  2  0  0  0  0
 10 24  1  0  0  0  0
 11 12  2  0  0  0  0
 11 25  1  0  0  0  0
 12 26  1  0  0  0  0
 13 21  1  0  0  0  0
 13 24  2  0  0  0  0
 14 26  2  0  0  0  0
 14 27  1  0  0  0  0
 15 22  1  0  0  0  0
 15 69  2  0  0  0  0
 16 28  1  0  0  0  0
 17 28  1  0  0  0  0
 17 30  2  0  0  0  0
 17 32  1  0  0  0  0
 18 20  2  0  0  0  0
 18 37  1  0  0  0  0
 19 21  2  0  0  0  0
 19 38  1  0  0  0  0
 20 46  1  0  0  0  0
 21 39  1  0  0  0  0
 22 29  2  0  0  0  0
 22 57  1  0  0  0  0
 23 87  1  0  0  0  0
 24 88  1  0  0  0  0
 25 27  2  0  0  0  0
 25 87  1  0  0  0  0
 26 89  1  0  0  0  0
 27 90  1  0  0  0  0
 28 70  2  0  0  0  0
 29 58  1  0  0  0  0
 29 71  1  0  0  0  0
 30 72  1  0  0  0  0
 30 75  1  0  0  0  0
 31 67  1  0  0  0  0
 31 69  1  0  0  0  0
 31 71  2  0  0  0  0
 32 76  1  0  0  0  0
 32 82  2  0  0  0  0
 33 47  1  0  0  0  0
 33 77  1  0  0  0  0
 33 83  2  0  0  0  0
 34 65  1  0  0  0  0
 34 73  1  0  0  0  0
 34 84  2  0  0  0  0
 35 67  1  0  0  0  0
 35 74  1  0  0  0  0
 35 85  2  0  0  0  0
 36 66  1  0  0  0  0
 36 78  1  0  0  0  0
 36 86  2  0  0  0  0
 37 40  1  0  0  0  0
 38 47  1  0  0  0  0
 39 73  1  0  0  0  0
 40 42  1  0  0  0  0
 41 43  1  0  0  0  0
 41 44  1  0  0  0  0
 42 46  1  0  0  0  0
 43 48  1  0  0  0  0
 44 74  1  0  0  0  0
 45 48  1  0  0  0  0
 45 74  1  0  0  0  0
 46 77  1  0  0  0  0
 47 73  1  0  0  0  0
 48 72  1  0  0  0  0
 49 58  1  0  0  0  0
 50 66  1  0  0  0  0
 51 67  1  0  0  0  0
 52 68  1  0  0  0  0
 53 68  1  0  0  0  0
 54 68  1  0  0  0  0
 55 80  1  0  0  0  0
 56 81  1  0  0  0  0
 57 59  1  0  0  0  0
 59 60  1  0  0  0  0
 60 61  1  0  0  0  0
 61 81  1  0  0  0  0
 62 64  1  0  0  0  0
 62 81  1  0  0  0  0
 63 67  1  0  0  0  0
 63 79  1  0  0  0  0
 64 88  1  0  0  0  0
 65 68  1  0  0  0  0
 65 78  1  0  0  0  0
 66 80  1  0  0  0  0
 70 72  1  0  0  0  0
M  CHG  3  79   1  80   1  81   1
M  ISO  4  35 100  64 101  67 100  88 101
M  END
> <Batch ID>
0063

> <Smiles>
CCc1nc([100C:0](C)(CN)[100C:0](=O)N2CCCC(n3nc(-c4ccc(Oc5ccc(F)cc5F)cc4)c(C(N)=O)c3N)C2)ncc1CCCCN(C)C[101CH2:1][101O:1]c1ccc2c(c1)CN(C(=O)C(NC(=O)C(C)NC)C(C)(C)C)C(C(=O)NC1CCCc3ccccc31)C2

> <Shape>
0.258

> <Color>
0.081

> <Negative vol penalty>
0.000

$$$$

  -OEChem-04052318023D

 85 93  0     1  0  0  0  0  0999 V2000
  -30.0849  -11.8010   19.7356 C   0  0  0  0  0  0  0  0  0  0  0  0
  -29.9821  -12.7514   20.7464 C   0  0  0  0  0  0  0  0  0  0  0  0
  -24.9992  -24.5799   18.1114 C   0  0  0  0  0  0  0  0  0  0  0  0
  -24.9539  -24.1393   20.4865 C   0  0  0  0  0  0  0  0  0  0  0  0
  -29.2236  -11.8538   18.6405 C   0  0  0  0  0  0  0  0  0  0  0  0
  -29.0185  -13.7558   20.6621 C   0  0  0  0  0  0  0  0  0  0  0  0
  -25.9296  -16.2927   25.3020 C   0  0  0  0  0  0  0  0  0  0  0  0
  -23.6085  -24.6876   18.1049 C   0  0  0  0  0  0  0  0  0  0  0  0
  -23.5632  -24.2471   20.4799 C   0  0  0  0  0  0  0  0  0  0  0  0
  -26.1101  -17.4792   26.0114 C   0  0  0  0  0  0  0  0  0  0  0  0
  -20.0283  -24.7632   21.1558 C   0  0  0  0  0  0  0  0  0  0  0  0
  -19.4301  -25.5088   22.1715 C   0  0  0  0  0  0  0  0  0  0  0  0
  -24.5019  -18.5711   24.5829 C   0  0  0  0  0  0  0  0  0  0  0  0
  -20.6572  -27.4642   21.4587 C   0  0  0  0  0  0  0  0  0  0  0  0
  -27.8794  -20.8276   23.6480 C   0  0  0  0  0  0  0  0  0  0  0  0
  -25.6719  -24.3057   19.3022 C   0  0  0  0  0  0  0  0  0  0  0  0
  -28.0406  -25.2275   19.5193 C   0  0  0  0  0  0  0  0  0  0  0  0
  -28.2426  -12.8536   18.5475 C   0  0  0  0  0  0  0  0  0  0  0  0
  -25.0405  -16.2393   24.2189 C   0  0  0  0  0  0  0  0  0  0  0  0
  -28.1441  -13.8227   19.5641 C   0  0  0  0  0  0  0  0  0  0  0  0
  -24.3100  -17.3820   23.8629 C   0  0  0  0  0  0  0  0  0  0  0  0
  -28.1620  -21.7014   24.6781 C   0  0  0  0  0  0  0  0  0  0  0  0
  -22.8905  -24.5212   19.2891 C   0  0  0  0  0  0  0  0  0  0  0  0
  -25.3984  -18.6194   25.6501 C   0  0  0  0  0  0  0  0  0  0  0  0
  -20.9411  -25.3680   20.2915 C   0  0  0  0  0  0  0  0  0  0  0  0
  -19.7445  -26.8593   22.3230 C   0  0  0  0  0  0  0  0  0  0  0  0
  -21.2554  -26.7185   20.4430 C   0  0  0  0  0  0  0  0  0  0  0  0
  -27.1084  -24.1937   19.3096 C   0  0  0  0  0  0  0  0  0  0  0  0
  -29.4803  -22.0960   24.7815 C   0  0  0  0  0  0  0  0  0  0  0  0
  -29.2641  -24.6101   19.4290 C   0  0  0  0  0  0  0  0  0  0  0  0
  -30.0537  -20.8266   22.9852 C   0  0  0  0  0  0  0  0  0  0  0  0
  -27.8202  -26.6213   19.7732 C   0  0  0  0  0  0  0  0  0  0  0  0
  -25.3264  -15.6465   21.1092 C   0  0  0  0  0  0  0  0  0  0  0  0
  -22.0873  -15.8085   21.1774 C   0  0  0  0  0  0  0  0  0  0  0  0
  -19.2765  -16.9681   22.7270 C   0  0  0  0  0  0  0  0  0  0  0  0
  -30.6035  -18.6815   20.2015 C   0  0  0  0  0  0  0  0  0  0  0  0
  -27.3652  -12.8980   17.3215 C   0  0  0  0  0  0  0  0  0  0  0  0
  -24.8372  -14.9446   23.4807 C   0  0  0  0  0  0  0  0  0  0  0  0
  -23.3282  -17.3716   22.7208 C   0  0  0  0  0  0  0  0  0  0  0  0
  -26.1255  -13.7724   17.4910 C   0  0  0  0  0  0  0  0  0  0  0  0
  -31.4560  -20.9000   17.3637 C   0  0  0  0  0  0  0  0  0  0  0  0
  -26.4980  -15.1101   18.1223 C   0  0  0  0  0  0  0  0  0  0  0  0
  -30.4611  -22.0477   17.5275 C   0  0  0  0  0  0  0  0  0  0  0  0
  -30.9106  -19.5916   17.9280 C   0  0  0  0  0  0  0  0  0  0  0  0
  -29.4711  -20.8335   19.5090 C   0  0  0  0  0  0  0  0  0  0  0  0
  -27.0954  -14.9130   19.5207 C   0  0  1  0  0  0  0  0  0  0  0  0
  -24.2885  -15.1406   22.0707 C   0  0  1  0  0  0  0  0  0  0  0  0
  -30.0087  -22.1766   18.9924 C   0  0  2  0  0  0  0  0  0  0  0  0
  -29.9031  -23.0401   25.8583 C   0  0  0  0  0  0  0  0  0  0  0  0
  -16.7750  -16.9685   22.5276 C   0  0  0  0  0  0  0  0  0  0  0  0
  -32.5434  -20.2380   22.6330 C   0  0  0  0  0  0  0  0  0  0  0  0
  -31.2048  -21.2794   20.8079 C   0  0  0  0  0  0  0  0  0  0  0  0
  -22.2684  -17.8754   18.9401 C   0  0  0  0  0  0  0  0  0  0  0  0
  -19.9009  -18.5195   19.4381 C   0  0  0  0  0  0  0  0  0  0  0  0
  -20.4269  -16.2050   18.6706 C   0  0  0  0  0  0  0  0  0  0  0  0
  -30.9693  -17.9244   22.5194 C   0  0  0  0  0  0  0  0  0  0  0  0
  -18.9529  -15.5942   25.3283 C   0  0  0  0  0  0  0  0  0  0  0  0
  -27.0819  -22.1779   25.6161 C   0  0  0  0  0  0  0  0  0  0  0  0
  -27.1142  -21.5003   26.9877 C   0  0  0  0  0  0  0  0  0  0  0  0
  -26.8558  -19.9994   26.9259 C   0  0  0  0  0  0  0  0  0  1  0  0
  -21.0683  -16.9100   21.0122 C   0  0  1  0  0  0  0  0  0  0  0  0
  -17.9874  -16.2733   23.1271 C   0  0  2  0  0  0  0  0  0  0  0  0
  -31.1044  -20.3414   22.0445 C   0  0  0  0  0  0  0  0  0  0  0  0
  -20.9360  -17.3785   19.5356 C   0  0  0  0  0  0  0  0  0  0  0  0
  -28.8042  -20.3682   22.7797 N   0  0  0  0  0  0  0  0  0  0  0  0
  -27.6899  -23.0094   19.1015 N   0  0  0  0  0  0  0  0  0  0  0  0
  -30.4558  -21.6766   23.9492 N   0  0  0  0  0  0  0  0  0  0  0  0
  -29.0007  -23.2952   19.1800 N   0  0  0  0  0  0  0  0  0  0  0  0
  -23.1691  -16.0835   22.0258 N   0  0  0  0  0  0  0  0  0  0  0  0
  -30.4479  -19.7530   19.3068 N   0  0  0  0  0  0  0  0  0  0  0  0
  -30.5289  -25.0690   19.5390 N   0  0  0  0  0  0  0  0  0  0  0  0
  -26.5003  -27.0888   19.8340 N   0  0  0  0  0  0  0  0  0  0  0  0
  -26.0489  -14.6479   20.4846 N   0  0  0  0  0  0  0  0  0  0  0  0
  -19.8276  -16.4088   21.5936 N   0  0  0  0  0  0  0  0  0  0  0  0
  -30.7918  -19.0006   21.5548 N   0  0  0  0  0  0  0  0  0  0  0  0
  -17.8405  -16.2679   24.6101 N   0  3  0  0  0  0  0  0  0  0  0  0
  -28.7660  -27.4312   19.9249 O   0  0  0  0  0  0  0  0  0  0  0  0
  -25.4606  -16.8534   20.9449 O   0  0  0  0  0  0  0  0  0  0  0  0
  -21.9256  -14.7407   20.5813 O   0  0  0  0  0  0  0  0  0  0  0  0
  -19.7455  -17.9148   23.3549 O   0  0  0  0  0  0  0  0  0  0  0  0
  -30.5851  -17.5070   19.8115 O   0  0  0  0  0  0  0  0  0  0  0  0
  -21.5335  -24.6265   19.2831 O   0  0  0  0  0  0  0  0  0  0  0  0
  -25.5732  -19.7790   26.3405 O   0  0  0  0  0  0  0  0  0  1  0  0
  -19.1688  -27.5756   23.2974 F   0  0  0  0  0  0  0  0  0  0  0  0
  -22.1306  -27.3053   19.6150 F   0  0  0  0  0  0  0  0  0  0  0  0
  1  2  1  0  0  0  0
  1  5  2  0  0  0  0
  2  6  2  0  0  0  0
  3  8  2  0  0  0  0
  3 16  1  0  0  0  0
  4  9  1  0  0  0  0
  4 16  2  0  0  0  0
  5 18  1  0  0  0  0
  6 20  1  0  0  0  0
  7 10  2  0  0  0  0
  7 19  1  0  0  0  0
  8 23  1  0  0  0  0
  9 23  2  0  0  0  0
 10 24  1  0  0  0  0
 11 12  2  0  0  0  0
 11 25  1  0  0  0  0
 12 26  1  0  0  0  0
 13 21  1  0  0  0  0
 13 24  2  0  0  0  0
 14 26  2  0  0  0  0
 14 27  1  0  0  0  0
 15 22  1  0  0  0  0
 15 65  2  0  0  0  0
 16 28  1  0  0  0  0
 17 28  1  0  0  0  0
 17 30  2  0  0  0  0
 17 32  1  0  0  0  0
 18 20  2  0  0  0  0
 18 37  1  0  0  0  0
 19 21  2  0  0  0  0
 19 38  1  0  0  0  0
 20 46  1  0  0  0  0
 21 39  1  0  0  0  0
 22 29  2  0  0  0  0
 22 58  1  0  0  0  0
 23 82  1  0  0  0  0
 24 83  1  0  0  0  0
 25 27  2  0  0  0  0
 25 82  1  0  0  0  0
 26 84  1  0  0  0  0
 27 85  1  0  0  0  0
 28 66  2  0  0  0  0
 29 49  1  0  0  0  0
 29 67  1  0  0  0  0
 30 68  1  0  0  0  0
 30 71  1  0  0  0  0
 31 63  1  0  0  0  0
 31 65  1  0  0  0  0
 31 67  2  0  0  0  0
 32 72  1  0  0  0  0
 32 77  2  0  0  0  0
 33 47  1  0  0  0  0
 33 73  1  0  0  0  0
 33 78  2  0  0  0  0
 34 61  1  0  0  0  0
 34 69  1  0  0  0  0
 34 79  2  0  0  0  0
 35 62  1  0  0  0  0
 35 74  1  0  0  0  0
 35 80  2  0  0  0  0
 36 70  1  0  0  0  0
 36 75  1  0  0  0  0
 36 81  2  0  0  0  0
 37 40  1  0  0  0  0
 38 47  1  0  0  0  0
 39 69  1  0  0  0  0
 40 42  1  0  0  0  0
 41 43  1  0  0  0  0
 41 44  1  0  0  0  0
 42 46  1  0  0  0  0
 43 48  1  0  0  0  0
 44 70  1  0  0  0  0
 45 48  1  0  0  0  0
 45 70  1  0  0  0  0
 46 73  1  0  0  0  0
 47 69  1  0  0  0  0
 48 68  1  0  0  0  0
 50 62  1  0  0  0  0
 51 63  1  0  0  0  0
 52 63  1  0  0  0  0
 53 64  1  0  0  0  0
 54 64  1  0  0  0  0
 55 64  1  0  0  0  0
 56 75  1  0  0  0  0
 57 76  1  0  0  0  0
 58 59  1  0  0  0  0
 59 60  1  0  0  0  0
 60 83  1  0  0  0  0
 61 64  1  0  0  0  0
 61 74  1  0  0  0  0
 62 76  1  0  0  0  0
 63 75  1  0  0  0  0
 66 68  1  0  0  0  0
M  CHG  1  76   1
M  ISO  4  36 100  60 101  75 100  83 101
M  END
> <Batch ID>
0063

> <Smiles>
CNC(C)C(=O)NC(C(=O)N1Cc2cc([101O:1][101CH2:1]CCc3cnc(C(C)(C)[100N:0](C)[100C:0](=O)N4CCCC(n5nc(-c6ccc(Oc7ccc(F)cc7F)cc6)c(C(N)=O)c5N)C4)nc3C)ccc2CC1C(=O)NC1CCCc2ccccc21)C(C)(C)C

> <Shape>
0.162

> <Color>
0.094

> <Negative vol penalty>
0.000

$$$$

  -OEChem-04052318023D

 86 94  0     1  0  0  0  0  0999 V2000
  -24.5766  -38.3495   20.1890 C   0  0  0  0  0  0  0  0  0  0  0  0
  -25.2362  -37.3575   19.4706 C   0  0  0  0  0  0  0  0  0  0  0  0
  -22.7716  -16.0272   22.3267 C   0  0  0  0  0  0  0  0  0  0  0  0
  -21.9362  -15.5383   20.1131 C   0  0  0  0  0  0  0  0  0  0  0  0
  -24.2476  -38.1376   21.5272 C   0  0  0  0  0  0  0  0  0  0  0  0
  -25.5683  -36.1533   20.0903 C   0  0  0  0  0  0  0  0  0  0  0  0
  -26.2909  -29.1657   18.6873 C   0  0  0  0  0  0  0  0  0  0  0  0
  -21.6471  -16.8133   22.5776 C   0  0  0  0  0  0  0  0  0  0  0  0
  -20.8115  -16.3244   20.3640 C   0  0  0  0  0  0  0  0  0  0  0  0
  -27.2107  -28.1279   18.8306 C   0  0  0  0  0  0  0  0  0  0  0  0
  -20.0332  -19.6141   20.4192 C   0  0  0  0  0  0  0  0  0  0  0  0
  -19.6289  -20.5033   19.4235 C   0  0  0  0  0  0  0  0  0  0  0  0
  -26.5218  -27.8423   21.1248 C   0  0  0  0  0  0  0  0  0  0  0  0
  -17.4913  -19.3849   19.2928 C   0  0  0  0  0  0  0  0  0  0  0  0
  -31.7387  -19.3957   17.0288 C   0  0  0  0  0  0  0  0  0  0  0  0
  -22.9163  -15.3898   21.0944 C   0  0  0  0  0  0  0  0  0  0  0  0
  -24.2253  -13.2003   21.0830 C   0  0  0  0  0  0  0  0  0  0  0  0
  -24.5672  -36.9264   22.1610 C   0  0  0  0  0  0  0  0  0  0  0  0
  -25.4859  -29.5576   19.7666 C   0  0  0  0  0  0  0  0  0  0  0  0
  -25.2445  -35.9255   21.4386 C   0  0  0  0  0  0  0  0  0  0  0  0
  -25.5908  -28.8837   20.9918 C   0  0  0  0  0  0  0  0  0  0  0  0
  -20.6670  -16.9619   21.5962 C   0  0  0  0  0  0  0  0  0  0  0  0
  -27.3283  -27.4679   20.0503 C   0  0  0  0  0  0  0  0  0  0  0  0
  -19.1667  -18.6102   20.8516 C   0  0  0  0  0  0  0  0  0  0  0  0
  -18.3579  -20.3887   18.8603 C   0  0  0  0  0  0  0  0  0  0  0  0
  -17.8957  -18.4956   20.2884 C   0  0  0  0  0  0  0  0  0  0  0  0
  -24.0780  -14.5781   20.8345 C   0  0  0  0  0  0  0  0  0  0  0  0
  -30.5862  -19.7787   17.6547 C   0  0  0  0  0  0  0  0  0  0  0  0
  -25.5010  -12.9104   20.6646 C   0  0  0  0  0  0  0  0  0  0  0  0
  -31.3565  -17.9770   18.6846 C   0  0  0  0  0  0  0  0  0  0  0  0
  -23.2924  -12.2660   21.6419 C   0  0  0  0  0  0  0  0  0  0  0  0
  -25.1345  -32.2321   21.4479 C   0  0  0  0  0  0  0  0  0  0  0  0
  -22.6944  -30.5901   22.8161 C   0  0  0  0  0  0  0  0  0  0  0  0
  -21.3049  -27.5681   23.5800 C   0  0  0  0  0  0  0  0  0  0  0  0
  -30.3564  -16.1940   20.2141 C   0  0  0  0  0  0  0  0  0  0  0  0
  -24.2334  -36.7617   23.6225 C   0  0  0  0  0  0  0  0  0  0  0  0
  -24.4798  -30.6612   19.5879 C   0  0  0  0  0  0  0  0  0  0  0  0
  -24.7355  -29.2526   22.1754 C   0  0  0  0  0  0  0  0  0  0  0  0
  -24.2872  -35.3128   24.1000 C   0  0  0  0  0  0  0  0  0  0  0  0
  -28.8443  -14.3138   17.5569 C   0  0  0  0  0  0  0  0  0  0  0  0
  -25.5585  -34.6332   23.6013 C   0  0  0  0  0  0  0  0  0  0  0  0
  -27.4461  -14.0587   18.1181 C   0  0  0  0  0  0  0  0  0  0  0  0
  -29.3647  -15.7012   17.9310 C   0  0  0  0  0  0  0  0  0  0  0  0
  -27.9326  -15.7247   19.9532 C   0  0  0  0  0  0  0  0  0  0  0  0
  -25.5996  -34.5962   22.0689 C   0  0  1  0  0  0  0  0  0  0  0  0
  -24.0735  -31.3181   20.9035 C   0  0  1  0  0  0  0  0  0  0  0  0
  -27.4055  -14.3169   19.6345 C   0  0  1  0  0  0  0  0  0  0  0  0
  -19.3266  -26.5455   24.7366 C   0  0  0  0  0  0  0  0  0  0  0  0
  -30.8001  -21.8625   19.5202 C   0  0  0  0  0  0  0  0  0  0  0  0
  -30.2160  -21.7280   16.1451 C   0  0  0  0  0  0  0  0  0  0  0  0
  -28.2145  -20.5019   16.9318 C   0  0  0  0  0  0  0  0  0  0  0  0
  -23.9559  -31.2169   25.5227 C   0  0  0  0  0  0  0  0  0  0  0  0
  -22.5261  -29.4234   26.5262 C   0  0  0  0  0  0  0  0  0  0  0  0
  -21.4635  -31.4140   25.4627 C   0  0  0  0  0  0  0  0  0  0  0  0
  -29.2586  -18.9079   19.6033 C   0  0  0  0  0  0  0  0  0  0  0  0
  -32.8359  -16.5263   20.1583 C   0  0  0  0  0  0  0  0  0  0  0  0
  -20.3825  -26.2557   21.0928 C   0  0  0  0  0  0  0  0  0  0  0  0
  -28.9013  -24.2707   19.4608 C   0  0  0  0  0  0  0  0  0  0  0  0
  -29.2182  -23.3828   18.2534 C   0  0  0  0  0  0  0  0  0  0  0  0
  -28.5242  -25.6829   19.0307 C   0  0  0  0  0  0  0  0  0  1  0  0
  -22.5602  -29.6658   24.0021 C   0  0  1  0  0  0  0  0  0  0  0  0
  -19.8922  -27.0381   23.4137 C   0  0  2  0  0  0  0  0  0  0  0  0
  -29.5424  -21.9115   18.6332 C   0  0  1  0  0  0  0  0  0  0  0  0
  -29.6302  -20.9625   17.3627 C   0  0  0  0  0  0  0  0  0  0  0  0
  -22.6441  -30.4241   25.3569 C   0  0  0  0  0  0  0  0  0  0  0  0
  -25.1728  -15.1256   20.2998 N   0  0  0  0  0  0  0  0  0  0  0  0
  -30.3734  -18.8831   18.6749 N   0  0  0  0  0  0  0  0  0  0  0  0
  -26.0202  -14.0865   20.2090 N   0  0  0  0  0  0  0  0  0  0  0  0
  -32.1938  -18.2786   17.6870 N   0  3  0  0  0  0  0  0  0  0  0  0
  -23.7711  -30.3424   21.9527 N   0  0  0  0  0  0  0  0  0  0  0  0
  -29.2632  -15.9270   19.3766 N   0  0  0  0  0  0  0  0  0  0  0  0
  -26.2182  -11.7668   20.6458 N   0  0  0  0  0  0  0  0  0  0  0  0
  -22.0251  -12.7313   22.0183 N   0  0  0  0  0  0  0  0  0  0  0  0
  -24.7358  -33.5500   21.5652 N   0  0  0  0  0  0  0  0  0  0  0  0
  -21.3169  -28.9282   23.8062 N   0  0  0  0  0  0  0  0  0  0  0  0
  -31.5034  -16.8584   19.6073 N   0  0  0  0  0  0  0  0  0  0  0  0
  -19.8743  -25.9062   22.4443 N   0  3  0  0  0  0  0  0  0  0  0  0
  -23.5800  -11.0578   21.8181 O   0  0  0  0  0  0  0  0  0  0  0  0
  -26.2331  -31.7753   21.7413 O   0  0  0  0  0  0  0  0  0  0  0  0
  -21.8701  -31.4939   22.6574 O   0  0  0  0  0  0  0  0  0  0  0  0
  -22.2983  -26.8469   23.5193 O   0  0  0  0  0  0  0  0  0  0  0  0
  -30.3924  -15.8681   21.4002 O   0  0  0  0  0  0  0  0  0  0  0  0
  -19.5693  -17.7286   21.8407 O   0  0  0  0  0  0  0  0  0  0  0  0
  -28.2258  -26.4550   20.1932 O   0  0  0  0  0  0  0  0  0  1  0  0
  -17.9692  -21.2437   17.9052 F   0  0  0  0  0  0  0  0  0  0  0  0
  -17.0584  -17.5340   20.7006 F   0  0  0  0  0  0  0  0  0  0  0  0
  1  2  1  0  0  0  0
  1  5  2  0  0  0  0
  2  6  2  0  0  0  0
  3  8  2  0  0  0  0
  3 16  1  0  0  0  0
  4  9  1  0  0  0  0
  4 16  2  0  0  0  0
  5 18  1  0  0  0  0
  6 20  1  0  0  0  0
  7 10  2  0  0  0  0
  7 19  1  0  0  0  0
  8 22  1  0  0  0  0
  9 22  2  0  0  0  0
 10 23  1  0  0  0  0
 11 12  2  0  0  0  0
 11 24  1  0  0  0  0
 12 25  1  0  0  0  0
 13 21  1  0  0  0  0
 13 23  2  0  0  0  0
 14 25  2  0  0  0  0
 14 26  1  0  0  0  0
 15 28  2  0  0  0  0
 15 69  1  0  0  0  0
 16 27  1  0  0  0  0
 17 27  1  0  0  0  0
 17 29  2  0  0  0  0
 17 31  1  0  0  0  0
 18 20  2  0  0  0  0
 18 36  1  0  0  0  0
 19 21  2  0  0  0  0
 19 37  1  0  0  0  0
 20 45  1  0  0  0  0
 21 38  1  0  0  0  0
 22 83  1  0  0  0  0
 23 84  1  0  0  0  0
 24 26  2  0  0  0  0
 24 83  1  0  0  0  0
 25 85  1  0  0  0  0
 26 86  1  0  0  0  0
 27 66  2  0  0  0  0
 28 64  1  0  0  0  0
 28 67  1  0  0  0  0
 29 68  1  0  0  0  0
 29 72  1  0  0  0  0
 30 67  1  0  0  0  0
 30 69  2  0  0  0  0
 30 76  1  0  0  0  0
 31 73  1  0  0  0  0
 31 78  2  0  0  0  0
 32 46  1  0  0  0  0
 32 74  1  0  0  0  0
 32 79  2  0  0  0  0
 33 61  1  0  0  0  0
 33 70  1  0  0  0  0
 33 80  2  0  0  0  0
 34 62  1  0  0  0  0
 34 75  1  0  0  0  0
 34 81  2  0  0  0  0
 35 71  1  0  0  0  0
 35 76  1  0  0  0  0
 35 82  2  0  0  0  0
 36 39  1  0  0  0  0
 37 46  1  0  0  0  0
 38 70  1  0  0  0  0
 39 41  1  0  0  0  0
 40 42  1  0  0  0  0
 40 43  1  0  0  0  0
 41 45  1  0  0  0  0
 42 47  1  0  0  0  0
 43 71  1  0  0  0  0
 44 47  1  0  0  0  0
 44 71  1  0  0  0  0
 45 74  1  0  0  0  0
 46 70  1  0  0  0  0
 47 68  1  0  0  0  0
 48 62  1  0  0  0  0
 49 63  1  0  0  0  0
 50 64  1  0  0  0  0
 51 64  1  0  0  0  0
 52 65  1  0  0  0  0
 53 65  1  0  0  0  0
 54 65  1  0  0  0  0
 55 67  1  0  0  0  0
 56 76  1  0  0  0  0
 57 77  1  0  0  0  0
 58 59  1  0  0  0  0
 58 60  1  0  0  0  0
 59 63  1  0  0  0  0
 60 84  1  0  0  0  0
 61 65  1  0  0  0  0
 61 75  1  0  0  0  0
 62 77  1  0  0  0  0
 63 64  1  0  0  0  0
 66 68  1  0  0  0  0
M  CHG  2  69   1  77   1
M  ISO  4  35 100  60 101  76 100  84 101
M  END
> <Batch ID>
0063

> <Smiles>
CNC(C)C(=O)NC(C(=O)N1Cc2cc([101O:1][101CH2:1]CCC(C)C(C)(C)c3cnc([100N:0](C)[100C:0](=O)N4CCCC(n5nc(-c6ccc(Oc7ccc(F)cc7F)cc6)c(C(N)=O)c5N)C4)n3C)ccc2CC1C(=O)NC1CCCc2ccccc21)C(C)(C)C

> <Shape>
0.256

> <Color>
0.110

> <Negative vol penalty>
0.000

$$$$

  -OEChem-04052318023D

 85 93  0     1  0  0  0  0  0999 V2000
  -26.1963  -34.5506   25.2621 C   0  0  0  0  0  0  0  0  0  0  0  0
  -26.7340  -33.3951   24.7044 C   0  0  0  0  0  0  0  0  0  0  0  0
  -26.0752  -13.8143   21.6919 C   0  0  0  0  0  0  0  0  0  0  0  0
  -25.5018  -12.9670   19.5032 C   0  0  0  0  0  0  0  0  0  0  0  0
  -24.8643  -34.5701   25.6736 C   0  0  0  0  0  0  0  0  0  0  0  0
  -25.9401  -32.2579   24.5588 C   0  0  0  0  0  0  0  0  0  0  0  0
  -26.4944  -30.0690   20.0260 C   0  0  0  0  0  0  0  0  0  0  0  0
  -25.8331  -12.5558   22.2425 C   0  0  0  0  0  0  0  0  0  0  0  0
  -25.2597  -11.7085   20.0538 C   0  0  0  0  0  0  0  0  0  0  0  0
  -27.6339  -29.2898   19.8302 C   0  0  0  0  0  0  0  0  0  0  0  0
  -22.7911  -10.1800   21.7859 C   0  0  0  0  0  0  0  0  0  0  0  0
  -21.6356   -9.5089   21.3857 C   0  0  0  0  0  0  0  0  0  0  0  0
  -26.3312  -27.2975   20.2214 C   0  0  0  0  0  0  0  0  0  0  0  0
  -22.9844   -7.6927   20.5374 C   0  0  0  0  0  0  0  0  0  0  0  0
  -27.0416  -22.2862   18.9428 C   0  0  0  0  0  0  0  0  0  0  0  0
  -27.7799  -22.6506   21.4823 C   0  0  0  0  0  0  0  0  0  0  0  0
  -25.9095  -14.0199   20.3222 C   0  0  0  0  0  0  0  0  0  0  0  0
  -27.3786  -15.8057   19.2451 C   0  0  0  0  0  0  0  0  0  0  0  0
  -24.0511  -33.4357   25.5241 C   0  0  0  0  0  0  0  0  0  0  0  0
  -25.2651  -29.4680   20.3322 C   0  0  0  0  0  0  0  0  0  0  0  0
  -24.5964  -32.2619   24.9699 C   0  0  0  0  0  0  0  0  0  0  0  0
  -25.1772  -28.0712   20.4180 C   0  0  0  0  0  0  0  0  0  0  0  0
  -25.4254  -11.5029   21.4235 C   0  0  0  0  0  0  0  0  0  0  0  0
  -27.5530  -27.9040   19.9308 C   0  0  0  0  0  0  0  0  0  0  0  0
  -24.0432   -9.6075   21.5618 C   0  0  0  0  0  0  0  0  0  0  0  0
  -21.7323   -8.2652   20.7615 C   0  0  0  0  0  0  0  0  0  0  0  0
  -24.1398   -8.3639   20.9376 C   0  0  0  0  0  0  0  0  0  0  0  0
  -26.1589  -15.3199   19.7529 C   0  0  0  0  0  0  0  0  0  0  0  0
  -26.1163  -22.2587   19.9630 C   0  0  0  0  0  0  0  0  0  0  0  0
  -28.7052  -22.6777   20.4622 C   0  0  0  0  0  0  0  0  0  0  0  0
  -27.0919  -17.0817   18.8253 C   0  0  0  0  0  0  0  0  0  0  0  0
  -28.6566  -15.1612   19.1602 C   0  0  0  0  0  0  0  0  0  0  0  0
  -24.6904  -22.0298   19.6965 C   0  0  0  0  0  0  0  0  0  0  0  0
  -23.2620  -29.5875   22.7973 C   0  0  0  0  0  0  0  0  0  0  0  0
  -21.3898  -27.7773   20.8633 C   0  0  0  0  0  0  0  0  0  0  0  0
  -21.1809  -25.6054   18.2391 C   0  0  0  0  0  0  0  0  0  0  0  0
  -22.6302  -33.4897   26.0271 C   0  0  0  0  0  0  0  0  0  0  0  0
  -24.0396  -30.3209   20.5140 C   0  0  0  0  0  0  0  0  0  0  0  0
  -23.8768  -27.3758   20.7245 C   0  0  0  0  0  0  0  0  0  0  0  0
  -21.7520  -32.3608   25.4938 C   0  0  0  0  0  0  0  0  0  0  0  0
  -22.6649  -19.4620   18.2663 C   0  0  0  0  0  0  0  0  0  0  0  0
  -22.4747  -31.0224   25.6086 C   0  0  0  0  0  0  0  0  0  0  0  0
  -23.4825  -18.1904   18.4999 C   0  0  0  0  0  0  0  0  0  0  0  0
  -22.8116  -20.4469   19.4235 C   0  0  0  0  0  0  0  0  0  0  0  0
  -25.0301  -19.5212   19.9947 C   0  0  0  0  0  0  0  0  0  0  0  0
  -23.7602  -31.0161   24.7726 C   0  0  1  0  0  0  0  0  0  0  0  0
  -22.9484  -29.6331   21.3286 C   0  0  1  0  0  0  0  0  0  0  0  0
  -24.9502  -18.5232   18.8278 C   0  0  1  0  0  0  0  0  0  0  0  0
  -19.5196  -24.2692   16.9154 C   0  0  0  0  0  0  0  0  0  0  0  0
  -30.6514  -21.7694   21.7067 C   0  0  0  0  0  0  0  0  0  0  0  0
  -31.1080  -22.8369   19.5181 C   0  0  0  0  0  0  0  0  0  0  0  0
  -21.1932  -25.7637   23.1473 C   0  0  0  0  0  0  0  0  0  0  0  0
  -20.3611  -24.0764   21.4954 C   0  0  0  0  0  0  0  0  0  0  0  0
  -19.0520  -26.1576   21.9166 C   0  0  0  0  0  0  0  0  0  0  0  0
  -21.8599  -27.0263   15.7333 C   0  0  0  0  0  0  0  0  0  0  0  0
  -28.7323  -25.9055   20.4513 C   0  0  0  0  0  0  0  0  0  1  0  0
  -21.2188  -26.2970   20.6213 C   0  0  1  0  0  0  0  0  0  0  0  0
  -20.2777  -25.5835   17.0192 C   0  0  2  0  0  0  0  0  0  0  0  0
  -30.4490  -24.2741   21.5034 C   0  0  2  0  0  0  0  0  0  0  0  0
  -30.1965  -22.9181   20.7650 C   0  0  0  0  0  0  0  0  0  0  0  0
  -20.4813  -25.5866   21.7913 C   0  0  0  0  0  0  0  0  0  0  0  0
  -30.1802  -25.5906   20.7715 C   0  0  0  0  0  0  0  0  0  0  0  0
  -26.4688  -22.4407   21.2511 N   0  0  0  0  0  0  0  0  0  0  0  0
  -28.3527  -22.4961   19.1741 N   0  0  0  0  0  0  0  0  0  0  0  0
  -25.1709  -16.2144   19.6650 N   0  0  0  0  0  0  0  0  0  0  0  0
  -25.7694  -17.2751   19.0971 N   0  0  0  0  0  0  0  0  0  0  0  0
  -24.2226  -20.7135   19.7002 N   0  0  0  0  0  0  0  0  0  0  0  0
  -22.7080  -28.2536   20.9003 N   0  0  0  0  0  0  0  0  0  0  0  0
  -27.8446  -18.0459   18.2541 N   0  0  0  0  0  0  0  0  0  0  0  0
  -28.7761  -13.8489   19.6377 N   0  0  0  0  0  0  0  0  0  0  0  0
  -23.4508  -30.8303   23.3711 N   0  0  0  0  0  0  0  0  0  0  0  0
  -20.5527  -26.1689   19.3296 N   0  0  0  0  0  0  0  0  0  0  0  0
  -21.0809  -25.7621   15.7767 N   0  3  0  0  0  0  0  0  0  0  0  0
  -29.6666  -15.7379   18.6903 O   0  0  0  0  0  0  0  0  0  0  0  0
  -24.0112  -23.0313   19.4755 O   0  0  0  0  0  0  0  0  0  0  0  0
  -23.3263  -28.5050   23.3681 O   0  0  0  0  0  0  0  0  0  0  0  0
  -20.3905  -28.4861   21.0068 O   0  0  0  0  0  0  0  0  0  0  0  0
  -22.3276  -25.1633   18.2270 O   0  0  0  0  0  0  0  0  0  0  0  0
  -25.1893  -10.2747   21.9604 O   0  0  0  0  0  0  0  0  0  0  0  0
  -28.6638  -27.1412   19.7409 O   0  0  0  0  0  0  0  0  0  1  0  0
  -20.6225   -7.6202   20.3786 F   0  0  0  0  0  0  0  0  0  0  0  0
  -25.3399   -7.8083   20.7207 F   0  0  0  0  0  0  0  0  0  0  0  0
  -31.7820  -24.3137   21.8408 F   0  0  0  0  0  0  0  0  0  0  0  0
  -30.6648  -26.5958   21.5584 F   0  0  0  0  0  0  0  0  0  0  0  0
  -30.9059  -25.6338   19.6244 F   0  0  0  0  0  0  0  0  0  0  0  0
  1  2  1  0  0  0  0
  1  5  2  0  0  0  0
  2  6  2  0  0  0  0
  3  8  2  0  0  0  0
  3 17  1  0  0  0  0
  4  9  1  0  0  0  0
  4 17  2  0  0  0  0
  5 19  1  0  0  0  0
  6 21  1  0  0  0  0
  7 10  2  0  0  0  0
  7 20  1  0  0  0  0
  8 23  1  0  0  0  0
  9 23  2  0  0  0  0
 10 24  1  0  0  0  0
 11 12  2  0  0  0  0
 11 25  1  0  0  0  0
 12 26  1  0  0  0  0
 13 22  1  0  0  0  0
 13 24  2  0  0  0  0
 14 26  2  0  0  0  0
 14 27  1  0  0  0  0
 15 29  2  0  0  0  0
 15 64  1  0  0  0  0
 16 30  1  0  0  0  0
 16 63  2  0  0  0  0
 17 28  1  0  0  0  0
 18 28  1  0  0  0  0
 18 31  2  0  0  0  0
 18 32  1  0  0  0  0
 19 21  2  0  0  0  0
 19 37  1  0  0  0  0
 20 22  2  0  0  0  0
 20 38  1  0  0  0  0
 21 46  1  0  0  0  0
 22 39  1  0  0  0  0
 23 79  1  0  0  0  0
 24 80  1  0  0  0  0
 25 27  2  0  0  0  0
 25 79  1  0  0  0  0
 26 81  1  0  0  0  0
 27 82  1  0  0  0  0
 28 65  2  0  0  0  0
 29 33  1  0  0  0  0
 29 63  1  0  0  0  0
 30 60  1  0  0  0  0
 30 64  2  0  0  0  0
 31 66  1  0  0  0  0
 31 69  1  0  0  0  0
 32 70  1  0  0  0  0
 32 74  2  0  0  0  0
 33 67  1  0  0  0  0
 33 75  2  0  0  0  0
 34 47  1  0  0  0  0
 34 71  1  0  0  0  0
 34 76  2  0  0  0  0
 35 57  1  0  0  0  0
 35 68  1  0  0  0  0
 35 77  2  0  0  0  0
 36 58  1  0  0  0  0
 36 72  1  0  0  0  0
 36 78  2  0  0  0  0
 37 40  1  0  0  0  0
 38 47  1  0  0  0  0
 39 68  1  0  0  0  0
 40 42  1  0  0  0  0
 41 43  1  0  0  0  0
 41 44  1  0  0  0  0
 42 46  1  0  0  0  0
 43 48  1  0  0  0  0
 44 67  1  0  0  0  0
 45 48  1  0  0  0  0
 45 67  1  0  0  0  0
 46 71  1  0  0  0  0
 47 68  1  0  0  0  0
 48 66  1  0  0  0  0
 49 58  1  0  0  0  0
 50 60  1  0  0  0  0
 51 60  1  0  0  0  0
 52 61  1  0  0  0  0
 53 61  1  0  0  0  0
 54 61  1  0  0  0  0
 55 73  1  0  0  0  0
 56 62  1  0  0  0  0
 56 80  1  0  0  0  0
 57 61  1  0  0  0  0
 57 72  1  0  0  0  0
 58 73  1  0  0  0  0
 59 60  1  0  0  0  0
 59 62  1  0  0  0  0
 59 83  1  0  0  0  0
 62 84  1  0  0  0  0
 62 85  1  0  0  0  0
 65 66  1  0  0  0  0
M  CHG  1  73   1
M  ISO  4  29 100  33 100  56 101  80 101
M  END
> <Batch ID>
0063

> <Smiles>
CNC(C)C(=O)NC(C(=O)N1Cc2cc([101O:1][101CH2:1]C(F)(F)C(F)C(C)(C)c3cn[100c:0]([100C:0](=O)N4CCCC(n5nc(-c6ccc(Oc7ccc(F)cc7F)cc6)c(C(N)=O)c5N)C4)cn3)ccc2CC1C(=O)NC1CCCc2ccccc21)C(C)(C)C

> <Shape>
0.257

> <Color>
0.094

> <Negative vol penalty>
0.000

$$$$

  -OEChem-04052318023D

 88 97  0     1  0  0  0  0  0999 V2000
  -16.2945  -30.4866   24.2576 C   0  0  0  0  0  0  0  0  0  0  0  0
  -16.5132  -29.2335   24.8208 C   0  0  0  0  0  0  0  0  0  0  0  0
  -29.1263  -23.7154   19.8959 C   0  0  0  0  0  0  0  0  0  0  0  0
  -29.4906  -22.7735   17.7011 C   0  0  0  0  0  0  0  0  0  0  0  0
  -16.9775  -30.8582   23.1002 C   0  0  0  0  0  0  0  0  0  0  0  0
  -17.4142  -28.3507   24.2264 C   0  0  0  0  0  0  0  0  0  0  0  0
  -22.1081  -23.2017   25.8913 C   0  0  0  0  0  0  0  0  0  0  0  0
  -22.9998  -15.7883   23.6523 C   0  0  0  0  0  0  0  0  0  0  0  0
  -29.6168  -24.9428   19.4505 C   0  0  0  0  0  0  0  0  0  0  0  0
  -29.9810  -24.0010   17.2557 C   0  0  0  0  0  0  0  0  0  0  0  0
  -22.4244  -21.8847   25.5607 C   0  0  0  0  0  0  0  0  0  0  0  0
  -30.9925  -26.9853   15.4421 C   0  0  0  0  0  0  0  0  0  0  0  0
  -30.5468  -27.4526   14.2058 C   0  0  0  0  0  0  0  0  0  0  0  0
  -22.5357  -17.0124   24.1207 C   0  0  0  0  0  0  0  0  0  0  0  0
  -23.6064  -22.6651   23.6080 C   0  0  0  0  0  0  0  0  0  0  0  0
  -28.2728  -27.4426   15.0219 C   0  0  0  0  0  0  0  0  0  0  0  0
  -25.2232  -16.5954   23.8999 C   0  0  0  0  0  0  0  0  0  0  0  0
  -27.0759  -14.1514   21.5140 C   0  0  0  0  0  0  0  0  0  0  0  0
  -29.0633  -22.6306   19.0212 C   0  0  0  0  0  0  0  0  0  0  0  0
  -27.2218  -20.9180   19.4495 C   0  0  0  0  0  0  0  0  0  0  0  0
  -17.8945  -29.9832   22.4967 C   0  0  0  0  0  0  0  0  0  0  0  0
  -22.5300  -24.2613   25.0754 C   0  0  0  0  0  0  0  0  0  0  0  0
  -18.1090  -28.7104   23.0591 C   0  0  0  0  0  0  0  0  0  0  0  0
  -23.2963  -23.9948   23.9318 C   0  0  0  0  0  0  0  0  0  0  0  0
  -24.3677  -15.5678   23.5369 C   0  0  0  0  0  0  0  0  0  0  0  0
  -30.0441  -25.0857   18.1304 C   0  0  0  0  0  0  0  0  0  0  0  0
  -23.1712  -21.6160   24.4174 C   0  0  0  0  0  0  0  0  0  0  0  0
  -30.0784  -26.7465   16.4683 C   0  0  0  0  0  0  0  0  0  0  0  0
  -29.1869  -27.6813   13.9956 C   0  0  0  0  0  0  0  0  0  0  0  0
  -28.7185  -26.9752   16.2582 C   0  0  0  0  0  0  0  0  0  0  0  0
  -28.5572  -21.3622   19.4808 C   0  0  0  0  0  0  0  0  0  0  0  0
  -23.4732  -17.9754   24.4578 C   0  0  0  0  0  0  0  0  0  0  0  0
  -25.7571  -14.4613   21.7326 C   0  0  0  0  0  0  0  0  0  0  0  0
  -27.2659  -19.6588   19.9963 C   0  0  0  0  0  0  0  0  0  0  0  0
  -26.0465  -21.5840   18.9692 C   0  0  0  0  0  0  0  0  0  0  0  0
  -21.0572  -26.5051   23.3725 C   0  0  0  0  0  0  0  0  0  0  0  0
  -29.7075  -14.6385   20.3490 C   0  0  0  0  0  0  0  0  0  0  0  0
  -24.0776  -27.6026   22.9310 C   0  0  0  0  0  0  0  0  0  0  0  0
  -27.4226  -26.9303   22.8575 C   0  0  0  0  0  0  0  0  0  0  0  0
  -18.5737  -30.4111   21.2199 C   0  0  0  0  0  0  0  0  0  0  0  0
  -22.2033  -25.6782   25.4602 C   0  0  0  0  0  0  0  0  0  0  0  0
  -23.7906  -25.0981   23.0336 C   0  0  0  0  0  0  0  0  0  0  0  0
  -19.7908  -29.5615   20.8632 C   0  0  0  0  0  0  0  0  0  0  0  0
  -30.9674  -17.2534   22.4501 C   0  0  0  0  0  0  0  0  0  0  0  0
  -19.4678  -28.0780   21.0098 C   0  0  0  0  0  0  0  0  0  0  0  0
  -30.3674  -18.5214   21.8441 C   0  0  0  0  0  0  0  0  0  0  0  0
  -31.3029  -16.2251   21.3745 C   0  0  0  0  0  0  0  0  0  0  0  0
  -29.5477  -17.1349   19.8868 C   0  0  0  0  0  0  0  0  0  0  0  0
  -19.0970  -27.7345   22.4576 C   0  0  1  0  0  0  0  0  0  0  0  0
  -22.2471  -26.6433   24.2795 C   0  0  1  0  0  0  0  0  0  0  0  0
  -29.1658  -18.1879   20.9422 C   0  0  2  0  0  0  0  0  0  0  0  0
  -24.9873  -13.2319   25.4572 C   0  0  0  0  0  0  0  0  0  0  0  0
  -28.6247  -13.1132   18.7131 C   0  0  0  0  0  0  0  0  0  0  0  0
  -29.8858  -27.3832   22.6989 C   0  0  0  0  0  0  0  0  0  0  0  0
  -23.8102  -13.2038   22.6105 C   0  0  0  0  0  0  0  0  0  0  0  0
  -23.5272  -27.5418   19.9304 C   0  0  0  0  0  0  0  0  0  0  0  0
  -25.9955  -27.7074   19.5449 C   0  0  0  0  0  0  0  0  0  0  0  0
  -24.7918  -29.5503   20.7186 C   0  0  0  0  0  0  0  0  0  0  0  0
  -27.6407  -27.4048   25.7706 C   0  0  0  0  0  0  0  0  0  0  0  0
  -23.0081  -19.3079   24.9670 C   0  0  0  0  0  0  0  0  0  1  0  0
  -25.7515  -13.5495   24.1715 C   0  0  0  0  0  0  0  0  0  0  0  0
  -28.5037  -14.4372   19.4634 C   0  0  1  0  0  0  0  0  0  0  0  0
  -25.1672  -27.3554   21.9158 C   0  0  1  0  0  0  0  0  0  0  0  0
  -28.6078  -27.6458   23.4803 C   0  0  2  0  0  0  0  0  0  0  0  0
  -24.8957  -14.2694   23.0389 C   0  0  2  0  0  0  0  0  0  0  0  0
  -24.8596  -28.0175   20.5431 C   0  0  0  0  0  0  0  0  0  0  0  0
  -24.8097  -17.7979   24.3590 N   0  0  0  0  0  0  0  0  0  0  0  0
  -29.3890  -20.4588   20.0060 N   0  0  0  0  0  0  0  0  0  0  0  0
  -25.2192  -15.0059   20.5997 N   0  0  0  0  0  0  0  0  0  0  0  0
  -26.1710  -15.0442   19.6736 N   0  0  0  0  0  0  0  0  0  0  0  0
  -27.2834  -14.5313   20.2238 N   0  0  0  0  0  0  0  0  0  0  0  0
  -28.5741  -19.4343   20.3099 N   0  0  0  0  0  0  0  0  0  0  0  0
  -23.4399  -26.4664   23.4488 N   0  0  0  0  0  0  0  0  0  0  0  0
  -30.1422  -15.9523   20.5251 N   0  0  0  0  0  0  0  0  0  0  0  0
  -26.3129  -18.7329   20.2347 N   0  0  0  0  0  0  0  0  0  0  0  0
  -26.1795  -22.8743   18.4384 N   0  0  0  0  0  0  0  0  0  0  0  0
  -20.2867  -27.6482   23.2772 N   0  0  0  0  0  0  0  0  0  0  0  0
  -26.4097  -27.8075   22.5323 N   0  0  0  0  0  0  0  0  0  0  0  0
  -28.8118  -27.1858   24.8831 N   0  3  0  0  0  0  0  0  0  0  0  0
  -24.9094  -21.0572   19.0245 O   0  0  0  0  0  0  0  0  0  0  0  0
  -20.8540  -25.4407   22.8003 O   0  0  0  0  0  0  0  0  0  0  0  0
  -30.2423  -13.6564   20.8703 O   0  0  0  0  0  0  0  0  0  0  0  0
  -23.8072  -28.7609   23.2579 O   0  0  0  0  0  0  0  0  0  0  0  0
  -27.3993  -25.7152   22.6741 O   0  0  0  0  0  0  0  0  0  0  0  0
  -30.5225  -26.2833   17.6955 O   0  0  0  0  0  0  0  0  0  0  0  0
  -23.4808  -20.3314   24.0921 O   0  0  0  0  0  0  0  0  0  1  0  0
  -28.7592  -28.1315   12.8088 F   0  0  0  0  0  0  0  0  0  0  0  0
  -27.8357  -26.7488   17.2406 F   0  0  0  0  0  0  0  0  0  0  0  0
  1  2  1  0  0  0  0
  1  5  2  0  0  0  0
  2  6  2  0  0  0  0
  3  9  2  0  0  0  0
  3 19  1  0  0  0  0
  4 10  1  0  0  0  0
  4 19  2  0  0  0  0
  5 21  1  0  0  0  0
  6 23  1  0  0  0  0
  7 11  2  0  0  0  0
  7 22  1  0  0  0  0
  8 14  2  0  0  0  0
  8 25  1  0  0  0  0
  9 26  1  0  0  0  0
 10 26  2  0  0  0  0
 11 27  1  0  0  0  0
 12 13  2  0  0  0  0
 12 28  1  0  0  0  0
 13 29  1  0  0  0  0
 14 32  1  0  0  0  0
 15 24  1  0  0  0  0
 15 27  2  0  0  0  0
 16 29  2  0  0  0  0
 16 30  1  0  0  0  0
 17 25  2  0  0  0  0
 17 67  1  0  0  0  0
 18 33  2  0  0  0  0
 18 71  1  0  0  0  0
 19 31  1  0  0  0  0
 20 31  1  0  0  0  0
 20 34  2  0  0  0  0
 20 35  1  0  0  0  0
 21 23  2  0  0  0  0
 21 40  1  0  0  0  0
 22 24  2  0  0  0  0
 22 41  1  0  0  0  0
 23 49  1  0  0  0  0
 24 42  1  0  0  0  0
 25 65  1  0  0  0  0
 26 85  1  0  0  0  0
 27 86  1  0  0  0  0
 28 30  2  0  0  0  0
 28 85  1  0  0  0  0
 29 87  1  0  0  0  0
 30 88  1  0  0  0  0
 31 68  2  0  0  0  0
 32 60  1  0  0  0  0
 32 67  2  0  0  0  0
 33 65  1  0  0  0  0
 33 69  1  0  0  0  0
 34 72  1  0  0  0  0
 34 75  1  0  0  0  0
 35 76  1  0  0  0  0
 35 80  2  0  0  0  0
 36 50  1  0  0  0  0
 36 77  1  0  0  0  0
 36 81  2  0  0  0  0
 37 62  1  0  0  0  0
 37 74  1  0  0  0  0
 37 82  2  0  0  0  0
 38 63  1  0  0  0  0
 38 73  1  0  0  0  0
 38 83  2  0  0  0  0
 39 64  1  0  0  0  0
 39 78  1  0  0  0  0
 39 84  2  0  0  0  0
 40 43  1  0  0  0  0
 41 50  1  0  0  0  0
 42 73  1  0  0  0  0
 43 45  1  0  0  0  0
 44 46  1  0  0  0  0
 44 47  1  0  0  0  0
 45 49  1  0  0  0  0
 46 51  1  0  0  0  0
 47 74  1  0  0  0  0
 48 51  1  0  0  0  0
 48 74  1  0  0  0  0
 49 77  1  0  0  0  0
 50 73  1  0  0  0  0
 51 72  1  0  0  0  0
 52 61  1  0  0  0  0
 53 62  1  0  0  0  0
 54 64  1  0  0  0  0
 55 65  1  0  0  0  0
 56 66  1  0  0  0  0
 57 66  1  0  0  0  0
 58 66  1  0  0  0  0
 59 79  1  0  0  0  0
 60 86  1  0  0  0  0
 61 65  1  0  0  0  0
 62 71  1  0  0  0  0
 63 66  1  0  0  0  0
 63 78  1  0  0  0  0
 64 79  1  0  0  0  0
 68 72  1  0  0  0  0
 69 70  2  0  0  0  0
 70 71  1  0  0  0  0
M  CHG  1  79   1
M  ISO  4  37 100  60 101  62 100  86 101
M  END
> <Batch ID>
0063

> <Smiles>
CCC(C)(c1ccc([101CH2:1][101O:1]c2ccc3c(c2)CN(C(=O)C(NC(=O)C(C)NC)C(C)(C)C)C(C(=O)NC2CCCc4ccccc42)C3)nc1)c1cn([100CH:0](C)[100C:0](=O)N2CCCC(n3nc(-c4ccc(Oc5ccc(F)cc5F)cc4)c(C(N)=O)c3N)C2)nn1

> <Shape>
0.223

> <Color>
0.069

> <Negative vol penalty>
0.000

$$$$

  -OEChem-04052318023D

 94102  0     1  0  0  0  0  0999 V2000
  -26.7169  -18.6695   26.5573 C   0  0  0  0  0  0  0  0  0  0  0  0
  -26.6550  -19.4461   25.4047 C   0  0  0  0  0  0  0  0  0  0  0  0
  -22.5984  -10.2045   20.4147 C   0  0  0  0  0  0  0  0  0  0  0  0
  -23.2954  -10.5304   22.7050 C   0  0  0  0  0  0  0  0  0  0  0  0
  -25.5417  -18.2892   27.2042 C   0  0  0  0  0  0  0  0  0  0  0  0
  -25.4179  -19.8419   24.8977 C   0  0  0  0  0  0  0  0  0  0  0  0
  -25.3449  -24.7207   23.5423 C   0  0  0  0  0  0  0  0  0  0  0  0
  -21.6693   -9.2519   20.8330 C   0  0  0  0  0  0  0  0  0  0  0  0
  -22.3662   -9.5779   23.1233 C   0  0  0  0  0  0  0  0  0  0  0  0
  -25.9414  -25.0528   22.3267 C   0  0  0  0  0  0  0  0  0  0  0  0
  -20.4290   -6.9721   24.7564 C   0  0  0  0  0  0  0  0  0  0  0  0
  -20.8492   -6.0214   25.6865 C   0  0  0  0  0  0  0  0  0  0  0  0
  -23.7672  -25.1129   21.2833 C   0  0  0  0  0  0  0  0  0  0  0  0
  -22.5399   -5.2555   24.1400 C   0  0  0  0  0  0  0  0  0  0  0  0
  -28.5030  -21.7982   19.3916 C   0  0  0  0  0  0  0  0  0  0  0  0
  -23.4115  -10.8437   21.3507 C   0  0  0  0  0  0  0  0  0  0  0  0
  -24.1669  -13.2136   20.7845 C   0  0  0  0  0  0  0  0  0  0  0  0
  -24.2899  -18.6887   26.7102 C   0  0  0  0  0  0  0  0  0  0  0  0
  -23.9537  -24.5713   23.6352 C   0  0  0  0  0  0  0  0  0  0  0  0
  -24.2248  -19.4655   25.5377 C   0  0  0  0  0  0  0  0  0  0  0  0
  -23.1554  -24.7814   22.5018 C   0  0  0  0  0  0  0  0  0  0  0  0
  -21.5532   -8.9387   22.1873 C   0  0  0  0  0  0  0  0  0  0  0  0
  -25.1528  -25.2462   21.1963 C   0  0  0  0  0  0  0  0  0  0  0  0
  -21.0643   -7.0645   23.5179 C   0  0  0  0  0  0  0  0  0  0  0  0
  -27.1303  -21.7954   19.2503 C   0  0  0  0  0  0  0  0  0  0  0  0
  -21.9046   -5.1631   25.3783 C   0  0  0  0  0  0  0  0  0  0  0  0
  -22.1197   -6.2062   23.2098 C   0  0  0  0  0  0  0  0  0  0  0  0
  -24.3719  -11.8274   20.9192 C   0  0  0  0  0  0  0  0  0  0  0  0
  -26.4492  -20.9040   20.0539 C   0  0  0  0  0  0  0  0  0  0  0  0
  -25.3757  -13.6987   20.3485 C   0  0  0  0  0  0  0  0  0  0  0  0
  -28.3936  -20.1725   20.9766 C   0  0  0  0  0  0  0  0  0  0  0  0
  -22.9892  -13.9932   21.0314 C   0  0  0  0  0  0  0  0  0  0  0  0
  -21.9994  -22.1754   24.3729 C   0  0  0  0  0  0  0  0  0  0  0  0
  -19.7274  -24.4818   24.1714 C   0  0  0  0  0  0  0  0  0  0  0  0
  -18.7728  -27.5060   22.9104 C   0  0  0  0  0  0  0  0  0  0  0  0
  -30.9465  -13.8602   20.6414 C   0  0  0  0  0  0  0  0  0  0  0  0
  -23.0453  -18.2135   27.4171 C   0  0  0  0  0  0  0  0  0  0  0  0
  -23.3235  -24.2390   24.9599 C   0  0  0  0  0  0  0  0  0  0  0  0
  -21.6556  -24.6528   22.5534 C   0  0  0  0  0  0  0  0  0  0  0  0
  -21.7894  -18.9884   27.0264 C   0  0  0  0  0  0  0  0  0  0  0  0
  -29.4880  -11.2722   18.6788 C   0  0  0  0  0  0  0  0  0  0  0  0
  -21.7068  -19.1421   25.5110 C   0  0  0  0  0  0  0  0  0  0  0  0
  -28.0121  -11.2964   19.0802 C   0  0  0  0  0  0  0  0  0  0  0  0
  -30.4007  -11.5717   19.8659 C   0  0  0  0  0  0  0  0  0  0  0  0
  -28.6133  -12.8441   20.9885 C   0  0  0  0  0  0  0  0  0  0  0  0
  -22.9027  -19.9355   24.9709 C   0  0  1  0  0  0  0  0  0  0  0  0
  -21.9414  -23.6080   24.8225 C   0  0  1  0  0  0  0  0  0  0  0  0
  -27.6515  -12.6028   19.8125 C   0  0  2  0  0  0  0  0  0  0  0  0
  -16.8449  -29.1123   22.8909 C   0  0  0  0  0  0  0  0  0  0  0  0
  -18.2441  -22.6741   22.2112 C   0  0  0  0  0  0  0  0  0  0  0  0
  -16.8839  -24.6585   21.5184 C   0  0  0  0  0  0  0  0  0  0  0  0
  -16.7791  -23.8369   23.8713 C   0  0  0  0  0  0  0  0  0  0  0  0
  -31.7966  -16.6476   20.0672 C   0  0  0  0  0  0  0  0  0  0  0  0
  -32.5942  -15.6984   22.2189 C   0  0  0  0  0  0  0  0  0  0  0  0
  -29.5028  -16.7031   23.2270 C   0  0  0  0  0  0  0  0  0  0  0  0
  -31.4613  -18.2482   23.0351 C   0  0  0  0  0  0  0  0  0  0  0  0
  -20.3919  -29.6451   24.1601 C   0  0  0  0  0  0  0  0  0  0  0  0
  -28.8471  -17.2943   20.4455 C   0  0  0  0  0  0  0  0  0  0  0  0
  -29.0950  -19.2730   21.9368 C   0  0  0  0  0  0  0  0  0  0  0  0
  -26.0884  -24.9125   17.7142 C   0  0  0  0  0  0  0  0  0  0  0  0
  -25.0704  -25.1325   18.8222 C   0  0  0  0  0  0  0  0  0  1  0  0
  -27.1327  -23.8762   18.0987 C   0  0  0  0  0  0  0  0  0  0  0  0
  -18.8570  -25.0316   23.0671 C   0  0  1  0  0  0  0  0  0  0  0  0
  -18.1473  -28.7210   23.5716 C   0  0  2  0  0  0  0  0  0  0  0  0
  -24.9603  -20.8183   19.9853 C   0  0  0  0  0  0  0  0  0  0  0  0
  -17.7194  -24.0509   22.6653 C   0  0  0  0  0  0  0  0  0  0  0  0
  -31.3364  -16.1701   21.4610 C   0  0  0  0  0  0  0  0  0  0  0  0
  -30.5531  -17.2803   22.2596 C   0  0  0  0  0  0  0  0  0  0  0  0
  -29.1700  -20.9972   20.2482 N   0  0  0  0  0  0  0  0  0  0  0  0
  -25.6131  -11.4558   20.5948 N   0  0  0  0  0  0  0  0  0  0  0  0
  -27.0513  -20.0746   20.9314 N   0  0  0  0  0  0  0  0  0  0  0  0
  -26.1990  -12.6156   20.2519 N   0  0  0  0  0  0  0  0  0  0  0  0
  -21.0871  -24.3201   23.8700 N   0  0  0  0  0  0  0  0  0  0  0  0
  -30.0063  -12.8242   20.5153 N   0  0  0  0  0  0  0  0  0  0  0  0
  -25.8040  -14.9417   20.0420 N   0  0  0  0  0  0  0  0  0  0  0  0
  -21.8339  -13.3358   21.4758 N   0  0  0  0  0  0  0  0  0  0  0  0
  -22.7217  -21.3506   25.2140 N   0  0  0  0  0  0  0  0  0  0  0  0
  -18.3882  -26.3343   23.5272 N   0  0  0  0  0  0  0  0  0  0  0  0
  -30.4888  -15.0153   21.2635 N   0  0  0  0  0  0  0  0  0  0  0  0
  -19.0787  -29.8826   23.5074 N   0  3  0  0  0  0  0  0  0  0  0  0
  -29.7849  -18.1287   21.2792 N   0  3  1  0  0  0  0  0  0  0  0  0
  -22.9574  -15.2336   20.8474 O   0  0  0  0  0  0  0  0  0  0  0  0
  -21.4297  -21.8427   23.3402 O   0  0  0  0  0  0  0  0  0  0  0  0
  -19.2208  -24.2127   25.2634 O   0  0  0  0  0  0  0  0  0  0  0  0
  -19.5242  -27.5880   21.9413 O   0  0  0  0  0  0  0  0  0  0  0  0
  -32.1061  -13.7650   20.2253 O   0  0  0  0  0  0  0  0  0  0  0  0
  -20.6465   -8.0094   22.5958 O   0  0  0  0  0  0  0  0  0  0  0  0
  -25.7324  -25.5697   20.0084 O   0  0  0  0  0  0  0  0  0  1  0  0
  -26.5015  -22.6308   18.3640 O   0  0  0  0  0  0  0  0  0  0  0  0
  -22.3090   -4.2512   26.2723 F   0  0  0  0  0  0  0  0  0  0  0  0
  -22.7347   -6.2909   22.0221 F   0  0  0  0  0  0  0  0  0  0  0  0
  -24.4048  -21.6803   19.0838 F   0  0  0  0  0  0  0  0  0  0  0  0
  -24.5012  -19.5831   19.6283 F   0  0  0  0  0  0  0  0  0  0  0  0
  -24.3640  -21.1011   21.1794 F   0  0  0  0  0  0  0  0  0  0  0  0
  1  2  1  0  0  0  0
  1  5  2  0  0  0  0
  2  6  2  0  0  0  0
  3  8  2  0  0  0  0
  3 16  1  0  0  0  0
  4  9  1  0  0  0  0
  4 16  2  0  0  0  0
  5 18  1  0  0  0  0
  6 20  1  0  0  0  0
  7 10  2  0  0  0  0
  7 19  1  0  0  0  0
  8 22  1  0  0  0  0
  9 22  2  0  0  0  0
 10 23  1  0  0  0  0
 11 12  2  0  0  0  0
 11 24  1  0  0  0  0
 12 26  1  0  0  0  0
 13 21  1  0  0  0  0
 13 23  2  0  0  0  0
 14 26  2  0  0  0  0
 14 27  1  0  0  0  0
 15 25  1  0  0  0  0
 15 69  2  0  0  0  0
 16 28  1  0  0  0  0
 17 28  1  0  0  0  0
 17 30  2  0  0  0  0
 17 32  1  0  0  0  0
 18 20  2  0  0  0  0
 18 37  1  0  0  0  0
 19 21  2  0  0  0  0
 19 38  1  0  0  0  0
 20 46  1  0  0  0  0
 21 39  1  0  0  0  0
 22 87  1  0  0  0  0
 23 88  1  0  0  0  0
 24 27  2  0  0  0  0
 24 87  1  0  0  0  0
 25 29  2  0  0  0  0
 25 89  1  0  0  0  0
 26 90  1  0  0  0  0
 27 91  1  0  0  0  0
 28 70  2  0  0  0  0
 29 65  1  0  0  0  0
 29 71  1  0  0  0  0
 30 72  1  0  0  0  0
 30 75  1  0  0  0  0
 31 59  1  0  0  0  0
 31 69  1  0  0  0  0
 31 71  2  0  0  0  0
 32 76  1  0  0  0  0
 32 82  2  0  0  0  0
 33 47  1  0  0  0  0
 33 77  1  0  0  0  0
 33 83  2  0  0  0  0
 34 63  1  0  0  0  0
 34 73  1  0  0  0  0
 34 84  2  0  0  0  0
 35 64  1  0  0  0  0
 35 78  1  0  0  0  0
 35 85  2  0  0  0  0
 36 74  1  0  0  0  0
 36 79  1  0  0  0  0
 36 86  2  0  0  0  0
 37 40  1  0  0  0  0
 38 47  1  0  0  0  0
 39 73  1  0  0  0  0
 40 42  1  0  0  0  0
 41 43  1  0  0  0  0
 41 44  1  0  0  0  0
 42 46  1  0  0  0  0
 43 48  1  0  0  0  0
 44 74  1  0  0  0  0
 45 48  1  0  0  0  0
 45 74  1  0  0  0  0
 46 77  1  0  0  0  0
 47 73  1  0  0  0  0
 48 72  1  0  0  0  0
 49 64  1  0  0  0  0
 50 66  1  0  0  0  0
 51 66  1  0  0  0  0
 52 66  1  0  0  0  0
 53 67  1  0  0  0  0
 54 67  1  0  0  0  0
 55 68  1  0  0  0  0
 56 68  1  0  0  0  0
 57 80  1  0  0  0  0
 58 81  1  0  0  0  0
 59 81  1  0  0  0  0
 60 61  1  0  0  0  0
 60 62  1  0  0  0  0
 61 88  1  0  0  0  0
 62 89  1  0  0  0  0
 63 66  1  0  0  0  0
 63 78  1  0  0  0  0
 64 80  1  0  0  0  0
 65 92  1  0  0  0  0
 65 93  1  0  0  0  0
 65 94  1  0  0  0  0
 67 68  1  0  0  0  0
 67 79  1  0  0  0  0
 68 81  1  0  0  0  0
 70 72  1  0  0  0  0
M  CHG  2  80   1  81   1
M  ISO  4  36 100  61 101  79 100  88 101
M  END
> <Batch ID>
0063

> <Smiles>
CNC(C)C(=O)NC(C(=O)N1Cc2cc([101O:1][101CH2:1]CCOc3cnc(CN(C)C(C)(C)C(C)(C)[100NH:0][100C:0](=O)N4CCCC(n5nc(-c6ccc(Oc7ccc(F)cc7F)cc6)c(C(N)=O)c5N)C4)nc3C(F)(F)F)ccc2CC1C(=O)NC1CCCc2ccccc21)C(C)(C)C

> <Shape>
0.257

> <Color>
0.117

> <Negative vol penalty>
0.000

$$$$

  -OEChem-04052318023D

 82 90  0     1  0  0  0  0  0999 V2000
  -30.1208  -12.4250   19.8623 C   0  0  0  0  0  0  0  0  0  0  0  0
  -29.8960  -13.7399   19.4675 C   0  0  0  0  0  0  0  0  0  0  0  0
  -21.5101  -25.2895   22.4869 C   0  0  0  0  0  0  0  0  0  0  0  0
  -21.4812  -27.2379   21.0586 C   0  0  0  0  0  0  0  0  0  0  0  0
  -29.0414  -11.5711   20.0854 C   0  0  0  0  0  0  0  0  0  0  0  0
  -28.5916  -14.2014   19.2945 C   0  0  0  0  0  0  0  0  0  0  0  0
  -27.8572  -18.7680   21.3566 C   0  0  0  0  0  0  0  0  0  0  0  0
  -20.2176  -25.5869   22.9189 C   0  0  0  0  0  0  0  0  0  0  0  0
  -20.1886  -27.5353   21.4906 C   0  0  0  0  0  0  0  0  0  0  0  0
  -28.3335  -19.8705   20.6485 C   0  0  0  0  0  0  0  0  0  0  0  0
  -18.7279  -28.9422   24.1958 C   0  0  0  0  0  0  0  0  0  0  0  0
  -18.4456  -30.2660   24.5322 C   0  0  0  0  0  0  0  0  0  0  0  0
  -26.1070  -20.2940   19.8223 C   0  0  0  0  0  0  0  0  0  0  0  0
  -16.7368  -30.3354   22.8256 C   0  0  0  0  0  0  0  0  0  0  0  0
  -29.0438  -23.7330   17.3565 C   0  0  0  0  0  0  0  0  0  0  0  0
  -22.1419  -26.1150   21.5568 C   0  0  0  0  0  0  0  0  0  0  0  0
  -23.8438  -25.0087   20.0117 C   0  0  0  0  0  0  0  0  0  0  0  0
  -27.7229  -12.0252   19.9245 C   0  0  0  0  0  0  0  0  0  0  0  0
  -26.5019  -18.4132   21.2941 C   0  0  0  0  0  0  0  0  0  0  0  0
  -27.4936  -13.3525   19.5144 C   0  0  0  0  0  0  0  0  0  0  0  0
  -25.6155  -19.1881   20.5326 C   0  0  0  0  0  0  0  0  0  0  0  0
  -19.5569  -26.7098   22.4207 C   0  0  0  0  0  0  0  0  0  0  0  0
  -27.4589  -20.6320   19.8788 C   0  0  0  0  0  0  0  0  0  0  0  0
  -18.0147  -28.3149   23.1742 C   0  0  0  0  0  0  0  0  0  0  0  0
  -17.4500  -30.9627   23.8472 C   0  0  0  0  0  0  0  0  0  0  0  0
  -17.0191  -29.0115   22.4891 C   0  0  0  0  0  0  0  0  0  0  0  0
  -23.4773  -25.8086   21.1106 C   0  0  0  0  0  0  0  0  0  0  0  0
  -29.6200  -23.2285   18.4880 C   0  0  0  0  0  0  0  0  0  0  0  0
  -25.2171  -25.0314   20.0134 C   0  0  0  0  0  0  0  0  0  0  0  0
  -30.6854  -25.0935   17.9519 C   0  0  0  0  0  0  0  0  0  0  0  0
  -23.0169  -24.3080   19.0732 C   0  0  0  0  0  0  0  0  0  0  0  0
  -24.8948  -15.8646   20.2814 C   0  0  0  0  0  0  0  0  0  0  0  0
  -22.3574  -17.4521   21.5321 C   0  0  0  0  0  0  0  0  0  0  0  0
  -20.9749  -20.4308   22.4607 C   0  0  0  0  0  0  0  0  0  0  0  0
  -30.0381  -27.8047   20.4740 C   0  0  0  0  0  0  0  0  0  0  0  0
  -26.5896  -11.0519   20.1315 C   0  0  0  0  0  0  0  0  0  0  0  0
  -25.9990  -17.2370   22.0852 C   0  0  0  0  0  0  0  0  0  0  0  0
  -24.1477  -18.8614   20.4485 C   0  0  0  0  0  0  0  0  0  0  0  0
  -25.2290  -11.7258   20.2891 C   0  0  0  0  0  0  0  0  0  0  0  0
  -28.4775  -26.7295   23.4881 C   0  0  0  0  0  0  0  0  0  0  0  0
  -25.0348  -12.7938   19.2174 C   0  0  0  0  0  0  0  0  0  0  0  0
  -27.0665  -26.3343   23.0486 C   0  0  0  0  0  0  0  0  0  0  0  0
  -28.9906  -27.9421   22.7146 C   0  0  0  0  0  0  0  0  0  0  0  0
  -27.5215  -27.4151   20.8073 C   0  0  0  0  0  0  0  0  0  0  0  0
  -26.0925  -13.8973   19.3403 C   0  0  1  0  0  0  0  0  0  0  0  0
  -24.6955  -16.6628   21.5388 C   0  0  1  0  0  0  0  0  0  0  0  0
  -26.9828  -26.1628   21.5199 C   0  0  2  0  0  0  0  0  0  0  0  0
  -18.8728  -21.4145   23.4152 C   0  0  0  0  0  0  0  0  0  0  0  0
  -32.5800  -26.3654   16.7315 C   0  0  0  0  0  0  0  0  0  0  0  0
  -32.6354  -26.0691   19.1942 C   0  0  0  0  0  0  0  0  0  0  0  0
  -20.9801  -17.1252   18.8291 C   0  0  0  0  0  0  0  0  0  0  0  0
  -19.3540  -18.8985   19.5216 C   0  0  0  0  0  0  0  0  0  0  0  0
  -19.4934  -16.7656   20.8077 C   0  0  0  0  0  0  0  0  0  0  0  0
  -29.4350  -25.7456   15.9156 C   0  0  0  0  0  0  0  0  0  0  0  0
  -22.4036  -21.4787   24.8313 C   0  0  0  0  0  0  0  0  0  0  0  0
  -29.3140  -21.9999   19.2931 C   0  0  0  0  0  0  0  0  0  1  0  0
  -30.9429  -27.6189   18.1705 C   0  0  0  0  0  0  0  0  0  0  0  0
  -21.3613  -18.4578   21.0074 C   0  0  1  0  0  0  0  0  0  0  0  0
  -20.2521  -20.8547   23.7266 C   0  0  2  0  0  0  0  0  0  0  0  0
  -31.6473  -26.2232   17.9886 C   0  0  0  0  0  0  0  0  0  0  0  0
  -20.3251  -17.8171   20.0413 C   0  0  0  0  0  0  0  0  0  0  0  0
  -24.5325  -26.3032   21.7631 N   0  0  0  0  0  0  0  0  0  0  0  0
  -29.7224  -24.8872   17.0477 N   0  0  0  0  0  0  0  0  0  0  0  0
  -25.5757  -25.8128   21.0722 N   0  0  0  0  0  0  0  0  0  0  0  0
  -30.6329  -24.0901   18.8339 N   0  3  0  0  0  0  0  0  0  0  0  0
  -23.7054  -17.6980   21.2349 N   0  0  0  0  0  0  0  0  0  0  0  0
  -28.8853  -27.7143   21.2713 N   0  0  0  0  0  0  0  0  0  0  0  0
  -26.1408  -24.4590   19.2125 N   0  0  0  0  0  0  0  0  0  0  0  0
  -21.6252  -24.3914   19.2165 N   0  0  0  0  0  0  0  0  0  0  0  0
  -25.7605  -14.7971   20.4240 N   0  0  0  0  0  0  0  0  0  0  0  0
  -20.7708  -19.0966   22.1786 N   0  0  0  0  0  0  0  0  0  0  0  0
  -29.8514  -27.5684   19.1175 N   0  0  0  0  0  0  0  0  0  0  0  0
  -21.0335  -21.9020   24.4432 N   0  3  0  0  0  0  0  0  0  0  0  0
  -23.4980  -23.6146   18.1452 O   0  0  0  0  0  0  0  0  0  0  0  0
  -24.3056  -16.1922   19.2581 O   0  0  0  0  0  0  0  0  0  0  0  0
  -21.9550  -16.4877   22.1877 O   0  0  0  0  0  0  0  0  0  0  0  0
  -21.6497  -21.2066   21.7874 O   0  0  0  0  0  0  0  0  0  0  0  0
  -31.1523  -28.0708   20.9374 O   0  0  0  0  0  0  0  0  0  0  0  0
  -18.2956  -27.0002   22.8419 O   0  0  0  0  0  0  0  0  0  0  0  0
  -27.9213  -21.7082   19.1861 O   0  0  0  0  0  0  0  0  0  1  0  0
  -17.1780  -32.2335   24.1714 F   0  0  0  0  0  0  0  0  0  0  0  0
  -16.3298  -28.4138   21.5076 F   0  0  0  0  0  0  0  0  0  0  0  0
  1  2  1  0  0  0  0
  1  5  2  0  0  0  0
  2  6  2  0  0  0  0
  3  8  2  0  0  0  0
  3 16  1  0  0  0  0
  4  9  1  0  0  0  0
  4 16  2  0  0  0  0
  5 18  1  0  0  0  0
  6 20  1  0  0  0  0
  7 10  2  0  0  0  0
  7 19  1  0  0  0  0
  8 22  1  0  0  0  0
  9 22  2  0  0  0  0
 10 23  1  0  0  0  0
 11 12  2  0  0  0  0
 11 24  1  0  0  0  0
 12 25  1  0  0  0  0
 13 21  1  0  0  0  0
 13 23  2  0  0  0  0
 14 25  2  0  0  0  0
 14 26  1  0  0  0  0
 15 28  2  0  0  0  0
 15 63  1  0  0  0  0
 16 27  1  0  0  0  0
 17 27  1  0  0  0  0
 17 29  2  0  0  0  0
 17 31  1  0  0  0  0
 18 20  2  0  0  0  0
 18 36  1  0  0  0  0
 19 21  2  0  0  0  0
 19 37  1  0  0  0  0
 20 45  1  0  0  0  0
 21 38  1  0  0  0  0
 22 79  1  0  0  0  0
 23 80  1  0  0  0  0
 24 26  2  0  0  0  0
 24 79  1  0  0  0  0
 25 81  1  0  0  0  0
 26 82  1  0  0  0  0
 27 62  2  0  0  0  0
 28 56  1  0  0  0  0
 28 65  1  0  0  0  0
 29 64  1  0  0  0  0
 29 68  1  0  0  0  0
 30 60  1  0  0  0  0
 30 63  1  0  0  0  0
 30 65  2  0  0  0  0
 31 69  1  0  0  0  0
 31 74  2  0  0  0  0
 32 46  1  0  0  0  0
 32 70  1  0  0  0  0
 32 75  2  0  0  0  0
 33 58  1  0  0  0  0
 33 66  1  0  0  0  0
 33 76  2  0  0  0  0
 34 59  1  0  0  0  0
 34 71  1  0  0  0  0
 34 77  2  0  0  0  0
 35 67  1  0  0  0  0
 35 72  1  0  0  0  0
 35 78  2  0  0  0  0
 36 39  1  0  0  0  0
 37 46  1  0  0  0  0
 38 66  1  0  0  0  0
 39 41  1  0  0  0  0
 40 42  1  0  0  0  0
 40 43  1  0  0  0  0
 41 45  1  0  0  0  0
 42 47  1  0  0  0  0
 43 67  1  0  0  0  0
 44 47  1  0  0  0  0
 44 67  1  0  0  0  0
 45 70  1  0  0  0  0
 46 66  1  0  0  0  0
 47 64  1  0  0  0  0
 48 59  1  0  0  0  0
 49 60  1  0  0  0  0
 50 60  1  0  0  0  0
 51 61  1  0  0  0  0
 52 61  1  0  0  0  0
 53 61  1  0  0  0  0
 54 63  1  0  0  0  0
 55 73  1  0  0  0  0
 56 80  1  0  0  0  0
 57 60  1  0  0  0  0
 57 72  1  0  0  0  0
 58 61  1  0  0  0  0
 58 71  1  0  0  0  0
 59 73  1  0  0  0  0
 62 64  1  0  0  0  0
M  CHG  2  65   1  73   1
M  ISO  4  35 100  56 101  72 100  80 101
M  END
> <Batch ID>
0063

> <Smiles>
CNC(C)C(=O)NC(C(=O)N1Cc2cc([101O:1][101CH2:1]c3cn(C)c(C(C)(C)C[100NH:0][100C:0](=O)N4CCCC(n5nc(-c6ccc(Oc7ccc(F)cc7F)cc6)c(C(N)=O)c5N)C4)n3)ccc2CC1C(=O)NC1CCCc2ccccc21)C(C)(C)C

> <Shape>
0.222

> <Color>
0.053

> <Negative vol penalty>
0.000

$$$$

  -OEChem-04052318023D

 88 96  0     1  0  0  0  0  0999 V2000
  -32.5432  -30.3434   18.5739 C   0  0  0  0  0  0  0  0  0  0  0  0
  -31.6424  -29.2833   18.5641 C   0  0  0  0  0  0  0  0  0  0  0  0
  -23.1415   -9.8591   19.9467 C   0  0  0  0  0  0  0  0  0  0  0  0
  -23.6409   -9.9888   22.3070 C   0  0  0  0  0  0  0  0  0  0  0  0
  -33.4258  -30.5167   17.5086 C   0  0  0  0  0  0  0  0  0  0  0  0
  -31.6229  -28.3964   17.4882 C   0  0  0  0  0  0  0  0  0  0  0  0
  -31.3543  -23.5592   18.9627 C   0  0  0  0  0  0  0  0  0  0  0  0
  -22.3834   -8.7098   20.1702 C   0  0  0  0  0  0  0  0  0  0  0  0
  -22.8827   -8.8394   22.5305 C   0  0  0  0  0  0  0  0  0  0  0  0
  -30.1070  -23.0851   19.3668 C   0  0  0  0  0  0  0  0  0  0  0  0
  -23.2600   -5.4983   22.1765 C   0  0  0  0  0  0  0  0  0  0  0  0
  -23.7996   -4.5178   23.0090 C   0  0  0  0  0  0  0  0  0  0  0  0
  -29.8041  -22.0573   17.2055 C   0  0  0  0  0  0  0  0  0  0  0  0
  -21.9172   -4.7522   24.5052 C   0  0  0  0  0  0  0  0  0  0  0  0
  -33.5146  -15.3110   18.5189 C   0  0  0  0  0  0  0  0  0  0  0  0
  -23.7703  -10.4986   21.0151 C   0  0  0  0  0  0  0  0  0  0  0  0
  -24.1036  -13.0192   20.8070 C   0  0  0  0  0  0  0  0  0  0  0  0
  -33.4237  -29.6259   16.4236 C   0  0  0  0  0  0  0  0  0  0  0  0
  -31.8319  -23.2947   17.6711 C   0  0  0  0  0  0  0  0  0  0  0  0
  -32.5054  -28.5587   16.4067 C   0  0  0  0  0  0  0  0  0  0  0  0
  -31.0589  -22.5271   16.7883 C   0  0  0  0  0  0  0  0  0  0  0  0
  -22.2540   -8.1999   21.4621 C   0  0  0  0  0  0  0  0  0  0  0  0
  -29.3305  -22.3365   18.4872 C   0  0  0  0  0  0  0  0  0  0  0  0
  -22.0490   -6.1058   22.5085 C   0  0  0  0  0  0  0  0  0  0  0  0
  -23.1282   -4.1447   24.1733 C   0  0  0  0  0  0  0  0  0  0  0  0
  -21.3776   -5.7327   23.6728 C   0  0  0  0  0  0  0  0  0  0  0  0
  -24.5539  -11.6856   20.7847 C   0  0  0  0  0  0  0  0  0  0  0  0
  -25.2235  -13.7644   20.5299 C   0  0  0  0  0  0  0  0  0  0  0  0
  -32.5127  -14.0996   20.1206 C   0  0  0  0  0  0  0  0  0  0  0  0
  -31.7890  -16.1746   19.6651 C   0  0  0  0  0  0  0  0  0  0  0  0
  -22.7903  -13.5379   21.0558 C   0  0  0  0  0  0  0  0  0  0  0  0
  -32.6331  -25.0804   15.1664 C   0  0  0  0  0  0  0  0  0  0  0  0
  -33.5922  -22.2357   13.9378 C   0  0  0  0  0  0  0  0  0  0  0  0
  -30.9864  -12.5823   21.3464 C   0  0  0  0  0  0  0  0  0  0  0  0
  -33.3086  -18.8347   13.9417 C   0  0  0  0  0  0  0  0  0  0  0  0
  -34.3643  -29.8814   15.2727 C   0  0  0  0  0  0  0  0  0  0  0  0
  -33.1910  -23.7907   17.2596 C   0  0  0  0  0  0  0  0  0  0  0  0
  -31.5349  -22.1982   15.3978 C   0  0  0  0  0  0  0  0  0  0  0  0
  -34.5345  -28.6797   14.3468 C   0  0  0  0  0  0  0  0  0  0  0  0
  -29.3993  -13.5458   18.2192 C   0  0  0  0  0  0  0  0  0  0  0  0
  -33.1776  -28.0708   14.0076 C   0  0  0  0  0  0  0  0  0  0  0  0
  -27.9280  -13.2682   18.5249 C   0  0  0  0  0  0  0  0  0  0  0  0
  -30.3147  -12.5286   18.8954 C   0  0  0  0  0  0  0  0  0  0  0  0
  -28.6435  -12.1481   20.6805 C   0  0  0  0  0  0  0  0  0  0  0  0
  -32.4706  -27.5611   15.2693 C   0  0  1  0  0  0  0  0  0  0  0  0
  -33.3553  -23.8974   15.7466 C   0  0  1  0  0  0  0  0  0  0  0  0
  -27.6885  -13.1703   20.0417 C   0  0  2  0  0  0  0  0  0  0  0  0
  -33.8324  -16.4538   13.3465 C   0  0  0  0  0  0  0  0  0  0  0  0
  -26.2008  -18.6217   18.6472 C   0  0  0  0  0  0  0  0  0  0  0  0
  -33.2782  -12.9123   22.1935 C   0  0  0  0  0  0  0  0  0  0  0  0
  -32.8073  -11.5310   20.1676 C   0  0  0  0  0  0  0  0  0  0  0  0
  -31.8535  -22.8423   11.5049 C   0  0  0  0  0  0  0  0  0  0  0  0
  -32.0148  -20.4249   10.8739 C   0  0  0  0  0  0  0  0  0  0  0  0
  -34.0758  -21.8267   10.9718 C   0  0  0  0  0  0  0  0  0  0  0  0
  -35.3128  -18.6123   16.1080 C   0  0  0  0  0  0  0  0  0  0  0  0
  -26.5203  -19.4677   21.6780 C   0  0  0  0  0  0  0  0  0  0  0  0
  -29.5147  -18.5466   21.3098 C   0  0  0  0  0  0  0  0  0  0  0  0
  -28.3436  -18.4107   20.3517 C   0  0  0  0  0  0  0  0  0  0  0  0
  -30.4341  -17.3360   21.2371 C   0  0  0  0  0  0  0  0  0  0  0  0
  -27.6631  -20.6518   18.2932 C   0  0  0  0  0  0  0  0  0  1  0  0
  -32.9359  -21.1469   13.1236 C   0  0  1  0  0  0  0  0  0  0  0  0
  -34.3562  -17.7366   13.9733 C   0  0  2  0  0  0  0  0  0  0  0  0
  -26.7117  -19.9260   19.2376 C   0  0  2  0  0  0  0  0  0  0  0  0
  -32.4069  -12.8392   20.9104 C   0  0  0  0  0  0  0  0  0  0  0  0
  -32.7099  -21.5679   11.6440 C   0  0  0  0  0  0  0  0  0  0  0  0
  -33.4782  -14.1477   19.1889 N   0  0  0  0  0  0  0  0  0  0  0  0
  -32.7045  -16.3663   18.7017 N   0  0  0  0  0  0  0  0  0  0  0  0
  -25.8583  -11.5862   20.5148 N   0  0  0  0  0  0  0  0  0  0  0  0
  -31.6335  -15.0711   20.4142 N   0  0  0  0  0  0  0  0  0  0  0  0
  -26.2371  -12.8669   20.3647 N   0  0  0  0  0  0  0  0  0  0  0  0
  -32.8678  -22.7111   15.0401 N   0  0  0  0  0  0  0  0  0  0  0  0
  -30.0363  -12.4453   20.3341 N   0  0  0  0  0  0  0  0  0  0  0  0
  -25.4303  -15.0934   20.4139 N   0  0  0  0  0  0  0  0  0  0  0  0
  -21.7542  -12.6329   21.3240 N   0  0  0  0  0  0  0  0  0  0  0  0
  -33.0341  -26.2956   15.6880 N   0  0  0  0  0  0  0  0  0  0  0  0
  -33.7662  -19.9585   13.2866 N   0  0  0  0  0  0  0  0  0  0  0  0
  -34.7572  -17.4435   15.3783 N   0  3  0  0  0  0  0  0  0  0  0  0
  -27.4448  -19.6103   20.4977 N   0  3  1  0  0  0  0  0  0  0  0  0
  -22.5395  -14.7666   21.0247 O   0  0  0  0  0  0  0  0  0  0  0  0
  -31.7765  -24.9039   14.3080 O   0  0  0  0  0  0  0  0  0  0  0  0
  -34.7097  -22.6441   13.6120 O   0  0  0  0  0  0  0  0  0  0  0  0
  -30.7305  -12.5086   22.5511 O   0  0  0  0  0  0  0  0  0  0  0  0
  -32.1943  -18.7070   14.4443 O   0  0  0  0  0  0  0  0  0  0  0  0
  -21.5142   -7.0786   21.6806 O   0  0  0  0  0  0  0  0  0  0  0  0
  -28.1124  -21.8730   18.8789 O   0  0  0  0  0  0  0  0  0  1  0  0
  -30.9250  -17.2103   19.9097 O   0  0  0  0  0  0  0  0  0  0  0  0
  -23.6458   -3.2020   24.9718 F   0  0  0  0  0  0  0  0  0  0  0  0
  -20.2133   -6.3120   23.9963 F   0  0  0  0  0  0  0  0  0  0  0  0
  1  2  1  0  0  0  0
  1  5  2  0  0  0  0
  2  6  2  0  0  0  0
  3  8  2  0  0  0  0
  3 16  1  0  0  0  0
  4  9  1  0  0  0  0
  4 16  2  0  0  0  0
  5 18  1  0  0  0  0
  6 20  1  0  0  0  0
  7 10  2  0  0  0  0
  7 19  1  0  0  0  0
  8 22  1  0  0  0  0
  9 22  2  0  0  0  0
 10 23  1  0  0  0  0
 11 12  2  0  0  0  0
 11 24  1  0  0  0  0
 12 25  1  0  0  0  0
 13 21  1  0  0  0  0
 13 23  2  0  0  0  0
 14 25  2  0  0  0  0
 14 26  1  0  0  0  0
 15 66  1  0  0  0  0
 15 67  2  0  0  0  0
 16 27  1  0  0  0  0
 17 27  1  0  0  0  0
 17 28  2  0  0  0  0
 17 31  1  0  0  0  0
 18 20  2  0  0  0  0
 18 36  1  0  0  0  0
 19 21  2  0  0  0  0
 19 37  1  0  0  0  0
 20 45  1  0  0  0  0
 21 38  1  0  0  0  0
 22 84  1  0  0  0  0
 23 85  1  0  0  0  0
 24 26  2  0  0  0  0
 24 84  1  0  0  0  0
 25 87  1  0  0  0  0
 26 88  1  0  0  0  0
 27 68  2  0  0  0  0
 28 70  1  0  0  0  0
 28 73  1  0  0  0  0
 29 64  1  0  0  0  0
 29 66  2  0  0  0  0
 29 69  1  0  0  0  0
 30 67  1  0  0  0  0
 30 69  2  0  0  0  0
 30 86  1  0  0  0  0
 31 74  1  0  0  0  0
 31 79  2  0  0  0  0
 32 46  1  0  0  0  0
 32 75  1  0  0  0  0
 32 80  2  0  0  0  0
 33 61  1  0  0  0  0
 33 71  1  0  0  0  0
 33 81  2  0  0  0  0
 34 64  1  0  0  0  0
 34 72  1  0  0  0  0
 34 82  2  0  0  0  0
 35 62  1  0  0  0  0
 35 76  1  0  0  0  0
 35 83  2  0  0  0  0
 36 39  1  0  0  0  0
 37 46  1  0  0  0  0
 38 71  1  0  0  0  0
 39 41  1  0  0  0  0
 40 42  1  0  0  0  0
 40 43  1  0  0  0  0
 41 45  1  0  0  0  0
 42 47  1  0  0  0  0
 43 72  1  0  0  0  0
 44 47  1  0  0  0  0
 44 72  1  0  0  0  0
 45 75  1  0  0  0  0
 46 71  1  0  0  0  0
 47 70  1  0  0  0  0
 48 62  1  0  0  0  0
 49 63  1  0  0  0  0
 50 64  1  0  0  0  0
 51 64  1  0  0  0  0
 52 65  1  0  0  0  0
 53 65  1  0  0  0  0
 54 65  1  0  0  0  0
 55 77  1  0  0  0  0
 56 78  1  0  0  0  0
 57 58  1  0  0  0  0
 57 59  1  0  0  0  0
 58 78  1  0  0  0  0
 59 86  1  0  0  0  0
 60 63  1  0  0  0  0
 60 85  1  0  0  0  0
 61 65  1  0  0  0  0
 61 76  1  0  0  0  0
 62 77  1  0  0  0  0
 63 78  1  0  0  0  0
 68 70  1  0  0  0  0
M  CHG  2  77   1  78   1
M  ISO  4  34 100  60 101  64 100  85 101
M  END
> <Batch ID>
0063

> <Smiles>
CNC(C)C(=O)NC(C(=O)N1Cc2cc([101O:1][101CH2:1]C(C)N(C)CCCOc3ncnc([100C:0](C)(C)[100C:0](=O)N4CCCC(n5nc(-c6ccc(Oc7ccc(F)cc7F)cc6)c(C(N)=O)c5N)C4)n3)ccc2CC1C(=O)NC1CCCc2ccccc21)C(C)(C)C

> <Shape>
0.215

> <Color>
0.200

> <Negative vol penalty>
0.000

$$$$

  -OEChem-04052318023D

 82 90  0     1  0  0  0  0  0999 V2000
  -19.7368  -17.5910   20.5599 C   0  0  0  0  0  0  0  0  0  0  0  0
  -20.9686  -17.6643   21.2023 C   0  0  0  0  0  0  0  0  0  0  0  0
  -25.1021  -16.1504   21.5711 C   0  0  0  0  0  0  0  0  0  0  0  0
  -25.1672  -15.9043   19.1685 C   0  0  0  0  0  0  0  0  0  0  0  0
  -19.3258  -18.6274   19.7226 C   0  0  0  0  0  0  0  0  0  0  0  0
  -21.7907  -18.7736   21.0069 C   0  0  0  0  0  0  0  0  0  0  0  0
  -26.5944  -22.8351   24.4339 C   0  0  0  0  0  0  0  0  0  0  0  0
  -23.8952  -15.4522   21.6099 C   0  0  0  0  0  0  0  0  0  0  0  0
  -23.9603  -15.2061   19.2073 C   0  0  0  0  0  0  0  0  0  0  0  0
  -27.8884  -23.3316   24.2830 C   0  0  0  0  0  0  0  0  0  0  0  0
  -20.9797  -13.4213   22.3786 C   0  0  0  0  0  0  0  0  0  0  0  0
  -20.8316  -12.4360   23.3547 C   0  0  0  0  0  0  0  0  0  0  0  0
  -27.0399  -25.0983   22.8764 C   0  0  0  0  0  0  0  0  0  0  0  0
  -22.7253  -11.2460   22.4408 C   0  0  0  0  0  0  0  0  0  0  0  0
  -30.8066  -25.8567   20.4917 C   0  0  0  0  0  0  0  0  0  0  0  0
  -31.3498  -23.7585   20.1207 C   0  0  0  0  0  0  0  0  0  0  0  0
  -25.7381  -16.3765   20.3504 C   0  0  0  0  0  0  0  0  0  0  0  0
  -28.2820  -16.5595   20.3998 C   0  0  0  0  0  0  0  0  0  0  0  0
  -20.1390  -19.7543   19.5244 C   0  0  0  0  0  0  0  0  0  0  0  0
  -25.5131  -23.4610   23.7973 C   0  0  0  0  0  0  0  0  0  0  0  0
  -21.3908  -19.8253   20.1651 C   0  0  0  0  0  0  0  0  0  0  0  0
  -25.7328  -24.6092   23.0230 C   0  0  0  0  0  0  0  0  0  0  0  0
  -31.2889  -24.6949   21.1237 C   0  0  0  0  0  0  0  0  0  0  0  0
  -23.3243  -14.9800   20.4280 C   0  0  0  0  0  0  0  0  0  0  0  0
  -28.1117  -24.4617   23.5018 C   0  0  0  0  0  0  0  0  0  0  0  0
  -22.0006  -13.3190   21.4335 C   0  0  0  0  0  0  0  0  0  0  0  0
  -21.7044  -11.3484   23.3858 C   0  0  0  0  0  0  0  0  0  0  0  0
  -22.8734  -12.2313   21.4647 C   0  0  0  0  0  0  0  0  0  0  0  0
  -26.9845  -17.0982   20.3096 C   0  0  0  0  0  0  0  0  0  0  0  0
  -29.1132  -17.6493   20.3099 C   0  0  0  0  0  0  0  0  0  0  0  0
  -28.6987  -15.1960   20.5512 C   0  0  0  0  0  0  0  0  0  0  0  0
  -23.3860  -22.5819   21.6050 C   0  0  0  0  0  0  0  0  0  0  0  0
  -22.0857  -25.4789   22.2679 C   0  0  0  0  0  0  0  0  0  0  0  0
  -30.5115  -22.3381   17.7924 C   0  0  0  0  0  0  0  0  0  0  0  0
  -22.5265  -28.6512   23.4463 C   0  0  0  0  0  0  0  0  0  0  0  0
  -19.6728  -20.8277   18.5730 C   0  0  0  0  0  0  0  0  0  0  0  0
  -24.1198  -22.9287   23.9919 C   0  0  0  0  0  0  0  0  0  0  0  0
  -24.6033  -25.3299   22.3351 C   0  0  0  0  0  0  0  0  0  0  0  0
  -20.4386  -22.1407   18.7136 C   0  0  0  0  0  0  0  0  0  0  0  0
  -28.1083  -22.5946   20.5102 C   0  0  0  0  0  0  0  0  0  0  0  0
  -21.9400  -21.8789   18.7770 C   0  0  0  0  0  0  0  0  0  0  0  0
  -27.6871  -21.1361   20.6844 C   0  0  0  0  0  0  0  0  0  0  0  0
  -28.3805  -22.9292   19.0459 C   0  0  0  0  0  0  0  0  0  0  0  0
  -28.9646  -20.5715   18.5719 C   0  0  0  0  0  0  0  0  0  0  0  0
  -22.2998  -21.0236   19.9979 C   0  0  1  0  0  0  0  0  0  0  0  0
  -23.1609  -23.3438   22.8803 C   0  0  1  0  0  0  0  0  0  0  0  0
  -28.7102  -20.1853   20.0386 C   0  0  2  0  0  0  0  0  0  0  0  0
  -21.2885  -30.8002   23.8292 C   0  0  0  0  0  0  0  0  0  0  0  0
  -32.1858  -25.8070   23.2772 C   0  0  0  0  0  0  0  0  0  0  0  0
  -32.7988  -23.4652   22.7135 C   0  0  0  0  0  0  0  0  0  0  0  0
  -32.1297  -23.9908   16.9134 C   0  0  0  0  0  0  0  0  0  0  0  0
  -29.6701  -24.3965   16.8118 C   0  0  0  0  0  0  0  0  0  0  0  0
  -22.2017  -26.0756   19.2778 C   0  0  0  0  0  0  0  0  0  0  0  0
  -21.8688  -28.4973   19.8190 C   0  0  0  0  0  0  0  0  0  0  0  0
  -20.1063  -26.8347   20.4125 C   0  0  0  0  0  0  0  0  0  0  0  0
  -23.0252  -28.5541   26.3619 C   0  0  0  0  0  0  0  0  0  0  0  0
  -30.4443  -24.0065   23.4139 C   0  0  0  0  0  0  0  0  0  1  0  0
  -22.2632  -26.8785   21.7309 C   0  0  1  0  0  0  0  0  0  0  0  0
  -21.7275  -29.4775   24.4379 C   0  0  2  0  0  0  0  0  0  0  0  0
  -31.6669  -24.5128   22.6057 C   0  0  0  0  0  0  0  0  0  0  0  0
  -30.8044  -23.8127   17.6756 C   0  0  0  0  0  0  0  0  0  0  0  0
  -21.6318  -27.0570   20.3213 C   0  0  0  0  0  0  0  0  0  0  0  0
  -30.5776  -25.6773   19.1881 N   0  0  0  0  0  0  0  0  0  0  0  0
  -26.9861  -18.4268   20.1731 N   0  0  0  0  0  0  0  0  0  0  0  0
  -30.9175  -24.3918   18.9928 N   0  0  0  0  0  0  0  0  0  0  0  0
  -28.2949  -18.7323   20.1769 N   0  0  0  0  0  0  0  0  0  0  0  0
  -23.2601  -24.7671   22.5506 N   0  0  0  0  0  0  0  0  0  0  0  0
  -29.3386  -21.9843   18.4599 N   0  0  0  0  0  0  0  0  0  0  0  0
  -30.4569  -17.7772   20.3325 N   0  0  0  0  0  0  0  0  0  0  0  0
  -27.7145  -14.2011   20.6271 N   0  0  0  0  0  0  0  0  0  0  0  0
  -22.2992  -21.8313   21.1988 N   0  0  0  0  0  0  0  0  0  0  0  0
  -21.7230  -27.7767   22.7457 N   0  0  0  0  0  0  0  0  0  0  0  0
  -22.5457  -29.7663   25.6496 N   0  3  0  0  0  0  0  0  0  0  0  0
  -29.9076  -14.8713   20.6336 O   0  0  0  0  0  0  0  0  0  0  0  0
  -24.4652  -22.6698   21.0311 O   0  0  0  0  0  0  0  0  0  0  0  0
  -20.9469  -25.0360   22.4372 O   0  0  0  0  0  0  0  0  0  0  0  0
  -31.3038  -21.5267   17.3068 O   0  0  0  0  0  0  0  0  0  0  0  0
  -23.7413  -28.7722   23.3046 O   0  0  0  0  0  0  0  0  0  0  0  0
  -22.1468  -14.2984   20.4655 O   0  0  0  0  0  0  0  0  0  0  0  0
  -29.3738  -24.9481   23.3523 O   0  0  0  0  0  0  0  0  0  1  0  0
  -21.5630  -10.4030   24.3242 F   0  0  0  0  0  0  0  0  0  0  0  0
  -23.8567  -12.1282   20.5601 F   0  0  0  0  0  0  0  0  0  0  0  0
  1  2  1  0  0  0  0
  1  5  2  0  0  0  0
  2  6  2  0  0  0  0
  3  8  2  0  0  0  0
  3 17  1  0  0  0  0
  4  9  1  0  0  0  0
  4 17  2  0  0  0  0
  5 19  1  0  0  0  0
  6 21  1  0  0  0  0
  7 10  2  0  0  0  0
  7 20  1  0  0  0  0
  8 24  1  0  0  0  0
  9 24  2  0  0  0  0
 10 25  1  0  0  0  0
 11 12  2  0  0  0  0
 11 26  1  0  0  0  0
 12 27  1  0  0  0  0
 13 22  1  0  0  0  0
 13 25  2  0  0  0  0
 14 27  2  0  0  0  0
 14 28  1  0  0  0  0
 15 23  1  0  0  0  0
 15 63  2  0  0  0  0
 16 23  2  0  0  0  0
 16 65  1  0  0  0  0
 17 29  1  0  0  0  0
 18 29  1  0  0  0  0
 18 30  2  0  0  0  0
 18 31  1  0  0  0  0
 19 21  2  0  0  0  0
 19 36  1  0  0  0  0
 20 22  2  0  0  0  0
 20 37  1  0  0  0  0
 21 45  1  0  0  0  0
 22 38  1  0  0  0  0
 23 60  1  0  0  0  0
 24 79  1  0  0  0  0
 25 80  1  0  0  0  0
 26 28  2  0  0  0  0
 26 79  1  0  0  0  0
 27 81  1  0  0  0  0
 28 82  1  0  0  0  0
 29 64  2  0  0  0  0
 30 66  1  0  0  0  0
 30 69  1  0  0  0  0
 31 70  1  0  0  0  0
 31 74  2  0  0  0  0
 32 46  1  0  0  0  0
 32 71  1  0  0  0  0
 32 75  2  0  0  0  0
 33 58  1  0  0  0  0
 33 67  1  0  0  0  0
 33 76  2  0  0  0  0
 34 61  1  0  0  0  0
 34 68  1  0  0  0  0
 34 77  2  0  0  0  0
 35 59  1  0  0  0  0
 35 72  1  0  0  0  0
 35 78  2  0  0  0  0
 36 39  1  0  0  0  0
 37 46  1  0  0  0  0
 38 67  1  0  0  0  0
 39 41  1  0  0  0  0
 40 42  1  0  0  0  0
 40 43  1  0  0  0  0
 41 45  1  0  0  0  0
 42 47  1  0  0  0  0
 43 68  1  0  0  0  0
 44 47  1  0  0  0  0
 44 68  1  0  0  0  0
 45 71  1  0  0  0  0
 46 67  1  0  0  0  0
 47 66  1  0  0  0  0
 48 59  1  0  0  0  0
 49 60  1  0  0  0  0
 50 60  1  0  0  0  0
 51 61  1  0  0  0  0
 52 61  1  0  0  0  0
 53 62  1  0  0  0  0
 54 62  1  0  0  0  0
 55 62  1  0  0  0  0
 56 73  1  0  0  0  0
 57 60  1  0  0  0  0
 57 80  1  0  0  0  0
 58 62  1  0  0  0  0
 58 72  1  0  0  0  0
 59 73  1  0  0  0  0
 61 65  1  0  0  0  0
 63 65  1  0  0  0  0
 64 66  1  0  0  0  0
M  CHG  1  73   1
M  ISO  4  34 100  57 101  61 100  80 101
M  END
> <Batch ID>
0063

> <Smiles>
CNC(C)C(=O)NC(C(=O)N1Cc2cc([101O:1][101CH2:1]C(C)(C)c3cnn([100C:0](C)(C)[100C:0](=O)N4CCCC(n5nc(-c6ccc(Oc7ccc(F)cc7F)cc6)c(C(N)=O)c5N)C4)c3)ccc2CC1C(=O)NC1CCCc2ccccc21)C(C)(C)C

> <Shape>
0.176

> <Color>
0.066

> <Negative vol penalty>
0.000

$$$$

  -OEChem-04052318023D

 84 92  0     1  0  0  0  0  0999 V2000
  -31.9432  -32.6928   19.3302 C   0  0  0  0  0  0  0  0  0  0  0  0
  -31.3361  -31.4512   19.4893 C   0  0  0  0  0  0  0  0  0  0  0  0
  -24.0651  -13.2181   20.8536 C   0  0  0  0  0  0  0  0  0  0  0  0
  -26.4391  -13.2931   20.4116 C   0  0  0  0  0  0  0  0  0  0  0  0
  -31.6371  -33.7344   20.2050 C   0  0  0  0  0  0  0  0  0  0  0  0
  -30.4233  -31.2502   20.5241 C   0  0  0  0  0  0  0  0  0  0  0  0
  -26.2790  -28.7683   19.0041 C   0  0  0  0  0  0  0  0  0  0  0  0
  -24.0717  -11.8375   20.6553 C   0  0  0  0  0  0  0  0  0  0  0  0
  -26.4458  -11.9124   20.2132 C   0  0  0  0  0  0  0  0  0  0  0  0
  -26.3874  -27.3879   18.8413 C   0  0  0  0  0  0  0  0  0  0  0  0
  -24.9399   -9.0744   22.4002 C   0  0  0  0  0  0  0  0  0  0  0  0
  -24.2486   -8.2843   23.3186 C   0  0  0  0  0  0  0  0  0  0  0  0
  -25.3457  -27.0585   20.9920 C   0  0  0  0  0  0  0  0  0  0  0  0
  -22.8401   -7.4509   21.5413 C   0  0  0  0  0  0  0  0  0  0  0  0
  -25.2488  -13.9459   20.7317 C   0  0  0  0  0  0  0  0  0  0  0  0
  -25.4468  -16.0584   22.1481 C   0  0  0  0  0  0  0  0  0  0  0  0
  -30.7128  -33.5488   21.2452 C   0  0  0  0  0  0  0  0  0  0  0  0
  -25.7121  -29.3053   20.1689 C   0  0  0  0  0  0  0  0  0  0  0  0
  -30.1055  -32.2899   21.4145 C   0  0  0  0  0  0  0  0  0  0  0  0
  -25.2289  -28.4460   21.1661 C   0  0  0  0  0  0  0  0  0  0  0  0
  -25.2621  -11.1846   20.3351 C   0  0  0  0  0  0  0  0  0  0  0  0
  -25.9233  -26.5328   19.8365 C   0  0  0  0  0  0  0  0  0  0  0  0
  -24.5812   -9.0529   21.0524 C   0  0  0  0  0  0  0  0  0  0  0  0
  -23.1987   -7.4725   22.8892 C   0  0  0  0  0  0  0  0  0  0  0  0
  -23.5313   -8.2411   20.6230 C   0  0  0  0  0  0  0  0  0  0  0  0
  -25.2425  -15.3723   20.9359 C   0  0  0  0  0  0  0  0  0  0  0  0
  -25.3432  -17.3863   21.8126 C   0  0  0  0  0  0  0  0  0  0  0  0
  -29.6100  -19.7147   20.3676 C   0  0  0  0  0  0  0  0  0  0  0  0
  -29.1441  -21.3791   19.1972 C   0  0  0  0  0  0  0  0  0  0  0  0
  -25.7069  -15.5416   23.4599 C   0  0  0  0  0  0  0  0  0  0  0  0
  -26.7564  -31.1812   22.5129 C   0  0  0  0  0  0  0  0  0  0  0  0
  -23.6535  -31.0760   23.4529 C   0  0  0  0  0  0  0  0  0  0  0  0
  -20.6694  -29.4206   23.4151 C   0  0  0  0  0  0  0  0  0  0  0  0
  -26.1782  -20.3754   16.6922 C   0  0  0  0  0  0  0  0  0  0  0  0
  -30.4495  -34.6907   22.1946 C   0  0  0  0  0  0  0  0  0  0  0  0
  -25.5782  -30.7960   20.3176 C   0  0  0  0  0  0  0  0  0  0  0  0
  -24.5937  -28.9717   22.4264 C   0  0  0  0  0  0  0  0  0  0  0  0
  -29.1899  -34.5046   23.0367 C   0  0  0  0  0  0  0  0  0  0  0  0
  -23.2175  -20.2993   18.6684 C   0  0  0  0  0  0  0  0  0  0  0  0
  -29.1414  -33.0961   23.6204 C   0  0  0  0  0  0  0  0  0  0  0  0
  -23.4192  -19.0899   19.5830 C   0  0  0  0  0  0  0  0  0  0  0  0
  -23.7919  -20.0550   17.2747 C   0  0  0  0  0  0  0  0  0  0  0  0
  -25.4055  -18.4199   18.1672 C   0  0  0  0  0  0  0  0  0  0  0  0
  -29.0916  -32.0400   22.5097 C   0  0  1  0  0  0  0  0  0  0  0  0
  -25.4513  -31.2426   21.7708 C   0  0  1  0  0  0  0  0  0  0  0  0
  -24.8924  -18.6397   19.6006 C   0  0  2  0  0  0  0  0  0  0  0  0
  -29.7470  -18.8511   21.5463 C   0  0  0  0  0  0  0  0  0  0  0  0
  -18.3274  -29.5610   24.3055 C   0  0  0  0  0  0  0  0  0  0  0  0
  -24.6452  -30.1798   26.1958 C   0  0  0  0  0  0  0  0  0  0  0  0
  -22.3127  -29.4351   26.7186 C   0  0  0  0  0  0  0  0  0  0  0  0
  -22.7771  -31.8415   26.2537 C   0  0  0  0  0  0  0  0  0  0  0  0
  -30.9004  -21.5370   16.5508 C   0  0  0  0  0  0  0  0  0  0  0  0
  -30.5864  -19.0762   16.5945 C   0  0  0  0  0  0  0  0  0  0  0  0
  -19.5171  -29.5377   20.6916 C   0  0  0  0  0  0  0  0  0  0  0  0
  -28.6969  -22.7115   18.6511 C   0  0  0  0  0  0  0  0  0  0  0  0
  -27.5129  -23.3204   19.4054 C   0  0  0  0  0  0  0  0  0  0  0  0
  -28.6043  -20.5714   16.2078 C   0  0  0  0  0  0  0  0  0  0  0  0
  -27.1232  -24.7050   18.9011 C   0  0  0  0  0  0  0  0  0  1  0  0
  -22.8385  -30.1773   24.3514 C   0  0  1  0  0  0  0  0  0  0  0  0
  -19.2542  -29.9011   23.1488 C   0  0  2  0  0  0  0  0  0  0  0  0
  -23.1570  -30.3982   25.8571 C   0  0  0  0  0  0  0  0  0  0  0  0
  -29.9303  -20.4175   17.0016 C   0  0  0  0  0  0  0  0  0  0  0  0
  -25.0254  -16.1962   19.9073 N   0  0  0  0  0  0  0  0  0  0  0  0
  -29.0855  -20.9731   20.4443 N   0  0  0  0  0  0  0  0  0  0  0  0
  -29.9896  -19.3166   19.1515 N   0  0  0  0  0  0  0  0  0  0  0  0
  -25.0927  -17.4137   20.4723 N   0  0  0  0  0  0  0  0  0  0  0  0
  -29.6809  -20.3993   18.4216 N   0  0  0  0  0  0  0  0  0  0  0  0
  -24.4912  -30.4369   22.5279 N   0  0  0  0  0  0  0  0  0  0  0  0
  -25.1918  -19.6324   17.3616 N   0  0  0  0  0  0  0  0  0  0  0  0
  -25.4429  -18.5214   22.5365 N   0  0  0  0  0  0  0  0  0  0  0  0
  -25.7813  -14.1522   23.6281 N   0  0  0  0  0  0  0  0  0  0  0  0
  -27.7578  -31.9527   21.9549 N   0  0  0  0  0  0  0  0  0  0  0  0
  -21.4416  -30.4038   23.9966 N   0  0  0  0  0  0  0  0  0  0  0  0
  -27.4800  -19.9101   16.8318 N   0  0  0  0  0  0  0  0  0  0  0  0
  -18.7157  -29.2663   21.9127 N   0  3  0  0  0  0  0  0  0  0  0  0
  -25.8523  -16.2893   24.4566 O   0  0  0  0  0  0  0  0  0  0  0  0
  -26.8475  -30.4865   23.5183 O   0  0  0  0  0  0  0  0  0  0  0  0
  -23.5453  -32.2998   23.5628 O   0  0  0  0  0  0  0  0  0  0  0  0
  -21.0504  -28.2853   23.1386 O   0  0  0  0  0  0  0  0  0  0  0  0
  -25.9186  -21.3821   16.0243 O   0  0  0  0  0  0  0  0  0  0  0  0
  -25.2690   -9.8373   20.1418 O   0  0  0  0  0  0  0  0  0  0  0  0
  -26.0285  -25.1851   19.6804 O   0  0  0  0  0  0  0  0  0  1  0  0
  -22.5360   -6.7126   23.7709 F   0  0  0  0  0  0  0  0  0  0  0  0
  -23.1830   -8.2153   19.3292 F   0  0  0  0  0  0  0  0  0  0  0  0
  1  2  1  0  0  0  0
  1  5  2  0  0  0  0
  2  6  2  0  0  0  0
  3  8  2  0  0  0  0
  3 15  1  0  0  0  0
  4  9  1  0  0  0  0
  4 15  2  0  0  0  0
  5 17  1  0  0  0  0
  6 19  1  0  0  0  0
  7 10  2  0  0  0  0
  7 18  1  0  0  0  0
  8 21  1  0  0  0  0
  9 21  2  0  0  0  0
 10 22  1  0  0  0  0
 11 12  2  0  0  0  0
 11 23  1  0  0  0  0
 12 24  1  0  0  0  0
 13 20  1  0  0  0  0
 13 22  2  0  0  0  0
 14 24  2  0  0  0  0
 14 25  1  0  0  0  0
 15 26  1  0  0  0  0
 16 26  1  0  0  0  0
 16 27  2  0  0  0  0
 16 30  1  0  0  0  0
 17 19  2  0  0  0  0
 17 35  1  0  0  0  0
 18 20  2  0  0  0  0
 18 36  1  0  0  0  0
 19 44  1  0  0  0  0
 20 37  1  0  0  0  0
 21 81  1  0  0  0  0
 22 82  1  0  0  0  0
 23 25  2  0  0  0  0
 23 81  1  0  0  0  0
 24 83  1  0  0  0  0
 25 84  1  0  0  0  0
 26 63  2  0  0  0  0
 27 66  1  0  0  0  0
 27 70  1  0  0  0  0
 28 47  1  0  0  0  0
 28 64  1  0  0  0  0
 28 65  2  0  0  0  0
 29 55  1  0  0  0  0
 29 64  2  0  0  0  0
 29 67  1  0  0  0  0
 30 71  1  0  0  0  0
 30 76  2  0  0  0  0
 31 45  1  0  0  0  0
 31 72  1  0  0  0  0
 31 77  2  0  0  0  0
 32 59  1  0  0  0  0
 32 68  1  0  0  0  0
 32 78  2  0  0  0  0
 33 60  1  0  0  0  0
 33 73  1  0  0  0  0
 33 79  2  0  0  0  0
 34 69  1  0  0  0  0
 34 74  1  0  0  0  0
 34 80  2  0  0  0  0
 35 38  1  0  0  0  0
 36 45  1  0  0  0  0
 37 68  1  0  0  0  0
 38 40  1  0  0  0  0
 39 41  1  0  0  0  0
 39 42  1  0  0  0  0
 40 44  1  0  0  0  0
 41 46  1  0  0  0  0
 42 69  1  0  0  0  0
 43 46  1  0  0  0  0
 43 69  1  0  0  0  0
 44 72  1  0  0  0  0
 45 68  1  0  0  0  0
 46 66  1  0  0  0  0
 48 60  1  0  0  0  0
 49 61  1  0  0  0  0
 50 61  1  0  0  0  0
 51 61  1  0  0  0  0
 52 62  1  0  0  0  0
 53 62  1  0  0  0  0
 54 75  1  0  0  0  0
 55 56  1  0  0  0  0
 56 58  1  0  0  0  0
 57 62  1  0  0  0  0
 57 74  1  0  0  0  0
 58 82  1  0  0  0  0
 59 61  1  0  0  0  0
 59 73  1  0  0  0  0
 60 75  1  0  0  0  0
 62 67  1  0  0  0  0
 63 66  1  0  0  0  0
 65 67  1  0  0  0  0
M  CHG  1  75   1
M  ISO  4  34 100  58 101  74 100  82 101
M  END
> <Batch ID>
0063

> <Smiles>
CNC(C)C(=O)NC(C(=O)N1Cc2cc([101O:1][101CH2:1]CCc3nc(C)nn3C(C)(C)C[100NH:0][100C:0](=O)N3CCCC(n4nc(-c5ccc(Oc6ccc(F)cc6F)cc5)c(C(N)=O)c4N)C3)ccc2CC1C(=O)NC1CCCc2ccccc21)C(C)(C)C

> <Shape>
0.223

> <Color>
0.086

> <Negative vol penalty>
0.000

$$$$

  -OEChem-04052318023D

 93101  0     1  0  0  0  0  0999 V2000
  -32.4096  -13.6281   21.3540 C   0  0  0  0  0  0  0  0  0  0  0  0
  -31.8768  -14.9086   21.4622 C   0  0  0  0  0  0  0  0  0  0  0  0
  -28.0248  -28.1068   20.6459 C   0  0  0  0  0  0  0  0  0  0  0  0
  -26.2591  -26.6014   19.9726 C   0  0  0  0  0  0  0  0  0  0  0  0
  -31.6934  -12.6296   20.6952 C   0  0  0  0  0  0  0  0  0  0  0  0
  -30.6278  -15.1917   20.9106 C   0  0  0  0  0  0  0  0  0  0  0  0
  -24.8347  -19.2614   22.0037 C   0  0  0  0  0  0  0  0  0  0  0  0
  -28.9709  -27.1185   20.3746 C   0  0  0  0  0  0  0  0  0  0  0  0
  -27.2053  -25.6131   19.7012 C   0  0  0  0  0  0  0  0  0  0  0  0
  -24.0197  -20.1759   21.3380 C   0  0  0  0  0  0  0  0  0  0  0  0
  -29.0510  -23.3841   21.4492 C   0  0  0  0  0  0  0  0  0  0  0  0
  -28.7866  -22.0918   21.9026 C   0  0  0  0  0  0  0  0  0  0  0  0
  -22.8379  -18.3518   20.2916 C   0  0  0  0  0  0  0  0  0  0  0  0
  -28.8620  -21.2786   19.6288 C   0  0  0  0  0  0  0  0  0  0  0  0
  -21.1520  -25.7091   21.9207 C   0  0  0  0  0  0  0  0  0  0  0  0
  -26.6688  -27.8483   20.4450 C   0  0  0  0  0  0  0  0  0  0  0  0
  -25.1994  -29.8427   19.8361 C   0  0  0  0  0  0  0  0  0  0  0  0
  -30.4307  -12.8982   20.1437 C   0  0  0  0  0  0  0  0  0  0  0  0
  -24.6643  -17.8831   21.8096 C   0  0  0  0  0  0  0  0  0  0  0  0
  -29.8946  -14.1963   20.2426 C   0  0  0  0  0  0  0  0  0  0  0  0
  -23.6504  -17.4218   20.9580 C   0  0  0  0  0  0  0  0  0  0  0  0
  -28.5612  -25.8717   19.9022 C   0  0  0  0  0  0  0  0  0  0  0  0
  -23.0230  -19.7213   20.4796 C   0  0  0  0  0  0  0  0  0  0  0  0
  -29.2209  -23.6237   20.0856 C   0  0  0  0  0  0  0  0  0  0  0  0
  -28.6921  -21.0390   20.9924 C   0  0  0  0  0  0  0  0  0  0  0  0
  -29.1264  -22.5709   19.1754 C   0  0  0  0  0  0  0  0  0  0  0  0
  -25.6909  -28.8686   20.7256 C   0  0  0  0  0  0  0  0  0  0  0  0
  -20.7326  -25.8591   20.6172 C   0  0  0  0  0  0  0  0  0  0  0  0
  -20.3416  -27.7881   22.4209 C   0  0  0  0  0  0  0  0  0  0  0  0
  -19.9228  -27.9386   21.1172 C   0  0  0  0  0  0  0  0  0  0  0  0
  -24.2989  -30.5645   20.5807 C   0  0  0  0  0  0  0  0  0  0  0  0
  -25.5275  -30.0743   18.4597 C   0  0  0  0  0  0  0  0  0  0  0  0
  -26.4775  -15.5383   20.6617 C   0  0  0  0  0  0  0  0  0  0  0  0
  -24.0092  -13.6759   21.6421 C   0  0  0  0  0  0  0  0  0  0  0  0
  -20.6924  -13.4280   22.4062 C   0  0  0  0  0  0  0  0  0  0  0  0
  -21.3286  -28.8620   25.6618 C   0  0  0  0  0  0  0  0  0  0  0  0
  -29.7149  -11.7988   19.3996 C   0  0  0  0  0  0  0  0  0  0  0  0
  -25.5342  -16.9090   22.5558 C   0  0  0  0  0  0  0  0  0  0  0  0
  -23.4131  -15.9519   20.7310 C   0  0  0  0  0  0  0  0  0  0  0  0
  -28.2330  -12.0839   19.1694 C   0  0  0  0  0  0  0  0  0  0  0  0
  -23.3545  -31.9029   25.0698 C   0  0  0  0  0  0  0  0  0  0  0  0
  -28.0366  -13.5067   18.6558 C   0  0  0  0  0  0  0  0  0  0  0  0
  -24.1909  -31.5140   23.8519 C   0  0  0  0  0  0  0  0  0  0  0  0
  -22.9727  -30.6863   25.9075 C   0  0  0  0  0  0  0  0  0  0  0  0
  -23.1229  -29.2259   23.9179 C   0  0  0  0  0  0  0  0  0  0  0  0
  -28.5319  -14.5359   19.6790 C   0  0  1  0  0  0  0  0  0  0  0  0
  -25.6078  -15.5398   21.8869 C   0  0  1  0  0  0  0  0  0  0  0  0
  -23.4850  -30.4237   23.0271 C   0  0  2  0  0  0  0  0  0  0  0  0
  -18.9585  -11.7687   23.1397 C   0  0  0  0  0  0  0  0  0  0  0  0
  -23.9210  -12.5235   18.8182 C   0  0  0  0  0  0  0  0  0  0  0  0
  -21.6426  -11.6219   19.3324 C   0  0  0  0  0  0  0  0  0  0  0  0
  -23.6163  -10.8397   20.6421 C   0  0  0  0  0  0  0  0  0  0  0  0
  -21.8318  -24.2819   16.4933 C   0  0  0  0  0  0  0  0  0  0  0  0
  -24.6954  -25.2834   16.9664 C   0  0  0  0  0  0  0  0  0  0  0  0
  -24.6231  -22.8628   16.4003 C   0  0  0  0  0  0  0  0  0  0  0  0
  -19.2510  -27.5720   25.3473 C   0  0  0  0  0  0  0  0  0  0  0  0
  -20.1453  -14.9266   24.8989 C   0  0  0  0  0  0  0  0  0  0  0  0
  -20.9596  -24.7590   19.6077 C   0  0  0  0  0  0  0  0  0  0  0  0
  -20.1277  -28.8599   23.4346 C   0  0  0  0  0  0  0  0  0  0  0  0
  -22.3107  -24.9272   18.8923 C   0  0  0  0  0  0  0  0  0  0  0  0
  -22.1576  -22.4714   18.2475 C   0  0  0  0  0  0  0  0  0  0  0  0
  -22.7868  -21.8799   19.5099 C   0  0  0  0  0  0  0  0  0  1  0  0
  -22.7301  -13.1782   21.0135 C   0  0  1  0  0  0  0  0  0  0  0  0
  -19.9754  -12.8057   23.5908 C   0  0  2  0  0  0  0  0  0  0  0  0
  -19.2364  -29.1801   20.6598 C   0  0  0  0  0  0  0  0  0  0  0  0
  -22.9830  -12.0686   19.9541 C   0  0  0  0  0  0  0  0  0  0  0  0
  -22.6315  -23.8870   17.7602 C   0  0  1  0  0  0  0  0  0  0  0  0
  -24.1774  -23.9149   17.4249 C   0  0  0  0  0  0  0  0  0  0  0  0
  -20.9640  -26.6709   22.8460 N   0  0  0  0  0  0  0  0  0  0  0  0
  -25.1478  -28.9605   21.9424 N   0  0  0  0  0  0  0  0  0  0  0  0
  -20.1105  -26.9766   20.1921 N   0  0  0  0  0  0  0  0  0  0  0  0
  -24.3057  -30.0010   21.8227 N   0  0  0  0  0  0  0  0  0  0  0  0
  -24.2938  -15.0390   21.4784 N   0  0  0  0  0  0  0  0  0  0  0  0
  -22.3430  -29.6481   25.0909 N   0  0  0  0  0  0  0  0  0  0  0  0
  -23.5098  -31.6199   20.2877 N   0  0  0  0  0  0  0  0  0  0  0  0
  -26.4732  -29.2396   17.8487 N   0  0  0  0  0  0  0  0  0  0  0  0
  -27.5669  -14.6924   20.7461 N   0  0  0  0  0  0  0  0  0  0  0  0
  -21.8669  -12.7668   22.1153 N   0  0  0  0  0  0  0  0  0  0  0  0
  -20.3304  -28.3819   24.8006 N   0  0  0  0  0  0  0  0  0  0  0  0
  -19.2619  -13.8541   24.3735 N   0  3  0  0  0  0  0  0  0  0  0  0
  -25.0098  -31.0044   17.7961 O   0  0  0  0  0  0  0  0  0  0  0  0
  -26.1814  -16.2508   19.7097 O   0  0  0  0  0  0  0  0  0  0  0  0
  -24.7258  -12.8859   22.2618 O   0  0  0  0  0  0  0  0  0  0  0  0
  -20.2525  -14.4008   21.7974 O   0  0  0  0  0  0  0  0  0  0  0  0
  -21.3108  -28.6118   26.8738 O   0  0  0  0  0  0  0  0  0  0  0  0
  -29.4842  -24.9071   19.6371 O   0  0  0  0  0  0  0  0  0  0  0  0
  -22.2196  -20.6194   19.8224 O   0  0  0  0  0  0  0  0  0  1  0  0
  -28.4396  -19.7978   21.4281 F   0  0  0  0  0  0  0  0  0  0  0  0
  -29.2899  -22.7948   17.8643 F   0  0  0  0  0  0  0  0  0  0  0  0
  -19.0776  -30.1136   21.6449 F   0  0  0  0  0  0  0  0  0  0  0  0
  -19.8950  -29.8319   19.6558 F   0  0  0  0  0  0  0  0  0  0  0  0
  -17.9816  -28.9404   20.1782 F   0  0  0  0  0  0  0  0  0  0  0  0
  -24.8610  -23.6102   18.5763 F   0  0  0  0  0  0  0  0  0  0  0  0
  1  2  1  0  0  0  0
  1  5  2  0  0  0  0
  2  6  2  0  0  0  0
  3  8  2  0  0  0  0
  3 16  1  0  0  0  0
  4  9  1  0  0  0  0
  4 16  2  0  0  0  0
  5 18  1  0  0  0  0
  6 20  1  0  0  0  0
  7 10  2  0  0  0  0
  7 19  1  0  0  0  0
  8 22  1  0  0  0  0
  9 22  2  0  0  0  0
 10 23  1  0  0  0  0
 11 12  2  0  0  0  0
 11 24  1  0  0  0  0
 12 25  1  0  0  0  0
 13 21  1  0  0  0  0
 13 23  2  0  0  0  0
 14 25  2  0  0  0  0
 14 26  1  0  0  0  0
 15 28  1  0  0  0  0
 15 69  2  0  0  0  0
 16 27  1  0  0  0  0
 17 27  1  0  0  0  0
 17 31  2  0  0  0  0
 17 32  1  0  0  0  0
 18 20  2  0  0  0  0
 18 37  1  0  0  0  0
 19 21  2  0  0  0  0
 19 38  1  0  0  0  0
 20 46  1  0  0  0  0
 21 39  1  0  0  0  0
 22 86  1  0  0  0  0
 23 87  1  0  0  0  0
 24 26  2  0  0  0  0
 24 86  1  0  0  0  0
 25 88  1  0  0  0  0
 26 89  1  0  0  0  0
 27 70  2  0  0  0  0
 28 58  1  0  0  0  0
 28 71  2  0  0  0  0
 29 30  2  0  0  0  0
 29 59  1  0  0  0  0
 29 69  1  0  0  0  0
 30 65  1  0  0  0  0
 30 71  1  0  0  0  0
 31 72  1  0  0  0  0
 31 75  1  0  0  0  0
 32 76  1  0  0  0  0
 32 81  2  0  0  0  0
 33 47  1  0  0  0  0
 33 77  1  0  0  0  0
 33 82  2  0  0  0  0
 34 63  1  0  0  0  0
 34 73  1  0  0  0  0
 34 83  2  0  0  0  0
 35 64  1  0  0  0  0
 35 78  1  0  0  0  0
 35 84  2  0  0  0  0
 36 74  1  0  0  0  0
 36 79  1  0  0  0  0
 36 85  2  0  0  0  0
 37 40  1  0  0  0  0
 38 47  1  0  0  0  0
 39 73  1  0  0  0  0
 40 42  1  0  0  0  0
 41 43  1  0  0  0  0
 41 44  1  0  0  0  0
 42 46  1  0  0  0  0
 43 48  1  0  0  0  0
 44 74  1  0  0  0  0
 45 48  1  0  0  0  0
 45 74  1  0  0  0  0
 46 77  1  0  0  0  0
 47 73  1  0  0  0  0
 48 72  1  0  0  0  0
 49 64  1  0  0  0  0
 50 66  1  0  0  0  0
 51 66  1  0  0  0  0
 52 66  1  0  0  0  0
 53 67  1  0  0  0  0
 54 68  1  0  0  0  0
 55 68  1  0  0  0  0
 56 79  1  0  0  0  0
 57 80  1  0  0  0  0
 58 60  1  0  0  0  0
 59 79  1  0  0  0  0
 60 67  1  0  0  0  0
 61 62  1  0  0  0  0
 61 67  1  0  0  0  0
 62 87  1  0  0  0  0
 63 66  1  0  0  0  0
 63 78  1  0  0  0  0
 64 80  1  0  0  0  0
 65 90  1  0  0  0  0
 65 91  1  0  0  0  0
 65 92  1  0  0  0  0
 67 68  1  0  0  0  0
 68 93  1  0  0  0  0
 70 72  1  0  0  0  0
M  CHG  1  80   1
M  ISO  4  36 100  62 101  79 100  87 101
M  END
> <Batch ID>
0063

> <Smiles>
CNC(C)C(=O)NC(C(=O)N1Cc2cc([101O:1][101CH2:1]CC(C)(CCc3cnc(C[100N:0](C)[100C:0](=O)N4CCCC(n5nc(-c6ccc(Oc7ccc(F)cc7F)cc6)c(C(N)=O)c5N)C4)c(C(F)(F)F)n3)C(C)(C)F)ccc2CC1C(=O)NC1CCCc2ccccc21)C(C)(C)C

> <Shape>
0.268

> <Color>
0.053

> <Negative vol penalty>
0.000

$$$$

  -OEChem-04052318023D

 85 93  0     1  0  0  0  0  0999 V2000
  -32.2537  -30.5343   16.9386 C   0  0  0  0  0  0  0  0  0  0  0  0
  -31.6750  -29.3619   17.4142 C   0  0  0  0  0  0  0  0  0  0  0  0
  -22.3748  -13.2331   20.7991 C   0  0  0  0  0  0  0  0  0  0  0  0
  -22.8361  -15.3239   21.9186 C   0  0  0  0  0  0  0  0  0  0  0  0
  -31.9756  -31.7502   17.5616 C   0  0  0  0  0  0  0  0  0  0  0  0
  -30.8187  -29.4047   18.5139 C   0  0  0  0  0  0  0  0  0  0  0  0
  -26.6430  -26.6216   17.8341 C   0  0  0  0  0  0  0  0  0  0  0  0
  -21.3931  -12.9425   21.7464 C   0  0  0  0  0  0  0  0  0  0  0  0
  -21.8543  -15.0333   22.8658 C   0  0  0  0  0  0  0  0  0  0  0  0
  -26.7648  -25.2418   17.9917 C   0  0  0  0  0  0  0  0  0  0  0  0
  -21.2590  -11.7887   24.9205 C   0  0  0  0  0  0  0  0  0  0  0  0
  -21.2350  -10.4999   25.4534 C   0  0  0  0  0  0  0  0  0  0  0  0
  -25.8380  -25.4196   20.2117 C   0  0  0  0  0  0  0  0  0  0  0  0
  -18.9911  -10.1937   24.6118 C   0  0  0  0  0  0  0  0  0  0  0  0
  -23.0964  -14.4238   20.8853 C   0  0  0  0  0  0  0  0  0  0  0  0
  -23.9422  -15.4129   18.6912 C   0  0  0  0  0  0  0  0  0  0  0  0
  -31.1078  -31.8092   18.6635 C   0  0  0  0  0  0  0  0  0  0  0  0
  -26.1270  -27.4136   18.8699 C   0  0  0  0  0  0  0  0  0  0  0  0
  -30.5298  -30.6224   19.1531 C   0  0  0  0  0  0  0  0  0  0  0  0
  -25.7082  -26.8090   20.0638 C   0  0  0  0  0  0  0  0  0  0  0  0
  -21.1328  -13.8426   22.7797 C   0  0  0  0  0  0  0  0  0  0  0  0
  -26.3650  -24.6409   19.1817 C   0  0  0  0  0  0  0  0  0  0  0  0
  -20.1490  -12.2800   24.2333 C   0  0  0  0  0  0  0  0  0  0  0  0
  -20.1011   -9.7024   25.2991 C   0  0  0  0  0  0  0  0  0  0  0  0
  -19.0151  -11.4825   24.0789 C   0  0  0  0  0  0  0  0  0  0  0  0
  -24.1111  -14.7243   19.9074 C   0  0  0  0  0  0  0  0  0  0  0  0
  -25.1968  -15.4361   18.1327 C   0  0  0  0  0  0  0  0  0  0  0  0
  -27.9505  -18.2714   19.6305 C   0  0  0  0  0  0  0  0  0  0  0  0
  -29.9113  -17.7005   19.1986 C   0  0  0  0  0  0  0  0  0  0  0  0
  -22.7572  -15.9809   18.1177 C   0  0  0  0  0  0  0  0  0  0  0  0
  -27.2581  -29.7885   20.6543 C   0  0  0  0  0  0  0  0  0  0  0  0
  -24.2086  -29.8944   21.7549 C   0  0  0  0  0  0  0  0  0  0  0  0
  -30.6791  -15.0562   20.5643 C   0  0  0  0  0  0  0  0  0  0  0  0
  -21.2528  -28.2651   22.2608 C   0  0  0  0  0  0  0  0  0  0  0  0
  -30.8746  -33.1402   19.3334 C   0  0  0  0  0  0  0  0  0  0  0  0
  -25.9772  -28.8974   18.6741 C   0  0  0  0  0  0  0  0  0  0  0  0
  -25.1290  -27.6121   21.1987 C   0  0  0  0  0  0  0  0  0  0  0  0
  -29.6621  -33.1512   20.2608 C   0  0  0  0  0  0  0  0  0  0  0  0
  -29.2899  -12.9772   17.9976 C   0  0  0  0  0  0  0  0  0  0  0  0
  -29.6653  -31.9177   21.1582 C   0  0  0  0  0  0  0  0  0  0  0  0
  -27.7868  -13.2305   18.1047 C   0  0  0  0  0  0  0  0  0  0  0  0
  -29.9616  -13.0153   19.3667 C   0  0  0  0  0  0  0  0  0  0  0  0
  -28.2113  -14.5313   20.2385 C   0  0  0  0  0  0  0  0  0  0  0  0
  -29.5763  -30.6314   20.3282 C   0  0  1  0  0  0  0  0  0  0  0  0
  -25.9166  -29.6703   19.9880 C   0  0  1  0  0  0  0  0  0  0  0  0
  -27.4990  -14.5319   18.8743 C   0  0  2  0  0  0  0  0  0  0  0  0
  -31.2461  -17.4788   18.6142 C   0  0  0  0  0  0  0  0  0  0  0  0
  -18.9567  -28.6010   23.2160 C   0  0  0  0  0  0  0  0  0  0  0  0
  -29.4095  -15.9431   22.4941 C   0  0  0  0  0  0  0  0  0  0  0  0
  -31.5859  -16.9442   21.7970 C   0  0  0  0  0  0  0  0  0  0  0  0
  -25.3510  -29.6668   24.5750 C   0  0  0  0  0  0  0  0  0  0  0  0
  -23.0599  -29.0562   25.3788 C   0  0  0  0  0  0  0  0  0  0  0  0
  -23.4622  -31.2893   24.3425 C   0  0  0  0  0  0  0  0  0  0  0  0
  -24.2795  -20.5346   20.7142 C   0  0  0  0  0  0  0  0  0  0  0  0
  -24.7334  -21.1868   18.3360 C   0  0  0  0  0  0  0  0  0  0  0  0
  -19.9632  -27.7391   19.6494 C   0  0  0  0  0  0  0  0  0  0  0  0
  -26.5973  -18.9248   19.4847 C   0  0  0  0  0  0  0  0  0  0  0  0
  -26.6597  -20.4209   19.8229 C   0  0  0  0  0  0  0  0  0  0  0  0
  -25.5349  -22.6537   20.1907 C   0  0  0  0  0  0  0  0  0  1  0  0
  -23.4541  -29.2273   22.8796 C   0  0  1  0  0  0  0  0  0  0  0  0
  -19.8186  -28.6650   21.9647 C   0  0  2  0  0  0  0  0  0  0  0  0
  -30.2754  -16.3212   21.2791 C   0  0  0  0  0  0  0  0  0  0  0  0
  -23.8445  -29.7947   24.2735 C   0  0  0  0  0  0  0  0  0  0  0  0
  -25.3047  -21.1826   19.7651 C   0  0  0  0  0  0  0  0  0  0  0  0
  -25.3734  -14.3378   20.1101 N   0  0  0  0  0  0  0  0  0  0  0  0
  -28.9318  -18.4125   18.6915 N   0  0  0  0  0  0  0  0  0  0  0  0
  -28.2612  -17.5168   20.6867 N   0  0  0  0  0  0  0  0  0  0  0  0
  -26.0091  -14.7850   19.0138 N   0  0  0  0  0  0  0  0  0  0  0  0
  -29.5203  -17.1642   20.3857 N   0  0  0  0  0  0  0  0  0  0  0  0
  -25.0086  -29.0601   20.9614 N   0  0  0  0  0  0  0  0  0  0  0  0
  -29.6457  -14.2570   20.0749 N   0  0  0  0  0  0  0  0  0  0  0  0
  -25.6733  -15.9497   16.9787 N   0  0  0  0  0  0  0  0  0  0  0  0
  -21.5523  -15.8675   18.8245 N   0  0  0  0  0  0  0  0  0  0  0  0
  -28.2178  -30.4121   19.8800 N   0  0  0  0  0  0  0  0  0  0  0  0
  -22.0377  -29.3597   22.5559 N   0  0  0  0  0  0  0  0  0  0  0  0
  -19.2287  -27.7573   20.9406 N   0  3  0  0  0  0  0  0  0  0  0  0
  -22.7635  -16.5573   17.0035 O   0  0  0  0  0  0  0  0  0  0  0  0
  -27.4108  -29.3480   21.7876 O   0  0  0  0  0  0  0  0  0  0  0  0
  -24.0867  -31.1097   21.5823 O   0  0  0  0  0  0  0  0  0  0  0  0
  -31.8775  -14.7896   20.4428 O   0  0  0  0  0  0  0  0  0  0  0  0
  -21.6374  -27.0980   22.2366 O   0  0  0  0  0  0  0  0  0  0  0  0
  -20.1747  -13.5595   23.7041 O   0  0  0  0  0  0  0  0  0  0  0  0
  -26.4834  -23.2943   19.3385 O   0  0  0  0  0  0  0  0  0  1  0  0
  -20.0787   -8.4642   25.8095 F   0  0  0  0  0  0  0  0  0  0  0  0
  -17.9462  -11.9486   23.4187 F   0  0  0  0  0  0  0  0  0  0  0  0
  1  2  1  0  0  0  0
  1  5  2  0  0  0  0
  2  6  2  0  0  0  0
  3  8  2  0  0  0  0
  3 15  1  0  0  0  0
  4  9  1  0  0  0  0
  4 15  2  0  0  0  0
  5 17  1  0  0  0  0
  6 19  1  0  0  0  0
  7 10  2  0  0  0  0
  7 18  1  0  0  0  0
  8 21  1  0  0  0  0
  9 21  2  0  0  0  0
 10 22  1  0  0  0  0
 11 12  2  0  0  0  0
 11 23  1  0  0  0  0
 12 24  1  0  0  0  0
 13 20  1  0  0  0  0
 13 22  2  0  0  0  0
 14 24  2  0  0  0  0
 14 25  1  0  0  0  0
 15 26  1  0  0  0  0
 16 26  1  0  0  0  0
 16 27  2  0  0  0  0
 16 30  1  0  0  0  0
 17 19  2  0  0  0  0
 17 35  1  0  0  0  0
 18 20  2  0  0  0  0
 18 36  1  0  0  0  0
 19 44  1  0  0  0  0
 20 37  1  0  0  0  0
 21 82  1  0  0  0  0
 22 83  1  0  0  0  0
 23 25  2  0  0  0  0
 23 82  1  0  0  0  0
 24 84  1  0  0  0  0
 25 85  1  0  0  0  0
 26 65  2  0  0  0  0
 27 68  1  0  0  0  0
 27 72  1  0  0  0  0
 28 57  1  0  0  0  0
 28 66  1  0  0  0  0
 28 67  2  0  0  0  0
 29 47  1  0  0  0  0
 29 66  2  0  0  0  0
 29 69  1  0  0  0  0
 30 73  1  0  0  0  0
 30 77  2  0  0  0  0
 31 45  1  0  0  0  0
 31 74  1  0  0  0  0
 31 78  2  0  0  0  0
 32 60  1  0  0  0  0
 32 70  1  0  0  0  0
 32 79  2  0  0  0  0
 33 62  1  0  0  0  0
 33 71  1  0  0  0  0
 33 80  2  0  0  0  0
 34 61  1  0  0  0  0
 34 75  1  0  0  0  0
 34 81  2  0  0  0  0
 35 38  1  0  0  0  0
 36 45  1  0  0  0  0
 37 70  1  0  0  0  0
 38 40  1  0  0  0  0
 39 41  1  0  0  0  0
 39 42  1  0  0  0  0
 40 44  1  0  0  0  0
 41 46  1  0  0  0  0
 42 71  1  0  0  0  0
 43 46  1  0  0  0  0
 43 71  1  0  0  0  0
 44 74  1  0  0  0  0
 45 70  1  0  0  0  0
 46 68  1  0  0  0  0
 48 61  1  0  0  0  0
 49 62  1  0  0  0  0
 50 62  1  0  0  0  0
 51 63  1  0  0  0  0
 52 63  1  0  0  0  0
 53 63  1  0  0  0  0
 54 64  1  0  0  0  0
 55 64  1  0  0  0  0
 56 76  1  0  0  0  0
 57 58  1  0  0  0  0
 58 64  1  0  0  0  0
 59 64  1  0  0  0  0
 59 83  1  0  0  0  0
 60 63  1  0  0  0  0
 60 75  1  0  0  0  0
 61 76  1  0  0  0  0
 62 69  1  0  0  0  0
 65 68  1  0  0  0  0
 67 69  1  0  0  0  0
M  CHG  1  76   1
M  ISO  4  33 100  59 101  62 100  83 101
M  END
> <Batch ID>
0063

> <Smiles>
CNC(C)C(=O)NC(C(=O)N1Cc2cc([101O:1][101CH2:1]C(C)(C)CCc3nc(C)n([100C:0](C)(C)[100C:0](=O)N4CCCC(n5nc(-c6ccc(Oc7ccc(F)cc7F)cc6)c(C(N)=O)c5N)C4)n3)ccc2CC1C(=O)NC1CCCc2ccccc21)C(C)(C)C

> <Shape>
0.226

> <Color>
0.057

> <Negative vol penalty>
0.000

$$$$

  -OEChem-04052318022D

  0  0  0     0  0  0  0  0  0999 V2000
M  END
$$$$

  -OEChem-04052318023D

 89 97  0     1  0  0  0  0  0999 V2000
  -16.1176  -26.2323   24.5755 C   0  0  0  0  0  0  0  0  0  0  0  0
  -17.0830  -25.2404   24.7149 C   0  0  0  0  0  0  0  0  0  0  0  0
  -24.2719  -16.8639   21.3938 C   0  0  0  0  0  0  0  0  0  0  0  0
  -25.4548  -16.2100   23.3964 C   0  0  0  0  0  0  0  0  0  0  0  0
  -16.4192  -27.4047   23.8836 C   0  0  0  0  0  0  0  0  0  0  0  0
  -18.3503  -25.4197   24.1615 C   0  0  0  0  0  0  0  0  0  0  0  0
  -25.2296  -23.7932   25.3213 C   0  0  0  0  0  0  0  0  0  0  0  0
  -23.9796  -18.1000   21.9701 C   0  0  0  0  0  0  0  0  0  0  0  0
  -25.1625  -17.4462   23.9727 C   0  0  0  0  0  0  0  0  0  0  0  0
  -26.3254  -23.2229   24.6748 C   0  0  0  0  0  0  0  0  0  0  0  0
  -21.7794  -19.3435   24.2145 C   0  0  0  0  0  0  0  0  0  0  0  0
  -20.4763  -19.8246   24.0882 C   0  0  0  0  0  0  0  0  0  0  0  0
  -26.7581  -25.3227   23.5690 C   0  0  0  0  0  0  0  0  0  0  0  0
  -21.3081  -21.7724   22.9258 C   0  0  0  0  0  0  0  0  0  0  0  0
  -28.8322  -17.5142   18.8453 C   0  0  0  0  0  0  0  0  0  0  0  0
  -25.0095  -15.9189   22.1070 C   0  0  0  0  0  0  0  0  0  0  0  0
  -24.3922  -13.6744   21.0634 C   0  0  0  0  0  0  0  0  0  0  0  0
  -17.6938  -27.6026   23.3298 C   0  0  0  0  0  0  0  0  0  0  0  0
  -24.8828  -25.1317   25.0878 C   0  0  0  0  0  0  0  0  0  0  0  0
  -18.6688  -26.5952   23.4605 C   0  0  0  0  0  0  0  0  0  0  0  0
  -25.6591  -25.9083   24.2157 C   0  0  0  0  0  0  0  0  0  0  0  0
  -24.4249  -18.3912   23.2595 C   0  0  0  0  0  0  0  0  0  0  0  0
  -27.0880  -23.9868   23.7963 C   0  0  0  0  0  0  0  0  0  0  0  0
  -22.8469  -20.0768   23.6966 C   0  0  0  0  0  0  0  0  0  0  0  0
  -20.2406  -21.0391   23.4438 C   0  0  0  0  0  0  0  0  0  0  0  0
  -22.6113  -21.2913   23.0522 C   0  0  0  0  0  0  0  0  0  0  0  0
  -25.3113  -14.6415   21.5125 C   0  0  0  0  0  0  0  0  0  0  0  0
  -25.1753  -12.6517   20.5867 C   0  0  0  0  0  0  0  0  0  0  0  0
  -30.4305  -16.2278   19.2300 C   0  0  0  0  0  0  0  0  0  0  0  0
  -22.9587  -13.6984   21.0760 C   0  0  0  0  0  0  0  0  0  0  0  0
  -22.3387  -26.6135   23.8896 C   0  0  0  0  0  0  0  0  0  0  0  0
  -23.9483  -29.2791   24.7985 C   0  0  0  0  0  0  0  0  0  0  0  0
  -26.9404  -30.7488   25.5294 C   0  0  0  0  0  0  0  0  0  0  0  0
  -30.8348  -12.7766   18.4245 C   0  0  0  0  0  0  0  0  0  0  0  0
  -17.9583  -28.8661   22.5499 C   0  0  0  0  0  0  0  0  0  0  0  0
  -23.7139  -25.7395   25.8134 C   0  0  0  0  0  0  0  0  0  0  0  0
  -25.3408  -27.3556   23.9462 C   0  0  0  0  0  0  0  0  0  0  0  0
  -19.4420  -29.1383   22.3161 C   0  0  0  0  0  0  0  0  0  0  0  0
  -29.6423  -11.0113   21.5313 C   0  0  0  0  0  0  0  0  0  0  0  0
  -20.1484  -27.8728   21.8405 C   0  0  0  0  0  0  0  0  0  0  0  0
  -28.1466  -11.3296   21.5460 C   0  0  0  0  0  0  0  0  0  0  0  0
  -30.2384  -11.1133   20.1354 C   0  0  0  0  0  0  0  0  0  0  0  0
  -28.8831  -13.2111   19.9994 C   0  0  0  0  0  0  0  0  0  0  0  0
  -20.0627  -26.7634   22.8957 C   0  0  1  0  0  0  0  0  0  0  0  0
  -23.1448  -26.9664   25.1076 C   0  0  1  0  0  0  0  0  0  0  0  0
  -27.7258  -12.2862   20.4145 C   0  0  2  0  0  0  0  0  0  0  0  0
  -32.8365  -15.4876   19.3870 C   0  0  0  0  0  0  0  0  0  0  0  0
  -27.9420  -32.9489   26.2029 C   0  0  0  0  0  0  0  0  0  0  0  0
  -32.8827  -13.8639   16.5140 C   0  0  0  0  0  0  0  0  0  0  0  0
  -30.4949  -14.3532   15.8957 C   0  0  0  0  0  0  0  0  0  0  0  0
  -23.6154  -30.3020   21.9432 C   0  0  0  0  0  0  0  0  0  0  0  0
  -25.4023  -31.9912   22.4142 C   0  0  0  0  0  0  0  0  0  0  0  0
  -23.2755  -32.0316   23.7173 C   0  0  0  0  0  0  0  0  0  0  0  0
  -27.2891  -19.7543   20.9689 C   0  0  0  0  0  0  0  0  0  0  0  0
  -29.2230  -19.1975   22.4304 C   0  0  0  0  0  0  0  0  0  0  0  0
  -30.4112  -22.0458   21.9172 C   0  0  0  0  0  0  0  0  0  0  0  0
  -28.4714  -22.5804   20.4650 C   0  0  0  0  0  0  0  0  0  0  0  0
  -27.9923  -29.6276   28.0583 C   0  0  0  0  0  0  0  0  0  0  0  0
  -29.6267  -19.7481   19.9751 C   0  0  0  0  0  0  0  0  0  0  0  0
  -28.0958  -22.0338   22.8873 C   0  0  0  0  0  0  0  0  0  1  0  0
  -31.3418  -15.0904   19.3202 C   0  0  2  0  0  0  0  0  0  0  0  0
  -24.9572  -30.1932   24.1463 C   0  0  1  0  0  0  0  0  0  0  0  0
  -27.3755  -31.6245   26.6905 C   0  0  2  0  0  0  0  0  0  0  0  0
  -31.5983  -14.5743   16.9223 C   0  0  0  0  0  0  0  0  0  0  0  0
  -24.3177  -31.1017   23.0587 C   0  0  0  0  0  0  0  0  0  0  0  0
  -28.7745  -20.0985   21.2508 C   0  0  0  0  0  0  0  0  0  0  0  0
  -28.9344  -21.6631   21.6277 C   0  0  0  0  0  0  0  0  0  0  0  0
  -29.2569  -16.2324   18.6417 N   0  0  0  0  0  0  0  0  0  0  0  0
  -26.5812  -14.2667   21.3369 N   0  0  0  0  0  0  0  0  0  0  0  0
  -30.6833  -17.4560   19.7566 N   0  0  0  0  0  0  0  0  0  0  0  0
  -29.6693  -18.3029   19.5225 N   0  0  0  0  0  0  0  0  0  0  0  0
  -26.4656  -13.0526   20.7723 N   0  0  0  0  0  0  0  0  0  0  0  0
  -24.1844  -27.9026   24.6750 N   0  0  0  0  0  0  0  0  0  0  0  0
  -30.0564  -12.4427   19.5461 N   0  0  0  0  0  0  0  0  0  0  0  0
  -24.8792  -11.4575   20.0312 N   0  0  0  0  0  0  0  0  0  0  0  0
  -22.2918  -13.1899   22.1989 N   0  0  0  0  0  0  0  0  0  0  0  0
  -21.0146  -27.0027   23.9591 N   0  0  0  0  0  0  0  0  0  0  0  0
  -25.6060  -30.9241   25.2295 N   0  0  0  0  0  0  0  0  0  0  0  0
  -31.1626  -14.1267   18.2379 N   0  0  0  0  0  0  0  0  0  0  0  0
  -28.4219  -30.9340   27.4964 N   0  3  0  0  0  0  0  0  0  0  0  0
  -22.2887  -14.1422   20.1128 O   0  0  0  0  0  0  0  0  0  0  0  0
  -22.8784  -26.0324   22.9554 O   0  0  0  0  0  0  0  0  0  0  0  0
  -22.9900  -29.7684   25.4017 O   0  0  0  0  0  0  0  0  0  0  0  0
  -27.7084  -29.9883   24.9443 O   0  0  0  0  0  0  0  0  0  0  0  0
  -31.2099  -11.9081   17.6252 O   0  0  0  0  0  0  0  0  0  0  0  0
  -24.1400  -19.5974   23.8221 O   0  0  0  0  0  0  0  0  0  0  0  0
  -28.1577  -23.4325   23.1634 O   0  0  0  0  0  0  0  0  0  1  0  0
  -18.9890  -21.5002   23.3213 F   0  0  0  0  0  0  0  0  0  0  0  0
  -23.6327  -21.9997   22.5515 F   0  0  0  0  0  0  0  0  0  0  0  0
  1  2  1  0  0  0  0
  1  5  2  0  0  0  0
  2  6  2  0  0  0  0
  3  8  2  0  0  0  0
  3 16  1  0  0  0  0
  4  9  1  0  0  0  0
  4 16  2  0  0  0  0
  5 18  1  0  0  0  0
  6 20  1  0  0  0  0
  7 10  2  0  0  0  0
  7 19  1  0  0  0  0
  8 22  1  0  0  0  0
  9 22  2  0  0  0  0
 10 23  1  0  0  0  0
 11 12  2  0  0  0  0
 11 24  1  0  0  0  0
 12 25  1  0  0  0  0
 13 21  1  0  0  0  0
 13 23  2  0  0  0  0
 14 25  2  0  0  0  0
 14 26  1  0  0  0  0
 15 68  2  0  0  0  0
 15 71  1  0  0  0  0
 16 27  1  0  0  0  0
 17 27  1  0  0  0  0
 17 28  2  0  0  0  0
 17 30  1  0  0  0  0
 18 20  2  0  0  0  0
 18 35  1  0  0  0  0
 19 21  2  0  0  0  0
 19 36  1  0  0  0  0
 20 44  1  0  0  0  0
 21 37  1  0  0  0  0
 22 86  1  0  0  0  0
 23 87  1  0  0  0  0
 24 26  2  0  0  0  0
 24 86  1  0  0  0  0
 25 88  1  0  0  0  0
 26 89  1  0  0  0  0
 27 69  2  0  0  0  0
 28 72  1  0  0  0  0
 28 75  1  0  0  0  0
 29 61  1  0  0  0  0
 29 68  1  0  0  0  0
 29 70  2  0  0  0  0
 30 76  1  0  0  0  0
 30 81  2  0  0  0  0
 31 45  1  0  0  0  0
 31 77  1  0  0  0  0
 31 82  2  0  0  0  0
 32 62  1  0  0  0  0
 32 73  1  0  0  0  0
 32 83  2  0  0  0  0
 33 63  1  0  0  0  0
 33 78  1  0  0  0  0
 33 84  2  0  0  0  0
 34 74  1  0  0  0  0
 34 79  1  0  0  0  0
 34 85  2  0  0  0  0
 35 38  1  0  0  0  0
 36 45  1  0  0  0  0
 37 73  1  0  0  0  0
 38 40  1  0  0  0  0
 39 41  1  0  0  0  0
 39 42  1  0  0  0  0
 40 44  1  0  0  0  0
 41 46  1  0  0  0  0
 42 74  1  0  0  0  0
 43 46  1  0  0  0  0
 43 74  1  0  0  0  0
 44 77  1  0  0  0  0
 45 73  1  0  0  0  0
 46 72  1  0  0  0  0
 47 61  1  0  0  0  0
 48 63  1  0  0  0  0
 49 64  1  0  0  0  0
 50 64  1  0  0  0  0
 51 65  1  0  0  0  0
 52 65  1  0  0  0  0
 53 65  1  0  0  0  0
 54 66  1  0  0  0  0
 55 66  1  0  0  0  0
 56 67  1  0  0  0  0
 57 67  1  0  0  0  0
 58 80  1  0  0  0  0
 59 66  1  0  0  0  0
 59 71  1  0  0  0  0
 60 67  1  0  0  0  0
 60 87  1  0  0  0  0
 61 79  1  0  0  0  0
 62 65  1  0  0  0  0
 62 78  1  0  0  0  0
 63 80  1  0  0  0  0
 64 79  1  0  0  0  0
 66 67  1  0  0  0  0
 69 72  1  0  0  0  0
 70 71  1  0  0  0  0
M  CHG  1  80   1
M  ISO  4  34 100  60 101  79 100  87 101
M  END
> <Batch ID>
0063

> <Smiles>
CNC(C)C(=O)NC(C(=O)N1Cc2cc([101O:1][101CH2:1]C(C)(C)C(C)(C)Cn3cnc(C(C)[100N:0](C(C)C)[100C:0](=O)N4CCCC(n5nc(-c6ccc(Oc7ccc(F)cc7F)cc6)c(C(N)=O)c5N)C4)n3)ccc2CC1C(=O)NC1CCCc2ccccc21)C(C)(C)C

> <Shape>
0.241

> <Color>
0.071

> <Negative vol penalty>
0.000

$$$$

  -OEChem-04052318023D

 90 98  0     1  0  0  0  0  0999 V2000
  -17.6202  -26.2695   25.4143 C   0  0  0  0  0  0  0  0  0  0  0  0
  -18.8538  -25.6446   25.5663 C   0  0  0  0  0  0  0  0  0  0  0  0
  -23.5599  -17.2322   20.9056 C   0  0  0  0  0  0  0  0  0  0  0  0
  -24.1966  -17.0546   18.5818 C   0  0  0  0  0  0  0  0  0  0  0  0
  -17.4384  -27.2146   24.4056 C   0  0  0  0  0  0  0  0  0  0  0  0
  -19.9062  -25.9639   24.7089 C   0  0  0  0  0  0  0  0  0  0  0  0
  -27.0439  -26.5634   24.6130 C   0  0  0  0  0  0  0  0  0  0  0  0
  -22.8952  -18.4275   20.6322 C   0  0  0  0  0  0  0  0  0  0  0  0
  -23.5319  -18.2500   18.3084 C   0  0  0  0  0  0  0  0  0  0  0  0
  -28.1522  -26.1221   23.8914 C   0  0  0  0  0  0  0  0  0  0  0  0
  -23.7058  -21.6721   20.1421 C   0  0  0  0  0  0  0  0  0  0  0  0
  -23.9006  -22.7370   21.0217 C   0  0  0  0  0  0  0  0  0  0  0  0
  -27.7456  -27.8281   22.2351 C   0  0  0  0  0  0  0  0  0  0  0  0
  -31.0169  -21.8781   18.5637 C   0  0  0  0  0  0  0  0  0  0  0  0
  -21.5319  -22.7786   21.4959 C   0  0  0  0  0  0  0  0  0  0  0  0
  -28.8584  -21.4081   18.1278 C   0  0  0  0  0  0  0  0  0  0  0  0
  -24.2107  -16.5457   19.8805 C   0  0  0  0  0  0  0  0  0  0  0  0
  -24.3626  -14.0100   20.1149 C   0  0  0  0  0  0  0  0  0  0  0  0
  -18.4918  -27.5527   23.5416 C   0  0  0  0  0  0  0  0  0  0  0  0
  -26.2704  -27.6352   24.1447 C   0  0  0  0  0  0  0  0  0  0  0  0
  -19.7379  -26.9135   23.6869 C   0  0  0  0  0  0  0  0  0  0  0  0
  -26.6295  -28.2827   22.9539 C   0  0  0  0  0  0  0  0  0  0  0  0
  -30.0147  -20.8813   18.6596 C   0  0  0  0  0  0  0  0  0  0  0  0
  -22.8811  -18.9365   19.3336 C   0  0  0  0  0  0  0  0  0  0  0  0
  -28.5015  -26.7526   22.7008 C   0  0  0  0  0  0  0  0  0  0  0  0
  -22.4240  -21.1605   19.9393 C   0  0  0  0  0  0  0  0  0  0  0  0
  -22.8136  -23.2902   21.6986 C   0  0  0  0  0  0  0  0  0  0  0  0
  -21.3371  -21.7138   20.6162 C   0  0  0  0  0  0  0  0  0  0  0  0
  -24.8980  -15.3111   20.1624 C   0  0  0  0  0  0  0  0  0  0  0  0
  -30.4424  -22.9838   17.9765 C   0  0  0  0  0  0  0  0  0  0  0  0
  -25.4111  -13.1943   20.4636 C   0  0  0  0  0  0  0  0  0  0  0  0
  -23.0360  -13.5775   19.7849 C   0  0  0  0  0  0  0  0  0  0  0  0
  -23.2440  -27.9904   23.2398 C   0  0  0  0  0  0  0  0  0  0  0  0
  -24.0703  -31.1227   23.0701 C   0  0  0  0  0  0  0  0  0  0  0  0
  -26.5373  -33.4527   22.7073 C   0  0  0  0  0  0  0  0  0  0  0  0
  -29.2675  -16.9777   20.6495 C   0  0  0  0  0  0  0  0  0  0  0  0
  -18.2337  -28.5458   22.4362 C   0  0  0  0  0  0  0  0  0  0  0  0
  -25.0936  -28.1163   24.9484 C   0  0  0  0  0  0  0  0  0  0  0  0
  -25.8438  -29.4508   22.4184 C   0  0  0  0  0  0  0  0  0  0  0  0
  -19.5086  -29.1017   21.8069 C   0  0  0  0  0  0  0  0  0  0  0  0
  -28.2600  -14.7598   23.3645 C   0  0  0  0  0  0  0  0  0  0  0  0
  -20.4912  -27.9742   21.5067 C   0  0  0  0  0  0  0  0  0  0  0  0
  -28.0170  -13.4483   22.6262 C   0  0  0  0  0  0  0  0  0  0  0  0
  -29.4144  -15.5527   22.7576 C   0  0  0  0  0  0  0  0  0  0  0  0
  -28.9928  -14.5213   20.5349 C   0  0  0  0  0  0  0  0  0  0  0  0
  -20.9108  -27.2512   22.7923 C   0  0  1  0  0  0  0  0  0  0  0  0
  -24.0749  -28.8867   24.1140 C   0  0  1  0  0  0  0  0  0  0  0  0
  -27.8785  -13.6265   21.1060 C   0  0  2  0  0  0  0  0  0  0  0  0
  -32.4870  -17.7718   21.1066 C   0  0  0  0  0  0  0  0  0  0  0  0
  -31.5774  -18.9240   18.8980 C   0  0  0  0  0  0  0  0  0  0  0  0
  -26.9007  -35.9319   22.5705 C   0  0  0  0  0  0  0  0  0  0  0  0
  -32.5485  -24.3355   18.0591 C   0  0  0  0  0  0  0  0  0  0  0  0
  -31.0485  -24.6755   16.1157 C   0  0  0  0  0  0  0  0  0  0  0  0
  -23.0143  -31.1170   20.2074 C   0  0  0  0  0  0  0  0  0  0  0  0
  -24.2426  -33.2647   19.8241 C   0  0  0  0  0  0  0  0  0  0  0  0
  -22.4275  -33.1557   21.5318 C   0  0  0  0  0  0  0  0  0  0  0  0
  -28.3555  -19.7480   21.0693 C   0  0  0  0  0  0  0  0  0  0  0  0
  -30.7134  -20.3085   21.6113 C   0  0  0  0  0  0  0  0  0  0  0  0
  -28.1662  -23.5731   17.1016 C   0  0  0  0  0  0  0  0  0  0  0  0
  -28.2500  -33.4519   25.1209 C   0  0  0  0  0  0  0  0  0  0  0  0
  -30.3399  -25.3706   19.9244 C   0  0  0  0  0  0  0  0  0  0  0  0
  -30.3464  -25.5079   18.3971 C   0  0  0  0  0  0  0  0  0  0  0  0
  -31.2552  -17.7819   21.9891 C   0  0  0  0  0  0  0  0  0  0  0  0
  -29.5412  -26.4921   20.5778 C   0  0  0  0  0  0  0  0  0  1  0  0
  -30.1782  -19.5281   19.2241 C   0  0  1  0  0  0  0  0  0  0  0  0
  -24.6384  -32.0219   21.9989 C   0  0  1  0  0  0  0  0  0  0  0  0
  -26.8500  -34.7181   23.4853 C   0  0  2  0  0  0  0  0  0  0  0  0
  -31.0598  -24.3506   17.6290 C   0  0  0  0  0  0  0  0  0  0  0  0
  -23.5946  -32.3666   20.8994 C   0  0  0  0  0  0  0  0  0  0  0  0
  -29.8209  -19.3746   20.7692 C   0  0  0  0  0  0  0  0  0  0  0  0
  -26.1866  -15.3259   20.5138 N   0  0  0  0  0  0  0  0  0  0  0  0
  -29.1301  -22.6867   17.7161 N   0  0  0  0  0  0  0  0  0  0  0  0
  -26.4695  -14.0241   20.6904 N   0  0  0  0  0  0  0  0  0  0  0  0
  -24.6980  -29.8802   23.2371 N   0  0  0  0  0  0  0  0  0  0  0  0
  -29.2528  -15.7376   21.3097 N   0  0  0  0  0  0  0  0  0  0  0  0
  -25.5217  -11.8553   20.5955 N   0  0  0  0  0  0  0  0  0  0  0  0
  -22.0811  -14.5471   19.4499 N   0  0  0  0  0  0  0  0  0  0  0  0
  -21.8906  -28.0333   23.5152 N   0  0  0  0  0  0  0  0  0  0  0  0
  -25.1848  -33.1850   22.6898 N   0  0  0  0  0  0  0  0  0  0  0  0
  -30.0370  -18.0050   21.2138 N   0  0  0  0  0  0  0  0  0  0  0  0
  -28.1665  -34.5920   24.1721 N   0  3  0  0  0  0  0  0  0  0  0  0
  -22.7029  -12.3683   19.8030 O   0  0  0  0  0  0  0  0  0  0  0  0
  -23.7903  -27.3115   22.3783 O   0  0  0  0  0  0  0  0  0  0  0  0
  -23.1095  -31.5114   23.7391 O   0  0  0  0  0  0  0  0  0  0  0  0
  -27.4056  -32.7720   22.1659 O   0  0  0  0  0  0  0  0  0  0  0  0
  -28.6221  -17.1641   19.6093 O   0  0  0  0  0  0  0  0  0  0  0  0
  -22.2324  -20.1028   19.0663 O   0  0  0  0  0  0  0  0  0  0  0  0
  -29.5825  -26.3235   21.9942 O   0  0  0  0  0  0  0  0  0  1  0  0
  -23.0011  -24.3118   22.5444 F   0  0  0  0  0  0  0  0  0  0  0  0
  -20.1035  -21.2258   20.4264 F   0  0  0  0  0  0  0  0  0  0  0  0
  1  2  1  0  0  0  0
  1  5  2  0  0  0  0
  2  6  2  0  0  0  0
  3  8  2  0  0  0  0
  3 17  1  0  0  0  0
  4  9  1  0  0  0  0
  4 17  2  0  0  0  0
  5 19  1  0  0  0  0
  6 21  1  0  0  0  0
  7 10  2  0  0  0  0
  7 20  1  0  0  0  0
  8 24  1  0  0  0  0
  9 24  2  0  0  0  0
 10 25  1  0  0  0  0
 11 12  2  0  0  0  0
 11 26  1  0  0  0  0
 12 27  1  0  0  0  0
 13 22  1  0  0  0  0
 13 25  2  0  0  0  0
 14 23  1  0  0  0  0
 14 30  2  0  0  0  0
 15 27  2  0  0  0  0
 15 28  1  0  0  0  0
 16 23  2  0  0  0  0
 16 72  1  0  0  0  0
 17 29  1  0  0  0  0
 18 29  1  0  0  0  0
 18 31  2  0  0  0  0
 18 32  1  0  0  0  0
 19 21  2  0  0  0  0
 19 37  1  0  0  0  0
 20 22  2  0  0  0  0
 20 38  1  0  0  0  0
 21 46  1  0  0  0  0
 22 39  1  0  0  0  0
 23 65  1  0  0  0  0
 24 87  1  0  0  0  0
 25 88  1  0  0  0  0
 26 28  2  0  0  0  0
 26 87  1  0  0  0  0
 27 89  1  0  0  0  0
 28 90  1  0  0  0  0
 29 71  2  0  0  0  0
 30 68  1  0  0  0  0
 30 72  1  0  0  0  0
 31 73  1  0  0  0  0
 31 76  1  0  0  0  0
 32 77  1  0  0  0  0
 32 82  2  0  0  0  0
 33 47  1  0  0  0  0
 33 78  1  0  0  0  0
 33 83  2  0  0  0  0
 34 66  1  0  0  0  0
 34 74  1  0  0  0  0
 34 84  2  0  0  0  0
 35 67  1  0  0  0  0
 35 79  1  0  0  0  0
 35 85  2  0  0  0  0
 36 75  1  0  0  0  0
 36 80  1  0  0  0  0
 36 86  2  0  0  0  0
 37 40  1  0  0  0  0
 38 47  1  0  0  0  0
 39 74  1  0  0  0  0
 40 42  1  0  0  0  0
 41 43  1  0  0  0  0
 41 44  1  0  0  0  0
 42 46  1  0  0  0  0
 43 48  1  0  0  0  0
 44 75  1  0  0  0  0
 45 48  1  0  0  0  0
 45 75  1  0  0  0  0
 46 78  1  0  0  0  0
 47 74  1  0  0  0  0
 48 73  1  0  0  0  0
 49 63  1  0  0  0  0
 50 65  1  0  0  0  0
 51 67  1  0  0  0  0
 52 68  1  0  0  0  0
 53 68  1  0  0  0  0
 54 69  1  0  0  0  0
 55 69  1  0  0  0  0
 56 69  1  0  0  0  0
 57 70  1  0  0  0  0
 58 70  1  0  0  0  0
 59 72  1  0  0  0  0
 60 81  1  0  0  0  0
 61 62  1  0  0  0  0
 61 64  1  0  0  0  0
 62 68  1  0  0  0  0
 63 80  1  0  0  0  0
 64 88  1  0  0  0  0
 65 70  1  0  0  0  0
 66 69  1  0  0  0  0
 66 79  1  0  0  0  0
 67 81  1  0  0  0  0
 70 80  1  0  0  0  0
 71 73  1  0  0  0  0
M  CHG  1  81   1
M  ISO  4  36 100  64 101  80 100  88 101
M  END
> <Batch ID>
0063

> <Smiles>
CC[100N:0]([100C:0](=O)N1CCCC(n2nc(-c3ccc(Oc4ccc(F)cc4F)cc3)c(C(N)=O)c2N)C1)C(C)(C)C(C)c1cc(C(C)(C)CC[101CH2:1][101O:1]c2ccc3c(c2)CN(C(=O)C(NC(=O)C(C)NC)C(C)(C)C)C(C(=O)NC2CCCc4ccccc42)C3)n(C)c1

> <Shape>
0.250

> <Color>
0.057

> <Negative vol penalty>
0.000

$$$$

  -OEChem-04052318023D

 84 92  0     1  0  0  0  0  0999 V2000
  -16.8273  -30.8491   23.5479 C   0  0  0  0  0  0  0  0  0  0  0  0
  -17.8897  -30.9574   24.4395 C   0  0  0  0  0  0  0  0  0  0  0  0
  -27.3010  -17.3587   20.4169 C   0  0  0  0  0  0  0  0  0  0  0  0
  -29.5709  -16.8992   19.7290 C   0  0  0  0  0  0  0  0  0  0  0  0
  -16.8757  -29.9102   22.5184 C   0  0  0  0  0  0  0  0  0  0  0  0
  -19.0008  -30.1260   24.3026 C   0  0  0  0  0  0  0  0  0  0  0  0
  -26.0952  -30.0801   25.2941 C   0  0  0  0  0  0  0  0  0  0  0  0
  -26.9150  -16.0873   19.9925 C   0  0  0  0  0  0  0  0  0  0  0  0
  -29.1850  -15.6278   19.3047 C   0  0  0  0  0  0  0  0  0  0  0  0
  -27.0906  -29.3300   25.9188 C   0  0  0  0  0  0  0  0  0  0  0  0
  -27.0988  -12.9140   21.1453 C   0  0  0  0  0  0  0  0  0  0  0  0
  -26.2767  -12.1699   21.9916 C   0  0  0  0  0  0  0  0  0  0  0  0
  -27.0987  -27.7991   24.0546 C   0  0  0  0  0  0  0  0  0  0  0  0
  -24.5833  -12.0836   20.2706 C   0  0  0  0  0  0  0  0  0  0  0  0
  -30.4532  -27.9357   24.4928 C   0  0  0  0  0  0  0  0  0  0  0  0
  -28.6290  -17.7647   20.2851 C   0  0  0  0  0  0  0  0  0  0  0  0
  -29.4899  -19.4444   22.0012 C   0  0  0  0  0  0  0  0  0  0  0  0
  -17.9921  -29.0735   22.3630 C   0  0  0  0  0  0  0  0  0  0  0  0
  -25.5855  -29.6886   24.0478 C   0  0  0  0  0  0  0  0  0  0  0  0
  -19.0636  -29.1740   23.2708 C   0  0  0  0  0  0  0  0  0  0  0  0
  -26.0987  -28.5474   23.4149 C   0  0  0  0  0  0  0  0  0  0  0  0
  -27.8570  -15.2218   19.4364 C   0  0  0  0  0  0  0  0  0  0  0  0
  -27.5905  -28.1877   25.3004 C   0  0  0  0  0  0  0  0  0  0  0  0
  -26.6631  -13.2429   19.8617 C   0  0  0  0  0  0  0  0  0  0  0  0
  -29.6303  -27.0327   25.1345 C   0  0  0  0  0  0  0  0  0  1  0  0
  -25.0190  -11.7547   21.5542 C   0  0  0  0  0  0  0  0  0  0  0  0
  -25.4053  -12.8277   19.4243 C   0  0  0  0  0  0  0  0  0  0  0  0
  -29.0282  -19.0782   20.7227 C   0  0  0  0  0  0  0  0  0  0  0  0
  -29.9463  -25.7020   24.9510 C   0  0  0  0  0  0  0  0  0  0  0  0
  -29.7345  -20.7925   21.9048 C   0  0  0  0  0  0  0  0  0  0  0  0
  -31.7106  -26.2514   23.6273 C   0  0  0  0  0  0  0  0  0  0  0  0
  -29.6808  -18.6381   23.1713 C   0  0  0  0  0  0  0  0  0  0  0  0
  -22.7280  -28.8084   22.9691 C   0  0  0  0  0  0  0  0  0  0  0  0
  -24.2284  -28.8633   20.0937 C   0  0  0  0  0  0  0  0  0  0  0  0
  -27.1549  -28.6699   18.3487 C   0  0  0  0  0  0  0  0  0  0  0  0
  -31.8158  -25.1762   19.1486 C   0  0  0  0  0  0  0  0  0  0  0  0
  -17.9783  -28.0414   21.2633 C   0  0  0  0  0  0  0  0  0  0  0  0
  -24.5308  -30.5234   23.3748 C   0  0  0  0  0  0  0  0  0  0  0  0
  -25.5996  -28.0957   22.0676 C   0  0  0  0  0  0  0  0  0  0  0  0
  -19.3548  -27.4546   20.9614 C   0  0  0  0  0  0  0  0  0  0  0  0
  -28.5347  -24.1049   18.2750 C   0  0  0  0  0  0  0  0  0  0  0  0
  -20.0690  -27.0758   22.2549 C   0  0  0  0  0  0  0  0  0  0  0  0
  -28.4113  -22.7299   18.9339 C   0  0  0  0  0  0  0  0  0  0  0  0
  -29.9461  -24.3533   17.7474 C   0  0  0  0  0  0  0  0  0  0  0  0
  -30.8970  -22.7910   19.3994 C   0  0  0  0  0  0  0  0  0  0  0  0
  -20.2969  -28.3069   23.1402 C   0  0  1  0  0  0  0  0  0  0  0  0
  -23.7216  -29.7450   22.3420 C   0  0  1  0  0  0  0  0  0  0  0  0
  -29.5061  -22.5171   19.9967 C   0  0  2  0  0  0  0  0  0  0  0  0
  -28.0592  -28.7106   16.0081 C   0  0  0  0  0  0  0  0  0  0  0  0
  -23.2455  -26.0064   19.6668 C   0  0  0  0  0  0  0  0  0  0  0  0
  -24.9240  -25.7784   17.8233 C   0  0  0  0  0  0  0  0  0  0  0  0
  -23.1013  -27.4722   17.6456 C   0  0  0  0  0  0  0  0  0  0  0  0
  -28.7845  -31.0790   18.8962 C   0  0  0  0  0  0  0  0  0  0  0  0
  -33.6827  -25.8594   20.6343 C   0  0  0  0  0  0  0  0  0  0  0  0
  -33.1303  -26.6988   21.7725 C   0  0  0  0  0  0  0  0  0  0  0  0
  -24.9991  -27.8595   19.2706 C   0  0  1  0  0  0  0  0  0  0  0  0
  -27.7263  -29.5365   17.2410 C   0  0  2  0  0  0  0  0  0  0  0  0
  -29.1223  -24.6389   25.5986 C   0  0  0  0  0  0  0  0  0  0  0  0
  -24.0757  -26.7863   18.6279 C   0  0  0  0  0  0  0  0  0  0  0  0
  -31.5062  -27.5786   23.7285 N   0  0  0  0  0  0  0  0  0  0  0  0
  -28.9812  -20.1104   19.8763 N   0  0  0  0  0  0  0  0  0  0  0  0
  -30.9832  -25.2742   24.2012 N   0  0  0  0  0  0  0  0  0  0  0  0
  -29.4164  -21.1384   20.6244 N   0  0  0  0  0  0  0  0  0  0  0  0
  -24.5633  -28.9418   21.4529 N   0  0  0  0  0  0  0  0  0  0  0  0
  -30.9365  -24.1362   18.8047 N   0  0  0  0  0  0  0  0  0  0  0  0
  -30.1884  -21.7039   22.7912 N   0  0  0  0  0  0  0  0  0  0  0  0
  -29.3807  -17.2710   23.0969 N   0  0  0  0  0  0  0  0  0  0  0  0
  -21.4131  -29.0848   22.6466 N   0  0  0  0  0  0  0  0  0  0  0  0
  -25.7772  -28.6320   18.3082 N   0  0  0  0  0  0  0  0  0  0  0  0
  -32.7188  -24.8892   20.1650 N   0  0  0  0  0  0  0  0  0  0  0  0
  -28.9708  -30.2138   17.7029 N   0  3  0  0  0  0  0  0  0  0  0  0
  -30.0893  -19.1188   24.2555 O   0  0  0  0  0  0  0  0  0  0  0  0
  -23.1251  -27.9011   23.6908 O   0  0  0  0  0  0  0  0  0  0  0  0
  -23.3662  -29.5573   19.5491 O   0  0  0  0  0  0  0  0  0  0  0  0
  -27.8604  -28.0822   19.1656 O   0  0  0  0  0  0  0  0  0  0  0  0
  -31.7941  -26.2806   18.5948 O   0  0  0  0  0  0  0  0  0  0  0  0
  -27.4807  -13.9810   19.0224 O   0  0  0  0  0  0  0  0  0  0  0  0
  -28.5616  -27.4533   25.9083 O   0  0  0  0  0  0  0  0  0  1  0  0
  -32.7765  -25.8507   22.8554 O   0  0  0  0  0  0  0  0  0  0  0  0
  -24.2303  -11.0389   22.3664 F   0  0  0  0  0  0  0  0  0  0  0  0
  -24.9818  -13.1396   18.1918 F   0  0  0  0  0  0  0  0  0  0  0  0
  -28.0878  -25.1278   26.3437 F   0  0  0  0  0  0  0  0  0  0  0  0
  -28.5464  -23.7778   24.7093 F   0  0  0  0  0  0  0  0  0  0  0  0
  -29.8496  -23.8574   26.4483 F   0  0  0  0  0  0  0  0  0  0  0  0
  1  2  1  0  0  0  0
  1  5  2  0  0  0  0
  2  6  2  0  0  0  0
  3  8  2  0  0  0  0
  3 16  1  0  0  0  0
  4  9  1  0  0  0  0
  4 16  2  0  0  0  0
  5 18  1  0  0  0  0
  6 20  1  0  0  0  0
  7 10  2  0  0  0  0
  7 19  1  0  0  0  0
  8 22  1  0  0  0  0
  9 22  2  0  0  0  0
 10 23  1  0  0  0  0
 11 12  2  0  0  0  0
 11 24  1  0  0  0  0
 12 26  1  0  0  0  0
 13 21  1  0  0  0  0
 13 23  2  0  0  0  0
 14 26  2  0  0  0  0
 14 27  1  0  0  0  0
 15 25  1  0  0  0  0
 15 60  2  0  0  0  0
 16 28  1  0  0  0  0
 17 28  1  0  0  0  0
 17 30  2  0  0  0  0
 17 32  1  0  0  0  0
 18 20  2  0  0  0  0
 18 37  1  0  0  0  0
 19 21  2  0  0  0  0
 19 38  1  0  0  0  0
 20 46  1  0  0  0  0
 21 39  1  0  0  0  0
 22 77  1  0  0  0  0
 23 78  1  0  0  0  0
 24 27  2  0  0  0  0
 24 77  1  0  0  0  0
 25 29  2  0  0  0  0
 25 78  1  0  0  0  0
 26 80  1  0  0  0  0
 27 81  1  0  0  0  0
 28 61  2  0  0  0  0
 29 58  1  0  0  0  0
 29 62  1  0  0  0  0
 30 63  1  0  0  0  0
 30 66  1  0  0  0  0
 31 60  1  0  0  0  0
 31 62  2  0  0  0  0
 31 79  1  0  0  0  0
 32 67  1  0  0  0  0
 32 72  2  0  0  0  0
 33 47  1  0  0  0  0
 33 68  1  0  0  0  0
 33 73  2  0  0  0  0
 34 56  1  0  0  0  0
 34 64  1  0  0  0  0
 34 74  2  0  0  0  0
 35 57  1  0  0  0  0
 35 69  1  0  0  0  0
 35 75  2  0  0  0  0
 36 65  1  0  0  0  0
 36 70  1  0  0  0  0
 36 76  2  0  0  0  0
 37 40  1  0  0  0  0
 38 47  1  0  0  0  0
 39 64  1  0  0  0  0
 40 42  1  0  0  0  0
 41 43  1  0  0  0  0
 41 44  1  0  0  0  0
 42 46  1  0  0  0  0
 43 48  1  0  0  0  0
 44 65  1  0  0  0  0
 45 48  1  0  0  0  0
 45 65  1  0  0  0  0
 46 68  1  0  0  0  0
 47 64  1  0  0  0  0
 48 63  1  0  0  0  0
 49 57  1  0  0  0  0
 50 59  1  0  0  0  0
 51 59  1  0  0  0  0
 52 59  1  0  0  0  0
 53 71  1  0  0  0  0
 54 55  1  0  0  0  0
 54 70  1  0  0  0  0
 55 79  1  0  0  0  0
 56 59  1  0  0  0  0
 56 69  1  0  0  0  0
 57 71  1  0  0  0  0
 58 82  1  0  0  0  0
 58 83  1  0  0  0  0
 58 84  1  0  0  0  0
 61 63  1  0  0  0  0
M  CHG  1  71   1
M  ISO  4  25 101  36 100  70 100  78 101
M  END
> <Batch ID>
0063

> <Smiles>
CNC(C)C(=O)NC(C(=O)N1Cc2cc([101O:1][101c:1]3cnc(OCC[100NH:0][100C:0](=O)N4CCCC(n5nc(-c6ccc(Oc7ccc(F)cc7F)cc6)c(C(N)=O)c5N)C4)nc3C(F)(F)F)ccc2CC1C(=O)NC1CCCc2ccccc21)C(C)(C)C

> <Shape>
0.256

> <Color>
0.078

> <Negative vol penalty>
0.000

$$$$

  -OEChem-04052318023D

 87 95  0     1  0  0  0  0  0999 V2000
  -19.8460  -11.1848   20.1530 C   0  0  0  0  0  0  0  0  0  0  0  0
  -20.4812  -12.3947   20.4143 C   0  0  0  0  0  0  0  0  0  0  0  0
  -19.4269  -26.1537   23.2244 C   0  0  0  0  0  0  0  0  0  0  0  0
  -20.1133  -27.8447   21.6412 C   0  0  0  0  0  0  0  0  0  0  0  0
  -20.5337   -9.9851   20.3309 C   0  0  0  0  0  0  0  0  0  0  0  0
  -21.8041  -12.4054   20.8550 C   0  0  0  0  0  0  0  0  0  0  0  0
  -26.0920  -16.5724   19.5301 C   0  0  0  0  0  0  0  0  0  0  0  0
  -18.2587  -26.8705   23.4835 C   0  0  0  0  0  0  0  0  0  0  0  0
  -18.9451  -28.5615   21.9002 C   0  0  0  0  0  0  0  0  0  0  0  0
  -26.5740  -17.6776   20.2302 C   0  0  0  0  0  0  0  0  0  0  0  0
  -17.7777  -30.6406   24.2971 C   0  0  0  0  0  0  0  0  0  0  0  0
  -17.8909  -32.0179   24.4864 C   0  0  0  0  0  0  0  0  0  0  0  0
  -28.3943  -16.3399   21.0767 C   0  0  0  0  0  0  0  0  0  0  0  0
  -16.4283  -32.3972   22.6011 C   0  0  0  0  0  0  0  0  0  0  0  0
  -30.1478  -26.2401   19.1407 C   0  0  0  0  0  0  0  0  0  0  0  0
  -20.3543  -26.6409   22.3033 C   0  0  0  0  0  0  0  0  0  0  0  0
  -21.7503  -24.9078   21.0562 C   0  0  0  0  0  0  0  0  0  0  0  0
  -21.8688   -9.9815   20.7647 C   0  0  0  0  0  0  0  0  0  0  0  0
  -26.7525  -15.3378   19.6069 C   0  0  0  0  0  0  0  0  0  0  0  0
  -22.5098  -11.2044   21.0402 C   0  0  0  0  0  0  0  0  0  0  0  0
  -27.9201  -15.2213   20.3746 C   0  0  0  0  0  0  0  0  0  0  0  0
  -18.0178  -28.0743   22.8214 C   0  0  0  0  0  0  0  0  0  0  0  0
  -27.7237  -17.5607   21.0059 C   0  0  0  0  0  0  0  0  0  0  0  0
  -16.9898  -30.1416   23.2598 C   0  0  0  0  0  0  0  0  0  0  0  0
  -17.2162  -32.8962   23.6384 C   0  0  0  0  0  0  0  0  0  0  0  0
  -16.3151  -31.0198   22.4119 C   0  0  0  0  0  0  0  0  0  0  0  0
  -21.5615  -25.9012   22.0356 C   0  0  0  0  0  0  0  0  0  0  0  0
  -23.0591  -24.5201   21.2083 C   0  0  0  0  0  0  0  0  0  0  0  0
  -29.7217  -24.6998   20.7164 C   0  0  0  0  0  0  0  0  0  0  0  0
  -28.5504  -26.6137   20.6722 C   0  0  0  0  0  0  0  0  0  0  0  0
  -20.8254  -24.3826   20.0948 C   0  0  0  0  0  0  0  0  0  0  0  0
  -25.9707  -12.4363   20.6430 C   0  0  0  0  0  0  0  0  0  0  0  0
  -28.8650  -11.6422   19.4122 C   0  0  0  0  0  0  0  0  0  0  0  0
  -31.9938  -12.6439   18.4878 C   0  0  0  0  0  0  0  0  0  0  0  0
  -27.6791  -27.6298   23.7625 C   0  0  0  0  0  0  0  0  0  0  0  0
  -22.5559   -8.6576   20.9879 C   0  0  0  0  0  0  0  0  0  0  0  0
  -26.2349  -14.1622   18.8243 C   0  0  0  0  0  0  0  0  0  0  0  0
  -28.6775  -13.9232   20.4740 C   0  0  0  0  0  0  0  0  0  0  0  0
  -24.0743   -8.7705   21.0985 C   0  0  0  0  0  0  0  0  0  0  0  0
  -26.5222  -24.1886   24.4843 C   0  0  0  0  0  0  0  0  0  0  0  0
  -24.4580   -9.9138   22.0326 C   0  0  0  0  0  0  0  0  0  0  0  0
  -25.1052  -24.1869   23.9132 C   0  0  0  0  0  0  0  0  0  0  0  0
  -26.9513  -25.5823   24.9327 C   0  0  0  0  0  0  0  0  0  0  0  0
  -25.4071  -26.6196   23.3037 C   0  0  0  0  0  0  0  0  0  0  0  0
  -23.9519  -11.2582   21.4959 C   0  0  1  0  0  0  0  0  0  0  0  0
  -26.6972  -12.8208   19.3852 C   0  0  1  0  0  0  0  0  0  0  0  0
  -24.9613  -25.2388   22.7996 C   0  0  2  0  0  0  0  0  0  0  0  0
  -34.1481  -11.7616   17.5508 C   0  0  0  0  0  0  0  0  0  0  0  0
  -29.5495  -10.4348   22.1294 C   0  0  0  0  0  0  0  0  0  0  0  0
  -31.9585  -10.4407   21.4473 C   0  0  0  0  0  0  0  0  0  0  0  0
  -30.3047   -9.0816   20.1665 C   0  0  0  0  0  0  0  0  0  0  0  0
  -29.0838  -21.0374   23.1471 C   0  0  0  0  0  0  0  0  0  0  0  0
  -30.4867  -20.3063   21.2276 C   0  0  0  0  0  0  0  0  0  0  0  0
  -27.8936  -19.7312   19.6029 C   0  0  0  0  0  0  0  0  0  0  0  0
  -26.5494  -20.3498   21.6123 C   0  0  0  0  0  0  0  0  0  0  0  0
  -28.8626  -29.2372   22.3150 C   0  0  0  0  0  0  0  0  0  0  0  0
  -31.8019  -14.3821   16.1003 C   0  0  0  0  0  0  0  0  0  0  0  0
  -30.0126  -23.3589   21.3475 C   0  0  0  0  0  0  0  0  0  0  0  0
  -27.4887  -27.4910   21.2431 C   0  0  0  0  0  0  0  0  0  0  0  0
  -28.9540  -22.3153   20.9543 C   0  0  0  0  0  0  0  0  0  0  0  0
  -30.2775  -11.5999   19.9434 C   0  0  1  0  0  0  0  0  0  0  0  0
  -32.8015  -12.3901   17.2278 C   0  0  2  0  0  0  0  0  0  0  0  0
  -30.5074  -10.4133   20.9215 C   0  0  0  0  0  0  0  0  0  0  0  0
  -29.1064  -20.9023   21.6033 C   0  0  0  0  0  0  0  0  0  0  0  0
  -27.9469  -19.9252   21.1283 C   0  0  0  0  0  0  0  0  0  1  0  0
  -30.4600  -25.0358   19.6465 N   0  0  0  0  0  0  0  0  0  0  0  0
  -29.2076  -27.0822   19.5991 N   0  0  0  0  0  0  0  0  0  0  0  0
  -22.6622  -26.1302   22.7567 N   0  0  0  0  0  0  0  0  0  0  0  0
  -28.7522  -25.4355   21.2838 N   0  0  0  0  0  0  0  0  0  0  0  0
  -23.5553  -25.2752   22.2300 N   0  0  0  0  0  0  0  0  0  0  0  0
  -28.1281  -12.8009   19.6955 N   0  0  0  0  0  0  0  0  0  0  0  0
  -26.7636  -26.5700   23.8695 N   0  0  0  0  0  0  0  0  0  0  0  0
  -23.8225  -23.6103   20.5664 N   0  0  0  0  0  0  0  0  0  0  0  0
  -19.5202  -24.8930   20.0752 N   0  0  0  0  0  0  0  0  0  0  0  0
  -24.8044  -11.7280   20.4249 N   0  0  0  0  0  0  0  0  0  0  0  0
  -31.1525  -11.5901   18.7761 N   0  0  0  0  0  0  0  0  0  0  0  0
  -27.9132  -28.1455   22.4788 N   0  0  0  0  0  0  0  0  0  0  0  0
  -33.0418  -13.6684   16.5004 N   0  3  0  0  0  0  0  0  0  0  0  0
  -21.1420  -23.4755   19.2882 O   0  0  0  0  0  0  0  0  0  0  0  0
  -26.4348  -12.7570   21.7309 O   0  0  0  0  0  0  0  0  0  0  0  0
  -28.4339  -10.6857   18.7635 O   0  0  0  0  0  0  0  0  0  0  0  0
  -32.1013  -13.6723   19.1521 O   0  0  0  0  0  0  0  0  0  0  0  0
  -28.2615  -28.0825   24.7563 O   0  0  0  0  0  0  0  0  0  0  0  0
  -16.8778  -28.7739   23.0738 O   0  0  0  0  0  0  0  0  0  0  0  0
  -28.1959  -18.6376   21.6908 O   0  0  0  0  0  0  0  0  0  1  0  0
  -17.3238  -34.2188   23.8212 F   0  0  0  0  0  0  0  0  0  0  0  0
  -15.5558  -30.5463   21.4144 F   0  0  0  0  0  0  0  0  0  0  0  0
  1  2  1  0  0  0  0
  1  5  2  0  0  0  0
  2  6  2  0  0  0  0
  3  8  2  0  0  0  0
  3 16  1  0  0  0  0
  4  9  1  0  0  0  0
  4 16  2  0  0  0  0
  5 18  1  0  0  0  0
  6 20  1  0  0  0  0
  7 10  2  0  0  0  0
  7 19  1  0  0  0  0
  8 22  1  0  0  0  0
  9 22  2  0  0  0  0
 10 23  1  0  0  0  0
 11 12  2  0  0  0  0
 11 24  1  0  0  0  0
 12 25  1  0  0  0  0
 13 21  1  0  0  0  0
 13 23  2  0  0  0  0
 14 25  2  0  0  0  0
 14 26  1  0  0  0  0
 15 66  2  0  0  0  0
 15 67  1  0  0  0  0
 16 27  1  0  0  0  0
 17 27  1  0  0  0  0
 17 28  2  0  0  0  0
 17 31  1  0  0  0  0
 18 20  2  0  0  0  0
 18 36  1  0  0  0  0
 19 21  2  0  0  0  0
 19 37  1  0  0  0  0
 20 45  1  0  0  0  0
 21 38  1  0  0  0  0
 22 84  1  0  0  0  0
 23 85  1  0  0  0  0
 24 26  2  0  0  0  0
 24 84  1  0  0  0  0
 25 86  1  0  0  0  0
 26 87  1  0  0  0  0
 27 68  2  0  0  0  0
 28 70  1  0  0  0  0
 28 73  1  0  0  0  0
 29 58  1  0  0  0  0
 29 66  1  0  0  0  0
 29 69  2  0  0  0  0
 30 59  1  0  0  0  0
 30 67  2  0  0  0  0
 30 69  1  0  0  0  0
 31 74  1  0  0  0  0
 31 79  2  0  0  0  0
 32 46  1  0  0  0  0
 32 75  1  0  0  0  0
 32 80  2  0  0  0  0
 33 61  1  0  0  0  0
 33 71  1  0  0  0  0
 33 81  2  0  0  0  0
 34 62  1  0  0  0  0
 34 76  1  0  0  0  0
 34 82  2  0  0  0  0
 35 72  1  0  0  0  0
 35 77  1  0  0  0  0
 35 83  2  0  0  0  0
 36 39  1  0  0  0  0
 37 46  1  0  0  0  0
 38 71  1  0  0  0  0
 39 41  1  0  0  0  0
 40 42  1  0  0  0  0
 40 43  1  0  0  0  0
 41 45  1  0  0  0  0
 42 47  1  0  0  0  0
 43 72  1  0  0  0  0
 44 47  1  0  0  0  0
 44 72  1  0  0  0  0
 45 75  1  0  0  0  0
 46 71  1  0  0  0  0
 47 70  1  0  0  0  0
 48 62  1  0  0  0  0
 49 63  1  0  0  0  0
 50 63  1  0  0  0  0
 51 63  1  0  0  0  0
 52 64  1  0  0  0  0
 53 64  1  0  0  0  0
 54 65  1  0  0  0  0
 55 65  1  0  0  0  0
 56 77  1  0  0  0  0
 57 78  1  0  0  0  0
 58 60  1  0  0  0  0
 59 77  1  0  0  0  0
 60 64  1  0  0  0  0
 61 63  1  0  0  0  0
 61 76  1  0  0  0  0
 62 78  1  0  0  0  0
 64 65  1  0  0  0  0
 65 85  1  0  0  0  0
 68 70  1  0  0  0  0
M  CHG  1  78   1
M  ISO  4  35 100  65 101  77 100  85 101
M  END
> <Batch ID>
0063

> <Smiles>
CNC(C)C(=O)NC(C(=O)N1Cc2cc([101O:1][101C:1](C)(C)C(C)(C)CCc3ncnc(C[100N:0](C)[100C:0](=O)N4CCCC(n5nc(-c6ccc(Oc7ccc(F)cc7F)cc6)c(C(N)=O)c5N)C4)n3)ccc2CC1C(=O)NC1CCCc2ccccc21)C(C)(C)C

> <Shape>
0.250

> <Color>
0.053

> <Negative vol penalty>
0.000

$$$$

  -OEChem-04052318023D

 82 90  0     1  0  0  0  0  0999 V2000
  -22.6804  -18.2895   24.7727 C   0  0  0  0  0  0  0  0  0  0  0  0
  -23.5985  -19.3320   24.8302 C   0  0  0  0  0  0  0  0  0  0  0  0
  -23.9568  -12.8161   21.0014 C   0  0  0  0  0  0  0  0  0  0  0  0
  -26.3402  -12.4540   20.8412 C   0  0  0  0  0  0  0  0  0  0  0  0
  -21.5961  -18.3680   23.9014 C   0  0  0  0  0  0  0  0  0  0  0  0
  -23.4260  -20.4585   24.0251 C   0  0  0  0  0  0  0  0  0  0  0  0
  -26.9656  -25.3586   23.2581 C   0  0  0  0  0  0  0  0  0  0  0  0
  -23.7330  -11.4691   20.7166 C   0  0  0  0  0  0  0  0  0  0  0  0
  -26.1163  -11.1069   20.5563 C   0  0  0  0  0  0  0  0  0  0  0  0
  -27.9945  -25.7620   22.4082 C   0  0  0  0  0  0  0  0  0  0  0  0
  -22.5462   -8.0488   20.3876 C   0  0  0  0  0  0  0  0  0  0  0  0
  -21.6089   -7.3686   21.1649 C   0  0  0  0  0  0  0  0  0  0  0  0
  -26.3924  -26.9274   21.0318 C   0  0  0  0  0  0  0  0  0  0  0  0
  -22.9095   -7.8398   23.1457 C   0  0  0  0  0  0  0  0  0  0  0  0
  -31.1378  -23.2943   18.4303 C   0  0  0  0  0  0  0  0  0  0  0  0
  -25.2604  -13.3085   21.0637 C   0  0  0  0  0  0  0  0  0  0  0  0
  -25.6665  -15.2834   22.6266 C   0  0  0  0  0  0  0  0  0  0  0  0
  -21.4178  -19.4909   23.0766 C   0  0  0  0  0  0  0  0  0  0  0  0
  -25.6387  -25.7281   22.9948 C   0  0  0  0  0  0  0  0  0  0  0  0
  -22.3249  -20.5671   23.1566 C   0  0  0  0  0  0  0  0  0  0  0  0
  -25.3488  -26.5296   21.8814 C   0  0  0  0  0  0  0  0  0  0  0  0
  -24.8127  -10.6145   20.4940 C   0  0  0  0  0  0  0  0  0  0  0  0
  -27.7076  -26.5441   21.2932 C   0  0  0  0  0  0  0  0  0  0  0  0
  -23.6653   -8.6244   20.9893 C   0  0  0  0  0  0  0  0  0  0  0  0
  -21.7905   -7.2641   22.5440 C   0  0  0  0  0  0  0  0  0  0  0  0
  -23.8470   -8.5199   22.3683 C   0  0  0  0  0  0  0  0  0  0  0  0
  -25.4923  -14.7000   21.3573 C   0  0  0  0  0  0  0  0  0  0  0  0
  -25.8529  -16.6193   22.3678 C   0  0  0  0  0  0  0  0  0  0  0  0
  -29.7948  -22.1513   17.3136 C   0  0  0  0  0  0  0  0  0  0  0  0
  -25.6604  -14.6723   23.9236 C   0  0  0  0  0  0  0  0  0  0  0  0
  -22.9545  -24.1489   22.3586 C   0  0  0  0  0  0  0  0  0  0  0  0
  -21.6287  -27.1026   22.5603 C   0  0  0  0  0  0  0  0  0  0  0  0
  -22.0406  -30.4838   22.3482 C   0  0  0  0  0  0  0  0  0  0  0  0
  -27.9311  -19.4543   17.6245 C   0  0  0  0  0  0  0  0  0  0  0  0
  -20.2222  -19.5272   22.1577 C   0  0  0  0  0  0  0  0  0  0  0  0
  -24.5437  -25.3072   23.9361 C   0  0  0  0  0  0  0  0  0  0  0  0
  -23.9436  -26.9702   21.5656 C   0  0  0  0  0  0  0  0  0  0  0  0
  -20.3666  -20.5487   21.0343 C   0  0  0  0  0  0  0  0  0  0  0  0
  -24.7160  -20.0123   19.1894 C   0  0  0  0  0  0  0  0  0  0  0  0
  -20.7951  -21.8921   21.6053 C   0  0  0  0  0  0  0  0  0  0  0  0
  -24.5735  -18.7546   20.0486 C   0  0  0  0  0  0  0  0  0  0  0  0
  -25.3854  -19.6972   17.8549 C   0  0  0  0  0  0  0  0  0  0  0  0
  -26.5714  -17.7704   18.8320 C   0  0  0  0  0  0  0  0  0  0  0  0
  -22.1745  -21.7888   22.2682 C   0  0  1  0  0  0  0  0  0  0  0  0
  -23.1631  -25.3118   23.2870 C   0  0  1  0  0  0  0  0  0  0  0  0
  -25.9219  -18.0266   20.2041 C   0  0  2  0  0  0  0  0  0  0  0  0
  -28.8647  -21.8242   14.9921 C   0  0  0  0  0  0  0  0  0  0  0  0
  -20.7664  -32.6384   22.5255 C   0  0  0  0  0  0  0  0  0  0  0  0
  -20.4172  -26.6101   19.8035 C   0  0  0  0  0  0  0  0  0  0  0  0
  -19.9821  -29.0697   19.6322 C   0  0  0  0  0  0  0  0  0  0  0  0
  -18.8857  -27.7333   21.4307 C   0  0  0  0  0  0  0  0  0  0  0  0
  -27.7815  -25.9240   18.4896 C   0  0  0  0  0  0  0  0  0  0  0  0
  -30.1481  -26.7446   18.5666 C   0  0  0  0  0  0  0  0  0  0  0  0
  -23.7009  -31.4138   24.6148 C   0  0  0  0  0  0  0  0  0  0  0  0
  -29.5354  -24.7304   19.9312 C   0  0  0  0  0  0  0  0  0  0  0  0
  -29.1591  -21.2195   16.3862 C   0  0  2  0  0  0  0  0  0  0  0  0
  -21.3612  -28.2232   21.5848 C   0  0  1  0  0  0  0  0  0  0  0  0
  -21.6067  -31.6110   23.2678 C   0  0  2  0  0  0  0  0  0  0  0  0
  -20.1878  -27.8993   20.6174 C   0  0  0  0  0  0  0  0  0  0  0  0
  -29.0252  -26.0760   19.3694 C   0  0  0  0  0  0  0  0  0  1  0  0
  -31.0864  -22.3352   17.4597 N   0  0  0  0  0  0  0  0  0  0  0  0
  -25.5617  -15.5922   20.3658 N   0  0  0  0  0  0  0  0  0  0  0  0
  -29.1171  -22.9688   18.1634 N   0  0  0  0  0  0  0  0  0  0  0  0
  -29.9591  -23.7154   18.8940 N   0  0  0  0  0  0  0  0  0  0  0  0
  -25.7815  -16.7499   21.0121 N   0  0  0  0  0  0  0  0  0  0  0  0
  -22.9067  -26.5278   22.5126 N   0  0  0  0  0  0  0  0  0  0  0  0
  -26.6723  -19.0219   18.0738 N   0  0  0  0  0  0  0  0  0  0  0  0
  -26.0692  -17.6833   23.1700 N   0  0  0  0  0  0  0  0  0  0  0  0
  -25.4551  -13.2885   24.0093 N   0  0  0  0  0  0  0  0  0  0  0  0
  -22.4516  -23.0195   22.9757 N   0  0  0  0  0  0  0  0  0  0  0  0
  -21.1591  -29.4242   22.3881 N   0  0  0  0  0  0  0  0  0  0  0  0
  -27.9391  -20.6449   16.9081 N   0  0  0  0  0  0  0  0  0  0  0  0
  -22.7978  -32.3016   23.8382 N   0  3  0  0  0  0  0  0  0  0  0  0
  -25.8155  -15.3363   24.9765 O   0  0  0  0  0  0  0  0  0  0  0  0
  -23.2280  -24.2681   21.1700 O   0  0  0  0  0  0  0  0  0  0  0  0
  -20.7391  -26.7550   23.3408 O   0  0  0  0  0  0  0  0  0  0  0  0
  -23.0575  -30.5393   21.6603 O   0  0  0  0  0  0  0  0  0  0  0  0
  -28.9725  -18.8282   17.8499 O   0  0  0  0  0  0  0  0  0  0  0  0
  -24.5947   -9.3000   20.2163 O   0  0  0  0  0  0  0  0  0  0  0  0
  -28.7099  -26.9386   20.4616 O   0  0  0  0  0  0  0  0  0  1  0  0
  -20.8894   -6.6123   23.2905 F   0  0  0  0  0  0  0  0  0  0  0  0
  -24.9195   -9.0719   22.9522 F   0  0  0  0  0  0  0  0  0  0  0  0
  1  2  1  0  0  0  0
  1  5  2  0  0  0  0
  2  6  2  0  0  0  0
  3  8  2  0  0  0  0
  3 16  1  0  0  0  0
  4  9  1  0  0  0  0
  4 16  2  0  0  0  0
  5 18  1  0  0  0  0
  6 20  1  0  0  0  0
  7 10  2  0  0  0  0
  7 19  1  0  0  0  0
  8 22  1  0  0  0  0
  9 22  2  0  0  0  0
 10 23  1  0  0  0  0
 11 12  2  0  0  0  0
 11 24  1  0  0  0  0
 12 25  1  0  0  0  0
 13 21  1  0  0  0  0
 13 23  2  0  0  0  0
 14 25  2  0  0  0  0
 14 26  1  0  0  0  0
 15 61  2  0  0  0  0
 15 64  1  0  0  0  0
 16 27  1  0  0  0  0
 17 27  1  0  0  0  0
 17 28  2  0  0  0  0
 17 30  1  0  0  0  0
 18 20  2  0  0  0  0
 18 35  1  0  0  0  0
 19 21  2  0  0  0  0
 19 36  1  0  0  0  0
 20 44  1  0  0  0  0
 21 37  1  0  0  0  0
 22 79  1  0  0  0  0
 23 80  1  0  0  0  0
 24 26  2  0  0  0  0
 24 79  1  0  0  0  0
 25 81  1  0  0  0  0
 26 82  1  0  0  0  0
 27 62  2  0  0  0  0
 28 65  1  0  0  0  0
 28 68  1  0  0  0  0
 29 56  1  0  0  0  0
 29 61  1  0  0  0  0
 29 63  2  0  0  0  0
 30 69  1  0  0  0  0
 30 74  2  0  0  0  0
 31 45  1  0  0  0  0
 31 70  1  0  0  0  0
 31 75  2  0  0  0  0
 32 57  1  0  0  0  0
 32 66  1  0  0  0  0
 32 76  2  0  0  0  0
 33 58  1  0  0  0  0
 33 71  1  0  0  0  0
 33 77  2  0  0  0  0
 34 67  1  0  0  0  0
 34 72  1  0  0  0  0
 34 78  2  0  0  0  0
 35 38  1  0  0  0  0
 36 45  1  0  0  0  0
 37 66  1  0  0  0  0
 38 40  1  0  0  0  0
 39 41  1  0  0  0  0
 39 42  1  0  0  0  0
 40 44  1  0  0  0  0
 41 46  1  0  0  0  0
 42 67  1  0  0  0  0
 43 46  1  0  0  0  0
 43 67  1  0  0  0  0
 44 70  1  0  0  0  0
 45 66  1  0  0  0  0
 46 65  1  0  0  0  0
 47 56  1  0  0  0  0
 48 58  1  0  0  0  0
 49 59  1  0  0  0  0
 50 59  1  0  0  0  0
 51 59  1  0  0  0  0
 52 60  1  0  0  0  0
 53 60  1  0  0  0  0
 54 73  1  0  0  0  0
 55 60  1  0  0  0  0
 55 64  1  0  0  0  0
 56 72  1  0  0  0  0
 57 59  1  0  0  0  0
 57 71  1  0  0  0  0
 58 73  1  0  0  0  0
 60 80  1  0  0  0  0
 62 65  1  0  0  0  0
 63 64  1  0  0  0  0
M  CHG  1  73   1
M  ISO  4  34 100  60 101  72 100  80 101
M  END
> <Batch ID>
0063

> <Smiles>
CNC(C)C(=O)NC(C(=O)N1Cc2cc([101O:1][101C:1](C)(C)Cn3cnc(C(C)[100NH:0][100C:0](=O)N4CCCC(n5nc(-c6ccc(Oc7ccc(F)cc7F)cc6)c(C(N)=O)c5N)C4)n3)ccc2CC1C(=O)NC1CCCc2ccccc21)C(C)(C)C

> <Shape>
0.196

> <Color>
0.071

> <Negative vol penalty>
0.000

$$$$

  -OEChem-04052318023D

 85 93  0     1  0  0  0  0  0999 V2000
  -22.8559  -10.8435   18.4891 C   0  0  0  0  0  0  0  0  0  0  0  0
  -22.4289  -12.1581   18.3311 C   0  0  0  0  0  0  0  0  0  0  0  0
  -29.1504  -27.9530   18.1009 C   0  0  0  0  0  0  0  0  0  0  0  0
  -29.9005  -26.6798   20.0123 C   0  0  0  0  0  0  0  0  0  0  0  0
  -23.8734  -10.5465   19.3949 C   0  0  0  0  0  0  0  0  0  0  0  0
  -23.0183  -13.1763   19.0796 C   0  0  0  0  0  0  0  0  0  0  0  0
  -24.0519  -18.9396   17.2846 C   0  0  0  0  0  0  0  0  0  0  0  0
  -30.4353  -28.4720   17.9423 C   0  0  0  0  0  0  0  0  0  0  0  0
  -31.1855  -27.1988   19.8537 C   0  0  0  0  0  0  0  0  0  0  0  0
  -23.3543  -20.1277   17.4976 C   0  0  0  0  0  0  0  0  0  0  0  0
  -33.3948  -27.4495   16.6661 C   0  0  0  0  0  0  0  0  0  0  0  0
  -33.9263  -27.4816   15.3769 C   0  0  0  0  0  0  0  0  0  0  0  0
  -24.8046  -20.6390   19.3562 C   0  0  0  0  0  0  0  0  0  0  0  0
  -34.1366  -29.8840   15.5235 C   0  0  0  0  0  0  0  0  0  0  0  0
  -19.7726  -28.2548   23.4246 C   0  0  0  0  0  0  0  0  0  0  0  0
  -18.8484  -27.5437   21.6440 C   0  0  0  0  0  0  0  0  0  0  0  0
  -28.8829  -27.0569   19.1359 C   0  0  0  0  0  0  0  0  0  0  0  0
  -27.0352  -25.3471   18.7233 C   0  0  0  0  0  0  0  0  0  0  0  0
  -24.4822  -11.5628   20.1479 C   0  0  0  0  0  0  0  0  0  0  0  0
  -25.1260  -18.5863   18.1140 C   0  0  0  0  0  0  0  0  0  0  0  0
  -24.0440  -12.8923   19.9973 C   0  0  0  0  0  0  0  0  0  0  0  0
  -25.5158  -19.4470   19.1501 C   0  0  0  0  0  0  0  0  0  0  0  0
  -31.4528  -28.0949   18.8187 C   0  0  0  0  0  0  0  0  0  0  0  0
  -23.7287  -20.9763   18.5353 C   0  0  0  0  0  0  0  0  0  0  0  0
  -33.2340  -28.6346   17.3840 C   0  0  0  0  0  0  0  0  0  0  0  0
  -34.2973  -28.6989   14.8056 C   0  0  0  0  0  0  0  0  0  0  0  0
  -33.6050  -29.8519   16.8127 C   0  0  0  0  0  0  0  0  0  0  0  0
  -27.5557  -26.5209   19.3006 C   0  0  0  0  0  0  0  0  0  0  0  0
  -20.1571  -26.9396   23.3110 C   0  0  0  0  0  0  0  0  0  0  0  0
  -25.7439  -25.2801   19.1865 C   0  0  0  0  0  0  0  0  0  0  0  0
  -27.6629  -24.4019   17.8468 C   0  0  0  0  0  0  0  0  0  0  0  0
  -25.7292  -16.1790   20.1001 C   0  0  0  0  0  0  0  0  0  0  0  0
  -28.6524  -17.5733   20.2810 C   0  0  0  0  0  0  0  0  0  0  0  0
  -22.2025  -25.5838   23.3870 C   0  0  0  0  0  0  0  0  0  0  0  0
  -30.5408  -20.3970   19.9530 C   0  0  0  0  0  0  0  0  0  0  0  0
  -25.5457  -11.1866   21.1491 C   0  0  0  0  0  0  0  0  0  0  0  0
  -25.8852  -17.3141   17.8544 C   0  0  0  0  0  0  0  0  0  0  0  0
  -26.6747  -19.1236   20.0561 C   0  0  0  0  0  0  0  0  0  0  0  0
  -26.3757  -12.3737   21.6309 C   0  0  0  0  0  0  0  0  0  0  0  0
  -22.9330  -28.6866   21.6361 C   0  0  0  0  0  0  0  0  0  0  0  0
  -25.4701  -13.5464   21.9934 C   0  0  0  0  0  0  0  0  0  0  0  0
  -24.1833  -28.3042   20.8451 C   0  0  0  0  0  0  0  0  0  0  0  0
  -22.8977  -27.9977   22.9978 C   0  0  0  0  0  0  0  0  0  0  0  0
  -24.2654  -26.1253   22.1330 C   0  0  0  0  0  0  0  0  0  0  0  0
  -24.6758  -14.0277   20.7731 C   0  0  1  0  0  0  0  0  0  0  0  0
  -26.6374  -16.8063   19.0807 C   0  0  1  0  0  0  0  0  0  0  0  0
  -24.3240  -26.7755   20.7406 C   0  0  2  0  0  0  0  0  0  0  0  0
  -32.8930  -21.2341   20.2054 C   0  0  0  0  0  0  0  0  0  0  0  0
  -18.2699  -24.4315   21.5635 C   0  0  0  0  0  0  0  0  0  0  0  0
  -21.6943  -26.7900   25.3899 C   0  0  0  0  0  0  0  0  0  0  0  0
  -28.3188  -17.5894   23.3139 C   0  0  0  0  0  0  0  0  0  0  0  0
  -30.1911  -19.2466   23.4413 C   0  0  0  0  0  0  0  0  0  0  0  0
  -30.6068  -16.9663   22.5194 C   0  0  0  0  0  0  0  0  0  0  0  0
  -30.7068  -21.1394   17.0929 C   0  0  0  0  0  0  0  0  0  0  0  0
  -20.8462  -23.7509   19.6942 C   0  0  0  0  0  0  0  0  0  0  0  0
  -21.3539  -23.7624   18.2534 C   0  0  0  0  0  0  0  0  0  0  0  0
  -20.2504  -25.0919   20.1452 C   0  0  0  0  0  0  0  0  0  0  0  0
  -20.2859  -24.8057   24.6891 C   0  0  0  0  0  0  0  0  0  0  0  0
  -21.9628  -22.4215   17.8656 C   0  0  0  0  0  0  0  0  0  1  0  0
  -29.2799  -18.6314   21.1561 C   0  0  1  0  0  0  0  0  0  0  0  0
  -31.8634  -20.6485   19.2516 C   0  0  2  0  0  0  0  0  0  0  0  0
  -19.6491  -25.1043   21.5675 C   0  0  1  0  0  0  0  0  0  0  0  0
  -21.0123  -26.0930   24.1603 C   0  0  1  0  0  0  0  0  0  0  0  0
  -29.5760  -18.1139   22.5920 C   0  0  0  0  0  0  0  0  0  0  0  0
  -18.9578  -28.6246   22.3839 N   0  0  0  0  0  0  0  0  0  0  0  0
  -26.6675  -27.1540   20.0716 N   0  0  0  0  0  0  0  0  0  0  0  0
  -19.5569  -26.4973   22.1659 N   0  0  0  0  0  0  0  0  0  0  0  0
  -25.5758  -26.3753   19.9818 N   0  0  0  0  0  0  0  0  0  0  0  0
  -27.3815  -17.8651   19.7658 N   0  0  0  0  0  0  0  0  0  0  0  0
  -23.0625  -26.5460   22.8571 N   0  0  0  0  0  0  0  0  0  0  0  0
  -24.7471  -24.3918   18.9869 N   0  0  0  0  0  0  0  0  0  0  0  0
  -28.9947  -24.6223   17.4700 N   0  0  0  0  0  0  0  0  0  0  0  0
  -25.5151  -14.8276   19.9071 N   0  0  0  0  0  0  0  0  0  0  0  0
  -30.4569  -19.1092   20.4385 N   0  0  0  0  0  0  0  0  0  0  0  0
  -19.1026  -25.1649   25.5118 N   0  3  0  0  0  0  0  0  0  0  0  0
  -31.6767  -21.5997   18.1197 N   0  3  0  0  0  0  0  0  0  0  0  0
  -27.0554  -23.4006   17.3976 O   0  0  0  0  0  0  0  0  0  0  0  0
  -25.2587  -16.8696   20.9964 O   0  0  0  0  0  0  0  0  0  0  0  0
  -29.2703  -16.5295   20.0569 O   0  0  0  0  0  0  0  0  0  0  0  0
  -22.3599  -24.3671   23.2567 O   0  0  0  0  0  0  0  0  0  0  0  0
  -29.6707  -21.2581   20.0628 O   0  0  0  0  0  0  0  0  0  0  0  0
  -32.7069  -28.6010   18.6641 O   0  0  0  0  0  0  0  0  0  0  0  0
  -23.0491  -22.1363   18.7458 O   0  0  0  0  0  0  0  0  0  1  0  0
  -34.8092  -28.7294   13.5682 F   0  0  0  0  0  0  0  0  0  0  0  0
  -33.4540  -30.9935   17.4979 F   0  0  0  0  0  0  0  0  0  0  0  0
  1  2  1  0  0  0  0
  1  5  2  0  0  0  0
  2  6  2  0  0  0  0
  3  8  2  0  0  0  0
  3 17  1  0  0  0  0
  4  9  1  0  0  0  0
  4 17  2  0  0  0  0
  5 19  1  0  0  0  0
  6 21  1  0  0  0  0
  7 10  2  0  0  0  0
  7 20  1  0  0  0  0
  8 23  1  0  0  0  0
  9 23  2  0  0  0  0
 10 24  1  0  0  0  0
 11 12  2  0  0  0  0
 11 25  1  0  0  0  0
 12 26  1  0  0  0  0
 13 22  1  0  0  0  0
 13 24  2  0  0  0  0
 14 26  2  0  0  0  0
 14 27  1  0  0  0  0
 15 29  2  0  0  0  0
 15 65  1  0  0  0  0
 16 65  2  0  0  0  0
 16 67  1  0  0  0  0
 17 28  1  0  0  0  0
 18 28  1  0  0  0  0
 18 30  2  0  0  0  0
 18 31  1  0  0  0  0
 19 21  2  0  0  0  0
 19 36  1  0  0  0  0
 20 22  2  0  0  0  0
 20 37  1  0  0  0  0
 21 45  1  0  0  0  0
 22 38  1  0  0  0  0
 23 82  1  0  0  0  0
 24 83  1  0  0  0  0
 25 27  2  0  0  0  0
 25 82  1  0  0  0  0
 26 84  1  0  0  0  0
 27 85  1  0  0  0  0
 28 66  2  0  0  0  0
 29 63  1  0  0  0  0
 29 67  1  0  0  0  0
 30 68  1  0  0  0  0
 30 71  1  0  0  0  0
 31 72  1  0  0  0  0
 31 77  2  0  0  0  0
 32 46  1  0  0  0  0
 32 73  1  0  0  0  0
 32 78  2  0  0  0  0
 33 60  1  0  0  0  0
 33 69  1  0  0  0  0
 33 79  2  0  0  0  0
 34 63  1  0  0  0  0
 34 70  1  0  0  0  0
 34 80  2  0  0  0  0
 35 61  1  0  0  0  0
 35 74  1  0  0  0  0
 35 81  2  0  0  0  0
 36 39  1  0  0  0  0
 37 46  1  0  0  0  0
 38 69  1  0  0  0  0
 39 41  1  0  0  0  0
 40 42  1  0  0  0  0
 40 43  1  0  0  0  0
 41 45  1  0  0  0  0
 42 47  1  0  0  0  0
 43 70  1  0  0  0  0
 44 47  1  0  0  0  0
 44 70  1  0  0  0  0
 45 73  1  0  0  0  0
 46 69  1  0  0  0  0
 47 68  1  0  0  0  0
 48 61  1  0  0  0  0
 49 62  1  0  0  0  0
 50 63  1  0  0  0  0
 51 64  1  0  0  0  0
 52 64  1  0  0  0  0
 53 64  1  0  0  0  0
 54 76  1  0  0  0  0
 55 56  1  0  0  0  0
 55 57  1  0  0  0  0
 56 59  1  0  0  0  0
 57 62  1  0  0  0  0
 58 63  1  0  0  0  0
 58 75  1  0  0  0  0
 59 83  1  0  0  0  0
 60 64  1  0  0  0  0
 60 74  1  0  0  0  0
 61 76  1  0  0  0  0
 62 67  1  0  0  0  0
 66 68  1  0  0  0  0
M  CHG  2  75   1  76   1
M  ISO  4  34 100  59 101  63 100  83 101
M  END
> <Batch ID>
0063

> <Smiles>
CNC(C)C(=O)NC(C(=O)N1Cc2cc([101O:1][101CH2:1]CCCC(C)n3cncc3[100C:0](C)(CN)[100C:0](=O)N3CCCC(n4nc(-c5ccc(Oc6ccc(F)cc6F)cc5)c(C(N)=O)c4N)C3)ccc2CC1C(=O)NC1CCCc2ccccc21)C(C)(C)C

> <Shape>
0.185

> <Color>
0.058

> <Negative vol penalty>
0.000

$$$$

  -OEChem-04052318023D

 89 97  0     1  0  0  0  0  0999 V2000
  -22.0484   -8.0119   20.9149 C   0  0  0  0  0  0  0  0  0  0  0  0
  -22.1462   -8.6879   22.1268 C   0  0  0  0  0  0  0  0  0  0  0  0
  -22.4431  -29.4141   21.9037 C   0  0  0  0  0  0  0  0  0  0  0  0
  -23.2231  -28.0619   23.7477 C   0  0  0  0  0  0  0  0  0  0  0  0
  -23.0679   -8.1250   19.9706 C   0  0  0  0  0  0  0  0  0  0  0  0
  -23.2642   -9.4766   22.3957 C   0  0  0  0  0  0  0  0  0  0  0  0
  -22.5849  -16.4976   23.8569 C   0  0  0  0  0  0  0  0  0  0  0  0
  -21.1316  -29.0211   22.1702 C   0  0  0  0  0  0  0  0  0  0  0  0
  -21.9116  -27.6690   24.0143 C   0  0  0  0  0  0  0  0  0  0  0  0
  -22.5199  -17.8003   24.3519 C   0  0  0  0  0  0  0  0  0  0  0  0
  -18.6918  -29.8160   24.3721 C   0  0  0  0  0  0  0  0  0  0  0  0
  -17.7063  -30.8031   24.3705 C   0  0  0  0  0  0  0  0  0  0  0  0
  -24.9343  -17.8943   24.4514 C   0  0  0  0  0  0  0  0  0  0  0  0
  -16.5517  -29.6476   22.5903 C   0  0  0  0  0  0  0  0  0  0  0  0
  -27.8299  -24.0151   20.7348 C   0  0  0  0  0  0  0  0  0  0  0  0
  -23.4889  -28.9345   22.6924 C   0  0  0  0  0  0  0  0  0  0  0  0
  -25.5226  -30.4534   22.9471 C   0  0  0  0  0  0  0  0  0  0  0  0
  -24.1945   -8.9233   20.2241 C   0  0  0  0  0  0  0  0  0  0  0  0
  -23.8267  -15.8932   23.6425 C   0  0  0  0  0  0  0  0  0  0  0  0
  -24.3004   -9.5995   21.4545 C   0  0  0  0  0  0  0  0  0  0  0  0
  -25.0059  -16.5942   23.9440 C   0  0  0  0  0  0  0  0  0  0  0  0
  -26.7035  -23.5554   21.3724 C   0  0  0  0  0  0  0  0  0  0  0  0
  -20.8658  -28.1486   23.2255 C   0  0  0  0  0  0  0  0  0  0  0  0
  -23.6917  -18.4968   24.6486 C   0  0  0  0  0  0  0  0  0  0  0  0
  -18.6073  -28.7447   23.4827 C   0  0  0  0  0  0  0  0  0  0  0  0
  -16.6362  -30.7189   23.4796 C   0  0  0  0  0  0  0  0  0  0  0  0
  -17.5373  -28.6605   22.5919 C   0  0  0  0  0  0  0  0  0  0  0  0
  -24.8440  -29.3396   22.4172 C   0  0  0  0  0  0  0  0  0  0  0  0
  -26.8716  -23.9513   22.7129 C   0  0  0  0  0  0  0  0  0  0  0  0
  -26.7716  -30.3970   22.3786 C   0  0  0  0  0  0  0  0  0  0  0  0
  -25.0648  -31.4498   23.8708 C   0  0  0  0  0  0  0  0  0  0  0  0
  -25.7041  -12.8599   22.4804 C   0  0  0  0  0  0  0  0  0  0  0  0
  -27.2263  -15.3070   21.4291 C   0  0  0  0  0  0  0  0  0  0  0  0
  -29.9419  -25.8270   20.1034 C   0  0  0  0  0  0  0  0  0  0  0  0
  -28.3679  -18.2380   20.1089 C   0  0  0  0  0  0  0  0  0  0  0  0
  -25.2931   -8.9771   19.1922 C   0  0  0  0  0  0  0  0  0  0  0  0
  -23.9432  -14.4698   23.1690 C   0  0  0  0  0  0  0  0  0  0  0  0
  -26.3187  -15.8915   23.7302 C   0  0  0  0  0  0  0  0  0  0  0  0
  -26.2694  -10.1317   19.4016 C   0  0  0  0  0  0  0  0  0  0  0  0
  -29.0457  -28.8826   18.4602 C   0  0  0  0  0  0  0  0  0  0  0  0
  -26.6920  -10.2148   20.8649 C   0  0  0  0  0  0  0  0  0  0  0  0
  -27.9092  -29.4330   19.3208 C   0  0  0  0  0  0  0  0  0  0  0  0
  -29.0123  -27.3587   18.3993 C   0  0  0  0  0  0  0  0  0  0  0  0
  -27.8898  -27.2456   20.6013 C   0  0  0  0  0  0  0  0  0  0  0  0
  -25.4860  -10.4845   21.7729 C   0  0  1  0  0  0  0  0  0  0  0  0
  -25.1552  -14.2371   22.2492 C   0  0  1  0  0  0  0  0  0  0  0  0
  -27.9051  -28.7803   20.7145 C   0  0  2  0  0  0  0  0  0  0  0  0
  -29.7581  -19.7637   18.6817 C   0  0  0  0  0  0  0  0  0  0  0  0
  -25.7858  -22.5755   19.2409 C   0  0  0  0  0  0  0  0  0  0  0  0
  -24.2223  -23.5821   20.9374 C   0  0  0  0  0  0  0  0  0  0  0  0
  -25.3021  -21.3847   21.3692 C   0  0  0  0  0  0  0  0  0  0  0  0
  -30.9853  -24.2529   21.7022 C   0  0  0  0  0  0  0  0  0  0  0  0
  -30.1172  -26.4726   22.4398 C   0  0  0  0  0  0  0  0  0  0  0  0
  -29.2357  -15.0076   23.7043 C   0  0  0  0  0  0  0  0  0  0  0  0
  -30.6578  -16.7350   22.5809 C   0  0  0  0  0  0  0  0  0  0  0  0
  -30.1696  -14.5795   21.4242 C   0  0  0  0  0  0  0  0  0  0  0  0
  -26.6939  -21.9921   27.3116 C   0  0  0  0  0  0  0  0  0  0  0  0
  -25.3359  -24.0476   26.8935 C   0  0  0  0  0  0  0  0  0  0  0  0
  -26.4872  -18.0144   17.8347 C   0  0  0  0  0  0  0  0  0  0  0  0
  -25.9349  -23.7124   23.8727 C   0  0  0  0  0  0  0  0  0  0  0  0
  -26.6332  -22.9473   25.0053 C   0  0  0  0  0  0  0  0  0  0  0  0
  -24.5515  -21.8200   25.9532 C   0  0  0  0  0  0  0  0  0  0  0  0
  -24.8566  -20.4256   25.4104 C   0  0  0  0  0  0  0  0  0  1  0  0
  -28.3346  -16.3026   21.6606 C   0  0  1  0  0  0  0  0  0  0  0  0
  -28.7532  -18.6223   18.6918 C   0  0  2  0  0  0  0  0  0  0  0  0
  -25.5792  -22.8149   20.7757 C   0  0  0  0  0  0  0  0  0  0  0  0
  -29.8533  -25.2770   21.5047 C   0  0  0  0  0  0  0  0  0  0  0  0
  -29.5725  -15.6620   22.3496 C   0  0  0  0  0  0  0  0  0  0  0  0
  -25.7825  -22.7035   26.2890 C   0  0  0  0  0  0  0  0  0  0  0  0
  -25.5993  -28.6278   21.5764 N   0  0  0  0  0  0  0  0  0  0  0  0
  -28.0147  -24.6116   22.9161 N   0  0  0  0  0  0  0  0  0  0  0  0
  -28.5752  -24.6341   21.6948 N   0  0  0  0  0  0  0  0  0  0  0  0
  -26.7653  -29.2959   21.5737 N   0  0  0  0  0  0  0  0  0  0  0  0
  -26.2909  -15.1509   22.4592 N   0  0  0  0  0  0  0  0  0  0  0  0
  -28.9866  -26.7774   19.7427 N   0  0  0  0  0  0  0  0  0  0  0  0
  -27.8635  -31.1823   22.4935 N   0  0  0  0  0  0  0  0  0  0  0  0
  -23.7535  -31.3580   24.3571 N   0  0  0  0  0  0  0  0  0  0  0  0
  -25.1079  -11.8800   21.7098 N   0  0  0  0  0  0  0  0  0  0  0  0
  -28.6187  -16.9062   20.3631 N   0  0  0  0  0  0  0  0  0  0  0  0
  -27.5487  -19.0497   17.9253 N   0  3  0  0  0  0  0  0  0  0  0  0
  -25.7915  -32.4029   24.2409 O   0  0  0  0  0  0  0  0  0  0  0  0
  -26.6035  -12.6971   23.2965 O   0  0  0  0  0  0  0  0  0  0  0  0
  -27.1916  -14.6791   20.3671 O   0  0  0  0  0  0  0  0  0  0  0  0
  -30.8359  -25.4249   19.3542 O   0  0  0  0  0  0  0  0  0  0  0  0
  -27.8954  -19.0400   20.9114 O   0  0  0  0  0  0  0  0  0  0  0  0
  -19.5861  -27.7651   23.4860 O   0  0  0  0  0  0  0  0  0  0  0  0
  -23.6212  -19.7698   25.1273 O   0  0  0  0  0  0  0  0  0  1  0  0
  -15.6891  -31.6660   23.4793 F   0  0  0  0  0  0  0  0  0  0  0  0
  -17.4501  -27.6330   21.7360 F   0  0  0  0  0  0  0  0  0  0  0  0
  1  2  1  0  0  0  0
  1  5  2  0  0  0  0
  2  6  2  0  0  0  0
  3  8  2  0  0  0  0
  3 16  1  0  0  0  0
  4  9  1  0  0  0  0
  4 16  2  0  0  0  0
  5 18  1  0  0  0  0
  6 20  1  0  0  0  0
  7 10  2  0  0  0  0
  7 19  1  0  0  0  0
  8 23  1  0  0  0  0
  9 23  2  0  0  0  0
 10 24  1  0  0  0  0
 11 12  2  0  0  0  0
 11 25  1  0  0  0  0
 12 26  1  0  0  0  0
 13 21  1  0  0  0  0
 13 24  2  0  0  0  0
 14 26  2  0  0  0  0
 14 27  1  0  0  0  0
 15 22  2  0  0  0  0
 15 72  1  0  0  0  0
 16 28  1  0  0  0  0
 17 28  1  0  0  0  0
 17 30  2  0  0  0  0
 17 31  1  0  0  0  0
 18 20  2  0  0  0  0
 18 36  1  0  0  0  0
 19 21  2  0  0  0  0
 19 37  1  0  0  0  0
 20 45  1  0  0  0  0
 21 38  1  0  0  0  0
 22 29  1  0  0  0  0
 22 66  1  0  0  0  0
 23 86  1  0  0  0  0
 24 87  1  0  0  0  0
 25 27  2  0  0  0  0
 25 86  1  0  0  0  0
 26 88  1  0  0  0  0
 27 89  1  0  0  0  0
 28 70  2  0  0  0  0
 29 60  1  0  0  0  0
 29 71  2  0  0  0  0
 30 73  1  0  0  0  0
 30 76  1  0  0  0  0
 31 77  1  0  0  0  0
 31 81  2  0  0  0  0
 32 46  1  0  0  0  0
 32 78  1  0  0  0  0
 32 82  2  0  0  0  0
 33 64  1  0  0  0  0
 33 74  1  0  0  0  0
 33 83  2  0  0  0  0
 34 67  1  0  0  0  0
 34 75  1  0  0  0  0
 34 84  2  0  0  0  0
 35 65  1  0  0  0  0
 35 79  1  0  0  0  0
 35 85  2  0  0  0  0
 36 39  1  0  0  0  0
 37 46  1  0  0  0  0
 38 74  1  0  0  0  0
 39 41  1  0  0  0  0
 40 42  1  0  0  0  0
 40 43  1  0  0  0  0
 41 45  1  0  0  0  0
 42 47  1  0  0  0  0
 43 75  1  0  0  0  0
 44 47  1  0  0  0  0
 44 75  1  0  0  0  0
 45 78  1  0  0  0  0
 46 74  1  0  0  0  0
 47 73  1  0  0  0  0
 48 65  1  0  0  0  0
 49 66  1  0  0  0  0
 50 66  1  0  0  0  0
 51 66  1  0  0  0  0
 52 67  1  0  0  0  0
 53 67  1  0  0  0  0
 54 68  1  0  0  0  0
 55 68  1  0  0  0  0
 56 68  1  0  0  0  0
 57 69  1  0  0  0  0
 58 69  1  0  0  0  0
 59 80  1  0  0  0  0
 60 61  1  0  0  0  0
 61 69  1  0  0  0  0
 62 63  1  0  0  0  0
 62 69  1  0  0  0  0
 63 87  1  0  0  0  0
 64 68  1  0  0  0  0
 64 79  1  0  0  0  0
 65 80  1  0  0  0  0
 67 72  1  0  0  0  0
 70 73  1  0  0  0  0
 71 72  1  0  0  0  0
M  CHG  1  80   1
M  ISO  4  34 100  63 101  67 100  87 101
M  END
> <Batch ID>
0063

> <Smiles>
CNC(C)C(=O)NC(C(=O)N1Cc2cc([101O:1][101CH2:1]CC(C)(C)CCc3nn([100C:0](C)(C)[100C:0](=O)N4CCCC(n5nc(-c6ccc(Oc7ccc(F)cc7F)cc6)c(C(N)=O)c5N)C4)cc3C(C)(C)C)ccc2CC1C(=O)NC1CCCc2ccccc21)C(C)(C)C

> <Shape>
0.250

> <Color>
0.050

> <Negative vol penalty>
0.000

$$$$

  -OEChem-04052318023D

 91 99  0     1  0  0  0  0  0999 V2000
  -22.0756  -12.0959   19.0443 C   0  0  0  0  0  0  0  0  0  0  0  0
  -21.9444  -13.4561   19.3051 C   0  0  0  0  0  0  0  0  0  0  0  0
  -28.8036  -31.1618   17.0332 C   0  0  0  0  0  0  0  0  0  0  0  0
  -29.3578  -31.9061   19.2639 C   0  0  0  0  0  0  0  0  0  0  0  0
  -23.2338  -11.4220   19.4294 C   0  0  0  0  0  0  0  0  0  0  0  0
  -22.9709  -14.1430   19.9523 C   0  0  0  0  0  0  0  0  0  0  0  0
  -24.0020  -18.5974   17.7751 C   0  0  0  0  0  0  0  0  0  0  0  0
  -29.3245  -32.3448   16.5090 C   0  0  0  0  0  0  0  0  0  0  0  0
  -29.8788  -33.0891   18.7397 C   0  0  0  0  0  0  0  0  0  0  0  0
  -23.1341  -19.6544   18.0456 C   0  0  0  0  0  0  0  0  0  0  0  0
  -28.3427  -35.5605   16.1636 C   0  0  0  0  0  0  0  0  0  0  0  0
  -27.5984  -36.2175   15.1839 C   0  0  0  0  0  0  0  0  0  0  0  0
  -24.6929  -20.5093   19.6760 C   0  0  0  0  0  0  0  0  0  0  0  0
  -29.4353  -35.9843   13.6319 C   0  0  0  0  0  0  0  0  0  0  0  0
  -21.1863  -25.0701   22.8920 C   0  0  0  0  0  0  0  0  0  0  0  0
  -28.8201  -30.9425   18.4106 C   0  0  0  0  0  0  0  0  0  0  0  0
  -28.9722  -28.5161   19.1834 C   0  0  0  0  0  0  0  0  0  0  0  0
  -24.2791  -12.1030   20.0730 C   0  0  0  0  0  0  0  0  0  0  0  0
  -25.2191  -18.4822   18.4620 C   0  0  0  0  0  0  0  0  0  0  0  0
  -24.1437  -13.4772   20.3476 C   0  0  0  0  0  0  0  0  0  0  0  0
  -25.5757  -19.4513   19.4106 C   0  0  0  0  0  0  0  0  0  0  0  0
  -29.8622  -33.3084   17.3622 C   0  0  0  0  0  0  0  0  0  0  0  0
  -23.4781  -20.6089   18.9982 C   0  0  0  0  0  0  0  0  0  0  0  0
  -29.6334  -35.1155   15.8776 C   0  0  0  0  0  0  0  0  0  0  0  0
  -28.1446  -36.4294   13.9180 C   0  0  0  0  0  0  0  0  0  0  0  0
  -30.1797  -35.3274   14.6117 C   0  0  0  0  0  0  0  0  0  0  0  0
  -28.2816  -29.7209   18.9528 C   0  0  0  0  0  0  0  0  0  0  0  0
  -20.1837  -24.3470   22.2842 C   0  0  0  0  0  0  0  0  0  0  0  0
  -20.4181  -26.9771   21.8907 C   0  0  0  0  0  0  0  0  0  0  0  0
  -19.4159  -26.2540   21.2822 C   0  0  0  0  0  0  0  0  0  0  0  0
  -28.0229  -27.6701   19.7025 C   0  0  0  0  0  0  0  0  0  0  0  0
  -30.3489  -28.1908   18.9495 C   0  0  0  0  0  0  0  0  0  0  0  0
  -26.4957  -16.3261   20.4178 C   0  0  0  0  0  0  0  0  0  0  0  0
  -29.1175  -18.2190   20.1623 C   0  0  0  0  0  0  0  0  0  0  0  0
  -30.4068  -21.3088   19.5006 C   0  0  0  0  0  0  0  0  0  0  0  0
  -22.8393  -29.1616   22.4996 C   0  0  0  0  0  0  0  0  0  0  0  0
  -25.4921  -11.3219   20.5127 C   0  0  0  0  0  0  0  0  0  0  0  0
  -26.1564  -17.3509   18.1395 C   0  0  0  0  0  0  0  0  0  0  0  0
  -26.8798  -19.3843   20.1610 C   0  0  0  0  0  0  0  0  0  0  0  0
  -26.6906  -12.2018   20.8587 C   0  0  0  0  0  0  0  0  0  0  0  0
  -23.3283  -26.8017   19.6389 C   0  0  0  0  0  0  0  0  0  0  0  0
  -26.2600  -13.3658   21.7456 C   0  0  0  0  0  0  0  0  0  0  0  0
  -24.6980  -27.2445   19.1267 C   0  0  0  0  0  0  0  0  0  0  0  0
  -22.5833  -27.9591   20.2930 C   0  0  0  0  0  0  0  0  0  0  0  0
  -24.7127  -29.0639   20.8942 C   0  0  0  0  0  0  0  0  0  0  0  0
  -25.2456  -14.2623   21.0254 C   0  0  1  0  0  0  0  0  0  0  0  0
  -27.1381  -17.0483   19.2674 C   0  0  1  0  0  0  0  0  0  0  0  0
  -25.5105  -27.9216   20.2434 C   0  0  2  0  0  0  0  0  0  0  0  0
  -32.5816  -22.5574   19.4090 C   0  0  0  0  0  0  0  0  0  0  0  0
  -29.1758  -18.3362   23.2107 C   0  0  0  0  0  0  0  0  0  0  0  0
  -30.7184  -20.3004   23.0362 C   0  0  0  0  0  0  0  0  0  0  0  0
  -31.4185  -18.0829   22.1333 C   0  0  0  0  0  0  0  0  0  0  0  0
  -19.8687  -31.1221   25.4452 C   0  0  0  0  0  0  0  0  0  0  0  0
  -30.0699  -21.9168   16.6239 C   0  0  0  0  0  0  0  0  0  0  0  0
  -20.0628  -22.8619   22.5163 C   0  0  0  0  0  0  0  0  0  0  0  0
  -20.5568  -28.4457   21.6767 C   0  0  0  0  0  0  0  0  0  0  0  0
  -20.8513  -22.0123   21.5134 C   0  0  0  0  0  0  0  0  0  0  0  0
  -20.4621  -22.2865   20.0601 C   0  0  0  0  0  0  0  0  0  0  0  0
  -20.8578  -29.3400   23.9561 C   0  0  0  0  0  0  0  0  0  0  0  0
  -21.2365  -21.3973   19.0967 C   0  0  0  0  0  0  0  0  0  1  0  0
  -29.6497  -19.4154   20.9135 C   0  0  1  0  0  0  0  0  0  0  0  0
  -31.5618  -21.7509   18.6203 C   0  0  2  0  0  0  0  0  0  0  0  0
  -18.4237  -26.9067   20.3816 C   0  0  0  0  0  0  0  0  0  0  0  0
  -30.2151  -19.0342   22.3108 C   0  0  0  0  0  0  0  0  0  0  0  0
  -20.5048  -30.8079   24.1076 C   0  0  0  0  0  0  0  0  0  0  0  0
  -21.3215  -26.3981   22.7062 N   0  0  0  0  0  0  0  0  0  0  0  0
  -26.9929  -29.6506   19.2969 N   0  0  0  0  0  0  0  0  0  0  0  0
  -19.2806  -24.9260   21.4683 N   0  0  0  0  0  0  0  0  0  0  0  0
  -26.8663  -28.3914   19.7491 N   0  0  0  0  0  0  0  0  0  0  0  0
  -27.7597  -18.2558   19.8149 N   0  0  0  0  0  0  0  0  0  0  0  0
  -23.3927  -28.6061   21.3342 N   0  0  0  0  0  0  0  0  0  0  0  0
  -28.0729  -26.3870   20.1190 N   0  0  0  0  0  0  0  0  0  0  0  0
  -31.1864  -29.1773   18.4114 N   0  0  0  0  0  0  0  0  0  0  0  0
  -25.9165  -15.1200   20.0721 N   0  0  0  0  0  0  0  0  0  0  0  0
  -30.6197  -20.0536   20.0303 N   0  0  0  0  0  0  0  0  0  0  0  0
  -21.4478  -29.0684   22.6530 N   0  0  0  0  0  0  0  0  0  0  0  0
  -31.0635  -22.5936   17.4966 N   0  3  0  0  0  0  0  0  0  0  0  0
  -30.8184  -27.0537   19.1945 O   0  0  0  0  0  0  0  0  0  0  0  0
  -26.5247  -16.8253   21.5366 O   0  0  0  0  0  0  0  0  0  0  0  0
  -29.8802  -17.2893   19.8873 O   0  0  0  0  0  0  0  0  0  0  0  0
  -29.4166  -22.0085   19.7016 O   0  0  0  0  0  0  0  0  0  0  0  0
  -23.5493  -29.7002   23.3585 O   0  0  0  0  0  0  0  0  0  0  0  0
  -30.3709  -34.4627   16.8511 O   0  0  0  0  0  0  0  0  0  0  0  0
  -22.6324  -21.6413   19.2646 O   0  0  0  0  0  0  0  0  0  1  0  0
  -27.4291  -37.0589   12.9768 F   0  0  0  0  0  0  0  0  0  0  0  0
  -31.4187  -34.9011   14.3306 F   0  0  0  0  0  0  0  0  0  0  0  0
  -18.6166  -28.2514   20.2360 F   0  0  0  0  0  0  0  0  0  0  0  0
  -18.4273  -26.4076   19.1097 F   0  0  0  0  0  0  0  0  0  0  0  0
  -17.1399  -26.7678   20.8248 F   0  0  0  0  0  0  0  0  0  0  0  0
  -21.6226  -31.5647   23.9658 F   0  0  0  0  0  0  0  0  0  0  0  0
  -19.6511  -31.1779   23.1192 F   0  0  0  0  0  0  0  0  0  0  0  0
  1  2  1  0  0  0  0
  1  5  2  0  0  0  0
  2  6  2  0  0  0  0
  3  8  2  0  0  0  0
  3 16  1  0  0  0  0
  4  9  1  0  0  0  0
  4 16  2  0  0  0  0
  5 18  1  0  0  0  0
  6 20  1  0  0  0  0
  7 10  2  0  0  0  0
  7 19  1  0  0  0  0
  8 22  1  0  0  0  0
  9 22  2  0  0  0  0
 10 23  1  0  0  0  0
 11 12  2  0  0  0  0
 11 24  1  0  0  0  0
 12 25  1  0  0  0  0
 13 21  1  0  0  0  0
 13 23  2  0  0  0  0
 14 25  2  0  0  0  0
 14 26  1  0  0  0  0
 15 28  1  0  0  0  0
 15 66  2  0  0  0  0
 16 27  1  0  0  0  0
 17 27  1  0  0  0  0
 17 31  2  0  0  0  0
 17 32  1  0  0  0  0
 18 20  2  0  0  0  0
 18 37  1  0  0  0  0
 19 21  2  0  0  0  0
 19 38  1  0  0  0  0
 20 46  1  0  0  0  0
 21 39  1  0  0  0  0
 22 83  1  0  0  0  0
 23 84  1  0  0  0  0
 24 26  2  0  0  0  0
 24 83  1  0  0  0  0
 25 85  1  0  0  0  0
 26 86  1  0  0  0  0
 27 67  2  0  0  0  0
 28 55  1  0  0  0  0
 28 68  2  0  0  0  0
 29 30  2  0  0  0  0
 29 56  1  0  0  0  0
 29 66  1  0  0  0  0
 30 63  1  0  0  0  0
 30 68  1  0  0  0  0
 31 69  1  0  0  0  0
 31 72  1  0  0  0  0
 32 73  1  0  0  0  0
 32 78  2  0  0  0  0
 33 47  1  0  0  0  0
 33 74  1  0  0  0  0
 33 79  2  0  0  0  0
 34 61  1  0  0  0  0
 34 70  1  0  0  0  0
 34 80  2  0  0  0  0
 35 62  1  0  0  0  0
 35 75  1  0  0  0  0
 35 81  2  0  0  0  0
 36 71  1  0  0  0  0
 36 76  1  0  0  0  0
 36 82  2  0  0  0  0
 37 40  1  0  0  0  0
 38 47  1  0  0  0  0
 39 70  1  0  0  0  0
 40 42  1  0  0  0  0
 41 43  1  0  0  0  0
 41 44  1  0  0  0  0
 42 46  1  0  0  0  0
 43 48  1  0  0  0  0
 44 71  1  0  0  0  0
 45 48  1  0  0  0  0
 45 71  1  0  0  0  0
 46 74  1  0  0  0  0
 47 70  1  0  0  0  0
 48 69  1  0  0  0  0
 49 62  1  0  0  0  0
 50 64  1  0  0  0  0
 51 64  1  0  0  0  0
 52 64  1  0  0  0  0
 53 65  1  0  0  0  0
 54 77  1  0  0  0  0
 55 57  1  0  0  0  0
 56 76  1  0  0  0  0
 57 58  1  0  0  0  0
 58 60  1  0  0  0  0
 59 65  1  0  0  0  0
 59 76  1  0  0  0  0
 60 84  1  0  0  0  0
 61 64  1  0  0  0  0
 61 75  1  0  0  0  0
 62 77  1  0  0  0  0
 63 87  1  0  0  0  0
 63 88  1  0  0  0  0
 63 89  1  0  0  0  0
 65 90  1  0  0  0  0
 65 91  1  0  0  0  0
 67 69  1  0  0  0  0
M  CHG  1  77   1
M  ISO  4  36 100  60 101  76 100  84 101
M  END
> <Batch ID>
0063

> <Smiles>
CNC(C)C(=O)NC(C(=O)N1Cc2cc([101O:1][101CH2:1]CCCc3cnc(C[100N:0](CC(C)(F)F)[100C:0](=O)N4CCCC(n5nc(-c6ccc(Oc7ccc(F)cc7F)cc6)c(C(N)=O)c5N)C4)c(C(F)(F)F)n3)ccc2CC1C(=O)NC1CCCc2ccccc21)C(C)(C)C

> <Shape>
0.212

> <Color>
0.076

> <Negative vol penalty>
0.000

$$$$

  -OEChem-04052318022D

  0  0  0     0  0  0  0  0  0999 V2000
M  END
$$$$

  -OEChem-04052318022D

  0  0  0     0  0  0  0  0  0999 V2000
M  END
$$$$

  -OEChem-04052318023D

 81 89  0     1  0  0  0  0  0999 V2000
  -13.8828  -16.6825   23.7266 C   0  0  0  0  0  0  0  0  0  0  0  0
  -14.9526  -15.9097   23.2865 C   0  0  0  0  0  0  0  0  0  0  0  0
  -23.1874   -9.8245   19.9331 C   0  0  0  0  0  0  0  0  0  0  0  0
  -23.5742   -9.9995   22.3115 C   0  0  0  0  0  0  0  0  0  0  0  0
  -14.1156  -17.8083   24.5155 C   0  0  0  0  0  0  0  0  0  0  0  0
  -16.2560  -16.2629   23.6342 C   0  0  0  0  0  0  0  0  0  0  0  0
  -22.6237  -13.3388   25.1237 C   0  0  0  0  0  0  0  0  0  0  0  0
  -22.4213   -8.6779   20.1420 C   0  0  0  0  0  0  0  0  0  0  0  0
  -22.8080   -8.8529   22.5204 C   0  0  0  0  0  0  0  0  0  0  0  0
  -23.9629  -13.4240   24.7455 C   0  0  0  0  0  0  0  0  0  0  0  0
  -23.2062   -5.5065   22.2477 C   0  0  0  0  0  0  0  0  0  0  0  0
  -23.7071   -4.5430   23.1230 C   0  0  0  0  0  0  0  0  0  0  0  0
  -24.2393  -15.3445   26.1788 C   0  0  0  0  0  0  0  0  0  0  0  0
  -21.7556   -4.8011   24.5238 C   0  0  0  0  0  0  0  0  0  0  0  0
  -29.2557  -14.6384   25.2356 C   0  0  0  0  0  0  0  0  0  0  0  0
  -23.7640  -10.4854   21.0178 C   0  0  0  0  0  0  0  0  0  0  0  0
  -24.1032  -13.0024   20.7783 C   0  0  0  0  0  0  0  0  0  0  0  0
  -15.4218  -18.1699   24.8811 C   0  0  0  0  0  0  0  0  0  0  0  0
  -22.0785  -14.2641   26.0254 C   0  0  0  0  0  0  0  0  0  0  0  0
  -16.5065  -17.3953   24.4277 C   0  0  0  0  0  0  0  0  0  0  0  0
  -22.8935  -15.2674   26.5688 C   0  0  0  0  0  0  0  0  0  0  0  0
  -22.2315   -8.1920   21.4357 C   0  0  0  0  0  0  0  0  0  0  0  0
  -24.7702  -14.4286   25.2709 C   0  0  0  0  0  0  0  0  0  0  0  0
  -21.9800   -6.1174   22.5104 C   0  0  0  0  0  0  0  0  0  0  0  0
  -22.9819   -4.1903   24.2611 C   0  0  0  0  0  0  0  0  0  0  0  0
  -21.2547   -5.7647   23.6484 C   0  0  0  0  0  0  0  0  0  0  0  0
  -24.5560  -11.6696   20.8026 C   0  0  0  0  0  0  0  0  0  0  0  0
  -28.2425  -15.5127   24.9319 C   0  0  0  0  0  0  0  0  0  0  0  0
  -25.2340  -13.7449   20.5407 C   0  0  0  0  0  0  0  0  0  0  0  0
  -22.7789  -13.5226   20.9549 C   0  0  0  0  0  0  0  0  0  0  0  0
  -19.7658  -16.4400   25.8828 C   0  0  0  0  0  0  0  0  0  0  0  0
  -20.3851  -16.7388   29.0529 C   0  0  0  0  0  0  0  0  0  0  0  0
  -22.6030  -16.3645   31.6195 C   0  0  0  0  0  0  0  0  0  0  0  0
  -31.0518  -12.7495   21.5473 C   0  0  0  0  0  0  0  0  0  0  0  0
  -15.6271  -19.4223   25.6961 C   0  0  0  0  0  0  0  0  0  0  0  0
  -20.6389  -14.1424   26.4438 C   0  0  0  0  0  0  0  0  0  0  0  0
  -22.3618  -16.2730   27.5559 C   0  0  0  0  0  0  0  0  0  0  0  0
  -17.0117  -19.5149   26.3321 C   0  0  0  0  0  0  0  0  0  0  0  0
  -29.5138  -13.4745   18.4191 C   0  0  0  0  0  0  0  0  0  0  0  0
  -18.0920  -19.1703   25.3117 C   0  0  0  0  0  0  0  0  0  0  0  0
  -28.0279  -13.2144   18.6730 C   0  0  0  0  0  0  0  0  0  0  0  0
  -30.3972  -12.4830   19.1731 C   0  0  0  0  0  0  0  0  0  0  0  0
  -28.6495  -12.1375   20.8759 C   0  0  0  0  0  0  0  0  0  0  0  0
  -17.9330  -17.7319   24.8045 C   0  0  1  0  0  0  0  0  0  0  0  0
  -20.0583  -15.4497   26.9743 C   0  0  1  0  0  0  0  0  0  0  0  0
  -27.7201  -13.1473   20.1810 C   0  0  2  0  0  0  0  0  0  0  0  0
  -22.8353  -16.7297   34.0914 C   0  0  0  0  0  0  0  0  0  0  0  0
  -20.7304  -19.7327   28.5757 C   0  0  0  0  0  0  0  0  0  0  0  0
  -21.8647  -19.8860   30.8024 C   0  0  0  0  0  0  0  0  0  0  0  0
  -19.4865  -19.1459   30.6645 C   0  0  0  0  0  0  0  0  0  0  0  0
  -32.5318  -15.2279   23.3544 C   0  0  0  0  0  0  0  0  0  0  0  0
  -32.2907  -14.6082   25.7447 C   0  0  0  0  0  0  0  0  0  0  0  0
  -23.0452  -13.4815   32.1212 C   0  0  0  0  0  0  0  0  0  0  0  0
  -26.8469  -15.5686   25.4801 C   0  0  0  0  0  0  0  0  0  1  0  0
  -31.5506  -12.9951   23.9660 C   0  0  0  0  0  0  0  0  0  0  0  0
  -21.3172  -17.5861   29.8849 C   0  0  1  0  0  0  0  0  0  0  0  0
  -22.4540  -15.7447   32.9972 C   0  0  2  0  0  0  0  0  0  0  0  0
  -20.8596  -19.0700   29.9618 C   0  0  0  0  0  0  0  0  0  0  0  0
  -31.6090  -14.4963   24.3598 C   0  0  0  0  0  0  0  0  0  0  0  0
  -25.8718  -11.5682   20.5966 N   0  0  0  0  0  0  0  0  0  0  0  0
  -28.6757  -16.4111   23.9966 N   0  0  0  0  0  0  0  0  0  0  0  0
  -29.9388  -16.1197   23.7051 N   0  0  0  0  0  0  0  0  0  0  0  0
  -30.2845  -15.0565   24.4489 N   0  0  0  0  0  0  0  0  0  0  0  0
  -26.2555  -12.8467   20.4406 N   0  0  0  0  0  0  0  0  0  0  0  0
  -20.9463  -16.1162   27.9290 N   0  0  0  0  0  0  0  0  0  0  0  0
  -30.0557  -12.4690   20.5975 N   0  0  0  0  0  0  0  0  0  0  0  0
  -25.4442  -15.0719   20.4096 N   0  0  0  0  0  0  0  0  0  0  0  0
  -21.7326  -12.6205   21.1907 N   0  0  0  0  0  0  0  0  0  0  0  0
  -18.4332  -16.7921   25.7848 N   0  0  0  0  0  0  0  0  0  0  0  0
  -21.4220  -16.9252   31.1813 N   0  0  0  0  0  0  0  0  0  0  0  0
  -30.6422  -12.7214   22.8748 N   0  0  0  0  0  0  0  0  0  0  0  0
  -23.3267  -14.5430   33.1217 N   0  3  0  0  0  0  0  0  0  0  0  0
  -22.5281  -14.7499   20.8888 O   0  0  0  0  0  0  0  0  0  0  0  0
  -20.6816  -16.8552   25.1824 O   0  0  0  0  0  0  0  0  0  0  0  0
  -19.2043  -16.6276   29.3919 O   0  0  0  0  0  0  0  0  0  0  0  0
  -23.6622  -16.3557   30.9961 O   0  0  0  0  0  0  0  0  0  0  0  0
  -32.2184  -13.0111   21.2351 O   0  0  0  0  0  0  0  0  0  0  0  0
  -21.4837   -7.0733   21.6400 O   0  0  0  0  0  0  0  0  0  0  0  0
  -26.0776  -14.5144   24.9029 O   0  0  0  0  0  0  0  0  0  1  0  0
  -23.4623   -3.2638   25.1008 F   0  0  0  0  0  0  0  0  0  0  0  0
  -20.0756   -6.3472   23.9055 F   0  0  0  0  0  0  0  0  0  0  0  0
  1  2  1  0  0  0  0
  1  5  2  0  0  0  0
  2  6  2  0  0  0  0
  3  8  2  0  0  0  0
  3 16  1  0  0  0  0
  4  9  1  0  0  0  0
  4 16  2  0  0  0  0
  5 18  1  0  0  0  0
  6 20  1  0  0  0  0
  7 10  2  0  0  0  0
  7 19  1  0  0  0  0
  8 22  1  0  0  0  0
  9 22  2  0  0  0  0
 10 23  1  0  0  0  0
 11 12  2  0  0  0  0
 11 24  1  0  0  0  0
 12 25  1  0  0  0  0
 13 21  1  0  0  0  0
 13 23  2  0  0  0  0
 14 25  2  0  0  0  0
 14 26  1  0  0  0  0
 15 28  2  0  0  0  0
 15 63  1  0  0  0  0
 16 27  1  0  0  0  0
 17 27  1  0  0  0  0
 17 29  2  0  0  0  0
 17 30  1  0  0  0  0
 18 20  2  0  0  0  0
 18 35  1  0  0  0  0
 19 21  2  0  0  0  0
 19 36  1  0  0  0  0
 20 44  1  0  0  0  0
 21 37  1  0  0  0  0
 22 78  1  0  0  0  0
 23 79  1  0  0  0  0
 24 26  2  0  0  0  0
 24 78  1  0  0  0  0
 25 80  1  0  0  0  0
 26 81  1  0  0  0  0
 27 60  2  0  0  0  0
 28 54  1  0  0  0  0
 28 61  1  0  0  0  0
 29 64  1  0  0  0  0
 29 67  1  0  0  0  0
 30 68  1  0  0  0  0
 30 73  2  0  0  0  0
 31 45  1  0  0  0  0
 31 69  1  0  0  0  0
 31 74  2  0  0  0  0
 32 56  1  0  0  0  0
 32 65  1  0  0  0  0
 32 75  2  0  0  0  0
 33 57  1  0  0  0  0
 33 70  1  0  0  0  0
 33 76  2  0  0  0  0
 34 66  1  0  0  0  0
 34 71  1  0  0  0  0
 34 77  2  0  0  0  0
 35 38  1  0  0  0  0
 36 45  1  0  0  0  0
 37 65  1  0  0  0  0
 38 40  1  0  0  0  0
 39 41  1  0  0  0  0
 39 42  1  0  0  0  0
 40 44  1  0  0  0  0
 41 46  1  0  0  0  0
 42 66  1  0  0  0  0
 43 46  1  0  0  0  0
 43 66  1  0  0  0  0
 44 69  1  0  0  0  0
 45 65  1  0  0  0  0
 46 64  1  0  0  0  0
 47 57  1  0  0  0  0
 48 58  1  0  0  0  0
 49 58  1  0  0  0  0
 50 58  1  0  0  0  0
 51 59  1  0  0  0  0
 52 59  1  0  0  0  0
 53 72  1  0  0  0  0
 54 79  1  0  0  0  0
 55 59  1  0  0  0  0
 55 71  1  0  0  0  0
 56 58  1  0  0  0  0
 56 70  1  0  0  0  0
 57 72  1  0  0  0  0
 59 63  1  0  0  0  0
 60 64  1  0  0  0  0
 61 62  2  0  0  0  0
 62 63  1  0  0  0  0
M  CHG  1  72   1
M  ISO  4  34 100  54 101  71 100  79 101
M  END
> <Batch ID>
0063

> <Smiles>
CNC(C)C(=O)NC(C(=O)N1Cc2cc([101O:1][101CH2:1]c3cn(C(C)(C)C[100NH:0][100C:0](=O)N4CCCC(n5nc(-c6ccc(Oc7ccc(F)cc7F)cc6)c(C(N)=O)c5N)C4)nn3)ccc2CC1C(=O)NC1CCCc2ccccc21)C(C)(C)C

> <Shape>
0.146

> <Color>
0.177

> <Negative vol penalty>
0.000

$$$$
