
  -OEChem-04052318053D

 85 93  0     1  0  0  0  0  0999 V2000
  -21.9083  -11.3854   20.1230 C   0  0  0  0  0  0  0  0  0  0  0  0
  -21.5900  -12.7371   20.2060 C   0  0  0  0  0  0  0  0  0  0  0  0
  -28.3854  -23.8040   24.5435 C   0  0  0  0  0  0  0  0  0  0  0  0
  -26.3309  -23.2886   23.3814 C   0  0  0  0  0  0  0  0  0  0  0  0
  -23.2089  -10.9591   20.3888 C   0  0  0  0  0  0  0  0  0  0  0  0
  -22.5719  -13.6633   20.5560 C   0  0  0  0  0  0  0  0  0  0  0  0
  -23.1164  -19.4061   18.4993 C   0  0  0  0  0  0  0  0  0  0  0  0
  -28.2075  -22.6835   25.3550 C   0  0  0  0  0  0  0  0  0  0  0  0
  -26.1530  -22.1681   24.1929 C   0  0  0  0  0  0  0  0  0  0  0  0
  -22.7402  -20.6353   19.0390 C   0  0  0  0  0  0  0  0  0  0  0  0
  -28.4804  -19.7564   27.4934 C   0  0  0  0  0  0  0  0  0  0  0  0
  -29.5863  -18.9370   27.7192 C   0  0  0  0  0  0  0  0  0  0  0  0
  -24.9707  -20.9288   19.9097 C   0  0  0  0  0  0  0  0  0  0  0  0
  -29.7620  -18.5201   25.3459 C   0  0  0  0  0  0  0  0  0  0  0  0
  -20.8787  -27.9556   21.4042 C   0  0  0  0  0  0  0  0  0  0  0  0
  -27.4470  -24.1066   23.5567 C   0  0  0  0  0  0  0  0  0  0  0  0
  -28.3110  -25.3236   21.4879 C   0  0  0  0  0  0  0  0  0  0  0  0
  -24.2096  -11.8816   20.7328 C   0  0  0  0  0  0  0  0  0  0  0  0
  -24.4217  -18.9231   18.6704 C   0  0  0  0  0  0  0  0  0  0  0  0
  -23.8868  -13.2488   20.8280 C   0  0  0  0  0  0  0  0  0  0  0  0
  -25.3616  -19.6943   19.3690 C   0  0  0  0  0  0  0  0  0  0  0  0
  -27.0913  -21.8656   25.1797 C   0  0  0  0  0  0  0  0  0  0  0  0
  -23.6666  -21.3955   19.7468 C   0  0  0  0  0  0  0  0  0  0  0  0
  -28.0151  -19.9576   26.1938 C   0  0  0  0  0  0  0  0  0  0  0  0
  -30.2272  -18.3189   26.6455 C   0  0  0  0  0  0  0  0  0  0  0  0
  -28.6560  -19.3395   25.1201 C   0  0  0  0  0  0  0  0  0  0  0  0
  -27.6300  -25.2642   22.7185 C   0  0  0  0  0  0  0  0  0  0  0  0
  -21.4399  -28.8243   22.3141 C   0  0  0  0  0  0  0  0  0  0  0  0
  -21.2761  -27.2257   23.9412 C   0  0  0  0  0  0  0  0  0  0  0  0
  -20.7142  -26.3573   23.0314 C   0  0  0  0  0  0  0  0  0  0  0  0
  -28.2014  -26.6359   21.0978 C   0  0  0  0  0  0  0  0  0  0  0  0
  -28.9824  -24.2852   20.7621 C   0  0  0  0  0  0  0  0  0  0  0  0
  -25.7052  -16.3754   20.0723 C   0  0  0  0  0  0  0  0  0  0  0  0
  -28.4417  -17.5122   18.7528 C   0  0  0  0  0  0  0  0  0  0  0  0
  -30.1726  -20.1833   17.5215 C   0  0  0  0  0  0  0  0  0  0  0  0
  -24.0440  -30.7889   22.8319 C   0  0  0  0  0  0  0  0  0  0  0  0
  -25.5900  -11.3680   21.0573 C   0  0  0  0  0  0  0  0  0  0  0  0
  -24.8191  -17.6075   18.0591 C   0  0  0  0  0  0  0  0  0  0  0  0
  -26.7812  -19.2301   19.5633 C   0  0  0  0  0  0  0  0  0  0  0  0
  -26.6607  -12.4560   21.0559 C   0  0  0  0  0  0  0  0  0  0  0  0
  -27.7360  -31.0526   22.8618 C   0  0  0  0  0  0  0  0  0  0  0  0
  -26.1796  -13.6794   21.8297 C   0  0  0  0  0  0  0  0  0  0  0  0
  -28.1749  -29.5907   22.7956 C   0  0  0  0  0  0  0  0  0  0  0  0
  -26.3738  -31.2060   23.5315 C   0  0  0  0  0  0  0  0  0  0  0  0
  -25.7415  -28.9151   22.8488 C   0  0  0  0  0  0  0  0  0  0  0  0
  -24.9302  -14.2867   21.1803 C   0  0  1  0  0  0  0  0  0  0  0  0
  -26.0328  -16.9770   18.7350 C   0  0  1  0  0  0  0  0  0  0  0  0
  -27.0893  -28.7213   22.1378 C   0  0  2  0  0  0  0  0  0  0  0  0
  -21.5021  -26.8263   25.3594 C   0  0  0  0  0  0  0  0  0  0  0  0
  -23.5259  -31.5333   19.6077 C   0  0  0  0  0  0  0  0  0  0  0  0
  -32.4006  -20.8091   16.5512 C   0  0  0  0  0  0  0  0  0  0  0  0
  -29.6834  -17.3999   21.5376 C   0  0  0  0  0  0  0  0  0  0  0  0
  -31.5163  -18.8881   20.7044 C   0  0  0  0  0  0  0  0  0  0  0  0
  -31.1873  -16.6316   19.6931 C   0  0  0  0  0  0  0  0  0  0  0  0
  -28.9477  -21.0554   14.9724 C   0  0  0  0  0  0  0  0  0  0  0  0
  -20.3015  -24.9621   23.4274 C   0  0  0  0  0  0  0  0  0  0  0  0
  -21.8389  -30.1974   21.9005 C   0  0  0  0  0  0  0  0  0  0  0  0
  -20.4227  -23.9358   22.2955 C   0  0  0  0  0  0  0  0  0  0  0  0
  -21.8617  -23.7406   21.8159 C   0  0  0  0  0  0  0  0  0  0  0  0
  -23.7762  -30.2502   20.3741 C   0  0  0  0  0  0  0  0  0  0  0  0
  -21.9377  -22.7452   20.6661 C   0  0  0  0  0  0  0  0  0  1  0  0
  -29.5238  -18.4685   19.1927 C   0  0  1  0  0  0  0  0  0  0  0  0
  -30.9796  -20.3604   16.2480 C   0  0  2  0  0  0  0  0  0  0  0  0
  -30.4505  -17.8552   20.2801 C   0  0  0  0  0  0  0  0  0  0  0  0
  -20.5057  -26.7065   21.7465 N   0  0  0  0  0  0  0  0  0  0  0  0
  -27.1253  -26.4449   23.0861 N   0  0  0  0  0  0  0  0  0  0  0  0
  -21.6487  -28.4749   23.5990 N   0  0  0  0  0  0  0  0  0  0  0  0
  -27.4895  -27.2587   22.0804 N   0  0  0  0  0  0  0  0  0  0  0  0
  -27.1196  -17.9341   18.9522 N   0  0  0  0  0  0  0  0  0  0  0  0
  -25.3712  -30.3368   22.9147 N   0  0  0  0  0  0  0  0  0  0  0  0
  -28.6456  -27.3065   20.0136 N   0  0  0  0  0  0  0  0  0  0  0  0
  -28.9997  -22.9936   21.3060 N   0  0  0  0  0  0  0  0  0  0  0  0
  -25.2928  -15.0579   20.0106 N   0  0  0  0  0  0  0  0  0  0  0  0
  -30.2197  -18.8836   17.9795 N   0  0  0  0  0  0  0  0  0  0  0  0
  -23.2802  -30.3348   21.7460 N   0  0  0  0  0  0  0  0  0  0  0  0
  -30.3421  -21.3806   15.3684 N   0  3  0  0  0  0  0  0  0  0  0  0
  -29.5644  -24.5001   19.6719 O   0  0  0  0  0  0  0  0  0  0  0  0
  -25.8195  -17.0555   21.0852 O   0  0  0  0  0  0  0  0  0  0  0  0
  -28.7579  -16.4338   18.2442 O   0  0  0  0  0  0  0  0  0  0  0  0
  -29.5646  -21.1066   18.0586 O   0  0  0  0  0  0  0  0  0  0  0  0
  -23.5717  -31.5624   23.6749 O   0  0  0  0  0  0  0  0  0  0  0  0
  -26.9175  -20.7720   25.9712 O   0  0  0  0  0  0  0  0  0  0  0  0
  -23.3018  -22.5954   20.2751 O   0  0  0  0  0  0  0  0  0  1  0  0
  -31.2902  -17.5333   26.8623 F   0  0  0  0  0  0  0  0  0  0  0  0
  -28.2144  -19.5300   23.8693 F   0  0  0  0  0  0  0  0  0  0  0  0
  1  2  1  0  0  0  0
  1  5  2  0  0  0  0
  2  6  2  0  0  0  0
  3  8  2  0  0  0  0
  3 16  1  0  0  0  0
  4  9  1  0  0  0  0
  4 16  2  0  0  0  0
  5 18  1  0  0  0  0
  6 20  1  0  0  0  0
  7 10  2  0  0  0  0
  7 19  1  0  0  0  0
  8 22  1  0  0  0  0
  9 22  2  0  0  0  0
 10 23  1  0  0  0  0
 11 12  2  0  0  0  0
 11 24  1  0  0  0  0
 12 25  1  0  0  0  0
 13 21  1  0  0  0  0
 13 23  2  0  0  0  0
 14 25  2  0  0  0  0
 14 26  1  0  0  0  0
 15 28  1  0  0  0  0
 15 65  2  0  0  0  0
 16 27  1  0  0  0  0
 17 27  1  0  0  0  0
 17 31  2  0  0  0  0
 17 32  1  0  0  0  0
 18 20  2  0  0  0  0
 18 37  1  0  0  0  0
 19 21  2  0  0  0  0
 19 38  1  0  0  0  0
 20 46  1  0  0  0  0
 21 39  1  0  0  0  0
 22 82  1  0  0  0  0
 23 83  1  0  0  0  0
 24 26  2  0  0  0  0
 24 82  1  0  0  0  0
 25 84  1  0  0  0  0
 26 85  1  0  0  0  0
 27 66  2  0  0  0  0
 28 57  1  0  0  0  0
 28 67  2  0  0  0  0
 29 30  2  0  0  0  0
 29 49  1  0  0  0  0
 29 67  1  0  0  0  0
 30 56  1  0  0  0  0
 30 65  1  0  0  0  0
 31 68  1  0  0  0  0
 31 71  1  0  0  0  0
 32 72  1  0  0  0  0
 32 77  2  0  0  0  0
 33 47  1  0  0  0  0
 33 73  1  0  0  0  0
 33 78  2  0  0  0  0
 34 62  1  0  0  0  0
 34 69  1  0  0  0  0
 34 79  2  0  0  0  0
 35 63  1  0  0  0  0
 35 74  1  0  0  0  0
 35 80  2  0  0  0  0
 36 70  1  0  0  0  0
 36 75  1  0  0  0  0
 36 81  2  0  0  0  0
 37 40  1  0  0  0  0
 38 47  1  0  0  0  0
 39 69  1  0  0  0  0
 40 42  1  0  0  0  0
 41 43  1  0  0  0  0
 41 44  1  0  0  0  0
 42 46  1  0  0  0  0
 43 48  1  0  0  0  0
 44 70  1  0  0  0  0
 45 48  1  0  0  0  0
 45 70  1  0  0  0  0
 46 73  1  0  0  0  0
 47 69  1  0  0  0  0
 48 68  1  0  0  0  0
 50 60  1  0  0  0  0
 51 63  1  0  0  0  0
 52 64  1  0  0  0  0
 53 64  1  0  0  0  0
 54 64  1  0  0  0  0
 55 76  1  0  0  0  0
 56 58  1  0  0  0  0
 57 75  1  0  0  0  0
 58 59  1  0  0  0  0
 59 61  1  0  0  0  0
 60 75  1  0  0  0  0
 61 83  1  0  0  0  0
 62 64  1  0  0  0  0
 62 74  1  0  0  0  0
 63 76  1  0  0  0  0
 66 68  1  0  0  0  0
M  CHG  1  76   1
M  ISO  4  36 100  61 101  75 100  83 101
M  END
> <Batch ID>
0064

> <Smiles>
CC[100N:0](Cc1cnc(CCC[101CH2:1][101O:1]c2ccc3c(c2)CN(C(=O)C(NC(=O)C(C)NC)C(C)(C)C)C(C(=O)NC2CCCc4ccccc42)C3)c(C)n1)[100C:0](=O)N1CCCC(n2nc(-c3ccc(Oc4ccc(F)cc4F)cc3)c(C(N)=O)c2N)C1

> <Shape>
0.209

> <Color>
0.064

> <Negative vol penalty>
0.000

$$$$

  -OEChem-04052318053D

 93101  0     1  0  0  0  0  0999 V2000
  -15.2362  -28.8407   20.4787 C   0  0  0  0  0  0  0  0  0  0  0  0
  -16.4369  -28.3407   19.9852 C   0  0  0  0  0  0  0  0  0  0  0  0
  -22.9012  -10.1506   20.0989 C   0  0  0  0  0  0  0  0  0  0  0  0
  -24.2850   -9.4427   21.9486 C   0  0  0  0  0  0  0  0  0  0  0  0
  -15.1751  -30.1432   20.9722 C   0  0  0  0  0  0  0  0  0  0  0  0
  -17.5772  -29.1433   19.9840 C   0  0  0  0  0  0  0  0  0  0  0  0
  -21.6872  -26.6823   21.6260 C   0  0  0  0  0  0  0  0  0  0  0  0
  -22.1823   -8.9581   20.1804 C   0  0  0  0  0  0  0  0  0  0  0  0
  -23.5660   -8.2502   22.0301 C   0  0  0  0  0  0  0  0  0  0  0  0
  -22.3079  -25.8118   20.7313 C   0  0  0  0  0  0  0  0  0  0  0  0
  -20.5988   -7.2124   23.2706 C   0  0  0  0  0  0  0  0  0  0  0  0
  -20.2082   -6.7781   24.5373 C   0  0  0  0  0  0  0  0  0  0  0  0
  -23.9642  -27.4980   20.2490 C   0  0  0  0  0  0  0  0  0  0  0  0
  -21.4715   -4.7419   24.2287 C   0  0  0  0  0  0  0  0  0  0  0  0
  -27.1218  -17.8172   19.2893 C   0  0  0  0  0  0  0  0  0  0  0  0
  -23.9526  -10.3929   20.9830 C   0  0  0  0  0  0  0  0  0  0  0  0
  -24.4195  -12.8316   21.5682 C   0  0  0  0  0  0  0  0  0  0  0  0
  -16.3174  -30.9590   20.9860 C   0  0  0  0  0  0  0  0  0  0  0  0
  -22.1949  -27.9733   21.8312 C   0  0  0  0  0  0  0  0  0  0  0  0
  -17.5310  -30.4585   20.4770 C   0  0  0  0  0  0  0  0  0  0  0  0
  -23.3496  -28.3821   21.1489 C   0  0  0  0  0  0  0  0  0  0  0  0
  -22.5146   -8.0079   21.1460 C   0  0  0  0  0  0  0  0  0  0  0  0
  -23.4449  -26.2205   20.0404 C   0  0  0  0  0  0  0  0  0  0  0  0
  -21.4256   -6.4114   22.4829 C   0  0  0  0  0  0  0  0  0  0  0  0
  -20.6446   -5.5429   25.0164 C   0  0  0  0  0  0  0  0  0  0  0  0
  -21.8620   -5.1762   22.9620 C   0  0  0  0  0  0  0  0  0  0  0  0
  -24.6960  -11.6243   20.8990 C   0  0  0  0  0  0  0  0  0  0  0  0
  -26.1011  -18.6441   19.6653 C   0  0  0  0  0  0  0  0  0  0  0  0
  -25.4109  -13.6879   21.1553 C   0  0  0  0  0  0  0  0  0  0  0  0
  -27.7386  -18.8665   21.1383 C   0  0  0  0  0  0  0  0  0  0  0  0
  -23.3612  -13.1505   22.4814 C   0  0  0  0  0  0  0  0  0  0  0  0
  -21.0822  -30.9177   21.3887 C   0  0  0  0  0  0  0  0  0  0  0  0
  -23.8436  -31.7640   22.8655 C   0  0  0  0  0  0  0  0  0  0  0  0
  -27.0582  -30.9582   23.6802 C   0  0  0  0  0  0  0  0  0  0  0  0
  -30.9941  -14.3195   20.2921 C   0  0  0  0  0  0  0  0  0  0  0  0
  -16.1913  -32.3764   21.4859 C   0  0  0  0  0  0  0  0  0  0  0  0
  -21.5292  -28.8909   22.8198 C   0  0  0  0  0  0  0  0  0  0  0  0
  -23.9461  -29.7505   21.3487 C   0  0  0  0  0  0  0  0  0  0  0  0
  -17.5333  -33.0350   21.7947 C   0  0  0  0  0  0  0  0  0  0  0  0
  -28.8417  -13.2515   17.4765 C   0  0  0  0  0  0  0  0  0  0  0  0
  -18.5226  -32.7885   20.6600 C   0  0  0  0  0  0  0  0  0  0  0  0
  -27.5790  -12.7676   18.1874 C   0  0  0  0  0  0  0  0  0  0  0  0
  -30.0808  -13.0961   18.3528 C   0  0  0  0  0  0  0  0  0  0  0  0
  -28.6989  -13.2640   20.3964 C   0  0  0  0  0  0  0  0  0  0  0  0
  -18.7953  -31.2901   20.4817 C   0  0  1  0  0  0  0  0  0  0  0  0
  -21.8335  -30.3642   22.5663 C   0  0  1  0  0  0  0  0  0  0  0  0
  -27.4254  -13.4499   19.5579 C   0  0  2  0  0  0  0  0  0  0  0  0
  -28.5189  -19.3263   22.3141 C   0  0  0  0  0  0  0  0  0  0  0  0
  -29.0781  -31.8666   24.8600 C   0  0  0  0  0  0  0  0  0  0  0  0
  -25.9644  -24.3442   20.1892 C   0  0  0  0  0  0  0  0  0  0  0  0
  -24.2049  -17.6349   18.2866 C   0  0  0  0  0  0  0  0  0  0  0  0
  -23.6553  -19.1039   20.1633 C   0  0  0  0  0  0  0  0  0  0  0  0
  -24.4122  -33.5854   20.4844 C   0  0  0  0  0  0  0  0  0  0  0  0
  -26.7953  -33.7142   21.2411 C   0  0  0  0  0  0  0  0  0  0  0  0
  -24.9734  -34.5744   22.7119 C   0  0  0  0  0  0  0  0  0  0  0  0
  -25.7582  -19.9597   16.8595 C   0  0  0  0  0  0  0  0  0  0  0  0
  -25.2245  -21.4605   18.7687 C   0  0  0  0  0  0  0  0  0  0  0  0
  -31.8437  -16.0777   21.7976 C   0  0  0  0  0  0  0  0  0  0  0  0
  -27.0467  -28.7475   25.6477 C   0  0  0  0  0  0  0  0  0  0  0  0
  -21.9877  -21.9451   15.9509 C   0  0  0  0  0  0  0  0  0  0  0  0
  -24.4889  -23.0703   18.5917 C   0  0  0  0  0  0  0  0  0  0  0  0
  -29.3945  -17.2819   20.1990 C   0  0  0  0  0  0  0  0  0  0  0  0
  -29.4544  -16.1181   21.1849 C   0  0  0  0  0  0  0  0  0  0  0  0
  -23.1075  -22.8628   17.9769 C   0  0  0  0  0  0  0  0  0  0  0  0
  -23.3391  -20.4486   17.4124 C   0  0  0  0  0  0  0  0  0  0  0  0
  -25.2473  -32.0795   22.4082 C   0  0  1  0  0  0  0  0  0  0  0  0
  -27.8131  -31.0334   24.9950 C   0  0  2  0  0  0  0  0  0  0  0  0
  -24.5396  -24.1385   19.6902 C   0  0  2  0  0  0  0  0  0  1  0  0
  -24.7091  -18.9133   19.0274 C   0  0  0  0  0  0  0  0  0  0  0  0
  -25.3449  -33.4632   21.7060 C   0  0  0  0  0  0  0  0  0  0  0  0
  -24.7536  -20.1844   18.0207 C   0  0  0  0  0  0  0  0  0  0  0  0
  -25.7782  -11.7027   20.1200 N   0  0  0  0  0  0  0  0  0  0  0  0
  -28.1219  -17.9756   20.2181 N   0  0  0  0  0  0  0  0  0  0  0  0
  -26.1904  -12.9695   20.2971 N   0  0  0  0  0  0  0  0  0  0  0  0
  -26.5099  -19.2806   20.8124 N   0  3  0  0  0  0  0  0  0  0  0  0
  -23.2554  -30.6136   22.3211 N   0  0  0  0  0  0  0  0  0  0  0  0
  -29.8918  -13.7160   19.6648 N   0  0  0  0  0  0  0  0  0  0  0  0
  -25.6831  -14.9777   21.4462 N   0  0  0  0  0  0  0  0  0  0  0  0
  -22.4280  -12.1535   22.7970 N   0  0  0  0  0  0  0  0  0  0  0  0
  -19.7085  -30.8178   21.5004 N   0  0  0  0  0  0  0  0  0  0  0  0
  -26.0997  -31.9449   23.5845 N   0  0  0  0  0  0  0  0  0  0  0  0
  -30.7324  -15.4113   21.1336 N   0  0  0  0  0  0  0  0  0  0  0  0
  -28.1966  -29.6673   25.4510 N   0  3  0  0  0  0  0  0  0  0  0  0
  -23.1649  -21.8552   16.8920 N   0  3  1  0  0  0  0  0  0  0  0  0
  -23.2370  -14.2907   22.9894 O   0  0  0  0  0  0  0  0  0  0  0  0
  -21.7027  -31.4011   20.4491 O   0  0  0  0  0  0  0  0  0  0  0  0
  -23.2920  -32.5070   23.6812 O   0  0  0  0  0  0  0  0  0  0  0  0
  -27.2975  -30.1115   22.8221 O   0  0  0  0  0  0  0  0  0  0  0  0
  -32.1474  -13.9121   20.1029 O   0  0  0  0  0  0  0  0  0  0  0  0
  -21.8132   -6.8442   21.2259 O   0  0  0  0  0  0  0  0  0  0  0  0
  -24.0523  -25.3730   19.1660 O   0  0  0  0  0  0  0  0  0  1  0  0
  -20.2707   -5.1267   26.2334 F   0  0  0  0  0  0  0  0  0  0  0  0
  -22.6575   -4.4028   22.2104 F   0  0  0  0  0  0  0  0  0  0  0  0
  1  2  1  0  0  0  0
  1  5  2  0  0  0  0
  2  6  2  0  0  0  0
  3  8  2  0  0  0  0
  3 16  1  0  0  0  0
  4  9  1  0  0  0  0
  4 16  2  0  0  0  0
  5 18  1  0  0  0  0
  6 20  1  0  0  0  0
  7 10  2  0  0  0  0
  7 19  1  0  0  0  0
  8 22  1  0  0  0  0
  9 22  2  0  0  0  0
 10 23  1  0  0  0  0
 11 12  2  0  0  0  0
 11 24  1  0  0  0  0
 12 25  1  0  0  0  0
 13 21  1  0  0  0  0
 13 23  2  0  0  0  0
 14 25  2  0  0  0  0
 14 26  1  0  0  0  0
 15 28  2  0  0  0  0
 15 73  1  0  0  0  0
 16 27  1  0  0  0  0
 17 27  1  0  0  0  0
 17 29  2  0  0  0  0
 17 31  1  0  0  0  0
 18 20  2  0  0  0  0
 18 36  1  0  0  0  0
 19 21  2  0  0  0  0
 19 37  1  0  0  0  0
 20 45  1  0  0  0  0
 21 38  1  0  0  0  0
 22 90  1  0  0  0  0
 23 91  1  0  0  0  0
 24 26  2  0  0  0  0
 24 90  1  0  0  0  0
 25 92  1  0  0  0  0
 26 93  1  0  0  0  0
 27 72  2  0  0  0  0
 28 69  1  0  0  0  0
 28 75  1  0  0  0  0
 29 74  1  0  0  0  0
 29 78  1  0  0  0  0
 30 48  1  0  0  0  0
 30 73  1  0  0  0  0
 30 75  2  0  0  0  0
 31 79  1  0  0  0  0
 31 85  2  0  0  0  0
 32 46  1  0  0  0  0
 32 80  1  0  0  0  0
 32 86  2  0  0  0  0
 33 66  1  0  0  0  0
 33 76  1  0  0  0  0
 33 87  2  0  0  0  0
 34 67  1  0  0  0  0
 34 81  1  0  0  0  0
 34 88  2  0  0  0  0
 35 77  1  0  0  0  0
 35 82  1  0  0  0  0
 35 89  2  0  0  0  0
 36 39  1  0  0  0  0
 37 46  1  0  0  0  0
 38 76  1  0  0  0  0
 39 41  1  0  0  0  0
 40 42  1  0  0  0  0
 40 43  1  0  0  0  0
 41 45  1  0  0  0  0
 42 47  1  0  0  0  0
 43 77  1  0  0  0  0
 44 47  1  0  0  0  0
 44 77  1  0  0  0  0
 45 80  1  0  0  0  0
 46 76  1  0  0  0  0
 47 74  1  0  0  0  0
 49 67  1  0  0  0  0
 50 68  1  0  0  0  0
 51 69  1  0  0  0  0
 52 69  1  0  0  0  0
 53 70  1  0  0  0  0
 54 70  1  0  0  0  0
 55 70  1  0  0  0  0
 56 71  1  0  0  0  0
 57 71  1  0  0  0  0
 58 82  1  0  0  0  0
 59 83  1  0  0  0  0
 60 84  1  0  0  0  0
 61 64  1  0  0  0  0
 61 68  1  0  0  0  0
 62 63  1  0  0  0  0
 62 73  1  0  0  0  0
 63 82  1  0  0  0  0
 64 84  1  0  0  0  0
 65 71  1  0  0  0  0
 65 84  1  0  0  0  0
 66 70  1  0  0  0  0
 66 81  1  0  0  0  0
 67 83  1  0  0  0  0
 68 91  1  0  0  0  0
 69 71  1  0  0  0  0
 72 74  1  0  0  0  0
M  CHG  3  75   1  83   1  84   1
M  ISO  4  35 100  68 101  82 100  91 101
M  END
> <Batch ID>
0064

> <Smiles>
CNC(C)C(=O)NC(C(=O)N1Cc2cc([101O:1][101CH:1](C)CCN(C)CC(C)(C)C(C)(C)c3cn(CC[100N:0](C)[100C:0](=O)N4CCCC(n5nc(-c6ccc(Oc7ccc(F)cc7F)cc6)c(C(N)=O)c5N)C4)c(C)n3)ccc2CC1C(=O)NC1CCCc2ccccc21)C(C)(C)C

> <Shape>
0.302

> <Color>
0.129

> <Negative vol penalty>
0.000

$$$$

  -OEChem-04052318053D

 87 95  0     1  0  0  0  0  0999 V2000
  -17.9346  -32.1135   20.8065 C   0  0  0  0  0  0  0  0  0  0  0  0
  -19.2363  -32.0415   20.3209 C   0  0  0  0  0  0  0  0  0  0  0  0
  -29.6443  -17.7485   21.3282 C   0  0  0  0  0  0  0  0  0  0  0  0
  -31.7412  -18.2200   20.2247 C   0  0  0  0  0  0  0  0  0  0  0  0
  -17.6264  -31.5729   22.0542 C   0  0  0  0  0  0  0  0  0  0  0  0
  -20.2308  -31.4299   21.0833 C   0  0  0  0  0  0  0  0  0  0  0  0
  -24.9742  -28.1602   19.0060 C   0  0  0  0  0  0  0  0  0  0  0  0
  -29.8525  -16.3822   21.1401 C   0  0  0  0  0  0  0  0  0  0  0  0
  -31.9495  -16.8537   20.0366 C   0  0  0  0  0  0  0  0  0  0  0  0
  -26.3109  -28.4859   18.7802 C   0  0  0  0  0  0  0  0  0  0  0  0
  -29.6611  -12.7867   20.6305 C   0  0  0  0  0  0  0  0  0  0  0  0
  -28.5870  -12.0221   20.1752 C   0  0  0  0  0  0  0  0  0  0  0  0
  -26.8864  -27.6029   20.9501 C   0  0  0  0  0  0  0  0  0  0  0  0
  -28.4746  -13.3716   18.1743 C   0  0  0  0  0  0  0  0  0  0  0  0
  -31.4099  -29.8038   20.7241 C   0  0  0  0  0  0  0  0  0  0  0  0
  -30.5886  -18.6675   20.8704 C   0  0  0  0  0  0  0  0  0  0  0  0
  -30.7784  -20.8575   22.1649 C   0  0  0  0  0  0  0  0  0  0  0  0
  -18.6155  -30.9458   22.8280 C   0  0  0  0  0  0  0  0  0  0  0  0
  -24.5813  -27.5623   20.2121 C   0  0  0  0  0  0  0  0  0  0  0  0
  -19.9358  -30.8816   22.3431 C   0  0  0  0  0  0  0  0  0  0  0  0
  -25.5445  -27.2682   21.1877 C   0  0  0  0  0  0  0  0  0  0  0  0
  -31.0051  -15.9348   20.4944 C   0  0  0  0  0  0  0  0  0  0  0  0
  -27.2668  -28.2099   19.7535 C   0  0  0  0  0  0  0  0  0  0  0  0
  -30.1419  -13.8439   19.8578 C   0  0  0  0  0  0  0  0  0  0  0  0
  -27.9938  -12.3145   18.9471 C   0  0  0  0  0  0  0  0  0  0  0  0
  -29.5487  -14.1362   18.6297 C   0  0  0  0  0  0  0  0  0  0  0  0
  -30.3738  -20.0790   21.0639 C   0  0  0  0  0  0  0  0  0  0  0  0
  -30.8685  -28.6658   20.1618 C   0  0  0  0  0  0  0  0  0  0  0  0
  -32.6736  -30.1432   20.2856 C   0  0  0  0  0  0  0  0  0  0  0  0
  -30.3389  -22.1247   21.8694 C   0  0  0  0  0  0  0  0  0  0  0  0
  -32.7291  -28.3453   18.8958 C   0  0  0  0  0  0  0  0  0  0  0  0
  -31.4881  -20.4697   23.3488 C   0  0  0  0  0  0  0  0  0  0  0  0
  -22.6459  -28.3828   22.5964 C   0  0  0  0  0  0  0  0  0  0  0  0
  -23.2962  -25.3809   23.6396 C   0  0  0  0  0  0  0  0  0  0  0  0
  -25.4189  -22.7087   23.6358 C   0  0  0  0  0  0  0  0  0  0  0  0
  -29.1292  -24.9228   16.7159 C   0  0  0  0  0  0  0  0  0  0  0  0
  -18.2446  -30.4180   24.1913 C   0  0  0  0  0  0  0  0  0  0  0  0
  -23.1395  -27.1927   20.4293 C   0  0  0  0  0  0  0  0  0  0  0  0
  -25.1774  -26.6088   22.4911 C   0  0  0  0  0  0  0  0  0  0  0  0
  -19.2763  -29.4549   24.7730 C   0  0  0  0  0  0  0  0  0  0  0  0
  -26.9110  -24.4318   19.4573 C   0  0  0  0  0  0  0  0  0  0  0  0
  -20.6842  -30.0189   24.6106 C   0  0  0  0  0  0  0  0  0  0  0  0
  -27.5835  -23.3308   20.2793 C   0  0  0  0  0  0  0  0  0  0  0  0
  -27.1060  -24.2158   17.9582 C   0  0  0  0  0  0  0  0  0  0  0  0
  -29.1810  -22.9469   18.3559 C   0  0  0  0  0  0  0  0  0  0  0  0
  -21.0369  -30.2041   23.1298 C   0  0  1  0  0  0  0  0  0  0  0  0
  -22.7736  -27.0554   21.9040 C   0  0  1  0  0  0  0  0  0  0  0  0
  -29.0594  -23.1518   19.8756 C   0  0  2  0  0  0  0  0  0  0  0  0
  -26.2421  -20.3882   24.1205 C   0  0  0  0  0  0  0  0  0  0  0  0
  -24.1163  -26.6196   26.3048 C   0  0  0  0  0  0  0  0  0  0  0  0
  -25.2544  -24.4642   26.8769 C   0  0  0  0  0  0  0  0  0  0  0  0
  -22.7890  -24.5090   26.4998 C   0  0  0  0  0  0  0  0  0  0  0  0
  -34.7482  -27.9713   17.5018 C   0  0  0  0  0  0  0  0  0  0  0  0
  -24.1366  -21.6201   21.2007 C   0  0  0  0  0  0  0  0  0  0  0  0
  -29.4982  -28.2164   20.5761 C   0  0  0  0  0  0  0  0  0  1  0  0
  -31.8758  -26.7339   16.2323 C   0  0  0  0  0  0  0  0  0  0  0  0
  -31.2407  -25.5202   15.5566 C   0  0  0  0  0  0  0  0  0  0  0  0
  -32.8222  -26.3825   17.3795 C   0  0  0  0  0  0  0  0  0  0  0  0
  -24.3494  -24.7621   24.5267 C   0  0  1  0  0  0  0  0  0  0  0  0
  -25.1692  -21.2242   23.4403 C   0  0  2  0  0  0  0  0  0  0  0  0
  -33.3413  -31.3582   20.8367 C   0  0  0  0  0  0  0  0  0  0  0  0
  -24.1342  -25.1029   26.0284 C   0  0  0  0  0  0  0  0  0  0  0  0
  -29.7268  -20.7921   20.1382 N   0  0  0  0  0  0  0  0  0  0  0  0
  -31.5025  -27.9099   19.2415 N   0  0  0  0  0  0  0  0  0  0  0  0
  -33.3648  -29.4340   19.3694 N   0  0  0  0  0  0  0  0  0  0  0  0
  -29.7215  -22.0319   20.6568 N   0  0  0  0  0  0  0  0  0  0  0  0
  -23.7539  -26.2725   22.6591 N   0  0  0  0  0  0  0  0  0  0  0  0
  -28.5273  -24.0549   17.6418 N   0  0  0  0  0  0  0  0  0  0  0  0
  -30.4241  -23.2983   22.5312 N   0  0  0  0  0  0  0  0  0  0  0  0
  -31.8647  -19.1274   23.4925 N   0  0  0  0  0  0  0  0  0  0  0  0
  -21.3801  -28.9330   22.5291 N   0  0  0  0  0  0  0  0  0  0  0  0
  -24.3437  -23.3334   24.2315 N   0  0  0  0  0  0  0  0  0  0  0  0
  -30.4809  -24.7054   16.4783 N   0  0  0  0  0  0  0  0  0  0  0  0
  -33.4226  -27.5785   17.9343 N   0  0  3  0  0  0  0  0  0  0  0  0
  -25.1607  -20.8870   21.9887 N   0  3  0  0  0  0  0  0  0  0  0  0
  -31.7653  -21.2860   24.2600 O   0  0  0  0  0  0  0  0  0  0  0  0
  -23.6231  -28.8709   23.1518 O   0  0  0  0  0  0  0  0  0  0  0  0
  -22.1119  -25.0788   23.8058 O   0  0  0  0  0  0  0  0  0  0  0  0
  -26.4648  -23.2584   23.2974 O   0  0  0  0  0  0  0  0  0  0  0  0
  -28.5094  -25.8281   16.1475 O   0  0  0  0  0  0  0  0  0  0  0  0
  -31.2088  -14.6016   20.3109 O   0  0  0  0  0  0  0  0  0  0  0  0
  -28.5720  -28.5274   19.5359 O   0  0  0  0  0  0  0  0  0  1  0  0
  -26.9634  -11.5791   18.5092 F   0  0  0  0  0  0  0  0  0  0  0  0
  -30.0069  -15.1498   17.8824 F   0  0  0  0  0  0  0  0  0  0  0  0
  -32.5863  -32.0271   21.7576 F   0  0  0  0  0  0  0  0  0  0  0  0
  -34.5224  -31.0930   21.4691 F   0  0  0  0  0  0  0  0  0  0  0  0
  -33.6401  -32.2758   19.8718 F   0  0  0  0  0  0  0  0  0  0  0  0
  1  2  1  0  0  0  0
  1  5  2  0  0  0  0
  2  6  2  0  0  0  0
  3  8  2  0  0  0  0
  3 16  1  0  0  0  0
  4  9  1  0  0  0  0
  4 16  2  0  0  0  0
  5 18  1  0  0  0  0
  6 20  1  0  0  0  0
  7 10  2  0  0  0  0
  7 19  1  0  0  0  0
  8 22  1  0  0  0  0
  9 22  2  0  0  0  0
 10 23  1  0  0  0  0
 11 12  2  0  0  0  0
 11 24  1  0  0  0  0
 12 25  1  0  0  0  0
 13 21  1  0  0  0  0
 13 23  2  0  0  0  0
 14 25  2  0  0  0  0
 14 26  1  0  0  0  0
 15 28  1  0  0  0  0
 15 29  2  0  0  0  0
 16 27  1  0  0  0  0
 17 27  1  0  0  0  0
 17 30  2  0  0  0  0
 17 32  1  0  0  0  0
 18 20  2  0  0  0  0
 18 37  1  0  0  0  0
 19 21  2  0  0  0  0
 19 38  1  0  0  0  0
 20 46  1  0  0  0  0
 21 39  1  0  0  0  0
 22 81  1  0  0  0  0
 23 82  1  0  0  0  0
 24 26  2  0  0  0  0
 24 81  1  0  0  0  0
 25 83  1  0  0  0  0
 26 84  1  0  0  0  0
 27 63  2  0  0  0  0
 28 55  1  0  0  0  0
 28 64  2  0  0  0  0
 29 61  1  0  0  0  0
 29 65  1  0  0  0  0
 30 66  1  0  0  0  0
 30 69  1  0  0  0  0
 31 64  1  0  0  0  0
 31 65  2  0  0  0  0
 31 74  1  0  0  0  0
 32 70  1  0  0  0  0
 32 76  2  0  0  0  0
 33 47  1  0  0  0  0
 33 71  1  0  0  0  0
 33 77  2  0  0  0  0
 34 59  1  0  0  0  0
 34 67  1  0  0  0  0
 34 78  2  0  0  0  0
 35 60  1  0  0  0  0
 35 72  1  0  0  0  0
 35 79  2  0  0  0  0
 36 68  1  0  0  0  0
 36 73  1  0  0  0  0
 36 80  2  0  0  0  0
 37 40  1  0  0  0  0
 38 47  1  0  0  0  0
 39 67  1  0  0  0  0
 40 42  1  0  0  0  0
 41 43  1  0  0  0  0
 41 44  1  0  0  0  0
 42 46  1  0  0  0  0
 43 48  1  0  0  0  0
 44 68  1  0  0  0  0
 45 48  1  0  0  0  0
 45 68  1  0  0  0  0
 46 71  1  0  0  0  0
 47 67  1  0  0  0  0
 48 66  1  0  0  0  0
 49 60  1  0  0  0  0
 50 62  1  0  0  0  0
 51 62  1  0  0  0  0
 52 62  1  0  0  0  0
 53 74  1  0  0  0  0
 54 75  1  0  0  0  0
 55 82  1  0  0  0  0
 56 57  1  0  0  0  0
 56 58  1  0  0  0  0
 57 73  1  0  0  0  0
 58 74  1  0  0  0  0
 59 62  1  0  0  0  0
 59 72  1  0  0  0  0
 60 75  1  0  0  0  0
 61 85  1  0  0  0  0
 61 86  1  0  0  0  0
 61 87  1  0  0  0  0
 63 66  1  0  0  0  0
M  CHG  1  75   1
M  ISO  4  36 100  55 101  73 100  82 101
M  END
> <Batch ID>
0064

> <Smiles>
CNC(C)C(=O)NC(C(=O)N1Cc2cc([101O:1][101CH2:1]c3cc(C(F)(F)F)nc(N(C)CCC[100NH:0][100C:0](=O)N4CCCC(n5nc(-c6ccc(Oc7ccc(F)cc7F)cc6)c(C(N)=O)c5N)C4)n3)ccc2CC1C(=O)NC1CCCc2ccccc21)C(C)(C)C

> <Shape>
0.188

> <Color>
0.097

> <Negative vol penalty>
0.000

$$$$

  -OEChem-04052318053D

 90 98  0     1  0  0  0  0  0999 V2000
  -16.7987  -29.0166   24.0709 C   0  0  0  0  0  0  0  0  0  0  0  0
  -17.2132  -28.2454   22.9898 C   0  0  0  0  0  0  0  0  0  0  0  0
  -28.2810  -11.1030   22.1346 C   0  0  0  0  0  0  0  0  0  0  0  0
  -26.9880  -11.6420   20.1662 C   0  0  0  0  0  0  0  0  0  0  0  0
  -17.5539  -30.1187   24.4698 C   0  0  0  0  0  0  0  0  0  0  0  0
  -18.3826  -28.5764   22.3062 C   0  0  0  0  0  0  0  0  0  0  0  0
  -22.3679  -24.7005   19.7371 C   0  0  0  0  0  0  0  0  0  0  0  0
  -27.5229   -9.9462   22.3158 C   0  0  0  0  0  0  0  0  0  0  0  0
  -26.2299  -10.4852   20.3474 C   0  0  0  0  0  0  0  0  0  0  0  0
  -22.5415  -24.2679   18.4231 C   0  0  0  0  0  0  0  0  0  0  0  0
  -23.7190   -7.8616   20.4956 C   0  0  0  0  0  0  0  0  0  0  0  0
  -22.3348   -7.9657   20.3599 C   0  0  0  0  0  0  0  0  0  0  0  0
  -24.2447  -25.9458   18.1020 C   0  0  0  0  0  0  0  0  0  0  0  0
  -22.2787   -9.5716   22.1640 C   0  0  0  0  0  0  0  0  0  0  0  0
  -25.7778  -19.9167   15.9104 C   0  0  0  0  0  0  0  0  0  0  0  0
  -28.0135  -11.9509   21.0598 C   0  0  0  0  0  0  0  0  0  0  0  0
  -29.9834  -13.2770   20.1279 C   0  0  0  0  0  0  0  0  0  0  0  0
  -18.7383  -30.4577   23.7968 C   0  0  0  0  0  0  0  0  0  0  0  0
  -23.1250  -25.7680   20.2408 C   0  0  0  0  0  0  0  0  0  0  0  0
  -19.1536  -29.6849   22.6956 C   0  0  0  0  0  0  0  0  0  0  0  0
  -24.0806  -26.3884   19.4235 C   0  0  0  0  0  0  0  0  0  0  0  0
  -24.4624  -20.2076   15.6112 C   0  0  0  0  0  0  0  0  0  0  0  0
  -26.4974   -9.6373   21.4222 C   0  0  0  0  0  0  0  0  0  0  0  0
  -23.4779  -24.8924   17.6045 C   0  0  0  0  0  0  0  0  0  0  0  0
  -24.3832   -8.6124   21.4656 C   0  0  0  0  0  0  0  0  0  0  0  0
  -21.6146   -8.8207   21.1940 C   0  0  0  0  0  0  0  0  0  0  0  0
  -23.6630   -9.4674   22.2998 C   0  0  0  0  0  0  0  0  0  0  0  0
  -28.7958  -13.1463   20.8724 C   0  0  0  0  0  0  0  0  0  0  0  0
  -23.5177  -19.5522   16.3743 C   0  0  0  0  0  0  0  0  0  0  0  0
  -30.3290  -14.5995   20.2620 C   0  0  0  0  0  0  0  0  0  0  0  0
  -25.1394  -18.4795   17.5517 C   0  0  0  0  0  0  0  0  0  0  0  0
  -30.7093  -12.2911   19.3817 C   0  0  0  0  0  0  0  0  0  0  0  0
  -22.4485  -28.6595   21.3745 C   0  0  0  0  0  0  0  0  0  0  0  0
  -25.6234  -28.7156   22.0374 C   0  0  0  0  0  0  0  0  0  0  0  0
  -28.7498  -27.5380   21.3405 C   0  0  0  0  0  0  0  0  0  0  0  0
  -27.3235  -19.5454   21.3492 C   0  0  0  0  0  0  0  0  0  0  0  0
  -19.4961  -31.6858   24.2350 C   0  0  0  0  0  0  0  0  0  0  0  0
  -22.9446  -26.2052   21.6687 C   0  0  0  0  0  0  0  0  0  0  0  0
  -24.9329  -27.5254   19.9226 C   0  0  0  0  0  0  0  0  0  0  0  0
  -20.9214  -31.7481   23.6920 C   0  0  0  0  0  0  0  0  0  0  0  0
  -29.9354  -18.2972   23.2586 C   0  0  0  0  0  0  0  0  0  0  0  0
  -20.9400  -31.4201   22.2024 C   0  0  0  0  0  0  0  0  0  0  0  0
  -30.0630  -16.8446   22.8020 C   0  0  0  0  0  0  0  0  0  0  0  0
  -28.4715  -18.7049   23.3746 C   0  0  0  0  0  0  0  0  0  0  0  0
  -27.8110  -17.0706   21.6384 C   0  0  0  0  0  0  0  0  0  0  0  0
  -20.4295  -29.9974   21.9443 C   0  0  1  0  0  0  0  0  0  0  0  0
  -23.4068  -27.6376   21.9178 C   0  0  1  0  0  0  0  0  0  0  0  0
  -29.2749  -16.6041   21.5025 C   0  0  2  0  0  0  0  0  0  0  0  0
  -21.1966  -19.2343   17.2675 C   0  0  0  0  0  0  0  0  0  0  0  0
  -31.1506  -27.7993   22.0227 C   0  0  0  0  0  0  0  0  0  0  0  0
  -26.1634  -21.5431   19.4265 C   0  0  0  0  0  0  0  0  0  0  0  0
  -28.1678  -20.2906   18.5680 C   0  0  0  0  0  0  0  0  0  0  0  0
  -24.2566  -18.8426   20.5002 C   0  0  0  0  0  0  0  0  0  0  0  0
  -26.8679  -16.7545   18.3876 C   0  0  0  0  0  0  0  0  0  0  0  0
  -24.4413  -16.3769   18.7229 C   0  0  0  0  0  0  0  0  0  0  0  0
  -25.7692  -31.3505   20.5057 C   0  0  0  0  0  0  0  0  0  0  0  0
  -28.2551  -31.0715   20.4008 C   0  0  0  0  0  0  0  0  0  0  0  0
  -27.1186  -31.2912   22.6105 C   0  0  0  0  0  0  0  0  0  0  0  0
  -28.9407  -24.7060   22.1787 C   0  0  0  0  0  0  0  0  0  0  0  0
  -24.1078  -21.1817   14.5163 C   0  0  0  0  0  0  0  0  0  0  0  0
  -22.0622  -19.7890   16.1400 C   0  0  0  0  0  0  0  0  0  0  0  0
  -24.3046  -22.6476   14.9085 C   0  0  0  0  0  0  0  0  0  0  0  0
  -23.3989  -23.0940   16.0504 C   0  0  0  0  0  0  0  0  0  1  0  0
  -26.8634  -29.1485   21.2931 C   0  0  1  0  0  0  0  0  0  0  0  0
  -29.8585  -27.0281   22.2434 C   0  0  2  0  0  0  0  0  0  0  0  0
  -26.7249  -20.1796   19.0433 C   0  0  0  0  0  0  0  0  0  0  0  0
  -25.5892  -18.2356   20.0523 C   0  0  1  0  0  0  0  0  0  0  0  0
  -25.5152  -17.5202   18.6299 C   0  0  0  0  0  0  0  0  0  0  0  0
  -26.9843  -30.6953   21.1922 C   0  0  0  0  0  0  0  0  0  0  0  0
  -26.1536  -19.0545   16.8777 N   0  0  0  0  0  0  0  0  0  0  0  0
  -28.4127  -14.2941   21.4378 N   0  0  0  0  0  0  0  0  0  0  0  0
  -23.8219  -18.6783   17.3561 N   0  0  0  0  0  0  0  0  0  0  0  0
  -29.3651  -15.1587   21.0484 N   0  0  0  0  0  0  0  0  0  0  0  0
  -24.7150  -27.9208   21.3239 N   0  0  0  0  0  0  0  0  0  0  0  0
  -27.7524  -18.4578   22.1244 N   0  0  0  0  0  0  0  0  0  0  0  0
  -31.3603  -15.3270   19.7829 N   0  0  0  0  0  0  0  0  0  0  0  0
  -30.2145  -10.9802   19.3486 N   0  0  0  0  0  0  0  0  0  0  0  0
  -21.4551  -29.0270   22.2620 N   0  0  0  0  0  0  0  0  0  0  0  0
  -27.9876  -28.5037   21.9631 N   0  0  0  0  0  0  0  0  0  0  0  0
  -26.6310  -19.2549   20.1640 N   0  0  0  0  0  0  0  0  0  0  0  0
  -30.1210  -25.5854   21.9774 N   0  3  0  0  0  0  0  0  0  0  0  0
  -31.7742  -12.5608   18.7761 O   0  0  0  0  0  0  0  0  0  0  0  0
  -22.6000  -29.0842   20.2351 O   0  0  0  0  0  0  0  0  0  0  0  0
  -25.4699  -29.0636   23.2108 O   0  0  0  0  0  0  0  0  0  0  0  0
  -28.5794  -27.1238   20.1960 O   0  0  0  0  0  0  0  0  0  0  0  0
  -27.5400  -20.7127   21.6994 O   0  0  0  0  0  0  0  0  0  0  0  0
  -25.7577   -8.5085   21.5986 O   0  0  0  0  0  0  0  0  0  0  0  0
  -23.6489  -24.4725   16.3214 O   0  0  0  0  0  0  0  0  0  1  0  0
  -20.2854   -8.9218   21.0626 F   0  0  0  0  0  0  0  0  0  0  0  0
  -24.2956  -10.1922   23.2327 F   0  0  0  0  0  0  0  0  0  0  0  0
  1  2  1  0  0  0  0
  1  5  2  0  0  0  0
  2  6  2  0  0  0  0
  3  8  2  0  0  0  0
  3 16  1  0  0  0  0
  4  9  1  0  0  0  0
  4 16  2  0  0  0  0
  5 18  1  0  0  0  0
  6 20  1  0  0  0  0
  7 10  2  0  0  0  0
  7 19  1  0  0  0  0
  8 23  1  0  0  0  0
  9 23  2  0  0  0  0
 10 24  1  0  0  0  0
 11 12  2  0  0  0  0
 11 25  1  0  0  0  0
 12 26  1  0  0  0  0
 13 21  1  0  0  0  0
 13 24  2  0  0  0  0
 14 26  2  0  0  0  0
 14 27  1  0  0  0  0
 15 22  1  0  0  0  0
 15 70  2  0  0  0  0
 16 28  1  0  0  0  0
 17 28  1  0  0  0  0
 17 30  2  0  0  0  0
 17 32  1  0  0  0  0
 18 20  2  0  0  0  0
 18 37  1  0  0  0  0
 19 21  2  0  0  0  0
 19 38  1  0  0  0  0
 20 46  1  0  0  0  0
 21 39  1  0  0  0  0
 22 29  2  0  0  0  0
 22 60  1  0  0  0  0
 23 87  1  0  0  0  0
 24 88  1  0  0  0  0
 25 27  2  0  0  0  0
 25 87  1  0  0  0  0
 26 89  1  0  0  0  0
 27 90  1  0  0  0  0
 28 71  2  0  0  0  0
 29 61  1  0  0  0  0
 29 72  1  0  0  0  0
 30 73  1  0  0  0  0
 30 76  1  0  0  0  0
 31 68  1  0  0  0  0
 31 70  1  0  0  0  0
 31 72  2  0  0  0  0
 32 77  1  0  0  0  0
 32 82  2  0  0  0  0
 33 47  1  0  0  0  0
 33 78  1  0  0  0  0
 33 83  2  0  0  0  0
 34 64  1  0  0  0  0
 34 74  1  0  0  0  0
 34 84  2  0  0  0  0
 35 65  1  0  0  0  0
 35 79  1  0  0  0  0
 35 85  2  0  0  0  0
 36 75  1  0  0  0  0
 36 80  1  0  0  0  0
 36 86  2  0  0  0  0
 37 40  1  0  0  0  0
 38 47  1  0  0  0  0
 39 74  1  0  0  0  0
 40 42  1  0  0  0  0
 41 43  1  0  0  0  0
 41 44  1  0  0  0  0
 42 46  1  0  0  0  0
 43 48  1  0  0  0  0
 44 75  1  0  0  0  0
 45 48  1  0  0  0  0
 45 75  1  0  0  0  0
 46 78  1  0  0  0  0
 47 74  1  0  0  0  0
 48 73  1  0  0  0  0
 49 61  1  0  0  0  0
 50 65  1  0  0  0  0
 51 66  1  0  0  0  0
 52 66  1  0  0  0  0
 53 67  1  0  0  0  0
 54 68  1  0  0  0  0
 55 68  1  0  0  0  0
 56 69  1  0  0  0  0
 57 69  1  0  0  0  0
 58 69  1  0  0  0  0
 59 81  1  0  0  0  0
 60 62  1  0  0  0  0
 62 63  1  0  0  0  0
 63 88  1  0  0  0  0
 64 69  1  0  0  0  0
 64 79  1  0  0  0  0
 65 81  1  0  0  0  0
 66 80  1  0  0  0  0
 67 68  1  0  0  0  0
 67 80  1  0  0  0  0
 71 73  1  0  0  0  0
M  CHG  1  81   1
M  ISO  4  36 100  63 101  80 100  88 101
M  END
> <Batch ID>
0064

> <Smiles>
CCc1nc(C(C)(C)C(C)[100N:0](C(C)C)[100C:0](=O)N2CCCC(n3nc(-c4ccc(Oc5ccc(F)cc5F)cc4)c(C(N)=O)c3N)C2)ncc1CC[101CH2:1][101O:1]c1ccc2c(c1)CN(C(=O)C(NC(=O)C(C)NC)C(C)(C)C)C(C(=O)NC1CCCc3ccccc31)C2

> <Shape>
0.241

> <Color>
0.074

> <Negative vol penalty>
0.000

$$$$

  -OEChem-04052318053D

 88 97  0     1  0  0  0  0  0999 V2000
  -32.7381  -28.7415   22.7776 C   0  0  0  0  0  0  0  0  0  0  0  0
  -32.0652  -27.5289   22.6670 C   0  0  0  0  0  0  0  0  0  0  0  0
  -23.2142   -9.7993   19.9288 C   0  0  0  0  0  0  0  0  0  0  0  0
  -23.5039  -10.0488   22.3144 C   0  0  0  0  0  0  0  0  0  0  0  0
  -32.1356  -29.8144   23.4331 C   0  0  0  0  0  0  0  0  0  0  0  0
  -30.7898  -27.3882   23.2128 C   0  0  0  0  0  0  0  0  0  0  0  0
  -26.1792  -24.0325   20.9795 C   0  0  0  0  0  0  0  0  0  0  0  0
  -22.4442   -8.6559   20.1419 C   0  0  0  0  0  0  0  0  0  0  0  0
  -22.7339   -8.9054   22.5275 C   0  0  0  0  0  0  0  0  0  0  0  0
  -25.7046  -22.7609   21.2979 C   0  0  0  0  0  0  0  0  0  0  0  0
  -23.1546   -5.5543   22.3741 C   0  0  0  0  0  0  0  0  0  0  0  0
  -23.6231   -4.6204   23.2982 C   0  0  0  0  0  0  0  0  0  0  0  0
  -24.0450  -23.7487   22.7432 C   0  0  0  0  0  0  0  0  0  0  0  0
  -28.7238  -15.9904   23.4918 C   0  0  0  0  0  0  0  0  0  0  0  0
  -21.6156   -4.9120   24.6106 C   0  0  0  0  0  0  0  0  0  0  0  0
  -28.2039  -13.3373   23.8606 C   0  0  0  0  0  0  0  0  0  0  0  0
  -24.3577  -19.4799   23.9962 C   0  0  0  0  0  0  0  0  0  0  0  0
  -25.9591  -20.2956   25.2716 C   0  0  0  0  0  0  0  0  0  0  0  0
  -23.7441  -10.4957   21.0151 C   0  0  0  0  0  0  0  0  0  0  0  0
  -24.0840  -13.0058   20.7121 C   0  0  0  0  0  0  0  0  0  0  0  0
  -30.8482  -29.6898   23.9788 C   0  0  0  0  0  0  0  0  0  0  0  0
  -25.5963  -25.1732   21.5500 C   0  0  0  0  0  0  0  0  0  0  0  0
  -30.1701  -28.4601   23.8774 C   0  0  0  0  0  0  0  0  0  0  0  0
  -24.5123  -25.0338   22.4285 C   0  0  0  0  0  0  0  0  0  0  0  0
  -29.7287  -15.0591   23.2550 C   0  0  0  0  0  0  0  0  0  0  0  0
  -29.4719  -13.7052   23.4406 C   0  0  0  0  0  0  0  0  0  0  0  0
  -22.2040   -8.2090   21.4412 C   0  0  0  0  0  0  0  0  0  0  0  0
  -24.6392  -22.6186   22.1821 C   0  0  0  0  0  0  0  0  0  0  0  0
  -21.9166   -6.1671   22.5683 C   0  0  0  0  0  0  0  0  0  0  0  0
  -22.8536   -4.2992   24.4164 C   0  0  0  0  0  0  0  0  0  0  0  0
  -21.1472   -5.8459   23.6865 C   0  0  0  0  0  0  0  0  0  0  0  0
  -24.5401  -11.6766   20.7956 C   0  0  0  0  0  0  0  0  0  0  0  0
  -27.4892  -15.5201   23.9093 C   0  0  0  0  0  0  0  0  0  0  0  0
  -24.7413  -20.7337   23.5817 C   0  0  0  0  0  0  0  0  0  1  0  0
  -25.2208  -13.7460   20.4975 C   0  0  0  0  0  0  0  0  0  0  0  0
  -22.7518  -13.5249   20.8191 C   0  0  0  0  0  0  0  0  0  0  0  0
  -26.6258  -27.5103   23.4426 C   0  0  0  0  0  0  0  0  0  0  0  0
  -23.6777  -28.7393   22.8765 C   0  0  0  0  0  0  0  0  0  0  0  0
  -30.9972  -12.6903   21.7747 C   0  0  0  0  0  0  0  0  0  0  0  0
  -20.4276  -28.1843   21.9958 C   0  0  0  0  0  0  0  0  0  0  0  0
  -30.2571  -30.8630   24.7197 C   0  0  0  0  0  0  0  0  0  0  0  0
  -26.1025  -26.5392   21.1756 C   0  0  0  0  0  0  0  0  0  0  0  0
  -23.8385  -26.2276   23.0523 C   0  0  0  0  0  0  0  0  0  0  0  0
  -28.7515  -30.7463   24.9430 C   0  0  0  0  0  0  0  0  0  0  0  0
  -29.5823  -13.4514   18.5717 C   0  0  0  0  0  0  0  0  0  0  0  0
  -28.3941  -29.3549   25.4557 C   0  0  0  0  0  0  0  0  0  0  0  0
  -28.0915  -13.1760   18.7632 C   0  0  0  0  0  0  0  0  0  0  0  0
  -30.4379  -12.4772   19.3755 C   0  0  0  0  0  0  0  0  0  0  0  0
  -28.6222  -12.1680   21.0275 C   0  0  0  0  0  0  0  0  0  0  0  0
  -28.7752  -28.2760   24.4348 C   0  0  1  0  0  0  0  0  0  0  0  0
  -25.7670  -27.6059   22.2134 C   0  0  1  0  0  0  0  0  0  0  0  0
  -27.7216  -13.1496   20.2568 C   0  0  2  0  0  0  0  0  0  0  0  0
  -31.0703  -15.5334   22.8038 C   0  0  0  0  0  0  0  0  0  0  0  0
  -18.2471  -29.3791   21.6563 C   0  0  0  0  0  0  0  0  0  0  0  0
  -29.9509  -11.2431   23.4738 C   0  0  0  0  0  0  0  0  0  0  0  0
  -31.8196  -12.8001   24.0373 C   0  0  0  0  0  0  0  0  0  0  0  0
  -23.3124  -28.9266   25.9000 C   0  0  0  0  0  0  0  0  0  0  0  0
  -20.8541  -29.2051   25.5157 C   0  0  0  0  0  0  0  0  0  0  0  0
  -22.4541  -30.8972   24.6215 C   0  0  0  0  0  0  0  0  0  0  0  0
  -20.3048  -27.3934   19.1465 C   0  0  0  0  0  0  0  0  0  0  0  0
  -26.3752  -16.5017   24.1761 C   0  0  0  0  0  0  0  0  0  0  0  0
  -26.2907  -17.0387   25.6129 C   0  0  0  0  0  0  0  0  0  0  0  0
  -25.1297  -18.0081   25.8727 C   0  0  0  0  0  0  0  0  0  0  0  0
  -22.3245  -28.6181   23.5346 C   0  0  1  0  0  0  0  0  0  0  0  0
  -19.5223  -28.8797   20.9951 C   0  0  2  0  0  0  0  0  0  0  0  0
  -30.5117  -12.6660   23.2022 C   0  0  0  0  0  0  0  0  0  0  0  0
  -22.2500  -29.3890   24.8829 C   0  0  0  0  0  0  0  0  0  0  0  0
  -27.2023  -14.2130   24.1006 N   0  0  0  0  0  0  0  0  0  0  0  0
  -25.7386  -21.2358   24.3798 N   0  0  0  0  0  0  0  0  0  0  0  0
  -25.8635  -11.5752   20.6460 N   0  0  0  0  0  0  0  0  0  0  0  0
  -25.1465  -19.2131   25.0796 N   0  0  0  0  0  0  0  0  0  0  0  0
  -26.2487  -12.8501   20.4663 N   0  0  0  0  0  0  0  0  0  0  0  0
  -24.3739  -27.5417   22.6598 N   0  0  0  0  0  0  0  0  0  0  0  0
  -30.0407  -12.4649   20.7845 N   0  0  0  0  0  0  0  0  0  0  0  0
  -25.4315  -15.0694   20.3342 N   0  0  0  0  0  0  0  0  0  0  0  0
  -21.6999  -12.6254   21.0402 N   0  0  0  0  0  0  0  0  0  0  0  0
  -27.8037  -28.2285   23.3632 N   0  0  0  0  0  0  0  0  0  0  0  0
  -21.3476  -29.0538   22.5425 N   0  0  0  0  0  0  0  0  0  0  0  0
  -19.1473  -27.9435   19.8980 N   0  3  0  0  0  0  0  0  0  0  0  0
  -22.4996  -14.7484   20.7052 O   0  0  0  0  0  0  0  0  0  0  0  0
  -26.2471  -26.8361   24.3933 O   0  0  0  0  0  0  0  0  0  0  0  0
  -24.0984  -29.8548   22.5597 O   0  0  0  0  0  0  0  0  0  0  0  0
  -32.1906  -12.9063   21.5482 O   0  0  0  0  0  0  0  0  0  0  0  0
  -20.3262  -26.9901   22.2682 O   0  0  0  0  0  0  0  0  0  0  0  0
  -21.4525   -7.0935   21.6495 O   0  0  0  0  0  0  0  0  0  0  0  0
  -24.1745  -21.3785   22.4950 O   0  0  0  0  0  0  0  0  0  1  0  0
  -23.3029   -3.4012   25.3029 F   0  0  0  0  0  0  0  0  0  0  0  0
  -19.9565   -6.4304   23.8778 F   0  0  0  0  0  0  0  0  0  0  0  0
  1  2  1  0  0  0  0
  1  5  2  0  0  0  0
  2  6  2  0  0  0  0
  3  8  2  0  0  0  0
  3 19  1  0  0  0  0
  4  9  1  0  0  0  0
  4 19  2  0  0  0  0
  5 21  1  0  0  0  0
  6 23  1  0  0  0  0
  7 10  2  0  0  0  0
  7 22  1  0  0  0  0
  8 27  1  0  0  0  0
  9 27  2  0  0  0  0
 10 28  1  0  0  0  0
 11 12  2  0  0  0  0
 11 29  1  0  0  0  0
 12 30  1  0  0  0  0
 13 24  1  0  0  0  0
 13 28  2  0  0  0  0
 14 25  2  0  0  0  0
 14 33  1  0  0  0  0
 15 30  2  0  0  0  0
 15 31  1  0  0  0  0
 16 26  2  0  0  0  0
 16 68  1  0  0  0  0
 17 34  2  0  0  0  0
 17 71  1  0  0  0  0
 18 69  2  0  0  0  0
 18 71  1  0  0  0  0
 19 32  1  0  0  0  0
 20 32  1  0  0  0  0
 20 35  2  0  0  0  0
 20 36  1  0  0  0  0
 21 23  2  0  0  0  0
 21 41  1  0  0  0  0
 22 24  2  0  0  0  0
 22 42  1  0  0  0  0
 23 50  1  0  0  0  0
 24 43  1  0  0  0  0
 25 26  1  0  0  0  0
 25 53  1  0  0  0  0
 26 66  1  0  0  0  0
 27 85  1  0  0  0  0
 28 86  1  0  0  0  0
 29 31  2  0  0  0  0
 29 85  1  0  0  0  0
 30 87  1  0  0  0  0
 31 88  1  0  0  0  0
 32 70  2  0  0  0  0
 33 61  1  0  0  0  0
 33 68  2  0  0  0  0
 34 69  1  0  0  0  0
 34 86  1  0  0  0  0
 35 72  1  0  0  0  0
 35 75  1  0  0  0  0
 36 76  1  0  0  0  0
 36 80  2  0  0  0  0
 37 51  1  0  0  0  0
 37 77  1  0  0  0  0
 37 81  2  0  0  0  0
 38 64  1  0  0  0  0
 38 73  1  0  0  0  0
 38 82  2  0  0  0  0
 39 66  1  0  0  0  0
 39 74  1  0  0  0  0
 39 83  2  0  0  0  0
 40 65  1  0  0  0  0
 40 78  1  0  0  0  0
 40 84  2  0  0  0  0
 41 44  1  0  0  0  0
 42 51  1  0  0  0  0
 43 73  1  0  0  0  0
 44 46  1  0  0  0  0
 45 47  1  0  0  0  0
 45 48  1  0  0  0  0
 46 50  1  0  0  0  0
 47 52  1  0  0  0  0
 48 74  1  0  0  0  0
 49 52  1  0  0  0  0
 49 74  1  0  0  0  0
 50 77  1  0  0  0  0
 51 73  1  0  0  0  0
 52 72  1  0  0  0  0
 54 65  1  0  0  0  0
 55 66  1  0  0  0  0
 56 66  1  0  0  0  0
 57 67  1  0  0  0  0
 58 67  1  0  0  0  0
 59 67  1  0  0  0  0
 60 79  1  0  0  0  0
 61 62  1  0  0  0  0
 62 63  1  0  0  0  0
 63 71  1  0  0  0  0
 64 67  1  0  0  0  0
 64 78  1  0  0  0  0
 65 79  1  0  0  0  0
 70 72  1  0  0  0  0
M  CHG  1  79   1
M  ISO  4  34 101  39 100  66 100  86 101
M  END
> <Batch ID>
0064

> <Smiles>
CNC(C)C(=O)NC(C(=O)N1Cc2cc([101O:1][101c:1]3cn(CCCc4cc(C)c([100C:0](C)(C)[100C:0](=O)N5CCCC(n6nc(-c7ccc(Oc8ccc(F)cc8F)cc7)c(C(N)=O)c6N)C5)cn4)cn3)ccc2CC1C(=O)NC1CCCc2ccccc21)C(C)(C)C

> <Shape>
0.210

> <Color>
0.198

> <Negative vol penalty>
0.000

$$$$

  -OEChem-04052318053D

 86 94  0     1  0  0  0  0  0999 V2000
  -16.1584  -23.4283   26.1288 C   0  0  0  0  0  0  0  0  0  0  0  0
  -17.5479  -23.3835   26.1808 C   0  0  0  0  0  0  0  0  0  0  0  0
  -24.4295  -14.1612   20.3102 C   0  0  0  0  0  0  0  0  0  0  0  0
  -26.5696  -14.0887   21.4288 C   0  0  0  0  0  0  0  0  0  0  0  0
  -15.5222  -24.0916   25.0803 C   0  0  0  0  0  0  0  0  0  0  0  0
  -18.3021  -24.0011   25.1837 C   0  0  0  0  0  0  0  0  0  0  0  0
  -22.1727  -26.6786   27.0529 C   0  0  0  0  0  0  0  0  0  0  0  0
  -24.4508  -12.7727   20.1793 C   0  0  0  0  0  0  0  0  0  0  0  0
  -26.5910  -12.7002   21.2980 C   0  0  0  0  0  0  0  0  0  0  0  0
  -23.3022  -25.9680   27.4570 C   0  0  0  0  0  0  0  0  0  0  0  0
  -23.7728   -9.2145   19.8718 C   0  0  0  0  0  0  0  0  0  0  0  0
  -22.6038   -8.5165   20.1748 C   0  0  0  0  0  0  0  0  0  0  0  0
  -24.3939  -26.5351   25.3820 C   0  0  0  0  0  0  0  0  0  0  0  0
  -22.6740   -9.3780   22.4309 C   0  0  0  0  0  0  0  0  0  0  0  0
  -24.6226  -23.0850   24.3696 C   0  0  0  0  0  0  0  0  0  0  0  0
  -25.4889  -14.8193   20.9349 C   0  0  0  0  0  0  0  0  0  0  0  0
  -24.9346  -16.9991   22.1385 C   0  0  0  0  0  0  0  0  0  0  0  0
  -16.2691  -24.7259   24.0750 C   0  0  0  0  0  0  0  0  0  0  0  0
  -22.1413  -27.3147   25.8035 C   0  0  0  0  0  0  0  0  0  0  0  0
  -17.6753  -24.6723   24.1200 C   0  0  0  0  0  0  0  0  0  0  0  0
  -23.2639  -27.2552   24.9655 C   0  0  0  0  0  0  0  0  0  0  0  0
  -25.5316  -12.0422   20.6732 C   0  0  0  0  0  0  0  0  0  0  0  0
  -24.4119  -25.8937   26.6203 C   0  0  0  0  0  0  0  0  0  0  0  0
  -24.3925   -9.9942   20.8484 C   0  0  0  0  0  0  0  0  0  0  0  0
  -22.0544   -8.5983   21.4543 C   0  0  0  0  0  0  0  0  0  0  0  0
  -23.8431  -10.0760   22.1279 C   0  0  0  0  0  0  0  0  0  0  0  0
  -25.4677  -16.2536   21.0699 C   0  0  0  0  0  0  0  0  0  0  0  0
  -24.4094  -23.4186   23.0477 C   0  0  0  0  0  0  0  0  0  0  0  0
  -25.9000  -23.3057   24.8425 C   0  0  0  0  0  0  0  0  0  0  0  0
  -25.1617  -18.3083   21.7907 C   0  0  0  0  0  0  0  0  0  0  0  0
  -26.5665  -24.0979   22.8188 C   0  0  0  0  0  0  0  0  0  0  0  0
  -24.2917  -16.5485   23.3382 C   0  0  0  0  0  0  0  0  0  0  0  0
  -20.3661  -27.0248   23.1828 C   0  0  0  0  0  0  0  0  0  0  0  0
  -22.0433  -29.6325   22.2292 C   0  0  0  0  0  0  0  0  0  0  0  0
  -24.8722  -31.5203   22.5119 C   0  0  0  0  0  0  0  0  0  0  0  0
  -28.5019  -22.2998   19.7766 C   0  0  0  0  0  0  0  0  0  0  0  0
  -15.5366  -25.3900   22.9362 C   0  0  0  0  0  0  0  0  0  0  0  0
  -20.9254  -28.0996   25.3937 C   0  0  0  0  0  0  0  0  0  0  0  0
  -23.2883  -27.9376   23.6230 C   0  0  0  0  0  0  0  0  0  0  0  0
  -16.4108  -26.3394   22.1209 C   0  0  0  0  0  0  0  0  0  0  0  0
  -26.6988  -20.3343   17.4182 C   0  0  0  0  0  0  0  0  0  0  0  0
  -17.7485  -25.6840   21.7926 C   0  0  0  0  0  0  0  0  0  0  0  0
  -26.1795  -19.1564   18.2446 C   0  0  0  0  0  0  0  0  0  0  0  0
  -28.0901  -20.7715   17.8710 C   0  0  0  0  0  0  0  0  0  0  0  0
  -27.6887  -19.8904   20.1374 C   0  0  0  0  0  0  0  0  0  0  0  0
  -18.5282  -25.3514   23.0705 C   0  0  1  0  0  0  0  0  0  0  0  0
  -20.8106  -28.2778   23.8829 C   0  0  1  0  0  0  0  0  0  0  0  0
  -26.2654  -19.4497   19.7545 C   0  0  2  0  0  0  0  0  0  0  0  0
  -23.0588  -23.2160   22.4468 C   0  0  0  0  0  0  0  0  0  0  0  0
  -28.1404  -26.0296   22.4794 C   0  0  0  0  0  0  0  0  0  0  0  0
  -25.9732  -33.5718   21.5755 C   0  0  0  0  0  0  0  0  0  0  0  0
  -25.6355  -23.5841   28.7686 C   0  0  0  0  0  0  0  0  0  0  0  0
  -27.7294  -23.3143   26.5571 C   0  0  0  0  0  0  0  0  0  0  0  0
  -26.0980  -21.4577   26.6413 C   0  0  0  0  0  0  0  0  0  0  0  0
  -22.7696  -28.0858   19.7013 C   0  0  0  0  0  0  0  0  0  0  0  0
  -24.5837  -29.7597   19.2822 C   0  0  0  0  0  0  0  0  0  0  0  0
  -22.1993  -30.4915   19.3247 C   0  0  0  0  0  0  0  0  0  0  0  0
  -24.9031  -32.8516   25.1549 C   0  0  0  0  0  0  0  0  0  0  0  0
  -28.8561  -23.7146   21.7847 C   0  0  0  0  0  0  0  0  0  0  0  0
  -27.6457  -24.6638   21.9591 C   0  0  1  0  0  0  0  0  0  0  0  0
  -23.3402  -29.8580   21.4902 C   0  0  1  0  0  0  0  0  0  0  0  0
  -25.0731  -33.0169   22.6684 C   0  0  2  0  0  0  0  0  0  0  0  0
  -25.3458  -23.8098   27.2844 C   0  0  2  0  0  0  0  0  0  1  0  0
  -26.2366  -22.9660   26.3091 C   0  0  0  0  0  0  0  0  0  0  0  0
  -23.2223  -29.5342   19.9740 C   0  0  0  0  0  0  0  0  0  0  0  0
  -25.9937  -17.0251   20.1148 N   0  0  0  0  0  0  0  0  0  0  0  0
  -25.3622  -23.9291   22.2404 N   0  0  0  0  0  0  0  0  0  0  0  0
  -26.9001  -23.8125   24.0920 N   0  0  0  0  0  0  0  0  0  0  0  0
  -25.7921  -18.2690   20.5819 N   0  0  0  0  0  0  0  0  0  0  0  0
  -22.0731  -28.6875   23.2645 N   0  0  0  0  0  0  0  0  0  0  0  0
  -28.1032  -21.0356   19.3119 N   0  0  0  0  0  0  0  0  0  0  0  0
  -24.8815  -19.4778   22.4041 N   0  0  0  0  0  0  0  0  0  0  0  0
  -24.1401  -15.1695   23.5374 N   0  0  0  0  0  0  0  0  0  0  0  0
  -19.1437  -26.5440   23.6119 N   0  0  0  0  0  0  0  0  0  0  0  0
  -23.7410  -31.2308   21.7786 N   0  0  0  0  0  0  0  0  0  0  0  0
  -28.4794  -22.4682   21.1557 N   0  0  0  0  0  0  0  0  0  0  0  0
  -25.6945  -33.3208   23.9885 N   0  3  0  0  0  0  0  0  0  0  0  0
  -23.8498  -17.3456   24.2001 O   0  0  0  0  0  0  0  0  0  0  0  0
  -21.0786  -26.5316   22.3164 O   0  0  0  0  0  0  0  0  0  0  0  0
  -21.0424  -30.2765   21.9047 O   0  0  0  0  0  0  0  0  0  0  0  0
  -25.6439  -30.6912   22.9889 O   0  0  0  0  0  0  0  0  0  0  0  0
  -28.8470  -23.2125   19.0185 O   0  0  0  0  0  0  0  0  0  0  0  0
  -25.5526  -10.6872   20.5459 O   0  0  0  0  0  0  0  0  0  0  0  0
  -25.5153  -25.2003   27.0120 O   0  0  0  0  0  0  0  0  0  1  0  0
  -20.9309   -7.9292   21.7446 F   0  0  0  0  0  0  0  0  0  0  0  0
  -24.4333  -10.8244   23.0699 F   0  0  0  0  0  0  0  0  0  0  0  0
  1  2  1  0  0  0  0
  1  5  2  0  0  0  0
  2  6  2  0  0  0  0
  3  8  2  0  0  0  0
  3 16  1  0  0  0  0
  4  9  1  0  0  0  0
  4 16  2  0  0  0  0
  5 18  1  0  0  0  0
  6 20  1  0  0  0  0
  7 10  2  0  0  0  0
  7 19  1  0  0  0  0
  8 22  1  0  0  0  0
  9 22  2  0  0  0  0
 10 23  1  0  0  0  0
 11 12  2  0  0  0  0
 11 24  1  0  0  0  0
 12 25  1  0  0  0  0
 13 21  1  0  0  0  0
 13 23  2  0  0  0  0
 14 25  2  0  0  0  0
 14 26  1  0  0  0  0
 15 28  2  0  0  0  0
 15 29  1  0  0  0  0
 16 27  1  0  0  0  0
 17 27  1  0  0  0  0
 17 30  2  0  0  0  0
 17 32  1  0  0  0  0
 18 20  2  0  0  0  0
 18 37  1  0  0  0  0
 19 21  2  0  0  0  0
 19 38  1  0  0  0  0
 20 46  1  0  0  0  0
 21 39  1  0  0  0  0
 22 83  1  0  0  0  0
 23 84  1  0  0  0  0
 24 26  2  0  0  0  0
 24 83  1  0  0  0  0
 25 85  1  0  0  0  0
 26 86  1  0  0  0  0
 27 66  2  0  0  0  0
 28 49  1  0  0  0  0
 28 67  1  0  0  0  0
 29 64  1  0  0  0  0
 29 68  2  0  0  0  0
 30 69  1  0  0  0  0
 30 72  1  0  0  0  0
 31 60  1  0  0  0  0
 31 67  2  0  0  0  0
 31 68  1  0  0  0  0
 32 73  1  0  0  0  0
 32 78  2  0  0  0  0
 33 47  1  0  0  0  0
 33 74  1  0  0  0  0
 33 79  2  0  0  0  0
 34 61  1  0  0  0  0
 34 70  1  0  0  0  0
 34 80  2  0  0  0  0
 35 62  1  0  0  0  0
 35 75  1  0  0  0  0
 35 81  2  0  0  0  0
 36 71  1  0  0  0  0
 36 76  1  0  0  0  0
 36 82  2  0  0  0  0
 37 40  1  0  0  0  0
 38 47  1  0  0  0  0
 39 70  1  0  0  0  0
 40 42  1  0  0  0  0
 41 43  1  0  0  0  0
 41 44  1  0  0  0  0
 42 46  1  0  0  0  0
 43 48  1  0  0  0  0
 44 71  1  0  0  0  0
 45 48  1  0  0  0  0
 45 71  1  0  0  0  0
 46 74  1  0  0  0  0
 47 70  1  0  0  0  0
 48 69  1  0  0  0  0
 50 60  1  0  0  0  0
 51 62  1  0  0  0  0
 52 63  1  0  0  0  0
 53 64  1  0  0  0  0
 54 64  1  0  0  0  0
 55 65  1  0  0  0  0
 56 65  1  0  0  0  0
 57 65  1  0  0  0  0
 58 77  1  0  0  0  0
 59 60  1  0  0  0  0
 59 76  1  0  0  0  0
 61 65  1  0  0  0  0
 61 75  1  0  0  0  0
 62 77  1  0  0  0  0
 63 64  1  0  0  0  0
 63 84  1  0  0  0  0
 66 69  1  0  0  0  0
M  CHG  1  77   1
M  ISO  4  36 100  63 101  76 100  84 101
M  END
> <Batch ID>
0064

> <Smiles>
CNC(C)C(=O)NC(C(=O)N1Cc2cc([101O:1][101CH:1](C)C(C)(C)c3cc(C)nc(C(C)C[100NH:0][100C:0](=O)N4CCCC(n5nc(-c6ccc(Oc7ccc(F)cc7F)cc6)c(C(N)=O)c5N)C4)n3)ccc2CC1C(=O)NC1CCCc2ccccc21)C(C)(C)C

> <Shape>
0.212

> <Color>
0.063

> <Negative vol penalty>
0.000

$$$$

  -OEChem-04052318053D

 90 98  0     1  0  0  0  0  0999 V2000
  -23.5099  -25.6151   13.0240 C   0  0  0  0  0  0  0  0  0  0  0  0
  -22.9751  -26.3494   14.0777 C   0  0  0  0  0  0  0  0  0  0  0  0
  -22.1040  -17.0614   20.2220 C   0  0  0  0  0  0  0  0  0  0  0  0
  -23.5293  -18.5334   21.5021 C   0  0  0  0  0  0  0  0  0  0  0  0
  -24.4671  -24.6330   13.2754 C   0  0  0  0  0  0  0  0  0  0  0  0
  -23.3965  -26.1012   15.3836 C   0  0  0  0  0  0  0  0  0  0  0  0
  -24.0303  -30.2003   19.8892 C   0  0  0  0  0  0  0  0  0  0  0  0
  -23.1756  -16.1890   20.0319 C   0  0  0  0  0  0  0  0  0  0  0  0
  -24.6010  -17.6610   21.3120 C   0  0  0  0  0  0  0  0  0  0  0  0
  -23.2065  -30.5562   20.9563 C   0  0  0  0  0  0  0  0  0  0  0  0
  -24.7969  -13.8111   21.8067 C   0  0  0  0  0  0  0  0  0  0  0  0
  -24.5633  -12.4481   21.9887 C   0  0  0  0  0  0  0  0  0  0  0  0
  -24.4318  -29.0565   22.3946 C   0  0  0  0  0  0  0  0  0  0  0  0
  -25.2117  -12.0312   19.6990 C   0  0  0  0  0  0  0  0  0  0  0  0
  -22.2808  -18.2337   20.9571 C   0  0  0  0  0  0  0  0  0  0  0  0
  -20.2424  -19.1207   22.2083 C   0  0  0  0  0  0  0  0  0  0  0  0
  -24.9075  -24.3792   14.5840 C   0  0  0  0  0  0  0  0  0  0  0  0
  -25.0558  -29.2601   20.0646 C   0  0  0  0  0  0  0  0  0  0  0  0
  -24.3595  -25.1138   15.6528 C   0  0  0  0  0  0  0  0  0  0  0  0
  -25.2688  -28.6922   21.3288 C   0  0  0  0  0  0  0  0  0  0  0  0
  -24.4241  -16.4888   20.5769 C   0  0  0  0  0  0  0  0  0  0  0  0
  -23.4053  -29.9821   22.2085 C   0  0  0  0  0  0  0  0  0  0  0  0
  -25.2378  -14.2843   20.5707 C   0  0  0  0  0  0  0  0  0  0  0  0
  -24.7708  -11.5581   20.9349 C   0  0  0  0  0  0  0  0  0  0  0  0
  -25.4452  -13.3943   19.5169 C   0  0  0  0  0  0  0  0  0  0  0  0
  -21.1744  -19.1355   21.1533 C   0  0  0  0  0  0  0  0  0  0  0  0
  -18.7635  -26.9919   21.7886 C   0  0  0  0  0  0  0  0  0  0  0  0
  -19.9966  -26.3841   21.8121 C   0  0  0  0  0  0  0  0  0  0  0  0
  -19.4010  -20.1721   21.9379 C   0  0  0  0  0  0  0  0  0  0  0  0
  -19.8494  -27.9677   23.3376 C   0  0  0  0  0  0  0  0  0  0  0  0
  -20.1461  -18.2359   23.3323 C   0  0  0  0  0  0  0  0  0  0  0  0
  -25.7080  -26.3985   18.8440 C   0  0  0  0  0  0  0  0  0  0  0  0
  -28.4576  -26.7367   20.5315 C   0  0  0  0  0  0  0  0  0  0  0  0
  -30.0898  -28.1976   23.1485 C   0  0  0  0  0  0  0  0  0  0  0  0
  -20.4744  -25.1167   18.4829 C   0  0  0  0  0  0  0  0  0  0  0  0
  -25.9094  -23.2751   14.8115 C   0  0  0  0  0  0  0  0  0  0  0  0
  -25.9527  -28.9068   18.9099 C   0  0  0  0  0  0  0  0  0  0  0  0
  -26.3687  -27.6930   21.5742 C   0  0  0  0  0  0  0  0  0  0  0  0
  -26.5767  -23.3314   16.1832 C   0  0  0  0  0  0  0  0  0  0  0  0
  -17.6425  -22.7391   18.3112 C   0  0  0  0  0  0  0  0  0  0  0  0
  -25.5350  -23.5542   17.2750 C   0  0  0  0  0  0  0  0  0  0  0  0
  -18.1864  -21.5192   19.0527 C   0  0  0  0  0  0  0  0  0  0  0  0
  -18.7577  -23.5482   17.6557 C   0  0  0  0  0  0  0  0  0  0  0  0
  -20.3802  -22.7387   19.3369 C   0  0  0  0  0  0  0  0  0  0  0  0
  -24.8092  -24.8909   17.0805 C   0  0  1  0  0  0  0  0  0  0  0  0
  -26.6387  -27.5546   19.0782 C   0  0  1  0  0  0  0  0  0  0  0  0
  -19.2865  -21.9275   20.0479 C   0  0  2  0  0  0  0  0  0  0  0  0
  -22.1233  -25.4885   24.0871 C   0  0  0  0  0  0  0  0  0  0  0  0
  -19.4819  -28.5381   25.7615 C   0  0  0  0  0  0  0  0  0  0  0  0
  -32.3200  -28.2491   24.2978 C   0  0  0  0  0  0  0  0  0  0  0  0
  -27.8576  -24.0328   21.8116 C   0  0  0  0  0  0  0  0  0  0  0  0
  -29.5448  -24.5741   23.5804 C   0  0  0  0  0  0  0  0  0  0  0  0
  -30.2557  -24.3867   21.1967 C   0  0  0  0  0  0  0  0  0  0  0  0
  -20.8276  -31.2143   25.3544 C   0  0  0  0  0  0  0  0  0  0  0  0
  -18.9212  -30.9834   23.7658 C   0  0  0  0  0  0  0  0  0  0  0  0
  -21.6346  -26.9977   19.5762 C   0  0  0  0  0  0  0  0  0  0  0  0
  -30.4360  -31.0852   22.5998 C   0  0  0  0  0  0  0  0  0  0  0  0
  -20.5701  -25.2919   21.0054 C   0  0  0  0  0  0  0  0  0  0  0  0
  -22.0354  -26.7389   23.2289 C   0  0  0  0  0  0  0  0  0  0  0  0
  -21.2624  -30.7078   22.9414 C   0  0  0  0  0  0  0  0  0  1  0  0
  -20.2782  -28.8778   24.4868 C   0  0  2  0  0  0  0  0  0  0  0  0
  -28.9017  -26.3910   21.9323 C   0  0  1  0  0  0  0  0  0  0  0  0
  -31.4391  -28.8878   23.2353 C   0  0  2  0  0  0  0  0  0  0  0  0
  -17.6198  -26.7072   20.9077 C   0  0  0  0  0  0  0  0  0  0  0  0
  -29.1179  -24.8635   22.1255 C   0  0  0  0  0  0  0  0  0  0  0  0
  -20.3085  -30.4180   24.1313 C   0  0  0  0  0  0  0  0  0  0  0  0
  -20.9466  -20.1182   20.2778 N   0  0  0  0  0  0  0  0  0  0  0  0
  -18.6784  -27.9770   22.7404 N   0  0  0  0  0  0  0  0  0  0  0  0
  -20.6813  -27.0201   22.8090 N   0  0  0  0  0  0  0  0  0  0  0  0
  -19.8619  -20.7307   20.7822 N   0  0  0  0  0  0  0  0  0  0  0  0
  -27.2151  -27.3753   20.4123 N   0  0  0  0  0  0  0  0  0  0  0  0
  -19.8107  -23.8858   18.6141 N   0  0  0  0  0  0  0  0  0  0  0  0
  -18.3191  -20.6639   22.5783 N   0  0  0  0  0  0  0  0  0  0  0  0
  -21.0922  -17.2095   23.4577 N   0  0  0  0  0  0  0  0  0  0  0  0
  -25.6417  -25.9876   17.5264 N   0  0  0  0  0  0  0  0  0  0  0  0
  -30.0865  -27.2003   22.1964 N   0  0  0  0  0  0  0  0  0  0  0  0
  -20.9499  -25.7154   19.6594 N   0  0  0  0  0  0  0  0  0  0  0  0
  -31.2633  -30.3283   23.5744 N   0  3  0  0  0  0  0  0  0  0  0  0
  -19.2378  -18.3418   24.1910 O   0  0  0  0  0  0  0  0  0  0  0  0
  -25.0965  -25.9141   19.7891 O   0  0  0  0  0  0  0  0  0  0  0  0
  -29.1895  -26.4571   19.5788 O   0  0  0  0  0  0  0  0  0  0  0  0
  -29.1353  -28.5094   23.8573 O   0  0  0  0  0  0  0  0  0  0  0  0
  -20.6245  -25.6546   17.3784 O   0  0  0  0  0  0  0  0  0  0  0  0
  -25.4700  -15.6377   20.3918 O   0  0  0  0  0  0  0  0  0  0  0  0
  -22.6023  -30.3273   23.2515 O   0  0  0  0  0  0  0  0  0  1  0  0
  -24.5479  -10.2490   21.1104 F   0  0  0  0  0  0  0  0  0  0  0  0
  -25.8698  -13.8427   18.3276 F   0  0  0  0  0  0  0  0  0  0  0  0
  -17.8395  -25.6987   20.0005 F   0  0  0  0  0  0  0  0  0  0  0  0
  -16.4774  -26.3242   21.5681 F   0  0  0  0  0  0  0  0  0  0  0  0
  -17.2374  -27.7832   20.1460 F   0  0  0  0  0  0  0  0  0  0  0  0
  1  2  1  0  0  0  0
  1  5  2  0  0  0  0
  2  6  2  0  0  0  0
  3  8  2  0  0  0  0
  3 15  1  0  0  0  0
  4  9  1  0  0  0  0
  4 15  2  0  0  0  0
  5 17  1  0  0  0  0
  6 19  1  0  0  0  0
  7 10  2  0  0  0  0
  7 18  1  0  0  0  0
  8 21  1  0  0  0  0
  9 21  2  0  0  0  0
 10 22  1  0  0  0  0
 11 12  2  0  0  0  0
 11 23  1  0  0  0  0
 12 24  1  0  0  0  0
 13 20  1  0  0  0  0
 13 22  2  0  0  0  0
 14 24  2  0  0  0  0
 14 25  1  0  0  0  0
 15 26  1  0  0  0  0
 16 26  1  0  0  0  0
 16 29  2  0  0  0  0
 16 31  1  0  0  0  0
 17 19  2  0  0  0  0
 17 36  1  0  0  0  0
 18 20  2  0  0  0  0
 18 37  1  0  0  0  0
 19 45  1  0  0  0  0
 20 38  1  0  0  0  0
 21 84  1  0  0  0  0
 22 85  1  0  0  0  0
 23 25  2  0  0  0  0
 23 84  1  0  0  0  0
 24 86  1  0  0  0  0
 25 87  1  0  0  0  0
 26 67  2  0  0  0  0
 27 28  2  0  0  0  0
 27 64  1  0  0  0  0
 27 68  1  0  0  0  0
 28 58  1  0  0  0  0
 28 69  1  0  0  0  0
 29 70  1  0  0  0  0
 29 73  1  0  0  0  0
 30 61  1  0  0  0  0
 30 68  2  0  0  0  0
 30 69  1  0  0  0  0
 31 74  1  0  0  0  0
 31 79  2  0  0  0  0
 32 46  1  0  0  0  0
 32 75  1  0  0  0  0
 32 80  2  0  0  0  0
 33 62  1  0  0  0  0
 33 71  1  0  0  0  0
 33 81  2  0  0  0  0
 34 63  1  0  0  0  0
 34 76  1  0  0  0  0
 34 82  2  0  0  0  0
 35 72  1  0  0  0  0
 35 77  1  0  0  0  0
 35 83  2  0  0  0  0
 36 39  1  0  0  0  0
 37 46  1  0  0  0  0
 38 71  1  0  0  0  0
 39 41  1  0  0  0  0
 40 42  1  0  0  0  0
 40 43  1  0  0  0  0
 41 45  1  0  0  0  0
 42 47  1  0  0  0  0
 43 72  1  0  0  0  0
 44 47  1  0  0  0  0
 44 72  1  0  0  0  0
 45 75  1  0  0  0  0
 46 71  1  0  0  0  0
 47 70  1  0  0  0  0
 48 59  1  0  0  0  0
 49 61  1  0  0  0  0
 50 63  1  0  0  0  0
 51 65  1  0  0  0  0
 52 65  1  0  0  0  0
 53 65  1  0  0  0  0
 54 66  1  0  0  0  0
 55 66  1  0  0  0  0
 56 77  1  0  0  0  0
 57 78  1  0  0  0  0
 58 77  1  0  0  0  0
 59 69  1  0  0  0  0
 60 66  1  0  0  0  0
 60 85  1  0  0  0  0
 61 66  1  0  0  0  0
 62 65  1  0  0  0  0
 62 76  1  0  0  0  0
 63 78  1  0  0  0  0
 64 88  1  0  0  0  0
 64 89  1  0  0  0  0
 64 90  1  0  0  0  0
 67 70  1  0  0  0  0
M  CHG  1  78   1
M  ISO  4  35 100  60 101  77 100  85 101
M  END
> <Batch ID>
0064

> <Smiles>
CCn1c(C(C)C(C)(C)[101CH2:1][101O:1]c2ccc3c(c2)CN(C(=O)C(NC(=O)C(C)NC)C(C)(C)C)C(C(=O)NC2CCCc4ccccc42)C3)nc(C(F)(F)F)c1C[100N:0](C)[100C:0](=O)N1CCCC(n2nc(-c3ccc(Oc4ccc(F)cc4F)cc3)c(C(N)=O)c2N)C1

> <Shape>
0.183

> <Color>
0.087

> <Negative vol penalty>
0.000

$$$$

  -OEChem-04052318053D

 89 97  0     1  0  0  0  0  0999 V2000
  -30.2008  -32.5523   25.3284 C   0  0  0  0  0  0  0  0  0  0  0  0
  -30.0746  -31.6068   24.3157 C   0  0  0  0  0  0  0  0  0  0  0  0
  -26.7633  -12.2316   21.8674 C   0  0  0  0  0  0  0  0  0  0  0  0
  -25.8623  -13.6869   20.1623 C   0  0  0  0  0  0  0  0  0  0  0  0
  -29.4328  -32.4384   26.4865 C   0  0  0  0  0  0  0  0  0  0  0  0
  -29.1812  -30.5461   24.4611 C   0  0  0  0  0  0  0  0  0  0  0  0
  -26.4441  -29.7248   20.2803 C   0  0  0  0  0  0  0  0  0  0  0  0
  -25.5466  -11.5524   21.9305 C   0  0  0  0  0  0  0  0  0  0  0  0
  -24.6457  -13.0076   20.2254 C   0  0  0  0  0  0  0  0  0  0  0  0
  -27.0678  -29.0465   19.2340 C   0  0  0  0  0  0  0  0  0  0  0  0
  -23.9162   -9.1911   20.1419 C   0  0  0  0  0  0  0  0  0  0  0  0
  -23.9527   -7.7970   20.1680 C   0  0  0  0  0  0  0  0  0  0  0  0
  -25.9683  -27.0079   19.9080 C   0  0  0  0  0  0  0  0  0  0  0  0
  -22.8300   -7.8077   22.3073 C   0  0  0  0  0  0  0  0  0  0  0  0
  -29.4156  -23.8790   17.9086 C   0  0  0  0  0  0  0  0  0  0  0  0
  -26.9211  -13.2989   20.9833 C   0  0  0  0  0  0  0  0  0  0  0  0
  -29.2742  -13.7061   20.0862 C   0  0  0  0  0  0  0  0  0  0  0  0
  -28.5224  -31.3812   26.6420 C   0  0  0  0  0  0  0  0  0  0  0  0
  -25.5849  -29.0461   21.1564 C   0  0  0  0  0  0  0  0  0  0  0  0
  -28.4013  -30.4172   25.6229 C   0  0  0  0  0  0  0  0  0  0  0  0
  -25.3330  -27.6804   20.9631 C   0  0  0  0  0  0  0  0  0  0  0  0
  -24.4878  -11.9404   21.1095 C   0  0  0  0  0  0  0  0  0  0  0  0
  -26.8322  -27.6873   19.0494 C   0  0  0  0  0  0  0  0  0  0  0  0
  -23.3367   -9.8936   21.1985 C   0  0  0  0  0  0  0  0  0  0  0  0
  -23.4095   -7.1053   21.2507 C   0  0  0  0  0  0  0  0  0  0  0  0
  -22.7935   -9.2019   22.2812 C   0  0  0  0  0  0  0  0  0  0  0  0
  -28.1775  -14.0013   20.9180 C   0  0  0  0  0  0  0  0  0  0  0  0
  -29.7845  -25.2332   18.0170 C   0  0  0  0  0  0  0  0  0  0  0  0
  -29.8467  -23.3107   19.0823 C   0  0  0  0  0  0  0  0  0  0  0  0
  -30.2116  -14.6588   20.4029 C   0  0  0  0  0  0  0  0  0  0  0  0
  -29.4316  -12.6639   19.1142 C   0  0  0  0  0  0  0  0  0  0  0  0
  -25.5825  -28.4432   24.2773 C   0  0  0  0  0  0  0  0  0  0  0  0
  -22.6437  -27.2246   23.6442 C   0  0  0  0  0  0  0  0  0  0  0  0
  -20.4979  -25.8741   21.3598 C   0  0  0  0  0  0  0  0  0  0  0  0
  -29.8055  -20.1725   22.7019 C   0  0  0  0  0  0  0  0  0  0  0  0
  -27.7484  -31.2735   27.9319 C   0  0  0  0  0  0  0  0  0  0  0  0
  -24.8990  -29.7979   22.2640 C   0  0  0  0  0  0  0  0  0  0  0  0
  -24.4032  -26.9102   21.8637 C   0  0  0  0  0  0  0  0  0  0  0  0
  -26.5525  -30.3285   27.8476 C   0  0  0  0  0  0  0  0  0  0  0  0
  -31.6556  -17.4327   24.0238 C   0  0  0  0  0  0  0  0  0  0  0  0
  -26.9520  -29.0211   27.1709 C   0  0  0  0  0  0  0  0  0  0  0  0
  -31.0730  -16.2160   23.3027 C   0  0  0  0  0  0  0  0  0  0  0  0
  -30.5822  -18.4747   24.3301 C   0  0  0  0  0  0  0  0  0  0  0  0
  -29.2043  -17.6888   22.4439 C   0  0  0  0  0  0  0  0  0  0  0  0
  -27.4250  -29.2662   25.7329 C   0  0  1  0  0  0  0  0  0  0  0  0
  -24.4443  -28.8951   23.4067 C   0  0  1  0  0  0  0  0  0  0  0  0
  -30.2587  -16.6351   22.0640 C   0  0  2  0  0  0  0  0  0  0  0  0
  -18.1777  -24.9419   21.1474 C   0  0  0  0  0  0  0  0  0  0  0  0
  -28.8302  -25.8785   15.7036 C   0  0  0  0  0  0  0  0  0  0  0  0
  -30.9222  -26.9239   16.5450 C   0  0  0  0  0  0  0  0  0  0  0  0
  -31.2366  -21.4081   19.8178 C   0  0  0  0  0  0  0  0  0  0  0  0
  -29.1815  -20.8705   18.5553 C   0  0  0  0  0  0  0  0  0  0  0  0
  -23.5572  -24.6486   25.0005 C   0  0  0  0  0  0  0  0  0  0  0  0
  -21.6132  -23.4821   23.9382 C   0  0  0  0  0  0  0  0  0  0  0  0
  -21.2188  -25.3445   25.5503 C   0  0  0  0  0  0  0  0  0  0  0  0
  -27.2580  -23.7261   20.7852 C   0  0  0  0  0  0  0  0  0  0  0  0
  -26.6119  -21.4341   20.0806 C   0  0  0  0  0  0  0  0  0  0  0  0
  -26.8480  -21.9502   22.4922 C   0  0  0  0  0  0  0  0  0  0  0  0
  -31.0298  -24.2227   21.1029 C   0  0  0  0  0  0  0  0  0  0  0  0
  -19.7183  -27.9498   19.3996 C   0  0  0  0  0  0  0  0  0  0  0  0
  -28.7197  -27.4997   17.6148 C   0  0  0  0  0  0  0  0  0  1  0  0
  -22.1116  -25.8697   23.2440 C   0  0  1  0  0  0  0  0  0  0  0  0
  -19.0480  -26.1839   21.0338 C   0  0  2  0  0  0  0  0  0  0  0  0
  -28.9650  -21.7514   20.9816 C   0  0  1  0  0  0  0  0  0  0  0  0
  -29.5543  -26.3541   16.9860 C   0  0  0  0  0  0  0  0  0  0  0  0
  -29.7600  -21.9242   19.5761 C   0  0  0  0  0  0  0  0  0  0  0  0
  -22.1443  -24.8500   24.4173 C   0  0  0  0  0  0  0  0  0  0  0  0
  -27.4613  -22.2296   21.1102 C   0  0  0  0  0  0  0  0  0  0  0  0
  -28.3964  -15.0587   21.7041 N   0  0  0  0  0  0  0  0  0  0  0  0
  -30.4023  -25.5087   19.1688 N   0  0  0  0  0  0  0  0  0  0  0  0
  -30.4248  -24.3198   19.7948 N   0  0  0  0  0  0  0  0  0  0  0  0
  -29.6416  -15.4362   21.3678 N   0  0  0  0  0  0  0  0  0  0  0  0
  -23.7614  -27.6883   22.9361 N   0  0  0  0  0  0  0  0  0  0  0  0
  -29.8477  -18.8301   23.1135 N   0  0  0  0  0  0  0  0  0  0  0  0
  -31.4595  -14.8989   19.9475 N   0  0  0  0  0  0  0  0  0  0  0  0
  -28.3700  -11.7710   18.9141 N   0  0  0  0  0  0  0  0  0  0  0  0
  -26.2922  -29.4773   24.8573 N   0  0  0  0  0  0  0  0  0  0  0  0
  -20.7820  -26.1007   22.6899 N   0  0  0  0  0  0  0  0  0  0  0  0
  -29.0934  -20.4218   21.5351 N   0  0  0  0  0  0  0  0  0  0  0  0
  -18.9310  -26.7143   19.6461 N   0  3  0  0  0  0  0  0  0  0  0  0
  -30.4887  -12.5185   18.4547 O   0  0  0  0  0  0  0  0  0  0  0  0
  -25.7997  -27.2449   24.4140 O   0  0  0  0  0  0  0  0  0  0  0  0
  -22.0836  -27.8517   24.5469 O   0  0  0  0  0  0  0  0  0  0  0  0
  -21.2975  -25.4680   20.5194 O   0  0  0  0  0  0  0  0  0  0  0  0
  -30.3657  -21.0806   23.3250 O   0  0  0  0  0  0  0  0  0  0  0  0
  -23.3005  -11.2776   21.1707 O   0  0  0  0  0  0  0  0  0  0  0  0
  -27.4402  -27.0228   18.0294 O   0  0  0  0  0  0  0  0  0  1  0  0
  -23.4432   -5.7665   21.2749 F   0  0  0  0  0  0  0  0  0  0  0  0
  -22.2344   -9.8712   23.2986 F   0  0  0  0  0  0  0  0  0  0  0  0
  1  2  1  0  0  0  0
  1  5  2  0  0  0  0
  2  6  2  0  0  0  0
  3  8  2  0  0  0  0
  3 16  1  0  0  0  0
  4  9  1  0  0  0  0
  4 16  2  0  0  0  0
  5 18  1  0  0  0  0
  6 20  1  0  0  0  0
  7 10  2  0  0  0  0
  7 19  1  0  0  0  0
  8 22  1  0  0  0  0
  9 22  2  0  0  0  0
 10 23  1  0  0  0  0
 11 12  2  0  0  0  0
 11 24  1  0  0  0  0
 12 25  1  0  0  0  0
 13 21  1  0  0  0  0
 13 23  2  0  0  0  0
 14 25  2  0  0  0  0
 14 26  1  0  0  0  0
 15 28  1  0  0  0  0
 15 29  2  0  0  0  0
 16 27  1  0  0  0  0
 17 27  1  0  0  0  0
 17 30  2  0  0  0  0
 17 31  1  0  0  0  0
 18 20  2  0  0  0  0
 18 36  1  0  0  0  0
 19 21  2  0  0  0  0
 19 37  1  0  0  0  0
 20 45  1  0  0  0  0
 21 38  1  0  0  0  0
 22 86  1  0  0  0  0
 23 87  1  0  0  0  0
 24 26  2  0  0  0  0
 24 86  1  0  0  0  0
 25 88  1  0  0  0  0
 26 89  1  0  0  0  0
 27 69  2  0  0  0  0
 28 65  1  0  0  0  0
 28 70  2  0  0  0  0
 29 66  1  0  0  0  0
 29 71  1  0  0  0  0
 30 72  1  0  0  0  0
 30 75  1  0  0  0  0
 31 76  1  0  0  0  0
 31 81  2  0  0  0  0
 32 46  1  0  0  0  0
 32 77  1  0  0  0  0
 32 82  2  0  0  0  0
 33 62  1  0  0  0  0
 33 73  1  0  0  0  0
 33 83  2  0  0  0  0
 34 63  1  0  0  0  0
 34 78  1  0  0  0  0
 34 84  2  0  0  0  0
 35 74  1  0  0  0  0
 35 79  1  0  0  0  0
 35 85  2  0  0  0  0
 36 39  1  0  0  0  0
 37 46  1  0  0  0  0
 38 73  1  0  0  0  0
 39 41  1  0  0  0  0
 40 42  1  0  0  0  0
 40 43  1  0  0  0  0
 41 45  1  0  0  0  0
 42 47  1  0  0  0  0
 43 74  1  0  0  0  0
 44 47  1  0  0  0  0
 44 74  1  0  0  0  0
 45 77  1  0  0  0  0
 46 73  1  0  0  0  0
 47 72  1  0  0  0  0
 48 63  1  0  0  0  0
 49 65  1  0  0  0  0
 50 65  1  0  0  0  0
 51 66  1  0  0  0  0
 52 66  1  0  0  0  0
 53 67  1  0  0  0  0
 54 67  1  0  0  0  0
 55 67  1  0  0  0  0
 56 68  1  0  0  0  0
 57 68  1  0  0  0  0
 58 68  1  0  0  0  0
 59 71  1  0  0  0  0
 60 80  1  0  0  0  0
 61 65  1  0  0  0  0
 61 87  1  0  0  0  0
 62 67  1  0  0  0  0
 62 78  1  0  0  0  0
 63 80  1  0  0  0  0
 64 66  1  0  0  0  0
 64 68  1  0  0  0  0
 64 79  1  0  0  0  0
 69 72  1  0  0  0  0
 70 71  1  0  0  0  0
M  CHG  1  80   1
M  ISO  4  35 100  61 101  79 100  87 101
M  END
> <Batch ID>
0064

> <Smiles>
CNC(C)C(=O)NC(C(=O)N1Cc2cc([101O:1][101CH2:1]C(C)(C)c3cc(C(C)(C)C([100NH:0][100C:0](=O)N4CCCC(n5nc(-c6ccc(Oc7ccc(F)cc7F)cc6)c(C(N)=O)c5N)C4)C(C)(C)C)n(C)n3)ccc2CC1C(=O)NC1CCCc2ccccc21)C(C)(C)C

> <Shape>
0.291

> <Color>
0.072

> <Negative vol penalty>
0.000

$$$$

  -OEChem-04052318053D

 89 97  0     1  0  0  0  0  0999 V2000
  -23.0078  -27.6466   27.7505 C   0  0  0  0  0  0  0  0  0  0  0  0
  -23.4756  -26.9760   26.6249 C   0  0  0  0  0  0  0  0  0  0  0  0
  -22.8988  -10.0756   20.0000 C   0  0  0  0  0  0  0  0  0  0  0  0
  -23.7683  -10.0499   22.2539 C   0  0  0  0  0  0  0  0  0  0  0  0
  -21.8322  -28.3925   27.6777 C   0  0  0  0  0  0  0  0  0  0  0  0
  -22.7673  -27.0502   25.4260 C   0  0  0  0  0  0  0  0  0  0  0  0
  -25.7797  -27.8609   21.4369 C   0  0  0  0  0  0  0  0  0  0  0  0
  -22.1223   -8.9530   20.2867 C   0  0  0  0  0  0  0  0  0  0  0  0
  -22.9918   -8.9272   22.5407 C   0  0  0  0  0  0  0  0  0  0  0  0
  -26.4889  -26.7674   20.9419 C   0  0  0  0  0  0  0  0  0  0  0  0
  -23.1221   -5.5968   21.9731 C   0  0  0  0  0  0  0  0  0  0  0  0
  -23.7300   -4.5469   22.6614 C   0  0  0  0  0  0  0  0  0  0  0  0
  -24.8539  -26.5091   19.1870 C   0  0  0  0  0  0  0  0  0  0  0  0
  -22.1215   -4.7869   24.4480 C   0  0  0  0  0  0  0  0  0  0  0  0
  -28.2240  -19.0842   19.9617 C   0  0  0  0  0  0  0  0  0  0  0  0
  -23.7219  -10.6241   20.9836 C   0  0  0  0  0  0  0  0  0  0  0  0
  -24.1584  -13.1336   20.8448 C   0  0  0  0  0  0  0  0  0  0  0  0
  -21.1143  -28.4838   26.4748 C   0  0  0  0  0  0  0  0  0  0  0  0
  -24.5944  -28.2807   20.8161 C   0  0  0  0  0  0  0  0  0  0  0  0
  -21.5802  -27.7970   25.3374 C   0  0  0  0  0  0  0  0  0  0  0  0
  -24.1329  -27.6098   19.6746 C   0  0  0  0  0  0  0  0  0  0  0  0
  -22.1687   -8.3788   21.5570 C   0  0  0  0  0  0  0  0  0  0  0  0
  -26.0245  -26.0895   19.8185 C   0  0  0  0  0  0  0  0  0  0  0  0
  -22.0139   -6.2418   22.5222 C   0  0  0  0  0  0  0  0  0  0  0  0
  -23.2297   -4.1419   23.8988 C   0  0  0  0  0  0  0  0  0  0  0  0
  -21.5136   -5.8368   23.7597 C   0  0  0  0  0  0  0  0  0  0  0  0
  -24.5247  -11.7835   20.6878 C   0  0  0  0  0  0  0  0  0  0  0  0
  -27.0670  -19.7940   20.1182 C   0  0  0  0  0  0  0  0  0  0  0  0
  -25.2608  -13.8391   20.4284 C   0  0  0  0  0  0  0  0  0  0  0  0
  -27.5197  -18.7928   22.0400 C   0  0  0  0  0  0  0  0  0  0  0  0
  -22.9313  -13.6995   21.3242 C   0  0  0  0  0  0  0  0  0  0  0  0
  -21.5542  -28.5165   21.7132 C   0  0  0  0  0  0  0  0  0  0  0  0
  -21.2127  -29.9236   18.8105 C   0  0  0  0  0  0  0  0  0  0  0  0
  -22.3800  -30.3216   15.6284 C   0  0  0  0  0  0  0  0  0  0  0  0
  -30.9142  -14.3262   20.7739 C   0  0  0  0  0  0  0  0  0  0  0  0
  -19.8235  -29.2636   26.4571 C   0  0  0  0  0  0  0  0  0  0  0  0
  -23.8554  -29.4786   21.3465 C   0  0  0  0  0  0  0  0  0  0  0  0
  -22.8768  -28.0332   18.9595 C   0  0  0  0  0  0  0  0  0  0  0  0
  -19.3325  -29.5971   25.0507 C   0  0  0  0  0  0  0  0  0  0  0  0
  -29.4386  -12.3359   18.0239 C   0  0  0  0  0  0  0  0  0  0  0  0
  -19.4078  -28.3660   24.1531 C   0  0  0  0  0  0  0  0  0  0  0  0
  -28.0209  -12.0710   18.5279 C   0  0  0  0  0  0  0  0  0  0  0  0
  -30.4257  -12.5117   19.1738 C   0  0  0  0  0  0  0  0  0  0  0  0
  -28.6097  -13.2923   20.6592 C   0  0  0  0  0  0  0  0  0  0  0  0
  -20.8532  -27.8735   24.0124 C   0  0  1  0  0  0  0  0  0  0  0  0
  -22.3850  -29.5015   20.9405 C   0  0  1  0  0  0  0  0  0  0  0  0
  -27.5817  -13.1566   19.5259 C   0  0  2  0  0  0  0  0  0  0  0  0
  -24.9426  -18.6166   18.3782 C   0  0  0  0  0  0  0  0  0  0  0  0
  -21.8680  -31.5058   13.4760 C   0  0  0  0  0  0  0  0  0  0  0  0
  -18.9860  -27.9172   18.2392 C   0  0  0  0  0  0  0  0  0  0  0  0
  -19.1733  -28.5059   15.8129 C   0  0  0  0  0  0  0  0  0  0  0  0
  -18.5117  -30.2491   17.4700 C   0  0  0  0  0  0  0  0  0  0  0  0
  -31.2639  -15.6838   22.8023 C   0  0  0  0  0  0  0  0  0  0  0  0
  -24.9398  -31.8053   15.7010 C   0  0  0  0  0  0  0  0  0  0  0  0
  -24.8894  -20.0451   18.9039 C   0  0  0  0  0  0  0  0  0  0  0  0
  -27.5671  -22.8034   19.7871 C   0  0  0  0  0  0  0  0  0  0  0  0
  -26.1918  -22.1380   19.6201 C   0  0  0  0  0  0  0  0  0  0  0  0
  -29.6190  -17.6214   21.4429 C   0  0  0  0  0  0  0  0  0  0  0  0
  -29.2690  -16.1357   21.4232 C   0  0  0  0  0  0  0  0  0  0  0  0
  -27.4530  -24.2437   20.2750 C   0  0  0  0  0  0  0  0  0  1  0  0
  -26.2834  -20.6677   19.1477 C   0  0  1  0  0  0  0  0  0  0  0  0
  -20.9049  -29.4357   17.4155 C   0  0  1  0  0  0  0  0  0  0  0  0
  -22.6250  -31.5656   14.7936 C   0  0  2  0  0  0  0  0  0  0  0  0
  -27.4151  -18.3472   23.4519 C   0  0  0  0  0  0  0  0  0  0  0  0
  -19.4166  -29.0176   17.2488 C   0  0  0  0  0  0  0  0  0  0  0  0
  -25.7630  -11.6375   20.2090 N   0  0  0  0  0  0  0  0  0  0  0  0
  -28.4807  -18.4752   21.1664 N   0  0  0  0  0  0  0  0  0  0  0  0
  -26.1843  -12.9050   20.0613 N   0  0  0  0  0  0  0  0  0  0  0  0
  -26.6533  -19.5953   21.4134 N   0  3  0  0  0  0  0  0  0  0  0  0
  -22.1862  -29.2063   19.5201 N   0  0  0  0  0  0  0  0  0  0  0  0
  -29.9629  -13.5182   20.1297 N   0  0  0  0  0  0  0  0  0  0  0  0
  -25.5206  -15.1612   20.3440 N   0  0  0  0  0  0  0  0  0  0  0  0
  -21.9013  -12.8313   21.7108 N   0  0  0  0  0  0  0  0  0  0  0  0
  -21.5830  -28.7074   23.0815 N   0  0  0  0  0  0  0  0  0  0  0  0
  -21.3330  -30.4953   16.5087 N   0  0  0  0  0  0  0  0  0  0  0  0
  -30.4318  -15.2874   21.6752 N   0  0  0  0  0  0  0  0  0  0  0  0
  -24.0778  -31.7109   14.4947 N   0  3  0  0  0  0  0  0  0  0  0  0
  -22.7476  -14.9385   21.3917 O   0  0  0  0  0  0  0  0  0  0  0  0
  -20.9318  -27.6486   21.1124 O   0  0  0  0  0  0  0  0  0  0  0  0
  -20.6166  -30.9094   19.2517 O   0  0  0  0  0  0  0  0  0  0  0  0
  -23.0480  -29.2969   15.5089 O   0  0  0  0  0  0  0  0  0  0  0  0
  -32.1249  -14.2023   20.5488 O   0  0  0  0  0  0  0  0  0  0  0  0
  -21.4110   -7.2834   21.8373 O   0  0  0  0  0  0  0  0  0  0  0  0
  -26.7144  -25.0215   19.3337 O   0  0  0  0  0  0  0  0  0  1  0  0
  -23.8127   -3.1327   24.5590 F   0  0  0  0  0  0  0  0  0  0  0  0
  -20.4485   -6.4518   24.2918 F   0  0  0  0  0  0  0  0  0  0  0  0
  -28.4350  -17.5263   23.8515 F   0  0  0  0  0  0  0  0  0  0  0  0
  -27.4168  -19.3731   24.3581 F   0  0  0  0  0  0  0  0  0  0  0  0
  -26.2687  -17.6456   23.7051 F   0  0  0  0  0  0  0  0  0  0  0  0
  1  2  1  0  0  0  0
  1  5  2  0  0  0  0
  2  6  2  0  0  0  0
  3  8  2  0  0  0  0
  3 16  1  0  0  0  0
  4  9  1  0  0  0  0
  4 16  2  0  0  0  0
  5 18  1  0  0  0  0
  6 20  1  0  0  0  0
  7 10  2  0  0  0  0
  7 19  1  0  0  0  0
  8 22  1  0  0  0  0
  9 22  2  0  0  0  0
 10 23  1  0  0  0  0
 11 12  2  0  0  0  0
 11 24  1  0  0  0  0
 12 25  1  0  0  0  0
 13 21  1  0  0  0  0
 13 23  2  0  0  0  0
 14 25  2  0  0  0  0
 14 26  1  0  0  0  0
 15 28  2  0  0  0  0
 15 67  1  0  0  0  0
 16 27  1  0  0  0  0
 17 27  1  0  0  0  0
 17 29  2  0  0  0  0
 17 31  1  0  0  0  0
 18 20  2  0  0  0  0
 18 36  1  0  0  0  0
 19 21  2  0  0  0  0
 19 37  1  0  0  0  0
 20 45  1  0  0  0  0
 21 38  1  0  0  0  0
 22 83  1  0  0  0  0
 23 84  1  0  0  0  0
 24 26  2  0  0  0  0
 24 83  1  0  0  0  0
 25 85  1  0  0  0  0
 26 86  1  0  0  0  0
 27 66  2  0  0  0  0
 28 61  1  0  0  0  0
 28 69  1  0  0  0  0
 29 68  1  0  0  0  0
 29 72  1  0  0  0  0
 30 64  1  0  0  0  0
 30 67  1  0  0  0  0
 30 69  2  0  0  0  0
 31 73  1  0  0  0  0
 31 78  2  0  0  0  0
 32 46  1  0  0  0  0
 32 74  1  0  0  0  0
 32 79  2  0  0  0  0
 33 62  1  0  0  0  0
 33 70  1  0  0  0  0
 33 80  2  0  0  0  0
 34 63  1  0  0  0  0
 34 75  1  0  0  0  0
 34 81  2  0  0  0  0
 35 71  1  0  0  0  0
 35 76  1  0  0  0  0
 35 82  2  0  0  0  0
 36 39  1  0  0  0  0
 37 46  1  0  0  0  0
 38 70  1  0  0  0  0
 39 41  1  0  0  0  0
 40 42  1  0  0  0  0
 40 43  1  0  0  0  0
 41 45  1  0  0  0  0
 42 47  1  0  0  0  0
 43 71  1  0  0  0  0
 44 47  1  0  0  0  0
 44 71  1  0  0  0  0
 45 74  1  0  0  0  0
 46 70  1  0  0  0  0
 47 68  1  0  0  0  0
 48 55  1  0  0  0  0
 49 63  1  0  0  0  0
 50 65  1  0  0  0  0
 51 65  1  0  0  0  0
 52 65  1  0  0  0  0
 53 76  1  0  0  0  0
 54 77  1  0  0  0  0
 55 61  1  0  0  0  0
 56 57  1  0  0  0  0
 56 60  1  0  0  0  0
 57 61  1  0  0  0  0
 58 59  1  0  0  0  0
 58 67  1  0  0  0  0
 59 76  1  0  0  0  0
 60 84  1  0  0  0  0
 62 65  1  0  0  0  0
 62 75  1  0  0  0  0
 63 77  1  0  0  0  0
 64 87  1  0  0  0  0
 64 88  1  0  0  0  0
 64 89  1  0  0  0  0
 66 68  1  0  0  0  0
M  CHG  2  69   1  77   1
M  ISO  4  35 100  60 101  76 100  84 101
M  END
> <Batch ID>
0064

> <Smiles>
CCC(CC[101CH2:1][101O:1]c1ccc2c(c1)CN(C(=O)C(NC(=O)C(C)NC)C(C)(C)C)C(C(=O)NC1CCCc3ccccc31)C2)c1cn(CC[100N:0](C)[100C:0](=O)N2CCCC(n3nc(-c4ccc(Oc5ccc(F)cc5F)cc4)c(C(N)=O)c3N)C2)c(C(F)(F)F)n1

> <Shape>
0.283

> <Color>
0.189

> <Negative vol penalty>
0.000

$$$$

  -OEChem-04052318053D

 94103  0     1  0  0  0  0  0999 V2000
  -32.3965  -31.3217   15.7609 C   0  0  0  0  0  0  0  0  0  0  0  0
  -31.7369  -30.1140   15.5564 C   0  0  0  0  0  0  0  0  0  0  0  0
  -24.5667   -8.5452   21.4203 C   0  0  0  0  0  0  0  0  0  0  0  0
  -23.7781  -10.4382   22.6976 C   0  0  0  0  0  0  0  0  0  0  0  0
  -32.4876  -31.8562   17.0454 C   0  0  0  0  0  0  0  0  0  0  0  0
  -31.1689  -29.4395   16.6366 C   0  0  0  0  0  0  0  0  0  0  0  0
  -25.6216  -25.2200   18.2917 C   0  0  0  0  0  0  0  0  0  0  0  0
  -24.0435   -7.6793   22.3805 C   0  0  0  0  0  0  0  0  0  0  0  0
  -23.2549   -9.5723   23.6579 C   0  0  0  0  0  0  0  0  0  0  0  0
  -25.3420  -23.9993   18.9044 C   0  0  0  0  0  0  0  0  0  0  0  0
  -22.5994   -4.9608   24.3144 C   0  0  0  0  0  0  0  0  0  0  0  0
  -21.8849   -3.8502   23.8655 C   0  0  0  0  0  0  0  0  0  0  0  0
  -25.4928  -25.0573   21.0671 C   0  0  0  0  0  0  0  0  0  0  0  0
  -24.1224  -18.7929   23.6603 C   0  0  0  0  0  0  0  0  0  0  0  0
  -25.5594  -20.3002   22.4572 C   0  0  0  0  0  0  0  0  0  0  0  0
  -20.3032   -5.3108   22.7692 C   0  0  0  0  0  0  0  0  0  0  0  0
  -27.2934  -17.7110   19.1214 C   0  0  0  0  0  0  0  0  0  0  0  0
  -24.4341   -9.9247   21.5788 C   0  0  0  0  0  0  0  0  0  0  0  0
  -24.3205  -11.3182   19.4451 C   0  0  0  0  0  0  0  0  0  0  0  0
  -31.9120  -31.1927   18.1405 C   0  0  0  0  0  0  0  0  0  0  0  0
  -25.8500  -26.3682   19.0637 C   0  0  0  0  0  0  0  0  0  0  0  0
  -31.2535  -29.9650   17.9372 C   0  0  0  0  0  0  0  0  0  0  0  0
  -25.7725  -26.2919   20.4616 C   0  0  0  0  0  0  0  0  0  0  0  0
  -25.2685  -19.0165   22.9055 C   0  0  0  0  0  0  0  0  0  0  0  0
  -23.3876   -8.1928   23.4993 C   0  0  0  0  0  0  0  0  0  0  0  0
  -25.2805  -23.9172   20.2924 C   0  0  0  0  0  0  0  0  0  0  0  0
  -22.1658   -6.2465   23.9907 C   0  0  0  0  0  0  0  0  0  0  0  0
  -20.7368   -4.0251   23.0929 C   0  0  0  0  0  0  0  0  0  0  0  0
  -21.0178   -6.4215   23.2181 C   0  0  0  0  0  0  0  0  0  0  0  0
  -24.9748  -10.8197   20.5875 C   0  0  0  0  0  0  0  0  0  0  0  0
  -23.3063  -19.8778   23.9373 C   0  0  0  0  0  0  0  0  0  0  0  0
  -24.6789  -21.3176   22.7879 C   0  0  0  0  0  0  0  0  0  0  0  0
  -25.9101  -17.4508   19.0990 C   0  0  0  0  0  0  0  0  0  0  0  0
  -27.5836  -17.9116   20.4489 C   0  0  0  0  0  0  0  0  0  0  0  0
  -25.2552  -12.1195   18.8363 C   0  0  0  0  0  0  0  0  0  0  0  0
  -22.9869  -11.0785   18.9762 C   0  0  0  0  0  0  0  0  0  0  0  0
  -28.3027  -28.3496   19.4657 C   0  0  0  0  0  0  0  0  0  0  0  0
  -26.1624  -30.0150   21.2455 C   0  0  0  0  0  0  0  0  0  0  0  0
  -23.3027  -29.9926   23.1078 C   0  0  0  0  0  0  0  0  0  0  0  0
  -30.0339  -15.0897   20.8840 C   0  0  0  0  0  0  0  0  0  0  0  0
  -32.0772  -31.7859   19.5172 C   0  0  0  0  0  0  0  0  0  0  0  0
  -26.1239  -27.6831   18.3866 C   0  0  0  0  0  0  0  0  0  0  0  0
  -25.9898  -27.4996   21.3350 C   0  0  0  0  0  0  0  0  0  0  0  0
  -31.1239  -31.1957   20.5531 C   0  0  0  0  0  0  0  0  0  0  0  0
  -29.9842  -12.6250   18.3150 C   0  0  0  0  0  0  0  0  0  0  0  0
  -31.1046  -29.6736   20.4549 C   0  0  0  0  0  0  0  0  0  0  0  0
  -28.6357  -11.9278   18.5031 C   0  0  0  0  0  0  0  0  0  0  0  0
  -30.6076  -13.0183   19.6525 C   0  0  0  0  0  0  0  0  0  0  0  0
  -28.3876  -13.1255   20.7173 C   0  0  0  0  0  0  0  0  0  0  0  0
  -30.6031  -29.2159   19.0799 C   0  0  1  0  0  0  0  0  0  0  0  0
  -26.8477  -28.6794   19.2870 C   0  0  1  0  0  0  0  0  0  0  0  0
  -27.6937  -12.7599   19.3939 C   0  0  2  0  0  0  0  0  0  0  0  0
  -22.0687  -19.6755   24.7461 C   0  0  0  0  0  0  0  0  0  0  0  0
  -25.8341  -16.5037   23.1842 C   0  0  0  0  0  0  0  0  0  0  0  0
  -21.8248  -31.4985   24.4663 C   0  0  0  0  0  0  0  0  0  0  0  0
  -25.8763  -16.4509   16.7871 C   0  0  0  0  0  0  0  0  0  0  0  0
  -24.4727  -18.4760   17.3019 C   0  0  0  0  0  0  0  0  0  0  0  0
  -23.8235  -16.2401   18.1740 C   0  0  0  0  0  0  0  0  0  0  0  0
  -28.8948  -19.5752   21.9354 C   0  0  0  0  0  0  0  0  0  0  0  0
  -30.0253  -18.3648   20.0881 C   0  0  0  0  0  0  0  0  0  0  0  0
  -28.1960  -29.9554   23.5195 C   0  0  0  0  0  0  0  0  0  0  0  0
  -26.3553  -30.5996   25.0895 C   0  0  0  0  0  0  0  0  0  0  0  0
  -27.0092  -32.1387   23.2384 C   0  0  0  0  0  0  0  0  0  0  0  0
  -20.9823  -29.5061   21.3363 C   0  0  0  0  0  0  0  0  0  0  0  0
  -24.9606  -22.7149   22.3193 C   0  0  0  0  0  0  0  0  0  1  0  0
  -29.3094  -17.1037   22.1402 C   0  0  0  0  0  0  0  0  0  0  0  0
  -26.1826  -17.8845   22.5790 C   0  0  1  0  0  0  0  0  0  0  0  0
  -25.7492  -30.0145   22.6975 C   0  0  1  0  0  0  0  0  0  0  0  0
  -22.0842  -30.8979   23.0935 C   0  0  2  0  0  0  0  0  0  0  0  0
  -25.0694  -17.1671   17.9237 C   0  0  0  0  0  0  0  0  0  0  0  0
  -28.8557  -18.2236   21.1257 C   0  0  0  0  0  0  0  0  0  0  0  0
  -26.8252  -30.6537   23.6201 C   0  0  0  0  0  0  0  0  0  0  0  0
  -26.2284  -11.2667   20.7000 N   0  0  0  0  0  0  0  0  0  0  0  0
  -23.5560  -21.1389   23.5191 N   0  0  0  0  0  0  0  0  0  0  0  0
  -25.3597  -17.4823   20.3156 N   0  0  0  0  0  0  0  0  0  0  0  0
  -26.4025  -17.7646   21.1149 N   0  0  0  0  0  0  0  0  0  0  0  0
  -26.3693  -12.0544   19.6203 N   0  0  0  0  0  0  0  0  0  0  0  0
  -26.2608  -28.7611   20.6260 N   0  0  0  0  0  0  0  0  0  0  0  0
  -29.6637  -13.8067   20.4484 N   0  0  0  0  0  0  0  0  0  0  0  0
  -25.2247  -12.8663   17.7121 N   0  0  0  0  0  0  0  0  0  0  0  0
  -22.1588  -10.2291   19.7226 N   0  0  0  0  0  0  0  0  0  0  0  0
  -29.1622  -29.3284   19.0044 N   0  0  0  0  0  0  0  0  0  0  0  0
  -24.4483  -30.6725   22.7519 N   0  0  0  0  0  0  0  0  0  0  0  0
  -29.0784  -15.7716   21.6274 N   0  0  0  0  0  0  0  0  0  0  0  0
  -20.8747  -30.1320   22.6793 N   0  3  0  0  0  0  0  0  0  0  0  0
  -22.5482  -11.5892   17.9178 O   0  0  0  0  0  0  0  0  0  0  0  0
  -28.6219  -27.2866   19.9850 O   0  0  0  0  0  0  0  0  0  0  0  0
  -26.3827  -31.0889   20.6798 O   0  0  0  0  0  0  0  0  0  0  0  0
  -23.2447  -28.8024   23.4085 O   0  0  0  0  0  0  0  0  0  0  0  0
  -31.1325  -15.5926   20.6247 O   0  0  0  0  0  0  0  0  0  0  0  0
  -22.8768   -7.3482   24.4364 O   0  0  0  0  0  0  0  0  0  0  0  0
  -25.0085  -22.7268   20.8931 O   0  0  0  0  0  0  0  0  0  1  0  0
  -20.0516   -2.9584   22.6607 F   0  0  0  0  0  0  0  0  0  0  0  0
  -20.5970   -7.6541   22.9029 F   0  0  0  0  0  0  0  0  0  0  0  0
  1  2  1  0  0  0  0
  1  5  2  0  0  0  0
  2  6  2  0  0  0  0
  3  8  2  0  0  0  0
  3 18  1  0  0  0  0
  4  9  1  0  0  0  0
  4 18  2  0  0  0  0
  5 20  1  0  0  0  0
  6 22  1  0  0  0  0
  7 10  2  0  0  0  0
  7 21  1  0  0  0  0
  8 25  1  0  0  0  0
  9 25  2  0  0  0  0
 10 26  1  0  0  0  0
 11 12  2  0  0  0  0
 11 27  1  0  0  0  0
 12 28  1  0  0  0  0
 13 23  1  0  0  0  0
 13 26  2  0  0  0  0
 14 24  1  0  0  0  0
 14 31  2  0  0  0  0
 15 24  2  0  0  0  0
 15 32  1  0  0  0  0
 16 28  2  0  0  0  0
 16 29  1  0  0  0  0
 17 33  1  0  0  0  0
 17 34  2  0  0  0  0
 18 30  1  0  0  0  0
 19 30  1  0  0  0  0
 19 35  2  0  0  0  0
 19 36  1  0  0  0  0
 20 22  2  0  0  0  0
 20 41  1  0  0  0  0
 21 23  2  0  0  0  0
 21 42  1  0  0  0  0
 22 50  1  0  0  0  0
 23 43  1  0  0  0  0
 24 67  1  0  0  0  0
 25 91  1  0  0  0  0
 26 92  1  0  0  0  0
 27 29  2  0  0  0  0
 27 91  1  0  0  0  0
 28 93  1  0  0  0  0
 29 94  1  0  0  0  0
 30 73  2  0  0  0  0
 31 53  1  0  0  0  0
 31 74  1  0  0  0  0
 32 65  1  0  0  0  0
 32 74  2  0  0  0  0
 33 70  1  0  0  0  0
 33 75  2  0  0  0  0
 34 71  1  0  0  0  0
 34 76  1  0  0  0  0
 35 77  1  0  0  0  0
 35 80  1  0  0  0  0
 36 81  1  0  0  0  0
 36 86  2  0  0  0  0
 37 51  1  0  0  0  0
 37 82  1  0  0  0  0
 37 87  2  0  0  0  0
 38 68  1  0  0  0  0
 38 78  1  0  0  0  0
 38 88  2  0  0  0  0
 39 69  1  0  0  0  0
 39 83  1  0  0  0  0
 39 89  2  0  0  0  0
 40 79  1  0  0  0  0
 40 84  1  0  0  0  0
 40 90  2  0  0  0  0
 41 44  1  0  0  0  0
 42 51  1  0  0  0  0
 43 78  1  0  0  0  0
 44 46  1  0  0  0  0
 45 47  1  0  0  0  0
 45 48  1  0  0  0  0
 46 50  1  0  0  0  0
 47 52  1  0  0  0  0
 48 79  1  0  0  0  0
 49 52  1  0  0  0  0
 49 79  1  0  0  0  0
 50 82  1  0  0  0  0
 51 78  1  0  0  0  0
 52 77  1  0  0  0  0
 54 67  1  0  0  0  0
 55 69  1  0  0  0  0
 56 70  1  0  0  0  0
 57 70  1  0  0  0  0
 58 70  1  0  0  0  0
 59 71  1  0  0  0  0
 60 71  1  0  0  0  0
 61 72  1  0  0  0  0
 62 72  1  0  0  0  0
 63 72  1  0  0  0  0
 64 85  1  0  0  0  0
 65 92  1  0  0  0  0
 66 71  1  0  0  0  0
 66 84  1  0  0  0  0
 67 76  1  0  0  0  0
 68 72  1  0  0  0  0
 68 83  1  0  0  0  0
 69 85  1  0  0  0  0
 73 77  1  0  0  0  0
 75 76  1  0  0  0  0
M  CHG  1  85   1
M  ISO  4  40 100  65 101  84 100  92 101
M  END
> <Batch ID>
0064

> <Smiles>
CNC(C)C(=O)NC(C(=O)N1Cc2cc([101O:1][101CH2:1]c3cc(C(C)n4nc(C(C)(C)C)cc4C(C)(C)C[100NH:0][100C:0](=O)N4CCCC(n5nc(-c6ccc(Oc7ccc(F)cc7F)cc6)c(C(N)=O)c5N)C4)cc(C)n3)ccc2CC1C(=O)NC1CCCc2ccccc21)C(C)(C)C

> <Shape>
0.258

> <Color>
0.109

> <Negative vol penalty>
0.000

$$$$

  -OEChem-04052318053D

 87 95  0     1  0  0  0  0  0999 V2000
  -18.3257  -24.4196   20.9307 C   0  0  0  0  0  0  0  0  0  0  0  0
  -19.6059  -24.5703   20.4074 C   0  0  0  0  0  0  0  0  0  0  0  0
  -24.4302  -10.0713   21.8892 C   0  0  0  0  0  0  0  0  0  0  0  0
  -24.1015  -11.1451   24.0283 C   0  0  0  0  0  0  0  0  0  0  0  0
  -17.8792  -25.2769   21.9355 C   0  0  0  0  0  0  0  0  0  0  0  0
  -20.4400  -25.5793   20.8879 C   0  0  0  0  0  0  0  0  0  0  0  0
  -25.1614  -23.9569   21.7369 C   0  0  0  0  0  0  0  0  0  0  0  0
  -23.9088   -8.8847   22.4047 C   0  0  0  0  0  0  0  0  0  0  0  0
  -23.5800   -9.9586   24.5438 C   0  0  0  0  0  0  0  0  0  0  0  0
  -25.9927  -23.8081   20.6275 C   0  0  0  0  0  0  0  0  0  0  0  0
  -20.8596   -7.5941   23.0899 C   0  0  0  0  0  0  0  0  0  0  0  0
  -19.9333   -6.9008   22.3110 C   0  0  0  0  0  0  0  0  0  0  0  0
  -27.0273  -25.9296   21.1256 C   0  0  0  0  0  0  0  0  0  0  0  0
  -21.4004   -4.9815   22.2748 C   0  0  0  0  0  0  0  0  0  0  0  0
  -30.7387  -19.6028   20.5368 C   0  0  0  0  0  0  0  0  0  0  0  0
  -24.5266  -11.2015   22.7010 C   0  0  0  0  0  0  0  0  0  0  0  0
  -24.3543  -13.4659   21.5388 C   0  0  0  0  0  0  0  0  0  0  0  0
  -18.7116  -26.2907   22.4353 C   0  0  0  0  0  0  0  0  0  0  0  0
  -25.2496  -25.1003   22.5440 C   0  0  0  0  0  0  0  0  0  0  0  0
  -20.0036  -26.4518   21.8994 C   0  0  0  0  0  0  0  0  0  0  0  0
  -26.1978  -26.0894   22.2461 C   0  0  0  0  0  0  0  0  0  0  0  0
  -23.4837   -8.8283   23.7320 C   0  0  0  0  0  0  0  0  0  0  0  0
  -26.9238  -24.7958   20.3200 C   0  0  0  0  0  0  0  0  0  0  0  0
  -22.0564   -6.9813   23.4613 C   0  0  0  0  0  0  0  0  0  0  0  0
  -20.2037   -5.5944   21.9035 C   0  0  0  0  0  0  0  0  0  0  0  0
  -22.3267   -5.6749   23.0537 C   0  0  0  0  0  0  0  0  0  0  0  0
  -25.0656  -12.4274   22.1692 C   0  0  0  0  0  0  0  0  0  0  0  0
  -29.3956  -19.3646   20.4587 C   0  0  0  0  0  0  0  0  0  0  0  0
  -25.3141  -14.3955   21.2206 C   0  0  0  0  0  0  0  0  0  0  0  0
  -29.9277  -20.8055   18.8646 C   0  0  0  0  0  0  0  0  0  0  0  0
  -22.9515  -13.5801   21.2654 C   0  0  0  0  0  0  0  0  0  0  0  0
  -23.2641  -27.4595   23.3160 C   0  0  0  0  0  0  0  0  0  0  0  0
  -25.6723  -28.3083   25.3167 C   0  0  0  0  0  0  0  0  0  0  0  0
  -29.0026  -28.1953   26.0534 C   0  0  0  0  0  0  0  0  0  0  0  0
  -29.8149  -17.3130   23.1041 C   0  0  0  0  0  0  0  0  0  0  0  0
  -18.1679  -27.2230   23.4887 C   0  0  0  0  0  0  0  0  0  0  0  0
  -24.3640  -25.2334   23.7525 C   0  0  0  0  0  0  0  0  0  0  0  0
  -26.3461  -27.3263   23.0925 C   0  0  0  0  0  0  0  0  0  0  0  0
  -19.2483  -28.0291   24.2051 C   0  0  0  0  0  0  0  0  0  0  0  0
  -30.3546  -14.1158   21.3185 C   0  0  0  0  0  0  0  0  0  0  0  0
  -20.2282  -28.6220   23.1976 C   0  0  0  0  0  0  0  0  0  0  0  0
  -28.9799  -13.4541   21.3974 C   0  0  0  0  0  0  0  0  0  0  0  0
  -30.6010  -15.0538   22.4963 C   0  0  0  0  0  0  0  0  0  0  0  0
  -28.1700  -15.4250   22.7538 C   0  0  0  0  0  0  0  0  0  0  0  0
  -20.9468  -27.5185   22.4119 C   0  0  1  0  0  0  0  0  0  0  0  0
  -24.1876  -26.6787   24.2077 C   0  0  1  0  0  0  0  0  0  0  0  0
  -27.8715  -14.5091   21.5573 C   0  0  2  0  0  0  0  0  0  0  0  0
  -27.1459  -18.9572   18.1592 C   0  0  0  0  0  0  0  0  0  0  0  0
  -30.6776  -29.0151   27.7326 C   0  0  0  0  0  0  0  0  0  0  0  0
  -31.1915  -21.7723   16.8732 C   0  0  0  0  0  0  0  0  0  0  0  0
  -28.8162  -21.2394   16.6204 C   0  0  0  0  0  0  0  0  0  0  0  0
  -25.5706  -31.0861   24.0584 C   0  0  0  0  0  0  0  0  0  0  0  0
  -27.8190  -31.5456   25.0593 C   0  0  0  0  0  0  0  0  0  0  0  0
  -25.8682  -31.0759   26.5415 C   0  0  0  0  0  0  0  0  0  0  0  0
  -30.5270  -23.8410   19.1241 C   0  0  0  0  0  0  0  0  0  0  0  0
  -29.4091  -24.2774   16.9529 C   0  0  0  0  0  0  0  0  0  0  0  0
  -28.8021  -19.5264   23.4970 C   0  0  0  0  0  0  0  0  0  0  0  0
  -29.7413  -25.4381   26.8354 C   0  0  0  0  0  0  0  0  0  0  0  0
  -28.5340  -18.4971   21.2712 C   0  0  0  0  0  0  0  0  0  0  0  0
  -27.5386  -20.1779   18.9736 C   0  0  0  0  0  0  0  0  0  0  0  0
  -28.0842  -23.3226   18.8575 C   0  0  0  0  0  0  0  0  0  1  0  0
  -26.8933  -29.1892   25.2066 C   0  0  1  0  0  0  0  0  0  0  0  0
  -29.7388  -27.8836   27.3439 C   0  0  2  0  0  0  0  0  0  0  0  0
  -29.8442  -21.7843   17.6604 C   0  0  0  0  0  0  0  0  0  0  0  0
  -26.5339  -30.7019   25.1992 C   0  0  0  0  0  0  0  0  0  0  0  0
  -29.4671  -23.2784   18.1391 C   0  0  0  0  0  0  0  0  0  0  0  0
  -26.3761  -12.6736   22.2476 N   0  0  0  0  0  0  0  0  0  0  0  0
  -28.9194  -20.1221   19.4158 N   0  0  0  0  0  0  0  0  0  0  0  0
  -26.4959  -13.8773   21.6622 N   0  0  0  0  0  0  0  0  0  0  0  0
  -31.0405  -20.4975   19.5386 N   0  3  0  0  0  0  0  0  0  0  0  0
  -25.4532  -27.4134   24.2598 N   0  0  0  0  0  0  0  0  0  0  0  0
  -29.5117  -16.0183   22.6517 N   0  0  0  0  0  0  0  0  0  0  0  0
  -25.2539  -15.5974   20.6088 N   0  0  0  0  0  0  0  0  0  0  0  0
  -22.1066  -12.5338   21.6599 N   0  0  0  0  0  0  0  0  0  0  0  0
  -21.9937  -26.9253   23.2160 N   0  0  0  0  0  0  0  0  0  0  0  0
  -27.7827  -28.7917   26.2926 N   0  0  0  0  0  0  0  0  0  0  0  0
  -28.9948  -18.3573   22.6508 N   0  0  0  0  0  0  0  0  0  0  0  0
  -30.5418  -26.6371   27.1940 N   0  3  0  0  0  0  0  0  0  0  0  0
  -22.4641  -14.5729   20.6736 O   0  0  0  0  0  0  0  0  0  0  0  0
  -23.6734  -28.4724   22.7610 O   0  0  0  0  0  0  0  0  0  0  0  0
  -24.9438  -28.4055   26.3074 O   0  0  0  0  0  0  0  0  0  0  0  0
  -29.4653  -27.9390   24.9440 O   0  0  0  0  0  0  0  0  0  0  0  0
  -30.7703  -17.5247   23.8619 O   0  0  0  0  0  0  0  0  0  0  0  0
  -22.9747   -7.6707   24.2353 O   0  0  0  0  0  0  0  0  0  0  0  0
  -27.7359  -24.6533   19.2374 O   0  0  0  0  0  0  0  0  0  1  0  0
  -19.3134   -4.9282   21.1567 F   0  0  0  0  0  0  0  0  0  0  0  0
  -23.4742   -5.0805   23.4084 F   0  0  0  0  0  0  0  0  0  0  0  0
  1  2  1  0  0  0  0
  1  5  2  0  0  0  0
  2  6  2  0  0  0  0
  3  8  2  0  0  0  0
  3 16  1  0  0  0  0
  4  9  1  0  0  0  0
  4 16  2  0  0  0  0
  5 18  1  0  0  0  0
  6 20  1  0  0  0  0
  7 10  2  0  0  0  0
  7 19  1  0  0  0  0
  8 22  1  0  0  0  0
  9 22  2  0  0  0  0
 10 23  1  0  0  0  0
 11 12  2  0  0  0  0
 11 24  1  0  0  0  0
 12 25  1  0  0  0  0
 13 21  1  0  0  0  0
 13 23  2  0  0  0  0
 14 25  2  0  0  0  0
 14 26  1  0  0  0  0
 15 28  2  0  0  0  0
 15 70  1  0  0  0  0
 16 27  1  0  0  0  0
 17 27  1  0  0  0  0
 17 29  2  0  0  0  0
 17 31  1  0  0  0  0
 18 20  2  0  0  0  0
 18 36  1  0  0  0  0
 19 21  2  0  0  0  0
 19 37  1  0  0  0  0
 20 45  1  0  0  0  0
 21 38  1  0  0  0  0
 22 84  1  0  0  0  0
 23 85  1  0  0  0  0
 24 26  2  0  0  0  0
 24 84  1  0  0  0  0
 25 86  1  0  0  0  0
 26 87  1  0  0  0  0
 27 67  2  0  0  0  0
 28 59  1  0  0  0  0
 28 68  1  0  0  0  0
 29 69  1  0  0  0  0
 29 73  1  0  0  0  0
 30 64  1  0  0  0  0
 30 68  1  0  0  0  0
 30 70  2  0  0  0  0
 31 74  1  0  0  0  0
 31 79  2  0  0  0  0
 32 46  1  0  0  0  0
 32 75  1  0  0  0  0
 32 80  2  0  0  0  0
 33 62  1  0  0  0  0
 33 71  1  0  0  0  0
 33 81  2  0  0  0  0
 34 63  1  0  0  0  0
 34 76  1  0  0  0  0
 34 82  2  0  0  0  0
 35 72  1  0  0  0  0
 35 77  1  0  0  0  0
 35 83  2  0  0  0  0
 36 39  1  0  0  0  0
 37 46  1  0  0  0  0
 38 71  1  0  0  0  0
 39 41  1  0  0  0  0
 40 42  1  0  0  0  0
 40 43  1  0  0  0  0
 41 45  1  0  0  0  0
 42 47  1  0  0  0  0
 43 72  1  0  0  0  0
 44 47  1  0  0  0  0
 44 72  1  0  0  0  0
 45 75  1  0  0  0  0
 46 71  1  0  0  0  0
 47 69  1  0  0  0  0
 48 60  1  0  0  0  0
 49 63  1  0  0  0  0
 50 64  1  0  0  0  0
 51 64  1  0  0  0  0
 52 65  1  0  0  0  0
 53 65  1  0  0  0  0
 54 65  1  0  0  0  0
 55 66  1  0  0  0  0
 56 66  1  0  0  0  0
 57 77  1  0  0  0  0
 58 78  1  0  0  0  0
 59 77  1  0  0  0  0
 60 68  1  0  0  0  0
 61 66  1  0  0  0  0
 61 85  1  0  0  0  0
 62 65  1  0  0  0  0
 62 76  1  0  0  0  0
 63 78  1  0  0  0  0
 64 66  1  0  0  0  0
 67 69  1  0  0  0  0
M  CHG  2  70   1  78   1
M  ISO  4  35 100  61 101  77 100  85 101
M  END
> <Batch ID>
0064

> <Smiles>
CCn1c(C[100N:0](C)[100C:0](=O)N2CCCC(n3nc(-c4ccc(Oc5ccc(F)cc5F)cc4)c(C(N)=O)c3N)C2)cnc1C(C)(C)C(C)(C)[101CH2:1][101O:1]c1ccc2c(c1)CN(C(=O)C(NC(=O)C(C)NC)C(C)(C)C)C(C(=O)NC1CCCc3ccccc31)C2

> <Shape>
0.256

> <Color>
0.117

> <Negative vol penalty>
0.000

$$$$

  -OEChem-04052318053D

 93101  0     1  0  0  0  0  0999 V2000
  -17.4483  -12.6483   22.1224 C   0  0  0  0  0  0  0  0  0  0  0  0
  -18.1727  -13.8360   22.1139 C   0  0  0  0  0  0  0  0  0  0  0  0
  -19.8296  -25.0583   19.8973 C   0  0  0  0  0  0  0  0  0  0  0  0
  -21.0131  -24.2497   21.8422 C   0  0  0  0  0  0  0  0  0  0  0  0
  -18.0702  -11.4564   22.4920 C   0  0  0  0  0  0  0  0  0  0  0  0
  -19.5192  -13.8326   22.4761 C   0  0  0  0  0  0  0  0  0  0  0  0
  -23.9636  -17.3515   20.1587 C   0  0  0  0  0  0  0  0  0  0  0  0
  -19.3100  -23.7818   19.6827 C   0  0  0  0  0  0  0  0  0  0  0  0
  -20.4935  -22.9731   21.6276 C   0  0  0  0  0  0  0  0  0  0  0  0
  -24.5571  -18.5303   20.6080 C   0  0  0  0  0  0  0  0  0  0  0  0
  -17.5808  -21.3475   22.1704 C   0  0  0  0  0  0  0  0  0  0  0  0
  -17.0784  -20.6599   23.2750 C   0  0  0  0  0  0  0  0  0  0  0  0
  -26.3414  -17.2463   21.6014 C   0  0  0  0  0  0  0  0  0  0  0  0
  -18.6877  -18.8955   22.9086 C   0  0  0  0  0  0  0  0  0  0  0  0
  -29.3431  -24.0698   19.6430 C   0  0  0  0  0  0  0  0  0  0  0  0
  -20.6812  -25.2923   20.9770 C   0  0  0  0  0  0  0  0  0  0  0  0
  -20.6514  -27.6407   21.9727 C   0  0  0  0  0  0  0  0  0  0  0  0
  -19.4275  -11.4369   22.8496 C   0  0  0  0  0  0  0  0  0  0  0  0
  -24.5498  -16.1084   20.4371 C   0  0  0  0  0  0  0  0  0  0  0  0
  -20.1595  -12.6396   22.8521 C   0  0  0  0  0  0  0  0  0  0  0  0
  -25.7547  -16.0533   21.1522 C   0  0  0  0  0  0  0  0  0  0  0  0
  -19.6419  -22.7392   20.5478 C   0  0  0  0  0  0  0  0  0  0  0  0
  -25.7446  -18.4777   21.3320 C   0  0  0  0  0  0  0  0  0  0  0  0
  -18.6367  -20.8091   21.4348 C   0  0  0  0  0  0  0  0  0  0  0  0
  -17.6318  -19.4339   23.6442 C   0  0  0  0  0  0  0  0  0  0  0  0
  -19.1901  -19.5831   21.8039 C   0  0  0  0  0  0  0  0  0  0  0  0
  -21.2187  -26.6106   21.1990 C   0  0  0  0  0  0  0  0  0  0  0  0
  -28.2375  -24.1526   20.4604 C   0  0  0  0  0  0  0  0  0  0  0  0
  -29.1714  -25.9377   21.5427 C   0  0  0  0  0  0  0  0  0  0  0  0
  -30.2773  -25.8543   20.7256 C   0  0  0  0  0  0  0  0  0  0  0  0
  -21.5415  -28.6812   21.8648 C   0  0  0  0  0  0  0  0  0  0  0  0
  -19.4292  -27.6558   22.7222 C   0  0  0  0  0  0  0  0  0  0  0  0
  -23.6576  -13.5185   22.0495 C   0  0  0  0  0  0  0  0  0  0  0  0
  -26.4123  -12.2979   20.8478 C   0  0  0  0  0  0  0  0  0  0  0  0
  -29.5314  -12.8764   19.5897 C   0  0  0  0  0  0  0  0  0  0  0  0
  -27.4515  -28.5846   20.1710 C   0  0  0  0  0  0  0  0  0  0  0  0
  -20.0442  -10.1320   23.2874 C   0  0  0  0  0  0  0  0  0  0  0  0
  -23.9112  -14.8477   19.9223 C   0  0  0  0  0  0  0  0  0  0  0  0
  -26.4350  -14.7453   21.4601 C   0  0  0  0  0  0  0  0  0  0  0  0
  -21.5705  -10.1523   23.2965 C   0  0  0  0  0  0  0  0  0  0  0  0
  -24.3112  -29.2459   18.1365 C   0  0  0  0  0  0  0  0  0  0  0  0
  -22.0835  -11.4197   23.9729 C   0  0  0  0  0  0  0  0  0  0  0  0
  -23.5740  -29.8239   19.3425 C   0  0  0  0  0  0  0  0  0  0  0  0
  -25.8034  -29.0746   18.4158 C   0  0  0  0  0  0  0  0  0  0  0  0
  -24.9924  -28.0387   20.5143 C   0  0  0  0  0  0  0  0  0  0  0  0
  -21.6284  -12.6725   23.2147 C   0  0  1  0  0  0  0  0  0  0  0  0
  -24.3244  -13.6056   20.7059 C   0  0  1  0  0  0  0  0  0  0  0  0
  -23.7886  -28.9907   20.6269 C   0  0  2  0  0  0  0  0  0  0  0  0
  -31.5624  -11.6787   18.7306 C   0  0  0  0  0  0  0  0  0  0  0  0
  -25.7206  -23.8397   20.7157 C   0  0  0  0  0  0  0  0  0  0  0  0
  -26.8444  -22.8515   18.7791 C   0  0  0  0  0  0  0  0  0  0  0  0
  -30.1883  -26.9376   23.7020 C   0  0  0  0  0  0  0  0  0  0  0  0
  -27.7288  -26.8156   23.3989 C   0  0  0  0  0  0  0  0  0  0  0  0
  -27.1933  -11.5761   23.7077 C   0  0  0  0  0  0  0  0  0  0  0  0
  -29.5492  -11.2776   22.9149 C   0  0  0  0  0  0  0  0  0  0  0  0
  -27.7357   -9.8265   22.0050 C   0  0  0  0  0  0  0  0  0  0  0  0
  -28.5986  -21.0765   20.6792 C   0  0  0  0  0  0  0  0  0  0  0  0
  -27.4870  -22.0826   22.6557 C   0  0  0  0  0  0  0  0  0  0  0  0
  -27.0031  -29.7395   22.3731 C   0  0  0  0  0  0  0  0  0  0  0  0
  -29.2951  -14.1441   16.9258 C   0  0  0  0  0  0  0  0  0  0  0  0
  -29.0677  -28.4377   22.0239 C   0  0  0  0  0  0  0  0  0  0  0  0
  -26.1215  -20.8003   20.9866 C   0  0  0  0  0  0  0  0  0  1  0  0
  -27.8505  -12.2530   21.3044 C   0  0  1  0  0  0  0  0  0  0  0  0
  -30.2394  -12.3319   18.3622 C   0  0  2  0  0  0  0  0  0  0  0  0
  -27.0579  -23.1544   20.2950 C   0  0  0  0  0  0  0  0  0  0  0  0
  -29.0669  -26.9777   22.6053 C   0  0  0  0  0  0  0  0  0  0  0  0
  -31.4208  -26.8002   20.8663 C   0  0  0  0  0  0  0  0  0  0  0  0
  -28.0686  -11.2580   22.4790 C   0  0  0  0  0  0  0  0  0  0  0  0
  -27.3059  -21.8023   21.1400 C   0  0  0  0  0  0  0  0  0  0  0  0
  -30.3829  -24.9192   19.7609 N   0  0  0  0  0  0  0  0  0  0  0  0
  -22.3792  -26.9645   20.6405 N   0  0  0  0  0  0  0  0  0  0  0  0
  -28.1318  -25.0881   21.4249 N   0  0  0  0  0  0  0  0  0  0  0  0
  -22.5484  -28.2287   21.0638 N   0  0  0  0  0  0  0  0  0  0  0  0
  -25.7683  -13.5398   20.9407 N   0  0  0  0  0  0  0  0  0  0  0  0
  -26.1022  -28.6675   19.7898 N   0  0  0  0  0  0  0  0  0  0  0  0
  -21.5532  -29.9299   22.3777 N   0  0  0  0  0  0  0  0  0  0  0  0
  -18.6334  -26.5021   22.7258 N   0  0  0  0  0  0  0  0  0  0  0  0
  -22.4380  -12.8691   22.0313 N   0  0  0  0  0  0  0  0  0  0  0  0
  -28.6466  -11.9600   20.1175 N   0  0  0  0  0  0  0  0  0  0  0  0
  -27.7639  -28.8373   21.5133 N   0  0  0  0  0  0  0  0  0  0  0  0
  -30.5115  -13.4296   17.3916 N   0  3  0  0  0  0  0  0  0  0  0  0
  -19.0458  -28.6680   23.3561 O   0  0  0  0  0  0  0  0  0  0  0  0
  -24.2094  -14.0032   23.0304 O   0  0  0  0  0  0  0  0  0  0  0  0
  -25.8820  -11.2705   20.4177 O   0  0  0  0  0  0  0  0  0  0  0  0
  -29.7449  -14.0007   20.0379 O   0  0  0  0  0  0  0  0  0  0  0  0
  -28.3331  -28.2995   19.3493 O   0  0  0  0  0  0  0  0  0  0  0  0
  -19.1349  -21.4935   20.3388 O   0  0  0  0  0  0  0  0  0  0  0  0
  -26.3257  -19.6267   21.7724 O   0  0  0  0  0  0  0  0  0  1  0  0
  -17.1503  -18.7743   24.7059 F   0  0  0  0  0  0  0  0  0  0  0  0
  -20.2053  -19.0615   21.1018 F   0  0  0  0  0  0  0  0  0  0  0  0
  -31.2505  -27.7222   21.8602 F   0  0  0  0  0  0  0  0  0  0  0  0
  -32.6075  -26.1861   21.1510 F   0  0  0  0  0  0  0  0  0  0  0  0
  -31.6471  -27.5243   19.7313 F   0  0  0  0  0  0  0  0  0  0  0  0
  1  2  1  0  0  0  0
  1  5  2  0  0  0  0
  2  6  2  0  0  0  0
  3  8  2  0  0  0  0
  3 16  1  0  0  0  0
  4  9  1  0  0  0  0
  4 16  2  0  0  0  0
  5 18  1  0  0  0  0
  6 20  1  0  0  0  0
  7 10  2  0  0  0  0
  7 19  1  0  0  0  0
  8 22  1  0  0  0  0
  9 22  2  0  0  0  0
 10 23  1  0  0  0  0
 11 12  2  0  0  0  0
 11 24  1  0  0  0  0
 12 25  1  0  0  0  0
 13 21  1  0  0  0  0
 13 23  2  0  0  0  0
 14 25  2  0  0  0  0
 14 26  1  0  0  0  0
 15 28  1  0  0  0  0
 15 70  2  0  0  0  0
 16 27  1  0  0  0  0
 17 27  1  0  0  0  0
 17 31  2  0  0  0  0
 17 32  1  0  0  0  0
 18 20  2  0  0  0  0
 18 37  1  0  0  0  0
 19 21  2  0  0  0  0
 19 38  1  0  0  0  0
 20 46  1  0  0  0  0
 21 39  1  0  0  0  0
 22 87  1  0  0  0  0
 23 88  1  0  0  0  0
 24 26  2  0  0  0  0
 24 87  1  0  0  0  0
 25 89  1  0  0  0  0
 26 90  1  0  0  0  0
 27 71  2  0  0  0  0
 28 65  1  0  0  0  0
 28 72  2  0  0  0  0
 29 30  2  0  0  0  0
 29 66  1  0  0  0  0
 29 72  1  0  0  0  0
 30 67  1  0  0  0  0
 30 70  1  0  0  0  0
 31 73  1  0  0  0  0
 31 76  1  0  0  0  0
 32 77  1  0  0  0  0
 32 82  2  0  0  0  0
 33 47  1  0  0  0  0
 33 78  1  0  0  0  0
 33 83  2  0  0  0  0
 34 63  1  0  0  0  0
 34 74  1  0  0  0  0
 34 84  2  0  0  0  0
 35 64  1  0  0  0  0
 35 79  1  0  0  0  0
 35 85  2  0  0  0  0
 36 75  1  0  0  0  0
 36 80  1  0  0  0  0
 36 86  2  0  0  0  0
 37 40  1  0  0  0  0
 38 47  1  0  0  0  0
 39 74  1  0  0  0  0
 40 42  1  0  0  0  0
 41 43  1  0  0  0  0
 41 44  1  0  0  0  0
 42 46  1  0  0  0  0
 43 48  1  0  0  0  0
 44 75  1  0  0  0  0
 45 48  1  0  0  0  0
 45 75  1  0  0  0  0
 46 78  1  0  0  0  0
 47 74  1  0  0  0  0
 48 73  1  0  0  0  0
 49 64  1  0  0  0  0
 50 65  1  0  0  0  0
 51 65  1  0  0  0  0
 52 66  1  0  0  0  0
 53 66  1  0  0  0  0
 54 68  1  0  0  0  0
 55 68  1  0  0  0  0
 56 68  1  0  0  0  0
 57 69  1  0  0  0  0
 58 69  1  0  0  0  0
 59 80  1  0  0  0  0
 60 81  1  0  0  0  0
 61 66  1  0  0  0  0
 61 80  1  0  0  0  0
 62 69  1  0  0  0  0
 62 88  1  0  0  0  0
 63 68  1  0  0  0  0
 63 79  1  0  0  0  0
 64 81  1  0  0  0  0
 65 69  1  0  0  0  0
 67 91  1  0  0  0  0
 67 92  1  0  0  0  0
 67 93  1  0  0  0  0
 71 73  1  0  0  0  0
M  CHG  1  81   1
M  ISO  4  36 100  62 101  80 100  88 101
M  END
> <Batch ID>
0064

> <Smiles>
CNC(C)C(=O)NC(C(=O)N1Cc2cc([101O:1][101CH2:1]C(C)(C)C(C)(C)c3cnc(C(F)(F)F)c(C(C)(C)C[100N:0](C)[100C:0](=O)N4CCCC(n5nc(-c6ccc(Oc7ccc(F)cc7F)cc6)c(C(N)=O)c5N)C4)n3)ccc2CC1C(=O)NC1CCCc2ccccc21)C(C)(C)C

> <Shape>
0.236

> <Color>
0.059

> <Negative vol penalty>
0.000

$$$$

  -OEChem-04052318053D

 90 98  0     1  0  0  0  0  0999 V2000
  -31.2352  -20.1786   21.3198 C   0  0  0  0  0  0  0  0  0  0  0  0
  -29.9876  -20.1851   21.9333 C   0  0  0  0  0  0  0  0  0  0  0  0
  -29.8965  -27.7377   22.1037 C   0  0  0  0  0  0  0  0  0  0  0  0
  -28.2244  -27.8121   20.3614 C   0  0  0  0  0  0  0  0  0  0  0  0
  -31.4852  -19.3016   20.2665 C   0  0  0  0  0  0  0  0  0  0  0  0
  -28.9935  -19.3064   21.5016 C   0  0  0  0  0  0  0  0  0  0  0  0
  -24.8518  -19.1414   24.1516 C   0  0  0  0  0  0  0  0  0  0  0  0
  -30.6149  -26.7908   21.3739 C   0  0  0  0  0  0  0  0  0  0  0  0
  -28.9429  -26.8652   19.6315 C   0  0  0  0  0  0  0  0  0  0  0  0
  -23.9133  -20.1725   24.1483 C   0  0  0  0  0  0  0  0  0  0  0  0
  -29.4020  -23.5157   19.6679 C   0  0  0  0  0  0  0  0  0  0  0  0
  -28.6899  -22.4610   19.0969 C   0  0  0  0  0  0  0  0  0  0  0  0
  -22.4894  -18.8638   22.7064 C   0  0  0  0  0  0  0  0  0  0  0  0
  -29.4380  -23.1436   16.9033 C   0  0  0  0  0  0  0  0  0  0  0  0
  -28.7012  -28.2484   21.5975 C   0  0  0  0  0  0  0  0  0  0  0  0
  -28.0874  -30.6265   22.2869 C   0  0  0  0  0  0  0  0  0  0  0  0
  -30.4890  -18.4207   19.8141 C   0  0  0  0  0  0  0  0  0  0  0  0
  -24.6206  -17.9663   23.4222 C   0  0  0  0  0  0  0  0  0  0  0  0
  -29.2340  -18.3970   20.4558 C   0  0  0  0  0  0  0  0  0  0  0  0
  -23.4254  -17.8183   22.7041 C   0  0  0  0  0  0  0  0  0  0  0  0
  -30.1382  -26.3545   20.1377 C   0  0  0  0  0  0  0  0  0  0  0  0
  -22.7332  -20.0350   23.4233 C   0  0  0  0  0  0  0  0  0  0  0  0
  -30.1320  -24.3845   18.8566 C   0  0  0  0  0  0  0  0  0  0  0  0
  -28.7079  -22.2749   17.7146 C   0  0  0  0  0  0  0  0  0  0  0  0
  -30.1500  -24.1984   17.4744 C   0  0  0  0  0  0  0  0  0  0  0  0
  -27.9583  -29.2262   22.3512 C   0  0  0  0  0  0  0  0  0  0  0  0
  -27.1661  -31.0981   23.1899 C   0  0  0  0  0  0  0  0  0  0  0  0
  -19.8630  -27.7581   22.9238 C   0  0  0  0  0  0  0  0  0  0  0  0
  -18.8560  -25.9048   22.4138 C   0  0  0  0  0  0  0  0  0  0  0  0
  -28.9617  -31.4293   21.4827 C   0  0  0  0  0  0  0  0  0  0  0  0
  -26.0721  -16.5078   20.9994 C   0  0  0  0  0  0  0  0  0  0  0  0
  -23.8863  -14.1866   21.5967 C   0  0  0  0  0  0  0  0  0  0  0  0
  -20.8474  -13.3333   22.8943 C   0  0  0  0  0  0  0  0  0  0  0  0
  -22.0883  -28.8218   25.4001 C   0  0  0  0  0  0  0  0  0  0  0  0
  -30.8161  -17.4872   18.6753 C   0  0  0  0  0  0  0  0  0  0  0  0
  -25.6308  -16.8525   23.4576 C   0  0  0  0  0  0  0  0  0  0  0  0
  -23.1202  -16.5684   21.9210 C   0  0  0  0  0  0  0  0  0  0  0  0
  -29.5739  -16.9131   18.0017 C   0  0  0  0  0  0  0  0  0  0  0  0
  -24.9400  -29.8854   27.2475 C   0  0  0  0  0  0  0  0  0  0  0  0
  -28.6230  -16.3580   19.0516 C   0  0  0  0  0  0  0  0  0  0  0  0
  -26.0486  -29.9634   26.1964 C   0  0  0  0  0  0  0  0  0  0  0  0
  -23.9917  -28.7182   26.9821 C   0  0  0  0  0  0  0  0  0  0  0  0
  -24.5200  -28.7658   24.5753 C   0  0  0  0  0  0  0  0  0  0  0  0
  -28.1275  -17.4715   19.9830 C   0  0  1  0  0  0  0  0  0  0  0  0
  -25.5225  -15.9094   22.2634 C   0  0  1  0  0  0  0  0  0  0  0  0
  -25.4690  -29.9608   24.7690 C   0  0  2  0  0  0  0  0  0  0  0  0
  -19.3030  -26.3652   25.8038 C   0  0  0  0  0  0  0  0  0  0  0  0
  -19.3180  -11.3674   23.2007 C   0  0  0  0  0  0  0  0  0  0  0  0
  -16.4631  -24.9937   22.7824 C   0  0  0  0  0  0  0  0  0  0  0  0
  -18.0127  -23.8850   21.1976 C   0  0  0  0  0  0  0  0  0  0  0  0
  -20.4947  -31.4754   24.0174 C   0  0  0  0  0  0  0  0  0  0  0  0
  -18.4298  -30.5855   22.9202 C   0  0  0  0  0  0  0  0  0  0  0  0
  -20.6109  -30.5583   21.7056 C   0  0  0  0  0  0  0  0  0  0  0  0
  -23.1058  -14.3377   18.6509 C   0  0  0  0  0  0  0  0  0  0  0  0
  -21.0057  -13.0972   19.2156 C   0  0  0  0  0  0  0  0  0  0  0  0
  -23.2254  -12.0192   19.5808 C   0  0  0  0  0  0  0  0  0  0  0  0
  -20.9365  -13.5759   25.8425 C   0  0  0  0  0  0  0  0  0  0  0  0
  -19.9032  -23.2270   23.5268 C   0  0  0  0  0  0  0  0  0  0  0  0
  -20.3219  -22.3826   24.7308 C   0  0  0  0  0  0  0  0  0  0  0  0
  -18.4523  -23.7100   23.6701 C   0  0  0  0  0  0  0  0  0  0  0  0
  -18.3592  -26.8159   24.7022 C   0  0  0  0  0  0  0  0  0  0  0  0
  -21.7441  -21.8603   24.5835 C   0  0  0  0  0  0  0  0  0  1  0  0
  -20.2899  -28.9398   23.6939 C   0  0  2  0  0  0  0  0  0  0  0  0
  -22.4868  -13.8868   21.1166 C   0  0  1  0  0  0  0  0  0  0  0  0
  -20.4277  -12.2042   23.8181 C   0  0  2  0  0  0  0  0  0  0  0  0
  -17.9549  -24.6624   22.5368 C   0  0  0  0  0  0  0  0  0  0  0  0
  -19.9458  -30.3708   23.0896 C   0  0  0  0  0  0  0  0  0  0  0  0
  -22.4623  -13.3597   19.6540 C   0  0  0  0  0  0  0  0  0  0  0  0
  -27.0284  -28.8337   23.2261 N   0  0  0  0  0  0  0  0  0  0  0  0
  -20.2331  -27.4298   21.7066 N   0  0  0  0  0  0  0  0  0  0  0  0
  -19.5924  -26.2506   21.3821 N   0  0  0  0  0  0  0  0  0  0  0  0
  -26.5649  -29.9945   23.7198 N   0  0  0  0  0  0  0  0  0  0  0  0
  -18.9961  -26.8257   23.4073 N   0  0  0  0  0  0  0  0  0  0  0  0
  -24.1421  -15.5103   21.9818 N   0  0  0  0  0  0  0  0  0  0  0  0
  -23.4760  -28.7752   25.6121 N   0  0  0  0  0  0  0  0  0  0  0  0
  -26.8199  -32.3450   23.5744 N   0  0  0  0  0  0  0  0  0  0  0  0
  -29.8458  -30.7832   20.6078 N   0  0  0  0  0  0  0  0  0  0  0  0
  -27.4008  -16.8779   21.0836 N   0  0  0  0  0  0  0  0  0  0  0  0
  -21.9083  -12.9693   22.0922 N   0  0  0  0  0  0  0  0  0  0  0  0
  -21.6843  -28.8808   24.0719 N   0  0  0  0  0  0  0  0  0  0  0  0
  -19.9379  -12.7510   25.1150 N   0  3  0  0  0  0  0  0  0  0  0  0
  -28.9707  -32.6818   21.5502 O   0  0  0  0  0  0  0  0  0  0  0  0
  -25.3449  -16.6237   20.0199 O   0  0  0  0  0  0  0  0  0  0  0  0
  -24.7199  -13.2781   21.6357 O   0  0  0  0  0  0  0  0  0  0  0  0
  -20.2876  -14.4273   22.8825 O   0  0  0  0  0  0  0  0  0  0  0  0
  -21.2700  -28.8170   26.3261 O   0  0  0  0  0  0  0  0  0  0  0  0
  -30.8391  -25.4307   19.4252 O   0  0  0  0  0  0  0  0  0  0  0  0
  -21.8159  -21.0401   23.4179 O   0  0  0  0  0  0  0  0  0  1  0  0
  -28.0253  -21.2611   17.1665 F   0  0  0  0  0  0  0  0  0  0  0  0
  -30.8505  -25.0290   16.6900 F   0  0  0  0  0  0  0  0  0  0  0  0
  1  2  1  0  0  0  0
  1  5  2  0  0  0  0
  2  6  2  0  0  0  0
  3  8  2  0  0  0  0
  3 15  1  0  0  0  0
  4  9  1  0  0  0  0
  4 15  2  0  0  0  0
  5 17  1  0  0  0  0
  6 19  1  0  0  0  0
  7 10  2  0  0  0  0
  7 18  1  0  0  0  0
  8 21  1  0  0  0  0
  9 21  2  0  0  0  0
 10 22  1  0  0  0  0
 11 12  2  0  0  0  0
 11 23  1  0  0  0  0
 12 24  1  0  0  0  0
 13 20  1  0  0  0  0
 13 22  2  0  0  0  0
 14 24  2  0  0  0  0
 14 25  1  0  0  0  0
 15 26  1  0  0  0  0
 16 26  1  0  0  0  0
 16 27  2  0  0  0  0
 16 30  1  0  0  0  0
 17 19  2  0  0  0  0
 17 35  1  0  0  0  0
 18 20  2  0  0  0  0
 18 36  1  0  0  0  0
 19 44  1  0  0  0  0
 20 37  1  0  0  0  0
 21 87  1  0  0  0  0
 22 88  1  0  0  0  0
 23 25  2  0  0  0  0
 23 87  1  0  0  0  0
 24 89  1  0  0  0  0
 25 90  1  0  0  0  0
 26 69  2  0  0  0  0
 27 72  1  0  0  0  0
 27 76  1  0  0  0  0
 28 63  1  0  0  0  0
 28 70  2  0  0  0  0
 28 73  1  0  0  0  0
 29 66  1  0  0  0  0
 29 71  2  0  0  0  0
 29 73  1  0  0  0  0
 30 77  1  0  0  0  0
 30 82  2  0  0  0  0
 31 45  1  0  0  0  0
 31 78  1  0  0  0  0
 31 83  2  0  0  0  0
 32 64  1  0  0  0  0
 32 74  1  0  0  0  0
 32 84  2  0  0  0  0
 33 65  1  0  0  0  0
 33 79  1  0  0  0  0
 33 85  2  0  0  0  0
 34 75  1  0  0  0  0
 34 80  1  0  0  0  0
 34 86  2  0  0  0  0
 35 38  1  0  0  0  0
 36 45  1  0  0  0  0
 37 74  1  0  0  0  0
 38 40  1  0  0  0  0
 39 41  1  0  0  0  0
 39 42  1  0  0  0  0
 40 44  1  0  0  0  0
 41 46  1  0  0  0  0
 42 75  1  0  0  0  0
 43 46  1  0  0  0  0
 43 75  1  0  0  0  0
 44 78  1  0  0  0  0
 45 74  1  0  0  0  0
 46 72  1  0  0  0  0
 47 61  1  0  0  0  0
 48 65  1  0  0  0  0
 49 66  1  0  0  0  0
 50 66  1  0  0  0  0
 51 67  1  0  0  0  0
 52 67  1  0  0  0  0
 53 67  1  0  0  0  0
 54 68  1  0  0  0  0
 55 68  1  0  0  0  0
 56 68  1  0  0  0  0
 57 81  1  0  0  0  0
 58 59  1  0  0  0  0
 58 60  1  0  0  0  0
 59 62  1  0  0  0  0
 60 66  1  0  0  0  0
 61 73  1  0  0  0  0
 62 88  1  0  0  0  0
 63 67  1  0  0  0  0
 63 80  1  0  0  0  0
 64 68  1  0  0  0  0
 64 79  1  0  0  0  0
 65 81  1  0  0  0  0
 69 72  1  0  0  0  0
 70 71  1  0  0  0  0
M  CHG  1  81   1
M  ISO  4  34 100  62 101  80 100  88 101
M  END
> <Batch ID>
0064

> <Smiles>
CCn1c(C([100NH:0][100C:0](=O)N2CCCC(n3nc(-c4ccc(Oc5ccc(F)cc5F)cc4)c(C(N)=O)c3N)C2)C(C)(C)C)nnc1C(C)(C)CCC[101CH2:1][101O:1]c1ccc2c(c1)CN(C(=O)C(NC(=O)C(C)NC)C(C)(C)C)C(C(=O)NC1CCCc3ccccc31)C2

> <Shape>
0.235

> <Color>
0.046

> <Negative vol penalty>
0.000

$$$$

  -OEChem-04052318053D

 89 97  0     1  0  0  0  0  0999 V2000
  -26.7005  -31.9565   27.6733 C   0  0  0  0  0  0  0  0  0  0  0  0
  -27.5614  -31.0933   27.0031 C   0  0  0  0  0  0  0  0  0  0  0  0
  -23.3588   -9.7239   20.2214 C   0  0  0  0  0  0  0  0  0  0  0  0
  -23.7572  -10.1747   22.5613 C   0  0  0  0  0  0  0  0  0  0  0  0
  -25.3272  -31.7160   27.6637 C   0  0  0  0  0  0  0  0  0  0  0  0
  -27.0494  -29.9884   26.3237 C   0  0  0  0  0  0  0  0  0  0  0  0
  -29.1771  -27.5549   21.1220 C   0  0  0  0  0  0  0  0  0  0  0  0
  -22.6513   -8.5717   20.5638 C   0  0  0  0  0  0  0  0  0  0  0  0
  -23.0496   -9.0224   22.9037 C   0  0  0  0  0  0  0  0  0  0  0  0
  -30.0037  -26.4615   20.8673 C   0  0  0  0  0  0  0  0  0  0  0  0
  -19.8171   -8.0753   23.1763 C   0  0  0  0  0  0  0  0  0  0  0  0
  -18.8933   -8.1692   24.2171 C   0  0  0  0  0  0  0  0  0  0  0  0
  -28.0579  -25.0830   20.5031 C   0  0  0  0  0  0  0  0  0  0  0  0
  -20.1140   -6.4893   25.4521 C   0  0  0  0  0  0  0  0  0  0  0  0
  -23.9119  -10.5254   21.2201 C   0  0  0  0  0  0  0  0  0  0  0  0
  -24.1260  -13.0147   20.7051 C   0  0  0  0  0  0  0  0  0  0  0  0
  -24.7973  -30.6130   26.9758 C   0  0  0  0  0  0  0  0  0  0  0  0
  -27.7821  -27.4178   21.0798 C   0  0  0  0  0  0  0  0  0  0  0  0
  -25.6679  -29.7322   26.3060 C   0  0  0  0  0  0  0  0  0  0  0  0
  -27.2158  -26.1768   20.7551 C   0  0  0  0  0  0  0  0  0  0  0  0
  -31.1161  -18.2121   22.1145 C   0  0  0  0  0  0  0  0  0  0  0  0
  -22.4966   -8.2209   21.9049 C   0  0  0  0  0  0  0  0  0  0  0  0
  -29.4441  -25.2246   20.5607 C   0  0  0  0  0  0  0  0  0  0  0  0
  -20.8893   -7.1883   23.2733 C   0  0  0  0  0  0  0  0  0  0  0  0
  -19.0418   -7.3762   25.3551 C   0  0  0  0  0  0  0  0  0  0  0  0
  -21.0378   -6.3953   24.4112 C   0  0  0  0  0  0  0  0  0  0  0  0
  -24.6434  -11.7155   20.8671 C   0  0  0  0  0  0  0  0  0  0  0  0
  -30.9712  -17.7315   23.3999 C   0  0  0  0  0  0  0  0  0  0  0  0
  -30.8288  -17.3153   21.1059 C   0  0  0  0  0  0  0  0  0  0  0  0
  -25.2172  -13.7799   20.3728 C   0  0  0  0  0  0  0  0  0  0  0  0
  -30.3262  -15.6961   22.6201 C   0  0  0  0  0  0  0  0  0  0  0  0
  -22.7795  -13.4876   20.8428 C   0  0  0  0  0  0  0  0  0  0  0  0
  -25.4295  -27.7616   23.1894 C   0  0  0  0  0  0  0  0  0  0  0  0
  -23.5518  -27.2618   20.5920 C   0  0  0  0  0  0  0  0  0  0  0  0
  -23.2317  -25.9501   17.4576 C   0  0  0  0  0  0  0  0  0  0  0  0
  -31.1386  -12.6414   21.4584 C   0  0  0  0  0  0  0  0  0  0  0  0
  -23.3103  -30.3676   27.0333 C   0  0  0  0  0  0  0  0  0  0  0  0
  -26.9046  -28.6133   21.3308 C   0  0  0  0  0  0  0  0  0  0  0  0
  -25.7244  -25.9818   20.6771 C   0  0  0  0  0  0  0  0  0  0  0  0
  -22.8139  -29.3844   25.9764 C   0  0  0  0  0  0  0  0  0  0  0  0
  -29.4932  -13.5060   18.2573 C   0  0  0  0  0  0  0  0  0  0  0  0
  -23.7152  -28.1548   25.9260 C   0  0  0  0  0  0  0  0  0  0  0  0
  -28.0268  -13.1830   18.5387 C   0  0  0  0  0  0  0  0  0  0  0  0
  -30.4344  -12.6436   19.0929 C   0  0  0  0  0  0  0  0  0  0  0  0
  -28.7015  -12.3816   20.8372 C   0  0  0  0  0  0  0  0  0  0  0  0
  -25.1484  -28.5368   25.5370 C   0  0  1  0  0  0  0  0  0  0  0  0
  -25.4915  -28.2366   21.7653 C   0  0  1  0  0  0  0  0  0  0  0  0
  -27.7262  -13.2655   20.0454 C   0  0  2  0  0  0  0  0  0  0  0  0
  -31.3464  -17.8262   25.8772 C   0  0  0  0  0  0  0  0  0  0  0  0
  -21.5665  -25.6655   15.6020 C   0  0  0  0  0  0  0  0  0  0  0  0
  -22.1806  -25.0371   22.1669 C   0  0  0  0  0  0  0  0  0  0  0  0
  -21.2313  -24.1907   20.0104 C   0  0  0  0  0  0  0  0  0  0  0  0
  -20.6330  -26.4715   20.8245 C   0  0  0  0  0  0  0  0  0  0  0  0
  -32.0014  -13.2954   23.6737 C   0  0  0  0  0  0  0  0  0  0  0  0
  -24.8967  -27.5053   15.5687 C   0  0  0  0  0  0  0  0  0  0  0  0
  -31.5580  -19.6258   21.8311 C   0  0  0  0  0  0  0  0  0  0  0  0
  -31.2539  -18.6120   24.5727 C   0  0  0  0  0  0  0  0  0  0  0  0
  -29.8849  -14.2998   22.9008 C   0  0  0  0  0  0  0  0  0  0  0  0
  -30.4196  -20.5545   21.3943 C   0  0  0  0  0  0  0  0  0  0  0  0
  -30.8989  -21.9622   21.0374 C   0  0  0  0  0  0  0  0  0  0  0  0
  -29.7373  -22.8661   20.6472 C   0  0  0  0  0  0  0  0  0  1  0  0
  -22.9560  -26.0477   19.9212 C   0  0  1  0  0  0  0  0  0  0  0  0
  -22.6753  -26.5361   16.1725 C   0  0  2  0  0  0  0  0  0  0  0  0
  -30.9507  -17.7218   19.6741 C   0  0  0  0  0  0  0  0  0  0  0  0
  -21.7783  -25.4396   20.7340 C   0  0  0  0  0  0  0  0  0  0  0  0
  -25.9607  -11.6550   20.6550 N   0  0  0  0  0  0  0  0  0  0  0  0
  -30.5767  -16.4744   23.6901 N   0  0  0  0  0  0  0  0  0  0  0  0
  -30.4299  -16.0449   21.3235 N   0  0  0  0  0  0  0  0  0  0  0  0
  -26.2803  -12.9257   20.3562 N   0  0  0  0  0  0  0  0  0  0  0  0
  -24.9083  -27.1794   20.9368 N   0  0  0  0  0  0  0  0  0  0  0  0
  -30.0993  -12.7066   20.5159 N   0  0  0  0  0  0  0  0  0  0  0  0
  -25.3613  -15.0933   20.0960 N   0  0  0  0  0  0  0  0  0  0  0  0
  -21.7804  -12.5678   21.1893 N   0  0  0  0  0  0  0  0  0  0  0  0
  -25.2395  -28.7727   24.1120 N   0  0  0  0  0  0  0  0  0  0  0  0
  -22.5974  -26.4630   18.5694 N   0  0  0  0  0  0  0  0  0  0  0  0
  -30.9476  -13.3238   22.6694 N   0  0  0  0  0  0  0  0  0  0  0  0
  -23.7521  -26.6563   15.1493 N   0  3  0  0  0  0  0  0  0  0  0  0
  -22.4687  -14.6872   20.6478 O   0  0  0  0  0  0  0  0  0  0  0  0
  -25.5439  -26.5661   23.4331 O   0  0  0  0  0  0  0  0  0  0  0  0
  -22.8417  -28.2496   20.7958 O   0  0  0  0  0  0  0  0  0  0  0  0
  -24.1358  -25.1178   17.4735 O   0  0  0  0  0  0  0  0  0  0  0  0
  -32.1820  -12.0173   21.2266 O   0  0  0  0  0  0  0  0  0  0  0  0
  -21.8060   -7.0968   22.2394 O   0  0  0  0  0  0  0  0  0  0  0  0
  -30.2487  -24.1556   20.3123 O   0  0  0  0  0  0  0  0  0  1  0  0
  -18.1554   -7.4676   26.3552 F   0  0  0  0  0  0  0  0  0  0  0  0
  -22.0665   -5.5423   24.5106 F   0  0  0  0  0  0  0  0  0  0  0  0
  -31.3578  -19.0142   19.5067 F   0  0  0  0  0  0  0  0  0  0  0  0
  -31.8462  -16.9706   18.9689 F   0  0  0  0  0  0  0  0  0  0  0  0
  -29.7704  -17.6177   18.9983 F   0  0  0  0  0  0  0  0  0  0  0  0
  1  2  1  0  0  0  0
  1  5  2  0  0  0  0
  2  6  2  0  0  0  0
  3  8  2  0  0  0  0
  3 15  1  0  0  0  0
  4  9  1  0  0  0  0
  4 15  2  0  0  0  0
  5 17  1  0  0  0  0
  6 19  1  0  0  0  0
  7 10  2  0  0  0  0
  7 18  1  0  0  0  0
  8 22  1  0  0  0  0
  9 22  2  0  0  0  0
 10 23  1  0  0  0  0
 11 12  2  0  0  0  0
 11 24  1  0  0  0  0
 12 25  1  0  0  0  0
 13 20  1  0  0  0  0
 13 23  2  0  0  0  0
 14 25  2  0  0  0  0
 14 26  1  0  0  0  0
 15 27  1  0  0  0  0
 16 27  1  0  0  0  0
 16 30  2  0  0  0  0
 16 32  1  0  0  0  0
 17 19  2  0  0  0  0
 17 37  1  0  0  0  0
 18 20  2  0  0  0  0
 18 38  1  0  0  0  0
 19 46  1  0  0  0  0
 20 39  1  0  0  0  0
 21 28  2  0  0  0  0
 21 29  1  0  0  0  0
 21 56  1  0  0  0  0
 22 83  1  0  0  0  0
 23 84  1  0  0  0  0
 24 26  2  0  0  0  0
 24 83  1  0  0  0  0
 25 85  1  0  0  0  0
 26 86  1  0  0  0  0
 27 66  2  0  0  0  0
 28 57  1  0  0  0  0
 28 67  1  0  0  0  0
 29 64  1  0  0  0  0
 29 68  2  0  0  0  0
 30 69  1  0  0  0  0
 30 72  1  0  0  0  0
 31 58  1  0  0  0  0
 31 67  2  0  0  0  0
 31 68  1  0  0  0  0
 32 73  1  0  0  0  0
 32 78  2  0  0  0  0
 33 47  1  0  0  0  0
 33 74  1  0  0  0  0
 33 79  2  0  0  0  0
 34 62  1  0  0  0  0
 34 70  1  0  0  0  0
 34 80  2  0  0  0  0
 35 63  1  0  0  0  0
 35 75  1  0  0  0  0
 35 81  2  0  0  0  0
 36 71  1  0  0  0  0
 36 76  1  0  0  0  0
 36 82  2  0  0  0  0
 37 40  1  0  0  0  0
 38 47  1  0  0  0  0
 39 70  1  0  0  0  0
 40 42  1  0  0  0  0
 41 43  1  0  0  0  0
 41 44  1  0  0  0  0
 42 46  1  0  0  0  0
 43 48  1  0  0  0  0
 44 71  1  0  0  0  0
 45 48  1  0  0  0  0
 45 71  1  0  0  0  0
 46 74  1  0  0  0  0
 47 70  1  0  0  0  0
 48 69  1  0  0  0  0
 49 57  1  0  0  0  0
 50 63  1  0  0  0  0
 51 65  1  0  0  0  0
 52 65  1  0  0  0  0
 53 65  1  0  0  0  0
 54 76  1  0  0  0  0
 55 77  1  0  0  0  0
 56 59  1  0  0  0  0
 58 76  1  0  0  0  0
 59 60  1  0  0  0  0
 60 61  1  0  0  0  0
 61 84  1  0  0  0  0
 62 65  1  0  0  0  0
 62 75  1  0  0  0  0
 63 77  1  0  0  0  0
 64 87  1  0  0  0  0
 64 88  1  0  0  0  0
 64 89  1  0  0  0  0
 66 69  1  0  0  0  0
M  CHG  1  77   1
M  ISO  4  36 100  61 101  76 100  84 101
M  END
> <Batch ID>
0064

> <Smiles>
CCc1nc(C[100N:0](C)[100C:0](=O)N2CCCC(n3nc(-c4ccc(Oc5ccc(F)cc5F)cc4)c(C(N)=O)c3N)C2)nc(C(F)(F)F)c1CCC[101CH2:1][101O:1]c1ccc2c(c1)CN(C(=O)C(NC(=O)C(C)NC)C(C)(C)C)C(C(=O)NC1CCCc3ccccc31)C2

> <Shape>
0.278

> <Color>
0.161

> <Negative vol penalty>
0.000

$$$$

  -OEChem-04052318053D

 85 93  0     1  0  0  0  0  0999 V2000
  -16.9630  -28.3026   24.1230 C   0  0  0  0  0  0  0  0  0  0  0  0
  -17.7072  -27.2860   23.5328 C   0  0  0  0  0  0  0  0  0  0  0  0
  -26.7109  -12.9610   21.7783 C   0  0  0  0  0  0  0  0  0  0  0  0
  -25.9213  -14.4640   20.0594 C   0  0  0  0  0  0  0  0  0  0  0  0
  -17.2649  -29.6357   23.8480 C   0  0  0  0  0  0  0  0  0  0  0  0
  -18.7529  -27.6021   22.6662 C   0  0  0  0  0  0  0  0  0  0  0  0
  -22.9147  -24.8596   23.5626 C   0  0  0  0  0  0  0  0  0  0  0  0
  -25.4249  -12.4377   21.9116 C   0  0  0  0  0  0  0  0  0  0  0  0
  -24.6352  -13.9406   20.1927 C   0  0  0  0  0  0  0  0  0  0  0  0
  -22.9277  -23.5486   23.0885 C   0  0  0  0  0  0  0  0  0  0  0  0
  -23.4471  -10.2410   20.2698 C   0  0  0  0  0  0  0  0  0  0  0  0
  -23.3159   -8.8543   20.3429 C   0  0  0  0  0  0  0  0  0  0  0  0
  -24.2474  -24.2525   21.1958 C   0  0  0  0  0  0  0  0  0  0  0  0
  -22.2941   -9.0658   22.5220 C   0  0  0  0  0  0  0  0  0  0  0  0
  -26.5909  -20.3506   22.6817 C   0  0  0  0  0  0  0  0  0  0  0  0
  -26.9591  -13.9742   20.8523 C   0  0  0  0  0  0  0  0  0  0  0  0
  -29.3042  -14.0640   19.8522 C   0  0  0  0  0  0  0  0  0  0  0  0
  -18.3211  -29.9684   22.9852 C   0  0  0  0  0  0  0  0  0  0  0  0
  -23.5599  -25.8806   22.8500 C   0  0  0  0  0  0  0  0  0  0  0  0
  -19.0684  -28.9409   22.3784 C   0  0  0  0  0  0  0  0  0  0  0  0
  -24.2434  -25.5752   21.6644 C   0  0  0  0  0  0  0  0  0  0  0  0
  -25.7586  -19.9880   21.6423 C   0  0  0  0  0  0  0  0  0  0  0  0
  -24.3870  -12.9274   21.1188 C   0  0  0  0  0  0  0  0  0  0  0  0
  -23.5916  -23.2454   21.9034 C   0  0  0  0  0  0  0  0  0  0  0  0
  -23.0018  -11.0402   21.3228 C   0  0  0  0  0  0  0  0  0  0  0  0
  -22.7394   -8.2667   21.4690 C   0  0  0  0  0  0  0  0  0  0  0  0
  -22.4253  -10.4526   22.4489 C   0  0  0  0  0  0  0  0  0  0  0  0
  -28.2873  -14.5157   20.7146 C   0  0  0  0  0  0  0  0  0  0  0  0
  -26.3505  -19.9261   20.3973 C   0  0  0  0  0  0  0  0  0  0  0  0
  -30.3623  -14.9041   20.0995 C   0  0  0  0  0  0  0  0  0  0  0  0
  -28.3601  -20.5369   21.2666 C   0  0  0  0  0  0  0  0  0  0  0  0
  -29.2933  -12.9819   18.9117 C   0  0  0  0  0  0  0  0  0  0  0  0
  -22.6198  -28.5647   21.4303 C   0  0  0  0  0  0  0  0  0  0  0  0
  -25.8075  -29.0060   21.0230 C   0  0  0  0  0  0  0  0  0  0  0  0
  -30.6200  -20.4981   22.2795 C   0  0  0  0  0  0  0  0  0  0  0  0
  -28.9175  -27.6205   20.7886 C   0  0  0  0  0  0  0  0  0  0  0  0
  -18.5795  -31.4228   22.6814 C   0  0  0  0  0  0  0  0  0  0  0  0
  -23.5593  -27.2850   23.3887 C   0  0  0  0  0  0  0  0  0  0  0  0
  -24.9686  -26.6313   20.8725 C   0  0  0  0  0  0  0  0  0  0  0  0
  -19.9432  -31.6792   22.0449 C   0  0  0  0  0  0  0  0  0  0  0  0
  -32.2936  -17.5926   23.5433 C   0  0  0  0  0  0  0  0  0  0  0  0
  -20.2033  -30.6820   20.9203 C   0  0  0  0  0  0  0  0  0  0  0  0
  -31.5304  -16.4327   22.9052 C   0  0  0  0  0  0  0  0  0  0  0  0
  -31.3660  -18.7586   23.8707 C   0  0  0  0  0  0  0  0  0  0  0  0
  -29.8128  -18.0955   22.0625 C   0  0  0  0  0  0  0  0  0  0  0  0
  -20.2263  -29.2440   21.4524 C   0  0  1  0  0  0  0  0  0  0  0  0
  -23.8136  -28.3374   22.3140 C   0  0  1  0  0  0  0  0  0  0  0  0
  -30.7180  -16.9087   21.6879 C   0  0  2  0  0  0  0  0  0  0  0  0
  -26.4245  -19.2248   17.9912 C   0  0  0  0  0  0  0  0  0  0  0  0
  -24.7146  -17.1993   22.3377 C   0  0  0  0  0  0  0  0  0  0  0  0
  -31.3230  -28.2308   20.4166 C   0  0  0  0  0  0  0  0  0  0  0  0
  -30.0191  -22.3512   20.7683 C   0  0  0  0  0  0  0  0  0  0  0  0
  -30.5100  -20.0578   19.9120 C   0  0  0  0  0  0  0  0  0  0  0  0
  -25.2472  -29.3913   18.0485 C   0  0  0  0  0  0  0  0  0  0  0  0
  -27.6887  -29.0458   17.6150 C   0  0  0  0  0  0  0  0  0  0  0  0
  -26.9312  -30.9728   19.0062 C   0  0  0  0  0  0  0  0  0  0  0  0
  -29.7175  -26.5532   23.4306 C   0  0  0  0  0  0  0  0  0  0  0  0
  -25.5472  -19.5442   19.1980 C   0  0  0  0  0  0  0  0  0  0  0  0
  -24.0767  -18.4898   22.8381 C   0  0  0  0  0  0  0  0  0  0  0  0
  -23.5442  -20.9218   22.4081 C   0  0  0  0  0  0  0  0  0  1  0  0
  -24.2865  -19.6821   21.8812 C   0  0  1  0  0  0  0  0  0  0  0  0
  -26.8109  -28.6337   19.9582 C   0  0  1  0  0  0  0  0  0  0  0  0
  -30.2347  -27.9842   21.4498 C   0  0  2  0  0  0  0  0  0  0  0  0
  -29.8051  -20.8410   21.0579 C   0  0  0  0  0  0  0  0  0  0  0  0
  -26.6543  -29.4911   18.6707 C   0  0  0  0  0  0  0  0  0  0  0  0
  -27.9013  -20.6330   22.5291 N   0  0  0  0  0  0  0  0  0  0  0  0
  -28.6654  -15.5614   21.4545 N   0  0  0  0  0  0  0  0  0  0  0  0
  -27.6533  -20.1952   20.1724 N   0  0  0  0  0  0  0  0  0  0  0  0
  -29.9317  -15.7738   21.0578 N   0  0  0  0  0  0  0  0  0  0  0  0
  -24.9339  -27.9906   21.4371 N   0  0  0  0  0  0  0  0  0  0  0  0
  -30.5959  -19.1664   22.6943 N   0  0  0  0  0  0  0  0  0  0  0  0
  -31.6098  -14.9763   19.5885 N   0  0  0  0  0  0  0  0  0  0  0  0
  -28.1241  -12.2198   18.7835 N   0  0  0  0  0  0  0  0  0  0  0  0
  -21.4859  -28.9682   22.1094 N   0  0  0  0  0  0  0  0  0  0  0  0
  -28.1251  -28.7302   20.5842 N   0  0  0  0  0  0  0  0  0  0  0  0
  -30.6827  -26.8852   22.3512 N   0  3  0  0  0  0  0  0  0  0  0  0
  -30.2963  -12.6889   18.2176 O   0  0  0  0  0  0  0  0  0  0  0  0
  -22.7203  -28.3887   20.2218 O   0  0  0  0  0  0  0  0  0  0  0  0
  -25.8038  -30.1534   21.4758 O   0  0  0  0  0  0  0  0  0  0  0  0
  -31.2606  -21.3880   22.8451 O   0  0  0  0  0  0  0  0  0  0  0  0
  -28.6227  -26.4677   20.4807 O   0  0  0  0  0  0  0  0  0  0  0  0
  -23.1320  -12.4168   21.2484 O   0  0  0  0  0  0  0  0  0  0  0  0
  -23.6053  -21.9666   21.4381 O   0  0  0  0  0  0  0  0  0  1  0  0
  -22.6121   -6.9351   21.5384 F   0  0  0  0  0  0  0  0  0  0  0  0
  -21.9946  -11.2152   23.4631 F   0  0  0  0  0  0  0  0  0  0  0  0
  1  2  1  0  0  0  0
  1  5  2  0  0  0  0
  2  6  2  0  0  0  0
  3  8  2  0  0  0  0
  3 16  1  0  0  0  0
  4  9  1  0  0  0  0
  4 16  2  0  0  0  0
  5 18  1  0  0  0  0
  6 20  1  0  0  0  0
  7 10  2  0  0  0  0
  7 19  1  0  0  0  0
  8 23  1  0  0  0  0
  9 23  2  0  0  0  0
 10 24  1  0  0  0  0
 11 12  2  0  0  0  0
 11 25  1  0  0  0  0
 12 26  1  0  0  0  0
 13 21  1  0  0  0  0
 13 24  2  0  0  0  0
 14 26  2  0  0  0  0
 14 27  1  0  0  0  0
 15 22  1  0  0  0  0
 15 66  2  0  0  0  0
 16 28  1  0  0  0  0
 17 28  1  0  0  0  0
 17 30  2  0  0  0  0
 17 32  1  0  0  0  0
 18 20  2  0  0  0  0
 18 37  1  0  0  0  0
 19 21  2  0  0  0  0
 19 38  1  0  0  0  0
 20 46  1  0  0  0  0
 21 39  1  0  0  0  0
 22 29  2  0  0  0  0
 22 61  1  0  0  0  0
 23 82  1  0  0  0  0
 24 83  1  0  0  0  0
 25 27  2  0  0  0  0
 25 82  1  0  0  0  0
 26 84  1  0  0  0  0
 27 85  1  0  0  0  0
 28 67  2  0  0  0  0
 29 58  1  0  0  0  0
 29 68  1  0  0  0  0
 30 69  1  0  0  0  0
 30 72  1  0  0  0  0
 31 64  1  0  0  0  0
 31 66  1  0  0  0  0
 31 68  2  0  0  0  0
 32 73  1  0  0  0  0
 32 77  2  0  0  0  0
 33 47  1  0  0  0  0
 33 74  1  0  0  0  0
 33 78  2  0  0  0  0
 34 62  1  0  0  0  0
 34 70  1  0  0  0  0
 34 79  2  0  0  0  0
 35 64  1  0  0  0  0
 35 71  1  0  0  0  0
 35 80  2  0  0  0  0
 36 63  1  0  0  0  0
 36 75  1  0  0  0  0
 36 81  2  0  0  0  0
 37 40  1  0  0  0  0
 38 47  1  0  0  0  0
 39 70  1  0  0  0  0
 40 42  1  0  0  0  0
 41 43  1  0  0  0  0
 41 44  1  0  0  0  0
 42 46  1  0  0  0  0
 43 48  1  0  0  0  0
 44 71  1  0  0  0  0
 45 48  1  0  0  0  0
 45 71  1  0  0  0  0
 46 74  1  0  0  0  0
 47 70  1  0  0  0  0
 48 69  1  0  0  0  0
 49 58  1  0  0  0  0
 50 59  1  0  0  0  0
 51 63  1  0  0  0  0
 52 64  1  0  0  0  0
 53 64  1  0  0  0  0
 54 65  1  0  0  0  0
 55 65  1  0  0  0  0
 56 65  1  0  0  0  0
 57 76  1  0  0  0  0
 59 61  1  0  0  0  0
 60 61  1  0  0  0  0
 60 83  1  0  0  0  0
 62 65  1  0  0  0  0
 62 75  1  0  0  0  0
 63 76  1  0  0  0  0
 67 69  1  0  0  0  0
M  CHG  1  76   1
M  ISO  4  35 100  60 101  64 100  83 101
M  END
> <Batch ID>
0064

> <Smiles>
CCc1nc([100C:0](C)(C)[100C:0](=O)N2CCCC(n3nc(-c4ccc(Oc5ccc(F)cc5F)cc4)c(C(N)=O)c3N)C2)ncc1C(CC)[101CH2:1][101O:1]c1ccc2c(c1)CN(C(=O)C(NC(=O)C(C)NC)C(C)(C)C)C(C(=O)NC1CCCc3ccccc31)C2

> <Shape>
0.273

> <Color>
0.073

> <Negative vol penalty>
0.000

$$$$

  -OEChem-04052318053D

 91 99  0     1  0  0  0  0  0999 V2000
  -25.7741  -33.1440   22.3581 C   0  0  0  0  0  0  0  0  0  0  0  0
  -26.6356  -32.0814   22.1050 C   0  0  0  0  0  0  0  0  0  0  0  0
  -23.1047   -9.9067   19.9701 C   0  0  0  0  0  0  0  0  0  0  0  0
  -23.5167  -10.0800   22.3444 C   0  0  0  0  0  0  0  0  0  0  0  0
  -24.7547  -33.0046   23.2990 C   0  0  0  0  0  0  0  0  0  0  0  0
  -26.4788  -30.8790   22.7935 C   0  0  0  0  0  0  0  0  0  0  0  0
  -26.8230  -26.8418   19.7558 C   0  0  0  0  0  0  0  0  0  0  0  0
  -22.2865   -8.7993   20.1928 C   0  0  0  0  0  0  0  0  0  0  0  0
  -22.6984   -8.9725   22.5672 C   0  0  0  0  0  0  0  0  0  0  0  0
  -28.1016  -26.4443   19.3674 C   0  0  0  0  0  0  0  0  0  0  0  0
  -22.9353   -5.6092   22.3165 C   0  0  0  0  0  0  0  0  0  0  0  0
  -23.3963   -4.6292   23.1954 C   0  0  0  0  0  0  0  0  0  0  0  0
  -28.0679  -24.7145   21.0484 C   0  0  0  0  0  0  0  0  0  0  0  0
  -21.4695   -4.9896   24.6078 C   0  0  0  0  0  0  0  0  0  0  0  0
  -31.4672  -18.2317   16.7701 C   0  0  0  0  0  0  0  0  0  0  0  0
  -23.7199  -10.5471   21.0458 C   0  0  0  0  0  0  0  0  0  0  0  0
  -24.1765  -13.0433   20.7854 C   0  0  0  0  0  0  0  0  0  0  0  0
  -24.5793  -31.7967   23.9924 C   0  0  0  0  0  0  0  0  0  0  0  0
  -26.1604  -26.1845   20.8024 C   0  0  0  0  0  0  0  0  0  0  0  0
  -25.4569  -30.7237   23.7455 C   0  0  0  0  0  0  0  0  0  0  0  0
  -26.7799  -25.1039   21.4464 C   0  0  0  0  0  0  0  0  0  0  0  0
  -22.0833   -8.3322   21.4914 C   0  0  0  0  0  0  0  0  0  0  0  0
  -28.7255  -25.3824   20.0157 C   0  0  0  0  0  0  0  0  0  0  0  0
  -21.7415   -6.2796   22.5832 C   0  0  0  0  0  0  0  0  0  0  0  0
  -22.6634   -4.3194   24.3411 C   0  0  0  0  0  0  0  0  0  0  0  0
  -21.0086   -5.9697   23.7288 C   0  0  0  0  0  0  0  0  0  0  0  0
  -24.5657  -11.6908   20.8163 C   0  0  0  0  0  0  0  0  0  0  0  0
  -32.0430  -18.8787   17.8269 C   0  0  0  0  0  0  0  0  0  0  0  0
  -25.3395  -13.7295   20.5343 C   0  0  0  0  0  0  0  0  0  0  0  0
  -30.4443  -17.5674   18.6174 C   0  0  0  0  0  0  0  0  0  0  0  0
  -22.8797  -13.6272   20.9673 C   0  0  0  0  0  0  0  0  0  0  0  0
  -25.0614  -27.0510   23.6563 C   0  0  0  0  0  0  0  0  0  0  0  0
  -23.8618  -24.0372   23.6770 C   0  0  0  0  0  0  0  0  0  0  0  0
  -24.0515  -20.8354   22.5113 C   0  0  0  0  0  0  0  0  0  0  0  0
  -30.1162  -14.3689   17.7616 C   0  0  0  0  0  0  0  0  0  0  0  0
  -23.4926  -31.7090   25.0345 C   0  0  0  0  0  0  0  0  0  0  0  0
  -24.7707  -26.6081   21.1915 C   0  0  0  0  0  0  0  0  0  0  0  0
  -26.1032  -24.3521   22.5624 C   0  0  0  0  0  0  0  0  0  0  0  0
  -23.1608  -30.2780   25.4497 C   0  0  0  0  0  0  0  0  0  0  0  0
  -30.1542  -12.1668   20.5455 C   0  0  0  0  0  0  0  0  0  0  0  0
  -24.4391  -29.4898   25.7172 C   0  0  0  0  0  0  0  0  0  0  0  0
  -28.6715  -11.9584   20.8629 C   0  0  0  0  0  0  0  0  0  0  0  0
  -30.4036  -12.2651   19.0416 C   0  0  0  0  0  0  0  0  0  0  0  0
  -28.1014  -13.0513   18.6565 C   0  0  0  0  0  0  0  0  0  0  0  0
  -25.3035  -29.3953   24.4541 C   0  0  1  0  0  0  0  0  0  0  0  0
  -24.3970  -26.1983   22.6127 C   0  0  1  0  0  0  0  0  0  0  0  0
  -27.7915  -13.0119   20.1619 C   0  0  1  0  0  0  0  0  0  0  0  0
  -29.5285  -16.8800   19.5617 C   0  0  0  0  0  0  0  0  0  0  0  0
  -22.9588  -18.5879   22.7395 C   0  0  0  0  0  0  0  0  0  0  0  0
  -25.2545  -23.6355   26.3620 C   0  0  0  0  0  0  0  0  0  0  0  0
  -24.9406  -21.1680   26.0767 C   0  0  0  0  0  0  0  0  0  0  0  0
  -22.9526  -22.6675   26.2257 C   0  0  0  0  0  0  0  0  0  0  0  0
  -23.2904  -20.7859   19.6517 C   0  0  0  0  0  0  0  0  0  0  0  0
  -33.1357  -19.8529   17.8867 C   0  0  0  0  0  0  0  0  0  0  0  0
  -32.7052  -21.3387   17.7773 C   0  0  0  0  0  0  0  0  0  0  0  0
  -31.7083  -21.7414   18.8685 C   0  0  0  0  0  0  0  0  0  0  0  0
  -31.3273  -23.2163   18.7528 C   0  0  0  0  0  0  0  0  0  0  0  0
  -30.3048  -23.6166   19.8068 C   0  0  0  0  0  0  0  0  0  1  0  0
  -24.3668  -22.6887   24.1300 C   0  0  1  0  0  0  0  0  0  0  0  0
  -22.9897  -19.8972   21.9665 C   0  0  2  0  0  0  0  0  0  0  0  0
  -24.3925  -22.5551   25.6789 C   0  0  0  0  0  0  0  0  0  0  0  0
  -29.5650  -16.5065   16.4624 C   0  0  0  0  0  0  0  0  0  0  0  0
  -30.3499  -16.0510   15.2116 C   0  0  0  0  0  0  0  0  0  0  0  0
  -28.2536  -17.1625   15.9775 C   0  0  0  0  0  0  0  0  0  0  0  0
  -25.8736  -11.5255   20.6019 N   0  0  0  0  0  0  0  0  0  0  0  0
  -30.4816  -17.4267   17.2884 N   0  0  0  0  0  0  0  0  0  0  0  0
  -26.3165  -12.7832   20.4338 N   0  0  0  0  0  0  0  0  0  0  0  0
  -31.3904  -18.4489   18.9571 N   0  3  0  0  0  0  0  0  0  0  0  0
  -24.7474  -24.8082   22.9107 N   0  0  0  0  0  0  0  0  0  0  0  0
  -29.5383  -13.2863   18.4478 N   0  0  0  0  0  0  0  0  0  0  0  0
  -25.6116  -15.0441   20.3919 N   0  0  0  0  0  0  0  0  0  0  0  0
  -21.7935  -12.7775   21.2171 N   0  0  0  0  0  0  0  0  0  0  0  0
  -24.7710  -28.3979   23.5507 N   0  0  0  0  0  0  0  0  0  0  0  0
  -23.5363  -21.6950   23.4583 N   0  0  0  0  0  0  0  0  0  0  0  0
  -29.2098  -15.2834   17.2309 N   0  0  0  0  0  0  0  0  0  0  0  0
  -23.2559  -19.5903   20.5327 N   0  3  0  0  0  0  0  0  0  0  0  0
  -22.6871  -14.8645   20.8939 O   0  0  0  0  0  0  0  0  0  0  0  0
  -25.7828  -26.5257   24.4961 O   0  0  0  0  0  0  0  0  0  0  0  0
  -22.7209  -24.3906   23.9855 O   0  0  0  0  0  0  0  0  0  0  0  0
  -25.2218  -20.8060   22.1370 O   0  0  0  0  0  0  0  0  0  0  0  0
  -31.3377  -14.4974   17.6364 O   0  0  0  0  0  0  0  0  0  0  0  0
  -21.2847   -7.2517   21.7091 O   0  0  0  0  0  0  0  0  0  0  0  0
  -29.9830  -24.9900   19.6363 O   0  0  0  0  0  0  0  0  0  1  0  0
  -23.1054   -3.3771   25.1843 F   0  0  0  0  0  0  0  0  0  0  0  0
  -19.8603   -6.6095   23.9898 F   0  0  0  0  0  0  0  0  0  0  0  0
  -30.6387  -17.0998   14.4053 F   0  0  0  0  0  0  0  0  0  0  0  0
  -31.5242  -15.4684   15.5452 F   0  0  0  0  0  0  0  0  0  0  0  0
  -29.6555  -15.1623   14.4660 F   0  0  0  0  0  0  0  0  0  0  0  0
  -27.4840  -16.3137   15.2623 F   0  0  0  0  0  0  0  0  0  0  0  0
  -28.5117  -18.2279   15.1800 F   0  0  0  0  0  0  0  0  0  0  0  0
  -27.5053  -17.6211   17.0067 F   0  0  0  0  0  0  0  0  0  0  0  0
  1  2  1  0  0  0  0
  1  5  2  0  0  0  0
  2  6  2  0  0  0  0
  3  8  2  0  0  0  0
  3 16  1  0  0  0  0
  4  9  1  0  0  0  0
  4 16  2  0  0  0  0
  5 18  1  0  0  0  0
  6 20  1  0  0  0  0
  7 10  2  0  0  0  0
  7 19  1  0  0  0  0
  8 22  1  0  0  0  0
  9 22  2  0  0  0  0
 10 23  1  0  0  0  0
 11 12  2  0  0  0  0
 11 24  1  0  0  0  0
 12 25  1  0  0  0  0
 13 21  1  0  0  0  0
 13 23  2  0  0  0  0
 14 25  2  0  0  0  0
 14 26  1  0  0  0  0
 15 28  2  0  0  0  0
 15 66  1  0  0  0  0
 16 27  1  0  0  0  0
 17 27  1  0  0  0  0
 17 29  2  0  0  0  0
 17 31  1  0  0  0  0
 18 20  2  0  0  0  0
 18 36  1  0  0  0  0
 19 21  2  0  0  0  0
 19 37  1  0  0  0  0
 20 45  1  0  0  0  0
 21 38  1  0  0  0  0
 22 82  1  0  0  0  0
 23 83  1  0  0  0  0
 24 26  2  0  0  0  0
 24 82  1  0  0  0  0
 25 84  1  0  0  0  0
 26 85  1  0  0  0  0
 27 65  2  0  0  0  0
 28 54  1  0  0  0  0
 28 68  1  0  0  0  0
 29 67  1  0  0  0  0
 29 71  1  0  0  0  0
 30 48  1  0  0  0  0
 30 66  1  0  0  0  0
 30 68  2  0  0  0  0
 31 72  1  0  0  0  0
 31 77  2  0  0  0  0
 32 46  1  0  0  0  0
 32 73  1  0  0  0  0
 32 78  2  0  0  0  0
 33 59  1  0  0  0  0
 33 69  1  0  0  0  0
 33 79  2  0  0  0  0
 34 60  1  0  0  0  0
 34 74  1  0  0  0  0
 34 80  2  0  0  0  0
 35 70  1  0  0  0  0
 35 75  1  0  0  0  0
 35 81  2  0  0  0  0
 36 39  1  0  0  0  0
 37 46  1  0  0  0  0
 38 69  1  0  0  0  0
 39 41  1  0  0  0  0
 40 42  1  0  0  0  0
 40 43  1  0  0  0  0
 41 45  1  0  0  0  0
 42 47  1  0  0  0  0
 43 70  1  0  0  0  0
 44 47  1  0  0  0  0
 44 70  1  0  0  0  0
 45 73  1  0  0  0  0
 46 69  1  0  0  0  0
 47 67  1  0  0  0  0
 49 60  1  0  0  0  0
 50 61  1  0  0  0  0
 51 61  1  0  0  0  0
 52 61  1  0  0  0  0
 53 76  1  0  0  0  0
 54 55  1  0  0  0  0
 55 56  1  0  0  0  0
 56 57  1  0  0  0  0
 57 58  1  0  0  0  0
 58 83  1  0  0  0  0
 59 61  1  0  0  0  0
 59 74  1  0  0  0  0
 60 76  1  0  0  0  0
 62 63  1  0  0  0  0
 62 64  1  0  0  0  0
 62 66  1  0  0  0  0
 62 75  1  0  0  0  0
 63 86  1  0  0  0  0
 63 87  1  0  0  0  0
 63 88  1  0  0  0  0
 64 89  1  0  0  0  0
 64 90  1  0  0  0  0
 64 91  1  0  0  0  0
 65 67  1  0  0  0  0
M  CHG  2  68   1  76   1
M  ISO  4  35 100  58 101  75 100  83 101
M  END
> <Batch ID>
0064

> <Smiles>
CNC(C)C(=O)NC(C(=O)N1Cc2cc([101O:1][101CH2:1]CCCCc3cn(C([100NH:0][100C:0](=O)N4CCCC(n5nc(-c6ccc(Oc7ccc(F)cc7F)cc6)c(C(N)=O)c5N)C4)(C(F)(F)F)C(F)(F)F)c(C)n3)ccc2CC1C(=O)NC1CCCc2ccccc21)C(C)(C)C

> <Shape>
0.236

> <Color>
0.185

> <Negative vol penalty>
0.000

$$$$

  -OEChem-04052318053D

 87 95  0     1  0  0  0  0  0999 V2000
  -23.3683  -24.4236   21.2844 C   0  0  0  0  0  0  0  0  0  0  0  0
  -24.2475  -23.4369   20.8500 C   0  0  0  0  0  0  0  0  0  0  0  0
  -26.0255  -27.6711   18.9506 C   0  0  0  0  0  0  0  0  0  0  0  0
  -26.5517  -28.0122   21.2838 C   0  0  0  0  0  0  0  0  0  0  0  0
  -22.5058  -24.1674   22.3494 C   0  0  0  0  0  0  0  0  0  0  0  0
  -24.2655  -22.1936   21.4812 C   0  0  0  0  0  0  0  0  0  0  0  0
  -24.4138  -18.3466   18.1913 C   0  0  0  0  0  0  0  0  0  0  0  0
  -24.9283  -28.5236   19.0734 C   0  0  0  0  0  0  0  0  0  0  0  0
  -25.4545  -28.8647   21.4066 C   0  0  0  0  0  0  0  0  0  0  0  0
  -25.6449  -18.0582   17.6040 C   0  0  0  0  0  0  0  0  0  0  0  0
  -22.1023  -28.5784   21.7413 C   0  0  0  0  0  0  0  0  0  0  0  0
  -21.2772  -28.4165   22.8542 C   0  0  0  0  0  0  0  0  0  0  0  0
  -25.9599  -16.2483   19.1674 C   0  0  0  0  0  0  0  0  0  0  0  0
  -21.7553  -30.6836   23.5387 C   0  0  0  0  0  0  0  0  0  0  0  0
  -31.4060  -18.7603   18.7146 C   0  0  0  0  0  0  0  0  0  0  0  0
  -26.8372  -27.4154   20.0558 C   0  0  0  0  0  0  0  0  0  0  0  0
  -29.2876  -26.8883   19.5812 C   0  0  0  0  0  0  0  0  0  0  0  0
  -22.5065  -22.9172   22.9878 C   0  0  0  0  0  0  0  0  0  0  0  0
  -23.9507  -17.5937   19.2799 C   0  0  0  0  0  0  0  0  0  0  0  0
  -23.4031  -21.9209   22.5566 C   0  0  0  0  0  0  0  0  0  0  0  0
  -24.7214  -16.5276   19.7651 C   0  0  0  0  0  0  0  0  0  0  0  0
  -24.6428  -29.1204   20.3014 C   0  0  0  0  0  0  0  0  0  0  0  0
  -26.4195  -17.0107   18.0939 C   0  0  0  0  0  0  0  0  0  0  0  0
  -22.7541  -29.7930   21.5272 C   0  0  0  0  0  0  0  0  0  0  0  0
  -21.1036  -29.4690   23.7529 C   0  0  0  0  0  0  0  0  0  0  0  0
  -22.5806  -30.8455   22.4259 C   0  0  0  0  0  0  0  0  0  0  0  0
  -27.9704  -26.5345   19.9298 C   0  0  0  0  0  0  0  0  0  0  0  0
  -30.4581  -17.8557   18.3272 C   0  0  0  0  0  0  0  0  0  0  0  0
  -29.9784  -25.7013   19.5998 C   0  0  0  0  0  0  0  0  0  0  0  0
  -30.7332  -17.6624   20.5152 C   0  0  0  0  0  0  0  0  0  0  0  0
  -29.8376  -28.1750   19.2686 C   0  0  0  0  0  0  0  0  0  0  0  0
  -23.2241  -18.2388   22.3064 C   0  0  0  0  0  0  0  0  0  0  0  0
  -22.2265  -15.1522   22.3170 C   0  0  0  0  0  0  0  0  0  0  0  0
  -22.4413  -12.0333   20.9484 C   0  0  0  0  0  0  0  0  0  0  0  0
  -29.2478  -20.5251   22.1298 C   0  0  0  0  0  0  0  0  0  0  0  0
  -21.5889  -22.7028   24.1654 C   0  0  0  0  0  0  0  0  0  0  0  0
  -22.6083  -17.9006   19.8852 C   0  0  0  0  0  0  0  0  0  0  0  0
  -24.2601  -15.6761   20.9187 C   0  0  0  0  0  0  0  0  0  0  0  0
  -21.4086  -21.2334   24.5375 C   0  0  0  0  0  0  0  0  0  0  0  0
  -27.9304  -21.5694   18.7724 C   0  0  0  0  0  0  0  0  0  0  0  0
  -22.7579  -20.5228   24.5753 C   0  0  0  0  0  0  0  0  0  0  0  0
  -29.1674  -22.4677   18.7844 C   0  0  0  0  0  0  0  0  0  0  0  0
  -27.9079  -20.6136   19.9706 C   0  0  0  0  0  0  0  0  0  0  0  0
  -28.4345  -22.6775   21.2270 C   0  0  0  0  0  0  0  0  0  0  0  0
  -23.4350  -20.5514   23.1997 C   0  0  1  0  0  0  0  0  0  0  0  0
  -22.4694  -17.3955   21.3180 C   0  0  1  0  0  0  0  0  0  0  0  0
  -29.3168  -23.2563   20.1071 C   0  0  2  0  0  0  0  0  0  0  0  0
  -33.9031  -18.9157   20.7644 C   0  0  0  0  0  0  0  0  0  0  0  0
  -21.5323   -9.7072   21.1945 C   0  0  0  0  0  0  0  0  0  0  0  0
  -30.0840  -16.0724   16.4945 C   0  0  0  0  0  0  0  0  0  0  0  0
  -30.5324  -18.4394   15.8832 C   0  0  0  0  0  0  0  0  0  0  0  0
  -31.8757  -16.6082   22.5841 C   0  0  0  0  0  0  0  0  0  0  0  0
  -29.5348  -16.0310   21.9985 C   0  0  0  0  0  0  0  0  0  0  0  0
  -24.0140  -14.7138   24.7506 C   0  0  0  0  0  0  0  0  0  0  0  0
  -23.8136  -12.2479   24.3666 C   0  0  0  0  0  0  0  0  0  0  0  0
  -21.7800  -13.5974   24.8825 C   0  0  0  0  0  0  0  0  0  0  0  0
  -27.7397  -18.4903   22.0691 C   0  0  0  0  0  0  0  0  0  0  0  0
  -21.2799  -12.0743   18.2265 C   0  0  0  0  0  0  0  0  0  0  0  0
  -32.4663  -19.3907   20.8959 C   0  0  0  0  0  0  0  0  0  0  0  0
  -30.0616  -18.3235   22.8825 C   0  0  0  0  0  0  0  0  0  0  0  0
  -28.3360  -17.8161   16.9388 C   0  0  0  0  0  0  0  0  0  1  0  0
  -22.8731  -13.8207   22.6137 C   0  0  1  0  0  0  0  0  0  0  0  0
  -21.3713  -11.0525   20.5038 C   0  0  2  0  0  0  0  0  0  0  0  0
  -29.8612  -17.5366   16.9437 C   0  0  0  0  0  0  0  0  0  0  0  0
  -30.5798  -17.1949   21.9155 C   0  0  0  0  0  0  0  0  0  0  0  0
  -23.1300  -13.6120   24.1328 C   0  0  0  0  0  0  0  0  0  0  0  0
  -27.8302  -25.2251   20.1533 N   0  0  0  0  0  0  0  0  0  0  0  0
  -31.5559  -18.6191   20.0732 N   0  0  0  0  0  0  0  0  0  0  0  0
  -29.0683  -24.7458   19.9446 N   0  0  0  0  0  0  0  0  0  0  0  0
  -30.0596  -17.1902   19.4614 N   0  3  0  0  0  0  0  0  0  0  0  0
  -22.9434  -16.0196   21.4807 N   0  0  0  0  0  0  0  0  0  0  0  0
  -28.4638  -21.2164   21.1909 N   0  0  0  0  0  0  0  0  0  0  0  0
  -31.2694  -25.3922   19.3546 N   0  0  0  0  0  0  0  0  0  0  0  0
  -28.9881  -29.2894   19.2965 N   0  0  0  0  0  0  0  0  0  0  0  0
  -22.8398  -19.5660   22.3228 N   0  0  0  0  0  0  0  0  0  0  0  0
  -22.0165  -12.8069   22.0078 N   0  0  0  0  0  0  0  0  0  0  0  0
  -29.0269  -19.1477   22.2730 N   0  0  0  0  0  0  0  0  0  0  0  0
  -21.4461  -10.8366   19.0312 N   0  3  0  0  0  0  0  0  0  0  0  0
  -31.0429  -28.3295   18.9573 O   0  0  0  0  0  0  0  0  0  0  0  0
  -24.0899  -17.7231   23.0037 O   0  0  0  0  0  0  0  0  0  0  0  0
  -21.1226  -15.4101   22.8034 O   0  0  0  0  0  0  0  0  0  0  0  0
  -23.5449  -12.1033   20.4121 O   0  0  0  0  0  0  0  0  0  0  0  0
  -30.1142  -21.1066   22.7965 O   0  0  0  0  0  0  0  0  0  0  0  0
  -23.5724  -29.9524   20.4215 O   0  0  0  0  0  0  0  0  0  0  0  0
  -27.6218  -16.7275   17.5229 O   0  0  0  0  0  0  0  0  0  1  0  0
  -20.3100  -29.3138   24.8207 F   0  0  0  0  0  0  0  0  0  0  0  0
  -23.2032  -32.0150   22.2248 F   0  0  0  0  0  0  0  0  0  0  0  0
  1  2  1  0  0  0  0
  1  5  2  0  0  0  0
  2  6  2  0  0  0  0
  3  8  2  0  0  0  0
  3 16  1  0  0  0  0
  4  9  1  0  0  0  0
  4 16  2  0  0  0  0
  5 18  1  0  0  0  0
  6 20  1  0  0  0  0
  7 10  2  0  0  0  0
  7 19  1  0  0  0  0
  8 22  1  0  0  0  0
  9 22  2  0  0  0  0
 10 23  1  0  0  0  0
 11 12  2  0  0  0  0
 11 24  1  0  0  0  0
 12 25  1  0  0  0  0
 13 21  1  0  0  0  0
 13 23  2  0  0  0  0
 14 25  2  0  0  0  0
 14 26  1  0  0  0  0
 15 28  2  0  0  0  0
 15 68  1  0  0  0  0
 16 27  1  0  0  0  0
 17 27  1  0  0  0  0
 17 29  2  0  0  0  0
 17 31  1  0  0  0  0
 18 20  2  0  0  0  0
 18 36  1  0  0  0  0
 19 21  2  0  0  0  0
 19 37  1  0  0  0  0
 20 45  1  0  0  0  0
 21 38  1  0  0  0  0
 22 84  1  0  0  0  0
 23 85  1  0  0  0  0
 24 26  2  0  0  0  0
 24 84  1  0  0  0  0
 25 86  1  0  0  0  0
 26 87  1  0  0  0  0
 27 67  2  0  0  0  0
 28 64  1  0  0  0  0
 28 70  1  0  0  0  0
 29 69  1  0  0  0  0
 29 73  1  0  0  0  0
 30 65  1  0  0  0  0
 30 68  1  0  0  0  0
 30 70  2  0  0  0  0
 31 74  1  0  0  0  0
 31 79  2  0  0  0  0
 32 46  1  0  0  0  0
 32 75  1  0  0  0  0
 32 80  2  0  0  0  0
 33 62  1  0  0  0  0
 33 71  1  0  0  0  0
 33 81  2  0  0  0  0
 34 63  1  0  0  0  0
 34 76  1  0  0  0  0
 34 82  2  0  0  0  0
 35 72  1  0  0  0  0
 35 77  1  0  0  0  0
 35 83  2  0  0  0  0
 36 39  1  0  0  0  0
 37 46  1  0  0  0  0
 38 71  1  0  0  0  0
 39 41  1  0  0  0  0
 40 42  1  0  0  0  0
 40 43  1  0  0  0  0
 41 45  1  0  0  0  0
 42 47  1  0  0  0  0
 43 72  1  0  0  0  0
 44 47  1  0  0  0  0
 44 72  1  0  0  0  0
 45 75  1  0  0  0  0
 46 71  1  0  0  0  0
 47 69  1  0  0  0  0
 48 59  1  0  0  0  0
 49 63  1  0  0  0  0
 50 64  1  0  0  0  0
 51 64  1  0  0  0  0
 52 65  1  0  0  0  0
 53 65  1  0  0  0  0
 54 66  1  0  0  0  0
 55 66  1  0  0  0  0
 56 66  1  0  0  0  0
 57 77  1  0  0  0  0
 58 78  1  0  0  0  0
 59 68  1  0  0  0  0
 60 65  1  0  0  0  0
 60 77  1  0  0  0  0
 61 64  1  0  0  0  0
 61 85  1  0  0  0  0
 62 66  1  0  0  0  0
 62 76  1  0  0  0  0
 63 78  1  0  0  0  0
 67 69  1  0  0  0  0
M  CHG  2  70   1  78   1
M  ISO  4  35 100  61 101  77 100  85 101
M  END
> <Batch ID>
0064

> <Smiles>
CCn1cc(C(C)(C)[101CH2:1][101O:1]c2ccc3c(c2)CN(C(=O)C(NC(=O)C(C)NC)C(C)(C)C)C(C(=O)NC2CCCc4ccccc42)C3)nc1C(C)(C)C[100N:0](C)[100C:0](=O)N1CCCC(n2nc(-c3ccc(Oc4ccc(F)cc4F)cc3)c(C(N)=O)c2N)C1

> <Shape>
0.219

> <Color>
0.051

> <Negative vol penalty>
0.000

$$$$

  -OEChem-04052318053D

 83 91  0     1  0  0  0  0  0999 V2000
  -16.6074  -30.7465   23.9681 C   0  0  0  0  0  0  0  0  0  0  0  0
  -17.0520  -29.4407   24.1490 C   0  0  0  0  0  0  0  0  0  0  0  0
  -23.0392   -9.8909   19.9828 C   0  0  0  0  0  0  0  0  0  0  0  0
  -23.7272   -9.9722   22.2974 C   0  0  0  0  0  0  0  0  0  0  0  0
  -17.2557  -31.5829   23.0604 C   0  0  0  0  0  0  0  0  0  0  0  0
  -18.1447  -28.9703   23.4214 C   0  0  0  0  0  0  0  0  0  0  0  0
  -23.7126  -24.4973   23.9751 C   0  0  0  0  0  0  0  0  0  0  0  0
  -22.2666   -8.7612   20.2521 C   0  0  0  0  0  0  0  0  0  0  0  0
  -22.9546   -8.8425   22.5667 C   0  0  0  0  0  0  0  0  0  0  0  0
  -24.3105  -23.4333   23.3013 C   0  0  0  0  0  0  0  0  0  0  0  0
  -23.2011   -5.4971   22.1442 C   0  0  0  0  0  0  0  0  0  0  0  0
  -23.7748   -4.4894   22.9194 C   0  0  0  0  0  0  0  0  0  0  0  0
  -25.4017  -24.9928   21.8193 C   0  0  0  0  0  0  0  0  0  0  0  0
  -22.0245   -4.7575   24.5631 C   0  0  0  0  0  0  0  0  0  0  0  0
  -27.8676  -19.9165   19.6911 C   0  0  0  0  0  0  0  0  0  0  0  0
  -23.7695  -10.4964   21.0055 C   0  0  0  0  0  0  0  0  0  0  0  0
  -24.1616  -13.0088   20.8016 C   0  0  0  0  0  0  0  0  0  0  0  0
  -18.3628  -31.1256   22.3284 C   0  0  0  0  0  0  0  0  0  0  0  0
  -23.9465  -25.8188   23.5686 C   0  0  0  0  0  0  0  0  0  0  0  0
  -18.8076  -29.8011   22.5021 C   0  0  0  0  0  0  0  0  0  0  0  0
  -24.8076  -26.0720   22.4913 C   0  0  0  0  0  0  0  0  0  0  0  0
  -22.2243   -8.2370   21.5441 C   0  0  0  0  0  0  0  0  0  0  0  0
  -25.1529  -23.6808   22.2214 C   0  0  0  0  0  0  0  0  0  0  0  0
  -22.0392   -6.1351   22.5784 C   0  0  0  0  0  0  0  0  0  0  0  0
  -23.1865   -4.1196   24.1289 C   0  0  0  0  0  0  0  0  0  0  0  0
  -21.4509   -5.7652   23.7879 C   0  0  0  0  0  0  0  0  0  0  0  0
  -24.5682  -11.6630   20.7278 C   0  0  0  0  0  0  0  0  0  0  0  0
  -27.5526  -18.5757   19.7129 C   0  0  0  0  0  0  0  0  0  0  0  0
  -25.8832  -18.9925   21.2193 C   0  0  0  0  0  0  0  0  0  0  0  0
  -26.1988  -20.3332   21.1980 C   0  0  0  0  0  0  0  0  0  0  0  0
  -25.2783  -13.7248   20.4454 C   0  0  0  0  0  0  0  0  0  0  0  0
  -22.8885  -13.5622   21.1601 C   0  0  0  0  0  0  0  0  0  0  0  0
  -22.1285  -28.1816   22.4658 C   0  0  0  0  0  0  0  0  0  0  0  0
  -24.8749  -29.8894   22.7166 C   0  0  0  0  0  0  0  0  0  0  0  0
  -28.2861  -29.8916   22.8197 C   0  0  0  0  0  0  0  0  0  0  0  0
  -30.8745  -14.3634   21.2145 C   0  0  0  0  0  0  0  0  0  0  0  0
  -19.0019  -32.0517   21.3241 C   0  0  0  0  0  0  0  0  0  0  0  0
  -23.3151  -26.9568   24.3227 C   0  0  0  0  0  0  0  0  0  0  0  0
  -25.1073  -27.4734   22.0280 C   0  0  0  0  0  0  0  0  0  0  0  0
  -20.3846  -31.5940   20.8671 C   0  0  0  0  0  0  0  0  0  0  0  0
  -29.6653  -12.2344   18.4385 C   0  0  0  0  0  0  0  0  0  0  0  0
  -20.3684  -30.1079   20.5234 C   0  0  0  0  0  0  0  0  0  0  0  0
  -28.2180  -11.9541   18.8397 C   0  0  0  0  0  0  0  0  0  0  0  0
  -30.5539  -12.4780   19.6545 C   0  0  0  0  0  0  0  0  0  0  0  0
  -28.6091  -13.2696   20.9603 C   0  0  0  0  0  0  0  0  0  0  0  0
  -20.0047  -29.2620   21.7496 C   0  0  1  0  0  0  0  0  0  0  0  0
  -23.2173  -28.2377   23.4998 C   0  0  1  0  0  0  0  0  0  0  0  0
  -27.6777  -13.0657   19.7560 C   0  0  2  0  0  0  0  0  0  0  0  0
  -24.7765  -18.4681   22.0690 C   0  0  0  0  0  0  0  0  0  0  0  0
  -30.2507  -31.4434   22.9921 C   0  0  0  0  0  0  0  0  0  0  0  0
  -24.4997  -30.6850   19.7949 C   0  0  0  0  0  0  0  0  0  0  0  0
  -26.8965  -31.4077   19.7564 C   0  0  0  0  0  0  0  0  0  0  0  0
  -25.2806  -32.5335   21.2875 C   0  0  0  0  0  0  0  0  0  0  0  0
  -31.3011  -16.5906   22.1828 C   0  0  0  0  0  0  0  0  0  0  0  0
  -29.1918  -28.6510   25.3495 C   0  0  0  0  0  0  0  0  0  0  0  0
  -28.3165  -17.6067   18.8803 C   0  0  0  0  0  0  0  0  0  0  0  0
  -25.4434  -21.3282   22.0291 C   0  0  0  0  0  0  0  0  0  1  0  0
  -29.5490  -16.9947   19.5775 C   0  0  0  0  0  0  0  0  0  0  0  0
  -29.2334  -16.2599   20.8786 C   0  0  0  0  0  0  0  0  0  0  0  0
  -26.0415  -30.1782   21.8030 C   0  0  1  0  0  0  0  0  0  0  0  0
  -29.2651  -30.5744   23.7577 C   0  0  2  0  0  0  0  0  0  0  0  0
  -25.6726  -31.1745   20.6677 C   0  0  0  0  0  0  0  0  0  0  0  0
  -27.1964  -20.8194   20.4333 N   0  0  0  0  0  0  0  0  0  0  0  0
  -25.8435  -11.5294   20.3539 N   0  0  0  0  0  0  0  0  0  0  0  0
  -26.5546  -18.0897   20.4774 N   0  0  0  0  0  0  0  0  0  0  0  0
  -26.2479  -12.8004   20.1895 N   0  0  0  0  0  0  0  0  0  0  0  0
  -24.4610  -28.5521   22.7937 N   0  0  0  0  0  0  0  0  0  0  0  0
  -29.9950  -13.5084   20.5302 N   0  0  0  0  0  0  0  0  0  0  0  0
  -25.5155  -15.0487   20.3291 N   0  0  0  0  0  0  0  0  0  0  0  0
  -21.8498  -12.6842   21.4989 N   0  0  0  0  0  0  0  0  0  0  0  0
  -21.1441  -29.1367   22.6331 N   0  0  0  0  0  0  0  0  0  0  0  0
  -27.1313  -30.6283   22.6622 N   0  0  0  0  0  0  0  0  0  0  0  0
  -30.4212  -15.6633   21.4857 N   0  0  0  0  0  0  0  0  0  0  0  0
  -30.0353  -29.5596   24.5310 N   0  3  0  0  0  0  0  0  0  0  0  0
  -22.6734  -14.7980   21.1636 O   0  0  0  0  0  0  0  0  0  0  0  0
  -22.1787  -27.3354   21.5809 O   0  0  0  0  0  0  0  0  0  0  0  0
  -24.3549  -30.8152   23.3444 O   0  0  0  0  0  0  0  0  0  0  0  0
  -28.5238  -28.8144   22.2779 O   0  0  0  0  0  0  0  0  0  0  0  0
  -32.0042  -13.9894   21.5548 O   0  0  0  0  0  0  0  0  0  0  0  0
  -21.4704   -7.1348   21.8072 O   0  0  0  0  0  0  0  0  0  0  0  0
  -25.7373  -22.6440   21.5615 O   0  0  0  0  0  0  0  0  0  1  0  0
  -23.7367   -3.1508   24.8725 F   0  0  0  0  0  0  0  0  0  0  0  0
  -20.3338   -6.3736   24.2097 F   0  0  0  0  0  0  0  0  0  0  0  0
  1  2  1  0  0  0  0
  1  5  2  0  0  0  0
  2  6  2  0  0  0  0
  3  8  2  0  0  0  0
  3 16  1  0  0  0  0
  4  9  1  0  0  0  0
  4 16  2  0  0  0  0
  5 18  1  0  0  0  0
  6 20  1  0  0  0  0
  7 10  2  0  0  0  0
  7 19  1  0  0  0  0
  8 22  1  0  0  0  0
  9 22  2  0  0  0  0
 10 23  1  0  0  0  0
 11 12  2  0  0  0  0
 11 24  1  0  0  0  0
 12 25  1  0  0  0  0
 13 21  1  0  0  0  0
 13 23  2  0  0  0  0
 14 25  2  0  0  0  0
 14 26  1  0  0  0  0
 15 28  1  0  0  0  0
 15 63  2  0  0  0  0
 16 27  1  0  0  0  0
 17 27  1  0  0  0  0
 17 31  2  0  0  0  0
 17 32  1  0  0  0  0
 18 20  2  0  0  0  0
 18 37  1  0  0  0  0
 19 21  2  0  0  0  0
 19 38  1  0  0  0  0
 20 46  1  0  0  0  0
 21 39  1  0  0  0  0
 22 80  1  0  0  0  0
 23 81  1  0  0  0  0
 24 26  2  0  0  0  0
 24 80  1  0  0  0  0
 25 82  1  0  0  0  0
 26 83  1  0  0  0  0
 27 64  2  0  0  0  0
 28 56  1  0  0  0  0
 28 65  2  0  0  0  0
 29 30  2  0  0  0  0
 29 49  1  0  0  0  0
 29 65  1  0  0  0  0
 30 57  1  0  0  0  0
 30 63  1  0  0  0  0
 31 66  1  0  0  0  0
 31 69  1  0  0  0  0
 32 70  1  0  0  0  0
 32 75  2  0  0  0  0
 33 47  1  0  0  0  0
 33 71  1  0  0  0  0
 33 76  2  0  0  0  0
 34 60  1  0  0  0  0
 34 67  1  0  0  0  0
 34 77  2  0  0  0  0
 35 61  1  0  0  0  0
 35 72  1  0  0  0  0
 35 78  2  0  0  0  0
 36 68  1  0  0  0  0
 36 73  1  0  0  0  0
 36 79  2  0  0  0  0
 37 40  1  0  0  0  0
 38 47  1  0  0  0  0
 39 67  1  0  0  0  0
 40 42  1  0  0  0  0
 41 43  1  0  0  0  0
 41 44  1  0  0  0  0
 42 46  1  0  0  0  0
 43 48  1  0  0  0  0
 44 68  1  0  0  0  0
 45 48  1  0  0  0  0
 45 68  1  0  0  0  0
 46 71  1  0  0  0  0
 47 67  1  0  0  0  0
 48 66  1  0  0  0  0
 50 61  1  0  0  0  0
 51 62  1  0  0  0  0
 52 62  1  0  0  0  0
 53 62  1  0  0  0  0
 54 73  1  0  0  0  0
 55 74  1  0  0  0  0
 56 58  1  0  0  0  0
 57 81  1  0  0  0  0
 58 59  1  0  0  0  0
 59 73  1  0  0  0  0
 60 62  1  0  0  0  0
 60 72  1  0  0  0  0
 61 74  1  0  0  0  0
 64 66  1  0  0  0  0
M  CHG  1  74   1
M  ISO  4  36 100  57 101  73 100  81 101
M  END
> <Batch ID>
0064

> <Smiles>
CNC(C)C(=O)NC(C(=O)N1Cc2cc([101O:1][101CH2:1]c3ncc(CCC[100N:0](C)[100C:0](=O)N4CCCC(n5nc(-c6ccc(Oc7ccc(F)cc7F)cc6)c(C(N)=O)c5N)C4)nc3C)ccc2CC1C(=O)NC1CCCc2ccccc21)C(C)(C)C

> <Shape>
0.317

> <Color>
0.215

> <Negative vol penalty>
0.000

$$$$

  -OEChem-04052318053D

 86 94  0     1  0  0  0  0  0999 V2000
  -21.7121  -22.6670   22.8040 C   0  0  0  0  0  0  0  0  0  0  0  0
  -22.9866  -23.1453   22.5170 C   0  0  0  0  0  0  0  0  0  0  0  0
  -26.3029  -14.3843   21.8700 C   0  0  0  0  0  0  0  0  0  0  0  0
  -26.1647  -14.1597   19.4685 C   0  0  0  0  0  0  0  0  0  0  0  0
  -20.6148  -23.5243   22.7332 C   0  0  0  0  0  0  0  0  0  0  0  0
  -23.1643  -24.4810   22.1581 C   0  0  0  0  0  0  0  0  0  0  0  0
  -27.0959  -26.6221   24.5252 C   0  0  0  0  0  0  0  0  0  0  0  0
  -25.3999  -13.3320   22.0204 C   0  0  0  0  0  0  0  0  0  0  0  0
  -25.2617  -13.1073   19.6189 C   0  0  0  0  0  0  0  0  0  0  0  0
  -28.3689  -26.3292   24.0379 C   0  0  0  0  0  0  0  0  0  0  0  0
  -25.3794   -9.8142   20.3684 C   0  0  0  0  0  0  0  0  0  0  0  0
  -25.5756   -8.6770   19.5850 C   0  0  0  0  0  0  0  0  0  0  0  0
  -28.3996  -28.4383   22.8675 C   0  0  0  0  0  0  0  0  0  0  0  0
  -23.3951   -8.9856   18.5912 C   0  0  0  0  0  0  0  0  0  0  0  0
  -28.6173  -25.8515   19.6064 C   0  0  0  0  0  0  0  0  0  0  0  0
  -26.6853  -14.7983   20.5940 C   0  0  0  0  0  0  0  0  0  0  0  0
  -29.0209  -15.7985   20.3652 C   0  0  0  0  0  0  0  0  0  0  0  0
  -20.7804  -24.8734   22.3826 C   0  0  0  0  0  0  0  0  0  0  0  0
  -26.4596  -27.8224   24.1779 C   0  0  0  0  0  0  0  0  0  0  0  0
  -22.0680  -25.3567   22.0813 C   0  0  0  0  0  0  0  0  0  0  0  0
  -27.1195  -28.7452   23.3538 C   0  0  0  0  0  0  0  0  0  0  0  0
  -29.8870  -25.3194   19.5113 C   0  0  0  0  0  0  0  0  0  0  0  0
  -24.8792  -12.6935   20.8949 C   0  0  0  0  0  0  0  0  0  0  0  0
  -29.0198  -27.2361   23.2066 C   0  0  0  0  0  0  0  0  0  0  0  0
  -24.1911  -10.5371   20.2633 C   0  0  0  0  0  0  0  0  0  0  0  0
  -24.5835   -8.2627   18.6963 C   0  0  0  0  0  0  0  0  0  0  0  0
  -23.1990  -10.1228   19.3747 C   0  0  0  0  0  0  0  0  0  0  0  0
  -27.6177  -15.8857   20.4380 C   0  0  0  0  0  0  0  0  0  0  0  0
  -29.9759  -24.0962   18.8787 C   0  0  0  0  0  0  0  0  0  0  0  0
  -29.4385  -17.0987   20.2187 C   0  0  0  0  0  0  0  0  0  0  0  0
  -27.7301  -24.0572   18.5293 C   0  0  0  0  0  0  0  0  0  0  0  0
  -29.8708  -14.6453   20.4246 C   0  0  0  0  0  0  0  0  0  0  0  0
  -23.7931  -28.5793   22.6221 C   0  0  0  0  0  0  0  0  0  0  0  0
  -24.5698  -31.5894   23.5483 C   0  0  0  0  0  0  0  0  0  0  0  0
  -26.6583  -21.8537   17.9971 C   0  0  0  0  0  0  0  0  0  0  0  0
  -26.9932  -33.7873   24.5198 C   0  0  0  0  0  0  0  0  0  0  0  0
  -19.5582  -25.7504   22.2735 C   0  0  0  0  0  0  0  0  0  0  0  0
  -25.0973  -28.1354   24.7335 C   0  0  0  0  0  0  0  0  0  0  0  0
  -26.4881  -30.0570   22.9677 C   0  0  0  0  0  0  0  0  0  0  0  0
  -19.8794  -27.2426   22.2499 C   0  0  0  0  0  0  0  0  0  0  0  0
  -28.1879  -21.5844   21.2857 C   0  0  0  0  0  0  0  0  0  0  0  0
  -21.0224  -27.5274   21.2808 C   0  0  0  0  0  0  0  0  0  0  0  0
  -28.3150  -20.0695   21.4405 C   0  0  0  0  0  0  0  0  0  0  0  0
  -26.9221  -21.9664   20.5228 C   0  0  0  0  0  0  0  0  0  0  0  0
  -26.9288  -19.7930   19.3393 C   0  0  0  0  0  0  0  0  0  0  0  0
  -22.3045  -26.8052   21.7123 C   0  0  1  0  0  0  0  0  0  0  0  0
  -24.3324  -29.1584   23.8993 C   0  0  1  0  0  0  0  0  0  0  0  0
  -28.2083  -19.3645   20.0770 C   0  0  2  0  0  0  0  0  0  0  0  0
  -31.2421  -22.2607   17.7324 C   0  0  0  0  0  0  0  0  0  0  0  0
  -27.3294  -36.1870   25.1720 C   0  0  0  0  0  0  0  0  0  0  0  0
  -27.3427  -23.5597   15.4769 C   0  0  0  0  0  0  0  0  0  0  0  0
  -25.2738  -23.6315   18.8665 C   0  0  0  0  0  0  0  0  0  0  0  0
  -24.3438  -32.4146   20.6195 C   0  0  0  0  0  0  0  0  0  0  0  0
  -25.5860  -34.5129   21.1871 C   0  0  0  0  0  0  0  0  0  0  0  0
  -23.3732  -34.0513   22.2423 C   0  0  0  0  0  0  0  0  0  0  0  0
  -27.9743  -33.0395   27.2100 C   0  0  0  0  0  0  0  0  0  0  0  0
  -31.0827  -26.0477   20.0712 C   0  0  0  0  0  0  0  0  0  0  0  0
  -31.2996  -23.4245   18.7175 C   0  0  0  0  0  0  0  0  0  0  0  0
  -31.5929  -25.4693   21.3928 C   0  0  0  0  0  0  0  0  0  0  0  0
  -30.5824  -25.5763   22.5289 C   0  0  0  0  0  0  0  0  0  1  0  0
  -25.3927  -32.7101   22.9601 C   0  0  1  0  0  0  0  0  0  0  0  0
  -27.0535  -34.7767   25.6695 C   0  0  2  0  0  0  0  0  0  0  0  0
  -26.2279  -23.7914   16.4964 C   0  0  1  0  0  0  0  0  0  0  0  0
  -26.5323  -23.3563   17.9831 C   0  0  1  0  0  0  0  0  0  0  0  0
  -24.6853  -33.3967   21.7578 C   0  0  0  0  0  0  0  0  0  0  0  0
  -27.5125  -25.2453   19.1246 N   0  0  0  0  0  0  0  0  0  0  0  0
  -27.1736  -17.1419   20.3456 N   0  0  0  0  0  0  0  0  0  0  0  0
  -28.9140  -23.4343   18.3741 N   0  0  0  0  0  0  0  0  0  0  0  0
  -28.3043  -17.8562   20.2133 N   0  0  0  0  0  0  0  0  0  0  0  0
  -25.1526  -30.3143   23.5312 N   0  0  0  0  0  0  0  0  0  0  0  0
  -26.8443  -21.2531   19.2424 N   0  0  0  0  0  0  0  0  0  0  0  0
  -30.6616  -17.6566   20.0955 N   0  0  0  0  0  0  0  0  0  0  0  0
  -29.2771  -13.3849   20.5774 N   0  0  0  0  0  0  0  0  0  0  0  0
  -22.9376  -27.5098   22.8064 N   0  0  0  0  0  0  0  0  0  0  0  0
  -25.7036  -33.6113   24.0645 N   0  0  0  0  0  0  0  0  0  0  0  0
  -28.1322  -34.3958   26.6246 N   0  3  0  0  0  0  0  0  0  0  0  0
  -31.1206  -14.7316   20.3610 O   0  0  0  0  0  0  0  0  0  0  0  0
  -24.1270  -29.0675   21.5489 O   0  0  0  0  0  0  0  0  0  0  0  0
  -23.4542  -31.8375   24.0125 O   0  0  0  0  0  0  0  0  0  0  0  0
  -26.5958  -21.2345   16.9318 O   0  0  0  0  0  0  0  0  0  0  0  0
  -27.9908  -33.2293   24.0681 O   0  0  0  0  0  0  0  0  0  0  0  0
  -25.9082  -25.1855   16.4488 O   0  0  0  0  0  0  0  0  0  0  0  0
  -23.9982  -11.6664   21.0413 O   0  0  0  0  0  0  0  0  0  0  0  0
  -30.2621  -26.9524   22.7290 O   0  0  0  0  0  0  0  0  0  1  0  0
  -24.7726   -7.1714   17.9429 F   0  0  0  0  0  0  0  0  0  0  0  0
  -22.0558  -10.8139   19.2684 F   0  0  0  0  0  0  0  0  0  0  0  0
  1  2  1  0  0  0  0
  1  5  2  0  0  0  0
  2  6  2  0  0  0  0
  3  8  2  0  0  0  0
  3 16  1  0  0  0  0
  4  9  1  0  0  0  0
  4 16  2  0  0  0  0
  5 18  1  0  0  0  0
  6 20  1  0  0  0  0
  7 10  2  0  0  0  0
  7 19  1  0  0  0  0
  8 23  1  0  0  0  0
  9 23  2  0  0  0  0
 10 24  1  0  0  0  0
 11 12  2  0  0  0  0
 11 25  1  0  0  0  0
 12 26  1  0  0  0  0
 13 21  1  0  0  0  0
 13 24  2  0  0  0  0
 14 26  2  0  0  0  0
 14 27  1  0  0  0  0
 15 22  1  0  0  0  0
 15 66  2  0  0  0  0
 16 28  1  0  0  0  0
 17 28  1  0  0  0  0
 17 30  2  0  0  0  0
 17 32  1  0  0  0  0
 18 20  2  0  0  0  0
 18 37  1  0  0  0  0
 19 21  2  0  0  0  0
 19 38  1  0  0  0  0
 20 46  1  0  0  0  0
 21 39  1  0  0  0  0
 22 29  2  0  0  0  0
 22 57  1  0  0  0  0
 23 83  1  0  0  0  0
 24 84  1  0  0  0  0
 25 27  2  0  0  0  0
 25 83  1  0  0  0  0
 26 85  1  0  0  0  0
 27 86  1  0  0  0  0
 28 67  2  0  0  0  0
 29 58  1  0  0  0  0
 29 68  1  0  0  0  0
 30 69  1  0  0  0  0
 30 72  1  0  0  0  0
 31 64  1  0  0  0  0
 31 66  1  0  0  0  0
 31 68  2  0  0  0  0
 32 73  1  0  0  0  0
 32 77  2  0  0  0  0
 33 47  1  0  0  0  0
 33 74  1  0  0  0  0
 33 78  2  0  0  0  0
 34 61  1  0  0  0  0
 34 70  1  0  0  0  0
 34 79  2  0  0  0  0
 35 64  1  0  0  0  0
 35 71  1  0  0  0  0
 35 80  2  0  0  0  0
 36 62  1  0  0  0  0
 36 75  1  0  0  0  0
 36 81  2  0  0  0  0
 37 40  1  0  0  0  0
 38 47  1  0  0  0  0
 39 70  1  0  0  0  0
 40 42  1  0  0  0  0
 41 43  1  0  0  0  0
 41 44  1  0  0  0  0
 42 46  1  0  0  0  0
 43 48  1  0  0  0  0
 44 71  1  0  0  0  0
 45 48  1  0  0  0  0
 45 71  1  0  0  0  0
 46 74  1  0  0  0  0
 47 70  1  0  0  0  0
 48 69  1  0  0  0  0
 49 58  1  0  0  0  0
 50 62  1  0  0  0  0
 51 63  1  0  0  0  0
 52 64  1  0  0  0  0
 53 65  1  0  0  0  0
 54 65  1  0  0  0  0
 55 65  1  0  0  0  0
 56 76  1  0  0  0  0
 57 59  1  0  0  0  0
 59 60  1  0  0  0  0
 60 84  1  0  0  0  0
 61 65  1  0  0  0  0
 61 75  1  0  0  0  0
 62 76  1  0  0  0  0
 63 64  1  0  0  0  0
 63 82  1  0  0  0  0
 67 69  1  0  0  0  0
M  CHG  1  76   1
M  ISO  4  35 100  60 101  64 100  84 101
M  END
> <Batch ID>
0064

> <Smiles>
CCc1nc([100C:0](C)(C(C)O)[100C:0](=O)N2CCCC(n3nc(-c4ccc(Oc5ccc(F)cc5F)cc4)c(C(N)=O)c3N)C2)ncc1CC[101CH2:1][101O:1]c1ccc2c(c1)CN(C(=O)C(NC(=O)C(C)NC)C(C)(C)C)C(C(=O)NC1CCCc3ccccc31)C2

> <Shape>
0.251

> <Color>
0.076

> <Negative vol penalty>
0.000

$$$$

  -OEChem-04052318053D

 94102  0     1  0  0  0  0  0999 V2000
  -17.6688  -26.1842   19.8409 C   0  0  0  0  0  0  0  0  0  0  0  0
  -18.9362  -26.4889   19.3547 C   0  0  0  0  0  0  0  0  0  0  0  0
  -24.0098  -14.5516   21.0382 C   0  0  0  0  0  0  0  0  0  0  0  0
  -26.3311  -14.6535   21.7002 C   0  0  0  0  0  0  0  0  0  0  0  0
  -17.3218  -26.5322   21.1457 C   0  0  0  0  0  0  0  0  0  0  0  0
  -19.8570  -27.1427   20.1727 C   0  0  0  0  0  0  0  0  0  0  0  0
  -25.9293  -26.3505   20.2465 C   0  0  0  0  0  0  0  0  0  0  0  0
  -24.1778  -13.2214   20.6537 C   0  0  0  0  0  0  0  0  0  0  0  0
  -26.4991  -13.3232   21.3158 C   0  0  0  0  0  0  0  0  0  0  0  0
  -26.9757  -27.0668   19.6672 C   0  0  0  0  0  0  0  0  0  0  0  0
  -23.9044   -9.6904   19.8338 C   0  0  0  0  0  0  0  0  0  0  0  0
  -22.9247   -8.7753   20.2190 C   0  0  0  0  0  0  0  0  0  0  0  0
  -27.2901  -28.2685   21.7351 C   0  0  0  0  0  0  0  0  0  0  0  0
  -23.3658   -9.2802   22.5402 C   0  0  0  0  0  0  0  0  0  0  0  0
  -30.4584  -23.8765   19.4996 C   0  0  0  0  0  0  0  0  0  0  0  0
  -25.0865  -15.2677   21.5614 C   0  0  0  0  0  0  0  0  0  0  0  0
  -24.5313  -17.1191   23.2263 C   0  0  0  0  0  0  0  0  0  0  0  0
  -18.2421  -27.1820   21.9832 C   0  0  0  0  0  0  0  0  0  0  0  0
  -25.5475  -26.5960   21.5733 C   0  0  0  0  0  0  0  0  0  0  0  0
  -19.5215  -27.5009   21.4895 C   0  0  0  0  0  0  0  0  0  0  0  0
  -26.2401  -27.5522   22.3297 C   0  0  0  0  0  0  0  0  0  0  0  0
  -25.4224  -12.6072   20.7925 C   0  0  0  0  0  0  0  0  0  0  0  0
  -27.6544  -28.0279   20.4106 C   0  0  0  0  0  0  0  0  0  0  0  0
  -24.6149  -10.4003   20.8017 C   0  0  0  0  0  0  0  0  0  0  0  0
  -22.6554   -8.5702   21.5722 C   0  0  0  0  0  0  0  0  0  0  0  0
  -24.3455  -10.1953   22.1549 C   0  0  0  0  0  0  0  0  0  0  0  0
  -24.9137  -16.6420   21.9582 C   0  0  0  0  0  0  0  0  0  0  0  0
  -29.9748  -23.2763   20.6412 C   0  0  0  0  0  0  0  0  0  0  0  0
  -30.6993  -25.8458   20.6368 C   0  0  0  0  0  0  0  0  0  0  0  0
  -30.2150  -25.2459   21.7783 C   0  0  0  0  0  0  0  0  0  0  0  0
  -24.5118  -18.4854   23.0876 C   0  0  0  0  0  0  0  0  0  0  0  0
  -24.2216  -16.3921   24.4227 C   0  0  0  0  0  0  0  0  0  0  0  0
  -22.8955  -27.6266   22.9904 C   0  0  0  0  0  0  0  0  0  0  0  0
  -24.5398  -26.9352   25.6997 C   0  0  0  0  0  0  0  0  0  0  0  0
  -27.5626  -26.4976   27.2223 C   0  0  0  0  0  0  0  0  0  0  0  0
  -27.3426  -22.1917   19.6442 C   0  0  0  0  0  0  0  0  0  0  0  0
  -17.8052  -27.5804   23.3707 C   0  0  0  0  0  0  0  0  0  0  0  0
  -24.4341  -25.7960   22.1920 C   0  0  0  0  0  0  0  0  0  0  0  0
  -25.8825  -27.8391   23.7644 C   0  0  0  0  0  0  0  0  0  0  0  0
  -18.9660  -27.9368   24.2959 C   0  0  0  0  0  0  0  0  0  0  0  0
  -23.8270  -21.9195   19.8396 C   0  0  0  0  0  0  0  0  0  0  0  0
  -19.9474  -28.8653   23.5877 C   0  0  0  0  0  0  0  0  0  0  0  0
  -23.6662  -20.5646   20.5276 C   0  0  0  0  0  0  0  0  0  0  0  0
  -24.9611  -21.9115   18.8128 C   0  0  0  0  0  0  0  0  0  0  0  0
  -26.0958  -20.0899   20.0445 C   0  0  0  0  0  0  0  0  0  0  0  0
  -20.5563  -28.1873   22.3544 C   0  0  1  0  0  0  0  0  0  0  0  0
  -23.7937  -26.4903   23.3900 C   0  0  1  0  0  0  0  0  0  0  0  0
  -25.0022  -20.0882   21.1237 C   0  0  2  0  0  0  0  0  0  0  0  0
  -31.2852  -27.0012   25.0461 C   0  0  0  0  0  0  0  0  0  0  0  0
  -29.1914  -25.9169   29.0408 C   0  0  0  0  0  0  0  0  0  0  0  0
  -29.2923  -28.8510   17.5311 C   0  0  0  0  0  0  0  0  0  0  0  0
  -23.9621  -29.7838   26.6281 C   0  0  0  0  0  0  0  0  0  0  0  0
  -25.7598  -29.5131   28.3495 C   0  0  0  0  0  0  0  0  0  0  0  0
  -23.7461  -28.0420   28.4096 C   0  0  0  0  0  0  0  0  0  0  0  0
  -27.6182  -23.6488   26.4222 C   0  0  0  0  0  0  0  0  0  0  0  0
  -31.1107  -27.2964   20.6248 C   0  0  0  0  0  0  0  0  0  0  0  0
  -30.0751  -26.0030   23.0546 C   0  0  0  0  0  0  0  0  0  0  0  0
  -31.4250  -26.1991   23.7620 C   0  0  0  0  0  0  0  0  0  0  0  0
  -30.9003  -27.9885   19.2702 C   0  0  0  0  0  0  0  0  0  0  0  0
  -28.8815  -20.3859   18.7632 C   0  0  0  0  0  0  0  0  0  0  0  0
  -29.5754  -21.8423   20.6295 C   0  0  1  0  0  0  0  0  0  0  0  0
  -25.4805  -27.6958   26.6029 C   0  0  1  0  0  0  0  0  0  0  0  0
  -28.0799  -25.4036   28.1387 C   0  0  2  0  0  0  0  0  0  0  0  0
  -29.4328  -28.0711   18.8322 C   0  0  1  0  0  0  0  0  0  1  0  0
  -24.7428  -28.7548   27.4699 C   0  0  0  0  0  0  0  0  0  0  0  0
  -29.9988  -20.6648   17.7895 C   0  0  0  0  0  0  0  0  0  0  0  0
  -29.0766  -21.3344   21.9857 C   0  0  0  0  0  0  0  0  0  0  0  0
  -30.8294  -25.1720   19.4769 N   0  0  0  0  0  0  0  0  0  0  0  0
  -25.1219  -17.6254   21.0787 N   0  0  0  0  0  0  0  0  0  0  0  0
  -29.8443  -23.9503   21.8011 N   0  0  0  0  0  0  0  0  0  0  0  0
  -24.8693  -18.7340   21.7951 N   0  0  0  0  0  0  0  0  0  0  0  0
  -24.7826  -27.0353   24.3225 N   0  0  0  0  0  0  0  0  0  0  0  0
  -26.2046  -21.4058   19.4101 N   0  0  0  0  0  0  0  0  0  0  0  0
  -24.2237  -19.4864   23.9463 N   0  0  0  0  0  0  0  0  0  0  0  0
  -24.2912  -14.9927   24.3911 N   0  0  0  0  0  0  0  0  0  0  0  0
  -21.5875  -27.2519   22.7493 N   0  0  0  0  0  0  0  0  0  0  0  0
  -26.2061  -26.6924   27.3744 N   0  0  0  0  0  0  0  0  0  0  0  0
  -28.5881  -21.5473   19.6007 N   0  0  0  0  0  0  0  0  0  0  0  0
  -28.6126  -24.2655   27.3375 N   0  3  0  0  0  0  0  0  0  0  0  0
  -23.8769  -16.9658   25.4836 O   0  0  0  0  0  0  0  0  0  0  0  0
  -23.3548  -28.7598   22.9085 O   0  0  0  0  0  0  0  0  0  0  0  0
  -23.6278  -26.2709   26.1982 O   0  0  0  0  0  0  0  0  0  0  0  0
  -28.2899  -27.1200   26.4514 O   0  0  0  0  0  0  0  0  0  0  0  0
  -27.2519  -23.4020   19.8871 O   0  0  0  0  0  0  0  0  0  0  0  0
  -25.5867  -11.3091   20.4177 O   0  0  0  0  0  0  0  0  0  0  0  0
  -28.6758  -28.7289   19.8473 O   0  0  0  0  0  0  0  0  0  1  0  0
  -21.7135   -7.6926   21.9419 F   0  0  0  0  0  0  0  0  0  0  0  0
  -25.0240  -10.8753   23.0893 F   0  0  0  0  0  0  0  0  0  0  0  0
  -30.2648  -19.5863   17.0224 F   0  0  0  0  0  0  0  0  0  0  0  0
  -29.6947  -21.6957   16.9728 F   0  0  0  0  0  0  0  0  0  0  0  0
  -31.1327  -20.9869   18.4506 F   0  0  0  0  0  0  0  0  0  0  0  0
  -30.0262  -21.4233   22.9406 F   0  0  0  0  0  0  0  0  0  0  0  0
  -28.0021  -22.0375   22.4134 F   0  0  0  0  0  0  0  0  0  0  0  0
  -28.6960  -20.0400   21.8992 F   0  0  0  0  0  0  0  0  0  0  0  0
  1  2  1  0  0  0  0
  1  5  2  0  0  0  0
  2  6  2  0  0  0  0
  3  8  2  0  0  0  0
  3 16  1  0  0  0  0
  4  9  1  0  0  0  0
  4 16  2  0  0  0  0
  5 18  1  0  0  0  0
  6 20  1  0  0  0  0
  7 10  2  0  0  0  0
  7 19  1  0  0  0  0
  8 22  1  0  0  0  0
  9 22  2  0  0  0  0
 10 23  1  0  0  0  0
 11 12  2  0  0  0  0
 11 24  1  0  0  0  0
 12 25  1  0  0  0  0
 13 21  1  0  0  0  0
 13 23  2  0  0  0  0
 14 25  2  0  0  0  0
 14 26  1  0  0  0  0
 15 28  1  0  0  0  0
 15 68  2  0  0  0  0
 16 27  1  0  0  0  0
 17 27  1  0  0  0  0
 17 31  2  0  0  0  0
 17 32  1  0  0  0  0
 18 20  2  0  0  0  0
 18 37  1  0  0  0  0
 19 21  2  0  0  0  0
 19 38  1  0  0  0  0
 20 46  1  0  0  0  0
 21 39  1  0  0  0  0
 22 85  1  0  0  0  0
 23 86  1  0  0  0  0
 24 26  2  0  0  0  0
 24 85  1  0  0  0  0
 25 87  1  0  0  0  0
 26 88  1  0  0  0  0
 27 69  2  0  0  0  0
 28 61  1  0  0  0  0
 28 70  2  0  0  0  0
 29 30  2  0  0  0  0
 29 56  1  0  0  0  0
 29 68  1  0  0  0  0
 30 57  1  0  0  0  0
 30 70  1  0  0  0  0
 31 71  1  0  0  0  0
 31 74  1  0  0  0  0
 32 75  1  0  0  0  0
 32 80  2  0  0  0  0
 33 47  1  0  0  0  0
 33 76  1  0  0  0  0
 33 81  2  0  0  0  0
 34 62  1  0  0  0  0
 34 72  1  0  0  0  0
 34 82  2  0  0  0  0
 35 63  1  0  0  0  0
 35 77  1  0  0  0  0
 35 83  2  0  0  0  0
 36 73  1  0  0  0  0
 36 78  1  0  0  0  0
 36 84  2  0  0  0  0
 37 40  1  0  0  0  0
 38 47  1  0  0  0  0
 39 72  1  0  0  0  0
 40 42  1  0  0  0  0
 41 43  1  0  0  0  0
 41 44  1  0  0  0  0
 42 46  1  0  0  0  0
 43 48  1  0  0  0  0
 44 73  1  0  0  0  0
 45 48  1  0  0  0  0
 45 73  1  0  0  0  0
 46 76  1  0  0  0  0
 47 72  1  0  0  0  0
 48 71  1  0  0  0  0
 49 58  1  0  0  0  0
 50 63  1  0  0  0  0
 51 64  1  0  0  0  0
 52 65  1  0  0  0  0
 53 65  1  0  0  0  0
 54 65  1  0  0  0  0
 55 79  1  0  0  0  0
 56 59  1  0  0  0  0
 57 58  1  0  0  0  0
 59 64  1  0  0  0  0
 60 66  1  0  0  0  0
 60 78  1  0  0  0  0
 61 67  1  0  0  0  0
 61 78  1  0  0  0  0
 62 65  1  0  0  0  0
 62 77  1  0  0  0  0
 63 79  1  0  0  0  0
 64 86  1  0  0  0  0
 66 89  1  0  0  0  0
 66 90  1  0  0  0  0
 66 91  1  0  0  0  0
 67 92  1  0  0  0  0
 67 93  1  0  0  0  0
 67 94  1  0  0  0  0
 69 71  1  0  0  0  0
M  CHG  1  79   1
M  ISO  4  36 100  64 101  78 100  86 101
M  END
> <Batch ID>
0064

> <Smiles>
CCCc1nc(C([100N:0](CC(F)(F)F)[100C:0](=O)N2CCCC(n3nc(-c4ccc(Oc5ccc(F)cc5F)cc4)c(C(N)=O)c3N)C2)C(F)(F)F)cnc1CC[101CH:1](C)[101O:1]c1ccc2c(c1)CN(C(=O)C(NC(=O)C(C)NC)C(C)(C)C)C(C(=O)NC1CCCc3ccccc31)C2

> <Shape>
0.214

> <Color>
0.088

> <Negative vol penalty>
0.000

$$$$

  -OEChem-04052318053D

 90 98  0     1  0  0  0  0  0999 V2000
  -23.6346   -7.7681   21.3229 C   0  0  0  0  0  0  0  0  0  0  0  0
  -24.2415   -8.7966   20.6094 C   0  0  0  0  0  0  0  0  0  0  0  0
  -22.6364  -29.8887   21.2809 C   0  0  0  0  0  0  0  0  0  0  0  0
  -23.8557  -29.0661   23.1976 C   0  0  0  0  0  0  0  0  0  0  0  0
  -22.4183   -7.9912   21.9669 C   0  0  0  0  0  0  0  0  0  0  0  0
  -23.6318  -10.0487   20.5385 C   0  0  0  0  0  0  0  0  0  0  0  0
  -26.8990  -13.8453   21.2843 C   0  0  0  0  0  0  0  0  0  0  0  0
  -21.5389  -30.1631   22.0968 C   0  0  0  0  0  0  0  0  0  0  0  0
  -22.7581  -29.3406   24.0136 C   0  0  0  0  0  0  0  0  0  0  0  0
  -27.7240  -14.1945   20.2161 C   0  0  0  0  0  0  0  0  0  0  0  0
  -19.0086  -28.4403   23.5300 C   0  0  0  0  0  0  0  0  0  0  0  0
  -17.7481  -28.0609   23.0687 C   0  0  0  0  0  0  0  0  0  0  0  0
  -26.2635  -16.0440   19.7007 C   0  0  0  0  0  0  0  0  0  0  0  0
  -17.0242  -30.3645   23.1521 C   0  0  0  0  0  0  0  0  0  0  0  0
  -31.3891  -21.7069   19.9659 C   0  0  0  0  0  0  0  0  0  0  0  0
  -30.3471  -21.4299   18.0032 C   0  0  0  0  0  0  0  0  0  0  0  0
  -23.7948  -29.3401   21.8313 C   0  0  0  0  0  0  0  0  0  0  0  0
  -25.9965  -29.9199   20.6806 C   0  0  0  0  0  0  0  0  0  0  0  0
  -21.7982   -9.2494   21.9120 C   0  0  0  0  0  0  0  0  0  0  0  0
  -25.7423  -14.5875   21.5626 C   0  0  0  0  0  0  0  0  0  0  0  0
  -22.4054  -10.2885   21.1812 C   0  0  0  0  0  0  0  0  0  0  0  0
  -25.4269  -15.7037   20.7746 C   0  0  0  0  0  0  0  0  0  0  0  0
  -31.5878  -20.4010   19.5754 C   0  0  0  0  0  0  0  0  0  0  0  0
  -30.9285  -20.2258   18.3337 C   0  0  0  0  0  0  0  0  0  0  0  0
  -21.5997  -29.8891   23.4631 C   0  0  0  0  0  0  0  0  0  0  0  0
  -27.4048  -15.2922   19.4222 C   0  0  0  0  0  0  0  0  0  0  0  0
  -19.2769  -29.7818   23.8024 C   0  0  0  0  0  0  0  0  0  0  0  0
  -16.7559  -29.0230   22.8797 C   0  0  0  0  0  0  0  0  0  0  0  0
  -18.2847  -30.7438   23.6135 C   0  0  0  0  0  0  0  0  0  0  0  0
  -24.9287  -29.0559   20.9889 C   0  0  0  0  0  0  0  0  0  0  0  0
  -26.8058  -29.1832   19.8507 C   0  0  0  0  0  0  0  0  0  0  0  0
  -26.2356  -31.2680   21.1065 C   0  0  0  0  0  0  0  0  0  0  0  0
  -22.6289  -13.9499   21.6252 C   0  0  0  0  0  0  0  0  0  0  0  0
  -22.4292  -16.9740   22.7816 C   0  0  0  0  0  0  0  0  0  0  0  0
  -23.8252  -20.0780   23.0324 C   0  0  0  0  0  0  0  0  0  0  0  0
  -27.1575  -23.0912   19.3009 C   0  0  0  0  0  0  0  0  0  0  0  0
  -20.4604   -9.4294   22.5847 C   0  0  0  0  0  0  0  0  0  0  0  0
  -24.8772  -14.2138   22.7349 C   0  0  0  0  0  0  0  0  0  0  0  0
  -24.2073  -16.5454   21.0439 C   0  0  0  0  0  0  0  0  0  0  0  0
  -20.0653  -10.8918   22.7732 C   0  0  0  0  0  0  0  0  0  0  0  0
  -26.6713  -25.6333   16.6546 C   0  0  0  0  0  0  0  0  0  0  0  0
  -20.3036  -11.6791   21.4886 C   0  0  0  0  0  0  0  0  0  0  0  0
  -26.1906  -26.8491   17.4450 C   0  0  0  0  0  0  0  0  0  0  0  0
  -26.2972  -24.3246   17.3438 C   0  0  0  0  0  0  0  0  0  0  0  0
  -26.2789  -25.4494   19.5458 C   0  0  0  0  0  0  0  0  0  0  0  0
  -21.7875  -11.6676   21.1018 C   0  0  1  0  0  0  0  0  0  0  0  0
  -23.4478  -14.7327   22.6122 C   0  0  1  0  0  0  0  0  0  0  0  0
  -26.6805  -26.7850   18.9020 C   0  0  2  0  0  0  0  0  0  0  0  0
  -23.4098  -22.3517   24.0096 C   0  0  0  0  0  0  0  0  0  0  0  0
  -31.4117  -24.6496   18.9991 C   0  0  0  0  0  0  0  0  0  0  0  0
  -32.2923  -19.6267   21.8666 C   0  0  0  0  0  0  0  0  0  0  0  0
  -33.8634  -19.3752   19.9161 C   0  0  0  0  0  0  0  0  0  0  0  0
  -31.8778  -17.8946   20.1317 C   0  0  0  0  0  0  0  0  0  0  0  0
  -30.0360  -19.2201   16.2215 C   0  0  0  0  0  0  0  0  0  0  0  0
  -32.2484  -18.4340   17.0148 C   0  0  0  0  0  0  0  0  0  0  0  0
  -20.4085  -17.5526   20.5699 C   0  0  0  0  0  0  0  0  0  0  0  0
  -20.7538  -19.9966   20.9895 C   0  0  0  0  0  0  0  0  0  0  0  0
  -19.8326  -18.5411   22.7938 C   0  0  0  0  0  0  0  0  0  0  0  0
  -28.1587  -22.1286   21.3382 C   0  0  0  0  0  0  0  0  0  0  0  0
  -26.2563  -19.9273   24.7135 C   0  0  0  0  0  0  0  0  0  0  0  0
  -30.3985  -16.3735   17.7292 C   0  0  0  0  0  0  0  0  0  0  0  0
  -30.1617  -17.7831   18.2847 C   0  0  0  0  0  0  0  0  0  0  0  0
  -29.3152  -24.0145   20.2466 C   0  0  0  0  0  0  0  0  0  0  0  0
  -29.5970  -15.3322   18.5013 C   0  0  0  0  0  0  0  0  0  1  0  0
  -22.2745  -18.3449   22.1688 C   0  0  1  0  0  0  0  0  0  0  0  0
  -24.0484  -20.9887   24.2263 C   0  0  2  0  0  0  0  0  0  0  0  0
  -30.2070  -23.7031   19.0342 C   0  0  2  0  0  0  0  0  0  0  0  0
  -32.3511  -19.3809   20.3215 C   0  0  0  0  0  0  0  0  0  0  0  0
  -30.8657  -18.9340   17.4986 C   0  0  0  0  0  0  0  0  0  0  0  0
  -20.8393  -18.5920   21.6240 C   0  0  0  0  0  0  0  0  0  0  0  0
  -25.0459  -27.8616   20.4024 N   0  0  0  0  0  0  0  0  0  0  0  0
  -30.6338  -22.3230   19.0024 N   0  0  0  0  0  0  0  0  0  0  0  0
  -26.1970  -27.9700   19.7172 N   0  0  0  0  0  0  0  0  0  0  0  0
  -23.3896  -16.1359   22.1976 N   0  0  0  0  0  0  0  0  0  0  0  0
  -26.7367  -24.3079   18.7395 N   0  0  0  0  0  0  0  0  0  0  0  0
  -27.9715  -29.4612   19.2294 N   0  0  0  0  0  0  0  0  0  0  0  0
  -25.3032  -31.8746   21.9590 N   0  0  0  0  0  0  0  0  0  0  0  0
  -22.5300  -12.6033   21.9189 N   0  0  0  0  0  0  0  0  0  0  0  0
  -22.6989  -19.2981   23.1884 N   0  0  0  0  0  0  0  0  0  0  0  0
  -28.1353  -23.1544   20.3052 N   0  0  0  0  0  0  0  0  0  0  0  0
  -25.5067  -21.1851   24.4625 N   0  3  0  0  0  0  0  0  0  0  0  0
  -27.2377  -31.9210   20.7286 O   0  0  0  0  0  0  0  0  0  0  0  0
  -22.1229  -14.5253   20.6689 O   0  0  0  0  0  0  0  0  0  0  0  0
  -21.7289  -16.6609   23.7477 O   0  0  0  0  0  0  0  0  0  0  0  0
  -24.5731  -20.0629   22.0572 O   0  0  0  0  0  0  0  0  0  0  0  0
  -26.6930  -22.0093   18.9192 O   0  0  0  0  0  0  0  0  0  0  0  0
  -20.5290  -30.1570   24.2596 O   0  0  0  0  0  0  0  0  0  0  0  0
  -28.2079  -15.6349   18.3785 O   0  0  0  0  0  0  0  0  0  1  0  0
  -15.5460  -28.6587   22.4352 F   0  0  0  0  0  0  0  0  0  0  0  0
  -18.5369  -32.0343   23.8724 F   0  0  0  0  0  0  0  0  0  0  0  0
  1  2  1  0  0  0  0
  1  5  2  0  0  0  0
  2  6  2  0  0  0  0
  3  8  2  0  0  0  0
  3 17  1  0  0  0  0
  4  9  1  0  0  0  0
  4 17  2  0  0  0  0
  5 19  1  0  0  0  0
  6 21  1  0  0  0  0
  7 10  2  0  0  0  0
  7 20  1  0  0  0  0
  8 25  1  0  0  0  0
  9 25  2  0  0  0  0
 10 26  1  0  0  0  0
 11 12  2  0  0  0  0
 11 27  1  0  0  0  0
 12 28  1  0  0  0  0
 13 22  1  0  0  0  0
 13 26  2  0  0  0  0
 14 28  2  0  0  0  0
 14 29  1  0  0  0  0
 15 23  2  0  0  0  0
 15 72  1  0  0  0  0
 16 24  2  0  0  0  0
 16 72  1  0  0  0  0
 17 30  1  0  0  0  0
 18 30  1  0  0  0  0
 18 31  2  0  0  0  0
 18 32  1  0  0  0  0
 19 21  2  0  0  0  0
 19 37  1  0  0  0  0
 20 22  2  0  0  0  0
 20 38  1  0  0  0  0
 21 46  1  0  0  0  0
 22 39  1  0  0  0  0
 23 24  1  0  0  0  0
 23 68  1  0  0  0  0
 24 69  1  0  0  0  0
 25 87  1  0  0  0  0
 26 88  1  0  0  0  0
 27 29  2  0  0  0  0
 27 87  1  0  0  0  0
 28 89  1  0  0  0  0
 29 90  1  0  0  0  0
 30 71  2  0  0  0  0
 31 73  1  0  0  0  0
 31 76  1  0  0  0  0
 32 77  1  0  0  0  0
 32 82  2  0  0  0  0
 33 47  1  0  0  0  0
 33 78  1  0  0  0  0
 33 83  2  0  0  0  0
 34 65  1  0  0  0  0
 34 74  1  0  0  0  0
 34 84  2  0  0  0  0
 35 66  1  0  0  0  0
 35 79  1  0  0  0  0
 35 85  2  0  0  0  0
 36 75  1  0  0  0  0
 36 80  1  0  0  0  0
 36 86  2  0  0  0  0
 37 40  1  0  0  0  0
 38 47  1  0  0  0  0
 39 74  1  0  0  0  0
 40 42  1  0  0  0  0
 41 43  1  0  0  0  0
 41 44  1  0  0  0  0
 42 46  1  0  0  0  0
 43 48  1  0  0  0  0
 44 75  1  0  0  0  0
 45 48  1  0  0  0  0
 45 75  1  0  0  0  0
 46 78  1  0  0  0  0
 47 74  1  0  0  0  0
 48 73  1  0  0  0  0
 49 66  1  0  0  0  0
 50 67  1  0  0  0  0
 51 68  1  0  0  0  0
 52 68  1  0  0  0  0
 53 68  1  0  0  0  0
 54 69  1  0  0  0  0
 55 69  1  0  0  0  0
 56 70  1  0  0  0  0
 57 70  1  0  0  0  0
 58 70  1  0  0  0  0
 59 80  1  0  0  0  0
 60 81  1  0  0  0  0
 61 62  1  0  0  0  0
 61 64  1  0  0  0  0
 62 69  1  0  0  0  0
 63 67  1  0  0  0  0
 63 80  1  0  0  0  0
 64 88  1  0  0  0  0
 65 70  1  0  0  0  0
 65 79  1  0  0  0  0
 66 81  1  0  0  0  0
 67 72  1  0  0  0  0
 71 73  1  0  0  0  0
M  CHG  1  81   1
M  ISO  4  36 100  64 101  80 100  88 101
M  END
> <Batch ID>
0064

> <Smiles>
CNC(C)C(=O)NC(C(=O)N1Cc2cc([101O:1][101CH2:1]CCC(C)(C)c3cn(C(C)C[100N:0](C)[100C:0](=O)N4CCCC(n5nc(-c6ccc(Oc7ccc(F)cc7F)cc6)c(C(N)=O)c5N)C4)cc3C(C)(C)C)ccc2CC1C(=O)NC1CCCc2ccccc21)C(C)(C)C

> <Shape>
0.241

> <Color>
0.085

> <Negative vol penalty>
0.000

$$$$

  -OEChem-04052318053D

 91 99  0     1  0  0  0  0  0999 V2000
  -16.4414  -28.9839   23.4230 C   0  0  0  0  0  0  0  0  0  0  0  0
  -17.1927  -28.1496   22.6015 C   0  0  0  0  0  0  0  0  0  0  0  0
  -24.0274  -13.0290   19.3739 C   0  0  0  0  0  0  0  0  0  0  0  0
  -25.4543  -12.5396   21.2611 C   0  0  0  0  0  0  0  0  0  0  0  0
  -16.9777  -30.1928   23.8644 C   0  0  0  0  0  0  0  0  0  0  0  0
  -18.4805  -28.5243   22.2199 C   0  0  0  0  0  0  0  0  0  0  0  0
  -23.2809  -24.8257   21.3359 C   0  0  0  0  0  0  0  0  0  0  0  0
  -24.3502  -11.7948   18.8098 C   0  0  0  0  0  0  0  0  0  0  0  0
  -25.7771  -11.3054   20.6970 C   0  0  0  0  0  0  0  0  0  0  0  0
  -23.8430  -24.2774   20.1838 C   0  0  0  0  0  0  0  0  0  0  0  0
  -23.4579   -8.5592   19.2190 C   0  0  0  0  0  0  0  0  0  0  0  0
  -22.4167   -7.7951   18.6920 C   0  0  0  0  0  0  0  0  0  0  0  0
  -25.4483  -26.0768   20.1179 C   0  0  0  0  0  0  0  0  0  0  0  0
  -23.4730   -7.8538   16.5199 C   0  0  0  0  0  0  0  0  0  0  0  0
  -29.1162  -22.6169   19.8469 C   0  0  0  0  0  0  0  0  0  0  0  0
  -24.5795  -13.4014   20.5996 C   0  0  0  0  0  0  0  0  0  0  0  0
  -23.1830  -14.9582   22.0603 C   0  0  0  0  0  0  0  0  0  0  0  0
  -18.2764  -30.5780   23.4960 C   0  0  0  0  0  0  0  0  0  0  0  0
  -23.7923  -26.0116   21.8823 C   0  0  0  0  0  0  0  0  0  0  0  0
  -19.0342  -29.7401   22.6557 C   0  0  0  0  0  0  0  0  0  0  0  0
  -24.8926  -26.6367   21.2785 C   0  0  0  0  0  0  0  0  0  0  0  0
  -25.2250  -10.9330   19.4714 C   0  0  0  0  0  0  0  0  0  0  0  0
  -24.9250  -24.9046   19.5730 C   0  0  0  0  0  0  0  0  0  0  0  0
  -24.5066   -8.9707   18.3964 C   0  0  0  0  0  0  0  0  0  0  0  0
  -22.4243   -7.4424   17.3425 C   0  0  0  0  0  0  0  0  0  0  0  0
  -24.5142   -8.6179   17.0469 C   0  0  0  0  0  0  0  0  0  0  0  0
  -24.2469  -14.6764   21.1826 C   0  0  0  0  0  0  0  0  0  0  0  0
  -29.0693  -21.4834   20.6191 C   0  0  0  0  0  0  0  0  0  0  0  0
  -23.2999  -16.3016   22.3214 C   0  0  0  0  0  0  0  0  0  0  0  0
  -22.1789  -14.0838   22.5922 C   0  0  0  0  0  0  0  0  0  0  0  0
  -22.6292  -28.9222   22.4105 C   0  0  0  0  0  0  0  0  0  0  0  0
  -25.4821  -29.3702   23.8878 C   0  0  0  0  0  0  0  0  0  0  0  0
  -28.0189  -19.9040   22.1523 C   0  0  0  0  0  0  0  0  0  0  0  0
  -28.7524  -28.4501   24.2131 C   0  0  0  0  0  0  0  0  0  0  0  0
  -18.7957  -31.9160   23.9593 C   0  0  0  0  0  0  0  0  0  0  0  0
  -23.1918  -26.5757   23.1407 C   0  0  0  0  0  0  0  0  0  0  0  0
  -25.4917  -27.9006   21.8371 C   0  0  0  0  0  0  0  0  0  0  0  0
  -20.3080  -32.0656   23.8153 C   0  0  0  0  0  0  0  0  0  0  0  0
  -24.8740  -20.3768   20.3878 C   0  0  0  0  0  0  0  0  0  0  0  0
  -20.7633  -31.5867   22.4404 C   0  0  0  0  0  0  0  0  0  0  0  0
  -24.2737  -18.9730   20.4517 C   0  0  0  0  0  0  0  0  0  0  0  0
  -26.3932  -20.3317   20.2455 C   0  0  0  0  0  0  0  0  0  0  0  0
  -26.4760  -18.1322   21.3767 C   0  0  0  0  0  0  0  0  0  0  0  0
  -20.4442  -30.1002   22.2404 C   0  0  1  0  0  0  0  0  0  0  0  0
  -23.4663  -28.0658   23.3180 C   0  0  1  0  0  0  0  0  0  0  0  0
  -24.9481  -18.1339   21.5511 C   0  0  2  0  0  0  0  0  0  0  0  0
  -30.3068  -22.8624   23.0929 C   0  0  0  0  0  0  0  0  0  0  0  0
  -30.8442  -29.0243   25.4747 C   0  0  0  0  0  0  0  0  0  0  0  0
  -31.5978  -24.8875   18.3276 C   0  0  0  0  0  0  0  0  0  0  0  0
  -25.8668  -31.8309   22.1252 C   0  0  0  0  0  0  0  0  0  0  0  0
  -28.2966  -31.7967   22.7278 C   0  0  0  0  0  0  0  0  0  0  0  0
  -26.5773  -32.1304   24.5042 C   0  0  0  0  0  0  0  0  0  0  0  0
  -32.2597  -22.2417   15.4713 C   0  0  0  0  0  0  0  0  0  0  0  0
  -33.7270  -24.0514   16.3226 C   0  0  0  0  0  0  0  0  0  0  0  0
  -31.5977  -24.6358   15.1633 C   0  0  0  0  0  0  0  0  0  0  0  0
  -28.8970  -25.7559   25.4295 C   0  0  0  0  0  0  0  0  0  0  0  0
  -29.6416  -21.4900   23.0940 C   0  0  0  0  0  0  0  0  0  0  0  0
  -27.6646  -23.4993   16.5668 C   0  0  0  0  0  0  0  0  0  0  0  0
  -26.5835  -24.5492   16.2838 C   0  0  0  0  0  0  0  0  0  0  0  0
  -28.9527  -24.1002   17.1501 C   0  0  0  0  0  0  0  0  0  0  0  0
  -27.2836  -22.2110   22.3341 C   0  0  0  0  0  0  0  0  0  0  0  0
  -26.0691  -25.2769   17.5216 C   0  0  0  0  0  0  0  0  0  1  0  0
  -26.8475  -29.8464   23.4542 C   0  0  1  0  0  0  0  0  0  0  0  0
  -29.5982  -28.1532   25.4382 C   0  0  2  0  0  0  0  0  0  0  0  0
  -31.5061  -23.5701   17.5343 C   0  0  1  0  0  0  0  0  0  0  0  0
  -30.0293  -23.0239   17.4520 C   0  0  1  0  0  0  0  0  0  0  0  0
  -28.5340  -21.3102   21.9756 C   0  0  1  0  0  0  0  0  0  0  0  0
  -26.8848  -31.3784   23.1910 C   0  0  0  0  0  0  0  0  0  0  0  0
  -32.2486  -23.6381   16.1372 C   0  0  0  0  0  0  0  0  0  0  0  0
  -24.9852  -15.7542   20.9044 N   0  0  0  0  0  0  0  0  0  0  0  0
  -29.6186  -20.4365   19.9323 N   0  0  0  0  0  0  0  0  0  0  0  0
  -30.0106  -20.8876   18.7457 N   0  0  0  0  0  0  0  0  0  0  0  0
  -29.7087  -22.1951   18.6966 N   0  0  0  0  0  0  0  0  0  0  0  0
  -24.3843  -16.7263   21.6115 N   0  0  0  0  0  0  0  0  0  0  0  0
  -24.8654  -28.4167   23.0654 N   0  0  0  0  0  0  0  0  0  0  0  0
  -26.9952  -19.5004   21.2947 N   0  0  0  0  0  0  0  0  0  0  0  0
  -22.5798  -17.1492   23.0865 N   0  0  0  0  0  0  0  0  0  0  0  0
  -22.2050  -12.7326   22.2211 N   0  0  0  0  0  0  0  0  0  0  0  0
  -21.4051  -29.2779   22.9440 N   0  0  0  0  0  0  0  0  0  0  0  0
  -27.7822  -29.3932   24.4785 N   0  0  0  0  0  0  0  0  0  0  0  0
  -26.7566  -22.0239   23.7130 N   0  3  0  0  0  0  0  0  0  0  0  0
  -30.0232  -26.7248   25.4405 N   0  3  0  0  0  0  0  0  0  0  0  0
  -21.2753  -14.4922   23.3605 O   0  0  0  0  0  0  0  0  0  0  0  0
  -23.0624  -29.2382   21.3087 O   0  0  0  0  0  0  0  0  0  0  0  0
  -24.9844  -29.8220   24.9221 O   0  0  0  0  0  0  0  0  0  0  0  0
  -28.5110  -19.1883   23.0284 O   0  0  0  0  0  0  0  0  0  0  0  0
  -28.9364  -27.9029   23.1280 O   0  0  0  0  0  0  0  0  0  0  0  0
  -25.5400   -9.7285   18.9213 O   0  0  0  0  0  0  0  0  0  0  0  0
  -25.4793  -24.3679   18.4395 O   0  0  0  0  0  0  0  0  0  1  0  0
  -21.4251   -6.7073   16.8370 F   0  0  0  0  0  0  0  0  0  0  0  0
  -25.5196   -9.0093   16.2520 F   0  0  0  0  0  0  0  0  0  0  0  0
  1  2  1  0  0  0  0
  1  5  2  0  0  0  0
  2  6  2  0  0  0  0
  3  8  2  0  0  0  0
  3 16  1  0  0  0  0
  4  9  1  0  0  0  0
  4 16  2  0  0  0  0
  5 18  1  0  0  0  0
  6 20  1  0  0  0  0
  7 10  2  0  0  0  0
  7 19  1  0  0  0  0
  8 22  1  0  0  0  0
  9 22  2  0  0  0  0
 10 23  1  0  0  0  0
 11 12  2  0  0  0  0
 11 24  1  0  0  0  0
 12 25  1  0  0  0  0
 13 21  1  0  0  0  0
 13 23  2  0  0  0  0
 14 25  2  0  0  0  0
 14 26  1  0  0  0  0
 15 28  2  0  0  0  0
 15 73  1  0  0  0  0
 16 27  1  0  0  0  0
 17 27  1  0  0  0  0
 17 29  2  0  0  0  0
 17 30  1  0  0  0  0
 18 20  2  0  0  0  0
 18 35  1  0  0  0  0
 19 21  2  0  0  0  0
 19 36  1  0  0  0  0
 20 44  1  0  0  0  0
 21 37  1  0  0  0  0
 22 88  1  0  0  0  0
 23 89  1  0  0  0  0
 24 26  2  0  0  0  0
 24 88  1  0  0  0  0
 25 90  1  0  0  0  0
 26 91  1  0  0  0  0
 27 70  2  0  0  0  0
 28 67  1  0  0  0  0
 28 71  1  0  0  0  0
 29 74  1  0  0  0  0
 29 77  1  0  0  0  0
 30 78  1  0  0  0  0
 30 83  2  0  0  0  0
 31 45  1  0  0  0  0
 31 79  1  0  0  0  0
 31 84  2  0  0  0  0
 32 63  1  0  0  0  0
 32 75  1  0  0  0  0
 32 85  2  0  0  0  0
 33 67  1  0  0  0  0
 33 76  1  0  0  0  0
 33 86  2  0  0  0  0
 34 64  1  0  0  0  0
 34 80  1  0  0  0  0
 34 87  2  0  0  0  0
 35 38  1  0  0  0  0
 36 45  1  0  0  0  0
 37 75  1  0  0  0  0
 38 40  1  0  0  0  0
 39 41  1  0  0  0  0
 39 42  1  0  0  0  0
 40 44  1  0  0  0  0
 41 46  1  0  0  0  0
 42 76  1  0  0  0  0
 43 46  1  0  0  0  0
 43 76  1  0  0  0  0
 44 79  1  0  0  0  0
 45 75  1  0  0  0  0
 46 74  1  0  0  0  0
 47 57  1  0  0  0  0
 48 64  1  0  0  0  0
 49 65  1  0  0  0  0
 50 68  1  0  0  0  0
 51 68  1  0  0  0  0
 52 68  1  0  0  0  0
 53 69  1  0  0  0  0
 54 69  1  0  0  0  0
 55 69  1  0  0  0  0
 56 82  1  0  0  0  0
 57 67  1  0  0  0  0
 58 59  1  0  0  0  0
 58 60  1  0  0  0  0
 59 62  1  0  0  0  0
 60 66  1  0  0  0  0
 61 67  1  0  0  0  0
 61 81  1  0  0  0  0
 62 89  1  0  0  0  0
 63 68  1  0  0  0  0
 63 80  1  0  0  0  0
 64 82  1  0  0  0  0
 65 66  1  0  0  0  0
 65 69  1  0  0  0  0
 66 73  1  0  0  0  0
 70 74  1  0  0  0  0
 71 72  2  0  0  0  0
 72 73  1  0  0  0  0
M  CHG  2  81   1  82   1
M  ISO  4  33 100  62 101  67 100  89 101
M  END
> <Batch ID>
0064

> <Smiles>
CC[100C:0](CN)(c1cn(C(CCC[101CH2:1][101O:1]c2ccc3c(c2)CN(C(=O)C(NC(=O)C(C)NC)C(C)(C)C)C(C(=O)NC2CCCc4ccccc42)C3)C(C)C(C)(C)C)nn1)[100C:0](=O)N1CCCC(n2nc(-c3ccc(Oc4ccc(F)cc4F)cc3)c(C(N)=O)c2N)C1

> <Shape>
0.205

> <Color>
0.081

> <Negative vol penalty>
0.000

$$$$

  -OEChem-04052318053D

 94103  0     1  0  0  0  0  0999 V2000
  -22.2130  -35.5666   22.0804 C   0  0  0  0  0  0  0  0  0  0  0  0
  -23.3714  -34.8031   22.1823 C   0  0  0  0  0  0  0  0  0  0  0  0
  -27.4661  -11.3097   20.7409 C   0  0  0  0  0  0  0  0  0  0  0  0
  -26.9501  -12.5070   18.7068 C   0  0  0  0  0  0  0  0  0  0  0  0
  -20.9790  -35.0060   22.4074 C   0  0  0  0  0  0  0  0  0  0  0  0
  -23.2966  -33.4787   22.6123 C   0  0  0  0  0  0  0  0  0  0  0  0
  -26.7808  -28.8002   20.7473 C   0  0  0  0  0  0  0  0  0  0  0  0
  -26.4229  -10.4207   20.4822 C   0  0  0  0  0  0  0  0  0  0  0  0
  -25.9070  -11.6179   18.4481 C   0  0  0  0  0  0  0  0  0  0  0  0
  -27.9079  -28.1921   21.2983 C   0  0  0  0  0  0  0  0  0  0  0  0
  -23.0563  -10.3770   20.7801 C   0  0  0  0  0  0  0  0  0  0  0  0
  -22.2090  -10.0478   21.8380 C   0  0  0  0  0  0  0  0  0  0  0  0
  -26.5017  -26.5080   22.3011 C   0  0  0  0  0  0  0  0  0  0  0  0
  -22.8174   -7.7216   21.6013 C   0  0  0  0  0  0  0  0  0  0  0  0
  -30.2239  -24.6947   18.9472 C   0  0  0  0  0  0  0  0  0  0  0  0
  -27.7297  -12.3529   19.8532 C   0  0  0  0  0  0  0  0  0  0  0  0
  -30.1479  -13.1523   19.7094 C   0  0  0  0  0  0  0  0  0  0  0  0
  -20.8879  -33.6712   22.8324 C   0  0  0  0  0  0  0  0  0  0  0  0
  -25.5024  -28.2721   20.9785 C   0  0  0  0  0  0  0  0  0  0  0  0
  -22.0604  -32.9002   22.9466 C   0  0  0  0  0  0  0  0  0  0  0  0
  -25.3602  -27.1098   21.7498 C   0  0  0  0  0  0  0  0  0  0  0  0
  -25.6434  -10.5747   19.3358 C   0  0  0  0  0  0  0  0  0  0  0  0
  -27.7682  -27.0475   22.0777 C   0  0  0  0  0  0  0  0  0  0  0  0
  -23.7841   -9.3786   20.1326 C   0  0  0  0  0  0  0  0  0  0  0  0
  -22.0896   -8.7201   22.2487 C   0  0  0  0  0  0  0  0  0  0  0  0
  -23.6647   -8.0509   20.5433 C   0  0  0  0  0  0  0  0  0  0  0  0
  -28.8068  -13.2720   20.1202 C   0  0  0  0  0  0  0  0  0  0  0  0
  -30.1790  -24.0969   20.1902 C   0  0  0  0  0  0  0  0  0  0  0  0
  -29.5538  -24.0300   17.9406 C   0  0  0  0  0  0  0  0  0  0  0  0
  -30.7624  -14.2731   20.2122 C   0  0  0  0  0  0  0  0  0  0  0  0
  -28.9176  -22.3888   19.3789 C   0  0  0  0  0  0  0  0  0  0  0  0
  -28.7485  -19.9208   18.7424 C   0  0  0  0  0  0  0  0  0  0  0  0
  -30.7816  -12.1204   18.9418 C   0  0  0  0  0  0  0  0  0  0  0  0
  -22.8556  -29.3365   22.3804 C   0  0  0  0  0  0  0  0  0  0  0  0
  -21.6079  -26.5642   21.2489 C   0  0  0  0  0  0  0  0  0  0  0  0
  -30.7467  -19.7980   21.0867 C   0  0  0  0  0  0  0  0  0  0  0  0
  -22.1447  -23.3644   20.1908 C   0  0  0  0  0  0  0  0  0  0  0  0
  -19.5373  -33.1234   23.2201 C   0  0  0  0  0  0  0  0  0  0  0  0
  -24.2991  -28.9245   20.3549 C   0  0  0  0  0  0  0  0  0  0  0  0
  -24.0119  -26.4916   22.0111 C   0  0  0  0  0  0  0  0  0  0  0  0
  -19.5006  -31.5999   23.3089 C   0  0  0  0  0  0  0  0  0  0  0  0
  -29.1388  -17.7222   23.5252 C   0  0  0  0  0  0  0  0  0  0  0  0
  -20.7055  -31.0813   24.0875 C   0  0  0  0  0  0  0  0  0  0  0  0
  -28.9921  -16.3786   22.8122 C   0  0  0  0  0  0  0  0  0  0  0  0
  -28.9776  -18.8892   22.5560 C   0  0  0  0  0  0  0  0  0  0  0  0
  -29.7555  -17.4930   20.6673 C   0  0  0  0  0  0  0  0  0  0  0  0
  -22.0173  -31.4525   23.3855 C   0  0  1  0  0  0  0  0  0  0  0  0
  -22.9981  -28.5961   21.0807 C   0  0  1  0  0  0  0  0  0  0  0  0
  -29.9420  -16.2869   21.6048 C   0  0  2  0  0  0  0  0  0  0  0  0
  -20.9261  -21.3320   19.3651 C   0  0  0  0  0  0  0  0  0  0  0  0
  -26.6404  -21.1430   19.3087 C   0  0  0  0  0  0  0  0  0  0  0  0
  -28.2473  -20.7541   21.1500 C   0  0  0  0  0  0  0  0  0  0  0  0
  -31.3855  -21.4302   19.3402 C   0  0  0  0  0  0  0  0  0  0  0  0
  -32.4354  -19.1699   19.4558 C   0  0  0  0  0  0  0  0  0  0  0  0
  -20.6882  -25.9623   24.0953 C   0  0  0  0  0  0  0  0  0  0  0  0
  -20.3506  -23.5787   23.4078 C   0  0  0  0  0  0  0  0  0  0  0  0
  -19.0245  -25.3890   22.3183 C   0  0  0  0  0  0  0  0  0  0  0  0
  -23.5770  -23.4148   17.6014 C   0  0  0  0  0  0  0  0  0  0  0  0
  -30.8814  -24.7491   21.3542 C   0  0  0  0  0  0  0  0  0  0  0  0
  -30.2197  -24.4731   22.7060 C   0  0  0  0  0  0  0  0  0  0  0  0
  -28.8091  -25.0403   22.8148 C   0  0  0  0  0  0  0  0  0  1  0  0
  -21.4826  -25.1549   21.7752 C   0  0  1  0  0  0  0  0  0  0  0  0
  -21.6486  -22.6105   18.9701 C   0  0  2  0  0  0  0  0  0  0  0  0
  -29.5447  -24.6010   16.5621 C   0  0  0  0  0  0  0  0  0  0  0  0
  -28.1889  -21.1100   19.6187 C   0  0  0  0  0  0  0  0  0  0  0  0
  -31.1146  -19.9433   19.6316 C   0  0  0  0  0  0  0  0  0  0  0  0
  -20.4119  -25.0337   22.8960 C   0  0  0  0  0  0  0  0  0  0  0  0
  -28.5818  -14.3812   20.8295 N   0  0  0  0  0  0  0  0  0  0  0  0
  -29.5328  -22.9398   20.4426 N   0  0  0  0  0  0  0  0  0  0  0  0
  -28.8879  -22.8706   18.1217 N   0  0  0  0  0  0  0  0  0  0  0  0
  -28.1029  -19.2032   17.8521 N   0  0  0  0  0  0  0  0  0  0  0  0
  -29.0209  -18.2991   17.3674 N   0  0  0  0  0  0  0  0  0  0  0  0
  -30.2031  -18.4616   17.9489 N   0  0  0  0  0  0  0  0  0  0  0  0
  -29.7899  -14.9687   20.8684 N   0  0  0  0  0  0  0  0  0  0  0  0
  -30.0302  -19.4757   18.8080 N   0  0  0  0  0  0  0  0  0  0  0  0
  -22.8650  -27.1699   21.3849 N   0  0  0  0  0  0  0  0  0  0  0  0
  -29.8810  -18.7536   21.4120 N   0  0  0  0  0  0  0  0  0  0  0  0
  -32.0343  -14.7216   20.1527 N   0  0  0  0  0  0  0  0  0  0  0  0
  -30.0036  -11.0399   18.5040 N   0  0  0  0  0  0  0  0  0  0  0  0
  -22.2540  -30.5746   22.2596 N   0  0  0  0  0  0  0  0  0  0  0  0
  -21.2318  -24.3067   20.6150 N   0  0  0  0  0  0  0  0  0  0  0  0
  -22.7915  -22.2500   18.0842 N   0  3  0  0  0  0  0  0  0  0  0  0
  -32.0051  -12.1472   18.6666 O   0  0  0  0  0  0  0  0  0  0  0  0
  -23.2602  -28.8218   23.4163 O   0  0  0  0  0  0  0  0  0  0  0  0
  -20.6283  -27.1051   20.7297 O   0  0  0  0  0  0  0  0  0  0  0  0
  -31.2179  -20.5883   21.9087 O   0  0  0  0  0  0  0  0  0  0  0  0
  -23.2316  -23.1373   20.7177 O   0  0  0  0  0  0  0  0  0  0  0  0
  -24.6255   -9.7072   19.0830 O   0  0  0  0  0  0  0  0  0  0  0  0
  -28.8666  -26.4524   22.6172 O   0  0  0  0  0  0  0  0  0  1  0  0
  -21.2771   -8.4042   23.2656 F   0  0  0  0  0  0  0  0  0  0  0  0
  -24.3623   -7.0875   19.9260 F   0  0  0  0  0  0  0  0  0  0  0  0
  -30.2354  -25.7740   16.4515 F   0  0  0  0  0  0  0  0  0  0  0  0
  -30.0945  -23.7738   15.6248 F   0  0  0  0  0  0  0  0  0  0  0  0
  -28.2844  -24.8743   16.1159 F   0  0  0  0  0  0  0  0  0  0  0  0
  1  2  1  0  0  0  0
  1  5  2  0  0  0  0
  2  6  2  0  0  0  0
  3  8  2  0  0  0  0
  3 16  1  0  0  0  0
  4  9  1  0  0  0  0
  4 16  2  0  0  0  0
  5 18  1  0  0  0  0
  6 20  1  0  0  0  0
  7 10  2  0  0  0  0
  7 19  1  0  0  0  0
  8 22  1  0  0  0  0
  9 22  2  0  0  0  0
 10 23  1  0  0  0  0
 11 12  2  0  0  0  0
 11 24  1  0  0  0  0
 12 25  1  0  0  0  0
 13 21  1  0  0  0  0
 13 23  2  0  0  0  0
 14 25  2  0  0  0  0
 14 26  1  0  0  0  0
 15 28  1  0  0  0  0
 15 29  2  0  0  0  0
 16 27  1  0  0  0  0
 17 27  1  0  0  0  0
 17 30  2  0  0  0  0
 17 33  1  0  0  0  0
 18 20  2  0  0  0  0
 18 38  1  0  0  0  0
 19 21  2  0  0  0  0
 19 39  1  0  0  0  0
 20 47  1  0  0  0  0
 21 40  1  0  0  0  0
 22 88  1  0  0  0  0
 23 89  1  0  0  0  0
 24 26  2  0  0  0  0
 24 88  1  0  0  0  0
 25 90  1  0  0  0  0
 26 91  1  0  0  0  0
 27 68  2  0  0  0  0
 28 59  1  0  0  0  0
 28 69  2  0  0  0  0
 29 64  1  0  0  0  0
 29 70  1  0  0  0  0
 30 74  1  0  0  0  0
 30 78  1  0  0  0  0
 31 65  1  0  0  0  0
 31 69  1  0  0  0  0
 31 70  2  0  0  0  0
 32 65  1  0  0  0  0
 32 71  2  0  0  0  0
 32 75  1  0  0  0  0
 33 79  1  0  0  0  0
 33 83  2  0  0  0  0
 34 48  1  0  0  0  0
 34 80  1  0  0  0  0
 34 84  2  0  0  0  0
 35 62  1  0  0  0  0
 35 76  1  0  0  0  0
 35 85  2  0  0  0  0
 36 66  1  0  0  0  0
 36 77  1  0  0  0  0
 36 86  2  0  0  0  0
 37 63  1  0  0  0  0
 37 81  1  0  0  0  0
 37 87  2  0  0  0  0
 38 41  1  0  0  0  0
 39 48  1  0  0  0  0
 40 76  1  0  0  0  0
 41 43  1  0  0  0  0
 42 44  1  0  0  0  0
 42 45  1  0  0  0  0
 43 47  1  0  0  0  0
 44 49  1  0  0  0  0
 45 77  1  0  0  0  0
 46 49  1  0  0  0  0
 46 77  1  0  0  0  0
 47 80  1  0  0  0  0
 48 76  1  0  0  0  0
 49 74  1  0  0  0  0
 50 63  1  0  0  0  0
 51 65  1  0  0  0  0
 52 65  1  0  0  0  0
 53 66  1  0  0  0  0
 54 66  1  0  0  0  0
 55 67  1  0  0  0  0
 56 67  1  0  0  0  0
 57 67  1  0  0  0  0
 58 82  1  0  0  0  0
 59 60  1  0  0  0  0
 60 61  1  0  0  0  0
 61 89  1  0  0  0  0
 62 67  1  0  0  0  0
 62 81  1  0  0  0  0
 63 82  1  0  0  0  0
 64 92  1  0  0  0  0
 64 93  1  0  0  0  0
 64 94  1  0  0  0  0
 66 75  1  0  0  0  0
 68 74  1  0  0  0  0
 71 72  1  0  0  0  0
 72 73  2  0  0  0  0
 73 75  1  0  0  0  0
M  CHG  1  82   1
M  ISO  4  36 100  61 101  66 100  89 101
M  END
> <Batch ID>
0064

> <Smiles>
CNC(C)C(=O)NC(C(=O)N1Cc2cc([101O:1][101CH2:1]CCc3cc(C(F)(F)F)nc(C(C)(C)c4nnnn4[100C:0](C)(C)[100C:0](=O)N4CCCC(n5nc(-c6ccc(Oc7ccc(F)cc7F)cc6)c(C(N)=O)c5N)C4)n3)ccc2CC1C(=O)NC1CCCc2ccccc21)C(C)(C)C

> <Shape>
0.272

> <Color>
0.064

> <Negative vol penalty>
0.000

$$$$

  -OEChem-04052318053D

 87 95  0     1  0  0  0  0  0999 V2000
  -17.1010  -26.4829   21.5663 C   0  0  0  0  0  0  0  0  0  0  0  0
  -18.3695  -25.9706   21.3133 C   0  0  0  0  0  0  0  0  0  0  0  0
  -24.4113   -9.6199   22.0609 C   0  0  0  0  0  0  0  0  0  0  0  0
  -23.5047   -9.7192   19.8236 C   0  0  0  0  0  0  0  0  0  0  0  0
  -16.9623  -27.7467   22.1384 C   0  0  0  0  0  0  0  0  0  0  0  0
  -19.5000  -26.7224   21.6314 C   0  0  0  0  0  0  0  0  0  0  0  0
  -23.0732  -23.9756   23.9407 C   0  0  0  0  0  0  0  0  0  0  0  0
  -23.3756   -8.7672   22.4427 C   0  0  0  0  0  0  0  0  0  0  0  0
  -22.4690   -8.8664   20.2055 C   0  0  0  0  0  0  0  0  0  0  0  0
  -23.8580  -23.1483   23.1386 C   0  0  0  0  0  0  0  0  0  0  0  0
  -22.6021   -5.4908   22.1269 C   0  0  0  0  0  0  0  0  0  0  0  0
  -22.9334   -4.3673   22.8843 C   0  0  0  0  0  0  0  0  0  0  0  0
  -25.6211  -24.7943   23.1763 C   0  0  0  0  0  0  0  0  0  0  0  0
  -21.5051   -5.1493   24.6691 C   0  0  0  0  0  0  0  0  0  0  0  0
  -28.5405  -21.6080   18.6360 C   0  0  0  0  0  0  0  0  0  0  0  0
  -24.4758  -10.0960   20.7514 C   0  0  0  0  0  0  0  0  0  0  0  0
  -26.7990  -10.6109   19.8319 C   0  0  0  0  0  0  0  0  0  0  0  0
  -18.0918  -28.5104   22.4725 C   0  0  0  0  0  0  0  0  0  0  0  0
  -23.5530  -25.2253   24.3583 C   0  0  0  0  0  0  0  0  0  0  0  0
  -19.3762  -27.9982   22.2073 C   0  0  0  0  0  0  0  0  0  0  0  0
  -24.8414  -25.6345   23.9858 C   0  0  0  0  0  0  0  0  0  0  0  0
  -22.4045   -8.3904   21.5150 C   0  0  0  0  0  0  0  0  0  0  0  0
  -25.1310  -23.5588   22.7539 C   0  0  0  0  0  0  0  0  0  0  0  0
  -21.7224   -6.4436   22.6407 C   0  0  0  0  0  0  0  0  0  0  0  0
  -22.3849   -4.1965   24.1553 C   0  0  0  0  0  0  0  0  0  0  0  0
  -21.1739   -6.2729   23.9117 C   0  0  0  0  0  0  0  0  0  0  0  0
  -25.5450  -10.9774   20.3565 C   0  0  0  0  0  0  0  0  0  0  0  0
  -29.0624  -20.4408   19.1486 C   0  0  0  0  0  0  0  0  0  0  0  0
  -28.3881  -21.0598   21.2444 C   0  0  0  0  0  0  0  0  0  0  0  0
  -27.8669  -22.2273   20.7318 C   0  0  0  0  0  0  0  0  0  0  0  0
  -27.4455  -11.8044   19.6220 C   0  0  0  0  0  0  0  0  0  0  0  0
  -27.3317   -9.3081   19.5587 C   0  0  0  0  0  0  0  0  0  0  0  0
  -22.6410  -28.2387   23.9209 C   0  0  0  0  0  0  0  0  0  0  0  0
  -25.0187  -28.8564   26.0392 C   0  0  0  0  0  0  0  0  0  0  0  0
  -27.9466  -27.8577   27.4805 C   0  0  0  0  0  0  0  0  0  0  0  0
  -27.6377  -16.8825   17.8509 C   0  0  0  0  0  0  0  0  0  0  0  0
  -17.8910  -29.8909   23.0457 C   0  0  0  0  0  0  0  0  0  0  0  0
  -22.7045  -26.0945   25.2454 C   0  0  0  0  0  0  0  0  0  0  0  0
  -25.4110  -26.9580   24.4243 C   0  0  0  0  0  0  0  0  0  0  0  0
  -19.1448  -30.4678   23.6981 C   0  0  0  0  0  0  0  0  0  0  0  0
  -26.2852  -16.4938   21.0900 C   0  0  0  0  0  0  0  0  0  0  0  0
  -20.3578  -30.2645   22.7958 C   0  0  0  0  0  0  0  0  0  0  0  0
  -26.0630  -14.9830   21.1458 C   0  0  0  0  0  0  0  0  0  0  0  0
  -25.9320  -17.0764   19.7203 C   0  0  0  0  0  0  0  0  0  0  0  0
  -26.3930  -14.8951   18.6468 C   0  0  0  0  0  0  0  0  0  0  0  0
  -20.6270  -28.7732   22.5611 C   0  0  1  0  0  0  0  0  0  0  0  0
  -23.0940  -27.5684   25.1870 C   0  0  1  0  0  0  0  0  0  0  0  0
  -26.7974  -14.2760   19.9936 C   0  0  2  0  0  0  0  0  0  0  0  0
  -28.3069  -20.7453   22.6991 C   0  0  0  0  0  0  0  0  0  0  0  0
  -29.6706  -28.5904   29.1504 C   0  0  0  0  0  0  0  0  0  0  0  0
  -30.2757  -18.1683   18.9747 C   0  0  0  0  0  0  0  0  0  0  0  0
  -26.1534  -30.8233   24.0012 C   0  0  0  0  0  0  0  0  0  0  0  0
  -28.3073  -30.7952   25.2771 C   0  0  0  0  0  0  0  0  0  0  0  0
  -26.2225  -31.6203   26.3707 C   0  0  0  0  0  0  0  0  0  0  0  0
  -26.3718  -19.0538   17.5547 C   0  0  0  0  0  0  0  0  0  0  0  0
  -27.4382  -25.5099   29.2091 C   0  0  0  0  0  0  0  0  0  0  0  0
  -27.1932  -23.2369   21.6139 C   0  0  0  0  0  0  0  0  0  1  0  0
  -28.7932  -18.9269   17.1002 C   0  0  0  0  0  0  0  0  0  0  0  0
  -26.4966  -29.1453   25.9331 C   0  0  1  0  0  0  0  0  0  0  0  0
  -28.3876  -27.8035   28.9320 C   0  0  2  0  0  0  0  0  0  0  0  0
  -29.7272  -19.4539   18.2542 C   0  0  1  0  0  0  0  0  0  0  0  0
  -26.7838  -30.5719   25.3855 C   0  0  0  0  0  0  0  0  0  0  0  0
  -30.9726  -20.0939   17.5627 C   0  0  0  0  0  0  0  0  0  0  0  0
  -27.9335  -22.5223   19.4184 N   0  0  0  0  0  0  0  0  0  0  0  0
  -25.4015  -12.3002   20.4728 N   0  0  0  0  0  0  0  0  0  0  0  0
  -28.9955  -20.1457   20.4620 N   0  0  0  0  0  0  0  0  0  0  0  0
  -26.5736  -12.7754   20.0185 N   0  0  0  0  0  0  0  0  0  0  0  0
  -24.5403  -27.7751   25.2856 N   0  0  0  0  0  0  0  0  0  0  0  0
  -26.6166  -16.3429   18.6469 N   0  0  0  0  0  0  0  0  0  0  0  0
  -28.6690  -12.1075   19.1389 N   0  0  0  0  0  0  0  0  0  0  0  0
  -26.5338   -8.1890   19.8332 N   0  0  0  0  0  0  0  0  0  0  0  0
  -21.2754  -28.1888   23.7155 N   0  0  0  0  0  0  0  0  0  0  0  0
  -27.0587  -28.8882   27.2546 N   0  0  0  0  0  0  0  0  0  0  0  0
  -27.6003  -18.2637   17.6076 N   0  0  0  0  0  0  0  0  0  0  0  0
  -28.6250  -26.3925   29.3489 N   0  3  0  0  0  0  0  0  0  0  0  0
  -28.4874   -9.1407   19.1006 O   0  0  0  0  0  0  0  0  0  0  0  0
  -23.4688  -28.7637   23.1856 O   0  0  0  0  0  0  0  0  0  0  0  0
  -24.3159  -29.5595   26.7695 O   0  0  0  0  0  0  0  0  0  0  0  0
  -28.3522  -27.0675   26.6311 O   0  0  0  0  0  0  0  0  0  0  0  0
  -28.5306  -16.1689   17.3760 O   0  0  0  0  0  0  0  0  0  0  0  0
  -21.3939   -7.5581   21.8872 O   0  0  0  0  0  0  0  0  0  0  0  0
  -25.8988  -22.7535   21.9704 O   0  0  0  0  0  0  0  0  0  1  0  0
  -22.7019   -3.1168   24.8819 F   0  0  0  0  0  0  0  0  0  0  0  0
  -20.3273   -7.1842   24.4101 F   0  0  0  0  0  0  0  0  0  0  0  0
  -31.8697  -20.5039   18.4885 F   0  0  0  0  0  0  0  0  0  0  0  0
  -30.6292  -21.1723   16.8246 F   0  0  0  0  0  0  0  0  0  0  0  0
  -31.6163  -19.2379   16.7341 F   0  0  0  0  0  0  0  0  0  0  0  0
  1  2  1  0  0  0  0
  1  5  2  0  0  0  0
  2  6  2  0  0  0  0
  3  8  2  0  0  0  0
  3 16  1  0  0  0  0
  4  9  1  0  0  0  0
  4 16  2  0  0  0  0
  5 18  1  0  0  0  0
  6 20  1  0  0  0  0
  7 10  2  0  0  0  0
  7 19  1  0  0  0  0
  8 22  1  0  0  0  0
  9 22  2  0  0  0  0
 10 23  1  0  0  0  0
 11 12  2  0  0  0  0
 11 24  1  0  0  0  0
 12 25  1  0  0  0  0
 13 21  1  0  0  0  0
 13 23  2  0  0  0  0
 14 25  2  0  0  0  0
 14 26  1  0  0  0  0
 15 28  1  0  0  0  0
 15 64  2  0  0  0  0
 16 27  1  0  0  0  0
 17 27  1  0  0  0  0
 17 31  2  0  0  0  0
 17 32  1  0  0  0  0
 18 20  2  0  0  0  0
 18 37  1  0  0  0  0
 19 21  2  0  0  0  0
 19 38  1  0  0  0  0
 20 46  1  0  0  0  0
 21 39  1  0  0  0  0
 22 81  1  0  0  0  0
 23 82  1  0  0  0  0
 24 26  2  0  0  0  0
 24 81  1  0  0  0  0
 25 83  1  0  0  0  0
 26 84  1  0  0  0  0
 27 65  2  0  0  0  0
 28 61  1  0  0  0  0
 28 66  2  0  0  0  0
 29 30  2  0  0  0  0
 29 49  1  0  0  0  0
 29 66  1  0  0  0  0
 30 57  1  0  0  0  0
 30 64  1  0  0  0  0
 31 67  1  0  0  0  0
 31 70  1  0  0  0  0
 32 71  1  0  0  0  0
 32 76  2  0  0  0  0
 33 47  1  0  0  0  0
 33 72  1  0  0  0  0
 33 77  2  0  0  0  0
 34 59  1  0  0  0  0
 34 68  1  0  0  0  0
 34 78  2  0  0  0  0
 35 60  1  0  0  0  0
 35 73  1  0  0  0  0
 35 79  2  0  0  0  0
 36 69  1  0  0  0  0
 36 74  1  0  0  0  0
 36 80  2  0  0  0  0
 37 40  1  0  0  0  0
 38 47  1  0  0  0  0
 39 68  1  0  0  0  0
 40 42  1  0  0  0  0
 41 43  1  0  0  0  0
 41 44  1  0  0  0  0
 42 46  1  0  0  0  0
 43 48  1  0  0  0  0
 44 69  1  0  0  0  0
 45 48  1  0  0  0  0
 45 69  1  0  0  0  0
 46 72  1  0  0  0  0
 47 68  1  0  0  0  0
 48 67  1  0  0  0  0
 50 60  1  0  0  0  0
 51 61  1  0  0  0  0
 52 62  1  0  0  0  0
 53 62  1  0  0  0  0
 54 62  1  0  0  0  0
 55 74  1  0  0  0  0
 56 75  1  0  0  0  0
 57 82  1  0  0  0  0
 58 61  1  0  0  0  0
 58 74  1  0  0  0  0
 59 62  1  0  0  0  0
 59 73  1  0  0  0  0
 60 75  1  0  0  0  0
 61 63  1  0  0  0  0
 63 85  1  0  0  0  0
 63 86  1  0  0  0  0
 63 87  1  0  0  0  0
 65 67  1  0  0  0  0
M  CHG  1  75   1
M  ISO  4  36 100  57 101  74 100  82 101
M  END
> <Batch ID>
0064

> <Smiles>
CNC(C)C(=O)NC(C(=O)N1Cc2cc([101O:1][101CH2:1]c3ncc(C(C)(C[100N:0](C)[100C:0](=O)N4CCCC(n5nc(-c6ccc(Oc7ccc(F)cc7F)cc6)c(C(N)=O)c5N)C4)C(F)(F)F)nc3C)ccc2CC1C(=O)NC1CCCc2ccccc21)C(C)(C)C

> <Shape>
0.265

> <Color>
0.113

> <Negative vol penalty>
0.000

$$$$

  -OEChem-04052318053D

 90 98  0     1  0  0  0  0  0999 V2000
  -26.9852  -37.6212   19.6806 C   0  0  0  0  0  0  0  0  0  0  0  0
  -27.5270  -36.3666   19.4198 C   0  0  0  0  0  0  0  0  0  0  0  0
  -22.3539  -15.6353   21.7357 C   0  0  0  0  0  0  0  0  0  0  0  0
  -22.8772  -16.3337   19.4829 C   0  0  0  0  0  0  0  0  0  0  0  0
  -26.1782  -37.8114   20.8015 C   0  0  0  0  0  0  0  0  0  0  0  0
  -27.2630  -35.3018   20.2805 C   0  0  0  0  0  0  0  0  0  0  0  0
  -26.5798  -29.4119   18.7481 C   0  0  0  0  0  0  0  0  0  0  0  0
  -21.2988  -16.5467   21.7733 C   0  0  0  0  0  0  0  0  0  0  0  0
  -21.8220  -17.2452   19.5204 C   0  0  0  0  0  0  0  0  0  0  0  0
  -27.4530  -28.3257   18.7852 C   0  0  0  0  0  0  0  0  0  0  0  0
  -18.4589  -17.1745   19.1953 C   0  0  0  0  0  0  0  0  0  0  0  0
  -17.6192  -17.2375   18.0833 C   0  0  0  0  0  0  0  0  0  0  0  0
  -26.5539  -27.6837   20.9296 C   0  0  0  0  0  0  0  0  0  0  0  0
  -18.2001  -19.5626   17.7766 C   0  0  0  0  0  0  0  0  0  0  0  0
  -28.5219  -17.4774   18.1350 C   0  0  0  0  0  0  0  0  0  0  0  0
  -23.1432  -15.5288   20.5905 C   0  0  0  0  0  0  0  0  0  0  0  0
  -24.1849  -13.2473   20.1242 C   0  0  0  0  0  0  0  0  0  0  0  0
  -25.8962  -36.7460   21.6710 C   0  0  0  0  0  0  0  0  0  0  0  0
  -25.6931  -29.6488   19.8084 C   0  0  0  0  0  0  0  0  0  0  0  0
  -26.4525  -35.4782   21.4148 C   0  0  0  0  0  0  0  0  0  0  0  0
  -25.6686  -28.7721   20.9024 C   0  0  0  0  0  0  0  0  0  0  0  0
  -27.9197  -18.6276   18.5832 C   0  0  0  0  0  0  0  0  0  0  0  0
  -21.0327  -17.3517   20.6656 C   0  0  0  0  0  0  0  0  0  0  0  0
  -27.4422  -27.4630   19.8773 C   0  0  0  0  0  0  0  0  0  0  0  0
  -19.1692  -18.3055   19.5980 C   0  0  0  0  0  0  0  0  0  0  0  0
  -17.4898  -18.4316   17.3740 C   0  0  0  0  0  0  0  0  0  0  0  0
  -19.0397  -19.4995   18.8887 C   0  0  0  0  0  0  0  0  0  0  0  0
  -24.2337  -14.5879   20.5514 C   0  0  0  0  0  0  0  0  0  0  0  0
  -28.5997  -18.9392   19.7758 C   0  0  0  0  0  0  0  0  0  0  0  0
  -25.4707  -12.7903   20.2803 C   0  0  0  0  0  0  0  0  0  0  0  0
  -23.0765  -12.4836   19.6305 C   0  0  0  0  0  0  0  0  0  0  0  0
  -25.2695  -32.0106   21.8932 C   0  0  0  0  0  0  0  0  0  0  0  0
  -22.6709  -30.2674   22.7480 C   0  0  0  0  0  0  0  0  0  0  0  0
  -30.7560  -15.6466   20.4152 C   0  0  0  0  0  0  0  0  0  0  0  0
  -21.1327  -27.2230   22.8577 C   0  0  0  0  0  0  0  0  0  0  0  0
  -25.0570  -37.0113   22.8958 C   0  0  0  0  0  0  0  0  0  0  0  0
  -24.7390  -30.8096   19.7409 C   0  0  0  0  0  0  0  0  0  0  0  0
  -24.7219  -28.9709   22.0569 C   0  0  0  0  0  0  0  0  0  0  0  0
  -24.5202  -35.7423   23.5529 C   0  0  0  0  0  0  0  0  0  0  0  0
  -29.3992  -13.4646   22.9128 C   0  0  0  0  0  0  0  0  0  0  0  0
  -25.6269  -34.7011   23.6864 C   0  0  0  0  0  0  0  0  0  0  0  0
  -27.9115  -13.4062   22.5685 C   0  0  0  0  0  0  0  0  0  0  0  0
  -29.9857  -14.8427   22.6230 C   0  0  0  0  0  0  0  0  0  0  0  0
  -28.2848  -15.2537   20.8737 C   0  0  0  0  0  0  0  0  0  0  0  0
  -26.1688  -34.2925   22.3113 C   0  0  1  0  0  0  0  0  0  0  0  0
  -24.2356  -31.2498   21.1122 C   0  0  1  0  0  0  0  0  0  0  0  0
  -27.6601  -13.8695   21.1227 C   0  0  2  0  0  0  0  0  0  0  0  0
  -27.9825  -19.6157   15.6277 C   0  0  0  0  0  0  0  0  0  0  0  0
  -19.0304  -26.1055   23.6508 C   0  0  0  0  0  0  0  0  0  0  0  0
  -26.7842  -20.9180   18.1899 C   0  0  0  0  0  0  0  0  0  0  0  0
  -25.4278  -18.8682   18.5087 C   0  0  0  0  0  0  0  0  0  0  0  0
  -26.9250  -20.1712   21.3149 C   0  0  0  0  0  0  0  0  0  0  0  0
  -29.3223  -20.0079   21.9219 C   0  0  0  0  0  0  0  0  0  0  0  0
  -31.6773  -16.4466   18.2625 C   0  0  0  0  0  0  0  0  0  0  0  0
  -29.8121  -14.7917   18.3453 C   0  0  0  0  0  0  0  0  0  0  0  0
  -23.7028  -30.3683   25.6176 C   0  0  0  0  0  0  0  0  0  0  0  0
  -22.1382  -28.4941   26.1723 C   0  0  0  0  0  0  0  0  0  0  0  0
  -21.2324  -30.6812   25.3858 C   0  0  0  0  0  0  0  0  0  0  0  0
  -20.3991  -26.3951   20.1126 C   0  0  0  0  0  0  0  0  0  0  0  0
  -26.7347  -19.1587   16.3780 C   0  0  0  0  0  0  0  0  0  0  0  0
  -28.0508  -22.7277   20.6973 C   0  0  0  0  0  0  0  0  0  0  0  0
  -28.4671  -24.0098   19.9757 C   0  0  0  0  0  0  0  0  0  0  0  0
  -28.6392  -21.4895   20.0048 C   0  0  0  0  0  0  0  0  0  0  0  0
  -27.8563  -25.2437   20.6251 C   0  0  0  0  0  0  0  0  0  1  0  0
  -22.4048  -29.1613   23.7403 C   0  0  1  0  0  0  0  0  0  0  0  0
  -19.7259  -26.7912   22.4851 C   0  0  2  0  0  0  0  0  0  0  0  0
  -26.8113  -19.3608   17.9488 C   0  0  0  0  0  0  0  0  0  0  0  0
  -28.3529  -20.1306   20.7192 C   0  0  0  0  0  0  0  0  0  0  0  0
  -30.3903  -16.0554   19.0105 C   0  0  0  0  0  0  0  0  0  0  0  0
  -22.3888  -29.6733   25.2083 C   0  0  0  0  0  0  0  0  0  0  0  0
  -25.4538  -14.9582   20.9491 N   0  0  0  0  0  0  0  0  0  0  0  0
  -29.5602  -18.0579   20.0670 N   0  0  0  0  0  0  0  0  0  0  0  0
  -29.4881  -17.1812   19.0510 N   0  0  0  0  0  0  0  0  0  0  0  0
  -26.1836  -13.8436   20.7725 N   0  0  0  0  0  0  0  0  0  0  0  0
  -23.8128  -30.1237   21.9473 N   0  0  0  0  0  0  0  0  0  0  0  0
  -29.7062  -15.2563   21.2468 N   0  0  0  0  0  0  0  0  0  0  0  0
  -26.0497  -11.5940   20.0431 N   0  0  0  0  0  0  0  0  0  0  0  0
  -21.8252  -13.1076   19.5341 N   0  0  0  0  0  0  0  0  0  0  0  0
  -25.2591  -33.3730   21.6623 N   0  0  0  0  0  0  0  0  0  0  0  0
  -21.1633  -28.5228   23.3167 N   0  0  0  0  0  0  0  0  0  0  0  0
  -19.7623  -25.8429   21.3360 N   0  3  0  0  0  0  0  0  0  0  0  0
  -23.1886  -11.2786   19.3005 O   0  0  0  0  0  0  0  0  0  0  0  0
  -26.0202  -31.4065   22.6503 O   0  0  0  0  0  0  0  0  0  0  0  0
  -21.8903  -31.2202   22.6806 O   0  0  0  0  0  0  0  0  0  0  0  0
  -31.9403  -15.6713   20.7603 O   0  0  0  0  0  0  0  0  0  0  0  0
  -22.1065  -26.4801   22.7556 O   0  0  0  0  0  0  0  0  0  0  0  0
  -20.0030  -18.2410   20.7018 O   0  0  0  0  0  0  0  0  0  0  0  0
  -28.2939  -26.4024   19.9163 O   0  0  0  0  0  0  0  0  0  1  0  0
  -16.6846  -18.4916   16.3052 F   0  0  0  0  0  0  0  0  0  0  0  0
  -19.7204  -20.5890   19.2701 F   0  0  0  0  0  0  0  0  0  0  0  0
  1  2  1  0  0  0  0
  1  5  2  0  0  0  0
  2  6  2  0  0  0  0
  3  8  2  0  0  0  0
  3 16  1  0  0  0  0
  4  9  1  0  0  0  0
  4 16  2  0  0  0  0
  5 18  1  0  0  0  0
  6 20  1  0  0  0  0
  7 10  2  0  0  0  0
  7 19  1  0  0  0  0
  8 23  1  0  0  0  0
  9 23  2  0  0  0  0
 10 24  1  0  0  0  0
 11 12  2  0  0  0  0
 11 25  1  0  0  0  0
 12 26  1  0  0  0  0
 13 21  1  0  0  0  0
 13 24  2  0  0  0  0
 14 26  2  0  0  0  0
 14 27  1  0  0  0  0
 15 22  2  0  0  0  0
 15 73  1  0  0  0  0
 16 28  1  0  0  0  0
 17 28  1  0  0  0  0
 17 30  2  0  0  0  0
 17 31  1  0  0  0  0
 18 20  2  0  0  0  0
 18 36  1  0  0  0  0
 19 21  2  0  0  0  0
 19 37  1  0  0  0  0
 20 45  1  0  0  0  0
 21 38  1  0  0  0  0
 22 29  1  0  0  0  0
 22 67  1  0  0  0  0
 23 87  1  0  0  0  0
 24 88  1  0  0  0  0
 25 27  2  0  0  0  0
 25 87  1  0  0  0  0
 26 89  1  0  0  0  0
 27 90  1  0  0  0  0
 28 71  2  0  0  0  0
 29 68  1  0  0  0  0
 29 72  2  0  0  0  0
 30 74  1  0  0  0  0
 30 77  1  0  0  0  0
 31 78  1  0  0  0  0
 31 82  2  0  0  0  0
 32 46  1  0  0  0  0
 32 79  1  0  0  0  0
 32 83  2  0  0  0  0
 33 65  1  0  0  0  0
 33 75  1  0  0  0  0
 33 84  2  0  0  0  0
 34 69  1  0  0  0  0
 34 76  1  0  0  0  0
 34 85  2  0  0  0  0
 35 66  1  0  0  0  0
 35 80  1  0  0  0  0
 35 86  2  0  0  0  0
 36 39  1  0  0  0  0
 37 46  1  0  0  0  0
 38 75  1  0  0  0  0
 39 41  1  0  0  0  0
 40 42  1  0  0  0  0
 40 43  1  0  0  0  0
 41 45  1  0  0  0  0
 42 47  1  0  0  0  0
 43 76  1  0  0  0  0
 44 47  1  0  0  0  0
 44 76  1  0  0  0  0
 45 79  1  0  0  0  0
 46 75  1  0  0  0  0
 47 74  1  0  0  0  0
 48 60  1  0  0  0  0
 49 66  1  0  0  0  0
 50 67  1  0  0  0  0
 51 67  1  0  0  0  0
 52 68  1  0  0  0  0
 53 68  1  0  0  0  0
 54 69  1  0  0  0  0
 55 69  1  0  0  0  0
 56 70  1  0  0  0  0
 57 70  1  0  0  0  0
 58 70  1  0  0  0  0
 59 81  1  0  0  0  0
 60 67  1  0  0  0  0
 61 62  1  0  0  0  0
 61 63  1  0  0  0  0
 62 64  1  0  0  0  0
 63 68  1  0  0  0  0
 64 88  1  0  0  0  0
 65 70  1  0  0  0  0
 65 80  1  0  0  0  0
 66 81  1  0  0  0  0
 69 73  1  0  0  0  0
 71 74  1  0  0  0  0
 72 73  1  0  0  0  0
M  CHG  1  81   1
M  ISO  4  34 100  64 101  69 100  88 101
M  END
> <Batch ID>
0064

> <Smiles>
CCC(C)(C)c1cn([100C:0](C)(C)[100C:0](=O)N2CCCC(n3nc(-c4ccc(Oc5ccc(F)cc5F)cc4)c(C(N)=O)c3N)C2)nc1C(C)(C)CCC[101CH2:1][101O:1]c1ccc2c(c1)CN(C(=O)C(NC(=O)C(C)NC)C(C)(C)C)C(C(=O)NC1CCCc3ccccc31)C2

> <Shape>
0.274

> <Color>
0.093

> <Negative vol penalty>
0.000

$$$$

  -OEChem-04052318053D

 83 91  0     1  0  0  0  0  0999 V2000
  -21.8361  -11.9871   19.7817 C   0  0  0  0  0  0  0  0  0  0  0  0
  -21.6796  -13.3131   20.1724 C   0  0  0  0  0  0  0  0  0  0  0  0
  -26.3179  -29.0896   21.2554 C   0  0  0  0  0  0  0  0  0  0  0  0
  -25.2737  -27.2673   20.0614 C   0  0  0  0  0  0  0  0  0  0  0  0
  -23.0881  -11.3796   19.8667 C   0  0  0  0  0  0  0  0  0  0  0  0
  -22.7751  -14.0321   20.6494 C   0  0  0  0  0  0  0  0  0  0  0  0
  -23.0540  -18.6863   18.6731 C   0  0  0  0  0  0  0  0  0  0  0  0
  -27.5144  -28.8459   20.5812 C   0  0  0  0  0  0  0  0  0  0  0  0
  -26.4702  -27.0235   19.3871 C   0  0  0  0  0  0  0  0  0  0  0  0
  -22.1990  -19.6537   19.1992 C   0  0  0  0  0  0  0  0  0  0  0  0
  -30.9454  -28.4725   19.4357 C   0  0  0  0  0  0  0  0  0  0  0  0
  -32.1231  -28.4660   20.1831 C   0  0  0  0  0  0  0  0  0  0  0  0
  -24.0095  -20.5156   20.5404 C   0  0  0  0  0  0  0  0  0  0  0  0
  -19.4541  -23.7741   20.1154 C   0  0  0  0  0  0  0  0  0  0  0  0
  -18.3969  -24.6526   22.0890 C   0  0  0  0  0  0  0  0  0  0  0  0
  -31.2623  -26.6495   21.5235 C   0  0  0  0  0  0  0  0  0  0  0  0
  -25.1976  -28.3003   20.9956 C   0  0  0  0  0  0  0  0  0  0  0  0
  -22.9197  -29.4097   21.2927 C   0  0  0  0  0  0  0  0  0  0  0  0
  -24.2015  -12.0944   20.3359 C   0  0  0  0  0  0  0  0  0  0  0  0
  -24.3926  -18.6192   19.0855 C   0  0  0  0  0  0  0  0  0  0  0  0
  -24.0429  -13.4332   20.7421 C   0  0  0  0  0  0  0  0  0  0  0  0
  -24.8800  -19.5480   20.0160 C   0  0  0  0  0  0  0  0  0  0  0  0
  -18.7648  -24.7977   20.7560 C   0  0  0  0  0  0  0  0  0  0  0  0
  -27.5905  -27.8129   19.6470 C   0  0  0  0  0  0  0  0  0  0  0  0
  -22.6760  -20.5668   20.1352 C   0  0  0  0  0  0  0  0  0  0  0  0
  -29.9261  -27.5676   19.7322 C   0  0  0  0  0  0  0  0  0  0  0  0
  -32.2815  -27.5544   21.2270 C   0  0  0  0  0  0  0  0  0  0  0  0
  -30.0846  -26.6561   20.7761 C   0  0  0  0  0  0  0  0  0  0  0  0
  -23.9615  -28.5513   21.6922 C   0  0  0  0  0  0  0  0  0  0  0  0
  -19.7493  -22.6346   20.8463 C   0  0  0  0  0  0  0  0  0  0  0  0
  -18.7392  -23.4737   22.7315 C   0  0  0  0  0  0  0  0  0  0  0  0
  -21.9798  -29.2952   22.2877 C   0  0  0  0  0  0  0  0  0  0  0  0
  -22.8112  -30.2366   20.1264 C   0  0  0  0  0  0  0  0  0  0  0  0
  -26.1793  -16.4424   20.5595 C   0  0  0  0  0  0  0  0  0  0  0  0
  -28.5692  -18.5426   19.9270 C   0  0  0  0  0  0  0  0  0  0  0  0
  -29.5006  -21.7588   19.2668 C   0  0  0  0  0  0  0  0  0  0  0  0
  -20.7286  -24.9718   26.2366 C   0  0  0  0  0  0  0  0  0  0  0  0
  -25.5249  -11.3809   20.4544 C   0  0  0  0  0  0  0  0  0  0  0  0
  -25.3089  -17.5865   18.4884 C   0  0  0  0  0  0  0  0  0  0  0  0
  -26.3140  -19.5313   20.4765 C   0  0  0  0  0  0  0  0  0  0  0  0
  -26.7133  -12.3250   20.6180 C   0  0  0  0  0  0  0  0  0  0  0  0
  -21.5697  -28.3548   26.9608 C   0  0  0  0  0  0  0  0  0  0  0  0
  -26.4077  -13.3915   21.6648 C   0  0  0  0  0  0  0  0  0  0  0  0
  -22.1840  -28.8662   25.6566 C   0  0  0  0  0  0  0  0  0  0  0  0
  -21.9368  -26.8960   27.2237 C   0  0  0  0  0  0  0  0  0  0  0  0
  -22.2419  -26.4821   24.8134 C   0  0  0  0  0  0  0  0  0  0  0  0
  -25.2124  -14.2536   21.2414 C   0  0  1  0  0  0  0  0  0  0  0  0
  -26.5214  -17.2859   19.3640 C   0  0  1  0  0  0  0  0  0  0  0  0
  -21.8537  -27.9320   24.4770 C   0  0  2  0  0  0  0  0  0  0  0  0
  -19.5152  -27.1066   20.1295 C   0  0  0  0  0  0  0  0  0  0  0  0
  -17.3808  -22.1042   24.3448 C   0  0  0  0  0  0  0  0  0  0  0  0
  -31.5277  -23.1731   18.8338 C   0  0  0  0  0  0  0  0  0  0  0  0
  -29.2570  -18.4623   22.8986 C   0  0  0  0  0  0  0  0  0  0  0  0
  -30.6061  -20.5458   22.5714 C   0  0  0  0  0  0  0  0  0  0  0  0
  -31.2357  -18.4527   21.3692 C   0  0  0  0  0  0  0  0  0  0  0  0
  -28.5326  -22.5280   16.5779 C   0  0  0  0  0  0  0  0  0  0  0  0
  -18.4225  -26.0466   20.0167 C   0  0  0  0  0  0  0  0  0  0  0  0
  -20.4935  -21.5101   20.1883 C   0  0  0  0  0  0  0  0  0  1  0  0
  -19.5733  -23.0915   25.1014 C   0  0  0  0  0  0  0  0  0  0  0  0
  -18.3586  -23.2832   24.1617 C   0  0  1  0  0  0  0  0  0  0  0  0
  -29.1728  -19.7239   20.6475 C   0  0  1  0  0  0  0  0  0  0  0  0
  -30.4165  -22.3449   18.2076 C   0  0  2  0  0  0  0  0  0  0  0  0
  -30.0403  -19.2956   21.8647 C   0  0  0  0  0  0  0  0  0  0  0  0
  -23.7078  -27.9369   22.8507 N   0  0  0  0  0  0  0  0  0  0  0  0
  -19.4084  -22.4573   22.1424 N   0  0  0  0  0  0  0  0  0  0  0  0
  -22.4958  -28.4099   23.1878 N   0  0  0  0  0  0  0  0  0  0  0  0
  -27.1690  -18.4986   19.8683 N   0  0  0  0  0  0  0  0  0  0  0  0
  -21.5965  -26.0632   26.0675 N   0  0  0  0  0  0  0  0  0  0  0  0
  -20.7706  -29.8665   22.4718 N   0  0  0  0  0  0  0  0  0  0  0  0
  -23.8680  -30.2353   19.2058 N   0  0  0  0  0  0  0  0  0  0  0  0
  -25.6153  -15.2211   20.2434 N   0  0  0  0  0  0  0  0  0  0  0  0
  -29.8957  -20.4913   19.6391 N   0  0  0  0  0  0  0  0  0  0  0  0
  -20.4533  -24.2387   25.0888 N   0  0  0  0  0  0  0  0  0  0  0  0
  -29.6437  -23.2195   17.2809 N   0  3  0  0  0  0  0  0  0  0  0  0
  -21.8141  -30.9678   19.9154 O   0  0  0  0  0  0  0  0  0  0  0  0
  -26.4113  -16.8674   21.6852 O   0  0  0  0  0  0  0  0  0  0  0  0
  -29.3127  -17.6941   19.4282 O   0  0  0  0  0  0  0  0  0  0  0  0
  -28.5336  -22.3661   19.7214 O   0  0  0  0  0  0  0  0  0  0  0  0
  -20.2313  -24.6761   27.3285 O   0  0  0  0  0  0  0  0  0  0  0  0
  -28.7578  -27.5749   18.9887 O   0  0  0  0  0  0  0  0  0  0  0  0
  -21.8435  -21.5117   20.6508 O   0  0  0  0  0  0  0  0  0  1  0  0
  -33.4131  -27.5472   21.9436 F   0  0  0  0  0  0  0  0  0  0  0  0
  -29.1093  -25.7836   21.0649 F   0  0  0  0  0  0  0  0  0  0  0  0
  1  2  1  0  0  0  0
  1  5  2  0  0  0  0
  2  6  2  0  0  0  0
  3  8  2  0  0  0  0
  3 17  1  0  0  0  0
  4  9  1  0  0  0  0
  4 17  2  0  0  0  0
  5 19  1  0  0  0  0
  6 21  1  0  0  0  0
  7 10  2  0  0  0  0
  7 20  1  0  0  0  0
  8 24  1  0  0  0  0
  9 24  2  0  0  0  0
 10 25  1  0  0  0  0
 11 12  2  0  0  0  0
 11 26  1  0  0  0  0
 12 27  1  0  0  0  0
 13 22  1  0  0  0  0
 13 25  2  0  0  0  0
 14 23  2  0  0  0  0
 14 30  1  0  0  0  0
 15 23  1  0  0  0  0
 15 31  2  0  0  0  0
 16 27  2  0  0  0  0
 16 28  1  0  0  0  0
 17 29  1  0  0  0  0
 18 29  1  0  0  0  0
 18 32  2  0  0  0  0
 18 33  1  0  0  0  0
 19 21  2  0  0  0  0
 19 38  1  0  0  0  0
 20 22  2  0  0  0  0
 20 39  1  0  0  0  0
 21 47  1  0  0  0  0
 22 40  1  0  0  0  0
 23 57  1  0  0  0  0
 24 80  1  0  0  0  0
 25 81  1  0  0  0  0
 26 28  2  0  0  0  0
 26 80  1  0  0  0  0
 27 82  1  0  0  0  0
 28 83  1  0  0  0  0
 29 64  2  0  0  0  0
 30 58  1  0  0  0  0
 30 65  2  0  0  0  0
 31 60  1  0  0  0  0
 31 65  1  0  0  0  0
 32 66  1  0  0  0  0
 32 69  1  0  0  0  0
 33 70  1  0  0  0  0
 33 75  2  0  0  0  0
 34 48  1  0  0  0  0
 34 71  1  0  0  0  0
 34 76  2  0  0  0  0
 35 61  1  0  0  0  0
 35 67  1  0  0  0  0
 35 77  2  0  0  0  0
 36 62  1  0  0  0  0
 36 72  1  0  0  0  0
 36 78  2  0  0  0  0
 37 68  1  0  0  0  0
 37 73  1  0  0  0  0
 37 79  2  0  0  0  0
 38 41  1  0  0  0  0
 39 48  1  0  0  0  0
 40 67  1  0  0  0  0
 41 43  1  0  0  0  0
 42 44  1  0  0  0  0
 42 45  1  0  0  0  0
 43 47  1  0  0  0  0
 44 49  1  0  0  0  0
 45 68  1  0  0  0  0
 46 49  1  0  0  0  0
 46 68  1  0  0  0  0
 47 71  1  0  0  0  0
 48 67  1  0  0  0  0
 49 66  1  0  0  0  0
 50 57  1  0  0  0  0
 51 60  1  0  0  0  0
 52 62  1  0  0  0  0
 53 63  1  0  0  0  0
 54 63  1  0  0  0  0
 55 63  1  0  0  0  0
 56 74  1  0  0  0  0
 58 81  1  0  0  0  0
 59 60  1  0  0  0  0
 59 73  1  0  0  0  0
 61 63  1  0  0  0  0
 61 72  1  0  0  0  0
 62 74  1  0  0  0  0
 64 66  1  0  0  0  0
M  CHG  1  74   1
M  ISO  4  37 100  58 101  73 100  81 101
M  END
> <Batch ID>
0064

> <Smiles>
CCc1cc(C(C)C[100NH:0][100C:0](=O)N2CCCC(n3nc(-c4ccc(Oc5ccc(F)cc5F)cc4)c(C(N)=O)c3N)C2)nc([101CH2:1][101O:1]c2ccc3c(c2)CN(C(=O)C(NC(=O)C(C)NC)C(C)(C)C)C(C(=O)NC2CCCc4ccccc42)C3)c1

> <Shape>
0.226

> <Color>
0.080

> <Negative vol penalty>
0.000

$$$$

  -OEChem-04052318053D

 87 95  0     1  0  0  0  0  0999 V2000
  -27.8027  -23.0098   14.6132 C   0  0  0  0  0  0  0  0  0  0  0  0
  -27.3585  -22.9584   15.9305 C   0  0  0  0  0  0  0  0  0  0  0  0
  -24.5905   -9.7280   21.5073 C   0  0  0  0  0  0  0  0  0  0  0  0
  -24.8483  -10.8686   23.6215 C   0  0  0  0  0  0  0  0  0  0  0  0
  -28.8579  -23.8528   14.2669 C   0  0  0  0  0  0  0  0  0  0  0  0
  -27.9700  -23.7492   16.9027 C   0  0  0  0  0  0  0  0  0  0  0  0
  -24.6206  -26.0455   19.9282 C   0  0  0  0  0  0  0  0  0  0  0  0
  -24.3572   -8.5298   22.1822 C   0  0  0  0  0  0  0  0  0  0  0  0
  -24.6149   -9.6703   24.2964 C   0  0  0  0  0  0  0  0  0  0  0  0
  -24.0368  -25.2748   20.9327 C   0  0  0  0  0  0  0  0  0  0  0  0
  -23.3365   -5.2430   23.3527 C   0  0  0  0  0  0  0  0  0  0  0  0
  -22.2800   -4.4458   22.9124 C   0  0  0  0  0  0  0  0  0  0  0  0
  -25.5734  -26.2137   22.5378 C   0  0  0  0  0  0  0  0  0  0  0  0
  -20.7332   -6.2457   23.3654 C   0  0  0  0  0  0  0  0  0  0  0  0
  -24.8361  -10.8974   22.2270 C   0  0  0  0  0  0  0  0  0  0  0  0
  -24.1206  -13.0882   21.1333 C   0  0  0  0  0  0  0  0  0  0  0  0
  -29.4763  -24.6615   15.2335 C   0  0  0  0  0  0  0  0  0  0  0  0
  -25.6941  -26.8995   20.2194 C   0  0  0  0  0  0  0  0  0  0  0  0
  -29.0354  -24.6028   16.5693 C   0  0  0  0  0  0  0  0  0  0  0  0
  -26.1674  -26.9962   21.5357 C   0  0  0  0  0  0  0  0  0  0  0  0
  -24.3694   -8.5009   23.5767 C   0  0  0  0  0  0  0  0  0  0  0  0
  -24.5151  -25.3566   22.2371 C   0  0  0  0  0  0  0  0  0  0  0  0
  -23.0914   -6.5415   23.7995 C   0  0  0  0  0  0  0  0  0  0  0  0
  -20.9783   -4.9471   22.9188 C   0  0  0  0  0  0  0  0  0  0  0  0
  -21.7898   -7.0428   23.8058 C   0  0  0  0  0  0  0  0  0  0  0  0
  -25.0778  -12.1354   21.5305 C   0  0  0  0  0  0  0  0  0  0  0  0
  -25.6992  -20.1437   23.2007 C   0  0  0  0  0  0  0  0  0  0  0  0
  -25.7942  -21.4921   23.4658 C   0  0  0  0  0  0  0  0  0  0  0  0
  -27.3642  -20.3323   21.6445 C   0  0  0  0  0  0  0  0  0  0  0  0
  -27.4588  -21.6808   21.9090 C   0  0  0  0  0  0  0  0  0  0  0  0
  -24.8520  -14.0722   20.5143 C   0  0  0  0  0  0  0  0  0  0  0  0
  -22.6976  -13.0842   21.3085 C   0  0  0  0  0  0  0  0  0  0  0  0
  -28.7256  -27.0913   19.2831 C   0  0  0  0  0  0  0  0  0  0  0  0
  -28.6808  -29.8321   21.0175 C   0  0  0  0  0  0  0  0  0  0  0  0
  -27.2643  -31.6408   23.5412 C   0  0  0  0  0  0  0  0  0  0  0  0
  -29.2909  -17.4497   20.3297 C   0  0  0  0  0  0  0  0  0  0  0  0
  -30.6444  -25.5217   14.8207 C   0  0  0  0  0  0  0  0  0  0  0  0
  -26.2954  -27.7442   19.1298 C   0  0  0  0  0  0  0  0  0  0  0  0
  -27.3042  -27.9127   21.9044 C   0  0  0  0  0  0  0  0  0  0  0  0
  -30.9920  -26.6056   15.8379 C   0  0  0  0  0  0  0  0  0  0  0  0
  -29.6946  -14.1499   19.0548 C   0  0  0  0  0  0  0  0  0  0  0  0
  -31.0273  -26.0234   17.2474 C   0  0  0  0  0  0  0  0  0  0  0  0
  -28.4542  -13.4093   19.5576 C   0  0  0  0  0  0  0  0  0  0  0  0
  -30.2032  -15.1601   20.0808 C   0  0  0  0  0  0  0  0  0  0  0  0
  -27.9518  -15.3827   21.0583 C   0  0  0  0  0  0  0  0  0  0  0  0
  -29.6568  -25.4638   17.6476 C   0  0  1  0  0  0  0  0  0  0  0  0
  -27.7190  -28.1957   19.4406 C   0  0  1  0  0  0  0  0  0  0  0  0
  -27.3689  -14.3928   20.0352 C   0  0  2  0  0  0  0  0  0  0  0  0
  -24.9965  -17.7906   23.7064 C   0  0  0  0  0  0  0  0  0  0  0  0
  -27.4676  -33.8307   24.7497 C   0  0  0  0  0  0  0  0  0  0  0  0
  -31.1188  -28.7754   22.5173 C   0  0  0  0  0  0  0  0  0  0  0  0
  -30.6944  -30.5005   24.2814 C   0  0  0  0  0  0  0  0  0  0  0  0
  -31.2183  -31.2084   21.9475 C   0  0  0  0  0  0  0  0  0  0  0  0
  -24.5359  -32.4659   22.7450 C   0  0  0  0  0  0  0  0  0  0  0  0
  -24.7203  -19.2775   23.9168 C   0  0  0  0  0  0  0  0  0  0  0  0
  -24.9125  -22.1552   24.4936 C   0  0  0  0  0  0  0  0  0  0  0  0
  -28.2367  -19.6763   20.6295 C   0  0  0  0  0  0  0  0  0  0  0  0
  -23.4783  -22.3906   24.0148 C   0  0  0  0  0  0  0  0  0  0  0  0
  -23.3856  -23.3509   22.8347 C   0  0  0  0  0  0  0  0  0  1  0  0
  -28.9605  -30.1911   22.4569 C   0  0  1  0  0  0  0  0  0  0  0  0
  -26.7973  -33.0837   23.6071 C   0  0  2  0  0  0  0  0  0  0  0  0
  -28.4376  -22.5468   21.1924 C   0  0  0  0  0  0  0  0  0  0  0  0
  -30.4778  -30.1500   22.7938 C   0  0  0  0  0  0  0  0  0  0  0  0
  -26.3223  -12.4826   21.1919 N   0  0  0  0  0  0  0  0  0  0  0  0
  -26.4825  -19.5396   22.2853 N   0  0  0  0  0  0  0  0  0  0  0  0
  -26.6757  -22.2849   22.8247 N   0  0  0  0  0  0  0  0  0  0  0  0
  -26.1521  -13.6646   20.5755 N   0  0  0  0  0  0  0  0  0  0  0  0
  -27.8631  -28.7136   20.8026 N   0  0  0  0  0  0  0  0  0  0  0  0
  -29.1260  -16.0641   20.4911 N   0  0  0  0  0  0  0  0  0  0  0  0
  -24.5034  -15.2376   19.9289 N   0  0  0  0  0  0  0  0  0  0  0  0
  -22.1084  -11.9960   21.9665 N   0  0  0  0  0  0  0  0  0  0  0  0
  -28.7605  -26.5382   18.0172 N   0  0  0  0  0  0  0  0  0  0  0  0
  -28.3330  -31.4886   22.6834 N   0  0  0  0  0  0  0  0  0  0  0  0
  -28.2195  -18.2346   20.7380 N   0  0  0  0  0  0  0  0  0  0  0  0
  -25.3219  -33.1419   23.8091 N   0  3  0  0  0  0  0  0  0  0  0  0
  -21.9683  -14.0101   20.8792 O   0  0  0  0  0  0  0  0  0  0  0  0
  -29.4203  -26.7661   20.2388 O   0  0  0  0  0  0  0  0  0  0  0  0
  -29.1640  -30.5230   20.1171 O   0  0  0  0  0  0  0  0  0  0  0  0
  -26.7364  -30.7395   24.1890 O   0  0  0  0  0  0  0  0  0  0  0  0
  -30.3148  -17.9499   19.8518 O   0  0  0  0  0  0  0  0  0  0  0  0
  -24.1415   -7.3319   24.2355 O   0  0  0  0  0  0  0  0  0  0  0  0
  -23.9476  -24.6049   23.2193 O   0  0  0  0  0  0  0  0  0  1  0  0
  -19.9641   -4.1820   22.4945 F   0  0  0  0  0  0  0  0  0  0  0  0
  -21.5482   -8.2899   24.2327 F   0  0  0  0  0  0  0  0  0  0  0  0
  -29.1994  -21.8740   20.2792 F   0  0  0  0  0  0  0  0  0  0  0  0
  -27.8568  -23.5643   20.4895 F   0  0  0  0  0  0  0  0  0  0  0  0
  -29.3260  -23.1473   22.0375 F   0  0  0  0  0  0  0  0  0  0  0  0
  1  2  1  0  0  0  0
  1  5  2  0  0  0  0
  2  6  2  0  0  0  0
  3  8  2  0  0  0  0
  3 15  1  0  0  0  0
  4  9  1  0  0  0  0
  4 15  2  0  0  0  0
  5 17  1  0  0  0  0
  6 19  1  0  0  0  0
  7 10  2  0  0  0  0
  7 18  1  0  0  0  0
  8 21  1  0  0  0  0
  9 21  2  0  0  0  0
 10 22  1  0  0  0  0
 11 12  2  0  0  0  0
 11 23  1  0  0  0  0
 12 24  1  0  0  0  0
 13 20  1  0  0  0  0
 13 22  2  0  0  0  0
 14 24  2  0  0  0  0
 14 25  1  0  0  0  0
 15 26  1  0  0  0  0
 16 26  1  0  0  0  0
 16 31  2  0  0  0  0
 16 32  1  0  0  0  0
 17 19  2  0  0  0  0
 17 37  1  0  0  0  0
 18 20  2  0  0  0  0
 18 38  1  0  0  0  0
 19 46  1  0  0  0  0
 20 39  1  0  0  0  0
 21 81  1  0  0  0  0
 22 82  1  0  0  0  0
 23 25  2  0  0  0  0
 23 81  1  0  0  0  0
 24 83  1  0  0  0  0
 25 84  1  0  0  0  0
 26 64  2  0  0  0  0
 27 28  2  0  0  0  0
 27 55  1  0  0  0  0
 27 65  1  0  0  0  0
 28 56  1  0  0  0  0
 28 66  1  0  0  0  0
 29 30  1  0  0  0  0
 29 57  1  0  0  0  0
 29 65  2  0  0  0  0
 30 62  1  0  0  0  0
 30 66  2  0  0  0  0
 31 67  1  0  0  0  0
 31 70  1  0  0  0  0
 32 71  1  0  0  0  0
 32 76  2  0  0  0  0
 33 47  1  0  0  0  0
 33 72  1  0  0  0  0
 33 77  2  0  0  0  0
 34 60  1  0  0  0  0
 34 68  1  0  0  0  0
 34 78  2  0  0  0  0
 35 61  1  0  0  0  0
 35 73  1  0  0  0  0
 35 79  2  0  0  0  0
 36 69  1  0  0  0  0
 36 74  1  0  0  0  0
 36 80  2  0  0  0  0
 37 40  1  0  0  0  0
 38 47  1  0  0  0  0
 39 68  1  0  0  0  0
 40 42  1  0  0  0  0
 41 43  1  0  0  0  0
 41 44  1  0  0  0  0
 42 46  1  0  0  0  0
 43 48  1  0  0  0  0
 44 69  1  0  0  0  0
 45 48  1  0  0  0  0
 45 69  1  0  0  0  0
 46 72  1  0  0  0  0
 47 68  1  0  0  0  0
 48 67  1  0  0  0  0
 49 55  1  0  0  0  0
 50 61  1  0  0  0  0
 51 63  1  0  0  0  0
 52 63  1  0  0  0  0
 53 63  1  0  0  0  0
 54 75  1  0  0  0  0
 56 58  1  0  0  0  0
 57 74  1  0  0  0  0
 58 59  1  0  0  0  0
 59 82  1  0  0  0  0
 60 63  1  0  0  0  0
 60 73  1  0  0  0  0
 61 75  1  0  0  0  0
 62 85  1  0  0  0  0
 62 86  1  0  0  0  0
 62 87  1  0  0  0  0
 64 67  1  0  0  0  0
M  CHG  1  75   1
M  ISO  4  36 100  59 101  74 100  82 101
M  END
> <Batch ID>
0064

> <Smiles>
CCc1nc(C[100NH:0][100C:0](=O)N2CCCC(n3nc(-c4ccc(Oc5ccc(F)cc5F)cc4)c(C(N)=O)c3N)C2)c(C(F)(F)F)nc1CC[101CH2:1][101O:1]c1ccc2c(c1)CN(C(=O)C(NC(=O)C(C)NC)C(C)(C)C)C(C(=O)NC1CCCc3ccccc31)C2

> <Shape>
0.259

> <Color>
0.108

> <Negative vol penalty>
0.000

$$$$

  -OEChem-04052318053D

 85 93  0     1  0  0  0  0  0999 V2000
  -17.9817  -23.0808   26.8085 C   0  0  0  0  0  0  0  0  0  0  0  0
  -19.2411  -22.6075   26.4548 C   0  0  0  0  0  0  0  0  0  0  0  0
  -23.1398   -9.7672   21.0175 C   0  0  0  0  0  0  0  0  0  0  0  0
  -23.8321  -10.5224   23.2056 C   0  0  0  0  0  0  0  0  0  0  0  0
  -17.4493  -24.1944   26.1601 C   0  0  0  0  0  0  0  0  0  0  0  0
  -19.9685  -23.2468   25.4515 C   0  0  0  0  0  0  0  0  0  0  0  0
  -26.0470  -23.9453   25.1868 C   0  0  0  0  0  0  0  0  0  0  0  0
  -22.4065   -8.7365   21.6053 C   0  0  0  0  0  0  0  0  0  0  0  0
  -23.0987   -9.4917   23.7934 C   0  0  0  0  0  0  0  0  0  0  0  0
  -27.0430  -23.2448   24.5077 C   0  0  0  0  0  0  0  0  0  0  0  0
  -19.4294   -8.3742   23.1669 C   0  0  0  0  0  0  0  0  0  0  0  0
  -18.1381   -8.1449   22.6919 C   0  0  0  0  0  0  0  0  0  0  0  0
  -26.9613  -24.8686   22.7256 C   0  0  0  0  0  0  0  0  0  0  0  0
  -18.7656   -5.8956   22.0720 C   0  0  0  0  0  0  0  0  0  0  0  0
  -23.8527  -10.6602   21.8177 C   0  0  0  0  0  0  0  0  0  0  0  0
  -24.1596  -13.0229   20.9061 C   0  0  0  0  0  0  0  0  0  0  0  0
  -18.1746  -24.8535   25.1550 C   0  0  0  0  0  0  0  0  0  0  0  0
  -25.4921  -25.1086   24.6344 C   0  0  0  0  0  0  0  0  0  0  0  0
  -19.4448  -24.3694   24.7881 C   0  0  0  0  0  0  0  0  0  0  0  0
  -25.9602  -25.5834   23.4009 C   0  0  0  0  0  0  0  0  0  0  0  0
  -22.3859   -8.5988   22.9932 C   0  0  0  0  0  0  0  0  0  0  0  0
  -27.4982  -23.7048   23.2756 C   0  0  0  0  0  0  0  0  0  0  0  0
  -20.3888   -7.3643   23.0943 C   0  0  0  0  0  0  0  0  0  0  0  0
  -17.8062   -6.9056   22.1445 C   0  0  0  0  0  0  0  0  0  0  0  0
  -20.0569   -6.1250   22.5469 C   0  0  0  0  0  0  0  0  0  0  0  0
  -24.6109  -11.7247   21.2112 C   0  0  0  0  0  0  0  0  0  0  0  0
  -31.4218  -21.2449   22.4817 C   0  0  0  0  0  0  0  0  0  0  0  0
  -30.0518  -21.2558   22.3652 C   0  0  0  0  0  0  0  0  0  0  0  0
  -25.2505  -13.6432   20.3478 C   0  0  0  0  0  0  0  0  0  0  0  0
  -30.9950  -20.1844   20.6863 C   0  0  0  0  0  0  0  0  0  0  0  0
  -22.8698  -13.6150   21.1093 C   0  0  0  0  0  0  0  0  0  0  0  0
  -22.5848  -25.9750   23.6855 C   0  0  0  0  0  0  0  0  0  0  0  0
  -24.0009  -28.8661   23.2871 C   0  0  0  0  0  0  0  0  0  0  0  0
  -26.8696  -30.6399   22.7671 C   0  0  0  0  0  0  0  0  0  0  0  0
  -30.7103  -14.7986   20.3268 C   0  0  0  0  0  0  0  0  0  0  0  0
  -17.5379  -26.0248   24.4497 C   0  0  0  0  0  0  0  0  0  0  0  0
  -24.4373  -25.8674   25.3921 C   0  0  0  0  0  0  0  0  0  0  0  0
  -25.4116  -26.8382   22.7742 C   0  0  0  0  0  0  0  0  0  0  0  0
  -18.5304  -26.8713   23.6570 C   0  0  0  0  0  0  0  0  0  0  0  0
  -29.6793  -11.7518   18.8002 C   0  0  0  0  0  0  0  0  0  0  0  0
  -19.4475  -25.9800   22.8255 C   0  0  0  0  0  0  0  0  0  0  0  0
  -28.2344  -11.5774   19.2712 C   0  0  0  0  0  0  0  0  0  0  0  0
  -30.5574  -12.3653   19.8886 C   0  0  0  0  0  0  0  0  0  0  0  0
  -28.6051  -13.4548   20.9254 C   0  0  0  0  0  0  0  0  0  0  0  0
  -20.2749  -25.0509   23.7219 C   0  0  1  0  0  0  0  0  0  0  0  0
  -23.5805  -26.7560   24.4956 C   0  0  1  0  0  0  0  0  0  0  0  0
  -27.6685  -12.8911   19.8431 C   0  0  2  0  0  0  0  0  0  0  0  0
  -32.4028  -23.3580   23.4086 C   0  0  0  0  0  0  0  0  0  0  0  0
  -27.7054  -32.9844   22.4474 C   0  0  0  0  0  0  0  0  0  0  0  0
  -30.4994  -20.1078   18.1485 C   0  0  0  0  0  0  0  0  0  0  0  0
  -32.5979  -19.1546   19.0608 C   0  0  0  0  0  0  0  0  0  0  0  0
  -22.9409  -28.8512   20.4260 C   0  0  0  0  0  0  0  0  0  0  0  0
  -24.5589  -30.6853   19.8910 C   0  0  0  0  0  0  0  0  0  0  0  0
  -22.7708  -31.0581   21.5900 C   0  0  0  0  0  0  0  0  0  0  0  0
  -28.4883  -20.3082   20.6484 C   0  0  0  0  0  0  0  0  0  0  0  0
  -28.5691  -30.4876   25.1853 C   0  0  0  0  0  0  0  0  0  0  0  0
  -32.2547  -21.8367   23.5407 C   0  0  0  0  0  0  0  0  0  0  0  0
  -28.9781  -21.8436   23.2329 C   0  0  0  0  0  0  0  0  0  1  0  0
  -30.4159  -17.9844   19.5145 C   0  0  0  0  0  0  0  0  0  0  0  0
  -30.7074  -17.2321   20.8140 C   0  0  0  0  0  0  0  0  0  0  0  0
  -24.7239  -29.5555   22.1554 C   0  0  1  0  0  0  0  0  0  0  0  0
  -27.4279  -31.8754   23.4502 C   0  0  2  0  0  0  0  0  0  0  0  0
  -31.0940  -19.4134   19.4297 C   0  0  0  0  0  0  0  0  0  0  0  0
  -23.7578  -30.0128   21.0262 C   0  0  0  0  0  0  0  0  0  0  0  0
  -25.8887  -11.5306   20.8744 N   0  0  0  0  0  0  0  0  0  0  0  0
  -32.0030  -20.5767   21.4333 N   0  0  0  0  0  0  0  0  0  0  0  0
  -29.7935  -20.5731   21.2101 N   0  0  0  0  0  0  0  0  0  0  0  0
  -26.2498  -12.7150   20.3519 N   0  0  0  0  0  0  0  0  0  0  0  0
  -24.3773  -27.5415   23.5509 N   0  0  0  0  0  0  0  0  0  0  0  0
  -29.9657  -13.6091   20.3872 N   0  0  0  0  0  0  0  0  0  0  0  0
  -25.4428  -14.8866   19.8586 N   0  0  0  0  0  0  0  0  0  0  0  0
  -21.8623  -12.8370   21.6957 N   0  0  0  0  0  0  0  0  0  0  0  0
  -21.3747  -25.7752   24.3221 N   0  0  0  0  0  0  0  0  0  0  0  0
  -25.4908  -30.6389   22.7608 N   0  0  0  0  0  0  0  0  0  0  0  0
  -30.0728  -15.9328   20.8145 N   0  0  0  0  0  0  0  0  0  0  0  0
  -28.7005  -31.5481   24.1532 N   0  3  0  0  0  0  0  0  0  0  0  0
  -22.6134  -14.7938   20.7655 O   0  0  0  0  0  0  0  0  0  0  0  0
  -22.8910  -25.5840   22.5652 O   0  0  0  0  0  0  0  0  0  0  0  0
  -23.1391  -29.4826   23.9187 O   0  0  0  0  0  0  0  0  0  0  0  0
  -27.5852  -29.7653   22.2840 O   0  0  0  0  0  0  0  0  0  0  0  0
  -31.8563  -14.8473   19.8671 O   0  0  0  0  0  0  0  0  0  0  0  0
  -21.6702   -7.5933   23.5670 O   0  0  0  0  0  0  0  0  0  0  0  0
  -28.4698  -23.0227   22.6103 O   0  0  0  0  0  0  0  0  0  1  0  0
  -16.5657   -6.6850   21.6899 F   0  0  0  0  0  0  0  0  0  0  0  0
  -20.9740   -5.1505   22.4756 F   0  0  0  0  0  0  0  0  0  0  0  0
  1  2  1  0  0  0  0
  1  5  2  0  0  0  0
  2  6  2  0  0  0  0
  3  8  2  0  0  0  0
  3 15  1  0  0  0  0
  4  9  1  0  0  0  0
  4 15  2  0  0  0  0
  5 17  1  0  0  0  0
  6 19  1  0  0  0  0
  7 10  2  0  0  0  0
  7 18  1  0  0  0  0
  8 21  1  0  0  0  0
  9 21  2  0  0  0  0
 10 22  1  0  0  0  0
 11 12  2  0  0  0  0
 11 23  1  0  0  0  0
 12 24  1  0  0  0  0
 13 20  1  0  0  0  0
 13 22  2  0  0  0  0
 14 24  2  0  0  0  0
 14 25  1  0  0  0  0
 15 26  1  0  0  0  0
 16 26  1  0  0  0  0
 16 29  2  0  0  0  0
 16 31  1  0  0  0  0
 17 19  2  0  0  0  0
 17 36  1  0  0  0  0
 18 20  2  0  0  0  0
 18 37  1  0  0  0  0
 19 45  1  0  0  0  0
 20 38  1  0  0  0  0
 21 82  1  0  0  0  0
 22 83  1  0  0  0  0
 23 25  2  0  0  0  0
 23 82  1  0  0  0  0
 24 84  1  0  0  0  0
 25 85  1  0  0  0  0
 26 65  2  0  0  0  0
 27 28  2  0  0  0  0
 27 57  1  0  0  0  0
 27 66  1  0  0  0  0
 28 58  1  0  0  0  0
 28 67  1  0  0  0  0
 29 68  1  0  0  0  0
 29 71  1  0  0  0  0
 30 63  1  0  0  0  0
 30 66  2  0  0  0  0
 30 67  1  0  0  0  0
 31 72  1  0  0  0  0
 31 77  2  0  0  0  0
 32 46  1  0  0  0  0
 32 73  1  0  0  0  0
 32 78  2  0  0  0  0
 33 61  1  0  0  0  0
 33 69  1  0  0  0  0
 33 79  2  0  0  0  0
 34 62  1  0  0  0  0
 34 74  1  0  0  0  0
 34 80  2  0  0  0  0
 35 70  1  0  0  0  0
 35 75  1  0  0  0  0
 35 81  2  0  0  0  0
 36 39  1  0  0  0  0
 37 46  1  0  0  0  0
 38 69  1  0  0  0  0
 39 41  1  0  0  0  0
 40 42  1  0  0  0  0
 40 43  1  0  0  0  0
 41 45  1  0  0  0  0
 42 47  1  0  0  0  0
 43 70  1  0  0  0  0
 44 47  1  0  0  0  0
 44 70  1  0  0  0  0
 45 73  1  0  0  0  0
 46 69  1  0  0  0  0
 47 68  1  0  0  0  0
 48 57  1  0  0  0  0
 49 62  1  0  0  0  0
 50 63  1  0  0  0  0
 51 63  1  0  0  0  0
 52 64  1  0  0  0  0
 53 64  1  0  0  0  0
 54 64  1  0  0  0  0
 55 67  1  0  0  0  0
 56 76  1  0  0  0  0
 58 83  1  0  0  0  0
 59 60  1  0  0  0  0
 59 63  1  0  0  0  0
 60 75  1  0  0  0  0
 61 64  1  0  0  0  0
 61 74  1  0  0  0  0
 62 76  1  0  0  0  0
 65 68  1  0  0  0  0
M  CHG  1  76   1
M  ISO  4  35 100  58 101  75 100  83 101
M  END
> <Batch ID>
0064

> <Smiles>
CCc1nc(C(C)(C)CC[100NH:0][100C:0](=O)N2CCCC(n3nc(-c4ccc(Oc5ccc(F)cc5F)cc4)c(C(N)=O)c3N)C2)n(C)c1[101CH2:1][101O:1]c1ccc2c(c1)CN(C(=O)C(NC(=O)C(C)NC)C(C)(C)C)C(C(=O)NC1CCCc3ccccc31)C2

> <Shape>
0.244

> <Color>
0.147

> <Negative vol penalty>
0.000

$$$$

  -OEChem-04052318052D

  0  0  0     0  0  0  0  0  0999 V2000
M  END
$$$$

  -OEChem-04052318053D

 85 93  0     1  0  0  0  0  0999 V2000
  -30.8288  -23.4717   15.4358 C   0  0  0  0  0  0  0  0  0  0  0  0
  -29.4625  -23.6130   15.6561 C   0  0  0  0  0  0  0  0  0  0  0  0
  -23.5591  -14.5788   19.5807 C   0  0  0  0  0  0  0  0  0  0  0  0
  -24.8510  -14.6697   21.6203 C   0  0  0  0  0  0  0  0  0  0  0  0
  -31.7219  -23.5989   16.4989 C   0  0  0  0  0  0  0  0  0  0  0  0
  -28.9883  -23.8805   16.9398 C   0  0  0  0  0  0  0  0  0  0  0  0
  -24.1570  -27.3345   18.4345 C   0  0  0  0  0  0  0  0  0  0  0  0
  -24.5163  -13.7387   19.0119 C   0  0  0  0  0  0  0  0  0  0  0  0
  -25.8082  -13.8296   21.0515 C   0  0  0  0  0  0  0  0  0  0  0  0
  -22.8400  -27.0142   18.7611 C   0  0  0  0  0  0  0  0  0  0  0  0
  -28.3840  -14.0996   18.8782 C   0  0  0  0  0  0  0  0  0  0  0  0
  -29.7263  -14.4396   19.0459 C   0  0  0  0  0  0  0  0  0  0  0  0
  -23.4041  -27.1102   21.1045 C   0  0  0  0  0  0  0  0  0  0  0  0
  -30.1163  -12.3412   20.1781 C   0  0  0  0  0  0  0  0  0  0  0  0
  -17.3712  -26.3202   20.5221 C   0  0  0  0  0  0  0  0  0  0  0  0
  -23.7264  -15.0443   20.8849 C   0  0  0  0  0  0  0  0  0  0  0  0
  -21.6016  -15.5304   22.2102 C   0  0  0  0  0  0  0  0  0  0  0  0
  -31.2592  -23.8777   17.7946 C   0  0  0  0  0  0  0  0  0  0  0  0
  -25.1116  -27.5348   19.4420 C   0  0  0  0  0  0  0  0  0  0  0  0
  -29.8760  -24.0102   18.0215 C   0  0  0  0  0  0  0  0  0  0  0  0
  -24.7319  -27.4355   20.7882 C   0  0  0  0  0  0  0  0  0  0  0  0
  -25.6408  -13.3641   19.7472 C   0  0  0  0  0  0  0  0  0  0  0  0
  -22.4640  -26.8991   20.0962 C   0  0  0  0  0  0  0  0  0  0  0  0
  -27.9077  -12.8805   19.3605 C   0  0  0  0  0  0  0  0  0  0  0  0
  -30.5925  -13.5603   19.6958 C   0  0  0  0  0  0  0  0  0  0  0  0
  -28.7739  -12.0013   20.0104 C   0  0  0  0  0  0  0  0  0  0  0  0
  -22.7383  -15.9126   21.4729 C   0  0  0  0  0  0  0  0  0  0  0  0
  -20.9937  -16.7161   22.5433 C   0  0  0  0  0  0  0  0  0  0  0  0
  -18.4317  -25.9009   22.3683 C   0  0  0  0  0  0  0  0  0  0  0  0
  -21.1368  -14.2206   22.5625 C   0  0  0  0  0  0  0  0  0  0  0  0
  -27.8323  -26.1141   20.2687 C   0  0  0  0  0  0  0  0  0  0  0  0
  -28.0196  -28.5698   22.3797 C   0  0  0  0  0  0  0  0  0  0  0  0
  -26.3952  -30.9582   24.1974 C   0  0  0  0  0  0  0  0  0  0  0  0
  -21.0817  -21.7788   24.3663 C   0  0  0  0  0  0  0  0  0  0  0  0
  -32.2592  -23.9595   18.9206 C   0  0  0  0  0  0  0  0  0  0  0  0
  -26.5219  -27.9060   19.0737 C   0  0  0  0  0  0  0  0  0  0  0  0
  -25.7139  -27.6608   21.9078 C   0  0  0  0  0  0  0  0  0  0  0  0
  -31.7035  -24.6148   20.1824 C   0  0  0  0  0  0  0  0  0  0  0  0
  -21.8350  -21.4271   20.9340 C   0  0  0  0  0  0  0  0  0  0  0  0
  -30.3295  -24.0445   20.5193 C   0  0  0  0  0  0  0  0  0  0  0  0
  -22.0556  -19.9190   20.8255 C   0  0  0  0  0  0  0  0  0  0  0  0
  -22.4233  -22.0027   22.2235 C   0  0  0  0  0  0  0  0  0  0  0  0
  -22.1793  -19.8092   23.3423 C   0  0  0  0  0  0  0  0  0  0  0  0
  -29.3249  -24.3252   19.3952 C   0  0  1  0  0  0  0  0  0  0  0  0
  -27.5309  -27.5829   20.1714 C   0  0  1  0  0  0  0  0  0  0  0  0
  -21.5451  -19.1964   22.0842 C   0  0  2  0  0  0  0  0  0  0  0  0
  -20.3281  -26.4987   23.9191 C   0  0  0  0  0  0  0  0  0  0  0  0
  -26.8118  -32.7906   25.8605 C   0  0  0  0  0  0  0  0  0  0  0  0
  -28.3897  -26.4869   24.5784 C   0  0  0  0  0  0  0  0  0  0  0  0
  -27.8496  -28.2643   26.2569 C   0  0  0  0  0  0  0  0  0  0  0  0
  -29.8553  -28.5019   24.7930 C   0  0  0  0  0  0  0  0  0  0  0  0
  -17.8729  -24.9847   25.3395 C   0  0  0  0  0  0  0  0  0  0  0  0
  -18.2578  -23.1286   23.7188 C   0  0  0  0  0  0  0  0  0  0  0  0
  -22.3630  -23.9596   24.4508 C   0  0  0  0  0  0  0  0  0  0  0  0
  -25.3205  -33.0213   22.3678 C   0  0  0  0  0  0  0  0  0  0  0  0
  -19.4771  -24.8820   20.2417 C   0  0  0  0  0  0  0  0  0  0  0  0
  -20.0632  -23.8065   25.3304 C   0  0  0  0  0  0  0  0  0  0  0  0
  -20.4565  -25.7772   19.4904 C   0  0  0  0  0  0  0  0  0  1  0  0
  -19.4466  -25.3715   23.2967 C   0  0  1  0  0  0  0  0  0  0  0  0
  -27.5511  -28.8001   23.7962 C   0  0  1  0  0  0  0  0  0  0  0  0
  -26.6693  -32.4390   24.3878 C   0  0  2  0  0  0  0  0  0  0  0  0
  -28.3931  -28.0071   24.8352 C   0  0  0  0  0  0  0  0  0  0  0  0
  -18.9267  -24.3407   24.4114 C   0  0  0  0  0  0  0  0  0  0  0  0
  -16.7138  -26.9068   21.4968 N   0  0  0  0  0  0  0  0  0  0  0  0
  -22.8482  -17.2376   21.3448 N   0  0  0  0  0  0  0  0  0  0  0  0
  -17.3885  -26.6401   22.6714 N   0  0  0  0  0  0  0  0  0  0  0  0
  -18.4599  -25.6751   21.0256 N   0  0  0  0  0  0  0  0  0  0  0  0
  -21.7727  -17.6983   22.0060 N   0  0  0  0  0  0  0  0  0  0  0  0
  -27.0824  -28.0154   21.4966 N   0  0  0  0  0  0  0  0  0  0  0  0
  -21.9479  -21.2548   23.3954 N   0  0  0  0  0  0  0  0  0  0  0  0
  -19.8741  -17.0041   23.2405 N   0  0  0  0  0  0  0  0  0  0  0  0
  -21.8814  -13.1112   22.1395 N   0  0  0  0  0  0  0  0  0  0  0  0
  -28.8691  -25.6975   19.4558 N   0  0  0  0  0  0  0  0  0  0  0  0
  -27.5583  -30.2448   23.9988 N   0  0  0  0  0  0  0  0  0  0  0  0
  -21.1512  -23.1584   24.6116 N   0  0  0  0  0  0  0  0  0  0  0  0
  -25.5566  -33.2494   23.8167 N   0  3  0  0  0  0  0  0  0  0  0  0
  -20.0832  -14.0388   23.2186 O   0  0  0  0  0  0  0  0  0  0  0  0
  -27.1739  -25.4111   21.0263 O   0  0  0  0  0  0  0  0  0  0  0  0
  -29.1724  -28.8774   22.0665 O   0  0  0  0  0  0  0  0  0  0  0  0
  -25.2628  -30.4813   24.2260 O   0  0  0  0  0  0  0  0  0  0  0  0
  -20.2940  -21.0532   24.9869 O   0  0  0  0  0  0  0  0  0  0  0  0
  -26.5749  -12.5442   19.1925 O   0  0  0  0  0  0  0  0  0  0  0  0
  -21.1793  -26.5859   20.4177 O   0  0  0  0  0  0  0  0  0  1  0  0
  -31.8819  -13.8862   19.8554 F   0  0  0  0  0  0  0  0  0  0  0  0
  -28.3224  -10.8281   20.4748 F   0  0  0  0  0  0  0  0  0  0  0  0
  1  2  1  0  0  0  0
  1  5  2  0  0  0  0
  2  6  2  0  0  0  0
  3  8  2  0  0  0  0
  3 16  1  0  0  0  0
  4  9  1  0  0  0  0
  4 16  2  0  0  0  0
  5 18  1  0  0  0  0
  6 20  1  0  0  0  0
  7 10  2  0  0  0  0
  7 19  1  0  0  0  0
  8 22  1  0  0  0  0
  9 22  2  0  0  0  0
 10 23  1  0  0  0  0
 11 12  2  0  0  0  0
 11 24  1  0  0  0  0
 12 25  1  0  0  0  0
 13 21  1  0  0  0  0
 13 23  2  0  0  0  0
 14 25  2  0  0  0  0
 14 26  1  0  0  0  0
 15 64  2  0  0  0  0
 15 67  1  0  0  0  0
 16 27  1  0  0  0  0
 17 27  1  0  0  0  0
 17 28  2  0  0  0  0
 17 30  1  0  0  0  0
 18 20  2  0  0  0  0
 18 35  1  0  0  0  0
 19 21  2  0  0  0  0
 19 36  1  0  0  0  0
 20 44  1  0  0  0  0
 21 37  1  0  0  0  0
 22 82  1  0  0  0  0
 23 83  1  0  0  0  0
 24 26  2  0  0  0  0
 24 82  1  0  0  0  0
 25 84  1  0  0  0  0
 26 85  1  0  0  0  0
 27 65  2  0  0  0  0
 28 68  1  0  0  0  0
 28 71  1  0  0  0  0
 29 59  1  0  0  0  0
 29 66  2  0  0  0  0
 29 67  1  0  0  0  0
 30 72  1  0  0  0  0
 30 77  2  0  0  0  0
 31 45  1  0  0  0  0
 31 73  1  0  0  0  0
 31 78  2  0  0  0  0
 32 60  1  0  0  0  0
 32 69  1  0  0  0  0
 32 79  2  0  0  0  0
 33 61  1  0  0  0  0
 33 74  1  0  0  0  0
 33 80  2  0  0  0  0
 34 70  1  0  0  0  0
 34 75  1  0  0  0  0
 34 81  2  0  0  0  0
 35 38  1  0  0  0  0
 36 45  1  0  0  0  0
 37 69  1  0  0  0  0
 38 40  1  0  0  0  0
 39 41  1  0  0  0  0
 39 42  1  0  0  0  0
 40 44  1  0  0  0  0
 41 46  1  0  0  0  0
 42 70  1  0  0  0  0
 43 46  1  0  0  0  0
 43 70  1  0  0  0  0
 44 73  1  0  0  0  0
 45 69  1  0  0  0  0
 46 68  1  0  0  0  0
 47 59  1  0  0  0  0
 48 61  1  0  0  0  0
 49 62  1  0  0  0  0
 50 62  1  0  0  0  0
 51 62  1  0  0  0  0
 52 63  1  0  0  0  0
 53 63  1  0  0  0  0
 54 75  1  0  0  0  0
 55 76  1  0  0  0  0
 56 58  1  0  0  0  0
 56 67  1  0  0  0  0
 57 63  1  0  0  0  0
 57 75  1  0  0  0  0
 58 83  1  0  0  0  0
 59 63  1  0  0  0  0
 60 62  1  0  0  0  0
 60 74  1  0  0  0  0
 61 76  1  0  0  0  0
 64 66  1  0  0  0  0
 65 68  1  0  0  0  0
M  CHG  1  76   1
M  ISO  4  34 100  58 101  75 100  83 101
M  END
> <Batch ID>
0064

> <Smiles>
CNC(C)C(=O)NC(C(=O)N1Cc2cc([101O:1][101CH2:1]Cn3cnnc3C(C)C(C)(C)C[100N:0](C)[100C:0](=O)N3CCCC(n4nc(-c5ccc(Oc6ccc(F)cc6F)cc5)c(C(N)=O)c4N)C3)ccc2CC1C(=O)NC1CCCc2ccccc21)C(C)(C)C

> <Shape>
0.229

> <Color>
0.055

> <Negative vol penalty>
0.000

$$$$

  -OEChem-04052318053D

 91 99  0     1  0  0  0  0  0999 V2000
  -27.1887  -29.4765   15.1193 C   0  0  0  0  0  0  0  0  0  0  0  0
  -27.1659  -28.5245   16.1335 C   0  0  0  0  0  0  0  0  0  0  0  0
  -23.0788   -9.8836   19.9721 C   0  0  0  0  0  0  0  0  0  0  0  0
  -23.9511   -9.8894   22.2251 C   0  0  0  0  0  0  0  0  0  0  0  0
  -28.2919  -30.3175   14.9789 C   0  0  0  0  0  0  0  0  0  0  0  0
  -28.2468  -28.4122   17.0073 C   0  0  0  0  0  0  0  0  0  0  0  0
  -26.8003  -27.9699   21.8402 C   0  0  0  0  0  0  0  0  0  0  0  0
  -22.3732   -8.7125   20.2483 C   0  0  0  0  0  0  0  0  0  0  0  0
  -23.2455   -8.7184   22.5013 C   0  0  0  0  0  0  0  0  0  0  0  0
  -26.3435  -26.7201   22.2563 C   0  0  0  0  0  0  0  0  0  0  0  0
  -20.0690   -7.8454   23.2555 C   0  0  0  0  0  0  0  0  0  0  0  0
  -19.3721   -7.7798   24.4619 C   0  0  0  0  0  0  0  0  0  0  0  0
  -28.4969  -26.2690   23.2455 C   0  0  0  0  0  0  0  0  0  0  0  0
  -20.6898   -5.8644   25.1191 C   0  0  0  0  0  0  0  0  0  0  0  0
  -27.1338  -18.8506   22.1242 C   0  0  0  0  0  0  0  0  0  0  0  0
  -23.8678  -10.4720   20.9605 C   0  0  0  0  0  0  0  0  0  0  0  0
  -24.1489  -13.0049   20.8460 C   0  0  0  0  0  0  0  0  0  0  0  0
  -29.3827  -30.2219   15.8574 C   0  0  0  0  0  0  0  0  0  0  0  0
  -28.1145  -28.3749   22.1147 C   0  0  0  0  0  0  0  0  0  0  0  0
  -29.3662  -29.2518   16.8777 C   0  0  0  0  0  0  0  0  0  0  0  0
  -28.9672  -27.5254   22.8341 C   0  0  0  0  0  0  0  0  0  0  0  0
  -22.4565   -8.1299   21.5129 C   0  0  0  0  0  0  0  0  0  0  0  0
  -27.1927  -25.8683   22.9565 C   0  0  0  0  0  0  0  0  0  0  0  0
  -21.0763   -6.9204   22.9807 C   0  0  0  0  0  0  0  0  0  0  0  0
  -19.6825   -6.7893   25.3937 C   0  0  0  0  0  0  0  0  0  0  0  0
  -21.3868   -5.9299   23.9125 C   0  0  0  0  0  0  0  0  0  0  0  0
  -24.5974  -11.6814   20.6756 C   0  0  0  0  0  0  0  0  0  0  0  0
  -26.2046  -19.6191   21.4815 C   0  0  0  0  0  0  0  0  0  0  0  0
  -25.2054  -13.7809   20.4358 C   0  0  0  0  0  0  0  0  0  0  0  0
  -27.8409  -19.1888   20.0539 C   0  0  0  0  0  0  0  0  0  0  0  0
  -22.8900  -13.4895   21.3317 C   0  0  0  0  0  0  0  0  0  0  0  0
  -30.6388  -29.1499   20.3451 C   0  0  0  0  0  0  0  0  0  0  0  0
  -31.9327  -29.9096   23.2210 C   0  0  0  0  0  0  0  0  0  0  0  0
  -31.9431  -29.4574   26.6037 C   0  0  0  0  0  0  0  0  0  0  0  0
  -30.8185  -14.6115   20.7825 C   0  0  0  0  0  0  0  0  0  0  0  0
  -30.5733  -31.1211   15.6369 C   0  0  0  0  0  0  0  0  0  0  0  0
  -28.5837  -29.7370   21.6823 C   0  0  0  0  0  0  0  0  0  0  0  0
  -30.3806  -27.9211   23.1718 C   0  0  0  0  0  0  0  0  0  0  0  0
  -31.5156  -31.1892   16.8359 C   0  0  0  0  0  0  0  0  0  0  0  0
  -29.4647  -12.5611   18.0140 C   0  0  0  0  0  0  0  0  0  0  0  0
  -31.7974  -29.7897   17.3735 C   0  0  0  0  0  0  0  0  0  0  0  0
  -28.0666  -12.2046   18.5164 C   0  0  0  0  0  0  0  0  0  0  0  0
  -30.4406  -12.7861   19.1649 C   0  0  0  0  0  0  0  0  0  0  0  0
  -28.5818  -13.4389   20.6591 C   0  0  0  0  0  0  0  0  0  0  0  0
  -30.5088  -29.1160   17.8606 C   0  0  1  0  0  0  0  0  0  0  0  0
  -30.1017  -29.8377   21.5682 C   0  0  1  0  0  0  0  0  0  0  0  0
  -27.5627  -13.2513   19.5252 C   0  0  2  0  0  0  0  0  0  0  0  0
  -33.1405  -30.1867   28.6849 C   0  0  0  0  0  0  0  0  0  0  0  0
  -23.7347  -19.6519   21.0718 C   0  0  0  0  0  0  0  0  0  0  0  0
  -24.5056  -19.8405   23.4196 C   0  0  0  0  0  0  0  0  0  0  0  0
  -28.8703  -17.7171   18.2847 C   0  0  0  0  0  0  0  0  0  0  0  0
  -27.9886  -19.9870   17.6668 C   0  0  0  0  0  0  0  0  0  0  0  0
  -34.2787  -28.0951   22.5043 C   0  0  0  0  0  0  0  0  0  0  0  0
  -34.9357  -28.1070   24.9202 C   0  0  0  0  0  0  0  0  0  0  0  0
  -34.9209  -30.2376   23.6230 C   0  0  0  0  0  0  0  0  0  0  0  0
  -31.0866  -15.9683   22.8238 C   0  0  0  0  0  0  0  0  0  0  0  0
  -29.9496  -20.9199   19.8222 C   0  0  0  0  0  0  0  0  0  0  0  0
  -30.5701  -20.0561   17.6678 C   0  0  0  0  0  0  0  0  0  0  0  0
  -29.4761  -30.6172   27.7559 C   0  0  0  0  0  0  0  0  0  0  0  0
  -25.9000  -22.5064   22.6854 C   0  0  0  0  0  0  0  0  0  0  0  0
  -24.8622  -21.7720   21.8280 C   0  0  0  0  0  0  0  0  0  0  0  0
  -29.3238  -17.8141   21.4845 C   0  0  0  0  0  0  0  0  0  0  0  0
  -29.0659  -16.3100   21.4506 C   0  0  0  0  0  0  0  0  0  0  0  0
  -25.7521  -24.0181   22.5600 C   0  0  0  0  0  0  0  0  0  1  0  0
  -32.7247  -29.1637   24.2676 C   0  0  1  0  0  0  0  0  0  0  0  0
  -31.9682  -30.4494   27.7525 C   0  0  2  0  0  0  0  0  0  0  0  0
  -24.8699  -20.2163   21.9629 C   0  0  0  0  0  0  0  0  0  0  0  0
  -28.6537  -19.1669   18.8123 C   0  0  0  0  0  0  0  0  0  0  0  0
  -34.1890  -28.8923   23.8209 C   0  0  0  0  0  0  0  0  0  0  0  0
  -25.8417  -11.6166   20.1945 N   0  0  0  0  0  0  0  0  0  0  0  0
  -28.1348  -18.5989   21.2171 N   0  0  0  0  0  0  0  0  0  0  0  0
  -26.1841  -12.9090   20.0590 N   0  0  0  0  0  0  0  0  0  0  0  0
  -26.6680  -19.8130   20.2026 N   0  3  0  0  0  0  0  0  0  0  0  0
  -30.7947  -29.2604   22.7218 N   0  0  0  0  0  0  0  0  0  0  0  0
  -29.9179  -13.7529   20.1310 N   0  0  0  0  0  0  0  0  0  0  0  0
  -25.3832  -15.1172   20.3643 N   0  0  0  0  0  0  0  0  0  0  0  0
  -21.9158  -12.5558   21.7105 N   0  0  0  0  0  0  0  0  0  0  0  0
  -30.1264  -29.6341   19.1567 N   0  0  0  0  0  0  0  0  0  0  0  0
  -32.6093  -29.9403   25.4972 N   0  0  0  0  0  0  0  0  0  0  0  0
  -30.2790  -15.5324   21.6934 N   0  0  0  0  0  0  0  0  0  0  0  0
  -30.0073  -19.7366   18.9735 N   0  0  0  0  0  0  0  0  0  0  0  0
  -30.7086  -30.3577   28.5437 N   0  3  0  0  0  0  0  0  0  0  0  0
  -22.6305  -14.7142   21.4115 O   0  0  0  0  0  0  0  0  0  0  0  0
  -31.4585  -28.2477   20.4703 O   0  0  0  0  0  0  0  0  0  0  0  0
  -32.3059  -31.0302   22.8650 O   0  0  0  0  0  0  0  0  0  0  0  0
  -31.3911  -28.3620   26.6814 O   0  0  0  0  0  0  0  0  0  0  0  0
  -32.0343  -14.5646   20.5554 O   0  0  0  0  0  0  0  0  0  0  0  0
  -21.7679   -6.9873   21.7829 O   0  0  0  0  0  0  0  0  0  0  0  0
  -26.7495  -24.6476   23.3632 O   0  0  0  0  0  0  0  0  0  1  0  0
  -19.0142   -6.7274   26.5529 F   0  0  0  0  0  0  0  0  0  0  0  0
  -22.3543   -5.0393   23.6547 F   0  0  0  0  0  0  0  0  0  0  0  0
  1  2  1  0  0  0  0
  1  5  2  0  0  0  0
  2  6  2  0  0  0  0
  3  8  2  0  0  0  0
  3 16  1  0  0  0  0
  4  9  1  0  0  0  0
  4 16  2  0  0  0  0
  5 18  1  0  0  0  0
  6 20  1  0  0  0  0
  7 10  2  0  0  0  0
  7 19  1  0  0  0  0
  8 22  1  0  0  0  0
  9 22  2  0  0  0  0
 10 23  1  0  0  0  0
 11 12  2  0  0  0  0
 11 24  1  0  0  0  0
 12 25  1  0  0  0  0
 13 21  1  0  0  0  0
 13 23  2  0  0  0  0
 14 25  2  0  0  0  0
 14 26  1  0  0  0  0
 15 28  2  0  0  0  0
 15 71  1  0  0  0  0
 16 27  1  0  0  0  0
 17 27  1  0  0  0  0
 17 29  2  0  0  0  0
 17 31  1  0  0  0  0
 18 20  2  0  0  0  0
 18 36  1  0  0  0  0
 19 21  2  0  0  0  0
 19 37  1  0  0  0  0
 20 45  1  0  0  0  0
 21 38  1  0  0  0  0
 22 88  1  0  0  0  0
 23 89  1  0  0  0  0
 24 26  2  0  0  0  0
 24 88  1  0  0  0  0
 25 90  1  0  0  0  0
 26 91  1  0  0  0  0
 27 70  2  0  0  0  0
 28 67  1  0  0  0  0
 28 73  1  0  0  0  0
 29 72  1  0  0  0  0
 29 76  1  0  0  0  0
 30 68  1  0  0  0  0
 30 71  1  0  0  0  0
 30 73  2  0  0  0  0
 31 77  1  0  0  0  0
 31 83  2  0  0  0  0
 32 46  1  0  0  0  0
 32 78  1  0  0  0  0
 32 84  2  0  0  0  0
 33 65  1  0  0  0  0
 33 74  1  0  0  0  0
 33 85  2  0  0  0  0
 34 66  1  0  0  0  0
 34 79  1  0  0  0  0
 34 86  2  0  0  0  0
 35 75  1  0  0  0  0
 35 80  1  0  0  0  0
 35 87  2  0  0  0  0
 36 39  1  0  0  0  0
 37 46  1  0  0  0  0
 38 74  1  0  0  0  0
 39 41  1  0  0  0  0
 40 42  1  0  0  0  0
 40 43  1  0  0  0  0
 41 45  1  0  0  0  0
 42 47  1  0  0  0  0
 43 75  1  0  0  0  0
 44 47  1  0  0  0  0
 44 75  1  0  0  0  0
 45 78  1  0  0  0  0
 46 74  1  0  0  0  0
 47 72  1  0  0  0  0
 48 66  1  0  0  0  0
 49 67  1  0  0  0  0
 50 67  1  0  0  0  0
 51 68  1  0  0  0  0
 52 68  1  0  0  0  0
 53 69  1  0  0  0  0
 54 69  1  0  0  0  0
 55 69  1  0  0  0  0
 56 80  1  0  0  0  0
 57 81  1  0  0  0  0
 58 81  1  0  0  0  0
 59 82  1  0  0  0  0
 60 61  1  0  0  0  0
 60 64  1  0  0  0  0
 61 67  1  0  0  0  0
 62 63  1  0  0  0  0
 62 71  1  0  0  0  0
 63 80  1  0  0  0  0
 64 89  1  0  0  0  0
 65 69  1  0  0  0  0
 65 79  1  0  0  0  0
 66 82  1  0  0  0  0
 68 81  1  0  0  0  0
 70 72  1  0  0  0  0
M  CHG  2  73   1  82   1
M  ISO  4  35 100  64 101  80 100  89 101
M  END
> <Batch ID>
0064

> <Smiles>
CNC(C)C(=O)NC(C(=O)N1Cc2cc([101O:1][101CH2:1]CCC(C)(C)c3cn(CC[100N:0](C)[100C:0](=O)N4CCCC(n5nc(-c6ccc(Oc7ccc(F)cc7F)cc6)c(C(N)=O)c5N)C4)c(C(C)(C)N(C)C)n3)ccc2CC1C(=O)NC1CCCc2ccccc21)C(C)(C)C

> <Shape>
0.224

> <Color>
0.175

> <Negative vol penalty>
0.000

$$$$

  -OEChem-04052318053D

 89 97  0     1  0  0  0  0  0999 V2000
  -16.0936  -27.6332   26.2558 C   0  0  0  0  0  0  0  0  0  0  0  0
  -16.5110  -26.5612   25.4735 C   0  0  0  0  0  0  0  0  0  0  0  0
  -29.9117  -19.6934   18.3236 C   0  0  0  0  0  0  0  0  0  0  0  0
  -29.1842  -19.7062   20.6274 C   0  0  0  0  0  0  0  0  0  0  0  0
  -16.4377  -28.9349   25.8934 C   0  0  0  0  0  0  0  0  0  0  0  0
  -17.2719  -26.7903   24.3277 C   0  0  0  0  0  0  0  0  0  0  0  0
  -21.7310  -23.2339   22.0974 C   0  0  0  0  0  0  0  0  0  0  0  0
  -29.5518  -21.0355   18.2024 C   0  0  0  0  0  0  0  0  0  0  0  0
  -28.8243  -21.0484   20.5063 C   0  0  0  0  0  0  0  0  0  0  0  0
  -21.7493  -22.2782   21.0825 C   0  0  0  0  0  0  0  0  0  0  0  0
  -29.1593  -24.5574   17.3917 C   0  0  0  0  0  0  0  0  0  0  0  0
  -30.0559  -25.4141   16.7531 C   0  0  0  0  0  0  0  0  0  0  0  0
  -22.5539  -23.9452   19.5356 C   0  0  0  0  0  0  0  0  0  0  0  0
  -31.7301  -24.9032   18.4184 C   0  0  0  0  0  0  0  0  0  0  0  0
  -24.4132  -14.6149   19.8686 C   0  0  0  0  0  0  0  0  0  0  0  0
  -25.7083  -15.6044   21.5419 C   0  0  0  0  0  0  0  0  0  0  0  0
  -29.7279  -19.0287   19.5361 C   0  0  0  0  0  0  0  0  0  0  0  0
  -31.3481  -17.1290   20.0593 C   0  0  0  0  0  0  0  0  0  0  0  0
  -17.2113  -29.1793   24.7478 C   0  0  0  0  0  0  0  0  0  0  0  0
  -22.1142  -24.5572   21.8360 C   0  0  0  0  0  0  0  0  0  0  0  0
  -17.6255  -28.0965   23.9488 C   0  0  0  0  0  0  0  0  0  0  0  0
  -22.5420  -24.9152   20.5495 C   0  0  0  0  0  0  0  0  0  0  0  0
  -25.2388  -14.4440   20.9610 C   0  0  0  0  0  0  0  0  0  0  0  0
  -29.0081  -21.7130   19.2938 C   0  0  0  0  0  0  0  0  0  0  0  0
  -22.1581  -22.6344   19.8007 C   0  0  0  0  0  0  0  0  0  0  0  0
  -29.5481  -23.8736   18.5436 C   0  0  0  0  0  0  0  0  0  0  0  0
  -31.3413  -25.5870   17.2665 C   0  0  0  0  0  0  0  0  0  0  0  0
  -30.8334  -24.0465   19.0570 C   0  0  0  0  0  0  0  0  0  0  0  0
  -30.0989  -17.6421   19.6617 C   0  0  0  0  0  0  0  0  0  0  0  0
  -31.1884  -15.7655   20.0173 C   0  0  0  0  0  0  0  0  0  0  0  0
  -24.5880  -16.8758   20.0268 C   0  0  0  0  0  0  0  0  0  0  0  0
  -32.5458  -17.8229   20.4332 C   0  0  0  0  0  0  0  0  0  0  0  0
  -20.6606  -27.3810   21.9666 C   0  0  0  0  0  0  0  0  0  0  0  0
  -23.6306  -28.5036   21.3023 C   0  0  0  0  0  0  0  0  0  0  0  0
  -26.3088  -12.2825   20.4301 C   0  0  0  0  0  0  0  0  0  0  0  0
  -26.7174  -27.9197   19.9691 C   0  0  0  0  0  0  0  0  0  0  0  0
  -17.5184  -30.6069   24.3703 C   0  0  0  0  0  0  0  0  0  0  0  0
  -22.1143  -25.5700   22.9480 C   0  0  0  0  0  0  0  0  0  0  0  0
  -22.9826  -26.3177   20.2219 C   0  0  0  0  0  0  0  0  0  0  0  0
  -18.6437  -30.7378   23.3472 C   0  0  0  0  0  0  0  0  0  0  0  0
  -28.7184  -12.3441   17.7787 C   0  0  0  0  0  0  0  0  0  0  0  0
  -18.4428  -29.7490   22.2032 C   0  0  0  0  0  0  0  0  0  0  0  0
  -29.4399  -13.6760   17.9801 C   0  0  0  0  0  0  0  0  0  0  0  0
  -27.2414  -12.4479   18.1460 C   0  0  0  0  0  0  0  0  0  0  0  0
  -27.7143  -14.2854   19.7340 C   0  0  0  0  0  0  0  0  0  0  0  0
  -18.4731  -28.3028   22.7122 C   0  0  1  0  0  0  0  0  0  0  0  0
  -22.0350  -27.0085   22.4461 C   0  0  1  0  0  0  0  0  0  0  0  0
  -29.2157  -14.2163   19.4036 C   0  0  2  0  0  0  0  0  0  0  0  0
  -28.9209  -29.0403   19.5376 C   0  0  0  0  0  0  0  0  0  0  0  0
  -22.3962  -30.0247   18.9629 C   0  0  0  0  0  0  0  0  0  0  0  0
  -24.7017  -30.3311   18.0362 C   0  0  0  0  0  0  0  0  0  0  0  0
  -24.1107  -31.3086   20.2538 C   0  0  0  0  0  0  0  0  0  0  0  0
  -28.1686  -25.9791   21.6681 C   0  0  0  0  0  0  0  0  0  0  0  0
  -23.0996  -19.6065   18.0523 C   0  0  0  0  0  0  0  0  0  0  0  0
  -22.4196  -20.3506   19.1908 C   0  0  0  0  0  0  0  0  0  1  0  0
  -23.4000  -18.1610   18.4167 C   0  0  0  0  0  0  0  0  0  0  0  0
  -24.4015  -28.8063   20.0401 C   0  0  1  0  0  0  0  0  0  0  0  0
  -28.1126  -28.1880   20.5036 C   0  0  2  0  0  0  0  0  0  0  0  0
  -25.5973  -13.1012   21.4777 C   0  0  0  0  0  0  0  0  0  0  0  0
  -23.8924  -30.0916   19.3286 C   0  0  0  0  0  0  0  0  0  0  0  0
  -26.5811  -13.0642   22.6908 C   0  0  0  0  0  0  0  0  0  0  0  0
  -24.3346  -12.2942   21.8925 C   0  0  0  0  0  0  0  0  0  0  0  0
  -24.0659  -15.8207   19.3729 N   0  0  0  0  0  0  0  0  0  0  0  0
  -25.4020  -16.8415   21.0991 N   0  0  0  0  0  0  0  0  0  0  0  0
  -29.2111  -16.6826   19.3872 N   0  0  0  0  0  0  0  0  0  0  0  0
  -29.9034  -15.5530   19.6125 N   0  0  0  0  0  0  0  0  0  0  0  0
  -22.9590  -27.2734   21.3415 N   0  0  0  0  0  0  0  0  0  0  0  0
  -27.0703  -12.9860   19.4967 N   0  0  0  0  0  0  0  0  0  0  0  0
  -32.0232  -14.7395   20.2874 N   0  0  0  0  0  0  0  0  0  0  0  0
  -32.5372  -19.2244   20.4219 N   0  0  0  0  0  0  0  0  0  0  0  0
  -19.8359  -27.8813   22.9561 N   0  0  0  0  0  0  0  0  0  0  0  0
  -25.8086  -28.8524   20.4225 N   0  0  0  0  0  0  0  0  0  0  0  0
  -28.8398  -26.9054   20.7203 N   0  3  0  0  0  0  0  0  0  0  0  0
  -33.5975  -17.2180   20.7516 O   0  0  0  0  0  0  0  0  0  0  0  0
  -20.3703  -27.2273   20.7860 O   0  0  0  0  0  0  0  0  0  0  0  0
  -23.6303  -29.3251   22.2225 O   0  0  0  0  0  0  0  0  0  0  0  0
  -26.1924  -11.0543   20.4443 O   0  0  0  0  0  0  0  0  0  0  0  0
  -26.4601  -26.9791   19.2210 O   0  0  0  0  0  0  0  0  0  0  0  0
  -28.6570  -23.0228   19.1760 O   0  0  0  0  0  0  0  0  0  0  0  0
  -22.1764  -21.7037   18.8080 O   0  0  0  0  0  0  0  0  0  1  0  0
  -24.2573  -18.1172   19.5493 O   0  0  0  0  0  0  0  0  0  0  0  0
  -32.2026  -26.4086   16.6523 F   0  0  0  0  0  0  0  0  0  0  0  0
  -31.2131  -23.3914   20.1627 F   0  0  0  0  0  0  0  0  0  0  0  0
  -26.1008  -13.7137   23.7791 F   0  0  0  0  0  0  0  0  0  0  0  0
  -26.8305  -11.7901   23.0691 F   0  0  0  0  0  0  0  0  0  0  0  0
  -27.7639  -13.6436   22.3858 F   0  0  0  0  0  0  0  0  0  0  0  0
  -23.4705  -12.0933   20.8703 F   0  0  0  0  0  0  0  0  0  0  0  0
  -24.6864  -11.0750   22.3626 F   0  0  0  0  0  0  0  0  0  0  0  0
  -23.6485  -12.9209   22.8741 F   0  0  0  0  0  0  0  0  0  0  0  0
  1  2  1  0  0  0  0
  1  5  2  0  0  0  0
  2  6  2  0  0  0  0
  3  8  2  0  0  0  0
  3 17  1  0  0  0  0
  4  9  1  0  0  0  0
  4 17  2  0  0  0  0
  5 19  1  0  0  0  0
  6 21  1  0  0  0  0
  7 10  2  0  0  0  0
  7 20  1  0  0  0  0
  8 24  1  0  0  0  0
  9 24  2  0  0  0  0
 10 25  1  0  0  0  0
 11 12  2  0  0  0  0
 11 26  1  0  0  0  0
 12 27  1  0  0  0  0
 13 22  1  0  0  0  0
 13 25  2  0  0  0  0
 14 27  2  0  0  0  0
 14 28  1  0  0  0  0
 15 23  1  0  0  0  0
 15 63  2  0  0  0  0
 16 23  2  0  0  0  0
 16 64  1  0  0  0  0
 17 29  1  0  0  0  0
 18 29  1  0  0  0  0
 18 30  2  0  0  0  0
 18 32  1  0  0  0  0
 19 21  2  0  0  0  0
 19 37  1  0  0  0  0
 20 22  2  0  0  0  0
 20 38  1  0  0  0  0
 21 46  1  0  0  0  0
 22 39  1  0  0  0  0
 23 59  1  0  0  0  0
 24 79  1  0  0  0  0
 25 80  1  0  0  0  0
 26 28  2  0  0  0  0
 26 79  1  0  0  0  0
 27 82  1  0  0  0  0
 28 83  1  0  0  0  0
 29 65  2  0  0  0  0
 30 66  1  0  0  0  0
 30 69  1  0  0  0  0
 31 63  1  0  0  0  0
 31 64  2  0  0  0  0
 31 81  1  0  0  0  0
 32 70  1  0  0  0  0
 32 74  2  0  0  0  0
 33 47  1  0  0  0  0
 33 71  1  0  0  0  0
 33 75  2  0  0  0  0
 34 57  1  0  0  0  0
 34 67  1  0  0  0  0
 34 76  2  0  0  0  0
 35 59  1  0  0  0  0
 35 68  1  0  0  0  0
 35 77  2  0  0  0  0
 36 58  1  0  0  0  0
 36 72  1  0  0  0  0
 36 78  2  0  0  0  0
 37 40  1  0  0  0  0
 38 47  1  0  0  0  0
 39 67  1  0  0  0  0
 40 42  1  0  0  0  0
 41 43  1  0  0  0  0
 41 44  1  0  0  0  0
 42 46  1  0  0  0  0
 43 48  1  0  0  0  0
 44 68  1  0  0  0  0
 45 48  1  0  0  0  0
 45 68  1  0  0  0  0
 46 71  1  0  0  0  0
 47 67  1  0  0  0  0
 48 66  1  0  0  0  0
 49 58  1  0  0  0  0
 50 60  1  0  0  0  0
 51 60  1  0  0  0  0
 52 60  1  0  0  0  0
 53 73  1  0  0  0  0
 54 55  1  0  0  0  0
 54 56  1  0  0  0  0
 55 80  1  0  0  0  0
 56 81  1  0  0  0  0
 57 60  1  0  0  0  0
 57 72  1  0  0  0  0
 58 73  1  0  0  0  0
 59 61  1  0  0  0  0
 59 62  1  0  0  0  0
 61 84  1  0  0  0  0
 61 85  1  0  0  0  0
 61 86  1  0  0  0  0
 62 87  1  0  0  0  0
 62 88  1  0  0  0  0
 62 89  1  0  0  0  0
 65 66  1  0  0  0  0
M  CHG  1  73   1
M  ISO  4  35 100  55 101  59 100  80 101
M  END
> <Batch ID>
0064

> <Smiles>
CNC(C)C(=O)NC(C(=O)N1Cc2cc([101O:1][101CH2:1]CCOc3ncc([100C:0]([100C:0](=O)N4CCCC(n5nc(-c6ccc(Oc7ccc(F)cc7F)cc6)c(C(N)=O)c5N)C4)(C(F)(F)F)C(F)(F)F)cn3)ccc2CC1C(=O)NC1CCCc2ccccc21)C(C)(C)C

> <Shape>
0.294

> <Color>
0.075

> <Negative vol penalty>
0.000

$$$$

  -OEChem-04052318053D

 88 96  0     1  0  0  0  0  0999 V2000
  -25.2694  -28.9573   19.8234 C   0  0  0  0  0  0  0  0  0  0  0  0
  -24.9405  -27.7667   19.1833 C   0  0  0  0  0  0  0  0  0  0  0  0
  -19.8261  -23.3604   20.0283 C   0  0  0  0  0  0  0  0  0  0  0  0
  -22.1644  -23.0046   20.5209 C   0  0  0  0  0  0  0  0  0  0  0  0
  -26.4878  -29.0750   20.4909 C   0  0  0  0  0  0  0  0  0  0  0  0
  -25.8304  -26.6935   19.2092 C   0  0  0  0  0  0  0  0  0  0  0  0
  -25.9376  -19.5317   19.3259 C   0  0  0  0  0  0  0  0  0  0  0  0
  -19.9631  -24.7101   20.3528 C   0  0  0  0  0  0  0  0  0  0  0  0
  -22.3015  -24.3543   20.8453 C   0  0  0  0  0  0  0  0  0  0  0  0
  -26.5025  -18.4518   18.6488 C   0  0  0  0  0  0  0  0  0  0  0  0
  -19.6143  -28.1758   21.3973 C   0  0  0  0  0  0  0  0  0  0  0  0
  -18.6309  -28.7546   22.1995 C   0  0  0  0  0  0  0  0  0  0  0  0
  -28.5443  -18.7431   19.9000 C   0  0  0  0  0  0  0  0  0  0  0  0
  -19.1360  -27.1760   23.9574 C   0  0  0  0  0  0  0  0  0  0  0  0
  -20.9267  -22.5077   20.1124 C   0  0  0  0  0  0  0  0  0  0  0  0
  -20.9620  -20.5203   18.5134 C   0  0  0  0  0  0  0  0  0  0  0  0
  -27.3889  -27.9994   20.5333 C   0  0  0  0  0  0  0  0  0  0  0  0
  -26.6768  -20.2334   20.2890 C   0  0  0  0  0  0  0  0  0  0  0  0
  -27.0626  -26.7974   19.8768 C   0  0  0  0  0  0  0  0  0  0  0  0
  -27.9856  -19.8299   20.5898 C   0  0  0  0  0  0  0  0  0  0  0  0
  -21.2008  -25.2070   20.7612 C   0  0  0  0  0  0  0  0  0  0  0  0
  -27.8070  -18.0591   18.9337 C   0  0  0  0  0  0  0  0  0  0  0  0
  -20.3585  -27.0970   21.8750 C   0  0  0  0  0  0  0  0  0  0  0  0
  -18.3918  -28.2547   23.4796 C   0  0  0  0  0  0  0  0  0  0  0  0
  -20.1193  -26.5972   23.1551 C   0  0  0  0  0  0  0  0  0  0  0  0
  -20.7857  -21.1133   19.7780 C   0  0  0  0  0  0  0  0  0  0  0  0
  -20.7156  -19.1854   18.7227 C   0  0  0  0  0  0  0  0  0  0  0  0
  -26.2188  -13.3361   20.3530 C   0  0  0  0  0  0  0  0  0  0  0  0
  -24.1552  -13.0228   20.3312 C   0  0  0  0  0  0  0  0  0  0  0  0
  -21.3169  -21.1224   17.2615 C   0  0  0  0  0  0  0  0  0  0  0  0
  -27.7002  -23.2280   20.5878 C   0  0  0  0  0  0  0  0  0  0  0  0
  -28.6414  -22.2019   23.5176 C   0  0  0  0  0  0  0  0  0  0  0  0
  -29.5347  -19.5893   25.5233 C   0  0  0  0  0  0  0  0  0  0  0  0
  -21.3410  -14.5368   21.7467 C   0  0  0  0  0  0  0  0  0  0  0  0
  -28.7145  -28.1898   21.2270 C   0  0  0  0  0  0  0  0  0  0  0  0
  -26.0439  -21.3794   21.0297 C   0  0  0  0  0  0  0  0  0  0  0  0
  -28.8144  -20.5373   21.6296 C   0  0  0  0  0  0  0  0  0  0  0  0
  -29.4393  -26.8800   21.5257 C   0  0  0  0  0  0  0  0  0  0  0  0
  -18.7599  -16.7863   22.7235 C   0  0  0  0  0  0  0  0  0  0  0  0
  -29.4254  -25.9709   20.3009 C   0  0  0  0  0  0  0  0  0  0  0  0
  -19.0751  -18.0649   21.9450 C   0  0  0  0  0  0  0  0  0  0  0  0
  -20.0320  -16.0756   23.1802 C   0  0  0  0  0  0  0  0  0  0  0  0
  -21.3177  -17.0707   21.3280 C   0  0  0  0  0  0  0  0  0  0  0  0
  -27.9908  -25.6025   19.9037 C   0  0  1  0  0  0  0  0  0  0  0  0
  -27.0656  -22.3440   21.6239 C   0  0  1  0  0  0  0  0  0  0  0  0
  -20.0672  -17.7930   20.7983 C   0  0  2  0  0  0  0  0  0  0  0  0
  -30.2877  -19.0671   27.8595 C   0  0  0  0  0  0  0  0  0  0  0  0
  -20.5061  -12.9183   18.8865 C   0  0  0  0  0  0  0  0  0  0  0  0
  -22.3231  -11.2571   18.4410 C   0  0  0  0  0  0  0  0  0  0  0  0
  -22.5691  -13.6235   17.6842 C   0  0  0  0  0  0  0  0  0  0  0  0
  -31.4291  -23.2473   22.8501 C   0  0  0  0  0  0  0  0  0  0  0  0
  -32.3200  -21.8825   24.7507 C   0  0  0  0  0  0  0  0  0  0  0  0
  -30.6756  -23.7061   25.1902 C   0  0  0  0  0  0  0  0  0  0  0  0
  -29.7024  -14.7540   16.9771 C   0  0  0  0  0  0  0  0  0  0  0  0
  -30.4743  -14.0347   19.2518 C   0  0  0  0  0  0  0  0  0  0  0  0
  -24.2194  -10.6221   21.1030 C   0  0  0  0  0  0  0  0  0  0  0  0
  -27.1671  -17.8875   26.0303 C   0  0  0  0  0  0  0  0  0  0  0  0
  -27.5506  -14.0329   20.2106 C   0  0  0  0  0  0  0  0  0  0  0  0
  -27.9770  -14.1282   18.7390 C   0  0  0  0  0  0  0  0  0  0  0  0
  -29.3411  -16.2423   18.9759 C   0  0  0  0  0  0  0  0  0  1  0  0
  -22.6892  -13.1232   20.2159 C   0  0  2  0  0  0  0  0  0  0  0  0
  -29.8942  -21.5739   24.0788 C   0  0  1  0  0  0  0  0  0  0  0  0
  -29.0966  -19.1984   26.9232 C   0  0  2  0  0  0  0  0  0  0  0  0
  -22.0356  -12.7217   18.8222 C   0  0  0  0  0  0  0  0  0  0  0  0
  -31.0651  -22.5901   24.1964 C   0  0  0  0  0  0  0  0  0  0  0  0
  -29.3677  -14.7755   18.4802 C   0  0  0  0  0  0  0  0  0  0  0  0
  -20.4528  -20.2277   20.7208 N   0  0  0  0  0  0  0  0  0  0  0  0
  -25.0366  -13.9632   20.0816 N   0  0  0  0  0  0  0  0  0  0  0  0
  -26.1244  -12.0667   20.7547 N   0  0  0  0  0  0  0  0  0  0  0  0
  -20.4179  -19.0647   20.0482 N   0  0  0  0  0  0  0  0  0  0  0  0
  -24.7944  -11.8912   20.7321 N   0  0  0  0  0  0  0  0  0  0  0  0
  -28.1532  -21.6557   22.3221 N   0  0  0  0  0  0  0  0  0  0  0  0
  -20.9293  -15.8461   22.0452 N   0  0  0  0  0  0  0  0  0  0  0  0
  -20.7267  -18.1149   17.9004 N   0  0  0  0  0  0  0  0  0  0  0  0
  -21.5347  -22.5063   17.2236 N   0  0  0  0  0  0  0  0  0  0  0  0
  -27.4707  -24.5767   20.7821 N   0  0  0  0  0  0  0  0  0  0  0  0
  -29.5099  -20.9561   25.3434 N   0  0  0  0  0  0  0  0  0  0  0  0
  -22.1859  -14.4069   20.6512 N   0  0  0  0  0  0  0  0  0  0  0  0
  -28.3750  -17.8948   26.8951 N   0  3  0  0  0  0  0  0  0  0  0  0
  -21.4212  -20.4553   16.2043 O   0  0  0  0  0  0  0  0  0  0  0  0
  -28.3511  -22.7238   19.6802 O   0  0  0  0  0  0  0  0  0  0  0  0
  -28.1113  -23.1378   24.1215 O   0  0  0  0  0  0  0  0  0  0  0  0
  -29.8694  -18.7648   24.6755 O   0  0  0  0  0  0  0  0  0  0  0  0
  -20.9779  -13.5555   22.4042 O   0  0  0  0  0  0  0  0  0  0  0  0
  -21.3349  -26.5240   21.0777 O   0  0  0  0  0  0  0  0  0  0  0  0
  -28.3610  -17.0058   18.2738 O   0  0  0  0  0  0  0  0  0  1  0  0
  -17.4485  -28.8117   24.2504 F   0  0  0  0  0  0  0  0  0  0  0  0
  -20.8318  -25.5618   23.6201 F   0  0  0  0  0  0  0  0  0  0  0  0
  1  2  1  0  0  0  0
  1  5  2  0  0  0  0
  2  6  2  0  0  0  0
  3  8  2  0  0  0  0
  3 15  1  0  0  0  0
  4  9  1  0  0  0  0
  4 15  2  0  0  0  0
  5 17  1  0  0  0  0
  6 19  1  0  0  0  0
  7 10  2  0  0  0  0
  7 18  1  0  0  0  0
  8 21  1  0  0  0  0
  9 21  2  0  0  0  0
 10 22  1  0  0  0  0
 11 12  2  0  0  0  0
 11 23  1  0  0  0  0
 12 24  1  0  0  0  0
 13 20  1  0  0  0  0
 13 22  2  0  0  0  0
 14 24  2  0  0  0  0
 14 25  1  0  0  0  0
 15 26  1  0  0  0  0
 16 26  1  0  0  0  0
 16 27  2  0  0  0  0
 16 30  1  0  0  0  0
 17 19  2  0  0  0  0
 17 35  1  0  0  0  0
 18 20  2  0  0  0  0
 18 36  1  0  0  0  0
 19 44  1  0  0  0  0
 20 37  1  0  0  0  0
 21 85  1  0  0  0  0
 22 86  1  0  0  0  0
 23 25  2  0  0  0  0
 23 85  1  0  0  0  0
 24 87  1  0  0  0  0
 25 88  1  0  0  0  0
 26 67  2  0  0  0  0
 27 70  1  0  0  0  0
 27 74  1  0  0  0  0
 28 58  1  0  0  0  0
 28 68  1  0  0  0  0
 28 69  2  0  0  0  0
 29 61  1  0  0  0  0
 29 68  2  0  0  0  0
 29 71  1  0  0  0  0
 30 75  1  0  0  0  0
 30 80  2  0  0  0  0
 31 45  1  0  0  0  0
 31 76  1  0  0  0  0
 31 81  2  0  0  0  0
 32 62  1  0  0  0  0
 32 72  1  0  0  0  0
 32 82  2  0  0  0  0
 33 63  1  0  0  0  0
 33 77  1  0  0  0  0
 33 83  2  0  0  0  0
 34 73  1  0  0  0  0
 34 78  1  0  0  0  0
 34 84  2  0  0  0  0
 35 38  1  0  0  0  0
 36 45  1  0  0  0  0
 37 72  1  0  0  0  0
 38 40  1  0  0  0  0
 39 41  1  0  0  0  0
 39 42  1  0  0  0  0
 40 44  1  0  0  0  0
 41 46  1  0  0  0  0
 42 73  1  0  0  0  0
 43 46  1  0  0  0  0
 43 73  1  0  0  0  0
 44 76  1  0  0  0  0
 45 72  1  0  0  0  0
 46 70  1  0  0  0  0
 47 63  1  0  0  0  0
 48 64  1  0  0  0  0
 49 64  1  0  0  0  0
 50 64  1  0  0  0  0
 51 65  1  0  0  0  0
 52 65  1  0  0  0  0
 53 65  1  0  0  0  0
 54 66  1  0  0  0  0
 55 66  1  0  0  0  0
 56 71  1  0  0  0  0
 57 79  1  0  0  0  0
 58 59  1  0  0  0  0
 59 66  1  0  0  0  0
 60 66  1  0  0  0  0
 60 86  1  0  0  0  0
 61 64  1  0  0  0  0
 61 78  1  0  0  0  0
 62 65  1  0  0  0  0
 62 77  1  0  0  0  0
 63 79  1  0  0  0  0
 67 70  1  0  0  0  0
 69 71  1  0  0  0  0
M  CHG  1  79   1
M  ISO  4  34 100  60 101  78 100  86 101
M  END
> <Batch ID>
0064

> <Smiles>
CNC(C)C(=O)NC(C(=O)N1Cc2cc([101O:1][101CH2:1]C(C)(C)CCc3nc(C([100NH:0][100C:0](=O)N4CCCC(n5nc(-c6ccc(Oc7ccc(F)cc7F)cc6)c(C(N)=O)c5N)C4)C(C)(C)C)n(C)n3)ccc2CC1C(=O)NC1CCCc2ccccc21)C(C)(C)C

> <Shape>
0.199

> <Color>
0.074

> <Negative vol penalty>
0.000

$$$$

  -OEChem-04052318053D

 90 98  0     1  0  0  0  0  0999 V2000
  -25.1192  -24.5174   26.5531 C   0  0  0  0  0  0  0  0  0  0  0  0
  -25.6170  -24.4099   25.2585 C   0  0  0  0  0  0  0  0  0  0  0  0
  -26.9516  -12.7864   21.2571 C   0  0  0  0  0  0  0  0  0  0  0  0
  -26.6315  -13.4899   18.9681 C   0  0  0  0  0  0  0  0  0  0  0  0
  -23.9164  -23.8979   26.8899 C   0  0  0  0  0  0  0  0  0  0  0  0
  -24.9127  -23.6818   24.3001 C   0  0  0  0  0  0  0  0  0  0  0  0
  -24.6279  -26.0892   19.8540 C   0  0  0  0  0  0  0  0  0  0  0  0
  -26.2895  -11.5899   20.9821 C   0  0  0  0  0  0  0  0  0  0  0  0
  -25.9694  -12.2934   18.6930 C   0  0  0  0  0  0  0  0  0  0  0  0
  -25.7581  -26.0558   19.0383 C   0  0  0  0  0  0  0  0  0  0  0  0
  -24.3667   -8.5034   20.9728 C   0  0  0  0  0  0  0  0  0  0  0  0
  -23.4153   -8.0609   21.8917 C   0  0  0  0  0  0  0  0  0  0  0  0
  -31.2409  -21.9710   19.3358 C   0  0  0  0  0  0  0  0  0  0  0  0
  -24.7542  -24.2953   17.7297 C   0  0  0  0  0  0  0  0  0  0  0  0
  -22.1450  -10.0878   21.5527 C   0  0  0  0  0  0  0  0  0  0  0  0
  -30.6355  -20.7331   19.4099 C   0  0  0  0  0  0  0  0  0  0  0  0
  -27.1225  -13.7364   20.2502 C   0  0  0  0  0  0  0  0  0  0  0  0
  -29.1857  -15.2272   20.4189 C   0  0  0  0  0  0  0  0  0  0  0  0
  -23.1921  -23.1701   25.9327 C   0  0  0  0  0  0  0  0  0  0  0  0
  -23.5552  -25.2169   19.6199 C   0  0  0  0  0  0  0  0  0  0  0  0
  -23.6997  -23.0510   24.6248 C   0  0  0  0  0  0  0  0  0  0  0  0
  -23.6105  -24.3214   18.5423 C   0  0  0  0  0  0  0  0  0  0  0  0
  -25.7984  -11.3434   19.7000 C   0  0  0  0  0  0  0  0  0  0  0  0
  -25.8226  -25.1568   17.9778 C   0  0  0  0  0  0  0  0  0  0  0  0
  -24.2074   -9.7383   20.3438 C   0  0  0  0  0  0  0  0  0  0  0  0
  -22.3044   -8.8530   22.1816 C   0  0  0  0  0  0  0  0  0  0  0  0
  -23.0965  -10.5304   20.6337 C   0  0  0  0  0  0  0  0  0  0  0  0
  -27.8059  -14.9728   20.5339 C   0  0  0  0  0  0  0  0  0  0  0  0
  -30.3895  -23.0423   19.1584 C   0  0  0  0  0  0  0  0  0  0  0  0
  -29.3260  -16.5389   20.8015 C   0  0  0  0  0  0  0  0  0  0  0  0
  -28.5797  -21.6669   19.1473 C   0  0  0  0  0  0  0  0  0  0  0  0
  -30.2458  -14.3559   20.0033 C   0  0  0  0  0  0  0  0  0  0  0  0
  -22.1512  -22.8936   21.2737 C   0  0  0  0  0  0  0  0  0  0  0  0
  -20.0589  -22.9249   18.7951 C   0  0  0  0  0  0  0  0  0  0  0  0
  -26.4628  -21.5779   20.4050 C   0  0  0  0  0  0  0  0  0  0  0  0
  -19.4583  -23.6724   15.5198 C   0  0  0  0  0  0  0  0  0  0  0  0
  -21.9205  -22.4784   26.3562 C   0  0  0  0  0  0  0  0  0  0  0  0
  -22.3319  -25.2839   20.4926 C   0  0  0  0  0  0  0  0  0  0  0  0
  -22.4771  -23.3779   18.2363 C   0  0  0  0  0  0  0  0  0  0  0  0
  -21.0469  -22.0388   25.1841 C   0  0  0  0  0  0  0  0  0  0  0  0
  -26.6345  -19.7102   23.4583 C   0  0  0  0  0  0  0  0  0  0  0  0
  -21.8906  -21.3424   24.1211 C   0  0  0  0  0  0  0  0  0  0  0  0
  -27.0571  -18.3144   23.0019 C   0  0  0  0  0  0  0  0  0  0  0  0
  -25.7205  -20.3789   22.4362 C   0  0  0  0  0  0  0  0  0  0  0  0
  -26.7209  -19.0548   20.6011 C   0  0  0  0  0  0  0  0  0  0  0  0
  -22.9523  -22.2907   23.5509 C   0  0  1  0  0  0  0  0  0  0  0  0
  -21.5145  -23.9959   20.4754 C   0  0  1  0  0  0  0  0  0  0  0  0
  -27.6700  -18.3561   21.5909 C   0  0  2  0  0  0  0  0  0  0  0  0
  -17.6659  -23.5494   13.7678 C   0  0  0  0  0  0  0  0  0  0  0  0
  -31.7604  -24.5898   16.5705 C   0  0  0  0  0  0  0  0  0  0  0  0
  -20.5537  -19.9283   18.5027 C   0  0  0  0  0  0  0  0  0  0  0  0
  -19.5235  -20.0512   16.2242 C   0  0  0  0  0  0  0  0  0  0  0  0
  -18.1656  -20.6221   18.2374 C   0  0  0  0  0  0  0  0  0  0  0  0
  -29.5113  -24.6146   21.2149 C   0  0  0  0  0  0  0  0  0  0  0  0
  -29.9700  -26.7282   19.9456 C   0  0  0  0  0  0  0  0  0  0  0  0
  -19.4337  -26.6114   15.1730 C   0  0  0  0  0  0  0  0  0  0  0  0
  -32.2347  -24.2862   21.7667 C   0  0  0  0  0  0  0  0  0  0  0  0
  -32.7906  -26.3494   20.4881 C   0  0  0  0  0  0  0  0  0  0  0  0
  -29.3118  -24.7629   17.0596 C   0  0  0  0  0  0  0  0  0  0  0  0
  -28.1709  -25.4768   17.7798 C   0  0  0  0  0  0  0  0  0  1  0  0
  -30.9691  -24.4624   19.0634 C   0  0  1  0  0  0  0  0  0  0  0  0
  -19.9674  -22.2182   17.4642 C   0  0  1  0  0  0  0  0  0  0  0  0
  -18.3106  -24.4043   14.8477 C   0  0  2  0  0  0  0  0  0  0  0  0
  -30.7361  -25.0490   17.6162 C   0  0  1  0  0  0  0  0  0  0  0  0
  -27.1021  -21.4981   19.0416 C   0  0  0  0  0  0  0  0  0  0  0  0
  -19.5749  -20.7212   17.6138 C   0  0  0  0  0  0  0  0  0  0  0  0
  -30.5209  -25.3423   20.3006 C   0  0  0  0  0  0  0  0  0  0  0  0
  -29.3027  -20.5439   19.3192 N   0  0  0  0  0  0  0  0  0  0  0  0
  -27.1187  -16.0373   20.9566 N   0  0  0  0  0  0  0  0  0  0  0  0
  -29.0489  -22.9262   19.0596 N   0  0  0  0  0  0  0  0  0  0  0  0
  -28.0707  -16.9733   21.1106 N   0  0  0  0  0  0  0  0  0  0  0  0
  -21.3054  -23.4772   19.1221 N   0  0  0  0  0  0  0  0  0  0  0  0
  -26.3287  -20.3785   21.1046 N   0  0  0  0  0  0  0  0  0  0  0  0
  -30.3995  -17.3515   20.9003 N   0  0  0  0  0  0  0  0  0  0  0  0
  -29.9264  -13.0393   19.6441 N   0  0  0  0  0  0  0  0  0  0  0  0
  -22.3547  -23.2075   22.6039 N   0  0  0  0  0  0  0  0  0  0  0  0
  -19.0432  -22.9998   16.6497 N   0  0  0  0  0  0  0  0  0  0  0  0
  -18.7971  -25.6656   14.2206 N   0  3  0  0  0  0  0  0  0  0  0  0
  -31.7220  -25.5712   21.1925 N   0  3  0  0  0  0  0  0  0  0  0  0
  -31.4429  -14.7288   19.9677 O   0  0  0  0  0  0  0  0  0  0  0  0
  -22.4355  -21.8360   20.7238 O   0  0  0  0  0  0  0  0  0  0  0  0
  -19.0592  -22.9908   19.5147 O   0  0  0  0  0  0  0  0  0  0  0  0
  -26.0968  -22.6749   20.8350 O   0  0  0  0  0  0  0  0  0  0  0  0
  -20.6072  -23.6921   15.0839 O   0  0  0  0  0  0  0  0  0  0  0  0
  -25.1525  -10.1759   19.4312 O   0  0  0  0  0  0  0  0  0  0  0  0
  -26.9320  -25.1214   17.1753 O   0  0  0  0  0  0  0  0  0  1  0  0
  -21.3900   -8.4272   23.0629 F   0  0  0  0  0  0  0  0  0  0  0  0
  -22.9374  -11.7171   20.0318 F   0  0  0  0  0  0  0  0  0  0  0  0
  -26.5194  -22.4415   18.2320 F   0  0  0  0  0  0  0  0  0  0  0  0
  -26.7471  -20.3042   18.4640 F   0  0  0  0  0  0  0  0  0  0  0  0
  1  2  1  0  0  0  0
  1  5  2  0  0  0  0
  2  6  2  0  0  0  0
  3  8  2  0  0  0  0
  3 17  1  0  0  0  0
  4  9  1  0  0  0  0
  4 17  2  0  0  0  0
  5 19  1  0  0  0  0
  6 21  1  0  0  0  0
  7 10  2  0  0  0  0
  7 20  1  0  0  0  0
  8 23  1  0  0  0  0
  9 23  2  0  0  0  0
 10 24  1  0  0  0  0
 11 12  2  0  0  0  0
 11 25  1  0  0  0  0
 12 26  1  0  0  0  0
 13 16  2  0  0  0  0
 13 29  1  0  0  0  0
 14 22  1  0  0  0  0
 14 24  2  0  0  0  0
 15 26  2  0  0  0  0
 15 27  1  0  0  0  0
 16 68  1  0  0  0  0
 17 28  1  0  0  0  0
 18 28  1  0  0  0  0
 18 30  2  0  0  0  0
 18 32  1  0  0  0  0
 19 21  2  0  0  0  0
 19 37  1  0  0  0  0
 20 22  2  0  0  0  0
 20 38  1  0  0  0  0
 21 46  1  0  0  0  0
 22 39  1  0  0  0  0
 23 85  1  0  0  0  0
 24 86  1  0  0  0  0
 25 27  2  0  0  0  0
 25 85  1  0  0  0  0
 26 87  1  0  0  0  0
 27 88  1  0  0  0  0
 28 69  2  0  0  0  0
 29 61  1  0  0  0  0
 29 70  2  0  0  0  0
 30 71  1  0  0  0  0
 30 74  1  0  0  0  0
 31 65  1  0  0  0  0
 31 68  2  0  0  0  0
 31 70  1  0  0  0  0
 32 75  1  0  0  0  0
 32 80  2  0  0  0  0
 33 47  1  0  0  0  0
 33 76  1  0  0  0  0
 33 81  2  0  0  0  0
 34 62  1  0  0  0  0
 34 72  1  0  0  0  0
 34 82  2  0  0  0  0
 35 65  1  0  0  0  0
 35 73  1  0  0  0  0
 35 83  2  0  0  0  0
 36 63  1  0  0  0  0
 36 77  1  0  0  0  0
 36 84  2  0  0  0  0
 37 40  1  0  0  0  0
 38 47  1  0  0  0  0
 39 72  1  0  0  0  0
 40 42  1  0  0  0  0
 41 43  1  0  0  0  0
 41 44  1  0  0  0  0
 42 46  1  0  0  0  0
 43 48  1  0  0  0  0
 44 73  1  0  0  0  0
 45 48  1  0  0  0  0
 45 73  1  0  0  0  0
 46 76  1  0  0  0  0
 47 72  1  0  0  0  0
 48 71  1  0  0  0  0
 49 63  1  0  0  0  0
 50 64  1  0  0  0  0
 51 66  1  0  0  0  0
 52 66  1  0  0  0  0
 53 66  1  0  0  0  0
 54 67  1  0  0  0  0
 55 67  1  0  0  0  0
 56 78  1  0  0  0  0
 57 79  1  0  0  0  0
 58 79  1  0  0  0  0
 59 60  1  0  0  0  0
 59 64  1  0  0  0  0
 60 86  1  0  0  0  0
 61 64  1  0  0  0  0
 61 67  1  0  0  0  0
 62 66  1  0  0  0  0
 62 77  1  0  0  0  0
 63 78  1  0  0  0  0
 65 89  1  0  0  0  0
 65 90  1  0  0  0  0
 67 79  1  0  0  0  0
 69 71  1  0  0  0  0
M  CHG  2  78   1  79   1
M  ISO  4  35 100  60 101  65 100  86 101
M  END
> <Batch ID>
0064

> <Smiles>
CNC(C)C(=O)NC(C(=O)N1Cc2cc([101O:1][101CH2:1]CC(C)C(c3ccnc([100C:0](F)(F)[100C:0](=O)N4CCCC(n5nc(-c6ccc(Oc7ccc(F)cc7F)cc6)c(C(N)=O)c5N)C4)n3)C(C)(C)N(C)C)ccc2CC1C(=O)NC1CCCc2ccccc21)C(C)(C)C

> <Shape>
0.169

> <Color>
0.073

> <Negative vol penalty>
0.000

$$$$

  -OEChem-04052318053D

 86 94  0     1  0  0  0  0  0999 V2000
  -30.7405  -23.5019   16.3947 C   0  0  0  0  0  0  0  0  0  0  0  0
  -29.6648  -23.1295   17.1928 C   0  0  0  0  0  0  0  0  0  0  0  0
  -28.0127  -15.0707   19.0805 C   0  0  0  0  0  0  0  0  0  0  0  0
  -27.5497  -15.4035   21.4283 C   0  0  0  0  0  0  0  0  0  0  0  0
  -31.2095  -24.8134   16.4314 C   0  0  0  0  0  0  0  0  0  0  0  0
  -29.0501  -24.0711   18.0189 C   0  0  0  0  0  0  0  0  0  0  0  0
  -24.9508  -22.6646   20.3470 C   0  0  0  0  0  0  0  0  0  0  0  0
  -27.4453  -13.7983   19.1490 C   0  0  0  0  0  0  0  0  0  0  0  0
  -26.9823  -14.1312   21.4967 C   0  0  0  0  0  0  0  0  0  0  0  0
  -24.9599  -21.7657   21.4127 C   0  0  0  0  0  0  0  0  0  0  0  0
  -25.0862  -11.1112   22.2060 C   0  0  0  0  0  0  0  0  0  0  0  0
  -23.8757  -10.9759   22.8857 C   0  0  0  0  0  0  0  0  0  0  0  0
  -24.6467  -23.5966   22.9518 C   0  0  0  0  0  0  0  0  0  0  0  0
  -28.2900  -22.1028   24.0257 C   0  0  0  0  0  0  0  0  0  0  0  0
  -22.8401  -12.5270   21.3498 C   0  0  0  0  0  0  0  0  0  0  0  0
  -29.3871  -20.3784   25.2419 C   0  0  0  0  0  0  0  0  0  0  0  0
  -28.0650  -15.8733   20.2202 C   0  0  0  0  0  0  0  0  0  0  0  0
  -27.9956  -18.3963   19.8497 C   0  0  0  0  0  0  0  0  0  0  0  0
  -30.6077  -25.7678   17.2679 C   0  0  0  0  0  0  0  0  0  0  0  0
  -24.8002  -24.0397   20.5770 C   0  0  0  0  0  0  0  0  0  0  0  0
  -29.4937  -25.4056   18.0521 C   0  0  0  0  0  0  0  0  0  0  0  0
  -24.6334  -24.5106   21.8871 C   0  0  0  0  0  0  0  0  0  0  0  0
  -28.2273  -21.0873   24.9733 C   0  0  0  0  0  0  0  0  0  0  0  0
  -29.4935  -22.3747   23.3846 C   0  0  0  0  0  0  0  0  0  0  0  0
  -26.9301  -13.3286   20.3571 C   0  0  0  0  0  0  0  0  0  0  0  0
  -24.8107  -22.2319   22.7156 C   0  0  0  0  0  0  0  0  0  0  0  0
  -25.1737  -11.9545   21.0983 C   0  0  0  0  0  0  0  0  0  0  0  0
  -22.7526  -11.6837   22.4576 C   0  0  0  0  0  0  0  0  0  0  0  0
  -24.0506  -12.6623   20.6702 C   0  0  0  0  0  0  0  0  0  0  0  0
  -28.6516  -17.1875   20.1502 C   0  0  0  0  0  0  0  0  0  0  0  0
  -30.5967  -21.6083   23.7245 C   0  0  0  0  0  0  0  0  0  0  0  0
  -28.9842  -19.3478   19.9106 C   0  0  0  0  0  0  0  0  0  0  0  0
  -26.6159  -18.6375   19.5430 C   0  0  0  0  0  0  0  0  0  0  0  0
  -26.5919  -26.6116   20.0491 C   0  0  0  0  0  0  0  0  0  0  0  0
  -23.9473  -28.1847   21.0757 C   0  0  0  0  0  0  0  0  0  0  0  0
  -21.0574  -28.1168   22.8897 C   0  0  0  0  0  0  0  0  0  0  0  0
  -33.8225  -20.1992   23.2197 C   0  0  0  0  0  0  0  0  0  0  0  0
  -31.1509  -27.1750   17.2625 C   0  0  0  0  0  0  0  0  0  0  0  0
  -24.7657  -24.9935   19.4145 C   0  0  0  0  0  0  0  0  0  0  0  0
  -24.4481  -25.9751   22.1858 C   0  0  0  0  0  0  0  0  0  0  0  0
  -30.7266  -27.9807   18.4862 C   0  0  0  0  0  0  0  0  0  0  0  0
  -33.9116  -19.2989   19.6304 C   0  0  0  0  0  0  0  0  0  0  0  0
  -29.2244  -27.8589   18.6934 C   0  0  0  0  0  0  0  0  0  0  0  0
  -32.5212  -18.7093   19.4002 C   0  0  0  0  0  0  0  0  0  0  0  0
  -34.3743  -19.1145   21.0725 C   0  0  0  0  0  0  0  0  0  0  0  0
  -32.0290  -19.0545   21.8536 C   0  0  0  0  0  0  0  0  0  0  0  0
  -28.8288  -26.4051   18.9813 C   0  0  1  0  0  0  0  0  0  0  0  0
  -25.1211  -26.4248   19.8052 C   0  0  1  0  0  0  0  0  0  0  0  0
  -31.5138  -19.2648   20.4219 C   0  0  2  0  0  0  0  0  0  0  0  0
  -19.1255  -29.5657   23.5722 C   0  0  0  0  0  0  0  0  0  0  0  0
  -25.7322  -29.6060   23.1017 C   0  0  0  0  0  0  0  0  0  0  0  0
  -23.6656  -30.2861   24.3406 C   0  0  0  0  0  0  0  0  0  0  0  0
  -24.0306  -31.0717   22.0013 C   0  0  0  0  0  0  0  0  0  0  0  0
  -33.4392  -21.8514   25.0094 C   0  0  0  0  0  0  0  0  0  0  0  0
  -19.1030  -26.3399   21.5549 C   0  0  0  0  0  0  0  0  0  0  0  0
  -26.9380  -20.7679   25.6870 C   0  0  0  0  0  0  0  0  0  0  0  0
  -31.9160  -21.8560   23.0689 C   0  0  0  0  0  0  0  0  0  0  0  0
  -26.0827  -19.7187   24.9735 C   0  0  0  0  0  0  0  0  0  0  0  0
  -25.5949  -20.1688   23.6013 C   0  0  0  0  0  0  0  0  0  1  0  0
  -23.4335  -28.6504   22.4167 C   0  0  1  0  0  0  0  0  0  0  0  0
  -19.6463  -28.5640   22.5533 C   0  0  2  0  0  0  0  0  0  0  0  0
  -29.5672  -23.4601   22.3670 C   0  0  0  0  0  0  0  0  0  0  0  0
  -24.2209  -29.8761   22.9599 C   0  0  0  0  0  0  0  0  0  0  0  0
  -30.5744  -20.6136   24.6398 N   0  0  0  0  0  0  0  0  0  0  0  0
  -29.9561  -17.3532   20.3845 N   0  0  0  0  0  0  0  0  0  0  0  0
  -30.1278  -18.6772   20.2311 N   0  0  0  0  0  0  0  0  0  0  0  0
  -24.4277  -26.8689   21.0161 N   0  0  0  0  0  0  0  0  0  0  0  0
  -33.3793  -19.6117   22.0233 N   0  0  0  0  0  0  0  0  0  0  0  0
  -28.9782  -20.6843   19.7207 N   0  0  0  0  0  0  0  0  0  0  0  0
  -25.7354  -17.5472   19.5231 N   0  0  0  0  0  0  0  0  0  0  0  0
  -27.3868  -26.2959   18.9638 N   0  0  0  0  0  0  0  0  0  0  0  0
  -22.0039  -28.8861   22.2466 N   0  0  0  0  0  0  0  0  0  0  0  0
  -33.0163  -21.2040   23.7757 N   0  0  0  0  0  0  0  0  0  0  0  0
  -18.7236  -27.3939   22.5307 N   0  3  0  0  0  0  0  0  0  0  0  0
  -26.1802  -19.7835   19.2777 O   0  0  0  0  0  0  0  0  0  0  0  0
  -26.9770  -27.0140   21.1407 O   0  0  0  0  0  0  0  0  0  0  0  0
  -23.9168  -28.9577   20.1149 O   0  0  0  0  0  0  0  0  0  0  0  0
  -21.2962  -27.1812   23.6500 O   0  0  0  0  0  0  0  0  0  0  0  0
  -34.8832  -19.8525   23.7549 O   0  0  0  0  0  0  0  0  0  0  0  0
  -26.3761  -12.0871   20.4242 O   0  0  0  0  0  0  0  0  0  0  0  0
  -24.8199  -21.3568   23.7577 O   0  0  0  0  0  0  0  0  0  1  0  0
  -21.5898  -11.5525   23.1094 F   0  0  0  0  0  0  0  0  0  0  0  0
  -24.1283  -13.4730   19.6060 F   0  0  0  0  0  0  0  0  0  0  0  0
  -28.3791  -24.1045   22.1643 F   0  0  0  0  0  0  0  0  0  0  0  0
  -30.4569  -24.4482   22.6826 F   0  0  0  0  0  0  0  0  0  0  0  0
  -29.9491  -23.0046   21.1376 F   0  0  0  0  0  0  0  0  0  0  0  0
  1  2  1  0  0  0  0
  1  5  2  0  0  0  0
  2  6  2  0  0  0  0
  3  8  2  0  0  0  0
  3 17  1  0  0  0  0
  4  9  1  0  0  0  0
  4 17  2  0  0  0  0
  5 19  1  0  0  0  0
  6 21  1  0  0  0  0
  7 10  2  0  0  0  0
  7 20  1  0  0  0  0
  8 25  1  0  0  0  0
  9 25  2  0  0  0  0
 10 26  1  0  0  0  0
 11 12  2  0  0  0  0
 11 27  1  0  0  0  0
 12 28  1  0  0  0  0
 13 22  1  0  0  0  0
 13 26  2  0  0  0  0
 14 23  2  0  0  0  0
 14 24  1  0  0  0  0
 15 28  2  0  0  0  0
 15 29  1  0  0  0  0
 16 23  1  0  0  0  0
 16 64  2  0  0  0  0
 17 30  1  0  0  0  0
 18 30  1  0  0  0  0
 18 32  2  0  0  0  0
 18 33  1  0  0  0  0
 19 21  2  0  0  0  0
 19 38  1  0  0  0  0
 20 22  2  0  0  0  0
 20 39  1  0  0  0  0
 21 47  1  0  0  0  0
 22 40  1  0  0  0  0
 23 56  1  0  0  0  0
 24 31  2  0  0  0  0
 24 62  1  0  0  0  0
 25 80  1  0  0  0  0
 26 81  1  0  0  0  0
 27 29  2  0  0  0  0
 27 80  1  0  0  0  0
 28 82  1  0  0  0  0
 29 83  1  0  0  0  0
 30 65  2  0  0  0  0
 31 57  1  0  0  0  0
 31 64  1  0  0  0  0
 32 66  1  0  0  0  0
 32 69  1  0  0  0  0
 33 70  1  0  0  0  0
 33 75  2  0  0  0  0
 34 48  1  0  0  0  0
 34 71  1  0  0  0  0
 34 76  2  0  0  0  0
 35 60  1  0  0  0  0
 35 67  1  0  0  0  0
 35 77  2  0  0  0  0
 36 61  1  0  0  0  0
 36 72  1  0  0  0  0
 36 78  2  0  0  0  0
 37 68  1  0  0  0  0
 37 73  1  0  0  0  0
 37 79  2  0  0  0  0
 38 41  1  0  0  0  0
 39 48  1  0  0  0  0
 40 67  1  0  0  0  0
 41 43  1  0  0  0  0
 42 44  1  0  0  0  0
 42 45  1  0  0  0  0
 43 47  1  0  0  0  0
 44 49  1  0  0  0  0
 45 68  1  0  0  0  0
 46 49  1  0  0  0  0
 46 68  1  0  0  0  0
 47 71  1  0  0  0  0
 48 67  1  0  0  0  0
 49 66  1  0  0  0  0
 50 61  1  0  0  0  0
 51 63  1  0  0  0  0
 52 63  1  0  0  0  0
 53 63  1  0  0  0  0
 54 73  1  0  0  0  0
 55 74  1  0  0  0  0
 56 58  1  0  0  0  0
 57 73  1  0  0  0  0
 58 59  1  0  0  0  0
 59 81  1  0  0  0  0
 60 63  1  0  0  0  0
 60 72  1  0  0  0  0
 61 74  1  0  0  0  0
 62 84  1  0  0  0  0
 62 85  1  0  0  0  0
 62 86  1  0  0  0  0
 65 66  1  0  0  0  0
M  CHG  1  74   1
M  ISO  4  37 100  59 101  73 100  81 101
M  END
> <Batch ID>
0064

> <Smiles>
CNC(C)C(=O)NC(C(=O)N1Cc2cc([101O:1][101CH2:1]CCc3cnc(C[100N:0](C)[100C:0](=O)N4CCCC(n5nc(-c6ccc(Oc7ccc(F)cc7F)cc6)c(C(N)=O)c5N)C4)c(C(F)(F)F)c3)ccc2CC1C(=O)NC1CCCc2ccccc21)C(C)(C)C

> <Shape>
0.233

> <Color>
0.053

> <Negative vol penalty>
0.000

$$$$

  -OEChem-04052318053D

 86 94  0     1  0  0  0  0  0999 V2000
  -28.5948  -10.4499   16.8015 C   0  0  0  0  0  0  0  0  0  0  0  0
  -27.6832  -11.4086   16.3710 C   0  0  0  0  0  0  0  0  0  0  0  0
  -25.8676  -29.2989   22.3384 C   0  0  0  0  0  0  0  0  0  0  0  0
  -24.0481  -29.3876   20.7515 C   0  0  0  0  0  0  0  0  0  0  0  0
  -29.2871  -10.6354   17.9974 C   0  0  0  0  0  0  0  0  0  0  0  0
  -27.4626  -12.5528   17.1367 C   0  0  0  0  0  0  0  0  0  0  0  0
  -26.2209  -18.1827   15.0705 C   0  0  0  0  0  0  0  0  0  0  0  0
  -25.3403  -30.4050   23.0048 C   0  0  0  0  0  0  0  0  0  0  0  0
  -23.5207  -30.4936   21.4179 C   0  0  0  0  0  0  0  0  0  0  0  0
  -25.0261  -18.8864   14.9258 C   0  0  0  0  0  0  0  0  0  0  0  0
  -25.2692  -33.7592   22.5939 C   0  0  0  0  0  0  0  0  0  0  0  0
  -26.1526  -34.7722   22.9665 C   0  0  0  0  0  0  0  0  0  0  0  0
  -25.4005  -19.9489   17.0589 C   0  0  0  0  0  0  0  0  0  0  0  0
  -25.5540  -34.4419   25.2838 C   0  0  0  0  0  0  0  0  0  0  0  0
  -22.2835  -24.1333   13.6222 C   0  0  0  0  0  0  0  0  0  0  0  0
  -25.2215  -28.7902   21.2117 C   0  0  0  0  0  0  0  0  0  0  0  0
  -25.4835  -26.2914   20.7704 C   0  0  0  0  0  0  0  0  0  0  0  0
  -29.0820  -11.7871   18.7734 C   0  0  0  0  0  0  0  0  0  0  0  0
  -27.0104  -18.3489   16.2175 C   0  0  0  0  0  0  0  0  0  0  0  0
  -28.1518  -12.7532   18.3448 C   0  0  0  0  0  0  0  0  0  0  0  0
  -26.6062  -19.2480   17.2146 C   0  0  0  0  0  0  0  0  0  0  0  0
  -24.1669  -31.0023   22.5446 C   0  0  0  0  0  0  0  0  0  0  0  0
  -24.6143  -19.7675   15.9213 C   0  0  0  0  0  0  0  0  0  0  0  0
  -24.5280  -33.0876   23.5663 C   0  0  0  0  0  0  0  0  0  0  0  0
  -26.2951  -35.1136   24.3114 C   0  0  0  0  0  0  0  0  0  0  0  0
  -24.6705  -33.4289   24.9112 C   0  0  0  0  0  0  0  0  0  0  0  0
  -25.7660  -27.6480   20.5225 C   0  0  0  0  0  0  0  0  0  0  0  0
  -22.9453  -24.6388   12.5218 C   0  0  0  0  0  0  0  0  0  0  0  0
  -23.0106  -23.2629   14.4083 C   0  0  0  0  0  0  0  0  0  0  0  0
  -26.2472  -25.6088   19.8553 C   0  0  0  0  0  0  0  0  0  0  0  0
  -24.8204  -23.4667   13.0481 C   0  0  0  0  0  0  0  0  0  0  0  0
  -24.6088  -25.7009   21.7409 C   0  0  0  0  0  0  0  0  0  0  0  0
  -27.9935  -16.4385   18.5601 C   0  0  0  0  0  0  0  0  0  0  0  0
  -29.7109  -19.0463   19.4391 C   0  0  0  0  0  0  0  0  0  0  0  0
  -30.0716  -22.4390   19.3608 C   0  0  0  0  0  0  0  0  0  0  0  0
  -28.2062  -24.9591   14.6702 C   0  0  0  0  0  0  0  0  0  0  0  0
  -29.8188  -11.9210   20.0825 C   0  0  0  0  0  0  0  0  0  0  0  0
  -28.3099  -17.6024   16.3462 C   0  0  0  0  0  0  0  0  0  0  0  0
  -27.4277  -19.4775   18.4559 C   0  0  0  0  0  0  0  0  0  0  0  0
  -29.8038  -13.3390   20.6476 C   0  0  0  0  0  0  0  0  0  0  0  0
  -29.9478  -27.2154   16.8039 C   0  0  0  0  0  0  0  0  0  0  0  0
  -28.3965  -13.9241   20.5843 C   0  0  0  0  0  0  0  0  0  0  0  0
  -28.9895  -27.4218   17.9782 C   0  0  0  0  0  0  0  0  0  0  0  0
  -29.1978  -27.0795   15.4806 C   0  0  0  0  0  0  0  0  0  0  0  0
  -27.1881  -26.2517   16.6422 C   0  0  0  0  0  0  0  0  0  0  0  0
  -27.9034  -14.0195   19.1354 C   0  0  1  0  0  0  0  0  0  0  0  0
  -28.7785  -17.4635   17.7914 C   0  0  1  0  0  0  0  0  0  0  0  0
  -27.8949  -26.3381   18.0058 C   0  0  2  0  0  0  0  0  0  0  0  0
  -22.2406  -25.5888   11.6124 C   0  0  0  0  0  0  0  0  0  0  0  0
  -31.1469  -24.6755   19.7339 C   0  0  0  0  0  0  0  0  0  0  0  0
  -21.0954  -21.8078   15.3538 C   0  0  0  0  0  0  0  0  0  0  0  0
  -21.9238  -23.7831   16.6146 C   0  0  0  0  0  0  0  0  0  0  0  0
  -26.2913  -21.8549   11.8207 C   0  0  0  0  0  0  0  0  0  0  0  0
  -28.4651  -18.7772   22.2114 C   0  0  0  0  0  0  0  0  0  0  0  0
  -29.2078  -21.1185   22.6960 C   0  0  0  0  0  0  0  0  0  0  0  0
  -30.8995  -19.3501   22.2128 C   0  0  0  0  0  0  0  0  0  0  0  0
  -31.5585  -22.2798   16.8068 C   0  0  0  0  0  0  0  0  0  0  0  0
  -27.1076  -22.8424   13.9831 C   0  0  0  0  0  0  0  0  0  0  0  0
  -23.3734  -21.7384   16.4024 C   0  0  0  0  0  0  0  0  0  1  0  0
  -29.4631  -20.2385   20.3314 C   0  0  1  0  0  0  0  0  0  0  0  0
  -31.2726  -23.3176   19.0607 C   0  0  2  0  0  0  0  0  0  0  0  0
  -22.3592  -22.6470   15.6607 C   0  0  0  0  0  0  0  0  0  0  0  0
  -26.2306  -23.0988   12.7318 C   0  0  2  0  0  0  0  0  0  0  0  0
  -29.4922  -19.8655   21.8405 C   0  0  0  0  0  0  0  0  0  0  0  0
  -26.6411  -27.8191   19.5280 N   0  0  0  0  0  0  0  0  0  0  0  0
  -24.2185  -24.3257   12.2036 N   0  0  0  0  0  0  0  0  0  0  0  0
  -24.2858  -22.9061   14.1497 N   0  0  0  0  0  0  0  0  0  0  0  0
  -26.9150  -26.5610   19.1429 N   0  0  0  0  0  0  0  0  0  0  0  0
  -28.6872  -18.7196   18.5384 N   0  0  0  0  0  0  0  0  0  0  0  0
  -28.1754  -26.0345   15.5732 N   0  0  0  0  0  0  0  0  0  0  0  0
  -26.4060  -24.2930   19.5986 N   0  0  0  0  0  0  0  0  0  0  0  0
  -23.8990  -26.5476   22.6033 N   0  0  0  0  0  0  0  0  0  0  0  0
  -28.5029  -15.1571   18.4714 N   0  0  0  0  0  0  0  0  0  0  0  0
  -30.4440  -21.2475   19.9463 N   0  0  0  0  0  0  0  0  0  0  0  0
  -27.2048  -24.0094   14.8313 N   0  0  0  0  0  0  0  0  0  0  0  0
  -31.4037  -23.5316   17.5917 N   0  3  0  0  0  0  0  0  0  0  0  0
  -24.4736  -24.4588   21.8514 O   0  0  0  0  0  0  0  0  0  0  0  0
  -27.0001  -16.7849   19.1885 O   0  0  0  0  0  0  0  0  0  0  0  0
  -30.7764  -18.4319   19.5327 O   0  0  0  0  0  0  0  0  0  0  0  0
  -28.9181  -22.7776   19.1051 O   0  0  0  0  0  0  0  0  0  0  0  0
  -29.0659  -24.8503   13.7892 O   0  0  0  0  0  0  0  0  0  0  0  0
  -23.6519  -32.0815   23.1948 O   0  0  0  0  0  0  0  0  0  0  0  0
  -23.4481  -20.4551   15.7829 O   0  0  0  0  0  0  0  0  0  1  0  0
  -27.1447  -36.0854   24.6692 F   0  0  0  0  0  0  0  0  0  0  0  0
  -23.9621  -32.7865   25.8499 F   0  0  0  0  0  0  0  0  0  0  0  0
  -26.9006  -24.0808   12.0195 F   0  0  0  0  0  0  0  0  0  0  0  0
  1  2  1  0  0  0  0
  1  5  2  0  0  0  0
  2  6  2  0  0  0  0
  3  8  2  0  0  0  0
  3 16  1  0  0  0  0
  4  9  1  0  0  0  0
  4 16  2  0  0  0  0
  5 18  1  0  0  0  0
  6 20  1  0  0  0  0
  7 10  2  0  0  0  0
  7 19  1  0  0  0  0
  8 22  1  0  0  0  0
  9 22  2  0  0  0  0
 10 23  1  0  0  0  0
 11 12  2  0  0  0  0
 11 24  1  0  0  0  0
 12 25  1  0  0  0  0
 13 21  1  0  0  0  0
 13 23  2  0  0  0  0
 14 25  2  0  0  0  0
 14 26  1  0  0  0  0
 15 28  2  0  0  0  0
 15 29  1  0  0  0  0
 16 27  1  0  0  0  0
 17 27  1  0  0  0  0
 17 30  2  0  0  0  0
 17 32  1  0  0  0  0
 18 20  2  0  0  0  0
 18 37  1  0  0  0  0
 19 21  2  0  0  0  0
 19 38  1  0  0  0  0
 20 46  1  0  0  0  0
 21 39  1  0  0  0  0
 22 82  1  0  0  0  0
 23 83  1  0  0  0  0
 24 26  2  0  0  0  0
 24 82  1  0  0  0  0
 25 84  1  0  0  0  0
 26 85  1  0  0  0  0
 27 65  2  0  0  0  0
 28 49  1  0  0  0  0
 28 66  1  0  0  0  0
 29 62  1  0  0  0  0
 29 67  2  0  0  0  0
 30 68  1  0  0  0  0
 30 71  1  0  0  0  0
 31 63  1  0  0  0  0
 31 66  2  0  0  0  0
 31 67  1  0  0  0  0
 32 72  1  0  0  0  0
 32 77  2  0  0  0  0
 33 47  1  0  0  0  0
 33 73  1  0  0  0  0
 33 78  2  0  0  0  0
 34 60  1  0  0  0  0
 34 69  1  0  0  0  0
 34 79  2  0  0  0  0
 35 61  1  0  0  0  0
 35 74  1  0  0  0  0
 35 80  2  0  0  0  0
 36 70  1  0  0  0  0
 36 75  1  0  0  0  0
 36 81  2  0  0  0  0
 37 40  1  0  0  0  0
 38 47  1  0  0  0  0
 39 69  1  0  0  0  0
 40 42  1  0  0  0  0
 41 43  1  0  0  0  0
 41 44  1  0  0  0  0
 42 46  1  0  0  0  0
 43 48  1  0  0  0  0
 44 70  1  0  0  0  0
 45 48  1  0  0  0  0
 45 70  1  0  0  0  0
 46 73  1  0  0  0  0
 47 69  1  0  0  0  0
 48 68  1  0  0  0  0
 50 61  1  0  0  0  0
 51 62  1  0  0  0  0
 52 62  1  0  0  0  0
 53 63  1  0  0  0  0
 54 64  1  0  0  0  0
 55 64  1  0  0  0  0
 56 64  1  0  0  0  0
 57 76  1  0  0  0  0
 58 63  1  0  0  0  0
 58 75  1  0  0  0  0
 59 62  1  0  0  0  0
 59 83  1  0  0  0  0
 60 64  1  0  0  0  0
 60 74  1  0  0  0  0
 61 76  1  0  0  0  0
 63 86  1  0  0  0  0
 65 68  1  0  0  0  0
M  CHG  1  76   1
M  ISO  4  36 100  59 101  75 100  83 101
M  END
> <Batch ID>
0064

> <Smiles>
CNC(C)C(=O)NC(C(=O)N1Cc2cc([101O:1][101CH2:1]C(C)(C)c3cc(C)nc(C(C)(F)C[100NH:0][100C:0](=O)N4CCCC(n5nc(-c6ccc(Oc7ccc(F)cc7F)cc6)c(C(N)=O)c5N)C4)n3)ccc2CC1C(=O)NC1CCCc2ccccc21)C(C)(C)C

> <Shape>
0.205

> <Color>
0.065

> <Negative vol penalty>
0.000

$$$$

  -OEChem-04052318053D

 90 98  0     1  0  0  0  0  0999 V2000
  -26.8678  -19.7494   24.8720 C   0  0  0  0  0  0  0  0  0  0  0  0
  -26.6302  -21.0417   24.4148 C   0  0  0  0  0  0  0  0  0  0  0  0
  -26.0113  -15.3738   20.7451 C   0  0  0  0  0  0  0  0  0  0  0  0
  -24.9680  -16.6794   19.0004 C   0  0  0  0  0  0  0  0  0  0  0  0
  -26.0222  -18.7092   24.4889 C   0  0  0  0  0  0  0  0  0  0  0  0
  -25.5474  -21.2943   23.5732 C   0  0  0  0  0  0  0  0  0  0  0  0
  -22.9680  -25.4398   24.9170 C   0  0  0  0  0  0  0  0  0  0  0  0
  -24.7732  -14.8204   21.0714 C   0  0  0  0  0  0  0  0  0  0  0  0
  -23.7299  -16.1260   19.3266 C   0  0  0  0  0  0  0  0  0  0  0  0
  -23.5176  -26.6727   24.5680 C   0  0  0  0  0  0  0  0  0  0  0  0
  -22.7276  -12.4106   19.8707 C   0  0  0  0  0  0  0  0  0  0  0  0
  -22.6688  -11.0332   20.0824 C   0  0  0  0  0  0  0  0  0  0  0  0
  -27.1123  -29.3462   22.6320 C   0  0  0  0  0  0  0  0  0  0  0  0
  -22.0179  -26.8007   22.6829 C   0  0  0  0  0  0  0  0  0  0  0  0
  -21.8864  -11.4129   22.3364 C   0  0  0  0  0  0  0  0  0  0  0  0
  -28.0862  -28.3722   22.6269 C   0  0  0  0  0  0  0  0  0  0  0  0
  -26.1087  -16.3033   19.7097 C   0  0  0  0  0  0  0  0  0  0  0  0
  -28.3218  -16.3810   18.4432 C   0  0  0  0  0  0  0  0  0  0  0  0
  -24.9229  -18.9508   23.6500 C   0  0  0  0  0  0  0  0  0  0  0  0
  -21.9450  -24.8721   24.1440 C   0  0  0  0  0  0  0  0  0  0  0  0
  -24.6871  -20.2560   23.1774 C   0  0  0  0  0  0  0  0  0  0  0  0
  -21.4553  -25.5617   23.0256 C   0  0  0  0  0  0  0  0  0  0  0  0
  -26.1193  -28.9564   21.6996 C   0  0  0  0  0  0  0  0  0  0  0  0
  -23.6325  -15.1964   20.3621 C   0  0  0  0  0  0  0  0  0  0  0  0
  -23.0445  -27.3520   23.4492 C   0  0  0  0  0  0  0  0  0  0  0  0
  -22.3660  -13.2892   20.8920 C   0  0  0  0  0  0  0  0  0  0  0  0
  -22.2481  -10.5343   21.3152 C   0  0  0  0  0  0  0  0  0  0  0  0
  -21.9454  -12.7904   22.1248 C   0  0  0  0  0  0  0  0  0  0  0  0
  -27.3873  -16.8758   19.3726 C   0  0  0  0  0  0  0  0  0  0  0  0
  -26.5167  -27.7559   21.1534 C   0  0  0  0  0  0  0  0  0  0  0  0
  -29.3613  -17.2774   18.4912 C   0  0  0  0  0  0  0  0  0  0  0  0
  -28.2560  -15.2154   17.6109 C   0  0  0  0  0  0  0  0  0  0  0  0
  -21.6381  -22.2077   22.4379 C   0  0  0  0  0  0  0  0  0  0  0  0
  -18.5683  -23.2135   22.1428 C   0  0  0  0  0  0  0  0  0  0  0  0
  -16.3532  -25.8093   22.1861 C   0  0  0  0  0  0  0  0  0  0  0  0
  -29.5630  -22.9918   19.9608 C   0  0  0  0  0  0  0  0  0  0  0  0
  -24.0644  -17.7860   23.2247 C   0  0  0  0  0  0  0  0  0  0  0  0
  -21.3444  -23.5539   24.5492 C   0  0  0  0  0  0  0  0  0  0  0  0
  -20.3446  -25.0049   22.1743 C   0  0  0  0  0  0  0  0  0  0  0  0
  -22.7208  -18.2038   22.6326 C   0  0  0  0  0  0  0  0  0  0  0  0
  -31.5261  -20.3460   21.4586 C   0  0  0  0  0  0  0  0  0  0  0  0
  -22.9105  -19.3280   21.6192 C   0  0  0  0  0  0  0  0  0  0  0  0
  -30.7637  -19.1028   20.9966 C   0  0  0  0  0  0  0  0  0  0  0  0
  -30.5713  -21.4908   21.7838 C   0  0  0  0  0  0  0  0  0  0  0  0
  -28.8885  -20.6198   20.2080 C   0  0  0  0  0  0  0  0  0  0  0  0
  -23.5085  -20.5742   22.2832 C   0  0  1  0  0  0  0  0  0  0  0  0
  -20.6600  -22.8290   23.3944 C   0  0  1  0  0  0  0  0  0  0  0  0
  -29.7992  -19.4337   19.8423 C   0  0  2  0  0  0  0  0  0  0  0  0
  -13.9174  -26.3259   21.8734 C   0  0  0  0  0  0  0  0  0  0  0  0
  -28.4832  -25.2824   22.6570 C   0  0  0  0  0  0  0  0  0  0  0  0
  -24.7304  -30.1511   19.8769 C   0  0  0  0  0  0  0  0  0  0  0  0
  -24.8034  -31.0398   22.1969 C   0  0  0  0  0  0  0  0  0  0  0  0
  -18.9003  -22.9387   19.1222 C   0  0  0  0  0  0  0  0  0  0  0  0
  -16.8421  -24.3358   18.8390 C   0  0  0  0  0  0  0  0  0  0  0  0
  -16.7033  -22.1362   20.0075 C   0  0  0  0  0  0  0  0  0  0  0  0
  -29.9901  -27.8080   20.0272 C   0  0  0  0  0  0  0  0  0  0  0  0
  -30.9648  -26.5653   21.9462 C   0  0  0  0  0  0  0  0  0  0  0  0
  -16.0964  -26.8338   24.9508 C   0  0  0  0  0  0  0  0  0  0  0  0
  -30.3352  -25.3467   19.8365 C   0  0  0  0  0  0  0  0  0  0  0  0
  -23.5840  -28.8923   21.7193 C   0  0  0  0  0  0  0  0  0  1  0  0
  -17.8187  -24.0870   21.1661 C   0  0  1  0  0  0  0  0  0  0  0  0
  -15.0093  -25.9754   22.8723 C   0  0  2  0  0  0  0  0  0  0  0  0
  -28.4798  -26.2189   21.4330 C   0  0  2  0  0  0  0  0  0  0  0  0
  -24.8347  -29.7373   21.3646 C   0  0  0  0  0  0  0  0  0  0  0  0
  -25.8601  -26.9072   20.1364 C   0  0  0  0  0  0  0  0  0  0  0  0
  -17.5883  -23.3843   19.7984 C   0  0  0  0  0  0  0  0  0  0  0  0
  -29.9115  -26.4804   20.8130 C   0  0  0  0  0  0  0  0  0  0  0  0
  -27.7970  -17.9992   19.9676 N   0  0  0  0  0  0  0  0  0  0  0  0
  -27.7135  -27.4103   21.7247 N   0  0  0  0  0  0  0  0  0  0  0  0
  -29.0005  -18.2177   19.4109 N   0  0  0  0  0  0  0  0  0  0  0  0
  -19.7943  -23.7100   22.6078 N   0  0  0  0  0  0  0  0  0  0  0  0
  -29.6938  -21.7679   20.6378 N   0  0  0  0  0  0  0  0  0  0  0  0
  -30.5398  -17.3449   17.8362 N   0  0  0  0  0  0  0  0  0  0  0  0
  -27.1157  -14.4039   17.6865 N   0  0  0  0  0  0  0  0  0  0  0  0
  -22.4910  -21.2908   23.0219 N   0  0  0  0  0  0  0  0  0  0  0  0
  -16.5920  -24.4956   21.8420 N   0  0  0  0  0  0  0  0  0  0  0  0
  -30.3555  -24.0302   20.4345 N   0  0  0  0  0  0  0  0  0  0  0  0
  -15.0789  -27.0598   23.8922 N   0  3  0  0  0  0  0  0  0  0  0  0
  -29.1880  -14.8938   16.8355 O   0  0  0  0  0  0  0  0  0  0  0  0
  -21.6193  -22.5349   21.2571 O   0  0  0  0  0  0  0  0  0  0  0  0
  -18.0805  -22.1338   22.4863 O   0  0  0  0  0  0  0  0  0  0  0  0
  -17.1132  -26.7514   21.9731 O   0  0  0  0  0  0  0  0  0  0  0  0
  -28.8000  -23.1466   19.0012 O   0  0  0  0  0  0  0  0  0  0  0  0
  -22.4242  -14.6565   20.6800 O   0  0  0  0  0  0  0  0  0  0  0  0
  -23.5796  -28.5552   23.1059 O   0  0  0  0  0  0  0  0  0  1  0  0
  -22.1902   -9.2115   21.5178 F   0  0  0  0  0  0  0  0  0  0  0  0
  -21.5955  -13.6295   23.1093 F   0  0  0  0  0  0  0  0  0  0  0  0
  -24.6696  -27.4063   19.6737 F   0  0  0  0  0  0  0  0  0  0  0  0
  -26.6106  -26.7050   19.0069 F   0  0  0  0  0  0  0  0  0  0  0  0
  -25.5632  -25.6507   20.5944 F   0  0  0  0  0  0  0  0  0  0  0  0
  1  2  1  0  0  0  0
  1  5  2  0  0  0  0
  2  6  2  0  0  0  0
  3  8  2  0  0  0  0
  3 17  1  0  0  0  0
  4  9  1  0  0  0  0
  4 17  2  0  0  0  0
  5 19  1  0  0  0  0
  6 21  1  0  0  0  0
  7 10  2  0  0  0  0
  7 20  1  0  0  0  0
  8 24  1  0  0  0  0
  9 24  2  0  0  0  0
 10 25  1  0  0  0  0
 11 12  2  0  0  0  0
 11 26  1  0  0  0  0
 12 27  1  0  0  0  0
 13 16  2  0  0  0  0
 13 23  1  0  0  0  0
 14 22  1  0  0  0  0
 14 25  2  0  0  0  0
 15 27  2  0  0  0  0
 15 28  1  0  0  0  0
 16 69  1  0  0  0  0
 17 29  1  0  0  0  0
 18 29  1  0  0  0  0
 18 31  2  0  0  0  0
 18 32  1  0  0  0  0
 19 21  2  0  0  0  0
 19 37  1  0  0  0  0
 20 22  2  0  0  0  0
 20 38  1  0  0  0  0
 21 46  1  0  0  0  0
 22 39  1  0  0  0  0
 23 30  2  0  0  0  0
 23 64  1  0  0  0  0
 24 84  1  0  0  0  0
 25 85  1  0  0  0  0
 26 28  2  0  0  0  0
 26 84  1  0  0  0  0
 27 86  1  0  0  0  0
 28 87  1  0  0  0  0
 29 68  2  0  0  0  0
 30 65  1  0  0  0  0
 30 69  1  0  0  0  0
 31 70  1  0  0  0  0
 31 73  1  0  0  0  0
 32 74  1  0  0  0  0
 32 79  2  0  0  0  0
 33 47  1  0  0  0  0
 33 75  1  0  0  0  0
 33 80  2  0  0  0  0
 34 61  1  0  0  0  0
 34 71  1  0  0  0  0
 34 81  2  0  0  0  0
 35 62  1  0  0  0  0
 35 76  1  0  0  0  0
 35 82  2  0  0  0  0
 36 72  1  0  0  0  0
 36 77  1  0  0  0  0
 36 83  2  0  0  0  0
 37 40  1  0  0  0  0
 38 47  1  0  0  0  0
 39 71  1  0  0  0  0
 40 42  1  0  0  0  0
 41 43  1  0  0  0  0
 41 44  1  0  0  0  0
 42 46  1  0  0  0  0
 43 48  1  0  0  0  0
 44 72  1  0  0  0  0
 45 48  1  0  0  0  0
 45 72  1  0  0  0  0
 46 75  1  0  0  0  0
 47 71  1  0  0  0  0
 48 70  1  0  0  0  0
 49 62  1  0  0  0  0
 50 63  1  0  0  0  0
 51 64  1  0  0  0  0
 52 64  1  0  0  0  0
 53 66  1  0  0  0  0
 54 66  1  0  0  0  0
 55 66  1  0  0  0  0
 56 67  1  0  0  0  0
 57 67  1  0  0  0  0
 58 78  1  0  0  0  0
 59 67  1  0  0  0  0
 59 77  1  0  0  0  0
 60 64  1  0  0  0  0
 60 85  1  0  0  0  0
 61 66  1  0  0  0  0
 61 76  1  0  0  0  0
 62 78  1  0  0  0  0
 63 67  1  0  0  0  0
 63 69  1  0  0  0  0
 65 88  1  0  0  0  0
 65 89  1  0  0  0  0
 65 90  1  0  0  0  0
 68 70  1  0  0  0  0
M  CHG  1  78   1
M  ISO  4  36 100  60 101  77 100  85 101
M  END
> <Batch ID>
0064

> <Smiles>
CNC(C)C(=O)NC(C(=O)N1Cc2cc([101O:1][101CH2:1]C(C)(C)c3ccn(C(C)C(C)(C)C[100NH:0][100C:0](=O)N4CCCC(n5nc(-c6ccc(Oc7ccc(F)cc7F)cc6)c(C(N)=O)c5N)C4)c3C(F)(F)F)ccc2CC1C(=O)NC1CCCc2ccccc21)C(C)(C)C

> <Shape>
0.214

> <Color>
0.053

> <Negative vol penalty>
0.000

$$$$

  -OEChem-04052318053D

 86 94  0     1  0  0  0  0  0999 V2000
  -28.7636  -23.9280   17.2881 C   0  0  0  0  0  0  0  0  0  0  0  0
  -27.6316  -24.0236   18.0911 C   0  0  0  0  0  0  0  0  0  0  0  0
  -25.0975  -13.6317   21.8666 C   0  0  0  0  0  0  0  0  0  0  0  0
  -27.0804  -13.1691   20.5662 C   0  0  0  0  0  0  0  0  0  0  0  0
  -29.8942  -24.6876   17.5859 C   0  0  0  0  0  0  0  0  0  0  0  0
  -27.6299  -24.8781   19.1931 C   0  0  0  0  0  0  0  0  0  0  0  0
  -23.3720  -27.5978   19.5361 C   0  0  0  0  0  0  0  0  0  0  0  0
  -24.4112  -12.6333   21.1754 C   0  0  0  0  0  0  0  0  0  0  0  0
  -26.3941  -12.1706   19.8750 C   0  0  0  0  0  0  0  0  0  0  0  0
  -22.2441  -26.9538   20.0430 C   0  0  0  0  0  0  0  0  0  0  0  0
  -22.2431   -9.9618   20.0019 C   0  0  0  0  0  0  0  0  0  0  0  0
  -21.4597   -9.0794   20.7456 C   0  0  0  0  0  0  0  0  0  0  0  0
  -22.6330  -27.9774   22.1924 C   0  0  0  0  0  0  0  0  0  0  0  0
  -23.4179   -8.3757   21.9734 C   0  0  0  0  0  0  0  0  0  0  0  0
  -24.0886  -23.4385   23.1132 C   0  0  0  0  0  0  0  0  0  0  0  0
  -26.4321  -13.8996   21.5620 C   0  0  0  0  0  0  0  0  0  0  0  0
  -27.8858  -14.7867   23.4613 C   0  0  0  0  0  0  0  0  0  0  0  0
  -29.9031  -25.5591   18.6864 C   0  0  0  0  0  0  0  0  0  0  0  0
  -24.1463  -28.4294   20.3579 C   0  0  0  0  0  0  0  0  0  0  0  0
  -28.7622  -25.6491   19.5066 C   0  0  0  0  0  0  0  0  0  0  0  0
  -23.7687  -28.6329   21.6929 C   0  0  0  0  0  0  0  0  0  0  0  0
  -24.1641  -22.0650   23.2236 C   0  0  0  0  0  0  0  0  0  0  0  0
  -25.0595  -11.9028   20.1796 C   0  0  0  0  0  0  0  0  0  0  0  0
  -21.8761  -27.1412   21.3721 C   0  0  0  0  0  0  0  0  0  0  0  0
  -23.6139  -10.0512   20.2438 C   0  0  0  0  0  0  0  0  0  0  0  0
  -22.0471   -8.2864   21.7314 C   0  0  0  0  0  0  0  0  0  0  0  0
  -24.2013   -9.2581   21.2296 C   0  0  0  0  0  0  0  0  0  0  0  0
  -27.1414  -14.9313   22.2753 C   0  0  0  0  0  0  0  0  0  0  0  0
  -22.9716  -21.4204   23.4821 C   0  0  0  0  0  0  0  0  0  0  0  0
  -28.3561  -16.0494   23.7276 C   0  0  0  0  0  0  0  0  0  0  0  0
  -21.8479  -23.3963   23.4938 C   0  0  0  0  0  0  0  0  0  0  0  0
  -28.1304  -13.6157   24.2517 C   0  0  0  0  0  0  0  0  0  0  0  0
  -27.1562  -28.3999   21.3792 C   0  0  0  0  0  0  0  0  0  0  0  0
  -26.3587  -31.2953   22.6050 C   0  0  0  0  0  0  0  0  0  0  0  0
  -23.9084  -33.3990   23.7086 C   0  0  0  0  0  0  0  0  0  0  0  0
  -26.1656  -21.4487   21.8785 C   0  0  0  0  0  0  0  0  0  0  0  0
  -31.1651  -26.3245   18.9961 C   0  0  0  0  0  0  0  0  0  0  0  0
  -25.3447  -29.1380   19.7888 C   0  0  0  0  0  0  0  0  0  0  0  0
  -24.5547  -29.5315   22.6111 C   0  0  0  0  0  0  0  0  0  0  0  0
  -30.9512  -27.4861   19.9632 C   0  0  0  0  0  0  0  0  0  0  0  0
  -29.5964  -20.1281   21.5693 C   0  0  0  0  0  0  0  0  0  0  0  0
  -30.1037  -27.0423   21.1513 C   0  0  0  0  0  0  0  0  0  0  0  0
  -29.4003  -18.6243   21.7537 C   0  0  0  0  0  0  0  0  0  0  0  0
  -28.3668  -20.7888   20.9533 C   0  0  0  0  0  0  0  0  0  0  0  0
  -26.9080  -19.0192   21.8863 C   0  0  0  0  0  0  0  0  0  0  0  0
  -28.7131  -26.5832   20.6962 C   0  0  1  0  0  0  0  0  0  0  0  0
  -26.3533  -29.5563   20.8542 C   0  0  1  0  0  0  0  0  0  0  0  0
  -28.1136  -18.3317   22.5448 C   0  0  1  0  0  0  0  0  0  0  0  0
  -22.9280  -19.9338   23.6227 C   0  0  0  0  0  0  0  0  0  0  0  0
  -23.5676  -35.6850   24.6859 C   0  0  0  0  0  0  0  0  0  0  0  0
  -27.3535  -30.2858   25.3071 C   0  0  0  0  0  0  0  0  0  0  0  0
  -26.1394  -32.1903   26.3873 C   0  0  0  0  0  0  0  0  0  0  0  0
  -27.9892  -32.6457   24.7768 C   0  0  0  0  0  0  0  0  0  0  0  0
  -19.3603  -23.0197   21.6638 C   0  0  0  0  0  0  0  0  0  0  0  0
  -26.0355  -20.7730   24.2652 C   0  0  0  0  0  0  0  0  0  0  0  0
  -22.2474  -34.2588   21.4150 C   0  0  0  0  0  0  0  0  0  0  0  0
  -20.4323  -25.2529   21.2951 C   0  0  0  0  0  0  0  0  0  1  0  0
  -25.7771  -31.7799   23.9112 C   0  0  1  0  0  0  0  0  0  0  0  0
  -23.6253  -34.8601   23.4096 C   0  0  2  0  0  0  0  0  0  0  0  0
  -20.5428  -24.1464   23.6460 C   0  0  0  0  0  0  0  0  0  0  0  0
  -26.8009  -31.7069   25.0791 C   0  0  0  0  0  0  0  0  0  0  0  0
  -19.7457  -24.3469   22.3294 C   0  0  2  0  0  0  0  0  0  0  0  0
  -22.9429  -24.1391   23.2431 N   0  0  0  0  0  0  0  0  0  0  0  0
  -27.1361  -16.1868   21.8196 N   0  0  0  0  0  0  0  0  0  0  0  0
  -21.7906  -22.0571   23.6238 N   0  0  0  0  0  0  0  0  0  0  0  0
  -27.8829  -16.8427   22.7241 N   0  0  0  0  0  0  0  0  0  0  0  0
  -25.7219  -30.1972   22.0096 N   0  0  0  0  0  0  0  0  0  0  0  0
  -27.1512  -20.4576   21.6978 N   0  0  0  0  0  0  0  0  0  0  0  0
  -29.1240  -16.5474   24.7200 N   0  0  0  0  0  0  0  0  0  0  0  0
  -27.5723  -12.3996   23.8346 N   0  0  0  0  0  0  0  0  0  0  0  0
  -27.8726  -27.7257   20.4088 N   0  0  0  0  0  0  0  0  0  0  0  0
  -25.2575  -33.1188   23.6549 N   0  0  0  0  0  0  0  0  0  0  0  0
  -25.4201  -21.3686   23.0747 N   0  0  0  0  0  0  0  0  0  0  0  0
  -22.3224  -35.0006   22.7000 N   0  3  0  0  0  0  0  0  0  0  0  0
  -28.8098  -13.6500   25.3056 O   0  0  0  0  0  0  0  0  0  0  0  0
  -27.1291  -28.1395   22.5764 O   0  0  0  0  0  0  0  0  0  0  0  0
  -27.3373  -31.8744   22.1270 O   0  0  0  0  0  0  0  0  0  0  0  0
  -23.0219  -32.5882   23.9678 O   0  0  0  0  0  0  0  0  0  0  0  0
  -25.9873  -22.3502   21.0507 O   0  0  0  0  0  0  0  0  0  0  0  0
  -18.5141  -25.0004   22.6835 O   0  0  0  0  0  0  0  0  0  0  0  0
  -24.3902  -10.9283   19.5051 O   0  0  0  0  0  0  0  0  0  0  0  0
  -20.7761  -26.5132   21.8695 O   0  0  0  0  0  0  0  0  0  1  0  0
  -21.2944   -7.4401   22.4466 F   0  0  0  0  0  0  0  0  0  0  0  0
  -25.5176   -9.3404   21.4673 F   0  0  0  0  0  0  0  0  0  0  0  0
  -20.7437  -25.3774   24.2106 F   0  0  0  0  0  0  0  0  0  0  0  0
  -19.7114  -23.5079   24.5299 F   0  0  0  0  0  0  0  0  0  0  0  0
  1  2  1  0  0  0  0
  1  5  2  0  0  0  0
  2  6  2  0  0  0  0
  3  8  2  0  0  0  0
  3 16  1  0  0  0  0
  4  9  1  0  0  0  0
  4 16  2  0  0  0  0
  5 18  1  0  0  0  0
  6 20  1  0  0  0  0
  7 10  2  0  0  0  0
  7 19  1  0  0  0  0
  8 23  1  0  0  0  0
  9 23  2  0  0  0  0
 10 24  1  0  0  0  0
 11 12  2  0  0  0  0
 11 25  1  0  0  0  0
 12 26  1  0  0  0  0
 13 21  1  0  0  0  0
 13 24  2  0  0  0  0
 14 26  2  0  0  0  0
 14 27  1  0  0  0  0
 15 22  1  0  0  0  0
 15 63  2  0  0  0  0
 16 28  1  0  0  0  0
 17 28  1  0  0  0  0
 17 30  2  0  0  0  0
 17 32  1  0  0  0  0
 18 20  2  0  0  0  0
 18 37  1  0  0  0  0
 19 21  2  0  0  0  0
 19 38  1  0  0  0  0
 20 46  1  0  0  0  0
 21 39  1  0  0  0  0
 22 29  2  0  0  0  0
 22 73  1  0  0  0  0
 23 81  1  0  0  0  0
 24 82  1  0  0  0  0
 25 27  2  0  0  0  0
 25 81  1  0  0  0  0
 26 83  1  0  0  0  0
 27 84  1  0  0  0  0
 28 64  2  0  0  0  0
 29 49  1  0  0  0  0
 29 65  1  0  0  0  0
 30 66  1  0  0  0  0
 30 69  1  0  0  0  0
 31 60  1  0  0  0  0
 31 63  1  0  0  0  0
 31 65  2  0  0  0  0
 32 70  1  0  0  0  0
 32 75  2  0  0  0  0
 33 47  1  0  0  0  0
 33 71  1  0  0  0  0
 33 76  2  0  0  0  0
 34 58  1  0  0  0  0
 34 67  1  0  0  0  0
 34 77  2  0  0  0  0
 35 59  1  0  0  0  0
 35 72  1  0  0  0  0
 35 78  2  0  0  0  0
 36 68  1  0  0  0  0
 36 73  1  0  0  0  0
 36 79  2  0  0  0  0
 37 40  1  0  0  0  0
 38 47  1  0  0  0  0
 39 67  1  0  0  0  0
 40 42  1  0  0  0  0
 41 43  1  0  0  0  0
 41 44  1  0  0  0  0
 42 46  1  0  0  0  0
 43 48  1  0  0  0  0
 44 68  1  0  0  0  0
 45 48  1  0  0  0  0
 45 68  1  0  0  0  0
 46 71  1  0  0  0  0
 47 67  1  0  0  0  0
 48 66  1  0  0  0  0
 50 59  1  0  0  0  0
 51 61  1  0  0  0  0
 52 61  1  0  0  0  0
 53 61  1  0  0  0  0
 54 62  1  0  0  0  0
 55 73  1  0  0  0  0
 56 74  1  0  0  0  0
 57 62  1  0  0  0  0
 57 82  1  0  0  0  0
 58 61  1  0  0  0  0
 58 72  1  0  0  0  0
 59 74  1  0  0  0  0
 60 62  1  0  0  0  0
 60 85  1  0  0  0  0
 60 86  1  0  0  0  0
 62 80  1  0  0  0  0
 64 66  1  0  0  0  0
M  CHG  1  74   1
M  ISO  4  36 100  57 101  73 100  82 101
M  END
> <Batch ID>
0064

> <Smiles>
CNC(C)C(=O)NC(C(=O)N1Cc2cc([101O:1][101CH2:1]C(C)(O)C(F)(F)c3ncc([100N:0](C)[100C:0](=O)N4CCCC(n5nc(-c6ccc(Oc7ccc(F)cc7F)cc6)c(C(N)=O)c5N)C4)c(C)n3)ccc2CC1C(=O)NC1CCCc2ccccc21)C(C)(C)C

> <Shape>
0.277

> <Color>
0.070

> <Negative vol penalty>
0.000

$$$$

  -OEChem-04052318053D

 84 92  0     1  0  0  0  0  0999 V2000
  -20.4088  -34.4834   22.8509 C   0  0  0  0  0  0  0  0  0  0  0  0
  -21.6521  -34.0041   22.4508 C   0  0  0  0  0  0  0  0  0  0  0  0
  -27.2829  -13.1293   21.6173 C   0  0  0  0  0  0  0  0  0  0  0  0
  -25.6375  -13.4098   19.8705 C   0  0  0  0  0  0  0  0  0  0  0  0
  -19.5350  -33.6525   23.5509 C   0  0  0  0  0  0  0  0  0  0  0  0
  -22.0226  -32.6938   22.7516 C   0  0  0  0  0  0  0  0  0  0  0  0
  -25.4409  -28.9532   19.3122 C   0  0  0  0  0  0  0  0  0  0  0  0
  -26.9125  -11.7912   21.7512 C   0  0  0  0  0  0  0  0  0  0  0  0
  -25.2672  -12.0717   20.0044 C   0  0  0  0  0  0  0  0  0  0  0  0
  -26.7926  -28.6140   19.3543 C   0  0  0  0  0  0  0  0  0  0  0  0
  -23.6398   -8.8244   20.1339 C   0  0  0  0  0  0  0  0  0  0  0  0
  -22.2770   -8.5284   20.1603 C   0  0  0  0  0  0  0  0  0  0  0  0
  -26.2520  -26.6440   20.6372 C   0  0  0  0  0  0  0  0  0  0  0  0
  -22.0150   -9.9098   22.1250 C   0  0  0  0  0  0  0  0  0  0  0  0
  -28.4643  -22.0959   19.7336 C   0  0  0  0  0  0  0  0  0  0  0  0
  -26.6453  -13.9387   20.6769 C   0  0  0  0  0  0  0  0  0  0  0  0
  -28.0182  -15.8484   19.6892 C   0  0  0  0  0  0  0  0  0  0  0  0
  -19.8912  -32.3284   23.8519 C   0  0  0  0  0  0  0  0  0  0  0  0
  -24.4842  -28.1447   19.9427 C   0  0  0  0  0  0  0  0  0  0  0  0
  -21.1533  -31.8449   23.4574 C   0  0  0  0  0  0  0  0  0  0  0  0
  -24.8886  -26.9737   20.5994 C   0  0  0  0  0  0  0  0  0  0  0  0
  -25.9047  -11.2624   20.9448 C   0  0  0  0  0  0  0  0  0  0  0  0
  -27.1986  -27.4608   20.0193 C   0  0  0  0  0  0  0  0  0  0  0  0
  -24.1902   -9.6631   21.1031 C   0  0  0  0  0  0  0  0  0  0  0  0
  -21.4646   -9.0711   21.1558 C   0  0  0  0  0  0  0  0  0  0  0  0
  -23.3778  -10.2058   22.0986 C   0  0  0  0  0  0  0  0  0  0  0  0
  -27.0270  -15.3211   20.5385 C   0  0  0  0  0  0  0  0  0  0  0  0
  -27.9925  -17.2005   19.9294 C   0  0  0  0  0  0  0  0  0  0  0  0
  -29.0651  -21.8226   21.7138 C   0  0  0  0  0  0  0  0  0  0  0  0
  -28.8847  -15.1761   18.7656 C   0  0  0  0  0  0  0  0  0  0  0  0
  -22.4010  -28.5628   22.3069 C   0  0  0  0  0  0  0  0  0  0  0  0
  -21.4268  -25.5891   21.4523 C   0  0  0  0  0  0  0  0  0  0  0  0
  -22.1802  -22.6066   19.9745 C   0  0  0  0  0  0  0  0  0  0  0  0
  -27.9221  -21.2763   23.8787 C   0  0  0  0  0  0  0  0  0  0  0  0
  -18.9323  -31.4827   24.6519 C   0  0  0  0  0  0  0  0  0  0  0  0
  -23.0272  -28.5103   19.8653 C   0  0  0  0  0  0  0  0  0  0  0  0
  -23.8989  -26.0612   21.2749 C   0  0  0  0  0  0  0  0  0  0  0  0
  -19.2503  -29.9904   24.6038 C   0  0  0  0  0  0  0  0  0  0  0  0
  -24.7160  -20.0662   22.4825 C   0  0  0  0  0  0  0  0  0  0  0  0
  -20.7391  -29.7541   24.8368 C   0  0  0  0  0  0  0  0  0  0  0  0
  -25.1020  -18.7267   21.8578 C   0  0  0  0  0  0  0  0  0  0  0  0
  -25.6116  -20.4181   23.6664 C   0  0  0  0  0  0  0  0  0  0  0  0
  -27.4560  -19.0687   22.7081 C   0  0  0  0  0  0  0  0  0  0  0  0
  -21.5815  -30.4218   23.7432 C   0  0  1  0  0  0  0  0  0  0  0  0
  -22.1946  -27.8865   20.9811 C   0  0  1  0  0  0  0  0  0  0  0  0
  -26.5943  -18.7107   21.4880 C   0  0  1  0  0  0  0  0  0  0  0  0
  -30.0143  -25.3289   15.8736 C   0  0  0  0  0  0  0  0  0  0  0  0
  -21.1932  -20.3570   19.4623 C   0  0  0  0  0  0  0  0  0  0  0  0
  -21.7940  -24.7669   24.3676 C   0  0  0  0  0  0  0  0  0  0  0  0
  -21.7275  -22.3757   23.6290 C   0  0  0  0  0  0  0  0  0  0  0  0
  -19.7428  -23.8446   23.2740 C   0  0  0  0  0  0  0  0  0  0  0  0
  -30.3016  -21.8843   23.8720 C   0  0  0  0  0  0  0  0  0  0  0  0
  -22.4876  -23.0067   17.0583 C   0  0  0  0  0  0  0  0  0  0  0  0
  -29.1885  -24.9844   17.1051 C   0  0  0  0  0  0  0  0  0  0  0  0
  -31.1358  -24.1058   18.5611 C   0  0  0  0  0  0  0  0  0  0  0  0
  -30.4399  -26.5107   18.7685 C   0  0  0  0  0  0  0  0  0  0  0  0
  -30.7311  -22.6283   18.5321 C   0  0  0  0  0  0  0  0  0  0  0  0
  -29.3261  -27.5333   18.9589 C   0  0  0  0  0  0  0  0  0  1  0  0
  -21.8058  -24.1837   21.8525 C   0  0  1  0  0  0  0  0  0  0  0  0
  -21.4301  -21.7704   18.9535 C   0  0  2  0  0  0  0  0  0  0  0  0
  -29.9432  -25.0841   18.4482 C   0  0  1  0  0  0  0  0  0  0  0  0
  -21.2866  -23.8107   23.2698 C   0  0  0  0  0  0  0  0  0  0  0  0
  -27.9791  -21.8051   20.9764 N   0  0  0  0  0  0  0  0  0  0  0  0
  -26.4162  -16.2615   21.2641 N   0  0  0  0  0  0  0  0  0  0  0  0
  -30.1422  -22.1116   20.9354 N   0  0  0  0  0  0  0  0  0  0  0  0
  -29.7822  -22.2921   19.6556 N   0  0  0  0  0  0  0  0  0  0  0  0
  -27.0253  -17.3933   20.8715 N   0  0  0  0  0  0  0  0  0  0  0  0
  -22.4865  -26.4650   21.1769 N   0  0  0  0  0  0  0  0  0  0  0  0
  -27.0306  -20.3402   23.3157 N   0  0  0  0  0  0  0  0  0  0  0  0
  -28.7031  -18.2313   19.4246 N   0  0  0  0  0  0  0  0  0  0  0  0
  -28.7790  -13.7840   18.6426 N   0  0  0  0  0  0  0  0  0  0  0  0
  -21.5543  -29.6316   22.5311 N   0  0  0  0  0  0  0  0  0  0  0  0
  -21.3194  -23.3112   20.7892 N   0  0  0  0  0  0  0  0  0  0  0  0
  -29.0804  -21.5698   23.1339 N   0  0  0  0  0  0  0  0  0  0  0  0
  -22.2033  -21.6888   17.6821 N   0  3  0  0  0  0  0  0  0  0  0  0
  -29.7390  -15.7897   18.0821 O   0  0  0  0  0  0  0  0  0  0  0  0
  -23.2636  -28.1449   23.0705 O   0  0  0  0  0  0  0  0  0  0  0  0
  -20.2344  -25.8964   21.3795 O   0  0  0  0  0  0  0  0  0  0  0  0
  -23.4071  -22.6293   20.0449 O   0  0  0  0  0  0  0  0  0  0  0  0
  -27.7287  -21.7754   24.9940 O   0  0  0  0  0  0  0  0  0  0  0  0
  -25.5433   -9.9567   21.0751 O   0  0  0  0  0  0  0  0  0  0  0  0
  -28.5174  -27.1277   20.0624 O   0  0  0  0  0  0  0  0  0  1  0  0
  -20.1556   -8.7880   21.1801 F   0  0  0  0  0  0  0  0  0  0  0  0
  -23.9007  -11.0131   23.0317 F   0  0  0  0  0  0  0  0  0  0  0  0
  1  2  1  0  0  0  0
  1  5  2  0  0  0  0
  2  6  2  0  0  0  0
  3  8  2  0  0  0  0
  3 16  1  0  0  0  0
  4  9  1  0  0  0  0
  4 16  2  0  0  0  0
  5 18  1  0  0  0  0
  6 20  1  0  0  0  0
  7 10  2  0  0  0  0
  7 19  1  0  0  0  0
  8 22  1  0  0  0  0
  9 22  2  0  0  0  0
 10 23  1  0  0  0  0
 11 12  2  0  0  0  0
 11 24  1  0  0  0  0
 12 25  1  0  0  0  0
 13 21  1  0  0  0  0
 13 23  2  0  0  0  0
 14 25  2  0  0  0  0
 14 26  1  0  0  0  0
 15 63  2  0  0  0  0
 15 66  1  0  0  0  0
 16 27  1  0  0  0  0
 17 27  1  0  0  0  0
 17 28  2  0  0  0  0
 17 30  1  0  0  0  0
 18 20  2  0  0  0  0
 18 35  1  0  0  0  0
 19 21  2  0  0  0  0
 19 36  1  0  0  0  0
 20 44  1  0  0  0  0
 21 37  1  0  0  0  0
 22 81  1  0  0  0  0
 23 82  1  0  0  0  0
 24 26  2  0  0  0  0
 24 81  1  0  0  0  0
 25 83  1  0  0  0  0
 26 84  1  0  0  0  0
 27 64  2  0  0  0  0
 28 67  1  0  0  0  0
 28 70  1  0  0  0  0
 29 63  1  0  0  0  0
 29 65  2  0  0  0  0
 29 74  1  0  0  0  0
 30 71  1  0  0  0  0
 30 76  2  0  0  0  0
 31 45  1  0  0  0  0
 31 72  1  0  0  0  0
 31 77  2  0  0  0  0
 32 59  1  0  0  0  0
 32 68  1  0  0  0  0
 32 78  2  0  0  0  0
 33 60  1  0  0  0  0
 33 73  1  0  0  0  0
 33 79  2  0  0  0  0
 34 69  1  0  0  0  0
 34 74  1  0  0  0  0
 34 80  2  0  0  0  0
 35 38  1  0  0  0  0
 36 45  1  0  0  0  0
 37 68  1  0  0  0  0
 38 40  1  0  0  0  0
 39 41  1  0  0  0  0
 39 42  1  0  0  0  0
 40 44  1  0  0  0  0
 41 46  1  0  0  0  0
 42 69  1  0  0  0  0
 43 46  1  0  0  0  0
 43 69  1  0  0  0  0
 44 72  1  0  0  0  0
 45 68  1  0  0  0  0
 46 67  1  0  0  0  0
 47 54  1  0  0  0  0
 48 60  1  0  0  0  0
 49 62  1  0  0  0  0
 50 62  1  0  0  0  0
 51 62  1  0  0  0  0
 52 74  1  0  0  0  0
 53 75  1  0  0  0  0
 54 61  1  0  0  0  0
 55 57  1  0  0  0  0
 55 61  1  0  0  0  0
 56 58  1  0  0  0  0
 56 61  1  0  0  0  0
 57 66  1  0  0  0  0
 58 82  1  0  0  0  0
 59 62  1  0  0  0  0
 59 73  1  0  0  0  0
 60 75  1  0  0  0  0
 64 67  1  0  0  0  0
 65 66  1  0  0  0  0
M  CHG  1  75   1
M  ISO  4  34 100  58 101  74 100  82 101
M  END
> <Batch ID>
0064

> <Smiles>
CCC(CCn1cnc([100N:0](C)[100C:0](=O)N2CCCC(n3nc(-c4ccc(Oc5ccc(F)cc5F)cc4)c(C(N)=O)c3N)C2)n1)C[101CH2:1][101O:1]c1ccc2c(c1)CN(C(=O)C(NC(=O)C(C)NC)C(C)(C)C)C(C(=O)NC1CCCc3ccccc31)C2

> <Shape>
0.225

> <Color>
0.085

> <Negative vol penalty>
0.000

$$$$

  -OEChem-04052318053D

 90 98  0     1  0  0  0  0  0999 V2000
  -22.1708  -25.7624   21.4536 C   0  0  0  0  0  0  0  0  0  0  0  0
  -22.4302  -24.5317   20.8592 C   0  0  0  0  0  0  0  0  0  0  0  0
  -26.2013  -28.5042   18.9623 C   0  0  0  0  0  0  0  0  0  0  0  0
  -26.5597  -28.4572   21.3511 C   0  0  0  0  0  0  0  0  0  0  0  0
  -22.8238  -26.1169   22.6334 C   0  0  0  0  0  0  0  0  0  0  0  0
  -23.3437  -23.6551   21.4437 C   0  0  0  0  0  0  0  0  0  0  0  0
  -23.0553  -17.5380   21.5031 C   0  0  0  0  0  0  0  0  0  0  0  0
  -25.2756  -29.5355   19.1214 C   0  0  0  0  0  0  0  0  0  0  0  0
  -25.6341  -29.4885   21.5103 C   0  0  0  0  0  0  0  0  0  0  0  0
  -23.6695  -16.5623   20.7191 C   0  0  0  0  0  0  0  0  0  0  0  0
  -25.5600  -32.8464   21.1367 C   0  0  0  0  0  0  0  0  0  0  0  0
  -25.9018  -33.8961   21.9892 C   0  0  0  0  0  0  0  0  0  0  0  0
  -25.3943  -16.3159   22.3875 C   0  0  0  0  0  0  0  0  0  0  0  0
  -23.9770  -33.4057   23.3647 C   0  0  0  0  0  0  0  0  0  0  0  0
  -29.7577  -16.4888   20.0683 C   0  0  0  0  0  0  0  0  0  0  0  0
  -26.8433  -27.9651   20.0771 C   0  0  0  0  0  0  0  0  0  0  0  0
  -29.1861  -27.0256   19.7079 C   0  0  0  0  0  0  0  0  0  0  0  0
  -23.7385  -25.2402   23.2378 C   0  0  0  0  0  0  0  0  0  0  0  0
  -23.6130  -17.9183   22.7323 C   0  0  0  0  0  0  0  0  0  0  0  0
  -24.0105  -23.9987   22.6319 C   0  0  0  0  0  0  0  0  0  0  0  0
  -24.7839  -17.2948   23.1864 C   0  0  0  0  0  0  0  0  0  0  0  0
  -24.9921  -30.0276   20.3954 C   0  0  0  0  0  0  0  0  0  0  0  0
  -24.8407  -15.9532   21.1598 C   0  0  0  0  0  0  0  0  0  0  0  0
  -24.4267  -32.0764   21.3980 C   0  0  0  0  0  0  0  0  0  0  0  0
  -25.1104  -34.1757   23.1033 C   0  0  0  0  0  0  0  0  0  0  0  0
  -23.6352  -32.3560   22.5121 C   0  0  0  0  0  0  0  0  0  0  0  0
  -27.7991  -26.8994   19.9134 C   0  0  0  0  0  0  0  0  0  0  0  0
  -30.4986  -16.9997   21.0964 C   0  0  0  0  0  0  0  0  0  0  0  0
  -29.6386  -25.7321   19.6154 C   0  0  0  0  0  0  0  0  0  0  0  0
  -30.4275  -14.7998   21.3327 C   0  0  0  0  0  0  0  0  0  0  0  0
  -29.9933  -28.2065   19.6096 C   0  0  0  0  0  0  0  0  0  0  0  0
  -24.7798  -20.6239   23.9248 C   0  0  0  0  0  0  0  0  0  0  0  0
  -24.9527  -18.8878   26.6595 C   0  0  0  0  0  0  0  0  0  0  0  0
  -25.1597  -15.8167   28.1333 C   0  0  0  0  0  0  0  0  0  0  0  0
  -29.8521  -20.6188   21.2796 C   0  0  0  0  0  0  0  0  0  0  0  0
  -24.4551  -25.6871   24.4874 C   0  0  0  0  0  0  0  0  0  0  0  0
  -22.9237  -18.9533   23.5785 C   0  0  0  0  0  0  0  0  0  0  0  0
  -25.4117  -17.6528   24.5078 C   0  0  0  0  0  0  0  0  0  0  0  0
  -25.1288  -24.5454   25.2445 C   0  0  0  0  0  0  0  0  0  0  0  0
  -27.1252  -21.3762   19.1672 C   0  0  0  0  0  0  0  0  0  0  0  0
  -25.9081  -23.6538   24.2829 C   0  0  0  0  0  0  0  0  0  0  0  0
  -27.1625  -22.9038   19.1610 C   0  0  0  0  0  0  0  0  0  0  0  0
  -27.4275  -20.7997   20.5516 C   0  0  0  0  0  0  0  0  0  0  0  0
  -28.7293  -22.8213   21.1358 C   0  0  0  0  0  0  0  0  0  0  0  0
  -24.9762  -23.0104   23.2490 C   0  0  1  0  0  0  0  0  0  0  0  0
  -23.8596  -19.6300   24.5753 C   0  0  1  0  0  0  0  0  0  0  0  0
  -28.4880  -23.4242   19.7433 C   0  0  2  0  0  0  0  0  0  0  0  0
  -31.7419  -18.4956   22.7020 C   0  0  0  0  0  0  0  0  0  0  0  0
  -25.3237  -14.7188   30.3839 C   0  0  0  0  0  0  0  0  0  0  0  0
  -31.3851  -12.5215   20.8444 C   0  0  0  0  0  0  0  0  0  0  0  0
  -29.2987  -12.7367   22.2361 C   0  0  0  0  0  0  0  0  0  0  0  0
  -31.5122  -13.3581   23.1823 C   0  0  0  0  0  0  0  0  0  0  0  0
  -27.8938  -19.6820   26.8298 C   0  0  0  0  0  0  0  0  0  0  0  0
  -28.2221  -17.8424   28.4960 C   0  0  0  0  0  0  0  0  0  0  0  0
  -26.6727  -19.7281   29.0118 C   0  0  0  0  0  0  0  0  0  0  0  0
  -27.1341  -15.3015   18.0247 C   0  0  0  0  0  0  0  0  0  0  0  0
  -26.8377  -12.9759   18.8609 C   0  0  0  0  0  0  0  0  0  0  0  0
  -28.5708  -18.6801   22.2819 C   0  0  0  0  0  0  0  0  0  0  0  0
  -22.6099  -14.3663   27.7406 C   0  0  0  0  0  0  0  0  0  0  0  0
  -26.8609  -14.8850   20.5014 C   0  0  0  0  0  0  0  0  0  1  0  0
  -30.8671  -18.3772   21.4328 C   0  0  2  0  0  0  0  0  0  0  0  0
  -25.9927  -17.9988   27.2974 C   0  0  1  0  0  0  0  0  0  0  0  0
  -24.3880  -15.1981   29.2850 C   0  0  2  0  0  0  0  0  0  0  0  0
  -30.6489  -13.4363   21.8757 C   0  0  0  0  0  0  0  0  0  0  0  0
  -27.1848  -18.8073   27.8829 C   0  0  0  0  0  0  0  0  0  0  0  0
  -27.4758  -14.3478   19.1874 C   0  0  0  0  0  0  0  0  0  0  0  0
  -29.0204  -14.1476   19.3270 C   0  0  0  0  0  0  0  0  0  0  0  0
  -27.3969  -25.6262   19.9492 N   0  0  0  0  0  0  0  0  0  0  0  0
  -29.7307  -15.1257   20.2392 N   0  0  0  0  0  0  0  0  0  0  0  0
  -28.5380  -24.9406   19.7649 N   0  0  0  0  0  0  0  0  0  0  0  0
  -30.8999  -15.9324   21.8632 N   0  3  0  0  0  0  0  0  0  0  0  0
  -24.7037  -18.6749   25.2962 N   0  0  0  0  0  0  0  0  0  0  0  0
  -28.6752  -21.3580   21.0904 N   0  0  0  0  0  0  0  0  0  0  0  0
  -30.8666  -25.2059   19.4215 N   0  0  0  0  0  0  0  0  0  0  0  0
  -29.3677  -29.4551   19.7273 N   0  0  0  0  0  0  0  0  0  0  0  0
  -24.2579  -21.9004   23.8376 N   0  0  0  0  0  0  0  0  0  0  0  0
  -25.2857  -17.1821   28.2780 N   0  0  0  0  0  0  0  0  0  0  0  0
  -29.7130  -19.2539   21.5732 N   0  0  0  0  0  0  0  0  0  0  0  0
  -23.5891  -14.0343   28.8073 N   0  3  0  0  0  0  0  0  0  0  0  0
  -31.2301  -28.1562   19.4065 O   0  0  0  0  0  0  0  0  0  0  0  0
  -25.8822  -20.2599   23.5325 O   0  0  0  0  0  0  0  0  0  0  0  0
  -24.3772  -19.7349   27.3471 O   0  0  0  0  0  0  0  0  0  0  0  0
  -25.6091  -15.1544   27.2007 O   0  0  0  0  0  0  0  0  0  0  0  0
  -30.9673  -21.1498   21.1990 O   0  0  0  0  0  0  0  0  0  0  0  0
  -24.0891  -31.0341   20.5511 O   0  0  0  0  0  0  0  0  0  0  0  0
  -25.4426  -15.0011   20.3962 O   0  0  0  0  0  0  0  0  0  1  0  0
  -25.4396  -35.1828   23.9228 F   0  0  0  0  0  0  0  0  0  0  0  0
  -22.5459  -31.6190   22.7690 F   0  0  0  0  0  0  0  0  0  0  0  0
  -29.2312  -12.8580   19.7418 F   0  0  0  0  0  0  0  0  0  0  0  0
  -29.5582  -14.1866   18.0667 F   0  0  0  0  0  0  0  0  0  0  0  0
  1  2  1  0  0  0  0
  1  5  2  0  0  0  0
  2  6  2  0  0  0  0
  3  8  2  0  0  0  0
  3 16  1  0  0  0  0
  4  9  1  0  0  0  0
  4 16  2  0  0  0  0
  5 18  1  0  0  0  0
  6 20  1  0  0  0  0
  7 10  2  0  0  0  0
  7 19  1  0  0  0  0
  8 22  1  0  0  0  0
  9 22  2  0  0  0  0
 10 23  1  0  0  0  0
 11 12  2  0  0  0  0
 11 24  1  0  0  0  0
 12 25  1  0  0  0  0
 13 21  1  0  0  0  0
 13 23  2  0  0  0  0
 14 25  2  0  0  0  0
 14 26  1  0  0  0  0
 15 28  2  0  0  0  0
 15 69  1  0  0  0  0
 16 27  1  0  0  0  0
 17 27  1  0  0  0  0
 17 29  2  0  0  0  0
 17 31  1  0  0  0  0
 18 20  2  0  0  0  0
 18 36  1  0  0  0  0
 19 21  2  0  0  0  0
 19 37  1  0  0  0  0
 20 45  1  0  0  0  0
 21 38  1  0  0  0  0
 22 85  1  0  0  0  0
 23 86  1  0  0  0  0
 24 26  2  0  0  0  0
 24 85  1  0  0  0  0
 25 87  1  0  0  0  0
 26 88  1  0  0  0  0
 27 68  2  0  0  0  0
 28 61  1  0  0  0  0
 28 71  1  0  0  0  0
 29 70  1  0  0  0  0
 29 74  1  0  0  0  0
 30 64  1  0  0  0  0
 30 69  1  0  0  0  0
 30 71  2  0  0  0  0
 31 75  1  0  0  0  0
 31 80  2  0  0  0  0
 32 46  1  0  0  0  0
 32 76  1  0  0  0  0
 32 81  2  0  0  0  0
 33 62  1  0  0  0  0
 33 72  1  0  0  0  0
 33 82  2  0  0  0  0
 34 63  1  0  0  0  0
 34 77  1  0  0  0  0
 34 83  2  0  0  0  0
 35 73  1  0  0  0  0
 35 78  1  0  0  0  0
 35 84  2  0  0  0  0
 36 39  1  0  0  0  0
 37 46  1  0  0  0  0
 38 72  1  0  0  0  0
 39 41  1  0  0  0  0
 40 42  1  0  0  0  0
 40 43  1  0  0  0  0
 41 45  1  0  0  0  0
 42 47  1  0  0  0  0
 43 73  1  0  0  0  0
 44 47  1  0  0  0  0
 44 73  1  0  0  0  0
 45 76  1  0  0  0  0
 46 72  1  0  0  0  0
 47 70  1  0  0  0  0
 48 61  1  0  0  0  0
 49 63  1  0  0  0  0
 50 64  1  0  0  0  0
 51 64  1  0  0  0  0
 52 64  1  0  0  0  0
 53 65  1  0  0  0  0
 54 65  1  0  0  0  0
 55 65  1  0  0  0  0
 56 66  1  0  0  0  0
 57 66  1  0  0  0  0
 58 78  1  0  0  0  0
 59 79  1  0  0  0  0
 60 66  1  0  0  0  0
 60 86  1  0  0  0  0
 61 78  1  0  0  0  0
 62 65  1  0  0  0  0
 62 77  1  0  0  0  0
 63 79  1  0  0  0  0
 66 67  1  0  0  0  0
 67 69  1  0  0  0  0
 67 89  1  0  0  0  0
 67 90  1  0  0  0  0
 68 70  1  0  0  0  0
M  CHG  2  71   1  79   1
M  ISO  4  35 100  60 101  78 100  86 101
M  END
> <Batch ID>
0064

> <Smiles>
CNC(C)C(=O)NC(C(=O)N1Cc2cc([101O:1][101CH2:1]C(C)(C)C(F)(F)n3cc(C(C)[100N:0](C)[100C:0](=O)N4CCCC(n5nc(-c6ccc(Oc7ccc(F)cc7F)cc6)c(C(N)=O)c5N)C4)nc3C(C)(C)C)ccc2CC1C(=O)NC1CCCc2ccccc21)C(C)(C)C

> <Shape>
0.213

> <Color>
0.049

> <Negative vol penalty>
0.000

$$$$

  -OEChem-04052318053D

 88 96  0     1  0  0  0  0  0999 V2000
  -16.3748  -30.2924   23.5650 C   0  0  0  0  0  0  0  0  0  0  0  0
  -17.4622  -30.9903   23.0492 C   0  0  0  0  0  0  0  0  0  0  0  0
  -27.2937  -12.8330   21.4075 C   0  0  0  0  0  0  0  0  0  0  0  0
  -26.9322  -13.8148   19.2297 C   0  0  0  0  0  0  0  0  0  0  0  0
  -16.5747  -29.0791   24.2221 C   0  0  0  0  0  0  0  0  0  0  0  0
  -18.7503  -30.4757   23.1912 C   0  0  0  0  0  0  0  0  0  0  0  0
  -25.0586  -30.2057   19.8075 C   0  0  0  0  0  0  0  0  0  0  0  0
  -26.4788  -11.7565   21.0574 C   0  0  0  0  0  0  0  0  0  0  0  0
  -26.1173  -12.7382   18.8797 C   0  0  0  0  0  0  0  0  0  0  0  0
  -26.4116  -30.4589   20.0294 C   0  0  0  0  0  0  0  0  0  0  0  0
  -24.2029   -8.9268   20.8641 C   0  0  0  0  0  0  0  0  0  0  0  0
  -23.2584   -8.4966   21.7960 C   0  0  0  0  0  0  0  0  0  0  0  0
  -26.6287  -28.3150   21.1138 C   0  0  0  0  0  0  0  0  0  0  0  0
  -22.2229  -10.6791   21.7539 C   0  0  0  0  0  0  0  0  0  0  0  0
  -27.5204  -13.8622   20.4936 C   0  0  0  0  0  0  0  0  0  0  0  0
  -29.7534  -15.0827   20.6722 C   0  0  0  0  0  0  0  0  0  0  0  0
  -17.8651  -28.5446   24.3638 C   0  0  0  0  0  0  0  0  0  0  0  0
  -24.4771  -29.0079   20.2475 C   0  0  0  0  0  0  0  0  0  0  0  0
  -18.9679  -29.2547   23.8520 C   0  0  0  0  0  0  0  0  0  0  0  0
  -25.2687  -28.0480   20.8940 C   0  0  0  0  0  0  0  0  0  0  0  0
  -25.8906  -11.7090   19.7935 C   0  0  0  0  0  0  0  0  0  0  0  0
  -27.1962  -29.5147   20.6852 C   0  0  0  0  0  0  0  0  0  0  0  0
  -24.1575  -10.2332   20.3772 C   0  0  0  0  0  0  0  0  0  0  0  0
  -22.2683   -9.3727   22.2408 C   0  0  0  0  0  0  0  0  0  0  0  0
  -23.1675  -11.1093   20.8221 C   0  0  0  0  0  0  0  0  0  0  0  0
  -28.3617  -14.9748   20.8548 C   0  0  0  0  0  0  0  0  0  0  0  0
  -30.0709  -16.3202   21.1765 C   0  0  0  0  0  0  0  0  0  0  0  0
  -29.2827  -23.9048   17.4957 C   0  0  0  0  0  0  0  0  0  0  0  0
  -30.0642  -25.7066   18.5817 C   0  0  0  0  0  0  0  0  0  0  0  0
  -30.3998  -23.6545   19.4261 C   0  0  0  0  0  0  0  0  0  0  0  0
  -30.6765  -14.1479   20.0981 C   0  0  0  0  0  0  0  0  0  0  0  0
  -22.1688  -28.2563   22.2994 C   0  0  0  0  0  0  0  0  0  0  0  0
  -22.6624  -25.2610   21.1560 C   0  0  0  0  0  0  0  0  0  0  0  0
  -24.7782  -23.0470   19.6500 C   0  0  0  0  0  0  0  0  0  0  0  0
  -29.0280  -21.7781   21.6951 C   0  0  0  0  0  0  0  0  0  0  0  0
  -18.0364  -27.2530   25.1233 C   0  0  0  0  0  0  0  0  0  0  0  0
  -23.0223  -28.7385   19.9767 C   0  0  0  0  0  0  0  0  0  0  0  0
  -24.6972  -26.7376   21.3681 C   0  0  0  0  0  0  0  0  0  0  0  0
  -19.3948  -26.5924   24.9030 C   0  0  0  0  0  0  0  0  0  0  0  0
  -27.3156  -19.5706   23.9022 C   0  0  0  0  0  0  0  0  0  0  0  0
  -20.5149  -27.6204   25.0275 C   0  0  0  0  0  0  0  0  0  0  0  0
  -27.5447  -18.1886   23.2878 C   0  0  0  0  0  0  0  0  0  0  0  0
  -27.1407  -20.6433   22.8294 C   0  0  0  0  0  0  0  0  0  0  0  0
  -28.4535  -19.3210   21.2164 C   0  0  0  0  0  0  0  0  0  0  0  0
  -20.3780  -28.7169   23.9642 C   0  0  1  0  0  0  0  0  0  0  0  0
  -22.4195  -27.7058   20.9240 C   0  0  1  0  0  0  0  0  0  0  0  0
  -28.6912  -18.2153   22.2592 C   0  0  2  0  0  0  0  0  0  0  0  0
  -28.5544  -23.3098   16.3389 C   0  0  0  0  0  0  0  0  0  0  0  0
  -25.5289  -20.9096   18.5704 C   0  0  0  0  0  0  0  0  0  0  0  0
  -32.8599  -21.3676   21.4778 C   0  0  0  0  0  0  0  0  0  0  0  0
  -33.4520  -23.4352   20.1996 C   0  0  0  0  0  0  0  0  0  0  0  0
  -32.5671  -21.4289   19.0061 C   0  0  0  0  0  0  0  0  0  0  0  0
  -23.0221  -24.3520   24.0464 C   0  0  0  0  0  0  0  0  0  0  0  0
  -24.0677  -22.2481   23.1813 C   0  0  0  0  0  0  0  0  0  0  0  0
  -21.6978  -22.7844   22.6169 C   0  0  0  0  0  0  0  0  0  0  0  0
  -30.8488  -29.7070   20.3360 C   0  0  0  0  0  0  0  0  0  0  0  0
  -29.0783  -30.0803   18.5995 C   0  0  0  0  0  0  0  0  0  0  0  0
  -23.9235  -23.9650   16.9693 C   0  0  0  0  0  0  0  0  0  0  0  0
  -30.2375  -27.2027   18.6755 C   0  0  0  0  0  0  0  0  0  0  0  0
  -29.2568  -27.8203   19.6824 C   0  0  0  0  0  0  0  0  0  0  0  0
  -30.9569  -22.7715   20.4903 C   0  0  2  0  0  0  0  0  0  0  0  0
  -23.5599  -24.1072   21.5331 C   0  0  1  0  0  0  0  0  0  0  0  0
  -24.5760  -22.0919   18.4875 C   0  0  2  0  0  0  0  0  0  0  0  0
  -32.4468  -22.2721   20.2974 C   0  0  0  0  0  0  0  0  0  0  0  0
  -23.0975  -23.3983   22.8373 C   0  0  0  0  0  0  0  0  0  0  0  0
  -29.4315  -29.3380   19.8927 C   0  0  0  0  0  0  0  0  0  1  0  0
  -27.8317  -16.0574   21.4303 N   0  0  0  0  0  0  0  0  0  0  0  0
  -29.3979  -25.2427   17.5123 N   0  0  0  0  0  0  0  0  0  0  0  0
  -29.7567  -23.0485   18.4151 N   0  0  0  0  0  0  0  0  0  0  0  0
  -30.5921  -24.9749   19.5761 N   0  0  0  0  0  0  0  0  0  0  0  0
  -28.8959  -16.8572   21.6137 N   0  0  0  0  0  0  0  0  0  0  0  0
  -23.2683  -26.5235   21.0854 N   0  0  0  0  0  0  0  0  0  0  0  0
  -28.2619  -20.6165   21.8870 N   0  0  0  0  0  0  0  0  0  0  0  0
  -31.2378  -16.9904   21.2842 N   0  0  0  0  0  0  0  0  0  0  0  0
  -30.1823  -12.9232   19.6288 N   0  0  0  0  0  0  0  0  0  0  0  0
  -20.8405  -28.2362   22.6800 N   0  0  0  0  0  0  0  0  0  0  0  0
  -23.6145  -23.2341   20.3656 N   0  0  0  0  0  0  0  0  0  0  0  0
  -30.0757  -21.6648   20.7894 N   0  0  0  0  0  0  0  0  0  0  0  0
  -24.8096  -22.7939   17.1937 N   0  3  0  0  0  0  0  0  0  0  0  0
  -31.9058  -14.3847   20.0189 O   0  0  0  0  0  0  0  0  0  0  0  0
  -23.1108  -28.6674   22.9666 O   0  0  0  0  0  0  0  0  0  0  0  0
  -21.4693  -25.0489   20.9255 O   0  0  0  0  0  0  0  0  0  0  0  0
  -25.8611  -23.5715   19.9005 O   0  0  0  0  0  0  0  0  0  0  0  0
  -28.7987  -22.8361   22.2909 O   0  0  0  0  0  0  0  0  0  0  0  0
  -25.0955  -10.6586   19.4515 O   0  0  0  0  0  0  0  0  0  0  0  0
  -28.5169  -29.7596   20.9037 O   0  0  0  0  0  0  0  0  0  1  0  0
  -21.3604   -8.9590   23.1345 F   0  0  0  0  0  0  0  0  0  0  0  0
  -23.1181  -12.3651   20.3570 F   0  0  0  0  0  0  0  0  0  0  0  0
  1  2  1  0  0  0  0
  1  5  2  0  0  0  0
  2  6  2  0  0  0  0
  3  8  2  0  0  0  0
  3 15  1  0  0  0  0
  4  9  1  0  0  0  0
  4 15  2  0  0  0  0
  5 17  1  0  0  0  0
  6 19  1  0  0  0  0
  7 10  2  0  0  0  0
  7 18  1  0  0  0  0
  8 21  1  0  0  0  0
  9 21  2  0  0  0  0
 10 22  1  0  0  0  0
 11 12  2  0  0  0  0
 11 23  1  0  0  0  0
 12 24  1  0  0  0  0
 13 20  1  0  0  0  0
 13 22  2  0  0  0  0
 14 24  2  0  0  0  0
 14 25  1  0  0  0  0
 15 26  1  0  0  0  0
 16 26  1  0  0  0  0
 16 27  2  0  0  0  0
 16 31  1  0  0  0  0
 17 19  2  0  0  0  0
 17 36  1  0  0  0  0
 18 20  2  0  0  0  0
 18 37  1  0  0  0  0
 19 45  1  0  0  0  0
 20 38  1  0  0  0  0
 21 85  1  0  0  0  0
 22 86  1  0  0  0  0
 23 25  2  0  0  0  0
 23 85  1  0  0  0  0
 24 87  1  0  0  0  0
 25 88  1  0  0  0  0
 26 67  2  0  0  0  0
 27 71  1  0  0  0  0
 27 74  1  0  0  0  0
 28 48  1  0  0  0  0
 28 68  2  0  0  0  0
 28 69  1  0  0  0  0
 29 59  1  0  0  0  0
 29 68  1  0  0  0  0
 29 70  2  0  0  0  0
 30 61  1  0  0  0  0
 30 69  2  0  0  0  0
 30 70  1  0  0  0  0
 31 75  1  0  0  0  0
 31 80  2  0  0  0  0
 32 46  1  0  0  0  0
 32 76  1  0  0  0  0
 32 81  2  0  0  0  0
 33 62  1  0  0  0  0
 33 72  1  0  0  0  0
 33 82  2  0  0  0  0
 34 63  1  0  0  0  0
 34 77  1  0  0  0  0
 34 83  2  0  0  0  0
 35 73  1  0  0  0  0
 35 78  1  0  0  0  0
 35 84  2  0  0  0  0
 36 39  1  0  0  0  0
 37 46  1  0  0  0  0
 38 72  1  0  0  0  0
 39 41  1  0  0  0  0
 40 42  1  0  0  0  0
 40 43  1  0  0  0  0
 41 45  1  0  0  0  0
 42 47  1  0  0  0  0
 43 73  1  0  0  0  0
 44 47  1  0  0  0  0
 44 73  1  0  0  0  0
 45 76  1  0  0  0  0
 46 72  1  0  0  0  0
 47 71  1  0  0  0  0
 49 63  1  0  0  0  0
 50 64  1  0  0  0  0
 51 64  1  0  0  0  0
 52 64  1  0  0  0  0
 53 65  1  0  0  0  0
 54 65  1  0  0  0  0
 55 65  1  0  0  0  0
 56 66  1  0  0  0  0
 57 66  1  0  0  0  0
 58 79  1  0  0  0  0
 59 60  1  0  0  0  0
 60 66  1  0  0  0  0
 61 64  1  0  0  0  0
 61 78  1  0  0  0  0
 62 65  1  0  0  0  0
 62 77  1  0  0  0  0
 63 79  1  0  0  0  0
 66 86  1  0  0  0  0
 67 71  1  0  0  0  0
M  CHG  1  79   1
M  ISO  4  35 100  66 101  78 100  86 101
M  END
> <Batch ID>
0064

> <Smiles>
CNC(C)C(=O)NC(C(=O)N1Cc2cc([101O:1][101C:1](C)(C)CCc3nc(C)nc(C([100NH:0][100C:0](=O)N4CCCC(n5nc(-c6ccc(Oc7ccc(F)cc7F)cc6)c(C(N)=O)c5N)C4)C(C)(C)C)n3)ccc2CC1C(=O)NC1CCCc2ccccc21)C(C)(C)C

> <Shape>
0.280

> <Color>
0.099

> <Negative vol penalty>
0.000

$$$$

  -OEChem-04052318053D

 87 95  0     1  0  0  0  0  0999 V2000
  -21.2764  -12.2075   20.6034 C   0  0  0  0  0  0  0  0  0  0  0  0
  -21.4681  -13.4540   21.1907 C   0  0  0  0  0  0  0  0  0  0  0  0
  -29.1810  -27.6049   21.3671 C   0  0  0  0  0  0  0  0  0  0  0  0
  -28.0323  -25.7332   20.3600 C   0  0  0  0  0  0  0  0  0  0  0  0
  -22.3770  -11.4282   20.2497 C   0  0  0  0  0  0  0  0  0  0  0  0
  -22.7606  -13.9214   21.4258 C   0  0  0  0  0  0  0  0  0  0  0  0
  -23.3512  -18.7652   20.0718 C   0  0  0  0  0  0  0  0  0  0  0  0
  -30.2420  -26.7679   21.7124 C   0  0  0  0  0  0  0  0  0  0  0  0
  -29.0934  -24.8962   20.7052 C   0  0  0  0  0  0  0  0  0  0  0  0
  -22.8506  -19.7346   20.9398 C   0  0  0  0  0  0  0  0  0  0  0  0
  -30.9337  -24.4807   24.1028 C   0  0  0  0  0  0  0  0  0  0  0  0
  -31.4548  -24.5941   25.3917 C   0  0  0  0  0  0  0  0  0  0  0  0
  -25.0714  -20.0925   21.8111 C   0  0  0  0  0  0  0  0  0  0  0  0
  -33.6136  -25.1643   24.4687 C   0  0  0  0  0  0  0  0  0  0  0  0
  -22.5499  -22.9057   20.9401 C   0  0  0  0  0  0  0  0  0  0  0  0
  -21.1779  -22.6264   22.8099 C   0  0  0  0  0  0  0  0  0  0  0  0
  -28.0760  -27.0875   20.6909 C   0  0  0  0  0  0  0  0  0  0  0  0
  -26.8280  -28.6854   19.1428 C   0  0  0  0  0  0  0  0  0  0  0  0
  -23.6838  -11.8904   20.4717 C   0  0  0  0  0  0  0  0  0  0  0  0
  -24.7162  -18.4440   20.0745 C   0  0  0  0  0  0  0  0  0  0  0  0
  -23.8798  -13.1469   21.0760 C   0  0  0  0  0  0  0  0  0  0  0  0
  -25.5872  -19.1206   20.9404 C   0  0  0  0  0  0  0  0  0  0  0  0
  -30.1983  -25.4136   21.3814 C   0  0  0  0  0  0  0  0  0  0  0  0
  -23.7102  -20.3963   21.8117 C   0  0  0  0  0  0  0  0  0  0  0  0
  -31.7526  -24.7089   22.9969 C   0  0  0  0  0  0  0  0  0  0  0  0
  -22.3356  -22.2725   22.1473 C   0  0  0  0  0  0  0  0  0  1  0  0
  -32.7947  -24.9360   25.5747 C   0  0  0  0  0  0  0  0  0  0  0  0
  -33.0925  -25.0508   23.1799 C   0  0  0  0  0  0  0  0  0  0  0  0
  -26.9794  -27.9514   20.3345 C   0  0  0  0  0  0  0  0  0  0  0  0
  -25.6295  -29.3394   19.2922 C   0  0  0  0  0  0  0  0  0  0  0  0
  -20.6126  -24.0755   21.1523 C   0  0  0  0  0  0  0  0  0  0  0  0
  -27.6933  -28.7684   18.0026 C   0  0  0  0  0  0  0  0  0  0  0  0
  -26.4016  -15.8190   20.6853 C   0  0  0  0  0  0  0  0  0  0  0  0
  -28.8836  -17.6484   19.6774 C   0  0  0  0  0  0  0  0  0  0  0  0
  -30.1755  -20.7712   19.2021 C   0  0  0  0  0  0  0  0  0  0  0  0
  -20.7400  -28.1970   22.5539 C   0  0  0  0  0  0  0  0  0  0  0  0
  -24.8418  -10.9920   20.1159 C   0  0  0  0  0  0  0  0  0  0  0  0
  -25.2449  -17.4149   19.1133 C   0  0  0  0  0  0  0  0  0  0  0  0
  -27.0642  -18.8269   20.9683 C   0  0  0  0  0  0  0  0  0  0  0  0
  -26.1819  -11.7206   20.0559 C   0  0  0  0  0  0  0  0  0  0  0  0
  -22.7404  -31.1406   22.6537 C   0  0  0  0  0  0  0  0  0  0  0  0
  -26.3554  -12.6203   21.2754 C   0  0  0  0  0  0  0  0  0  0  0  0
  -24.0400  -30.7233   21.9631 C   0  0  0  0  0  0  0  0  0  0  0  0
  -22.1543  -30.0036   23.4878 C   0  0  0  0  0  0  0  0  0  0  0  0
  -23.2588  -28.3196   22.0674 C   0  0  0  0  0  0  0  0  0  0  0  0
  -25.2667  -13.6991   21.3244 C   0  0  1  0  0  0  0  0  0  0  0  0
  -26.5683  -16.8026   19.5616 C   0  0  1  0  0  0  0  0  0  0  0  0
  -23.8583  -29.4154   21.1695 C   0  0  2  0  0  0  0  0  0  0  0  0
  -32.2415  -21.9469   18.3980 C   0  0  0  0  0  0  0  0  0  0  0  0
  -20.0938  -25.6753   19.2105 C   0  0  0  0  0  0  0  0  0  0  0  0
  -30.2921  -16.9583   22.2947 C   0  0  0  0  0  0  0  0  0  0  0  0
  -31.8627  -18.8613   21.8703 C   0  0  0  0  0  0  0  0  0  0  0  0
  -31.7715  -16.9430   20.2783 C   0  0  0  0  0  0  0  0  0  0  0  0
  -28.6985  -22.1224   17.0223 C   0  0  0  0  0  0  0  0  0  0  0  0
  -19.4537  -26.3352   21.5347 C   0  0  0  0  0  0  0  0  0  0  0  0
  -29.8560  -18.5918   20.3434 C   0  0  1  0  0  0  0  0  0  0  0  0
  -30.8756  -21.4012   18.0116 C   0  0  2  0  0  0  0  0  0  0  0  0
  -19.6555  -25.0764   20.5997 C   0  0  2  0  0  0  0  0  0  0  0  0
  -30.9175  -17.8429   21.1977 C   0  0  0  0  0  0  0  0  0  0  0  0
  -18.2481  -24.3851   20.3924 C   0  0  0  0  0  0  0  0  0  0  0  0
  -18.1050  -23.1930   19.4682 C   0  0  0  0  0  0  0  0  0  0  0  0
  -21.7062  -23.8157   20.4108 N   0  0  0  0  0  0  0  0  0  0  0  0
  -20.2907  -23.5276   22.3398 N   0  0  0  0  0  0  0  0  0  0  0  0
  -25.9587  -28.1229   21.1788 N   0  0  0  0  0  0  0  0  0  0  0  0
  -25.1546  -28.9721   20.5168 N   0  0  0  0  0  0  0  0  0  0  0  0
  -27.5319  -17.8082   20.0138 N   0  0  0  0  0  0  0  0  0  0  0  0
  -22.0059  -28.7932   22.6761 N   0  0  0  0  0  0  0  0  0  0  0  0
  -24.9462  -30.1872   18.4943 N   0  0  0  0  0  0  0  0  0  0  0  0
  -28.8856  -28.0317   18.0136 N   0  0  0  0  0  0  0  0  0  0  0  0
  -25.5646  -14.7608   20.3871 N   0  0  0  0  0  0  0  0  0  0  0  0
  -30.4187  -19.4161   19.2794 N   0  0  0  0  0  0  0  0  0  0  0  0
  -20.6860  -27.0569   21.7613 N   0  0  0  0  0  0  0  0  0  0  0  0
  -30.0596  -22.5215   17.4641 N   0  3  0  0  0  0  0  0  0  0  0  0
  -27.4253  -29.4878   17.0105 O   0  0  0  0  0  0  0  0  0  0  0  0
  -26.9902  -16.0056   21.7438 O   0  0  0  0  0  0  0  0  0  0  0  0
  -29.3070  -16.8055   18.8825 O   0  0  0  0  0  0  0  0  0  0  0  0
  -29.4851  -21.4172   19.9874 O   0  0  0  0  0  0  0  0  0  0  0  0
  -19.7314  -28.6503   23.1055 O   0  0  0  0  0  0  0  0  0  0  0  0
  -31.2336  -24.5966   21.7179 O   0  0  0  0  0  0  0  0  0  0  0  0
  -23.2241  -21.3425   22.6605 O   0  0  0  0  0  0  0  0  0  1  0  0
  -33.2946  -25.0464   26.8125 F   0  0  0  0  0  0  0  0  0  0  0  0
  -33.8837  -25.2725   22.1213 F   0  0  0  0  0  0  0  0  0  0  0  0
  -17.3686  -25.3319   19.9547 F   0  0  0  0  0  0  0  0  0  0  0  0
  -17.7959  -23.9951   21.6204 F   0  0  0  0  0  0  0  0  0  0  0  0
  -18.8724  -22.1546   19.8558 F   0  0  0  0  0  0  0  0  0  0  0  0
  -16.8299  -22.7633   19.3831 F   0  0  0  0  0  0  0  0  0  0  0  0
  -18.4954  -23.5328   18.2166 F   0  0  0  0  0  0  0  0  0  0  0  0
  1  2  1  0  0  0  0
  1  5  2  0  0  0  0
  2  6  2  0  0  0  0
  3  8  2  0  0  0  0
  3 17  1  0  0  0  0
  4  9  1  0  0  0  0
  4 17  2  0  0  0  0
  5 19  1  0  0  0  0
  6 21  1  0  0  0  0
  7 10  2  0  0  0  0
  7 20  1  0  0  0  0
  8 23  1  0  0  0  0
  9 23  2  0  0  0  0
 10 24  1  0  0  0  0
 11 12  2  0  0  0  0
 11 25  1  0  0  0  0
 12 27  1  0  0  0  0
 13 22  1  0  0  0  0
 13 24  2  0  0  0  0
 14 27  2  0  0  0  0
 14 28  1  0  0  0  0
 15 26  1  0  0  0  0
 15 62  2  0  0  0  0
 16 26  2  0  0  0  0
 16 63  1  0  0  0  0
 17 29  1  0  0  0  0
 18 29  1  0  0  0  0
 18 30  2  0  0  0  0
 18 32  1  0  0  0  0
 19 21  2  0  0  0  0
 19 37  1  0  0  0  0
 20 22  2  0  0  0  0
 20 38  1  0  0  0  0
 21 46  1  0  0  0  0
 22 39  1  0  0  0  0
 23 79  1  0  0  0  0
 24 80  1  0  0  0  0
 25 28  2  0  0  0  0
 25 79  1  0  0  0  0
 26 80  1  0  0  0  0
 27 81  1  0  0  0  0
 28 82  1  0  0  0  0
 29 64  2  0  0  0  0
 30 65  1  0  0  0  0
 30 68  1  0  0  0  0
 31 58  1  0  0  0  0
 31 62  1  0  0  0  0
 31 63  2  0  0  0  0
 32 69  1  0  0  0  0
 32 74  2  0  0  0  0
 33 47  1  0  0  0  0
 33 70  1  0  0  0  0
 33 75  2  0  0  0  0
 34 56  1  0  0  0  0
 34 66  1  0  0  0  0
 34 76  2  0  0  0  0
 35 57  1  0  0  0  0
 35 71  1  0  0  0  0
 35 77  2  0  0  0  0
 36 67  1  0  0  0  0
 36 72  1  0  0  0  0
 36 78  2  0  0  0  0
 37 40  1  0  0  0  0
 38 47  1  0  0  0  0
 39 66  1  0  0  0  0
 40 42  1  0  0  0  0
 41 43  1  0  0  0  0
 41 44  1  0  0  0  0
 42 46  1  0  0  0  0
 43 48  1  0  0  0  0
 44 67  1  0  0  0  0
 45 48  1  0  0  0  0
 45 67  1  0  0  0  0
 46 70  1  0  0  0  0
 47 66  1  0  0  0  0
 48 65  1  0  0  0  0
 49 57  1  0  0  0  0
 50 58  1  0  0  0  0
 51 59  1  0  0  0  0
 52 59  1  0  0  0  0
 53 59  1  0  0  0  0
 54 73  1  0  0  0  0
 55 58  1  0  0  0  0
 55 72  1  0  0  0  0
 56 59  1  0  0  0  0
 56 71  1  0  0  0  0
 57 73  1  0  0  0  0
 58 60  1  0  0  0  0
 60 61  1  0  0  0  0
 60 83  1  0  0  0  0
 60 84  1  0  0  0  0
 61 85  1  0  0  0  0
 61 86  1  0  0  0  0
 61 87  1  0  0  0  0
 64 65  1  0  0  0  0
M  CHG  1  73   1
M  ISO  4  26 101  36 100  72 100  80 101
M  END
> <Batch ID>
0064

> <Smiles>
CNC(C)C(=O)NC(C(=O)N1Cc2cc([101O:1][101c:1]3cnc(C(C)(C[100NH:0][100C:0](=O)N4CCCC(n5nc(-c6ccc(Oc7ccc(F)cc7F)cc6)c(C(N)=O)c5N)C4)C(F)(F)C(F)(F)F)nc3)ccc2CC1C(=O)NC1CCCc2ccccc21)C(C)(C)C

> <Shape>
0.222

> <Color>
0.056

> <Negative vol penalty>
0.000

$$$$

  -OEChem-04052318053D

 87 95  0     1  0  0  0  0  0999 V2000
  -15.9811  -29.4703   24.1397 C   0  0  0  0  0  0  0  0  0  0  0  0
  -16.6942  -28.7111   23.2174 C   0  0  0  0  0  0  0  0  0  0  0  0
  -23.1441  -12.8241   20.1082 C   0  0  0  0  0  0  0  0  0  0  0  0
  -24.6004  -12.5637   22.0183 C   0  0  0  0  0  0  0  0  0  0  0  0
  -16.6139  -30.5054   24.8267 C   0  0  0  0  0  0  0  0  0  0  0  0
  -18.0404  -28.9873   22.9810 C   0  0  0  0  0  0  0  0  0  0  0  0
  -22.4534  -24.9466   21.6757 C   0  0  0  0  0  0  0  0  0  0  0  0
  -22.8366  -11.4645   20.1573 C   0  0  0  0  0  0  0  0  0  0  0  0
  -24.2929  -11.2041   22.0674 C   0  0  0  0  0  0  0  0  0  0  0  0
  -23.0353  -24.5490   20.4727 C   0  0  0  0  0  0  0  0  0  0  0  0
  -21.7562   -9.2641   23.1732 C   0  0  0  0  0  0  0  0  0  0  0  0
  -21.4694   -8.7108   24.4210 C   0  0  0  0  0  0  0  0  0  0  0  0
  -24.8307  -26.1203   20.8288 C   0  0  0  0  0  0  0  0  0  0  0  0
  -23.3239   -7.1828   24.1698 C   0  0  0  0  0  0  0  0  0  0  0  0
  -28.2206  -23.2092   17.6107 C   0  0  0  0  0  0  0  0  0  0  0  0
  -24.0261  -13.3737   21.0387 C   0  0  0  0  0  0  0  0  0  0  0  0
  -23.6720  -15.8264   21.6442 C   0  0  0  0  0  0  0  0  0  0  0  0
  -17.9710  -30.7882   24.6057 C   0  0  0  0  0  0  0  0  0  0  0  0
  -23.0511  -25.9434   22.4602 C   0  0  0  0  0  0  0  0  0  0  0  0
  -18.6916  -30.0280   23.6648 C   0  0  0  0  0  0  0  0  0  0  0  0
  -24.2558  -26.5269   22.0426 C   0  0  0  0  0  0  0  0  0  0  0  0
  -23.4109  -10.6544   21.1369 C   0  0  0  0  0  0  0  0  0  0  0  0
  -24.2226  -25.1380   20.0476 C   0  0  0  0  0  0  0  0  0  0  0  0
  -22.8269   -8.7768   22.4236 C   0  0  0  0  0  0  0  0  0  0  0  0
  -22.2532   -7.6702   24.9193 C   0  0  0  0  0  0  0  0  0  0  0  0
  -23.6108   -7.7362   22.9219 C   0  0  0  0  0  0  0  0  0  0  0  0
  -24.3446  -14.7780   20.9882 C   0  0  0  0  0  0  0  0  0  0  0  0
  -29.3801  -23.2258   18.3589 C   0  0  0  0  0  0  0  0  0  0  0  0
  -27.0579  -22.9769   18.3166 C   0  0  0  0  0  0  0  0  0  0  0  0
  -24.3582  -16.9579   21.2763 C   0  0  0  0  0  0  0  0  0  0  0  0
  -28.2145  -22.8154   20.2668 C   0  0  0  0  0  0  0  0  0  0  0  0
  -22.5291  -15.7815   22.5088 C   0  0  0  0  0  0  0  0  0  0  0  0
  -22.1819  -28.8325   23.4609 C   0  0  0  0  0  0  0  0  0  0  0  0
  -24.9492  -28.6549   25.1440 C   0  0  0  0  0  0  0  0  0  0  0  0
  -28.0639  -27.2973   25.4634 C   0  0  0  0  0  0  0  0  0  0  0  0
  -29.1557  -19.6711   20.4000 C   0  0  0  0  0  0  0  0  0  0  0  0
  -18.5996  -31.9474   25.3375 C   0  0  0  0  0  0  0  0  0  0  0  0
  -22.4250  -26.3421   23.7684 C   0  0  0  0  0  0  0  0  0  0  0  0
  -24.9481  -27.5870   22.8582 C   0  0  0  0  0  0  0  0  0  0  0  0
  -20.1257  -31.9337   25.3038 C   0  0  0  0  0  0  0  0  0  0  0  0
  -27.9130  -17.6504   17.7450 C   0  0  0  0  0  0  0  0  0  0  0  0
  -20.6260  -31.6569   23.8896 C   0  0  0  0  0  0  0  0  0  0  0  0
  -26.8233  -16.8056   18.4075 C   0  0  0  0  0  0  0  0  0  0  0  0
  -29.0940  -17.8854   18.6842 C   0  0  0  0  0  0  0  0  0  0  0  0
  -27.6474  -17.6086   20.6602 C   0  0  0  0  0  0  0  0  0  0  0  0
  -20.1598  -30.2809   23.3989 C   0  0  1  0  0  0  0  0  0  0  0  0
  -22.8492  -27.7312   24.2352 C   0  0  1  0  0  0  0  0  0  0  0  0
  -26.4109  -17.3916   19.7712 C   0  0  2  0  0  0  0  0  0  0  0  0
  -30.6877  -23.4702   17.6832 C   0  0  0  0  0  0  0  0  0  0  0  0
  -30.2882  -26.7934   26.5104 C   0  0  0  0  0  0  0  0  0  0  0  0
  -26.7913  -22.3514   22.3706 C   0  0  0  0  0  0  0  0  0  0  0  0
  -25.7343  -31.3257   23.8949 C   0  0  0  0  0  0  0  0  0  0  0  0
  -28.0938  -30.8862   24.6077 C   0  0  0  0  0  0  0  0  0  0  0  0
  -26.2949  -31.1044   26.3220 C   0  0  0  0  0  0  0  0  0  0  0  0
  -26.9680  -24.9901   26.9584 C   0  0  0  0  0  0  0  0  0  0  0  0
  -25.7382  -22.9421   17.5848 C   0  0  0  0  0  0  0  0  0  0  0  0
  -29.0971  -21.3818   22.1970 C   0  0  0  0  0  0  0  0  0  0  0  0
  -24.5777  -23.4035   18.4597 C   0  0  0  0  0  0  0  0  0  1  0  0
  -26.3873  -29.0301   24.8796 C   0  0  1  0  0  0  0  0  0  0  0  0
  -28.7782  -26.6841   26.6544 C   0  0  2  0  0  0  0  0  0  0  0  0
  -28.2099  -22.6003   21.7425 C   0  0  1  0  0  0  0  0  0  0  0  0
  -26.6138  -30.5680   24.9095 C   0  0  0  0  0  0  0  0  0  0  0  0
  -28.7667  -23.8591   22.4782 C   0  0  0  0  0  0  0  0  0  0  0  0
  -25.3786  -15.2055   20.2588 N   0  0  0  0  0  0  0  0  0  0  0  0
  -29.4137  -23.0320   19.6937 N   0  0  0  0  0  0  0  0  0  0  0  0
  -27.0180  -22.7750   19.6500 N   0  0  0  0  0  0  0  0  0  0  0  0
  -25.3608  -16.5350   20.4541 N   0  0  0  0  0  0  0  0  0  0  0  0
  -24.2934  -27.9473   24.1267 N   0  0  0  0  0  0  0  0  0  0  0  0
  -28.6351  -18.4434   19.9586 N   0  0  0  0  0  0  0  0  0  0  0  0
  -24.1956  -18.2634   21.5791 N   0  0  0  0  0  0  0  0  0  0  0  0
  -21.9467  -14.5363   22.7821 N   0  0  0  0  0  0  0  0  0  0  0  0
  -20.9686  -29.2343   23.9861 N   0  0  0  0  0  0  0  0  0  0  0  0
  -27.1873  -28.2893   25.8490 N   0  0  0  0  0  0  0  0  0  0  0  0
  -28.6626  -20.1316   21.6147 N   0  0  0  0  0  0  0  0  0  0  0  0
  -28.4218  -25.2431   26.7865 N   0  3  0  0  0  0  0  0  0  0  0  0
  -22.0289  -16.8166   23.0106 O   0  0  0  0  0  0  0  0  0  0  0  0
  -22.7282  -29.2854   22.4618 O   0  0  0  0  0  0  0  0  0  0  0  0
  -24.4291  -28.9716   26.2168 O   0  0  0  0  0  0  0  0  0  0  0  0
  -28.2663  -26.9351   24.3065 O   0  0  0  0  0  0  0  0  0  0  0  0
  -29.9936  -20.3121   19.7565 O   0  0  0  0  0  0  0  0  0  0  0  0
  -23.1109   -9.3277   21.1852 O   0  0  0  0  0  0  0  0  0  0  0  0
  -24.7923  -24.7522   18.8735 O   0  0  0  0  0  0  0  0  0  1  0  0
  -21.9786   -7.1399   26.1183 F   0  0  0  0  0  0  0  0  0  0  0  0
  -24.6414   -7.2646   22.2069 F   0  0  0  0  0  0  0  0  0  0  0  0
  -28.0081  -24.9446   22.2016 F   0  0  0  0  0  0  0  0  0  0  0  0
  -30.0315  -24.1391   22.0940 F   0  0  0  0  0  0  0  0  0  0  0  0
  -28.7859  -23.7176   23.8247 F   0  0  0  0  0  0  0  0  0  0  0  0
  1  2  1  0  0  0  0
  1  5  2  0  0  0  0
  2  6  2  0  0  0  0
  3  8  2  0  0  0  0
  3 16  1  0  0  0  0
  4  9  1  0  0  0  0
  4 16  2  0  0  0  0
  5 18  1  0  0  0  0
  6 20  1  0  0  0  0
  7 10  2  0  0  0  0
  7 19  1  0  0  0  0
  8 22  1  0  0  0  0
  9 22  2  0  0  0  0
 10 23  1  0  0  0  0
 11 12  2  0  0  0  0
 11 24  1  0  0  0  0
 12 25  1  0  0  0  0
 13 21  1  0  0  0  0
 13 23  2  0  0  0  0
 14 25  2  0  0  0  0
 14 26  1  0  0  0  0
 15 28  2  0  0  0  0
 15 29  1  0  0  0  0
 16 27  1  0  0  0  0
 17 27  1  0  0  0  0
 17 30  2  0  0  0  0
 17 32  1  0  0  0  0
 18 20  2  0  0  0  0
 18 37  1  0  0  0  0
 19 21  2  0  0  0  0
 19 38  1  0  0  0  0
 20 46  1  0  0  0  0
 21 39  1  0  0  0  0
 22 81  1  0  0  0  0
 23 82  1  0  0  0  0
 24 26  2  0  0  0  0
 24 81  1  0  0  0  0
 25 83  1  0  0  0  0
 26 84  1  0  0  0  0
 27 64  2  0  0  0  0
 28 49  1  0  0  0  0
 28 65  1  0  0  0  0
 29 56  1  0  0  0  0
 29 66  2  0  0  0  0
 30 67  1  0  0  0  0
 30 70  1  0  0  0  0
 31 61  1  0  0  0  0
 31 65  2  0  0  0  0
 31 66  1  0  0  0  0
 32 71  1  0  0  0  0
 32 76  2  0  0  0  0
 33 47  1  0  0  0  0
 33 72  1  0  0  0  0
 33 77  2  0  0  0  0
 34 59  1  0  0  0  0
 34 68  1  0  0  0  0
 34 78  2  0  0  0  0
 35 60  1  0  0  0  0
 35 73  1  0  0  0  0
 35 79  2  0  0  0  0
 36 69  1  0  0  0  0
 36 74  1  0  0  0  0
 36 80  2  0  0  0  0
 37 40  1  0  0  0  0
 38 47  1  0  0  0  0
 39 68  1  0  0  0  0
 40 42  1  0  0  0  0
 41 43  1  0  0  0  0
 41 44  1  0  0  0  0
 42 46  1  0  0  0  0
 43 48  1  0  0  0  0
 44 69  1  0  0  0  0
 45 48  1  0  0  0  0
 45 69  1  0  0  0  0
 46 72  1  0  0  0  0
 47 68  1  0  0  0  0
 48 67  1  0  0  0  0
 50 60  1  0  0  0  0
 51 61  1  0  0  0  0
 52 62  1  0  0  0  0
 53 62  1  0  0  0  0
 54 62  1  0  0  0  0
 55 75  1  0  0  0  0
 56 58  1  0  0  0  0
 57 61  1  0  0  0  0
 57 74  1  0  0  0  0
 58 82  1  0  0  0  0
 59 62  1  0  0  0  0
 59 73  1  0  0  0  0
 60 75  1  0  0  0  0
 61 63  1  0  0  0  0
 63 85  1  0  0  0  0
 63 86  1  0  0  0  0
 63 87  1  0  0  0  0
 64 67  1  0  0  0  0
M  CHG  1  75   1
M  ISO  4  36 100  58 101  74 100  82 101
M  END
> <Batch ID>
0064

> <Smiles>
CNC(C)C(=O)NC(C(=O)N1Cc2cc([101O:1][101CH2:1]Cc3cc(C)nc(C(C)(C[100NH:0][100C:0](=O)N4CCCC(n5nc(-c6ccc(Oc7ccc(F)cc7F)cc6)c(C(N)=O)c5N)C4)C(F)(F)F)n3)ccc2CC1C(=O)NC1CCCc2ccccc21)C(C)(C)C

> <Shape>
0.235

> <Color>
0.068

> <Negative vol penalty>
0.000

$$$$

  -OEChem-04052318053D

 90 98  0     1  0  0  0  0  0999 V2000
  -24.8065  -29.1518   23.7418 C   0  0  0  0  0  0  0  0  0  0  0  0
  -24.7079  -27.7665   23.8230 C   0  0  0  0  0  0  0  0  0  0  0  0
  -20.9047  -23.0933   23.9366 C   0  0  0  0  0  0  0  0  0  0  0  0
  -22.0783  -22.6720   21.8673 C   0  0  0  0  0  0  0  0  0  0  0  0
  -25.3370  -29.7458   22.5974 C   0  0  0  0  0  0  0  0  0  0  0  0
  -25.1388  -26.9744   22.7593 C   0  0  0  0  0  0  0  0  0  0  0  0
  -27.7649  -21.4529   23.1086 C   0  0  0  0  0  0  0  0  0  0  0  0
  -20.8469  -24.4521   23.6273 C   0  0  0  0  0  0  0  0  0  0  0  0
  -22.0205  -24.0309   21.5579 C   0  0  0  0  0  0  0  0  0  0  0  0
  -27.2579  -20.1622   22.9637 C   0  0  0  0  0  0  0  0  0  0  0  0
  -19.0037  -26.4796   21.6461 C   0  0  0  0  0  0  0  0  0  0  0  0
  -17.7895  -27.1377   21.8413 C   0  0  0  0  0  0  0  0  0  0  0  0
  -27.9630  -20.1508   20.6567 C   0  0  0  0  0  0  0  0  0  0  0  0
  -18.8548  -28.6387   23.4064 C   0  0  0  0  0  0  0  0  0  0  0  0
  -21.5204  -22.2032   23.0567 C   0  0  0  0  0  0  0  0  0  0  0  0
  -20.6369  -19.8101   23.0417 C   0  0  0  0  0  0  0  0  0  0  0  0
  -25.7835  -28.9603   21.5231 C   0  0  0  0  0  0  0  0  0  0  0  0
  -28.3660  -22.1074   22.0238 C   0  0  0  0  0  0  0  0  0  0  0  0
  -25.6745  -27.5586   21.5990 C   0  0  0  0  0  0  0  0  0  0  0  0
  -28.4791  -21.4487   20.7912 C   0  0  0  0  0  0  0  0  0  0  0  0
  -21.4047  -24.9210   22.4379 C   0  0  0  0  0  0  0  0  0  0  0  0
  -27.3544  -19.5121   21.7368 C   0  0  0  0  0  0  0  0  0  0  0  0
  -20.1434  -26.9009   22.3311 C   0  0  0  0  0  0  0  0  0  0  0  0
  -17.7150  -28.2173   22.7215 C   0  0  0  0  0  0  0  0  0  0  0  0
  -20.0690  -27.9804   23.2112 C   0  0  0  0  0  0  0  0  0  0  0  0
  -21.5810  -20.7994   23.3760 C   0  0  0  0  0  0  0  0  0  0  0  0
  -21.1524  -18.6514   23.5690 C   0  0  0  0  0  0  0  0  0  0  0  0
  -25.0991  -14.6316   20.5010 C   0  0  0  0  0  0  0  0  0  0  0  0
  -26.3657  -16.2831   20.3427 C   0  0  0  0  0  0  0  0  0  0  0  0
  -19.4041  -19.9280   22.3191 C   0  0  0  0  0  0  0  0  0  0  0  0
  -27.7424  -24.7520   20.3743 C   0  0  0  0  0  0  0  0  0  0  0  0
  -30.5754  -24.0656   18.9510 C   0  0  0  0  0  0  0  0  0  0  0  0
  -32.9099  -21.7164   18.1275 C   0  0  0  0  0  0  0  0  0  0  0  0
  -25.4500  -15.2098   24.4810 C   0  0  0  0  0  0  0  0  0  0  0  0
  -26.3060  -29.6496   20.2876 C   0  0  0  0  0  0  0  0  0  0  0  0
  -28.9319  -23.4894   22.2038 C   0  0  0  0  0  0  0  0  0  0  0  0
  -29.1335  -22.0999   19.6012 C   0  0  0  0  0  0  0  0  0  0  0  0
  -27.0860  -28.7240   19.3575 C   0  0  0  0  0  0  0  0  0  0  0  0
  -25.0131  -17.9158   26.7534 C   0  0  0  0  0  0  0  0  0  0  0  0
  -26.3307  -27.4150   19.1506 C   0  0  0  0  0  0  0  0  0  0  0  0
  -24.0087  -18.8280   26.0471 C   0  0  0  0  0  0  0  0  0  0  0  0
  -25.9756  -17.2629   25.7637 C   0  0  0  0  0  0  0  0  0  0  0  0
  -24.3222  -17.4545   23.9462 C   0  0  0  0  0  0  0  0  0  0  0  0
  -26.1541  -26.6645   20.4761 C   0  0  1  0  0  0  0  0  0  0  0  0
  -29.0632  -24.2567   20.8918 C   0  0  1  0  0  0  0  0  0  0  0  0
  -23.2949  -18.0921   24.8972 C   0  0  2  0  0  0  0  0  0  0  0  0
  -23.3633  -13.1857   19.3995 C   0  0  0  0  0  0  0  0  0  0  0  0
  -35.0992  -21.4500   16.9304 C   0  0  0  0  0  0  0  0  0  0  0  0
  -29.1281  -24.2394   16.2705 C   0  0  0  0  0  0  0  0  0  0  0  0
  -31.0718  -23.0588   15.2235 C   0  0  0  0  0  0  0  0  0  0  0  0
  -31.3996  -25.2854   16.2994 C   0  0  0  0  0  0  0  0  0  0  0  0
  -22.4771  -12.6003   22.5363 C   0  0  0  0  0  0  0  0  0  0  0  0
  -29.3260  -15.5542   20.8798 C   0  0  0  0  0  0  0  0  0  0  0  0
  -28.7477  -15.7558   18.4294 C   0  0  0  0  0  0  0  0  0  0  0  0
  -28.8886  -13.5257   19.5137 C   0  0  0  0  0  0  0  0  0  0  0  0
  -34.2720  -20.7839   20.5840 C   0  0  0  0  0  0  0  0  0  0  0  0
  -26.9925  -17.6459   20.3077 C   0  0  0  0  0  0  0  0  0  1  0  0
  -24.8090  -13.2384   23.1166 C   0  0  0  0  0  0  0  0  0  0  0  0
  -23.8812  -13.8424   20.7199 C   0  0  1  0  0  0  0  0  0  0  0  0
  -31.0000  -23.2542   17.7509 C   0  0  1  0  0  0  0  0  0  0  0  0
  -34.4214  -21.7061   18.2675 C   0  0  2  0  0  0  0  0  0  0  0  0
  -30.6358  -23.9476   16.4078 C   0  0  0  0  0  0  0  0  0  0  0  0
  -23.8902  -12.7892   21.9396 C   0  0  2  0  0  0  0  0  0  0  0  0
  -28.4479  -14.9932   19.7392 C   0  0  0  0  0  0  0  0  0  0  0  0
  -24.3739  -11.4078   21.4417 C   0  0  0  0  0  0  0  0  0  0  0  0
  -22.6177  -20.3119   24.0626 N   0  0  0  0  0  0  0  0  0  0  0  0
  -25.1148  -15.9922   20.6147 N   0  0  0  0  0  0  0  0  0  0  0  0
  -26.2616  -14.0622   20.1758 N   0  0  0  0  0  0  0  0  0  0  0  0
  -22.3280  -19.0035   24.1642 N   0  0  0  0  0  0  0  0  0  0  0  0
  -27.0548  -15.1402   20.0805 N   0  0  0  0  0  0  0  0  0  0  0  0
  -29.6658  -23.4541   19.8255 N   0  0  0  0  0  0  0  0  0  0  0  0
  -25.2353  -16.5807   24.6995 N   0  0  0  0  0  0  0  0  0  0  0  0
  -20.7103  -17.3759   23.5770 N   0  0  0  0  0  0  0  0  0  0  0  0
  -19.0245  -21.1920   21.8473 N   0  0  0  0  0  0  0  0  0  0  0  0
  -27.3845  -25.9997   20.8483 N   0  0  0  0  0  0  0  0  0  0  0  0
  -32.4248  -22.9903   17.9200 N   0  0  0  0  0  0  0  0  0  0  0  0
  -24.7033  -14.6397   23.4573 N   0  0  0  0  0  0  0  0  0  0  0  0
  -34.8461  -20.6425   19.2211 N   0  3  0  0  0  0  0  0  0  0  0  0
  -18.6533  -18.9446   22.1125 O   0  0  0  0  0  0  0  0  0  0  0  0
  -27.0965  -24.0545   19.6009 O   0  0  0  0  0  0  0  0  0  0  0  0
  -31.0393  -25.1974   19.1107 O   0  0  0  0  0  0  0  0  0  0  0  0
  -32.2280  -20.6959   18.1919 O   0  0  0  0  0  0  0  0  0  0  0  0
  -26.2441  -14.5422   25.1523 O   0  0  0  0  0  0  0  0  0  0  0  0
  -21.3483  -26.2468   22.1356 O   0  0  0  0  0  0  0  0  0  0  0  0
  -26.8598  -18.2525   21.5925 O   0  0  0  0  0  0  0  0  0  1  0  0
  -16.5493  -28.8503   22.9077 F   0  0  0  0  0  0  0  0  0  0  0  0
  -21.1608  -28.3905   23.8712 F   0  0  0  0  0  0  0  0  0  0  0  0
  -23.5529  -10.9005   20.4958 F   0  0  0  0  0  0  0  0  0  0  0  0
  -24.4463  -10.5025   22.4424 F   0  0  0  0  0  0  0  0  0  0  0  0
  -25.6117  -11.4880   20.8988 F   0  0  0  0  0  0  0  0  0  0  0  0
  1  2  1  0  0  0  0
  1  5  2  0  0  0  0
  2  6  2  0  0  0  0
  3  8  2  0  0  0  0
  3 15  1  0  0  0  0
  4  9  1  0  0  0  0
  4 15  2  0  0  0  0
  5 17  1  0  0  0  0
  6 19  1  0  0  0  0
  7 10  2  0  0  0  0
  7 18  1  0  0  0  0
  8 21  1  0  0  0  0
  9 21  2  0  0  0  0
 10 22  1  0  0  0  0
 11 12  2  0  0  0  0
 11 23  1  0  0  0  0
 12 24  1  0  0  0  0
 13 20  1  0  0  0  0
 13 22  2  0  0  0  0
 14 24  2  0  0  0  0
 14 25  1  0  0  0  0
 15 26  1  0  0  0  0
 16 26  1  0  0  0  0
 16 27  2  0  0  0  0
 16 30  1  0  0  0  0
 17 19  2  0  0  0  0
 17 35  1  0  0  0  0
 18 20  2  0  0  0  0
 18 36  1  0  0  0  0
 19 44  1  0  0  0  0
 20 37  1  0  0  0  0
 21 84  1  0  0  0  0
 22 85  1  0  0  0  0
 23 25  2  0  0  0  0
 23 84  1  0  0  0  0
 24 86  1  0  0  0  0
 25 87  1  0  0  0  0
 26 66  2  0  0  0  0
 27 69  1  0  0  0  0
 27 73  1  0  0  0  0
 28 59  1  0  0  0  0
 28 67  1  0  0  0  0
 28 68  2  0  0  0  0
 29 57  1  0  0  0  0
 29 67  2  0  0  0  0
 29 70  1  0  0  0  0
 30 74  1  0  0  0  0
 30 79  2  0  0  0  0
 31 45  1  0  0  0  0
 31 75  1  0  0  0  0
 31 80  2  0  0  0  0
 32 60  1  0  0  0  0
 32 71  1  0  0  0  0
 32 81  2  0  0  0  0
 33 61  1  0  0  0  0
 33 76  1  0  0  0  0
 33 82  2  0  0  0  0
 34 72  1  0  0  0  0
 34 77  1  0  0  0  0
 34 83  2  0  0  0  0
 35 38  1  0  0  0  0
 36 45  1  0  0  0  0
 37 71  1  0  0  0  0
 38 40  1  0  0  0  0
 39 41  1  0  0  0  0
 39 42  1  0  0  0  0
 40 44  1  0  0  0  0
 41 46  1  0  0  0  0
 42 72  1  0  0  0  0
 43 46  1  0  0  0  0
 43 72  1  0  0  0  0
 44 75  1  0  0  0  0
 45 71  1  0  0  0  0
 46 69  1  0  0  0  0
 47 59  1  0  0  0  0
 48 61  1  0  0  0  0
 49 62  1  0  0  0  0
 50 62  1  0  0  0  0
 51 62  1  0  0  0  0
 52 63  1  0  0  0  0
 53 64  1  0  0  0  0
 54 64  1  0  0  0  0
 55 64  1  0  0  0  0
 56 78  1  0  0  0  0
 57 85  1  0  0  0  0
 58 63  1  0  0  0  0
 58 77  1  0  0  0  0
 59 63  1  0  0  0  0
 60 62  1  0  0  0  0
 60 76  1  0  0  0  0
 61 78  1  0  0  0  0
 63 65  1  0  0  0  0
 64 70  1  0  0  0  0
 65 88  1  0  0  0  0
 65 89  1  0  0  0  0
 65 90  1  0  0  0  0
 66 69  1  0  0  0  0
 68 70  1  0  0  0  0
M  CHG  1  78   1
M  ISO  4  34 100  57 101  77 100  85 101
M  END
> <Batch ID>
0064

> <Smiles>
CNC(C)C(=O)NC(C(=O)N1Cc2cc([101O:1][101CH2:1]c3nc(C(C)C(C)(C[100NH:0][100C:0](=O)N4CCCC(n5nc(-c6ccc(Oc7ccc(F)cc7F)cc6)c(C(N)=O)c5N)C4)C(F)(F)F)nn3C(C)(C)C)ccc2CC1C(=O)NC1CCCc2ccccc21)C(C)(C)C

> <Shape>
0.224

> <Color>
0.056

> <Negative vol penalty>
0.000

$$$$

  -OEChem-04052318053D

 89 97  0     1  0  0  0  0  0999 V2000
  -34.7633  -12.7507   20.8294 C   0  0  0  0  0  0  0  0  0  0  0  0
  -34.0503  -13.9365   20.9742 C   0  0  0  0  0  0  0  0  0  0  0  0
  -26.8856  -32.7445   23.6136 C   0  0  0  0  0  0  0  0  0  0  0  0
  -26.2496  -32.6863   21.2835 C   0  0  0  0  0  0  0  0  0  0  0  0
  -34.2349  -11.7095   20.0674 C   0  0  0  0  0  0  0  0  0  0  0  0
  -32.8089  -14.0822   20.3561 C   0  0  0  0  0  0  0  0  0  0  0  0
  -27.9707  -17.1681   22.4951 C   0  0  0  0  0  0  0  0  0  0  0  0
  -26.9151  -34.1383   23.5708 C   0  0  0  0  0  0  0  0  0  0  0  0
  -26.2790  -34.0802   21.2407 C   0  0  0  0  0  0  0  0  0  0  0  0
  -27.4813  -18.4463   22.2295 C   0  0  0  0  0  0  0  0  0  0  0  0
  -26.8063  -37.7221   24.1708 C   0  0  0  0  0  0  0  0  0  0  0  0
  -26.2090  -38.4160   25.2231 C   0  0  0  0  0  0  0  0  0  0  0  0
  -25.9464  -17.5170   20.6172 C   0  0  0  0  0  0  0  0  0  0  0  0
  -24.0904  -37.3759   24.7064 C   0  0  0  0  0  0  0  0  0  0  0  0
  -26.5529  -32.0184   22.4699 C   0  0  0  0  0  0  0  0  0  0  0  0
  -25.4228  -29.7605   22.8338 C   0  0  0  0  0  0  0  0  0  0  0  0
  -32.9820  -11.8389   19.4476 C   0  0  0  0  0  0  0  0  0  0  0  0
  -27.4584  -16.0542   21.8146 C   0  0  0  0  0  0  0  0  0  0  0  0
  -32.2638  -13.0422   19.5840 C   0  0  0  0  0  0  0  0  0  0  0  0
  -26.4293  -16.2254   20.8777 C   0  0  0  0  0  0  0  0  0  0  0  0
  -26.6118  -34.8062   22.3844 C   0  0  0  0  0  0  0  0  0  0  0  0
  -26.4710  -18.6212   21.2884 C   0  0  0  0  0  0  0  0  0  0  0  0
  -26.0456  -36.8551   23.3862 C   0  0  0  0  0  0  0  0  0  0  0  0
  -24.8511  -38.2429   25.4909 C   0  0  0  0  0  0  0  0  0  0  0  0
  -24.6877  -36.6821   23.6540 C   0  0  0  0  0  0  0  0  0  0  0  0
  -26.5228  -30.5785   22.5133 C   0  0  0  0  0  0  0  0  0  0  0  0
  -25.9069  -28.4791   22.7328 C   0  0  0  0  0  0  0  0  0  0  0  0
  -28.9978  -23.5844   18.0079 C   0  0  0  0  0  0  0  0  0  0  0  0
  -29.9069  -22.0523   19.0956 C   0  0  0  0  0  0  0  0  0  0  0  0
  -24.0833  -30.1262   23.1908 C   0  0  0  0  0  0  0  0  0  0  0  0
  -28.6733  -13.8743   19.8459 C   0  0  0  0  0  0  0  0  0  0  0  0
  -25.7314  -12.5388   20.1360 C   0  0  0  0  0  0  0  0  0  0  0  0
  -22.4171  -12.9545   20.8356 C   0  0  0  0  0  0  0  0  0  0  0  0
  -30.4279  -26.0604   19.6406 C   0  0  0  0  0  0  0  0  0  0  0  0
  -32.4733  -10.7037   18.5949 C   0  0  0  0  0  0  0  0  0  0  0  0
  -27.9786  -14.6790   22.1319 C   0  0  0  0  0  0  0  0  0  0  0  0
  -25.8312  -15.0598   20.1347 C   0  0  0  0  0  0  0  0  0  0  0  0
  -30.9823  -10.7983   18.2812 C   0  0  0  0  0  0  0  0  0  0  0  0
  -29.9504  -25.9588   23.1674 C   0  0  0  0  0  0  0  0  0  0  0  0
  -30.6188  -12.2117   17.8376 C   0  0  0  0  0  0  0  0  0  0  0  0
  -28.9186  -27.0574   23.4286 C   0  0  0  0  0  0  0  0  0  0  0  0
  -30.9182  -26.3472   22.0518 C   0  0  0  0  0  0  0  0  0  0  0  0
  -29.2437  -27.8520   21.0492 C   0  0  0  0  0  0  0  0  0  0  0  0
  -30.9028  -13.2290   18.9493 C   0  0  1  0  0  0  0  0  0  0  0  0
  -27.7407  -13.6760   21.0072 C   0  0  1  0  0  0  0  0  0  0  0  0
  -28.2111  -27.4829   22.1280 C   0  0  2  0  0  0  0  0  0  0  0  0
  -30.8166  -21.0474   19.6744 C   0  0  0  0  0  0  0  0  0  0  0  0
  -20.2545  -11.6871   20.9528 C   0  0  0  0  0  0  0  0  0  0  0  0
  -27.4926  -22.3502   21.7233 C   0  0  0  0  0  0  0  0  0  0  0  0
  -27.3858  -25.3324   17.0015 C   0  0  0  0  0  0  0  0  0  0  0  0
  -25.5656  -12.5448   17.0893 C   0  0  0  0  0  0  0  0  0  0  0  0
  -23.0968  -12.1815   17.2925 C   0  0  0  0  0  0  0  0  0  0  0  0
  -24.6842  -10.4730   18.1780 C   0  0  0  0  0  0  0  0  0  0  0  0
  -25.5748  -21.5282   19.3721 C   0  0  0  0  0  0  0  0  0  0  0  0
  -27.0836  -19.6009   18.9180 C   0  0  0  0  0  0  0  0  0  0  0  0
  -22.0898  -13.5505   23.7160 C   0  0  0  0  0  0  0  0  0  0  0  0
  -29.8196  -25.8859   17.2409 C   0  0  0  0  0  0  0  0  0  0  0  0
  -24.4201  -12.6706   19.3997 C   0  0  1  0  0  0  0  0  0  0  0  0
  -21.4700  -12.1721   21.7274 C   0  0  2  0  0  0  0  0  0  0  0  0
  -27.8523  -21.4159   20.5552 C   0  0  1  0  0  0  0  0  0  0  0  0
  -28.8223  -24.6722   17.0384 C   0  0  1  0  0  0  0  0  0  0  0  0
  -24.4541  -11.9899   18.0023 C   0  0  0  0  0  0  0  0  0  0  0  0
  -26.6370  -20.6074   19.9908 C   0  0  0  0  0  0  0  0  0  1  0  0
  -29.0544  -24.1683   15.5706 C   0  0  0  0  0  0  0  0  0  0  0  0
  -27.6228  -29.8758   22.2301 N   0  0  0  0  0  0  0  0  0  0  0  0
  -30.1830  -22.9216   18.1515 N   0  0  0  0  0  0  0  0  0  0  0  0
  -28.0057  -23.1799   18.8039 N   0  0  0  0  0  0  0  0  0  0  0  0
  -27.2165  -28.6027   22.3723 N   0  0  0  0  0  0  0  0  0  0  0  0
  -28.6134  -22.1995   19.4893 N   0  0  0  0  0  0  0  0  0  0  0  0
  -26.3777  -13.7359   20.4754 N   0  0  0  0  0  0  0  0  0  0  0  0
  -30.1837  -26.7385   20.8463 N   0  0  0  0  0  0  0  0  0  0  0  0
  -25.3359  -27.2700   22.9181 N   0  0  0  0  0  0  0  0  0  0  0  0
  -23.7549  -31.4876   23.2473 N   0  0  0  0  0  0  0  0  0  0  0  0
  -29.8638  -13.1813   19.9556 N   0  0  0  0  0  0  0  0  0  0  0  0
  -23.3947  -12.1461   20.2952 N   0  0  0  0  0  0  0  0  0  0  0  0
  -29.6849  -26.4897   18.5478 N   0  0  0  0  0  0  0  0  0  0  0  0
  -20.9990  -13.0237   22.8560 N   0  3  0  0  0  0  0  0  0  0  0  0
  -23.2079  -29.2715   23.4680 O   0  0  0  0  0  0  0  0  0  0  0  0
  -28.3370  -14.6010   18.9182 O   0  0  0  0  0  0  0  0  0  0  0  0
  -26.1627  -11.4153   20.4066 O   0  0  0  0  0  0  0  0  0  0  0  0
  -22.2992  -14.1614   20.6353 O   0  0  0  0  0  0  0  0  0  0  0  0
  -31.2436  -25.1369   19.5464 O   0  0  0  0  0  0  0  0  0  0  0  0
  -26.6402  -36.1664   22.3423 O   0  0  0  0  0  0  0  0  0  0  0  0
  -25.9919  -19.8678   21.0268 O   0  0  0  0  0  0  0  0  0  1  0  0
  -24.2780  -38.9081   26.5025 F   0  0  0  0  0  0  0  0  0  0  0  0
  -23.9520  -35.8497   22.9045 F   0  0  0  0  0  0  0  0  0  0  0  0
  -28.1725  -23.1873   15.2707 F   0  0  0  0  0  0  0  0  0  0  0  0
  -30.2963  -23.6573   15.4214 F   0  0  0  0  0  0  0  0  0  0  0  0
  -28.9108  -25.1350   14.6334 F   0  0  0  0  0  0  0  0  0  0  0  0
  1  2  1  0  0  0  0
  1  5  2  0  0  0  0
  2  6  2  0  0  0  0
  3  8  2  0  0  0  0
  3 15  1  0  0  0  0
  4  9  1  0  0  0  0
  4 15  2  0  0  0  0
  5 17  1  0  0  0  0
  6 19  1  0  0  0  0
  7 10  2  0  0  0  0
  7 18  1  0  0  0  0
  8 21  1  0  0  0  0
  9 21  2  0  0  0  0
 10 22  1  0  0  0  0
 11 12  2  0  0  0  0
 11 23  1  0  0  0  0
 12 24  1  0  0  0  0
 13 20  1  0  0  0  0
 13 22  2  0  0  0  0
 14 24  2  0  0  0  0
 14 25  1  0  0  0  0
 15 26  1  0  0  0  0
 16 26  1  0  0  0  0
 16 27  2  0  0  0  0
 16 30  1  0  0  0  0
 17 19  2  0  0  0  0
 17 35  1  0  0  0  0
 18 20  2  0  0  0  0
 18 36  1  0  0  0  0
 19 44  1  0  0  0  0
 20 37  1  0  0  0  0
 21 83  1  0  0  0  0
 22 84  1  0  0  0  0
 23 25  2  0  0  0  0
 23 83  1  0  0  0  0
 24 85  1  0  0  0  0
 25 86  1  0  0  0  0
 26 65  2  0  0  0  0
 27 68  1  0  0  0  0
 27 72  1  0  0  0  0
 28 61  1  0  0  0  0
 28 66  1  0  0  0  0
 28 67  2  0  0  0  0
 29 47  1  0  0  0  0
 29 66  2  0  0  0  0
 29 69  1  0  0  0  0
 30 73  1  0  0  0  0
 30 78  2  0  0  0  0
 31 45  1  0  0  0  0
 31 74  1  0  0  0  0
 31 79  2  0  0  0  0
 32 58  1  0  0  0  0
 32 70  1  0  0  0  0
 32 80  2  0  0  0  0
 33 59  1  0  0  0  0
 33 75  1  0  0  0  0
 33 81  2  0  0  0  0
 34 71  1  0  0  0  0
 34 76  1  0  0  0  0
 34 82  2  0  0  0  0
 35 38  1  0  0  0  0
 36 45  1  0  0  0  0
 37 70  1  0  0  0  0
 38 40  1  0  0  0  0
 39 41  1  0  0  0  0
 39 42  1  0  0  0  0
 40 44  1  0  0  0  0
 41 46  1  0  0  0  0
 42 71  1  0  0  0  0
 43 46  1  0  0  0  0
 43 71  1  0  0  0  0
 44 74  1  0  0  0  0
 45 70  1  0  0  0  0
 46 68  1  0  0  0  0
 48 59  1  0  0  0  0
 49 60  1  0  0  0  0
 50 61  1  0  0  0  0
 51 62  1  0  0  0  0
 52 62  1  0  0  0  0
 53 62  1  0  0  0  0
 54 63  1  0  0  0  0
 55 63  1  0  0  0  0
 56 77  1  0  0  0  0
 57 61  1  0  0  0  0
 57 76  1  0  0  0  0
 58 62  1  0  0  0  0
 58 75  1  0  0  0  0
 59 77  1  0  0  0  0
 60 63  1  0  0  0  0
 60 69  1  0  0  0  0
 61 64  1  0  0  0  0
 63 84  1  0  0  0  0
 64 87  1  0  0  0  0
 64 88  1  0  0  0  0
 64 89  1  0  0  0  0
 65 68  1  0  0  0  0
 67 69  1  0  0  0  0
M  CHG  1  77   1
M  ISO  4  34 100  63 101  76 100  84 101
M  END
> <Batch ID>
0064

> <Smiles>
CNC(C)C(=O)NC(C(=O)N1Cc2cc([101O:1][101C:1](C)(C)C(C)n3nc(C(C)(C[100NH:0][100C:0](=O)N4CCCC(n5nc(-c6ccc(Oc7ccc(F)cc7F)cc6)c(C(N)=O)c5N)C4)C(F)(F)F)nc3C)ccc2CC1C(=O)NC1CCCc2ccccc21)C(C)(C)C

> <Shape>
0.276

> <Color>
0.076

> <Negative vol penalty>
0.000

$$$$

  -OEChem-04052318053D

 95103  0     1  0  0  0  0  0999 V2000
  -39.3793  -25.0325   28.2488 C   0  0  0  0  0  0  0  0  0  0  0  0
  -38.0003  -24.9353   28.0934 C   0  0  0  0  0  0  0  0  0  0  0  0
  -23.0699   -9.8959   19.8598 C   0  0  0  0  0  0  0  0  0  0  0  0
  -23.9212   -9.7266   22.1145 C   0  0  0  0  0  0  0  0  0  0  0  0
  -40.1191  -25.8545   27.3996 C   0  0  0  0  0  0  0  0  0  0  0  0
  -37.3600  -25.6609   27.0895 C   0  0  0  0  0  0  0  0  0  0  0  0
  -33.9566  -22.8920   24.5606 C   0  0  0  0  0  0  0  0  0  0  0  0
  -22.3595   -8.7090   20.0389 C   0  0  0  0  0  0  0  0  0  0  0  0
  -23.2108   -8.5397   22.2936 C   0  0  0  0  0  0  0  0  0  0  0  0
  -32.7259  -22.6754   25.1790 C   0  0  0  0  0  0  0  0  0  0  0  0
  -20.0259   -7.6197   22.9495 C   0  0  0  0  0  0  0  0  0  0  0  0
  -19.3176   -7.4636   24.1410 C   0  0  0  0  0  0  0  0  0  0  0  0
  -31.7502  -24.4265   23.8370 C   0  0  0  0  0  0  0  0  0  0  0  0
  -20.6255   -5.5000   24.6612 C   0  0  0  0  0  0  0  0  0  0  0  0
  -26.5012  -17.5510   23.8937 C   0  0  0  0  0  0  0  0  0  0  0  0
  -28.3340  -18.5893   22.2537 C   0  0  0  0  0  0  0  0  0  0  0  0
  -23.8508  -10.4047   20.8976 C   0  0  0  0  0  0  0  0  0  0  0  0
  -24.1378  -12.9382   20.9803 C   0  0  0  0  0  0  0  0  0  0  0  0
  -39.4888  -26.5830   26.3786 C   0  0  0  0  0  0  0  0  0  0  0  0
  -34.0961  -23.8865   23.5819 C   0  0  0  0  0  0  0  0  0  0  0  0
  -38.0918  -26.4944   26.2267 C   0  0  0  0  0  0  0  0  0  0  0  0
  -32.9831  -24.6520   23.2059 C   0  0  0  0  0  0  0  0  0  0  0  0
  -22.4300   -8.0308   21.2558 C   0  0  0  0  0  0  0  0  0  0  0  0
  -31.6232  -23.4447   24.8193 C   0  0  0  0  0  0  0  0  0  0  0  0
  -21.0339   -6.7159   22.6138 C   0  0  0  0  0  0  0  0  0  0  0  0
  -19.6174   -6.4038   24.9968 C   0  0  0  0  0  0  0  0  0  0  0  0
  -21.3338   -5.6561   23.4697 C   0  0  0  0  0  0  0  0  0  0  0  0
  -24.5853  -11.6305   20.7130 C   0  0  0  0  0  0  0  0  0  0  0  0
  -26.7866  -18.8985   23.9087 C   0  0  0  0  0  0  0  0  0  0  0  0
  -28.0492  -17.2417   22.2390 C   0  0  0  0  0  0  0  0  0  0  0  0
  -25.1995  -13.7406   20.6406 C   0  0  0  0  0  0  0  0  0  0  0  0
  -22.8753  -13.3874   21.4903 C   0  0  0  0  0  0  0  0  0  0  0  0
  -35.8167  -26.5459   23.3157 C   0  0  0  0  0  0  0  0  0  0  0  0
  -34.5830  -26.5797   20.3158 C   0  0  0  0  0  0  0  0  0  0  0  0
  -30.6913  -14.7922   20.7943 C   0  0  0  0  0  0  0  0  0  0  0  0
  -32.0905  -25.6074   18.1971 C   0  0  0  0  0  0  0  0  0  0  0  0
  -40.3243  -27.4949   25.5154 C   0  0  0  0  0  0  0  0  0  0  0  0
  -35.4240  -24.0896   22.9053 C   0  0  0  0  0  0  0  0  0  0  0  0
  -33.0755  -25.7184   22.1463 C   0  0  0  0  0  0  0  0  0  0  0  0
  -39.6175  -27.9407   24.2379 C   0  0  0  0  0  0  0  0  0  0  0  0
  -29.4725  -12.6881   18.1623 C   0  0  0  0  0  0  0  0  0  0  0  0
  -38.1941  -28.3944   24.5459 C   0  0  0  0  0  0  0  0  0  0  0  0
  -28.0673  -12.3085   18.6278 C   0  0  0  0  0  0  0  0  0  0  0  0
  -30.4364  -12.8098   19.3384 C   0  0  0  0  0  0  0  0  0  0  0  0
  -28.5769  -13.3797   20.8678 C   0  0  0  0  0  0  0  0  0  0  0  0
  -37.3642  -27.2467   25.1337 C   0  0  1  0  0  0  0  0  0  0  0  0
  -35.5743  -25.4767   22.2882 C   0  0  1  0  0  0  0  0  0  0  0  0
  -27.5644  -13.2763   19.7135 C   0  0  2  0  0  0  0  0  0  0  0  0
  -31.3367  -25.8207   15.8130 C   0  0  0  0  0  0  0  0  0  0  0  0
  -25.9216  -21.2812   24.2843 C   0  0  0  0  0  0  0  0  0  0  0  0
  -24.5683  -19.3536   24.9992 C   0  0  0  0  0  0  0  0  0  0  0  0
  -31.1266  -16.7775   22.1439 C   0  0  0  0  0  0  0  0  0  0  0  0
  -29.8444  -14.8702   23.1200 C   0  0  0  0  0  0  0  0  0  0  0  0
  -33.6329  -29.4251   20.8734 C   0  0  0  0  0  0  0  0  0  0  0  0
  -32.1119  -29.2306   18.8942 C   0  0  0  0  0  0  0  0  0  0  0  0
  -34.5824  -29.0715   18.5869 C   0  0  0  0  0  0  0  0  0  0  0  0
  -25.9941  -20.8458   27.2854 C   0  0  0  0  0  0  0  0  0  0  0  0
  -32.2581  -22.6850   17.7609 C   0  0  0  0  0  0  0  0  0  0  0  0
  -30.1416  -21.9108   25.8720 C   0  0  0  0  0  0  0  0  0  1  0  0
  -33.3430  -27.1560   19.6762 C   0  0  1  0  0  0  0  0  0  0  0  0
  -32.1305  -24.9912   16.8103 C   0  0  2  0  0  0  0  0  0  0  0  0
  -26.0445  -19.8505   24.8847 C   0  0  0  0  0  0  0  0  0  0  0  0
  -28.7606  -16.3288   21.3027 C   0  0  0  0  0  0  0  0  0  0  0  0
  -30.0824  -15.6882   21.8432 C   0  0  0  0  0  0  0  0  0  0  0  0
  -33.4159  -28.7021   19.5290 C   0  0  0  0  0  0  0  0  0  0  0  0
  -26.7458  -19.8951   26.3308 C   0  0  1  0  0  0  0  0  0  0  0  0
  -28.6400  -21.6721   25.8507 C   0  0  0  0  0  0  0  0  0  0  0  0
  -28.2629  -20.2622   26.3090 C   0  0  0  0  0  0  0  0  0  0  0  0
  -27.7079  -19.4420   23.0888 N   0  0  0  0  0  0  0  0  0  0  0  0
  -27.1276  -16.6983   23.0588 N   0  0  0  0  0  0  0  0  0  0  0  0
  -25.8339  -11.5995   20.2397 N   0  0  0  0  0  0  0  0  0  0  0  0
  -26.1801  -12.8977   20.2069 N   0  0  0  0  0  0  0  0  0  0  0  0
  -34.3969  -25.8834   21.5184 N   0  0  0  0  0  0  0  0  0  0  0  0
  -29.9123  -13.7204   20.3580 N   0  0  0  0  0  0  0  0  0  0  0  0
  -25.3805  -15.0780   20.6734 N   0  0  0  0  0  0  0  0  0  0  0  0
  -21.8959  -12.4299   21.7874 N   0  0  0  0  0  0  0  0  0  0  0  0
  -36.9442  -26.3393   24.0874 N   0  0  0  0  0  0  0  0  0  0  0  0
  -33.1650  -26.4435   18.4156 N   0  0  0  0  0  0  0  0  0  0  0  0
  -31.5584  -23.6154   16.8381 N   0  3  0  0  0  0  0  0  0  0  0  0
  -22.6174  -14.6030   21.6614 O   0  0  0  0  0  0  0  0  0  0  0  0
  -35.0393  -27.4893   23.4009 O   0  0  0  0  0  0  0  0  0  0  0  0
  -35.6757  -26.7353   19.7648 O   0  0  0  0  0  0  0  0  0  0  0  0
  -31.8245  -15.0408   20.3743 O   0  0  0  0  0  0  0  0  0  0  0  0
  -31.1937  -25.3736   19.0042 O   0  0  0  0  0  0  0  0  0  0  0  0
  -26.6241  -18.5995   26.9419 O   0  0  0  0  0  0  0  0  0  0  0  0
  -21.7367   -6.8727   21.4310 O   0  0  0  0  0  0  0  0  0  0  0  0
  -30.4210  -23.2358   25.4217 O   0  0  0  0  0  0  0  0  0  1  0  0
  -18.9383   -6.2549   26.1417 F   0  0  0  0  0  0  0  0  0  0  0  0
  -22.3019   -4.7853   23.1532 F   0  0  0  0  0  0  0  0  0  0  0  0
  -27.9548  -15.2877   20.8901 F   0  0  0  0  0  0  0  0  0  0  0  0
  -29.0904  -16.9579   20.1194 F   0  0  0  0  0  0  0  0  0  0  0  0
  -28.0418  -22.5917   26.6490 F   0  0  0  0  0  0  0  0  0  0  0  0
  -28.1938  -21.8903   24.5887 F   0  0  0  0  0  0  0  0  0  0  0  0
  -28.9364  -19.3777   25.5264 F   0  0  0  0  0  0  0  0  0  0  0  0
  -28.7687  -20.1166   27.5671 F   0  0  0  0  0  0  0  0  0  0  0  0
  1  2  1  0  0  0  0
  1  5  2  0  0  0  0
  2  6  2  0  0  0  0
  3  8  2  0  0  0  0
  3 17  1  0  0  0  0
  4  9  1  0  0  0  0
  4 17  2  0  0  0  0
  5 19  1  0  0  0  0
  6 21  1  0  0  0  0
  7 10  2  0  0  0  0
  7 20  1  0  0  0  0
  8 23  1  0  0  0  0
  9 23  2  0  0  0  0
 10 24  1  0  0  0  0
 11 12  2  0  0  0  0
 11 25  1  0  0  0  0
 12 26  1  0  0  0  0
 13 22  1  0  0  0  0
 13 24  2  0  0  0  0
 14 26  2  0  0  0  0
 14 27  1  0  0  0  0
 15 29  1  0  0  0  0
 15 70  2  0  0  0  0
 16 30  2  0  0  0  0
 16 69  1  0  0  0  0
 17 28  1  0  0  0  0
 18 28  1  0  0  0  0
 18 31  2  0  0  0  0
 18 32  1  0  0  0  0
 19 21  2  0  0  0  0
 19 37  1  0  0  0  0
 20 22  2  0  0  0  0
 20 38  1  0  0  0  0
 21 46  1  0  0  0  0
 22 39  1  0  0  0  0
 23 86  1  0  0  0  0
 24 87  1  0  0  0  0
 25 27  2  0  0  0  0
 25 86  1  0  0  0  0
 26 88  1  0  0  0  0
 27 89  1  0  0  0  0
 28 71  2  0  0  0  0
 29 62  1  0  0  0  0
 29 69  2  0  0  0  0
 30 63  1  0  0  0  0
 30 70  1  0  0  0  0
 31 72  1  0  0  0  0
 31 75  1  0  0  0  0
 32 76  1  0  0  0  0
 32 80  2  0  0  0  0
 33 47  1  0  0  0  0
 33 77  1  0  0  0  0
 33 81  2  0  0  0  0
 34 60  1  0  0  0  0
 34 73  1  0  0  0  0
 34 82  2  0  0  0  0
 35 64  1  0  0  0  0
 35 74  1  0  0  0  0
 35 83  2  0  0  0  0
 36 61  1  0  0  0  0
 36 78  1  0  0  0  0
 36 84  2  0  0  0  0
 37 40  1  0  0  0  0
 38 47  1  0  0  0  0
 39 73  1  0  0  0  0
 40 42  1  0  0  0  0
 41 43  1  0  0  0  0
 41 44  1  0  0  0  0
 42 46  1  0  0  0  0
 43 48  1  0  0  0  0
 44 74  1  0  0  0  0
 45 48  1  0  0  0  0
 45 74  1  0  0  0  0
 46 77  1  0  0  0  0
 47 73  1  0  0  0  0
 48 72  1  0  0  0  0
 49 61  1  0  0  0  0
 50 62  1  0  0  0  0
 51 62  1  0  0  0  0
 52 64  1  0  0  0  0
 53 64  1  0  0  0  0
 54 65  1  0  0  0  0
 55 65  1  0  0  0  0
 56 65  1  0  0  0  0
 57 66  1  0  0  0  0
 58 79  1  0  0  0  0
 59 67  1  0  0  0  0
 59 87  1  0  0  0  0
 60 65  1  0  0  0  0
 60 78  1  0  0  0  0
 61 79  1  0  0  0  0
 62 66  1  0  0  0  0
 63 64  1  0  0  0  0
 63 90  1  0  0  0  0
 63 91  1  0  0  0  0
 66 68  1  0  0  0  0
 66 85  1  0  0  0  0
 67 68  1  0  0  0  0
 67 92  1  0  0  0  0
 67 93  1  0  0  0  0
 68 94  1  0  0  0  0
 68 95  1  0  0  0  0
 71 72  1  0  0  0  0
M  CHG  1  79   1
M  ISO  4  35 100  59 101  64 100  87 101
M  END
> <Batch ID>
0064

> <Smiles>
CNC(C)C(=O)NC(C(=O)N1Cc2cc([101O:1][101CH2:1]C(F)(F)C(F)(F)C(C)(O)C(C)(C)c3cnc(C(F)(F)[100C:0](C)(C)[100C:0](=O)N4CCCC(n5nc(-c6ccc(Oc7ccc(F)cc7F)cc6)c(C(N)=O)c5N)C4)cn3)ccc2CC1C(=O)NC1CCCc2ccccc21)C(C)(C)C

> <Shape>
0.188

> <Color>
0.186

> <Negative vol penalty>
0.000

$$$$

  -OEChem-04052318053D

 84 92  0     1  0  0  0  0  0999 V2000
  -17.3781  -24.8840   21.7664 C   0  0  0  0  0  0  0  0  0  0  0  0
  -18.5057  -24.6656   20.9814 C   0  0  0  0  0  0  0  0  0  0  0  0
  -24.9969  -16.4854   21.7386 C   0  0  0  0  0  0  0  0  0  0  0  0
  -24.5772  -17.9754   19.8836 C   0  0  0  0  0  0  0  0  0  0  0  0
  -17.3297  -25.9814   22.6250 C   0  0  0  0  0  0  0  0  0  0  0  0
  -19.5853  -25.5452   21.0538 C   0  0  0  0  0  0  0  0  0  0  0  0
  -25.5221  -24.1386   20.5228 C   0  0  0  0  0  0  0  0  0  0  0  0
  -23.6493  -16.1260   21.7548 C   0  0  0  0  0  0  0  0  0  0  0  0
  -23.2296  -17.6159   19.8997 C   0  0  0  0  0  0  0  0  0  0  0  0
  -26.4137  -24.2214   19.4542 C   0  0  0  0  0  0  0  0  0  0  0  0
  -21.5923  -14.0926   20.0034 C   0  0  0  0  0  0  0  0  0  0  0  0
  -21.2843  -12.7372   20.1198 C   0  0  0  0  0  0  0  0  0  0  0  0
  -32.1440  -23.4861   18.6528 C   0  0  0  0  0  0  0  0  0  0  0  0
  -27.1798  -26.3596   20.2669 C   0  0  0  0  0  0  0  0  0  0  0  0
  -20.0806  -13.1866   22.1659 C   0  0  0  0  0  0  0  0  0  0  0  0
  -32.6911  -23.8932   19.8451 C   0  0  0  0  0  0  0  0  0  0  0  0
  -25.4609  -17.4102   20.8030 C   0  0  0  0  0  0  0  0  0  0  0  0
  -27.8884  -17.1672   20.0575 C   0  0  0  0  0  0  0  0  0  0  0  0
  -18.4131  -26.8695   22.7151 C   0  0  0  0  0  0  0  0  0  0  0  0
  -25.4448  -25.1725   21.4670 C   0  0  0  0  0  0  0  0  0  0  0  0
  -19.5508  -26.6563   21.9135 C   0  0  0  0  0  0  0  0  0  0  0  0
  -26.2882  -26.2863   21.3480 C   0  0  0  0  0  0  0  0  0  0  0  0
  -22.7656  -16.6912   20.8354 C   0  0  0  0  0  0  0  0  0  0  0  0
  -27.2407  -25.3333   19.3245 C   0  0  0  0  0  0  0  0  0  0  0  0
  -21.1446  -14.9950   20.9682 C   0  0  0  0  0  0  0  0  0  0  0  0
  -20.5284  -12.2842   21.2011 C   0  0  0  0  0  0  0  0  0  0  0  0
  -20.3887  -14.5420   22.0494 C   0  0  0  0  0  0  0  0  0  0  0  0
  -26.8527  -17.7823   20.7861 C   0  0  0  0  0  0  0  0  0  0  0  0
  -31.0606  -24.3608   18.4459 C   0  0  0  0  0  0  0  0  0  0  0  0
  -29.0115  -17.8884   20.3816 C   0  0  0  0  0  0  0  0  0  0  0  0
  -27.8396  -16.0444   19.1673 C   0  0  0  0  0  0  0  0  0  0  0  0
  -23.1741  -27.1902   22.4032 C   0  0  0  0  0  0  0  0  0  0  0  0
  -25.3794  -28.0271   24.6300 C   0  0  0  0  0  0  0  0  0  0  0  0
  -28.6649  -28.1745   25.5413 C   0  0  0  0  0  0  0  0  0  0  0  0
  -29.7210  -23.4680   22.1761 C   0  0  0  0  0  0  0  0  0  0  0  0
  -18.2956  -28.0683   23.6228 C   0  0  0  0  0  0  0  0  0  0  0  0
  -24.4966  -25.0557   22.6288 C   0  0  0  0  0  0  0  0  0  0  0  0
  -26.2584  -27.4139   22.3460 C   0  0  0  0  0  0  0  0  0  0  0  0
  -19.6330  -28.7430   23.9169 C   0  0  0  0  0  0  0  0  0  0  0  0
  -30.8838  -20.5159   23.9169 C   0  0  0  0  0  0  0  0  0  0  0  0
  -20.4326  -28.9264   22.6309 C   0  0  0  0  0  0  0  0  0  0  0  0
  -30.0694  -19.4176   23.2308 C   0  0  0  0  0  0  0  0  0  0  0  0
  -30.0605  -21.7890   24.0888 C   0  0  0  0  0  0  0  0  0  0  0  0
  -28.6648  -21.2262   22.1371 C   0  0  0  0  0  0  0  0  0  0  0  0
  -20.7521  -27.5741   21.9823 C   0  0  1  0  0  0  0  0  0  0  0  0
  -24.1386  -26.4043   23.2457 C   0  0  1  0  0  0  0  0  0  0  0  0
  -29.4487  -19.9202   21.9138 C   0  0  2  0  0  0  0  0  0  0  0  0
  -30.1600  -28.9461   27.4032 C   0  0  0  0  0  0  0  0  0  0  0  0
  -30.3647  -23.2761   16.2058 C   0  0  0  0  0  0  0  0  0  0  0  0
  -30.1819  -25.7333   16.5318 C   0  0  0  0  0  0  0  0  0  0  0  0
  -25.0226  -30.9163   23.7159 C   0  0  0  0  0  0  0  0  0  0  0  0
  -27.1579  -31.4798   24.8954 C   0  0  0  0  0  0  0  0  0  0  0  0
  -25.2078  -30.6210   26.1924 C   0  0  0  0  0  0  0  0  0  0  0  0
  -33.3165  -25.2352   22.3337 C   0  0  0  0  0  0  0  0  0  0  0  0
  -32.4066  -27.1818   21.0934 C   0  0  0  0  0  0  0  0  0  0  0  0
  -29.6730  -25.4340   26.0233 C   0  0  0  0  0  0  0  0  0  0  0  0
  -30.8410  -25.6749   22.3552 C   0  0  0  0  0  0  0  0  0  0  0  0
  -28.6238  -24.1900   17.7638 C   0  0  0  0  0  0  0  0  0  1  0  0
  -26.4973  -29.0393   24.6999 C   0  0  1  0  0  0  0  0  0  0  0  0
  -29.3728  -27.7804   26.8251 C   0  0  2  0  0  0  0  0  0  0  0  0
  -30.0786  -24.3731   17.2594 C   0  0  0  0  0  0  0  0  0  0  0  0
  -25.9708  -30.4939   24.8559 C   0  0  0  0  0  0  0  0  0  0  0  0
  -32.1194  -25.7094   21.4738 C   0  0  0  0  0  0  0  0  0  0  0  0
  -27.2800  -18.8147   21.5181 N   0  0  0  0  0  0  0  0  0  0  0  0
  -30.9257  -25.2559   19.4281 N   0  0  0  0  0  0  0  0  0  0  0  0
  -31.9315  -24.9457   20.2637 N   0  0  0  0  0  0  0  0  0  0  0  0
  -28.5965  -18.8538   21.2511 N   0  0  0  0  0  0  0  0  0  0  0  0
  -25.3099  -27.2562   23.4610 N   0  0  0  0  0  0  0  0  0  0  0  0
  -29.5138  -22.2245   22.7959 N   0  0  0  0  0  0  0  0  0  0  0  0
  -30.3037  -17.7845   20.0049 N   0  0  0  0  0  0  0  0  0  0  0  0
  -26.6043  -15.4201   18.9463 N   0  0  0  0  0  0  0  0  0  0  0  0
  -21.8452  -26.9268   22.6754 N   0  0  0  0  0  0  0  0  0  0  0  0
  -27.3761  -28.6029   25.7795 N   0  0  0  0  0  0  0  0  0  0  0  0
  -30.5315  -24.3591   22.8688 N   0  0  0  0  0  0  0  0  0  0  0  0
  -30.3167  -26.6554   26.5717 N   0  3  0  0  0  0  0  0  0  0  0  0
  -28.8639  -15.5974   18.5977 O   0  0  0  0  0  0  0  0  0  0  0  0
  -23.6037  -27.9784   21.5691 O   0  0  0  0  0  0  0  0  0  0  0  0
  -24.6008  -27.9194   25.5808 O   0  0  0  0  0  0  0  0  0  0  0  0
  -29.2027  -28.1123   24.4380 O   0  0  0  0  0  0  0  0  0  0  0  0
  -29.2246  -23.7609   21.0830 O   0  0  0  0  0  0  0  0  0  0  0  0
  -21.4505  -16.3405   20.8507 O   0  0  0  0  0  0  0  0  0  0  0  0
  -28.1114  -25.4169   18.2820 O   0  0  0  0  0  0  0  0  0  1  0  0
  -20.2314  -10.9828   21.3120 F   0  0  0  0  0  0  0  0  0  0  0  0
  -19.9547  -15.4044   22.9788 F   0  0  0  0  0  0  0  0  0  0  0  0
  1  2  1  0  0  0  0
  1  5  2  0  0  0  0
  2  6  2  0  0  0  0
  3  8  2  0  0  0  0
  3 17  1  0  0  0  0
  4  9  1  0  0  0  0
  4 17  2  0  0  0  0
  5 19  1  0  0  0  0
  6 21  1  0  0  0  0
  7 10  2  0  0  0  0
  7 20  1  0  0  0  0
  8 23  1  0  0  0  0
  9 23  2  0  0  0  0
 10 24  1  0  0  0  0
 11 12  2  0  0  0  0
 11 25  1  0  0  0  0
 12 26  1  0  0  0  0
 13 16  2  0  0  0  0
 13 29  1  0  0  0  0
 14 22  1  0  0  0  0
 14 24  2  0  0  0  0
 15 26  2  0  0  0  0
 15 27  1  0  0  0  0
 16 66  1  0  0  0  0
 17 28  1  0  0  0  0
 18 28  1  0  0  0  0
 18 30  2  0  0  0  0
 18 31  1  0  0  0  0
 19 21  2  0  0  0  0
 19 36  1  0  0  0  0
 20 22  2  0  0  0  0
 20 37  1  0  0  0  0
 21 45  1  0  0  0  0
 22 38  1  0  0  0  0
 23 81  1  0  0  0  0
 24 82  1  0  0  0  0
 25 27  2  0  0  0  0
 25 81  1  0  0  0  0
 26 83  1  0  0  0  0
 27 84  1  0  0  0  0
 28 64  2  0  0  0  0
 29 61  1  0  0  0  0
 29 65  2  0  0  0  0
 30 67  1  0  0  0  0
 30 70  1  0  0  0  0
 31 71  1  0  0  0  0
 31 76  2  0  0  0  0
 32 46  1  0  0  0  0
 32 72  1  0  0  0  0
 32 77  2  0  0  0  0
 33 59  1  0  0  0  0
 33 68  1  0  0  0  0
 33 78  2  0  0  0  0
 34 60  1  0  0  0  0
 34 73  1  0  0  0  0
 34 79  2  0  0  0  0
 35 69  1  0  0  0  0
 35 74  1  0  0  0  0
 35 80  2  0  0  0  0
 36 39  1  0  0  0  0
 37 46  1  0  0  0  0
 38 68  1  0  0  0  0
 39 41  1  0  0  0  0
 40 42  1  0  0  0  0
 40 43  1  0  0  0  0
 41 45  1  0  0  0  0
 42 47  1  0  0  0  0
 43 69  1  0  0  0  0
 44 47  1  0  0  0  0
 44 69  1  0  0  0  0
 45 72  1  0  0  0  0
 46 68  1  0  0  0  0
 47 67  1  0  0  0  0
 48 60  1  0  0  0  0
 49 61  1  0  0  0  0
 50 61  1  0  0  0  0
 51 62  1  0  0  0  0
 52 62  1  0  0  0  0
 53 62  1  0  0  0  0
 54 63  1  0  0  0  0
 55 63  1  0  0  0  0
 56 75  1  0  0  0  0
 57 63  1  0  0  0  0
 57 74  1  0  0  0  0
 58 61  1  0  0  0  0
 58 82  1  0  0  0  0
 59 62  1  0  0  0  0
 59 73  1  0  0  0  0
 60 75  1  0  0  0  0
 63 66  1  0  0  0  0
 64 67  1  0  0  0  0
 65 66  1  0  0  0  0
M  CHG  1  75   1
M  ISO  4  35 100  58 101  74 100  82 101
M  END
> <Batch ID>
0064

> <Smiles>
CNC(C)C(=O)NC(C(=O)N1Cc2cc([101O:1][101CH2:1]C(C)(C)c3ccn(C(C)(C)C[100NH:0][100C:0](=O)N4CCCC(n5nc(-c6ccc(Oc7ccc(F)cc7F)cc6)c(C(N)=O)c5N)C4)n3)ccc2CC1C(=O)NC1CCCc2ccccc21)C(C)(C)C

> <Shape>
0.188

> <Color>
0.061

> <Negative vol penalty>
0.000

$$$$

  -OEChem-04052318053D

 88 96  0     1  0  0  0  0  0999 V2000
  -34.0802  -25.8115   22.8420 C   0  0  0  0  0  0  0  0  0  0  0  0
  -33.3085  -24.8122   23.4262 C   0  0  0  0  0  0  0  0  0  0  0  0
  -23.1328   -9.8634   19.9493 C   0  0  0  0  0  0  0  0  0  0  0  0
  -23.9047   -9.9042   22.2383 C   0  0  0  0  0  0  0  0  0  0  0  0
  -33.6683  -27.1414   22.9156 C   0  0  0  0  0  0  0  0  0  0  0  0
  -32.1249  -25.1425   24.0853 C   0  0  0  0  0  0  0  0  0  0  0  0
  -28.3067  -22.0360   22.8952 C   0  0  0  0  0  0  0  0  0  0  0  0
  -22.4193   -8.6937   20.2107 C   0  0  0  0  0  0  0  0  0  0  0  0
  -23.1911   -8.7345   22.4998 C   0  0  0  0  0  0  0  0  0  0  0  0
  -28.2900  -20.7838   23.5080 C   0  0  0  0  0  0  0  0  0  0  0  0
  -19.9872   -7.8606   23.1254 C   0  0  0  0  0  0  0  0  0  0  0  0
  -19.2378   -7.8094   24.3007 C   0  0  0  0  0  0  0  0  0  0  0  0
  -26.2215  -17.1697   23.7766 C   0  0  0  0  0  0  0  0  0  0  0  0
  -26.6552  -21.5865   25.0899 C   0  0  0  0  0  0  0  0  0  0  0  0
  -20.5311   -5.9083   25.0426 C   0  0  0  0  0  0  0  0  0  0  0  0
  -26.1170  -17.7067   22.5097 C   0  0  0  0  0  0  0  0  0  0  0  0
  -23.8755  -10.4686   20.9630 C   0  0  0  0  0  0  0  0  0  0  0  0
  -24.1536  -13.0006   20.8250 C   0  0  0  0  0  0  0  0  0  0  0  0
  -32.4741  -27.4871   23.5675 C   0  0  0  0  0  0  0  0  0  0  0  0
  -27.5045  -23.0778   23.3828 C   0  0  0  0  0  0  0  0  0  0  0  0
  -31.6973  -26.4785   24.1688 C   0  0  0  0  0  0  0  0  0  0  0  0
  -26.6616  -22.8502   24.4800 C   0  0  0  0  0  0  0  0  0  0  0  0
  -22.4484   -8.1293   21.4860 C   0  0  0  0  0  0  0  0  0  0  0  0
  -27.4663  -20.5597   24.6073 C   0  0  0  0  0  0  0  0  0  0  0  0
  -21.0085   -6.9355   22.9086 C   0  0  0  0  0  0  0  0  0  0  0  0
  -19.5098   -6.8333   25.2593 C   0  0  0  0  0  0  0  0  0  0  0  0
  -21.2804   -5.9594   23.8672 C   0  0  0  0  0  0  0  0  0  0  0  0
  -24.6133  -11.6765   20.6934 C   0  0  0  0  0  0  0  0  0  0  0  0
  -27.3332  -16.3839   24.0022 C   0  0  0  0  0  0  0  0  0  0  0  0
  -25.2248  -13.7747   20.4509 C   0  0  0  0  0  0  0  0  0  0  0  0
  -28.0615  -16.7154   21.8746 C   0  0  0  0  0  0  0  0  0  0  0  0
  -22.8730  -13.4874   21.2477 C   0  0  0  0  0  0  0  0  0  0  0  0
  -28.0666  -25.9545   24.6125 C   0  0  0  0  0  0  0  0  0  0  0  0
  -24.8354  -26.2107   24.4865 C   0  0  0  0  0  0  0  0  0  0  0  0
  -21.8055  -24.6421   24.4098 C   0  0  0  0  0  0  0  0  0  0  0  0
  -30.8145  -14.6308   21.0330 C   0  0  0  0  0  0  0  0  0  0  0  0
  -32.0940  -28.9436   23.6621 C   0  0  0  0  0  0  0  0  0  0  0  0
  -27.5141  -24.4149   22.6941 C   0  0  0  0  0  0  0  0  0  0  0  0
  -25.7662  -23.9295   25.0294 C   0  0  0  0  0  0  0  0  0  0  0  0
  -30.6360  -29.1683   24.0544 C   0  0  0  0  0  0  0  0  0  0  0  0
  -29.5907  -12.5366   18.2370 C   0  0  0  0  0  0  0  0  0  0  0  0
  -30.2571  -28.2779   25.2336 C   0  0  0  0  0  0  0  0  0  0  0  0
  -28.1729  -12.1820   18.6822 C   0  0  0  0  0  0  0  0  0  0  0  0
  -30.5141  -12.7814   19.4265 C   0  0  0  0  0  0  0  0  0  0  0  0
  -28.5891  -13.4484   20.8278 C   0  0  0  0  0  0  0  0  0  0  0  0
  -30.3945  -26.7943   24.8710 C   0  0  1  0  0  0  0  0  0  0  0  0
  -27.0393  -25.5531   23.5922 C   0  0  1  0  0  0  0  0  0  0  0  0
  -27.6217  -13.2410   19.6528 C   0  0  2  0  0  0  0  0  0  0  0  0
  -19.3423  -25.1173   24.3467 C   0  0  0  0  0  0  0  0  0  0  0  0
  -26.3549  -13.9271   26.3118 C   0  0  0  0  0  0  0  0  0  0  0  0
  -28.8592  -13.9776   26.0443 C   0  0  0  0  0  0  0  0  0  0  0  0
  -24.9031  -26.9421   27.4480 C   0  0  0  0  0  0  0  0  0  0  0  0
  -22.4459  -26.4730   27.5485 C   0  0  0  0  0  0  0  0  0  0  0  0
  -23.3071  -28.2931   26.0761 C   0  0  0  0  0  0  0  0  0  0  0  0
  -28.7568  -18.4790   27.6738 C   0  0  0  0  0  0  0  0  0  0  0  0
  -30.0955  -16.8707   26.3064 C   0  0  0  0  0  0  0  0  0  0  0  0
  -31.1839  -16.8440   22.0553 C   0  0  0  0  0  0  0  0  0  0  0  0
  -21.4860  -23.2520   21.8167 C   0  0  0  0  0  0  0  0  0  0  0  0
  -29.0836  -16.4640   20.8185 C   0  0  0  0  0  0  0  0  0  0  0  0
  -27.5710  -16.6478   26.4586 C   0  0  0  0  0  0  0  0  0  0  0  0
  -28.6521  -18.5735   25.1592 C   0  0  0  0  0  0  0  0  0  1  0  0
  -23.6995  -25.8818   25.4249 C   0  0  1  0  0  0  0  0  0  0  0  0
  -20.5902  -24.8416   23.5224 C   0  0  2  0  0  0  0  0  0  0  0  0
  -27.5196  -14.3671   25.4367 C   0  0  0  0  0  0  0  0  0  0  0  0
  -23.6071  -26.8775   26.6155 C   0  0  0  0  0  0  0  0  0  0  0  0
  -28.7609  -17.6352   26.3820 C   0  0  0  0  0  0  0  0  0  0  0  0
  -27.0220  -17.4994   21.5308 N   0  0  0  0  0  0  0  0  0  0  0  0
  -25.8778  -11.6095   20.2687 N   0  0  0  0  0  0  0  0  0  0  0  0
  -28.2765  -16.1346   23.0704 N   0  0  0  0  0  0  0  0  0  0  0  0
  -26.2219  -12.9012   20.1301 N   0  0  0  0  0  0  0  0  0  0  0  0
  -25.8160  -25.2216   24.3256 N   0  0  0  0  0  0  0  0  0  0  0  0
  -29.9462  -13.7597   20.3547 N   0  0  0  0  0  0  0  0  0  0  0  0
  -25.4015  -15.1105   20.3682 N   0  0  0  0  0  0  0  0  0  0  0  0
  -21.8859  -12.5555   21.5964 N   0  0  0  0  0  0  0  0  0  0  0  0
  -29.2694  -26.3637   24.0690 N   0  0  0  0  0  0  0  0  0  0  0  0
  -22.4958  -25.8200   24.6028 N   0  0  0  0  0  0  0  0  0  0  0  0
  -27.4765  -15.8210   25.2772 N   0  0  3  0  0  0  0  0  0  0  0  0
  -30.3177  -15.9011   21.3620 N   0  0  0  0  0  0  0  0  0  0  0  0
  -20.3478  -23.6260   22.6951 N   0  3  0  0  0  0  0  0  0  0  0  0
  -22.6064  -14.7121   21.2985 O   0  0  0  0  0  0  0  0  0  0  0  0
  -27.7882  -25.8986   25.8046 O   0  0  0  0  0  0  0  0  0  0  0  0
  -24.8484  -27.3022   23.9119 O   0  0  0  0  0  0  0  0  0  0  0  0
  -22.1098  -23.5513   24.8873 O   0  0  0  0  0  0  0  0  0  0  0  0
  -31.9712  -14.2959   21.3193 O   0  0  0  0  0  0  0  0  0  0  0  0
  -21.7520   -6.9881   21.7415 O   0  0  0  0  0  0  0  0  0  0  0  0
  -27.4486  -19.3386   25.2077 O   0  0  0  0  0  0  0  0  0  1  0  0
  -18.7911   -6.7853   26.3886 F   0  0  0  0  0  0  0  0  0  0  0  0
  -22.2611   -5.0688   23.6650 F   0  0  0  0  0  0  0  0  0  0  0  0
  1  2  1  0  0  0  0
  1  5  2  0  0  0  0
  2  6  2  0  0  0  0
  3  8  2  0  0  0  0
  3 17  1  0  0  0  0
  4  9  1  0  0  0  0
  4 17  2  0  0  0  0
  5 19  1  0  0  0  0
  6 21  1  0  0  0  0
  7 10  2  0  0  0  0
  7 20  1  0  0  0  0
  8 23  1  0  0  0  0
  9 23  2  0  0  0  0
 10 24  1  0  0  0  0
 11 12  2  0  0  0  0
 11 25  1  0  0  0  0
 12 26  1  0  0  0  0
 13 16  2  0  0  0  0
 13 29  1  0  0  0  0
 14 22  1  0  0  0  0
 14 24  2  0  0  0  0
 15 26  2  0  0  0  0
 15 27  1  0  0  0  0
 16 67  1  0  0  0  0
 17 28  1  0  0  0  0
 18 28  1  0  0  0  0
 18 30  2  0  0  0  0
 18 32  1  0  0  0  0
 19 21  2  0  0  0  0
 19 37  1  0  0  0  0
 20 22  2  0  0  0  0
 20 38  1  0  0  0  0
 21 46  1  0  0  0  0
 22 39  1  0  0  0  0
 23 85  1  0  0  0  0
 24 86  1  0  0  0  0
 25 27  2  0  0  0  0
 25 85  1  0  0  0  0
 26 87  1  0  0  0  0
 27 88  1  0  0  0  0
 28 68  2  0  0  0  0
 29 69  2  0  0  0  0
 29 77  1  0  0  0  0
 30 70  1  0  0  0  0
 30 73  1  0  0  0  0
 31 59  1  0  0  0  0
 31 67  2  0  0  0  0
 31 69  1  0  0  0  0
 32 74  1  0  0  0  0
 32 80  2  0  0  0  0
 33 47  1  0  0  0  0
 33 75  1  0  0  0  0
 33 81  2  0  0  0  0
 34 62  1  0  0  0  0
 34 71  1  0  0  0  0
 34 82  2  0  0  0  0
 35 63  1  0  0  0  0
 35 76  1  0  0  0  0
 35 83  2  0  0  0  0
 36 72  1  0  0  0  0
 36 78  1  0  0  0  0
 36 84  2  0  0  0  0
 37 40  1  0  0  0  0
 38 47  1  0  0  0  0
 39 71  1  0  0  0  0
 40 42  1  0  0  0  0
 41 43  1  0  0  0  0
 41 44  1  0  0  0  0
 42 46  1  0  0  0  0
 43 48  1  0  0  0  0
 44 72  1  0  0  0  0
 45 48  1  0  0  0  0
 45 72  1  0  0  0  0
 46 75  1  0  0  0  0
 47 71  1  0  0  0  0
 48 70  1  0  0  0  0
 49 63  1  0  0  0  0
 50 64  1  0  0  0  0
 51 64  1  0  0  0  0
 52 65  1  0  0  0  0
 53 65  1  0  0  0  0
 54 65  1  0  0  0  0
 55 66  1  0  0  0  0
 56 66  1  0  0  0  0
 57 78  1  0  0  0  0
 58 79  1  0  0  0  0
 59 78  1  0  0  0  0
 60 66  1  0  0  0  0
 60 77  1  0  0  0  0
 61 66  1  0  0  0  0
 61 86  1  0  0  0  0
 62 65  1  0  0  0  0
 62 76  1  0  0  0  0
 63 79  1  0  0  0  0
 64 77  1  0  0  0  0
 68 70  1  0  0  0  0
M  CHG  1  79   1
M  ISO  4  36 100  61 101  78 100  86 101
M  END
> <Batch ID>
0064

> <Smiles>
CNC(C)C(=O)NC(C(=O)N1Cc2cc([101O:1][101CH2:1]C(C)(C)CN(c3ccnc(C[100N:0](C)[100C:0](=O)N4CCCC(n5nc(-c6ccc(Oc7ccc(F)cc7F)cc6)c(C(N)=O)c5N)C4)n3)C(C)C)ccc2CC1C(=O)NC1CCCc2ccccc21)C(C)(C)C

> <Shape>
0.172

> <Color>
0.170

> <Negative vol penalty>
0.000

$$$$

  -OEChem-04052318053D

 92100  0     1  0  0  0  0  0999 V2000
  -27.1923  -34.6917   24.9993 C   0  0  0  0  0  0  0  0  0  0  0  0
  -27.3329  -33.7190   24.0160 C   0  0  0  0  0  0  0  0  0  0  0  0
  -27.0178  -14.9568   19.4808 C   0  0  0  0  0  0  0  0  0  0  0  0
  -25.4583  -15.1073   21.3199 C   0  0  0  0  0  0  0  0  0  0  0  0
  -26.0782  -34.6759   25.8358 C   0  0  0  0  0  0  0  0  0  0  0  0
  -26.3536  -32.7373   23.8609 C   0  0  0  0  0  0  0  0  0  0  0  0
  -26.7983  -29.7279   19.9944 C   0  0  0  0  0  0  0  0  0  0  0  0
  -26.9995  -13.5656   19.5791 C   0  0  0  0  0  0  0  0  0  0  0  0
  -25.4400  -13.7160   21.4182 C   0  0  0  0  0  0  0  0  0  0  0  0
  -27.7754  -28.7362   19.9196 C   0  0  0  0  0  0  0  0  0  0  0  0
  -23.9830  -11.1259   19.8092 C   0  0  0  0  0  0  0  0  0  0  0  0
  -22.7429  -10.5044   19.9557 C   0  0  0  0  0  0  0  0  0  0  0  0
  -26.1118  -27.0669   20.4347 C   0  0  0  0  0  0  0  0  0  0  0  0
  -23.4607   -9.5696   22.0648 C   0  0  0  0  0  0  0  0  0  0  0  0
  -26.2472  -15.7277   20.3512 C   0  0  0  0  0  0  0  0  0  0  0  0
  -27.3815  -18.0123   20.3907 C   0  0  0  0  0  0  0  0  0  0  0  0
  -25.0914  -33.6857   25.6983 C   0  0  0  0  0  0  0  0  0  0  0  0
  -25.4705  -29.3973   20.3012 C   0  0  0  0  0  0  0  0  0  0  0  0
  -25.2099  -32.7185   24.6796 C   0  0  0  0  0  0  0  0  0  0  0  0
  -25.1193  -28.0560   20.5103 C   0  0  0  0  0  0  0  0  0  0  0  0
  -26.2106  -12.9452   20.5478 C   0  0  0  0  0  0  0  0  0  0  0  0
  -27.4328  -27.4058   20.1427 C   0  0  0  0  0  0  0  0  0  0  0  0
  -24.9620  -10.9692   20.7904 C   0  0  0  0  0  0  0  0  0  0  0  0
  -22.4818   -9.7262   21.0835 C   0  0  0  0  0  0  0  0  0  0  0  0
  -24.7008  -10.1911   21.9182 C   0  0  0  0  0  0  0  0  0  0  0  0
  -26.2661  -17.1649   20.2505 C   0  0  0  0  0  0  0  0  0  0  0  0
  -25.4122  -23.4029   15.4152 C   0  0  0  0  0  0  0  0  0  0  0  0
  -25.9615  -24.2052   16.3874 C   0  0  0  0  0  0  0  0  0  0  0  0
  -26.8772  -19.2767   20.2078 C   0  0  0  0  0  0  0  0  0  0  0  0
  -27.3898  -23.8271   14.7523 C   0  0  0  0  0  0  0  0  0  0  0  0
  -28.7510  -17.6858   20.6618 C   0  0  0  0  0  0  0  0  0  0  0  0
  -23.4645  -30.1252   22.6570 C   0  0  0  0  0  0  0  0  0  0  0  0
  -21.3344  -28.5122   20.8176 C   0  0  0  0  0  0  0  0  0  0  0  0
  -20.7865  -26.1707   18.3960 C   0  0  0  0  0  0  0  0  0  0  0  0
  -21.7426  -20.9459   17.3116 C   0  0  0  0  0  0  0  0  0  0  0  0
  -23.9021  -33.7204   26.6256 C   0  0  0  0  0  0  0  0  0  0  0  0
  -24.4232  -30.4757   20.3517 C   0  0  0  0  0  0  0  0  0  0  0  0
  -23.7041  -27.6463   20.8229 C   0  0  0  0  0  0  0  0  0  0  0  0
  -23.1499  -32.3946   26.6774 C   0  0  0  0  0  0  0  0  0  0  0  0
  -22.8738  -21.8348   20.7221 C   0  0  0  0  0  0  0  0  0  0  0  0
  -22.8663  -31.9023   25.2661 C   0  0  0  0  0  0  0  0  0  0  0  0
  -23.9172  -20.7588   21.0180 C   0  0  0  0  0  0  0  0  0  0  0  0
  -21.8097  -21.3401   19.7471 C   0  0  0  0  0  0  0  0  0  0  0  0
  -23.4060  -19.7233   18.7714 C   0  0  0  0  0  0  0  0  0  0  0  0
  -24.1727  -31.6228   24.5124 C   0  0  1  0  0  0  0  0  0  0  0  0
  -23.2020  -30.0843   21.1781 C   0  0  1  0  0  0  0  0  0  0  0  0
  -24.5187  -20.2047   19.7147 C   0  0  2  0  0  0  0  0  0  0  0  0
  -25.4171  -24.7302   17.6526 C   0  0  0  0  0  0  0  0  0  0  0  0
  -18.9373  -25.0418   17.1298 C   0  0  0  0  0  0  0  0  0  0  0  0
  -22.2074  -18.8344   15.1013 C   0  0  0  0  0  0  0  0  0  0  0  0
  -20.8962  -20.8424   14.3448 C   0  0  0  0  0  0  0  0  0  0  0  0
  -28.5639  -23.0799   12.6525 C   0  0  0  0  0  0  0  0  0  0  0  0
  -29.8581  -23.3246   14.7976 C   0  0  0  0  0  0  0  0  0  0  0  0
  -29.1051  -25.3363   13.5456 C   0  0  0  0  0  0  0  0  0  0  0  0
  -20.7053  -26.8025   23.2653 C   0  0  0  0  0  0  0  0  0  0  0  0
  -19.6124  -25.1449   21.7401 C   0  0  0  0  0  0  0  0  0  0  0  0
  -18.7080  -27.4633   21.9131 C   0  0  0  0  0  0  0  0  0  0  0  0
  -30.4768  -24.4285   19.7617 C   0  0  0  0  0  0  0  0  0  0  0  0
  -31.2111  -25.6267   17.6968 C   0  0  0  0  0  0  0  0  0  0  0  0
  -21.7833  -27.1900   15.8025 C   0  0  0  0  0  0  0  0  0  0  0  0
  -24.0634  -22.8167   15.3672 C   0  0  0  0  0  0  0  0  0  0  0  0
  -28.9040  -24.5537   17.8215 C   0  0  0  0  0  0  0  0  0  0  0  0
  -28.2591  -25.3153   16.6559 C   0  0  0  0  0  0  0  0  0  0  0  0
  -23.8816  -21.5705   16.2560 C   0  0  0  0  0  0  0  0  0  0  0  0
  -29.4762  -26.6618   19.1800 C   0  0  0  0  0  0  0  0  0  1  0  0
  -20.8940  -27.0726   20.7046 C   0  0  1  0  0  0  0  0  0  0  0  0
  -19.9261  -26.1971   17.1456 C   0  0  2  0  0  0  0  0  0  0  0  0
  -22.2239  -20.3447   14.9013 C   0  0  0  0  0  0  0  0  0  0  0  0
  -28.6500  -23.8982   13.9841 C   0  0  0  0  0  0  0  0  0  0  0  0
  -20.0070  -26.6284   21.9018 C   0  0  0  0  0  0  0  0  0  0  0  0
  -30.0019  -25.3304   18.6018 C   0  0  0  0  0  0  0  0  0  0  0  0
  -25.1383  -17.8345   19.9983 N   0  0  0  0  0  0  0  0  0  0  0  0
  -26.3065  -23.1710   14.4003 N   0  0  0  0  0  0  0  0  0  0  0  0
  -27.2287  -24.4684   15.9490 N   0  0  0  0  0  0  0  0  0  0  0  0
  -25.5423  -19.1161   19.9785 N   0  0  0  0  0  0  0  0  0  0  0  0
  -22.7173  -28.7379   20.8675 N   0  0  0  0  0  0  0  0  0  0  0  0
  -22.4101  -20.7794   18.5361 N   0  0  0  0  0  0  0  0  0  0  0  0
  -27.4498  -20.4992   20.2225 N   0  0  0  0  0  0  0  0  0  0  0  0
  -29.1706  -17.6212   21.9975 N   0  0  0  0  0  0  0  0  0  0  0  0
  -23.8693  -31.3617   23.1226 N   0  0  0  0  0  0  0  0  0  0  0  0
  -20.2484  -26.9443   19.4026 N   0  0  0  0  0  0  0  0  0  0  0  0
  -22.5353  -21.0248   16.1566 N   0  0  0  0  0  0  0  0  0  0  0  0
  -20.7795  -26.1019   15.9276 N   0  3  0  0  0  0  0  0  0  0  0  0
  -29.5820  -17.4740   19.7463 O   0  0  0  0  0  0  0  0  0  0  0  0
  -23.3098  -29.1104   23.3263 O   0  0  0  0  0  0  0  0  0  0  0  0
  -20.4829  -29.4040   20.8530 O   0  0  0  0  0  0  0  0  0  0  0  0
  -21.8295  -25.5252   18.4735 O   0  0  0  0  0  0  0  0  0  0  0  0
  -20.5090  -21.0293   17.2550 O   0  0  0  0  0  0  0  0  0  0  0  0
  -26.1923  -11.5876   20.6438 O   0  0  0  0  0  0  0  0  0  0  0  0
  -28.3846  -26.4359   20.0709 O   0  0  0  0  0  0  0  0  0  1  0  0
  -21.2903   -9.1307   21.2248 F   0  0  0  0  0  0  0  0  0  0  0  0
  -25.6369  -10.0379   22.8647 F   0  0  0  0  0  0  0  0  0  0  0  0
  1  2  1  0  0  0  0
  1  5  2  0  0  0  0
  2  6  2  0  0  0  0
  3  8  2  0  0  0  0
  3 15  1  0  0  0  0
  4  9  1  0  0  0  0
  4 15  2  0  0  0  0
  5 17  1  0  0  0  0
  6 19  1  0  0  0  0
  7 10  2  0  0  0  0
  7 18  1  0  0  0  0
  8 21  1  0  0  0  0
  9 21  2  0  0  0  0
 10 22  1  0  0  0  0
 11 12  2  0  0  0  0
 11 23  1  0  0  0  0
 12 24  1  0  0  0  0
 13 20  1  0  0  0  0
 13 22  2  0  0  0  0
 14 24  2  0  0  0  0
 14 25  1  0  0  0  0
 15 26  1  0  0  0  0
 16 26  1  0  0  0  0
 16 29  2  0  0  0  0
 16 31  1  0  0  0  0
 17 19  2  0  0  0  0
 17 36  1  0  0  0  0
 18 20  2  0  0  0  0
 18 37  1  0  0  0  0
 19 45  1  0  0  0  0
 20 38  1  0  0  0  0
 21 89  1  0  0  0  0
 22 90  1  0  0  0  0
 23 25  2  0  0  0  0
 23 89  1  0  0  0  0
 24 91  1  0  0  0  0
 25 92  1  0  0  0  0
 26 72  2  0  0  0  0
 27 28  2  0  0  0  0
 27 61  1  0  0  0  0
 27 73  1  0  0  0  0
 28 48  1  0  0  0  0
 28 74  1  0  0  0  0
 29 75  1  0  0  0  0
 29 78  1  0  0  0  0
 30 69  1  0  0  0  0
 30 73  2  0  0  0  0
 30 74  1  0  0  0  0
 31 79  1  0  0  0  0
 31 84  2  0  0  0  0
 32 46  1  0  0  0  0
 32 80  1  0  0  0  0
 32 85  2  0  0  0  0
 33 66  1  0  0  0  0
 33 76  1  0  0  0  0
 33 86  2  0  0  0  0
 34 67  1  0  0  0  0
 34 81  1  0  0  0  0
 34 87  2  0  0  0  0
 35 77  1  0  0  0  0
 35 82  1  0  0  0  0
 35 88  2  0  0  0  0
 36 39  1  0  0  0  0
 37 46  1  0  0  0  0
 38 76  1  0  0  0  0
 39 41  1  0  0  0  0
 40 42  1  0  0  0  0
 40 43  1  0  0  0  0
 41 45  1  0  0  0  0
 42 47  1  0  0  0  0
 43 77  1  0  0  0  0
 44 47  1  0  0  0  0
 44 77  1  0  0  0  0
 45 80  1  0  0  0  0
 46 76  1  0  0  0  0
 47 75  1  0  0  0  0
 49 67  1  0  0  0  0
 50 68  1  0  0  0  0
 51 68  1  0  0  0  0
 52 69  1  0  0  0  0
 53 69  1  0  0  0  0
 54 69  1  0  0  0  0
 55 70  1  0  0  0  0
 56 70  1  0  0  0  0
 57 70  1  0  0  0  0
 58 71  1  0  0  0  0
 59 71  1  0  0  0  0
 60 83  1  0  0  0  0
 61 64  1  0  0  0  0
 62 63  1  0  0  0  0
 62 71  1  0  0  0  0
 63 74  1  0  0  0  0
 64 82  1  0  0  0  0
 65 71  1  0  0  0  0
 65 90  1  0  0  0  0
 66 70  1  0  0  0  0
 66 81  1  0  0  0  0
 67 83  1  0  0  0  0
 68 82  1  0  0  0  0
 72 75  1  0  0  0  0
M  CHG  1  83   1
M  ISO  4  35 100  65 101  82 100  90 101
M  END
> <Batch ID>
0064

> <Smiles>
CNC(C)C(=O)NC(C(=O)N1Cc2cc([101O:1][101CH2:1]C(C)(C)CCn3c(C(C)(C)C)nc(CC[100N:0](C(C)C)[100C:0](=O)N4CCCC(n5nc(-c6ccc(Oc7ccc(F)cc7F)cc6)c(C(N)=O)c5N)C4)c3C)ccc2CC1C(=O)NC1CCCc2ccccc21)C(C)(C)C

> <Shape>
0.263

> <Color>
0.084

> <Negative vol penalty>
0.000

$$$$

  -OEChem-04052318053D

 90 98  0     1  0  0  0  0  0999 V2000
  -21.6472   -8.4858   17.9537 C   0  0  0  0  0  0  0  0  0  0  0  0
  -21.1580   -9.7387   17.5984 C   0  0  0  0  0  0  0  0  0  0  0  0
  -21.9028  -27.5959   21.4739 C   0  0  0  0  0  0  0  0  0  0  0  0
  -23.4795  -26.9081   23.1703 C   0  0  0  0  0  0  0  0  0  0  0  0
  -22.3622   -8.3287   19.1403 C   0  0  0  0  0  0  0  0  0  0  0  0
  -21.3825  -10.8352   18.4301 C   0  0  0  0  0  0  0  0  0  0  0  0
  -22.4849  -17.9085   18.1672 C   0  0  0  0  0  0  0  0  0  0  0  0
  -21.0178  -26.6029   21.8938 C   0  0  0  0  0  0  0  0  0  0  0  0
  -22.5945  -25.9151   23.5902 C   0  0  0  0  0  0  0  0  0  0  0  0
  -21.9961  -19.0957   18.7108 C   0  0  0  0  0  0  0  0  0  0  0  0
  -20.5998  -23.4326   25.3442 C   0  0  0  0  0  0  0  0  0  0  0  0
  -20.3969  -23.2814   26.7159 C   0  0  0  0  0  0  0  0  0  0  0  0
  -23.3126  -18.7210   20.6972 C   0  0  0  0  0  0  0  0  0  0  0  0
  -19.5922  -25.5557   26.8475 C   0  0  0  0  0  0  0  0  0  0  0  0
  -27.0986  -23.8746   21.3670 C   0  0  0  0  0  0  0  0  0  0  0  0
  -26.3408  -23.3760   18.8561 C   0  0  0  0  0  0  0  0  0  0  0  0
  -23.1337  -27.7485   22.1122 C   0  0  0  0  0  0  0  0  0  0  0  0
  -24.1236  -30.0993   22.1464 C   0  0  0  0  0  0  0  0  0  0  0  0
  -22.6039   -9.4257   19.9822 C   0  0  0  0  0  0  0  0  0  0  0  0
  -23.3843  -17.1118   18.8902 C   0  0  0  0  0  0  0  0  0  0  0  0
  -22.1003  -10.6924   19.6297 C   0  0  0  0  0  0  0  0  0  0  0  0
  -23.8133  -17.5255   20.1595 C   0  0  0  0  0  0  0  0  0  0  0  0
  -21.3636  -25.7625   22.9520 C   0  0  0  0  0  0  0  0  0  0  0  0
  -22.4077  -19.5007   19.9772 C   0  0  0  0  0  0  0  0  0  0  0  0
  -20.2990  -24.6453   24.7241 C   0  0  0  0  0  0  0  0  0  0  0  0
  -19.8931  -24.3429   27.4676 C   0  0  0  0  0  0  0  0  0  0  0  0
  -19.7952  -25.7068   25.4758 C   0  0  0  0  0  0  0  0  0  0  0  0
  -24.0485  -28.7738   21.6785 C   0  0  0  0  0  0  0  0  0  0  0  0
  -28.0182  -23.8310   20.3424 C   0  0  0  0  0  0  0  0  0  0  0  0
  -25.4212  -23.4189   19.8808 C   0  0  0  0  0  0  0  0  0  0  0  0
  -25.1476  -30.6611   21.4237 C   0  0  0  0  0  0  0  0  0  0  0  0
  -23.3381  -30.7635   23.1452 C   0  0  0  0  0  0  0  0  0  0  0  0
  -23.3294  -14.1519   20.0475 C   0  0  0  0  0  0  0  0  0  0  0  0
  -26.4220  -14.7987   20.7823 C   0  0  0  0  0  0  0  0  0  0  0  0
  -29.9004  -28.2433   18.6529 C   0  0  0  0  0  0  0  0  0  0  0  0
  -28.8153  -17.1420   21.4366 C   0  0  0  0  0  0  0  0  0  0  0  0
  -23.3413   -9.1977   21.2780 C   0  0  0  0  0  0  0  0  0  0  0  0
  -23.9228  -15.8475   18.2787 C   0  0  0  0  0  0  0  0  0  0  0  0
  -24.7930  -16.7164   20.9681 C   0  0  0  0  0  0  0  0  0  0  0  0
  -23.8582  -10.4831   21.9189 C   0  0  0  0  0  0  0  0  0  0  0  0
  -27.3814  -30.3460   17.2131 C   0  0  0  0  0  0  0  0  0  0  0  0
  -22.7708  -11.5528   21.9223 C   0  0  0  0  0  0  0  0  0  0  0  0
  -26.2371  -30.2789   18.2236 C   0  0  0  0  0  0  0  0  0  0  0  0
  -28.1217  -29.0155   17.1186 C   0  0  0  0  0  0  0  0  0  0  0  0
  -27.4899  -28.4422   19.4410 C   0  0  0  0  0  0  0  0  0  0  0  0
  -22.3447  -11.9108   20.4934 C   0  0  1  0  0  0  0  0  0  0  0  0
  -24.4380  -14.8544   19.3159 C   0  0  1  0  0  0  0  0  0  0  0  0
  -26.7350  -29.7750   19.5899 C   0  0  2  0  0  0  0  0  0  0  0  0
  -31.2408  -17.3650   22.0400 C   0  0  0  0  0  0  0  0  0  0  0  0
  -29.0984  -26.4205   21.9112 C   0  0  0  0  0  0  0  0  0  0  0  0
  -30.2574  -22.7966   20.1894 C   0  0  0  0  0  0  0  0  0  0  0  0
  -31.7842  -27.4955   20.0556 C   0  0  0  0  0  0  0  0  0  0  0  0
  -29.9853  -28.9767   20.9681 C   0  0  0  0  0  0  0  0  0  0  0  0
  -25.7814  -13.9779   23.6503 C   0  0  0  0  0  0  0  0  0  0  0  0
  -27.8997  -15.1012   24.3711 C   0  0  0  0  0  0  0  0  0  0  0  0
  -27.9887  -13.1650   22.8008 C   0  0  0  0  0  0  0  0  0  0  0  0
  -29.8495  -25.2173   18.4881 C   0  0  0  0  0  0  0  0  0  0  0  0
  -29.4114  -18.6526   18.9625 C   0  0  0  0  0  0  0  0  0  0  0  0
  -21.7760  -23.0542   20.2681 C   0  0  0  0  0  0  0  0  0  0  0  0
  -21.5905  -21.7017   19.5983 C   0  0  0  0  0  0  0  0  0  1  0  0
  -23.2073  -23.2659   20.7358 C   0  0  0  0  0  0  0  0  0  0  0  0
  -27.1361  -15.3957   21.9708 C   0  0  1  0  0  0  0  0  0  0  0  0
  -30.2275  -17.3144   20.9072 C   0  0  2  0  0  0  0  0  0  0  0  0
  -29.3970  -26.5519   20.4142 C   0  0  1  0  0  0  0  0  0  0  0  0
  -29.4637  -24.0624   20.6142 C   0  0  1  0  0  0  0  0  0  0  0  0
  -30.2750  -27.7852   20.0399 C   0  0  0  0  0  0  0  0  0  0  0  0
  -27.1815  -14.4245   23.1841 C   0  0  0  0  0  0  0  0  0  0  0  0
  -27.6558  -23.5813   19.0685 N   0  0  0  0  0  0  0  0  0  0  0  0
  -25.7836  -23.6690   21.1547 N   0  0  0  0  0  0  0  0  0  0  0  0
  -24.9526  -28.5092   20.7316 N   0  0  0  0  0  0  0  0  0  0  0  0
  -25.6055  -29.6763   20.5986 N   0  0  0  0  0  0  0  0  0  0  0  0
  -25.2861  -15.4848   20.3296 N   0  0  0  0  0  0  0  0  0  0  0  0
  -28.5587  -28.5600   18.4395 N   0  0  0  0  0  0  0  0  0  0  0  0
  -25.6919  -31.8964   21.4197 N   0  0  0  0  0  0  0  0  0  0  0  0
  -22.3267  -30.0391   23.7906 N   0  0  0  0  0  0  0  0  0  0  0  0
  -23.3235  -12.7806   19.8770 N   0  0  0  0  0  0  0  0  0  0  0  0
  -28.4487  -15.8138   21.4906 N   0  0  0  0  0  0  0  0  0  0  0  0
  -29.9990  -25.2994   19.9479 N   0  0  1  0  0  0  0  0  0  0  0  0
  -30.3360  -18.5769   20.1228 N   0  3  0  0  0  0  0  0  0  0  0  0
  -23.5168  -31.9685   23.4445 O   0  0  0  0  0  0  0  0  0  0  0  0
  -22.5389  -14.8053   20.7181 O   0  0  0  0  0  0  0  0  0  0  0  0
  -26.8601  -13.7658   20.2698 O   0  0  0  0  0  0  0  0  0  0  0  0
  -30.7761  -28.3195   17.7871 O   0  0  0  0  0  0  0  0  0  0  0  0
  -28.1093  -18.0903   21.7725 O   0  0  0  0  0  0  0  0  0  0  0  0
  -20.5002  -24.7935   23.3621 O   0  0  0  0  0  0  0  0  0  0  0  0
  -21.9317  -20.6586   20.5104 O   0  0  0  0  0  0  0  0  0  1  0  0
  -24.0918  -23.2048   19.6250 O   0  0  0  0  0  0  0  0  0  0  0  0
  -19.6969  -24.1972   28.7845 F   0  0  0  0  0  0  0  0  0  0  0  0
  -19.5032  -26.8739   24.8854 F   0  0  0  0  0  0  0  0  0  0  0  0
  -29.7507  -24.1962   21.9667 F   0  0  0  0  0  0  0  0  0  0  0  0
  1  2  1  0  0  0  0
  1  5  2  0  0  0  0
  2  6  2  0  0  0  0
  3  8  2  0  0  0  0
  3 17  1  0  0  0  0
  4  9  1  0  0  0  0
  4 17  2  0  0  0  0
  5 19  1  0  0  0  0
  6 21  1  0  0  0  0
  7 10  2  0  0  0  0
  7 20  1  0  0  0  0
  8 23  1  0  0  0  0
  9 23  2  0  0  0  0
 10 24  1  0  0  0  0
 11 12  2  0  0  0  0
 11 25  1  0  0  0  0
 12 26  1  0  0  0  0
 13 22  1  0  0  0  0
 13 24  2  0  0  0  0
 14 26  2  0  0  0  0
 14 27  1  0  0  0  0
 15 29  2  0  0  0  0
 15 69  1  0  0  0  0
 16 30  1  0  0  0  0
 16 68  2  0  0  0  0
 17 28  1  0  0  0  0
 18 28  1  0  0  0  0
 18 31  2  0  0  0  0
 18 32  1  0  0  0  0
 19 21  2  0  0  0  0
 19 37  1  0  0  0  0
 20 22  2  0  0  0  0
 20 38  1  0  0  0  0
 21 46  1  0  0  0  0
 22 39  1  0  0  0  0
 23 85  1  0  0  0  0
 24 86  1  0  0  0  0
 25 27  2  0  0  0  0
 25 85  1  0  0  0  0
 26 88  1  0  0  0  0
 27 89  1  0  0  0  0
 28 70  2  0  0  0  0
 29 65  1  0  0  0  0
 29 68  1  0  0  0  0
 30 69  2  0  0  0  0
 30 87  1  0  0  0  0
 31 71  1  0  0  0  0
 31 74  1  0  0  0  0
 32 75  1  0  0  0  0
 32 80  2  0  0  0  0
 33 47  1  0  0  0  0
 33 76  1  0  0  0  0
 33 81  2  0  0  0  0
 34 62  1  0  0  0  0
 34 72  1  0  0  0  0
 34 82  2  0  0  0  0
 35 66  1  0  0  0  0
 35 73  1  0  0  0  0
 35 83  2  0  0  0  0
 36 63  1  0  0  0  0
 36 77  1  0  0  0  0
 36 84  2  0  0  0  0
 37 40  1  0  0  0  0
 38 47  1  0  0  0  0
 39 72  1  0  0  0  0
 40 42  1  0  0  0  0
 41 43  1  0  0  0  0
 41 44  1  0  0  0  0
 42 46  1  0  0  0  0
 43 48  1  0  0  0  0
 44 73  1  0  0  0  0
 45 48  1  0  0  0  0
 45 73  1  0  0  0  0
 46 76  1  0  0  0  0
 47 72  1  0  0  0  0
 48 71  1  0  0  0  0
 49 63  1  0  0  0  0
 50 64  1  0  0  0  0
 51 65  1  0  0  0  0
 52 66  1  0  0  0  0
 53 66  1  0  0  0  0
 54 67  1  0  0  0  0
 55 67  1  0  0  0  0
 56 67  1  0  0  0  0
 57 78  1  0  0  0  0
 58 79  1  0  0  0  0
 59 60  1  0  0  0  0
 59 61  1  0  0  0  0
 60 86  1  0  0  0  0
 61 87  1  0  0  0  0
 62 67  1  0  0  0  0
 62 77  1  0  0  0  0
 63 79  1  0  0  0  0
 64 66  1  0  0  0  0
 64 78  1  0  0  0  0
 65 78  1  0  0  0  0
 65 90  1  0  0  0  0
 70 71  1  0  0  0  0
M  CHG  1  79   1
M  ISO  4  35 100  60 101  66 100  86 101
M  END
> <Batch ID>
0064

> <Smiles>
CNC(C)C(=O)NC(C(=O)N1Cc2cc([101O:1][101CH2:1]CCOc3cnc(C(C)(F)N(C)C(C)[100C:0](C)(C)[100C:0](=O)N4CCCC(n5nc(-c6ccc(Oc7ccc(F)cc7F)cc6)c(C(N)=O)c5N)C4)cn3)ccc2CC1C(=O)NC1CCCc2ccccc21)C(C)(C)C

> <Shape>
0.225

> <Color>
0.050

> <Negative vol penalty>
0.000

$$$$

  -OEChem-04052318053D

 85 93  0     1  0  0  0  0  0999 V2000
  -20.2441  -34.3794   23.2650 C   0  0  0  0  0  0  0  0  0  0  0  0
  -21.4987  -33.9407   22.8541 C   0  0  0  0  0  0  0  0  0  0  0  0
  -26.9005  -14.3834   23.1649 C   0  0  0  0  0  0  0  0  0  0  0  0
  -25.9592  -14.5712   20.9478 C   0  0  0  0  0  0  0  0  0  0  0  0
  -19.3681  -33.4941   23.8917 C   0  0  0  0  0  0  0  0  0  0  0  0
  -21.8784  -32.6165   23.0705 C   0  0  0  0  0  0  0  0  0  0  0  0
  -25.3917  -29.1539   19.4410 C   0  0  0  0  0  0  0  0  0  0  0  0
  -25.9305  -13.4377   23.4967 C   0  0  0  0  0  0  0  0  0  0  0  0
  -24.9891  -13.6255   21.2796 C   0  0  0  0  0  0  0  0  0  0  0  0
  -26.7460  -28.8256   19.4825 C   0  0  0  0  0  0  0  0  0  0  0  0
  -24.7850  -10.2645   21.5671 C   0  0  0  0  0  0  0  0  0  0  0  0
  -24.5231   -9.2548   20.6412 C   0  0  0  0  0  0  0  0  0  0  0  0
  -26.2060  -26.7670   20.6182 C   0  0  0  0  0  0  0  0  0  0  0  0
  -22.2237   -9.9825   20.4980 C   0  0  0  0  0  0  0  0  0  0  0  0
  -28.6534  -25.1644   17.6751 C   0  0  0  0  0  0  0  0  0  0  0  0
  -26.9149  -14.9502   21.8905 C   0  0  0  0  0  0  0  0  0  0  0  0
  -29.1851  -15.6844   20.9878 C   0  0  0  0  0  0  0  0  0  0  0  0
  -19.7335  -32.1560   24.1072 C   0  0  0  0  0  0  0  0  0  0  0  0
  -24.4337  -28.2949   19.9985 C   0  0  0  0  0  0  0  0  0  0  0  0
  -21.0070  -31.7128   23.7018 C   0  0  0  0  0  0  0  0  0  0  0  0
  -24.8400  -27.0855   20.5802 C   0  0  0  0  0  0  0  0  0  0  0  0
  -24.9747  -13.0587   22.5541 C   0  0  0  0  0  0  0  0  0  0  0  0
  -27.1537  -27.6334   20.0737 C   0  0  0  0  0  0  0  0  0  0  0  0
  -23.7663  -11.1332   21.9586 C   0  0  0  0  0  0  0  0  0  0  0  0
  -23.2425   -9.1138   20.1066 C   0  0  0  0  0  0  0  0  0  0  0  0
  -22.4857  -10.9923   21.4240 C   0  0  0  0  0  0  0  0  0  0  0  0
  -27.9164  -15.9276   21.5473 C   0  0  0  0  0  0  0  0  0  0  0  0
  -29.8327  -25.4306   18.3245 C   0  0  0  0  0  0  0  0  0  0  0  0
  -29.7462  -16.9309   20.8543 C   0  0  0  0  0  0  0  0  0  0  0  0
  -29.8013  -14.4427   20.6214 C   0  0  0  0  0  0  0  0  0  0  0  0
  -22.3083  -28.5296   22.3503 C   0  0  0  0  0  0  0  0  0  0  0  0
  -21.3799  -25.6124   21.2777 C   0  0  0  0  0  0  0  0  0  0  0  0
  -22.1890  -22.7458   19.6120 C   0  0  0  0  0  0  0  0  0  0  0  0
  -27.4097  -22.4154   20.2949 C   0  0  0  0  0  0  0  0  0  0  0  0
  -18.7710  -31.2482   24.8312 C   0  0  0  0  0  0  0  0  0  0  0  0
  -22.9743  -28.6509   19.9218 C   0  0  0  0  0  0  0  0  0  0  0  0
  -23.8493  -26.1193   21.1748 C   0  0  0  0  0  0  0  0  0  0  0  0
  -19.1057  -29.7658   24.6863 C   0  0  0  0  0  0  0  0  0  0  0  0
  -29.6733  -21.2986   22.8060 C   0  0  0  0  0  0  0  0  0  0  0  0
  -20.5930  -29.5284   24.9276 C   0  0  0  0  0  0  0  0  0  0  0  0
  -29.5942  -19.7735   22.7176 C   0  0  0  0  0  0  0  0  0  0  0  0
  -28.3154  -21.9497   22.5531 C   0  0  0  0  0  0  0  0  0  0  0  0
  -27.5802  -20.0206   21.2071 C   0  0  0  0  0  0  0  0  0  0  0  0
  -21.4457  -30.2777   23.8966 C   0  0  1  0  0  0  0  0  0  0  0  0
  -22.1305  -27.9440   20.9780 C   0  0  1  0  0  0  0  0  0  0  0  0
  -28.9369  -19.3215   21.3997 C   0  0  2  0  0  0  0  0  0  0  0  0
  -21.2346  -20.5273   18.9304 C   0  0  0  0  0  0  0  0  0  0  0  0
  -27.0782  -20.8689   15.6228 C   0  0  0  0  0  0  0  0  0  0  0  0
  -29.2545  -22.0235   15.2608 C   0  0  0  0  0  0  0  0  0  0  0  0
  -31.3387  -27.4193   17.6493 C   0  0  0  0  0  0  0  0  0  0  0  0
  -31.3000  -26.6019   19.9962 C   0  0  0  0  0  0  0  0  0  0  0  0
  -21.7088  -24.5955   24.1357 C   0  0  0  0  0  0  0  0  0  0  0  0
  -21.6798  -22.2601   23.2340 C   0  0  0  0  0  0  0  0  0  0  0  0
  -19.6855  -23.7308   22.9471 C   0  0  0  0  0  0  0  0  0  0  0  0
  -22.5391  -23.3481   16.7356 C   0  0  0  0  0  0  0  0  0  0  0  0
  -26.4937  -22.7204   18.0086 C   0  0  0  0  0  0  0  0  0  0  0  0
  -29.2971  -27.7989   19.0567 C   0  0  0  0  0  0  0  0  0  1  0  0
  -21.7675  -24.1865   21.5871 C   0  0  1  0  0  0  0  0  0  0  0  0
  -21.4645  -21.9745   18.5236 C   0  0  2  0  0  0  0  0  0  0  0  0
  -28.1824  -21.6848   16.3085 C   0  0  0  0  0  0  0  0  0  0  0  0
  -27.6241  -22.9748   16.9882 C   0  0  2  0  0  0  0  0  0  0  0  0
  -30.4295  -26.7906   18.7325 C   0  0  0  0  0  0  0  0  0  0  0  0
  -21.2295  -23.7121   22.9666 C   0  0  0  0  0  0  0  0  0  0  0  0
  -27.6849  -17.2266   21.7551 N   0  0  0  0  0  0  0  0  0  0  0  0
  -30.4802  -24.2583   18.6000 N   0  0  0  0  0  0  0  0  0  0  0  0
  -29.7341  -23.2612   18.1371 N   0  0  0  0  0  0  0  0  0  0  0  0
  -28.6393  -23.8066   17.5828 N   0  0  0  0  0  0  0  0  0  0  0  0
  -28.8158  -17.8107   21.3239 N   0  0  0  0  0  0  0  0  0  0  0  0
  -22.4344  -26.5152   21.0809 N   0  0  0  0  0  0  0  0  0  0  0  0
  -27.7470  -21.4802   21.2872 N   0  0  0  0  0  0  0  0  0  0  0  0
  -30.9397  -17.3493   20.3822 N   0  0  0  0  0  0  0  0  0  0  0  0
  -29.0850  -13.2555   20.8258 N   0  0  0  0  0  0  0  0  0  0  0  0
  -21.4466  -29.5723   22.6330 N   0  0  0  0  0  0  0  0  0  0  0  0
  -21.3077  -23.3845   20.4585 N   0  0  0  0  0  0  0  0  0  0  0  0
  -26.8829  -21.8857   19.1233 N   0  0  0  0  0  0  0  0  0  0  0  0
  -22.2589  -21.9878   17.2628 N   0  3  0  0  0  0  0  0  0  0  0  0
  -30.9594  -14.3864   20.1427 O   0  0  0  0  0  0  0  0  0  0  0  0
  -23.1628  -28.0686   23.0979 O   0  0  0  0  0  0  0  0  0  0  0  0
  -20.1856  -25.9125   21.2061 O   0  0  0  0  0  0  0  0  0  0  0  0
  -23.4142  -22.7754   19.7044 O   0  0  0  0  0  0  0  0  0  0  0  0
  -27.5714  -23.6318   20.4401 O   0  0  0  0  0  0  0  0  0  0  0  0
  -24.0281  -12.1357   22.8774 O   0  0  0  0  0  0  0  0  0  0  0  0
  -28.4750  -27.3108   20.1161 O   0  0  0  0  0  0  0  0  0  1  0  0
  -22.9914   -8.1451   19.2162 F   0  0  0  0  0  0  0  0  0  0  0  0
  -21.5032  -11.8246   21.7953 F   0  0  0  0  0  0  0  0  0  0  0  0
  1  2  1  0  0  0  0
  1  5  2  0  0  0  0
  2  6  2  0  0  0  0
  3  8  2  0  0  0  0
  3 16  1  0  0  0  0
  4  9  1  0  0  0  0
  4 16  2  0  0  0  0
  5 18  1  0  0  0  0
  6 20  1  0  0  0  0
  7 10  2  0  0  0  0
  7 19  1  0  0  0  0
  8 22  1  0  0  0  0
  9 22  2  0  0  0  0
 10 23  1  0  0  0  0
 11 12  2  0  0  0  0
 11 24  1  0  0  0  0
 12 25  1  0  0  0  0
 13 21  1  0  0  0  0
 13 23  2  0  0  0  0
 14 25  2  0  0  0  0
 14 26  1  0  0  0  0
 15 28  2  0  0  0  0
 15 67  1  0  0  0  0
 16 27  1  0  0  0  0
 17 27  1  0  0  0  0
 17 29  2  0  0  0  0
 17 30  1  0  0  0  0
 18 20  2  0  0  0  0
 18 35  1  0  0  0  0
 19 21  2  0  0  0  0
 19 36  1  0  0  0  0
 20 44  1  0  0  0  0
 21 37  1  0  0  0  0
 22 82  1  0  0  0  0
 23 83  1  0  0  0  0
 24 26  2  0  0  0  0
 24 82  1  0  0  0  0
 25 84  1  0  0  0  0
 26 85  1  0  0  0  0
 27 64  2  0  0  0  0
 28 62  1  0  0  0  0
 28 65  1  0  0  0  0
 29 68  1  0  0  0  0
 29 71  1  0  0  0  0
 30 72  1  0  0  0  0
 30 77  2  0  0  0  0
 31 45  1  0  0  0  0
 31 73  1  0  0  0  0
 31 78  2  0  0  0  0
 32 58  1  0  0  0  0
 32 69  1  0  0  0  0
 32 79  2  0  0  0  0
 33 59  1  0  0  0  0
 33 74  1  0  0  0  0
 33 80  2  0  0  0  0
 34 70  1  0  0  0  0
 34 75  1  0  0  0  0
 34 81  2  0  0  0  0
 35 38  1  0  0  0  0
 36 45  1  0  0  0  0
 37 69  1  0  0  0  0
 38 40  1  0  0  0  0
 39 41  1  0  0  0  0
 39 42  1  0  0  0  0
 40 44  1  0  0  0  0
 41 46  1  0  0  0  0
 42 70  1  0  0  0  0
 43 46  1  0  0  0  0
 43 70  1  0  0  0  0
 44 73  1  0  0  0  0
 45 69  1  0  0  0  0
 46 68  1  0  0  0  0
 47 59  1  0  0  0  0
 48 60  1  0  0  0  0
 49 60  1  0  0  0  0
 50 62  1  0  0  0  0
 51 62  1  0  0  0  0
 52 63  1  0  0  0  0
 53 63  1  0  0  0  0
 54 63  1  0  0  0  0
 55 76  1  0  0  0  0
 56 61  1  0  0  0  0
 56 75  1  0  0  0  0
 57 62  1  0  0  0  0
 57 83  1  0  0  0  0
 58 63  1  0  0  0  0
 58 74  1  0  0  0  0
 59 76  1  0  0  0  0
 60 61  1  0  0  0  0
 61 67  1  0  0  0  0
 64 68  1  0  0  0  0
 65 66  2  0  0  0  0
 66 67  1  0  0  0  0
M  CHG  1  76   1
M  ISO  4  34 100  57 101  75 100  83 101
M  END
> <Batch ID>
0064

> <Smiles>
CNC(C)C(=O)NC(C(=O)N1Cc2cc([101O:1][101CH2:1]C(C)(C)c3cn(C(C[100NH:0][100C:0](=O)N4CCCC(n5nc(-c6ccc(Oc7ccc(F)cc7F)cc6)c(C(N)=O)c5N)C4)C(C)C)nn3)ccc2CC1C(=O)NC1CCCc2ccccc21)C(C)(C)C

> <Shape>
0.240

> <Color>
0.090

> <Negative vol penalty>
0.000

$$$$

  -OEChem-04052318053D

 93101  0     1  0  0  0  0  0999 V2000
  -30.2624  -21.6298   15.6490 C   0  0  0  0  0  0  0  0  0  0  0  0
  -29.9552  -21.6824   17.0048 C   0  0  0  0  0  0  0  0  0  0  0  0
  -23.7557  -12.6484   22.7247 C   0  0  0  0  0  0  0  0  0  0  0  0
  -23.1866  -14.2686   21.0253 C   0  0  0  0  0  0  0  0  0  0  0  0
  -30.3946  -22.8103   14.9190 C   0  0  0  0  0  0  0  0  0  0  0  0
  -29.7812  -22.9157   17.6318 C   0  0  0  0  0  0  0  0  0  0  0  0
  -25.7224  -23.0005   20.6590 C   0  0  0  0  0  0  0  0  0  0  0  0
  -22.9375  -13.3164   23.6356 C   0  0  0  0  0  0  0  0  0  0  0  0
  -22.3683  -14.9367   21.9362 C   0  0  0  0  0  0  0  0  0  0  0  0
  -25.8462  -22.3916   21.9071 C   0  0  0  0  0  0  0  0  0  0  0  0
  -23.1081  -16.0782   25.5768 C   0  0  0  0  0  0  0  0  0  0  0  0
  -23.6115  -16.2981   26.8588 C   0  0  0  0  0  0  0  0  0  0  0  0
  -26.1880  -24.5536   22.9212 C   0  0  0  0  0  0  0  0  0  0  0  0
  -21.7853  -15.0227   27.7946 C   0  0  0  0  0  0  0  0  0  0  0  0
  -31.5394  -18.4093   25.9409 C   0  0  0  0  0  0  0  0  0  0  0  0
  -23.8803  -13.1245   21.4195 C   0  0  0  0  0  0  0  0  0  0  0  0
  -24.3555  -11.3926   19.6078 C   0  0  0  0  0  0  0  0  0  0  0  0
  -30.2125  -24.0584   15.5352 C   0  0  0  0  0  0  0  0  0  0  0  0
  -25.8416  -24.3918   20.5309 C   0  0  0  0  0  0  0  0  0  0  0  0
  -29.9124  -24.1140   16.9097 C   0  0  0  0  0  0  0  0  0  0  0  0
  -26.0628  -25.1779   21.6707 C   0  0  0  0  0  0  0  0  0  0  0  0
  -22.2438  -14.4605   23.2414 C   0  0  0  0  0  0  0  0  0  0  0  0
  -26.0819  -23.1679   23.0380 C   0  0  0  0  0  0  0  0  0  0  0  0
  -21.9432  -15.3306   25.4036 C   0  0  0  0  0  0  0  0  0  0  0  0
  -22.9502  -15.7703   27.9678 C   0  0  0  0  0  0  0  0  0  0  0  0
  -21.2819  -14.8029   26.5125 C   0  0  0  0  0  0  0  0  0  0  0  0
  -24.7258  -12.4352   20.4782 C   0  0  0  0  0  0  0  0  0  0  0  0
  -32.3956  -17.9696   24.9520 C   0  0  0  0  0  0  0  0  0  0  0  0
  -30.4303  -17.6194   26.1650 C   0  0  0  0  0  0  0  0  0  0  0  0
  -25.5092  -11.0864   18.9283 C   0  0  0  0  0  0  0  0  0  0  0  0
  -31.0775  -16.1632   24.5439 C   0  0  0  0  0  0  0  0  0  0  0  0
  -23.0824  -10.7576   19.4294 C   0  0  0  0  0  0  0  0  0  0  0  0
  -27.8278  -26.3410   18.9949 C   0  0  0  0  0  0  0  0  0  0  0  0
  -25.7720  -28.6237   20.0366 C   0  0  0  0  0  0  0  0  0  0  0  0
  -23.4169  -29.5806   22.3136 C   0  0  0  0  0  0  0  0  0  0  0  0
  -28.6038  -15.0622   20.8871 C   0  0  0  0  0  0  0  0  0  0  0  0
  -30.4122  -25.3086   14.7156 C   0  0  0  0  0  0  0  0  0  0  0  0
  -25.6790  -25.0358   19.1813 C   0  0  0  0  0  0  0  0  0  0  0  0
  -26.1785  -26.6774   21.5897 C   0  0  0  0  0  0  0  0  0  0  0  0
  -29.8429  -26.5641   15.3711 C   0  0  0  0  0  0  0  0  0  0  0  0
  -29.2588  -11.4808   21.1115 C   0  0  0  0  0  0  0  0  0  0  0  0
  -30.2479  -26.6297   16.8403 C   0  0  0  0  0  0  0  0  0  0  0  0
  -28.8050  -10.9911   19.7411 C   0  0  0  0  0  0  0  0  0  0  0  0
  -29.8915  -12.8681   21.0428 C   0  0  0  0  0  0  0  0  0  0  0  0
  -28.5310  -13.4212   19.0366 C   0  0  0  0  0  0  0  0  0  0  0  0
  -29.6917  -25.4320   17.6199 C   0  0  1  0  0  0  0  0  0  0  0  0
  -26.3302  -26.4126   19.0938 C   0  0  1  0  0  0  0  0  0  0  0  0
  -27.9248  -12.0073   18.9965 C   0  0  2  0  0  0  0  0  0  0  0  0
  -33.3775  -19.8084   23.5587 C   0  0  0  0  0  0  0  0  0  0  0  0
  -21.9447  -31.5173   22.9295 C   0  0  0  0  0  0  0  0  0  0  0  0
  -29.3580  -17.9687   20.8832 C   0  0  0  0  0  0  0  0  0  0  0  0
  -27.8485  -17.2699   22.7692 C   0  0  0  0  0  0  0  0  0  0  0  0
  -28.2248  -17.0481   27.3901 C   0  0  0  0  0  0  0  0  0  0  0  0
  -30.1425  -18.0251   28.6190 C   0  0  0  0  0  0  0  0  0  0  0  0
  -29.5144  -14.1376   24.1560 C   0  0  0  0  0  0  0  0  0  0  0  0
  -31.9776  -13.8848   23.9996 C   0  0  0  0  0  0  0  0  0  0  0  0
  -28.1799  -30.0732   21.2243 C   0  0  0  0  0  0  0  0  0  0  0  0
  -26.5930  -31.4364   22.5996 C   0  0  0  0  0  0  0  0  0  0  0  0
  -26.5101  -31.5645   20.1097 C   0  0  0  0  0  0  0  0  0  0  0  0
  -20.9554  -27.9886   21.9068 C   0  0  0  0  0  0  0  0  0  0  0  0
  -33.6230  -18.7578   24.6382 C   0  0  0  0  0  0  0  0  0  0  0  0
  -28.0652  -19.6374   25.6965 C   0  0  0  0  0  0  0  0  0  0  0  0
  -27.4857  -21.0484   25.5918 C   0  0  0  0  0  0  0  0  0  0  0  0
  -28.8612  -19.4635   26.9986 C   0  0  0  0  0  0  0  0  0  0  0  0
  -30.7484  -15.1669   22.2220 C   0  0  0  0  0  0  0  0  0  0  0  0
  -26.7297  -21.2499   24.2860 C   0  0  0  0  0  0  0  0  0  1  0  0
  -25.6667  -29.4840   21.2726 C   0  0  1  0  0  0  0  0  0  0  0  0
  -22.0512  -30.2208   22.1417 C   0  0  2  0  0  0  0  0  0  0  0  0
  -29.2191  -17.0994   22.1267 C   0  0  0  0  0  0  0  0  0  0  0  0
  -29.4164  -18.0258   27.2501 C   0  0  0  0  0  0  0  0  0  0  0  0
  -30.8222  -14.9137   23.7709 C   0  0  0  0  0  0  0  0  0  0  0  0
  -26.7372  -30.6111   21.3032 C   0  0  0  0  0  0  0  0  0  0  0  0
  -26.0141  -12.7689   20.3642 N   0  0  0  0  0  0  0  0  0  0  0  0
  -32.1946  -16.8470   24.2311 N   0  0  0  0  0  0  0  0  0  0  0  0
  -30.1670  -16.4858   25.4824 N   0  0  0  0  0  0  0  0  0  0  0  0
  -26.4633  -11.9311   19.4143 N   0  0  0  0  0  0  0  0  0  0  0  0
  -26.0185  -27.2596   20.2469 N   0  0  0  0  0  0  0  0  0  0  0  0
  -29.0260  -13.8332   20.3528 N   0  0  0  0  0  0  0  0  0  0  0  0
  -25.7904  -10.1796   17.9686 N   0  0  0  0  0  0  0  0  0  0  0  0
  -22.0027  -11.1948   20.2088 N   0  0  0  0  0  0  0  0  0  0  0  0
  -28.2861  -25.6240   17.9061 N   0  0  0  0  0  0  0  0  0  0  0  0
  -24.2904  -29.9657   21.3186 N   0  0  0  0  0  0  0  0  0  0  0  0
  -29.4548  -15.6999   21.8009 N   0  0  0  0  0  0  0  0  0  0  0  0
  -20.9823  -29.2954   22.6129 N   0  3  0  0  0  0  0  0  0  0  0  0
  -22.9114   -9.8190   18.6150 O   0  0  0  0  0  0  0  0  0  0  0  0
  -28.5166  -26.8965   19.8426 O   0  0  0  0  0  0  0  0  0  0  0  0
  -25.6333  -29.1416   18.9257 O   0  0  0  0  0  0  0  0  0  0  0  0
  -23.6833  -28.8182   23.2401 O   0  0  0  0  0  0  0  0  0  0  0  0
  -27.5180  -15.5662   20.5701 O   0  0  0  0  0  0  0  0  0  0  0  0
  -21.4451  -15.1125   24.1300 O   0  0  0  0  0  0  0  0  0  0  0  0
  -26.2037  -22.5761   24.2574 O   0  0  0  0  0  0  0  0  0  1  0  0
  -23.4346  -15.9803   29.1988 F   0  0  0  0  0  0  0  0  0  0  0  0
  -20.1631  -14.0829   26.3523 F   0  0  0  0  0  0  0  0  0  0  0  0
  1  2  1  0  0  0  0
  1  5  2  0  0  0  0
  2  6  2  0  0  0  0
  3  8  2  0  0  0  0
  3 16  1  0  0  0  0
  4  9  1  0  0  0  0
  4 16  2  0  0  0  0
  5 18  1  0  0  0  0
  6 20  1  0  0  0  0
  7 10  2  0  0  0  0
  7 19  1  0  0  0  0
  8 22  1  0  0  0  0
  9 22  2  0  0  0  0
 10 23  1  0  0  0  0
 11 12  2  0  0  0  0
 11 24  1  0  0  0  0
 12 25  1  0  0  0  0
 13 21  1  0  0  0  0
 13 23  2  0  0  0  0
 14 25  2  0  0  0  0
 14 26  1  0  0  0  0
 15 28  1  0  0  0  0
 15 29  2  0  0  0  0
 16 27  1  0  0  0  0
 17 27  1  0  0  0  0
 17 30  2  0  0  0  0
 17 32  1  0  0  0  0
 18 20  2  0  0  0  0
 18 37  1  0  0  0  0
 19 21  2  0  0  0  0
 19 38  1  0  0  0  0
 20 46  1  0  0  0  0
 21 39  1  0  0  0  0
 22 90  1  0  0  0  0
 23 91  1  0  0  0  0
 24 26  2  0  0  0  0
 24 90  1  0  0  0  0
 25 92  1  0  0  0  0
 26 93  1  0  0  0  0
 27 73  2  0  0  0  0
 28 61  1  0  0  0  0
 28 74  2  0  0  0  0
 29 70  1  0  0  0  0
 29 75  1  0  0  0  0
 30 76  1  0  0  0  0
 30 79  1  0  0  0  0
 31 71  1  0  0  0  0
 31 74  1  0  0  0  0
 31 75  2  0  0  0  0
 32 80  1  0  0  0  0
 32 85  2  0  0  0  0
 33 47  1  0  0  0  0
 33 81  1  0  0  0  0
 33 86  2  0  0  0  0
 34 67  1  0  0  0  0
 34 77  1  0  0  0  0
 34 87  2  0  0  0  0
 35 68  1  0  0  0  0
 35 82  1  0  0  0  0
 35 88  2  0  0  0  0
 36 78  1  0  0  0  0
 36 83  1  0  0  0  0
 36 89  2  0  0  0  0
 37 40  1  0  0  0  0
 38 47  1  0  0  0  0
 39 77  1  0  0  0  0
 40 42  1  0  0  0  0
 41 43  1  0  0  0  0
 41 44  1  0  0  0  0
 42 46  1  0  0  0  0
 43 48  1  0  0  0  0
 44 78  1  0  0  0  0
 45 48  1  0  0  0  0
 45 78  1  0  0  0  0
 46 81  1  0  0  0  0
 47 77  1  0  0  0  0
 48 76  1  0  0  0  0
 49 61  1  0  0  0  0
 50 68  1  0  0  0  0
 51 69  1  0  0  0  0
 52 69  1  0  0  0  0
 53 70  1  0  0  0  0
 54 70  1  0  0  0  0
 55 71  1  0  0  0  0
 56 71  1  0  0  0  0
 57 72  1  0  0  0  0
 58 72  1  0  0  0  0
 59 72  1  0  0  0  0
 60 84  1  0  0  0  0
 62 63  1  0  0  0  0
 62 64  1  0  0  0  0
 63 66  1  0  0  0  0
 64 70  1  0  0  0  0
 65 71  1  0  0  0  0
 65 83  1  0  0  0  0
 66 91  1  0  0  0  0
 67 72  1  0  0  0  0
 67 82  1  0  0  0  0
 68 84  1  0  0  0  0
 69 83  1  0  0  0  0
 73 76  1  0  0  0  0
M  CHG  1  84   1
M  ISO  4  36 100  66 101  83 100  91 101
M  END
> <Batch ID>
0064

> <Smiles>
CCc1cc(C(C)(C)CCC[101CH2:1][101O:1]c2ccc3c(c2)CN(C(=O)C(NC(=O)C(C)NC)C(C)(C)C)C(C(=O)NC2CCCc4ccccc42)C3)nc(C(C)(C)C[100N:0](C(C)C)[100C:0](=O)N2CCCC(n3nc(-c4ccc(Oc5ccc(F)cc5F)cc4)c(C(N)=O)c3N)C2)n1

> <Shape>
0.215

> <Color>
0.070

> <Negative vol penalty>
0.000

$$$$

  -OEChem-04052318053D

 92100  0     1  0  0  0  0  0999 V2000
  -30.3575  -35.6385   23.6841 C   0  0  0  0  0  0  0  0  0  0  0  0
  -30.3814  -34.5644   22.8002 C   0  0  0  0  0  0  0  0  0  0  0  0
  -24.6778   -8.9322   22.0597 C   0  0  0  0  0  0  0  0  0  0  0  0
  -23.9660   -8.9366   19.7509 C   0  0  0  0  0  0  0  0  0  0  0  0
  -29.5397  -35.5933   24.8124 C   0  0  0  0  0  0  0  0  0  0  0  0
  -29.5883  -33.4439   23.0449 C   0  0  0  0  0  0  0  0  0  0  0  0
  -26.8293  -29.9054   18.8768 C   0  0  0  0  0  0  0  0  0  0  0  0
  -27.7967  -22.6137   20.8222 C   0  0  0  0  0  0  0  0  0  0  0  0
  -23.4576   -8.3701   22.4348 C   0  0  0  0  0  0  0  0  0  0  0  0
  -22.7458   -8.3744   20.1260 C   0  0  0  0  0  0  0  0  0  0  0  0
  -27.1766  -28.6806   18.3085 C   0  0  0  0  0  0  0  0  0  0  0  0
  -20.6704   -6.6004   23.9564 C   0  0  0  0  0  0  0  0  0  0  0  0
  -20.6961   -5.5394   24.8613 C   0  0  0  0  0  0  0  0  0  0  0  0
  -27.2938  -21.6034   20.0099 C   0  0  0  0  0  0  0  0  0  0  0  0
  -25.7908  -27.5450   19.9238 C   0  0  0  0  0  0  0  0  0  0  0  0
  -22.0345   -4.2529   23.3150 C   0  0  0  0  0  0  0  0  0  0  0  0
  -29.9171  -21.5383   20.7580 C   0  0  0  0  0  0  0  0  0  0  0  0
  -24.9320   -9.2155   20.7177 C   0  0  0  0  0  0  0  0  0  0  0  0
  -27.3675   -9.1128   19.9658 C   0  0  0  0  0  0  0  0  0  0  0  0
  -28.7290  -34.4757   25.0659 C   0  0  0  0  0  0  0  0  0  0  0  0
  -25.9672  -29.9586   19.9816 C   0  0  0  0  0  0  0  0  0  0  0  0
  -28.7599  -33.3831   24.1784 C   0  0  0  0  0  0  0  0  0  0  0  0
  -25.4320  -28.7719   20.5027 C   0  0  0  0  0  0  0  0  0  0  0  0
  -29.1324  -22.5879   21.2078 C   0  0  0  0  0  0  0  0  0  0  0  0
  -22.4916   -8.0911   21.4679 C   0  0  0  0  0  0  0  0  0  0  0  0
  -26.6596  -27.5000   18.8338 C   0  0  0  0  0  0  0  0  0  0  0  0
  -21.3267   -6.4878   22.7306 C   0  0  0  0  0  0  0  0  0  0  0  0
  -21.3781   -4.3656   24.5407 C   0  0  0  0  0  0  0  0  0  0  0  0
  -22.0087   -5.3141   22.4100 C   0  0  0  0  0  0  0  0  0  0  0  0
  -26.1920   -9.7967   20.3297 C   0  0  0  0  0  0  0  0  0  0  0  0
  -28.1609  -20.5980   19.6136 C   0  0  0  0  0  0  0  0  0  0  0  0
  -28.2720  -10.1084   19.6880 C   0  0  0  0  0  0  0  0  0  0  0  0
  -27.6193   -7.7036   19.8860 C   0  0  0  0  0  0  0  0  0  0  0  0
  -26.2270  -30.9732   22.9827 C   0  0  0  0  0  0  0  0  0  0  0  0
  -23.0522  -30.3136   23.0693 C   0  0  0  0  0  0  0  0  0  0  0  0
  -20.4224  -28.5554   21.7888 C   0  0  0  0  0  0  0  0  0  0  0  0
  -28.6527  -15.1659   17.3396 C   0  0  0  0  0  0  0  0  0  0  0  0
  -27.8970  -34.4526   26.3237 C   0  0  0  0  0  0  0  0  0  0  0  0
  -25.5812  -31.2895   20.5663 C   0  0  0  0  0  0  0  0  0  0  0  0
  -24.4866  -28.7761   21.6750 C   0  0  0  0  0  0  0  0  0  0  0  0
  -26.8053  -33.3857   26.3124 C   0  0  0  0  0  0  0  0  0  0  0  0
  -28.6847  -14.8837   20.8597 C   0  0  0  0  0  0  0  0  0  0  0  0
  -27.3676  -32.0516   25.8320 C   0  0  0  0  0  0  0  0  0  0  0  0
  -28.1483  -13.4663   21.0545 C   0  0  0  0  0  0  0  0  0  0  0  0
  -27.9562  -15.6244   19.7367 C   0  0  0  0  0  0  0  0  0  0  0  0
  -27.4017  -13.4741   18.6454 C   0  0  0  0  0  0  0  0  0  0  0  0
  -27.8954  -32.1603   24.3963 C   0  0  1  0  0  0  0  0  0  0  0  0
  -25.1016  -31.1909   22.0112 C   0  0  1  0  0  0  0  0  0  0  0  0
  -28.1570  -12.6875   19.7277 C   0  0  2  0  0  0  0  0  0  0  0  0
  -17.9566  -28.1999   22.0907 C   0  0  0  0  0  0  0  0  0  0  0  0
  -31.2419  -16.4719   16.5493 C   0  0  0  0  0  0  0  0  0  0  0  0
  -29.5054  -16.3826   14.7326 C   0  0  0  0  0  0  0  0  0  0  0  0
  -28.9529  -23.7175   23.4560 C   0  0  0  0  0  0  0  0  0  0  0  0
  -31.2109  -23.4688   22.4714 C   0  0  0  0  0  0  0  0  0  0  0  0
  -23.6036  -28.5953   25.5297 C   0  0  0  0  0  0  0  0  0  0  0  0
  -21.3548  -27.5417   25.2118 C   0  0  0  0  0  0  0  0  0  0  0  0
  -21.5306  -29.9870   25.6725 C   0  0  0  0  0  0  0  0  0  0  0  0
  -19.8301  -29.5269   19.0567 C   0  0  0  0  0  0  0  0  0  0  0  0
  -31.2902  -24.6411   19.7144 C   0  0  0  0  0  0  0  0  0  0  0  0
  -28.7732  -24.7692   17.7839 C   0  0  0  0  0  0  0  0  0  0  0  0
  -27.9384  -17.5875   17.5142 C   0  0  0  0  0  0  0  0  0  0  0  0
  -28.8794  -24.2666   19.2158 C   0  0  0  0  0  0  0  0  0  0  0  0
  -29.5723  -25.0970   21.4588 C   0  0  0  0  0  0  0  0  0  0  0  0
  -28.2854  -26.2085   17.6740 C   0  0  0  0  0  0  0  0  0  1  0  0
  -28.6198  -18.5842   18.4347 C   0  0  0  0  0  0  0  0  0  0  0  0
  -22.2213  -29.0996   23.4081 C   0  0  1  0  0  0  0  0  0  0  0  0
  -19.0321  -28.9905   21.3620 C   0  0  2  0  0  0  0  0  0  0  0  0
  -29.8572  -16.9307   16.1096 C   0  0  0  0  0  0  0  0  0  0  0  0
  -29.7213  -23.6933   22.1081 C   0  0  0  0  0  0  0  0  0  0  0  0
  -22.1969  -28.8054   24.9346 C   0  0  0  0  0  0  0  0  0  0  0  0
  -29.4642  -20.5391   19.9680 N   0  0  0  0  0  0  0  0  0  0  0  0
  -26.3339  -11.1241   20.2880 N   0  0  0  0  0  0  0  0  0  0  0  0
  -27.6092  -11.2824   19.8947 N   0  0  0  0  0  0  0  0  0  0  0  0
  -24.1443  -30.1019   22.2159 N   0  0  0  0  0  0  0  0  0  0  0  0
  -27.9468  -14.8264   18.5031 N   0  0  0  0  0  0  0  0  0  0  0  0
  -29.5616  -10.0854   19.2897 N   0  0  0  0  0  0  0  0  0  0  0  0
  -26.5794   -6.8199   20.2056 N   0  0  0  0  0  0  0  0  0  0  0  0
  -26.7989  -32.1403   23.4519 N   0  0  0  0  0  0  0  0  0  0  0  0
  -20.9049  -29.3295   22.8228 N   0  0  0  0  0  0  0  0  0  0  0  0
  -28.8527  -16.5310   17.0851 N   0  0  0  0  0  0  0  0  0  0  0  0
  -18.8529  -28.7875   19.8965 N   0  3  0  0  0  0  0  0  0  0  0  0
  -29.8660  -25.0673   19.9781 N   0  3  1  0  0  0  0  0  0  0  0  0
  -28.7382   -7.2416   19.5572 O   0  0  0  0  0  0  0  0  0  0  0  0
  -26.5514  -29.8309   23.2854 O   0  0  0  0  0  0  0  0  0  0  0  0
  -22.7394  -31.4106   23.5387 O   0  0  0  0  0  0  0  0  0  0  0  0
  -21.0190  -27.6197   21.2605 O   0  0  0  0  0  0  0  0  0  0  0  0
  -29.0750  -14.2978   16.5649 O   0  0  0  0  0  0  0  0  0  0  0  0
  -21.3009   -7.5424   21.8336 O   0  0  0  0  0  0  0  0  0  0  0  0
  -26.9975  -26.3031   18.2814 O   0  0  0  0  0  0  0  0  0  1  0  0
  -27.6888  -19.5912   18.8128 O   0  0  0  0  0  0  0  0  0  0  0  0
  -21.4040   -3.3473   25.4105 F   0  0  0  0  0  0  0  0  0  0  0  0
  -22.6421   -5.2004   21.2345 F   0  0  0  0  0  0  0  0  0  0  0  0
  1  2  1  0  0  0  0
  1  5  2  0  0  0  0
  2  6  2  0  0  0  0
  3  9  2  0  0  0  0
  3 18  1  0  0  0  0
  4 10  1  0  0  0  0
  4 18  2  0  0  0  0
  5 20  1  0  0  0  0
  6 22  1  0  0  0  0
  7 11  2  0  0  0  0
  7 21  1  0  0  0  0
  8 14  2  0  0  0  0
  8 24  1  0  0  0  0
  9 25  1  0  0  0  0
 10 25  2  0  0  0  0
 11 26  1  0  0  0  0
 12 13  2  0  0  0  0
 12 27  1  0  0  0  0
 13 28  1  0  0  0  0
 14 31  1  0  0  0  0
 15 23  1  0  0  0  0
 15 26  2  0  0  0  0
 16 28  2  0  0  0  0
 16 29  1  0  0  0  0
 17 24  2  0  0  0  0
 17 71  1  0  0  0  0
 18 30  1  0  0  0  0
 19 30  1  0  0  0  0
 19 32  2  0  0  0  0
 19 33  1  0  0  0  0
 20 22  2  0  0  0  0
 20 38  1  0  0  0  0
 21 23  2  0  0  0  0
 21 39  1  0  0  0  0
 22 47  1  0  0  0  0
 23 40  1  0  0  0  0
 24 69  1  0  0  0  0
 25 88  1  0  0  0  0
 26 89  1  0  0  0  0
 27 29  2  0  0  0  0
 27 88  1  0  0  0  0
 28 91  1  0  0  0  0
 29 92  1  0  0  0  0
 30 72  2  0  0  0  0
 31 71  2  0  0  0  0
 31 90  1  0  0  0  0
 32 73  1  0  0  0  0
 32 76  1  0  0  0  0
 33 77  1  0  0  0  0
 33 83  2  0  0  0  0
 34 48  1  0  0  0  0
 34 78  1  0  0  0  0
 34 84  2  0  0  0  0
 35 66  1  0  0  0  0
 35 74  1  0  0  0  0
 35 85  2  0  0  0  0
 36 67  1  0  0  0  0
 36 79  1  0  0  0  0
 36 86  2  0  0  0  0
 37 75  1  0  0  0  0
 37 80  1  0  0  0  0
 37 87  2  0  0  0  0
 38 41  1  0  0  0  0
 39 48  1  0  0  0  0
 40 74  1  0  0  0  0
 41 43  1  0  0  0  0
 42 44  1  0  0  0  0
 42 45  1  0  0  0  0
 43 47  1  0  0  0  0
 44 49  1  0  0  0  0
 45 75  1  0  0  0  0
 46 49  1  0  0  0  0
 46 75  1  0  0  0  0
 47 78  1  0  0  0  0
 48 74  1  0  0  0  0
 49 73  1  0  0  0  0
 50 67  1  0  0  0  0
 51 68  1  0  0  0  0
 52 68  1  0  0  0  0
 53 69  1  0  0  0  0
 54 69  1  0  0  0  0
 55 70  1  0  0  0  0
 56 70  1  0  0  0  0
 57 70  1  0  0  0  0
 58 81  1  0  0  0  0
 59 82  1  0  0  0  0
 60 62  1  0  0  0  0
 60 64  1  0  0  0  0
 61 65  1  0  0  0  0
 61 80  1  0  0  0  0
 62 82  1  0  0  0  0
 63 69  1  0  0  0  0
 63 82  1  0  0  0  0
 64 89  1  0  0  0  0
 65 90  1  0  0  0  0
 66 70  1  0  0  0  0
 66 79  1  0  0  0  0
 67 81  1  0  0  0  0
 68 80  1  0  0  0  0
 72 73  1  0  0  0  0
M  CHG  2  81   1  82   1
M  ISO  4  37 100  64 101  80 100  89 101
M  END
> <Batch ID>
0064

> <Smiles>
CNC(C)C(=O)NC(C(=O)N1Cc2cc([101O:1][101CH2:1]CCN(C)CC(C)(C)c3ccc(OCC[100N:0](C(C)C)[100C:0](=O)N4CCCC(n5nc(-c6ccc(Oc7ccc(F)cc7F)cc6)c(C(N)=O)c5N)C4)nc3)ccc2CC1C(=O)NC1CCCc2ccccc21)C(C)(C)C

> <Shape>
0.310

> <Color>
0.108

> <Negative vol penalty>
0.000

$$$$

  -OEChem-04052318053D

 87 95  0     1  0  0  0  0  0999 V2000
  -32.4744  -13.7197   19.5589 C   0  0  0  0  0  0  0  0  0  0  0  0
  -31.8472  -14.9555   19.6809 C   0  0  0  0  0  0  0  0  0  0  0  0
  -28.9573  -27.2745   19.2912 C   0  0  0  0  0  0  0  0  0  0  0  0
  -27.7045  -25.5597   20.4432 C   0  0  0  0  0  0  0  0  0  0  0  0
  -31.7099  -12.5575   19.4653 C   0  0  0  0  0  0  0  0  0  0  0  0
  -30.4550  -15.0298   19.7082 C   0  0  0  0  0  0  0  0  0  0  0  0
  -27.0415  -18.9851   22.9035 C   0  0  0  0  0  0  0  0  0  0  0  0
  -30.0663  -26.4301   19.2404 C   0  0  0  0  0  0  0  0  0  0  0  0
  -28.8135  -24.7153   20.3924 C   0  0  0  0  0  0  0  0  0  0  0  0
  -26.4102  -20.1772   22.5511 C   0  0  0  0  0  0  0  0  0  0  0  0
  -31.2002  -21.9766   20.2462 C   0  0  0  0  0  0  0  0  0  0  0  0
  -30.9890  -20.6492   19.8732 C   0  0  0  0  0  0  0  0  0  0  0  0
  -24.3514  -18.9729   22.1897 C   0  0  0  0  0  0  0  0  0  0  0  0
  -30.1086  -21.3865   17.7476 C   0  0  0  0  0  0  0  0  0  0  0  0
  -27.7763  -26.8393   19.8927 C   0  0  0  0  0  0  0  0  0  0  0  0
  -25.6013  -27.8220   18.9919 C   0  0  0  0  0  0  0  0  0  0  0  0
  -30.3079  -12.6167   19.5012 C   0  0  0  0  0  0  0  0  0  0  0  0
  -26.3342  -17.7743   22.8910 C   0  0  0  0  0  0  0  0  0  0  0  0
  -29.6711  -13.8674   19.6136 C   0  0  0  0  0  0  0  0  0  0  0  0
  -24.9754  -17.7673   22.5447 C   0  0  0  0  0  0  0  0  0  0  0  0
  -29.9945  -25.1505   19.7910 C   0  0  0  0  0  0  0  0  0  0  0  0
  -25.0657  -20.1708   22.1914 C   0  0  0  0  0  0  0  0  0  0  0  0
  -30.8655  -23.0090   19.3699 C   0  0  0  0  0  0  0  0  0  0  0  0
  -30.4433  -20.3542   18.6240 C   0  0  0  0  0  0  0  0  0  0  0  0
  -30.3197  -22.7139   18.1206 C   0  0  0  0  0  0  0  0  0  0  0  0
  -26.6305  -27.7113   19.9460 C   0  0  0  0  0  0  0  0  0  0  0  0
  -24.0005  -25.7517   24.5570 C   0  0  0  0  0  0  0  0  0  0  0  0
  -23.2013  -24.9779   23.7446 C   0  0  0  0  0  0  0  0  0  0  0  0
  -22.7029  -27.5771   24.0948 C   0  0  0  0  0  0  0  0  0  0  0  0
  -21.9042  -26.8036   23.2817 C   0  0  0  0  0  0  0  0  0  0  0  0
  -24.7600  -28.7794   19.5038 C   0  0  0  0  0  0  0  0  0  0  0  0
  -25.4218  -27.1219   17.7536 C   0  0  0  0  0  0  0  0  0  0  0  0
  -26.5941  -15.0411   21.2893 C   0  0  0  0  0  0  0  0  0  0  0  0
  -24.2281  -14.0921   23.2952 C   0  0  0  0  0  0  0  0  0  0  0  0
  -21.6262  -14.9645   25.3240 C   0  0  0  0  0  0  0  0  0  0  0  0
  -24.1414  -30.5847   25.3259 C   0  0  0  0  0  0  0  0  0  0  0  0
  -29.5231  -11.3378   19.3491 C   0  0  0  0  0  0  0  0  0  0  0  0
  -27.0228  -16.5010   23.2994 C   0  0  0  0  0  0  0  0  0  0  0  0
  -24.1662  -16.4971   22.5349 C   0  0  0  0  0  0  0  0  0  0  0  0
  -28.0595  -11.4684   19.7628 C   0  0  0  0  0  0  0  0  0  0  0  0
  -24.7366  -32.6470   22.3102 C   0  0  0  0  0  0  0  0  0  0  0  0
  -27.4461  -12.7302   19.1642 C   0  0  0  0  0  0  0  0  0  0  0  0
  -25.2707  -31.6251   21.3080 C   0  0  0  0  0  0  0  0  0  0  0  0
  -25.0535  -32.2497   23.7487 C   0  0  0  0  0  0  0  0  0  0  0  0
  -25.1226  -29.8618   23.1106 C   0  0  0  0  0  0  0  0  0  0  0  0
  -28.1636  -13.9868   19.6719 C   0  0  1  0  0  0  0  0  0  0  0  0
  -26.3389  -15.2507   22.7551 C   0  0  1  0  0  0  0  0  0  0  0  0
  -24.7794  -30.2087   21.6541 C   0  0  2  0  0  0  0  0  0  0  0  0
  -25.1726  -25.1734   25.2732 C   0  0  0  0  0  0  0  0  0  0  0  0
  -19.8580  -13.9668   26.7990 C   0  0  0  0  0  0  0  0  0  0  0  0
  -22.6346  -13.2716   20.8259 C   0  0  0  0  0  0  0  0  0  0  0  0
  -20.5851  -13.1893   22.2615 C   0  0  0  0  0  0  0  0  0  0  0  0
  -22.5003  -11.6630   22.7361 C   0  0  0  0  0  0  0  0  0  0  0  0
  -22.6379  -29.2416   26.7453 C   0  0  0  0  0  0  0  0  0  0  0  0
  -22.6721  -16.3573   27.7166 C   0  0  0  0  0  0  0  0  0  0  0  0
  -23.4747  -23.5090   23.5419 C   0  0  0  0  0  0  0  0  0  0  0  0
  -22.4320  -29.0290   24.2962 C   0  0  0  0  0  0  0  0  0  0  0  0
  -22.7032  -22.8946   22.3719 C   0  0  0  0  0  0  0  0  0  0  0  0
  -23.0504  -21.4317   22.1215 C   0  0  0  0  0  0  0  0  0  1  0  0
  -22.7192  -14.1266   23.2606 C   0  0  1  0  0  0  0  0  0  0  0  0
  -21.2645  -14.5417   26.7364 C   0  0  2  0  0  0  0  0  0  0  0  0
  -20.7322  -27.3823   22.5653 C   0  0  0  0  0  0  0  0  0  0  0  0
  -22.1253  -13.0864   22.2692 C   0  0  0  0  0  0  0  0  0  0  0  0
  -26.4606  -28.5329   20.9853 N   0  0  0  0  0  0  0  0  0  0  0  0
  -23.7656  -27.0652   24.7467 N   0  0  0  0  0  0  0  0  0  0  0  0
  -22.1388  -25.4900   23.0923 N   0  0  0  0  0  0  0  0  0  0  0  0
  -25.3150  -29.1690   20.6872 N   0  0  0  0  0  0  0  0  0  0  0  0
  -24.8860  -15.2770   22.9360 N   0  0  0  0  0  0  0  0  0  0  0  0
  -24.6147  -30.8841   24.0378 N   0  0  0  0  0  0  0  0  0  0  0  0
  -23.6071  -29.3175   19.0527 N   0  0  0  0  0  0  0  0  0  0  0  0
  -26.3805  -26.1707   17.3788 N   0  0  0  0  0  0  0  0  0  0  0  0
  -27.7323  -14.3068   21.0157 N   0  0  0  0  0  0  0  0  0  0  0  0
  -22.2753  -13.9584   24.6401 N   0  0  0  0  0  0  0  0  0  0  0  0
  -23.1680  -29.5798   25.4321 N   0  0  0  0  0  0  0  0  0  0  0  0
  -21.3370  -15.7083   27.6609 N   0  3  0  0  0  0  0  0  0  0  0  0
  -24.4489  -27.3453   16.9939 O   0  0  0  0  0  0  0  0  0  0  0  0
  -25.8152  -15.5095   20.4673 O   0  0  0  0  0  0  0  0  0  0  0  0
  -24.8016  -13.0544   23.6354 O   0  0  0  0  0  0  0  0  0  0  0  0
  -21.3562  -16.0747   24.8713 O   0  0  0  0  0  0  0  0  0  0  0  0
  -24.5579  -31.1883   26.3230 O   0  0  0  0  0  0  0  0  0  0  0  0
  -31.0764  -24.3262   19.7413 O   0  0  0  0  0  0  0  0  0  0  0  0
  -24.4472  -21.3329   21.8464 O   0  0  0  0  0  0  0  0  0  1  0  0
  -30.2420  -19.0794   18.2653 F   0  0  0  0  0  0  0  0  0  0  0  0
  -29.9972  -23.7014   17.2740 F   0  0  0  0  0  0  0  0  0  0  0  0
  -20.5500  -28.7160   22.7998 F   0  0  0  0  0  0  0  0  0  0  0  0
  -20.8102  -27.2681   21.2061 F   0  0  0  0  0  0  0  0  0  0  0  0
  -19.5549  -26.7859   22.9150 F   0  0  0  0  0  0  0  0  0  0  0  0
  1  2  1  0  0  0  0
  1  5  2  0  0  0  0
  2  6  2  0  0  0  0
  3  8  2  0  0  0  0
  3 15  1  0  0  0  0
  4  9  1  0  0  0  0
  4 15  2  0  0  0  0
  5 17  1  0  0  0  0
  6 19  1  0  0  0  0
  7 10  2  0  0  0  0
  7 18  1  0  0  0  0
  8 21  1  0  0  0  0
  9 21  2  0  0  0  0
 10 22  1  0  0  0  0
 11 12  2  0  0  0  0
 11 23  1  0  0  0  0
 12 24  1  0  0  0  0
 13 20  1  0  0  0  0
 13 22  2  0  0  0  0
 14 24  2  0  0  0  0
 14 25  1  0  0  0  0
 15 26  1  0  0  0  0
 16 26  1  0  0  0  0
 16 31  2  0  0  0  0
 16 32  1  0  0  0  0
 17 19  2  0  0  0  0
 17 37  1  0  0  0  0
 18 20  2  0  0  0  0
 18 38  1  0  0  0  0
 19 46  1  0  0  0  0
 20 39  1  0  0  0  0
 21 81  1  0  0  0  0
 22 82  1  0  0  0  0
 23 25  2  0  0  0  0
 23 81  1  0  0  0  0
 24 83  1  0  0  0  0
 25 84  1  0  0  0  0
 26 64  2  0  0  0  0
 27 28  2  0  0  0  0
 27 49  1  0  0  0  0
 27 65  1  0  0  0  0
 28 56  1  0  0  0  0
 28 66  1  0  0  0  0
 29 30  1  0  0  0  0
 29 57  1  0  0  0  0
 29 65  2  0  0  0  0
 30 62  1  0  0  0  0
 30 66  2  0  0  0  0
 31 67  1  0  0  0  0
 31 70  1  0  0  0  0
 32 71  1  0  0  0  0
 32 76  2  0  0  0  0
 33 47  1  0  0  0  0
 33 72  1  0  0  0  0
 33 77  2  0  0  0  0
 34 60  1  0  0  0  0
 34 68  1  0  0  0  0
 34 78  2  0  0  0  0
 35 61  1  0  0  0  0
 35 73  1  0  0  0  0
 35 79  2  0  0  0  0
 36 69  1  0  0  0  0
 36 74  1  0  0  0  0
 36 80  2  0  0  0  0
 37 40  1  0  0  0  0
 38 47  1  0  0  0  0
 39 68  1  0  0  0  0
 40 42  1  0  0  0  0
 41 43  1  0  0  0  0
 41 44  1  0  0  0  0
 42 46  1  0  0  0  0
 43 48  1  0  0  0  0
 44 69  1  0  0  0  0
 45 48  1  0  0  0  0
 45 69  1  0  0  0  0
 46 72  1  0  0  0  0
 47 68  1  0  0  0  0
 48 67  1  0  0  0  0
 50 61  1  0  0  0  0
 51 63  1  0  0  0  0
 52 63  1  0  0  0  0
 53 63  1  0  0  0  0
 54 74  1  0  0  0  0
 55 75  1  0  0  0  0
 56 58  1  0  0  0  0
 57 74  1  0  0  0  0
 58 59  1  0  0  0  0
 59 82  1  0  0  0  0
 60 63  1  0  0  0  0
 60 73  1  0  0  0  0
 61 75  1  0  0  0  0
 62 85  1  0  0  0  0
 62 86  1  0  0  0  0
 62 87  1  0  0  0  0
 64 67  1  0  0  0  0
M  CHG  1  75   1
M  ISO  4  36 100  59 101  74 100  82 101
M  END
> <Batch ID>
0064

> <Smiles>
CNC(C)C(=O)NC(C(=O)N1Cc2cc([101O:1][101CH2:1]CCc3nc(C(F)(F)F)c(C[100N:0](C)[100C:0](=O)N4CCCC(n5nc(-c6ccc(Oc7ccc(F)cc7F)cc6)c(C(N)=O)c5N)C4)nc3C)ccc2CC1C(=O)NC1CCCc2ccccc21)C(C)(C)C

> <Shape>
0.248

> <Color>
0.057

> <Negative vol penalty>
0.000

$$$$

  -OEChem-04052318053D

 94102  0     1  0  0  0  0  0999 V2000
  -32.5600  -24.5261   19.3406 C   0  0  0  0  0  0  0  0  0  0  0  0
  -31.2917  -25.0631   19.1508 C   0  0  0  0  0  0  0  0  0  0  0  0
  -28.7341  -18.8970   21.3265 C   0  0  0  0  0  0  0  0  0  0  0  0
  -28.0464  -18.1823   19.1235 C   0  0  0  0  0  0  0  0  0  0  0  0
  -33.2115  -24.7012   20.5597 C   0  0  0  0  0  0  0  0  0  0  0  0
  -30.6795  -25.7854   20.1757 C   0  0  0  0  0  0  0  0  0  0  0  0
  -26.4351  -28.0293   19.1016 C   0  0  0  0  0  0  0  0  0  0  0  0
  -29.4671  -17.7202   21.4796 C   0  0  0  0  0  0  0  0  0  0  0  0
  -28.7794  -17.0055   19.2765 C   0  0  0  0  0  0  0  0  0  0  0  0
  -25.2428  -27.3334   18.9073 C   0  0  0  0  0  0  0  0  0  0  0  0
  -28.4187  -14.0318   20.8443 C   0  0  0  0  0  0  0  0  0  0  0  0
  -27.8098  -12.8352   20.4662 C   0  0  0  0  0  0  0  0  0  0  0  0
  -24.5012  -28.0033   21.1030 C   0  0  0  0  0  0  0  0  0  0  0  0
  -29.5662  -12.4515   18.8522 C   0  0  0  0  0  0  0  0  0  0  0  0
  -16.0297  -24.0111   19.8510 C   0  0  0  0  0  0  0  0  0  0  0  0
  -28.0237  -19.1281   20.1485 C   0  0  0  0  0  0  0  0  0  0  0  0
  -27.7183  -21.5633   19.4528 C   0  0  0  0  0  0  0  0  0  0  0  0
  -32.6011  -25.4154   21.6038 C   0  0  0  0  0  0  0  0  0  0  0  0
  -26.6745  -28.7095   20.3043 C   0  0  0  0  0  0  0  0  0  0  0  0
  -31.3307  -25.9933   21.4050 C   0  0  0  0  0  0  0  0  0  0  0  0
  -25.6964  -28.7091   21.3090 C   0  0  0  0  0  0  0  0  0  0  0  0
  -29.4898  -16.7744   20.4546 C   0  0  0  0  0  0  0  0  0  0  0  0
  -24.2768  -27.3179   19.9092 C   0  0  0  0  0  0  0  0  0  0  0  0
  -29.6013  -14.4383   20.2263 C   0  0  0  0  0  0  0  0  0  0  0  0
  -28.3835  -12.0450   19.4701 C   0  0  0  0  0  0  0  0  0  0  0  0
  -30.1751  -13.6481   19.2303 C   0  0  0  0  0  0  0  0  0  0  0  0
  -27.2659  -20.3433   19.9901 C   0  0  0  0  0  0  0  0  0  0  0  0
  -26.6273  -22.3948   19.5227 C   0  0  0  0  0  0  0  0  0  0  0  0
  -17.7467  -24.5168   20.9250 C   0  0  0  0  0  0  0  0  0  0  0  0
  -29.0092  -21.9136   18.9366 C   0  0  0  0  0  0  0  0  0  0  0  0
  -28.8330  -28.4702   22.6254 C   0  0  0  0  0  0  0  0  0  0  0  0
  -27.3771  -31.1527   23.7241 C   0  0  0  0  0  0  0  0  0  0  0  0
  -20.7899  -20.9222   19.6115 C   0  0  0  0  0  0  0  0  0  0  0  0
  -24.5760  -33.1003   23.8111 C   0  0  0  0  0  0  0  0  0  0  0  0
  -33.3546  -25.5812   22.8999 C   0  0  0  0  0  0  0  0  0  0  0  0
  -27.9546  -29.4776   20.4877 C   0  0  0  0  0  0  0  0  0  0  0  0
  -25.8961  -29.4404   22.6104 C   0  0  0  0  0  0  0  0  0  0  0  0
  -32.4529  -25.9733   24.0659 C   0  0  0  0  0  0  0  0  0  0  0  0
  -22.7502  -22.5489   22.4304 C   0  0  0  0  0  0  0  0  0  0  0  0
  -31.5683  -27.1452   23.6676 C   0  0  0  0  0  0  0  0  0  0  0  0
  -24.1025  -22.7733   21.7546 C   0  0  0  0  0  0  0  0  0  0  0  0
  -21.6045  -22.4723   21.4298 C   0  0  0  0  0  0  0  0  0  0  0  0
  -23.1875  -20.9613   20.2138 C   0  0  0  0  0  0  0  0  0  0  0  0
  -30.6325  -26.7565   22.5160 C   0  0  1  0  0  0  0  0  0  0  0  0
  -28.3085  -29.7077   21.9537 C   0  0  1  0  0  0  0  0  0  0  0  0
  -24.2074  -22.0985   20.3735 C   0  0  2  0  0  0  0  0  0  0  0  0
  -23.1344  -35.0831   24.3474 C   0  0  0  0  0  0  0  0  0  0  0  0
  -18.4610  -21.1360   21.5409 C   0  0  0  0  0  0  0  0  0  0  0  0
  -18.5585  -24.9164   23.2355 C   0  0  0  0  0  0  0  0  0  0  0  0
  -20.2131  -23.0689   18.5753 C   0  0  0  0  0  0  0  0  0  0  0  0
  -27.0265  -29.7181   26.3941 C   0  0  0  0  0  0  0  0  0  0  0  0
  -25.3334  -31.4516   27.0239 C   0  0  0  0  0  0  0  0  0  0  0  0
  -27.6954  -32.1206   26.5807 C   0  0  0  0  0  0  0  0  0  0  0  0
  -18.2813  -26.8860   19.0532 C   0  0  0  0  0  0  0  0  0  0  0  0
  -19.3518  -28.8121   20.1768 C   0  0  0  0  0  0  0  0  0  0  0  0
  -25.4191  -34.5233   21.3569 C   0  0  0  0  0  0  0  0  0  0  0  0
  -20.7259  -26.7776   19.5590 C   0  0  0  0  0  0  0  0  0  0  0  0
  -21.9542  -27.1403   20.3886 C   0  0  0  0  0  0  0  0  0  1  0  0
  -26.2168  -31.4378   24.6468 C   0  0  1  0  0  0  0  0  0  0  0  0
  -24.3822  -34.5947   23.6281 C   0  0  2  0  0  0  0  0  0  0  0  0
  -18.9233  -22.3026   20.6466 C   0  0  1  0  0  0  0  0  0  0  0  0
  -18.8357  -25.1891   21.7464 C   0  0  2  0  0  0  0  0  0  0  0  0
  -19.6345  -21.8490   19.3212 C   0  0  2  0  0  0  0  0  0  0  0  0
  -26.5648  -31.1665   26.1377 C   0  0  0  0  0  0  0  0  0  0  0  0
  -19.3535  -27.2646   20.0976 C   0  0  0  0  0  0  0  0  0  0  0  0
  -18.9993  -26.7141   21.5144 C   0  0  0  0  0  0  0  0  0  0  0  0
  -18.6720  -21.1247   18.3657 C   0  0  0  0  0  0  0  0  0  0  0  0
  -16.6015  -25.0365   20.5483 N   0  0  0  0  0  0  0  0  0  0  0  0
  -16.7491  -22.8896   19.7725 N   0  0  0  0  0  0  0  0  0  0  0  0
  -25.9872  -20.3911   20.3732 N   0  0  0  0  0  0  0  0  0  0  0  0
  -25.6268  -21.6513   20.0763 N   0  0  0  0  0  0  0  0  0  0  0  0
  -17.8422  -23.2396   20.4674 N   0  0  0  0  0  0  0  0  0  0  0  0
  -27.1669  -30.1716   22.7447 N   0  0  0  0  0  0  0  0  0  0  0  0
  -21.8155  -21.4441   20.4031 N   0  0  0  0  0  0  0  0  0  0  0  0
  -26.4358  -23.6821   19.1640 N   0  0  0  0  0  0  0  0  0  0  0  0
  -30.0167  -20.9393   18.9391 N   0  0  0  0  0  0  0  0  0  0  0  0
  -29.9633  -27.9432   22.0304 N   0  0  0  0  0  0  0  0  0  0  0  0
  -25.8025  -32.8090   24.3699 N   0  0  0  0  0  0  0  0  0  0  0  0
  -24.2509  -34.9267   22.1812 N   0  3  0  0  0  0  0  0  0  0  0  0
  -29.2666  -23.0617   18.5017 O   0  0  0  0  0  0  0  0  0  0  0  0
  -28.2557  -28.0271   23.6114 O   0  0  0  0  0  0  0  0  0  0  0  0
  -28.4287  -31.7824   23.8625 O   0  0  0  0  0  0  0  0  0  0  0  0
  -20.7796  -19.7760   19.1567 O   0  0  0  0  0  0  0  0  0  0  0  0
  -23.7231  -32.2742   23.4938 O   0  0  0  0  0  0  0  0  0  0  0  0
  -30.2051  -15.6261   20.6034 O   0  0  0  0  0  0  0  0  0  0  0  0
  -23.1123  -26.6389   19.7225 O   0  0  0  0  0  0  0  0  0  1  0  0
  -27.7995  -10.8952   19.1082 F   0  0  0  0  0  0  0  0  0  0  0  0
  -31.3118  -14.0328   18.6339 F   0  0  0  0  0  0  0  0  0  0  0  0
  -20.0636  -24.6206   21.5113 F   0  0  0  0  0  0  0  0  0  0  0  0
  -17.8750  -27.3523   21.9541 F   0  0  0  0  0  0  0  0  0  0  0  0
  -19.9879  -27.1311   22.3702 F   0  0  0  0  0  0  0  0  0  0  0  0
  -18.2005  -19.9807   18.9153 F   0  0  0  0  0  0  0  0  0  0  0  0
  -19.2931  -20.7883   17.2120 F   0  0  0  0  0  0  0  0  0  0  0  0
  -17.5977  -21.8769   18.0438 F   0  0  0  0  0  0  0  0  0  0  0  0
  1  2  1  0  0  0  0
  1  5  2  0  0  0  0
  2  6  2  0  0  0  0
  3  8  2  0  0  0  0
  3 16  1  0  0  0  0
  4  9  1  0  0  0  0
  4 16  2  0  0  0  0
  5 18  1  0  0  0  0
  6 20  1  0  0  0  0
  7 10  2  0  0  0  0
  7 19  1  0  0  0  0
  8 22  1  0  0  0  0
  9 22  2  0  0  0  0
 10 23  1  0  0  0  0
 11 12  2  0  0  0  0
 11 24  1  0  0  0  0
 12 25  1  0  0  0  0
 13 21  1  0  0  0  0
 13 23  2  0  0  0  0
 14 25  2  0  0  0  0
 14 26  1  0  0  0  0
 15 68  1  0  0  0  0
 15 69  2  0  0  0  0
 16 27  1  0  0  0  0
 17 27  1  0  0  0  0
 17 28  2  0  0  0  0
 17 30  1  0  0  0  0
 18 20  2  0  0  0  0
 18 35  1  0  0  0  0
 19 21  2  0  0  0  0
 19 36  1  0  0  0  0
 20 44  1  0  0  0  0
 21 37  1  0  0  0  0
 22 85  1  0  0  0  0
 23 86  1  0  0  0  0
 24 26  2  0  0  0  0
 24 85  1  0  0  0  0
 25 87  1  0  0  0  0
 26 88  1  0  0  0  0
 27 70  2  0  0  0  0
 28 71  1  0  0  0  0
 28 75  1  0  0  0  0
 29 62  1  0  0  0  0
 29 68  2  0  0  0  0
 29 72  1  0  0  0  0
 30 76  1  0  0  0  0
 30 80  2  0  0  0  0
 31 45  1  0  0  0  0
 31 77  1  0  0  0  0
 31 81  2  0  0  0  0
 32 59  1  0  0  0  0
 32 73  1  0  0  0  0
 32 82  2  0  0  0  0
 33 63  1  0  0  0  0
 33 74  1  0  0  0  0
 33 83  2  0  0  0  0
 34 60  1  0  0  0  0
 34 78  1  0  0  0  0
 34 84  2  0  0  0  0
 35 38  1  0  0  0  0
 36 45  1  0  0  0  0
 37 73  1  0  0  0  0
 38 40  1  0  0  0  0
 39 41  1  0  0  0  0
 39 42  1  0  0  0  0
 40 44  1  0  0  0  0
 41 46  1  0  0  0  0
 42 74  1  0  0  0  0
 43 46  1  0  0  0  0
 43 74  1  0  0  0  0
 44 77  1  0  0  0  0
 45 73  1  0  0  0  0
 46 71  1  0  0  0  0
 47 60  1  0  0  0  0
 48 61  1  0  0  0  0
 49 62  1  0  0  0  0
 50 63  1  0  0  0  0
 51 64  1  0  0  0  0
 52 64  1  0  0  0  0
 53 64  1  0  0  0  0
 54 65  1  0  0  0  0
 55 65  1  0  0  0  0
 56 79  1  0  0  0  0
 57 58  1  0  0  0  0
 57 65  1  0  0  0  0
 58 86  1  0  0  0  0
 59 64  1  0  0  0  0
 59 78  1  0  0  0  0
 60 79  1  0  0  0  0
 61 63  1  0  0  0  0
 61 72  1  0  0  0  0
 62 66  1  0  0  0  0
 62 89  1  0  0  0  0
 63 67  1  0  0  0  0
 65 66  1  0  0  0  0
 66 90  1  0  0  0  0
 66 91  1  0  0  0  0
 67 92  1  0  0  0  0
 67 93  1  0  0  0  0
 67 94  1  0  0  0  0
 69 72  1  0  0  0  0
 70 71  1  0  0  0  0
M  CHG  1  79   1
M  ISO  4  33 100  58 101  63 100  86 101
M  END
> <Batch ID>
0064

> <Smiles>
CNC(C)C(=O)NC(C(=O)N1Cc2cc([101O:1][101CH2:1]CC(C)(C)C(F)(F)C(C)(F)c3ncnn3C(C)[100C:0](C)([100C:0](=O)N3CCCC(n4nc(-c5ccc(Oc6ccc(F)cc6F)cc5)c(C(N)=O)c4N)C3)C(F)(F)F)ccc2CC1C(=O)NC1CCCc2ccccc21)C(C)(C)C

> <Shape>
0.262

> <Color>
0.069

> <Negative vol penalty>
0.000

$$$$

  -OEChem-04052318052D

  0  0  0     0  0  0  0  0  0999 V2000
M  END
$$$$

  -OEChem-04052318053D

 83 91  0     1  0  0  0  0  0999 V2000
  -18.4375  -24.4820   21.2575 C   0  0  0  0  0  0  0  0  0  0  0  0
  -19.8164  -24.3209   21.1678 C   0  0  0  0  0  0  0  0  0  0  0  0
  -23.5239  -12.6878   20.7989 C   0  0  0  0  0  0  0  0  0  0  0  0
  -25.7596  -11.9342   21.3191 C   0  0  0  0  0  0  0  0  0  0  0  0
  -17.9059  -25.6866   21.7161 C   0  0  0  0  0  0  0  0  0  0  0  0
  -20.6646  -25.3648   21.5357 C   0  0  0  0  0  0  0  0  0  0  0  0
  -24.5506  -23.7997   24.3808 C   0  0  0  0  0  0  0  0  0  0  0  0
  -23.1551  -11.3791   20.4879 C   0  0  0  0  0  0  0  0  0  0  0  0
  -25.3908  -10.6254   21.0081 C   0  0  0  0  0  0  0  0  0  0  0  0
  -25.6118  -23.1789   23.7232 C   0  0  0  0  0  0  0  0  0  0  0  0
  -22.3021   -8.5671   22.1606 C   0  0  0  0  0  0  0  0  0  0  0  0
  -21.0864   -8.1002   22.6601 C   0  0  0  0  0  0  0  0  0  0  0  0
  -26.8615  -25.2406   23.8062 C   0  0  0  0  0  0  0  0  0  0  0  0
  -20.3086   -7.7137   20.4056 C   0  0  0  0  0  0  0  0  0  0  0  0
  -29.9049  -20.6367   22.2268 C   0  0  0  0  0  0  0  0  0  0  0  0
  -24.8262  -12.9654   21.2145 C   0  0  0  0  0  0  0  0  0  0  0  0
  -25.1283  -14.9476   22.7916 C   0  0  0  0  0  0  0  0  0  0  0  0
  -18.7482  -26.7423   22.0990 C   0  0  0  0  0  0  0  0  0  0  0  0
  -24.6328  -25.1508   24.7469 C   0  0  0  0  0  0  0  0  0  0  0  0
  -20.1438  -26.5851   21.9986 C   0  0  0  0  0  0  0  0  0  0  0  0
  -25.8010  -25.8755   24.4706 C   0  0  0  0  0  0  0  0  0  0  0  0
  -24.0885  -10.3479   20.5925 C   0  0  0  0  0  0  0  0  0  0  0  0
  -26.7663  -23.9001   23.4332 C   0  0  0  0  0  0  0  0  0  0  0  0
  -22.5211   -8.6075   20.7836 C   0  0  0  0  0  0  0  0  0  0  0  0
  -20.0896   -7.6734   21.7826 C   0  0  0  0  0  0  0  0  0  0  0  0
  -21.5244   -8.1808   19.9061 C   0  0  0  0  0  0  0  0  0  0  0  0
  -25.2079  -14.3173   21.5354 C   0  0  0  0  0  0  0  0  0  0  0  0
  -28.8924  -21.4350   21.7748 C   0  0  0  0  0  0  0  0  0  0  0  0
  -25.6081  -16.2155   22.5706 C   0  0  0  0  0  0  0  0  0  0  0  0
  -30.3654  -21.2075   20.1381 C   0  0  0  0  0  0  0  0  0  0  0  0
  -24.6625  -14.4331   24.0462 C   0  0  0  0  0  0  0  0  0  0  0  0
  -23.0130  -27.7808   23.9964 C   0  0  0  0  0  0  0  0  0  0  0  0
  -24.8871  -29.1180   26.2815 C   0  0  0  0  0  0  0  0  0  0  0  0
  -27.7918  -29.0182   28.0703 C   0  0  0  0  0  0  0  0  0  0  0  0
  -29.3434  -18.4631   18.7492 C   0  0  0  0  0  0  0  0  0  0  0  0
  -18.1263  -28.0424   22.5438 C   0  0  0  0  0  0  0  0  0  0  0  0
  -23.4900  -25.7986   25.4795 C   0  0  0  0  0  0  0  0  0  0  0  0
  -25.9473  -27.3229   24.8605 C   0  0  0  0  0  0  0  0  0  0  0  0
  -19.1008  -28.9671   23.2686 C   0  0  0  0  0  0  0  0  0  0  0  0
  -26.0048  -19.5378   19.1623 C   0  0  0  0  0  0  0  0  0  0  0  0
  -20.4187  -29.0575   22.5058 C   0  0  0  0  0  0  0  0  0  0  0  0
  -25.4044  -18.3678   19.9404 C   0  0  0  0  0  0  0  0  0  0  0  0
  -26.9727  -19.0682   18.0746 C   0  0  0  0  0  0  0  0  0  0  0  0
  -27.4385  -16.9988   19.3487 C   0  0  0  0  0  0  0  0  0  0  0  0
  -21.0970  -27.6854   22.4119 C   0  0  1  0  0  0  0  0  0  0  0  0
  -23.4804  -27.3184   25.3475 C   0  0  1  0  0  0  0  0  0  0  0  0
  -26.5084  -17.4462   20.4869 C   0  0  2  0  0  0  0  0  0  0  0  0
  -29.0602  -30.2679   29.8386 C   0  0  0  0  0  0  0  0  0  0  0  0
  -32.4693  -21.9767   18.8425 C   0  0  0  0  0  0  0  0  0  0  0  0
  -30.2053  -22.2732   17.8718 C   0  0  0  0  0  0  0  0  0  0  0  0
  -25.6855  -31.2205   24.2194 C   0  0  0  0  0  0  0  0  0  0  0  0
  -27.6112  -31.8366   25.6959 C   0  0  0  0  0  0  0  0  0  0  0  0
  -25.2726  -32.1170   26.5173 C   0  0  0  0  0  0  0  0  0  0  0  0
  -32.0306  -19.7448   21.2441 C   0  0  0  0  0  0  0  0  0  0  0  0
  -29.4052  -19.4632   16.4252 C   0  0  0  0  0  0  0  0  0  0  0  0
  -27.7290  -26.7045   29.9147 C   0  0  0  0  0  0  0  0  0  0  0  0
  -27.6405  -21.9223   22.4433 C   0  0  0  0  0  0  0  0  0  1  0  0
  -31.1767  -19.9640   18.0675 C   0  0  0  0  0  0  0  0  0  0  0  0
  -26.2384  -29.7909   26.2971 C   0  0  1  0  0  0  0  0  0  0  0  0
  -28.0640  -29.1537   29.5576 C   0  0  2  0  0  0  0  0  0  0  0  0
  -31.0327  -21.3395   18.8190 C   0  0  0  0  0  0  0  0  0  0  0  0
  -26.1987  -31.2145   25.6732 C   0  0  0  0  0  0  0  0  0  0  0  0
  -25.6994  -15.1186   20.5866 N   0  0  0  0  0  0  0  0  0  0  0  0
  -30.8021  -20.5124   21.1934 N   0  0  0  0  0  0  0  0  0  0  0  0
  -25.9329  -16.2656   21.2469 N   0  0  0  0  0  0  0  0  0  0  0  0
  -29.2035  -21.7737   20.4800 N   0  3  0  0  0  0  0  0  0  0  0  0
  -24.7999  -27.9134   25.5693 N   0  0  0  0  0  0  0  0  0  0  0  0
  -27.9805  -18.1542   18.6295 N   0  0  0  0  0  0  0  0  0  0  0  0
  -25.7794  -17.2812   23.3812 N   0  0  0  0  0  0  0  0  0  0  0  0
  -24.2038  -13.1097   24.0967 N   0  0  0  0  0  0  0  0  0  0  0  0
  -21.7415  -27.3534   23.6644 N   0  0  0  0  0  0  0  0  0  0  0  0
  -26.6948  -29.7581   27.6824 N   0  0  0  0  0  0  0  0  0  0  0  0
  -29.8895  -19.3387   17.7987 N   0  0  0  0  0  0  0  0  0  0  0  0
  -28.6167  -27.8810   30.1011 N   0  3  0  0  0  0  0  0  0  0  0  0
  -24.6379  -15.1315   25.0878 O   0  0  0  0  0  0  0  0  0  0  0  0
  -23.7506  -28.4751   23.3068 O   0  0  0  0  0  0  0  0  0  0  0  0
  -23.9455  -29.6382   26.8851 O   0  0  0  0  0  0  0  0  0  0  0  0
  -28.4853  -28.3282   27.3264 O   0  0  0  0  0  0  0  0  0  0  0  0
  -30.0380  -17.9773   19.6513 O   0  0  0  0  0  0  0  0  0  0  0  0
  -23.7289   -9.0707   20.2893 O   0  0  0  0  0  0  0  0  0  0  0  0
  -27.8032  -23.2967   22.7909 O   0  0  0  0  0  0  0  0  0  1  0  0
  -18.9228   -7.2236   22.2625 F   0  0  0  0  0  0  0  0  0  0  0  0
  -21.7293   -8.2161   18.5823 F   0  0  0  0  0  0  0  0  0  0  0  0
  1  2  1  0  0  0  0
  1  5  2  0  0  0  0
  2  6  2  0  0  0  0
  3  8  2  0  0  0  0
  3 16  1  0  0  0  0
  4  9  1  0  0  0  0
  4 16  2  0  0  0  0
  5 18  1  0  0  0  0
  6 20  1  0  0  0  0
  7 10  2  0  0  0  0
  7 19  1  0  0  0  0
  8 22  1  0  0  0  0
  9 22  2  0  0  0  0
 10 23  1  0  0  0  0
 11 12  2  0  0  0  0
 11 24  1  0  0  0  0
 12 25  1  0  0  0  0
 13 21  1  0  0  0  0
 13 23  2  0  0  0  0
 14 25  2  0  0  0  0
 14 26  1  0  0  0  0
 15 28  2  0  0  0  0
 15 64  1  0  0  0  0
 16 27  1  0  0  0  0
 17 27  1  0  0  0  0
 17 29  2  0  0  0  0
 17 31  1  0  0  0  0
 18 20  2  0  0  0  0
 18 36  1  0  0  0  0
 19 21  2  0  0  0  0
 19 37  1  0  0  0  0
 20 45  1  0  0  0  0
 21 38  1  0  0  0  0
 22 80  1  0  0  0  0
 23 81  1  0  0  0  0
 24 26  2  0  0  0  0
 24 80  1  0  0  0  0
 25 82  1  0  0  0  0
 26 83  1  0  0  0  0
 27 63  2  0  0  0  0
 28 57  1  0  0  0  0
 28 66  1  0  0  0  0
 29 65  1  0  0  0  0
 29 69  1  0  0  0  0
 30 61  1  0  0  0  0
 30 64  1  0  0  0  0
 30 66  2  0  0  0  0
 31 70  1  0  0  0  0
 31 75  2  0  0  0  0
 32 46  1  0  0  0  0
 32 71  1  0  0  0  0
 32 76  2  0  0  0  0
 33 59  1  0  0  0  0
 33 67  1  0  0  0  0
 33 77  2  0  0  0  0
 34 60  1  0  0  0  0
 34 72  1  0  0  0  0
 34 78  2  0  0  0  0
 35 68  1  0  0  0  0
 35 73  1  0  0  0  0
 35 79  2  0  0  0  0
 36 39  1  0  0  0  0
 37 46  1  0  0  0  0
 38 67  1  0  0  0  0
 39 41  1  0  0  0  0
 40 42  1  0  0  0  0
 40 43  1  0  0  0  0
 41 45  1  0  0  0  0
 42 47  1  0  0  0  0
 43 68  1  0  0  0  0
 44 47  1  0  0  0  0
 44 68  1  0  0  0  0
 45 71  1  0  0  0  0
 46 67  1  0  0  0  0
 47 65  1  0  0  0  0
 48 60  1  0  0  0  0
 49 61  1  0  0  0  0
 50 61  1  0  0  0  0
 51 62  1  0  0  0  0
 52 62  1  0  0  0  0
 53 62  1  0  0  0  0
 54 64  1  0  0  0  0
 55 73  1  0  0  0  0
 56 74  1  0  0  0  0
 57 81  1  0  0  0  0
 58 61  1  0  0  0  0
 58 73  1  0  0  0  0
 59 62  1  0  0  0  0
 59 72  1  0  0  0  0
 60 74  1  0  0  0  0
 63 65  1  0  0  0  0
M  CHG  2  66   1  74   1
M  ISO  4  35 100  57 101  73 100  81 101
M  END
> <Batch ID>
0064

> <Smiles>
CNC(C)C(=O)NC(C(=O)N1Cc2cc([101O:1][101CH2:1]c3cn(C)c(C(C)(C)C[100N:0](C)[100C:0](=O)N4CCCC(n5nc(-c6ccc(Oc7ccc(F)cc7F)cc6)c(C(N)=O)c5N)C4)n3)ccc2CC1C(=O)NC1CCCc2ccccc21)C(C)(C)C

> <Shape>
0.213

> <Color>
0.084

> <Negative vol penalty>
0.000

$$$$

  -OEChem-04052318053D

 87 95  0     1  0  0  0  0  0999 V2000
  -26.8853  -33.4883   26.7941 C   0  0  0  0  0  0  0  0  0  0  0  0
  -27.2953  -32.4082   26.0190 C   0  0  0  0  0  0  0  0  0  0  0  0
  -25.3145  -13.4705   18.9480 C   0  0  0  0  0  0  0  0  0  0  0  0
  -25.2138  -13.4618   21.3619 C   0  0  0  0  0  0  0  0  0  0  0  0
  -25.5348  -33.6534   27.0987 C   0  0  0  0  0  0  0  0  0  0  0  0
  -26.3550  -31.4921   25.5489 C   0  0  0  0  0  0  0  0  0  0  0  0
  -27.0703  -30.2997   20.6794 C   0  0  0  0  0  0  0  0  0  0  0  0
  -25.1650  -12.0838   18.9367 C   0  0  0  0  0  0  0  0  0  0  0  0
  -25.0643  -12.0750   21.3506 C   0  0  0  0  0  0  0  0  0  0  0  0
  -28.0886  -29.3928   20.3889 C   0  0  0  0  0  0  0  0  0  0  0  0
  -24.2943   -8.5716   21.9430 C   0  0  0  0  0  0  0  0  0  0  0  0
  -23.3220   -8.0166   22.7749 C   0  0  0  0  0  0  0  0  0  0  0  0
  -26.4546  -27.6286   20.1977 C   0  0  0  0  0  0  0  0  0  0  0  0
  -21.6159   -9.2849   21.6271 C   0  0  0  0  0  0  0  0  0  0  0  0
  -29.2893  -24.8562   21.1054 C   0  0  0  0  0  0  0  0  0  0  0  0
  -28.9869  -23.6746   19.2700 C   0  0  0  0  0  0  0  0  0  0  0  0
  -25.3389  -14.1596   20.1606 C   0  0  0  0  0  0  0  0  0  0  0  0
  -24.4706  -16.5581   20.1339 C   0  0  0  0  0  0  0  0  0  0  0  0
  -24.5764  -32.7442   26.6241 C   0  0  0  0  0  0  0  0  0  0  0  0
  -25.7354  -29.8750   20.7421 C   0  0  0  0  0  0  0  0  0  0  0  0
  -24.9906  -31.6445   25.8485 C   0  0  0  0  0  0  0  0  0  0  0  0
  -25.4209  -28.5326   20.4866 C   0  0  0  0  0  0  0  0  0  0  0  0
  -25.0399  -11.3860   20.1380 C   0  0  0  0  0  0  0  0  0  0  0  0
  -27.7811  -28.0565   20.1508 C   0  0  0  0  0  0  0  0  0  0  0  0
  -23.9274   -9.4833   20.9531 C   0  0  0  0  0  0  0  0  0  0  0  0
  -21.9828   -8.3732   22.6170 C   0  0  0  0  0  0  0  0  0  0  0  0
  -22.5882   -9.8400   20.7951 C   0  0  0  0  0  0  0  0  0  0  0  0
  -25.4938  -15.5920   20.1729 C   0  0  0  0  0  0  0  0  0  0  0  0
  -28.1940  -24.0321   21.2127 C   0  0  0  0  0  0  0  0  0  0  0  0
  -25.1327  -17.7610   20.1667 C   0  0  0  0  0  0  0  0  0  0  0  0
  -23.0488  -16.3838   20.0735 C   0  0  0  0  0  0  0  0  0  0  0  0
  -23.5093  -29.8005   23.0098 C   0  0  0  0  0  0  0  0  0  0  0  0
  -21.6085  -28.8280   20.5678 C   0  0  0  0  0  0  0  0  0  0  0  0
  -21.3612  -27.3650   17.4944 C   0  0  0  0  0  0  0  0  0  0  0  0
  -29.1131  -21.0701   22.2529 C   0  0  0  0  0  0  0  0  0  0  0  0
  -23.1337  -32.9379   27.0189 C   0  0  0  0  0  0  0  0  0  0  0  0
  -24.6458  -30.8710   21.0304 C   0  0  0  0  0  0  0  0  0  0  0  0
  -24.0015  -28.0301   20.5219 C   0  0  0  0  0  0  0  0  0  0  0  0
  -22.1559  -32.1307   26.1690 C   0  0  0  0  0  0  0  0  0  0  0  0
  -30.0504  -18.8274   19.6513 C   0  0  0  0  0  0  0  0  0  0  0  0
  -22.6426  -30.6932   26.0155 C   0  0  0  0  0  0  0  0  0  0  0  0
  -28.8674  -17.8623   19.5564 C   0  0  0  0  0  0  0  0  0  0  0  0
  -30.3234  -19.2454   21.0945 C   0  0  0  0  0  0  0  0  0  0  0  0
  -27.9748  -18.8313   21.7158 C   0  0  0  0  0  0  0  0  0  0  0  0
  -23.9977  -30.6431   25.2994 C   0  0  1  0  0  0  0  0  0  0  0  0
  -23.3752  -30.2258   21.5750 C   0  0  1  0  0  0  0  0  0  0  0  0
  -27.6257  -18.4252   20.2738 C   0  0  2  0  0  0  0  0  0  0  0  0
  -19.6723  -26.6740   15.7718 C   0  0  0  0  0  0  0  0  0  0  0  0
  -25.7914  -23.4845   22.0029 C   0  0  0  0  0  0  0  0  0  0  0  0
  -27.1360  -25.2259   23.1499 C   0  0  0  0  0  0  0  0  0  0  0  0
  -20.8417  -26.4264   22.2866 C   0  0  0  0  0  0  0  0  0  0  0  0
  -19.9487  -25.3235   20.2240 C   0  0  0  0  0  0  0  0  0  0  0  0
  -18.9420  -27.4589   21.0298 C   0  0  0  0  0  0  0  0  0  0  0  0
  -31.8333  -27.2294   17.6295 C   0  0  0  0  0  0  0  0  0  0  0  0
  -29.6236  -26.1875   17.1986 C   0  0  0  0  0  0  0  0  0  0  0  0
  -32.0476  -25.6750   20.3336 C   0  0  0  0  0  0  0  0  0  0  0  0
  -31.8152  -24.2540   18.3545 C   0  0  0  0  0  0  0  0  0  0  0  0
  -22.5338  -29.1616   15.4557 C   0  0  0  0  0  0  0  0  0  0  0  0
  -27.7654  -22.8066   23.4051 C   0  0  0  0  0  0  0  0  0  0  0  0
  -29.9267  -27.6763   19.1981 C   0  0  0  0  0  0  0  0  0  1  0  0
  -21.2365  -27.4931   19.9688 C   0  0  1  0  0  0  0  0  0  0  0  0
  -20.6099  -27.7756   16.2409 C   0  0  2  0  0  0  0  0  0  0  0  0
  -27.2782  -23.8791   22.3534 C   0  0  0  0  0  0  0  0  0  0  0  0
  -20.2693  -26.6842   20.8785 C   0  0  0  0  0  0  0  0  0  0  0  0
  -30.6120  -26.5771   18.3306 C   0  0  0  0  0  0  0  0  0  0  0  0
  -31.0299  -25.2931   19.2140 C   0  0  0  0  0  0  0  0  0  0  0  0
  -28.0113  -23.2989   20.0669 N   0  0  0  0  0  0  0  0  0  0  0  0
  -26.7133  -16.1344   20.2262 N   0  0  0  0  0  0  0  0  0  0  0  0
  -29.7870  -24.6158   19.8558 N   0  0  0  0  0  0  0  0  0  0  0  0
  -26.4606  -17.4543   20.2209 N   0  0  0  0  0  0  0  0  0  0  0  0
  -22.9722  -29.0412   20.8144 N   0  0  0  0  0  0  0  0  0  0  0  0
  -29.1063  -19.7717   21.7170 N   0  0  0  0  0  0  0  0  0  0  0  0
  -24.7028  -19.0407   20.1541 N   0  0  0  0  0  0  0  0  0  0  0  0
  -22.5361  -15.0796   20.0467 N   0  0  0  0  0  0  0  0  0  0  0  0
  -23.8239  -30.8310   23.8750 N   0  0  0  0  0  0  0  0  0  0  0  0
  -20.7094  -27.7755   18.6381 N   0  0  0  0  0  0  0  0  0  0  0  0
  -27.9167  -21.4936   22.8186 N   0  0  0  0  0  0  0  0  0  0  0  0
  -21.5668  -28.0790   15.1394 N   0  3  0  0  0  0  0  0  0  0  0  0
  -22.2571  -17.3557   20.0276 O   0  0  0  0  0  0  0  0  0  0  0  0
  -23.3384  -28.6247   23.3100 O   0  0  0  0  0  0  0  0  0  0  0  0
  -20.7226  -29.6539   20.8014 O   0  0  0  0  0  0  0  0  0  0  0  0
  -22.4186  -26.7393   17.4624 O   0  0  0  0  0  0  0  0  0  0  0  0
  -30.1099  -21.7999   22.2243 O   0  0  0  0  0  0  0  0  0  0  0  0
  -24.8938  -10.0328   20.1274 O   0  0  0  0  0  0  0  0  0  0  0  0
  -28.7732  -27.1691   19.8676 O   0  0  0  0  0  0  0  0  0  1  0  0
  -21.0490   -7.8390   23.4150 F   0  0  0  0  0  0  0  0  0  0  0  0
  -22.2295  -10.7145   19.8452 F   0  0  0  0  0  0  0  0  0  0  0  0
  1  2  1  0  0  0  0
  1  5  2  0  0  0  0
  2  6  2  0  0  0  0
  3  8  2  0  0  0  0
  3 17  1  0  0  0  0
  4  9  1  0  0  0  0
  4 17  2  0  0  0  0
  5 19  1  0  0  0  0
  6 21  1  0  0  0  0
  7 10  2  0  0  0  0
  7 20  1  0  0  0  0
  8 23  1  0  0  0  0
  9 23  2  0  0  0  0
 10 24  1  0  0  0  0
 11 12  2  0  0  0  0
 11 25  1  0  0  0  0
 12 26  1  0  0  0  0
 13 22  1  0  0  0  0
 13 24  2  0  0  0  0
 14 26  2  0  0  0  0
 14 27  1  0  0  0  0
 15 29  2  0  0  0  0
 15 69  1  0  0  0  0
 16 67  2  0  0  0  0
 16 69  1  0  0  0  0
 17 28  1  0  0  0  0
 18 28  1  0  0  0  0
 18 30  2  0  0  0  0
 18 31  1  0  0  0  0
 19 21  2  0  0  0  0
 19 36  1  0  0  0  0
 20 22  2  0  0  0  0
 20 37  1  0  0  0  0
 21 45  1  0  0  0  0
 22 38  1  0  0  0  0
 23 84  1  0  0  0  0
 24 85  1  0  0  0  0
 25 27  2  0  0  0  0
 25 84  1  0  0  0  0
 26 86  1  0  0  0  0
 27 87  1  0  0  0  0
 28 68  2  0  0  0  0
 29 63  1  0  0  0  0
 29 67  1  0  0  0  0
 30 70  1  0  0  0  0
 30 73  1  0  0  0  0
 31 74  1  0  0  0  0
 31 79  2  0  0  0  0
 32 46  1  0  0  0  0
 32 75  1  0  0  0  0
 32 80  2  0  0  0  0
 33 61  1  0  0  0  0
 33 71  1  0  0  0  0
 33 81  2  0  0  0  0
 34 62  1  0  0  0  0
 34 76  1  0  0  0  0
 34 82  2  0  0  0  0
 35 72  1  0  0  0  0
 35 77  1  0  0  0  0
 35 83  2  0  0  0  0
 36 39  1  0  0  0  0
 37 46  1  0  0  0  0
 38 71  1  0  0  0  0
 39 41  1  0  0  0  0
 40 42  1  0  0  0  0
 40 43  1  0  0  0  0
 41 45  1  0  0  0  0
 42 47  1  0  0  0  0
 43 72  1  0  0  0  0
 44 47  1  0  0  0  0
 44 72  1  0  0  0  0
 45 75  1  0  0  0  0
 46 71  1  0  0  0  0
 47 70  1  0  0  0  0
 48 62  1  0  0  0  0
 49 63  1  0  0  0  0
 50 63  1  0  0  0  0
 51 64  1  0  0  0  0
 52 64  1  0  0  0  0
 53 64  1  0  0  0  0
 54 65  1  0  0  0  0
 55 65  1  0  0  0  0
 56 66  1  0  0  0  0
 57 66  1  0  0  0  0
 58 78  1  0  0  0  0
 59 63  1  0  0  0  0
 59 77  1  0  0  0  0
 60 65  1  0  0  0  0
 60 85  1  0  0  0  0
 61 64  1  0  0  0  0
 61 76  1  0  0  0  0
 62 78  1  0  0  0  0
 65 66  1  0  0  0  0
 66 69  1  0  0  0  0
 68 70  1  0  0  0  0
M  CHG  1  78   1
M  ISO  4  35 100  60 101  77 100  85 101
M  END
> <Batch ID>
0064

> <Smiles>
CNC(C)C(=O)NC(C(=O)N1Cc2cc([101O:1][101CH2:1]C(C)(C)C(C)(C)n3cnc(C(C)(C)C[100NH:0][100C:0](=O)N4CCCC(n5nc(-c6ccc(Oc7ccc(F)cc7F)cc6)c(C(N)=O)c5N)C4)c3)ccc2CC1C(=O)NC1CCCc2ccccc21)C(C)(C)C

> <Shape>
0.300

> <Color>
0.074

> <Negative vol penalty>
0.000

$$$$

  -OEChem-04052318053D

 95103  0     1  0  0  0  0  0999 V2000
  -18.7576  -33.4420   24.0767 C   0  0  0  0  0  0  0  0  0  0  0  0
  -20.0304  -33.4823   23.5168 C   0  0  0  0  0  0  0  0  0  0  0  0
  -26.9378  -12.8069   20.8993 C   0  0  0  0  0  0  0  0  0  0  0  0
  -25.5957  -14.7905   20.5812 C   0  0  0  0  0  0  0  0  0  0  0  0
  -18.2746  -32.2533   24.6223 C   0  0  0  0  0  0  0  0  0  0  0  0
  -20.8216  -32.3341   23.5030 C   0  0  0  0  0  0  0  0  0  0  0  0
  -25.7992  -29.0311   19.5495 C   0  0  0  0  0  0  0  0  0  0  0  0
  -25.8295  -12.1408   21.4223 C   0  0  0  0  0  0  0  0  0  0  0  0
  -24.4873  -14.1244   21.1042 C   0  0  0  0  0  0  0  0  0  0  0  0
  -27.0724  -28.4752   19.6655 C   0  0  0  0  0  0  0  0  0  0  0  0
  -23.2644   -9.8043   22.5067 C   0  0  0  0  0  0  0  0  0  0  0  0
  -23.0212   -8.5039   22.0647 C   0  0  0  0  0  0  0  0  0  0  0  0
  -26.1031  -26.4579   20.5657 C   0  0  0  0  0  0  0  0  0  0  0  0
  -22.8093   -9.3138   19.7984 C   0  0  0  0  0  0  0  0  0  0  0  0
  -26.8209  -14.1318   20.4788 C   0  0  0  0  0  0  0  0  0  0  0  0
  -28.3665  -14.8758   18.5906 C   0  0  0  0  0  0  0  0  0  0  0  0
  -19.0564  -31.0875   24.6065 C   0  0  0  0  0  0  0  0  0  0  0  0
  -24.6673  -28.3076   19.9516 C   0  0  0  0  0  0  0  0  0  0  0  0
  -20.3491  -31.1290   24.0501 C   0  0  0  0  0  0  0  0  0  0  0  0
  -24.8163  -27.0060   20.4514 C   0  0  0  0  0  0  0  0  0  0  0  0
  -24.6042  -12.7996   21.5247 C   0  0  0  0  0  0  0  0  0  0  0  0
  -27.2248  -27.1895   20.1764 C   0  0  0  0  0  0  0  0  0  0  0  0
  -23.2800  -10.8595   21.5946 C   0  0  0  0  0  0  0  0  0  0  0  0
  -22.7937   -8.2586   20.7106 C   0  0  0  0  0  0  0  0  0  0  0  0
  -23.0525  -10.6142   20.2404 C   0  0  0  0  0  0  0  0  0  0  0  0
  -27.9656  -14.8205   19.9390 C   0  0  0  0  0  0  0  0  0  0  0  0
  -29.5028  -15.6474   18.6016 C   0  0  0  0  0  0  0  0  0  0  0  0
  -31.1896  -22.2924   19.0167 C   0  0  0  0  0  0  0  0  0  0  0  0
  -30.2593  -21.0239   20.6174 C   0  0  0  0  0  0  0  0  0  0  0  0
  -29.4601  -20.9504   18.5215 C   0  0  0  0  0  0  0  0  0  0  0  0
  -27.7656  -14.2828   17.4318 C   0  0  0  0  0  0  0  0  0  0  0  0
  -22.4032  -28.7205   22.1441 C   0  0  0  0  0  0  0  0  0  0  0  0
  -31.4695  -19.8392   22.4321 C   0  0  0  0  0  0  0  0  0  0  0  0
  -21.1136  -26.0938   20.7442 C   0  0  0  0  0  0  0  0  0  0  0  0
  -21.5931  -23.2666   18.8939 C   0  0  0  0  0  0  0  0  0  0  0  0
  -18.5099  -29.8381   25.2507 C   0  0  0  0  0  0  0  0  0  0  0  0
  -23.2985  -28.9113   19.7951 C   0  0  0  0  0  0  0  0  0  0  0  0
  -23.6315  -26.1798   20.8781 C   0  0  0  0  0  0  0  0  0  0  0  0
  -19.2657  -28.5707   24.8600 C   0  0  0  0  0  0  0  0  0  0  0  0
  -33.1823  -16.8685   21.3924 C   0  0  0  0  0  0  0  0  0  0  0  0
  -20.7713  -28.7957   24.9572 C   0  0  0  0  0  0  0  0  0  0  0  0
  -32.0705  -16.0000   20.8052 C   0  0  0  0  0  0  0  0  0  0  0  0
  -32.6827  -17.6895   22.5771 C   0  0  0  0  0  0  0  0  0  0  0  0
  -30.3758  -17.6680   21.6831 C   0  0  0  0  0  0  0  0  0  0  0  0
  -21.2277  -29.8982   23.9940 C   0  0  1  0  0  0  0  0  0  0  0  0
  -22.2582  -28.2798   20.7150 C   0  0  1  0  0  0  0  0  0  0  0  0
  -30.8303  -16.8452   20.4646 C   0  0  2  0  0  0  0  0  0  0  0  0
  -25.9123  -24.4368   17.0178 C   0  0  0  0  0  0  0  0  0  0  0  0
  -29.9510  -21.7031   23.0332 C   0  0  0  0  0  0  0  0  0  0  0  0
  -20.3561  -21.3011   17.9432 C   0  0  0  0  0  0  0  0  0  0  0  0
  -27.9457  -23.0270   18.7291 C   0  0  0  0  0  0  0  0  0  0  0  0
  -28.6812  -18.8485   17.4497 C   0  0  0  0  0  0  0  0  0  0  0  0
  -28.7183  -20.8845   16.0468 C   0  0  0  0  0  0  0  0  0  0  0  0
  -21.0106  -24.8213   23.5155 C   0  0  0  0  0  0  0  0  0  0  0  0
  -20.6838  -22.6003   22.4071 C   0  0  0  0  0  0  0  0  0  0  0  0
  -18.9902  -24.4061   22.1012 C   0  0  0  0  0  0  0  0  0  0  0  0
  -22.2973  -24.0178   16.1192 C   0  0  0  0  0  0  0  0  0  0  0  0
  -23.4805  -19.5078   16.7487 C   0  0  0  0  0  0  0  0  0  0  0  0
  -24.4581  -19.7117   19.0298 C   0  0  0  0  0  0  0  0  0  0  0  0
  -32.2095  -23.2936   18.5927 C   0  0  0  0  0  0  0  0  0  0  0  0
  -26.2208  -22.9534   16.8560 C   0  0  0  0  0  0  0  0  0  0  0  0
  -32.1796  -24.6102   19.3909 C   0  0  0  0  0  0  0  0  0  0  0  0
  -30.8613  -25.3734   19.2282 C   0  0  0  0  0  0  0  0  0  0  0  0
  -30.8586  -26.6562   20.0579 C   0  0  0  0  0  0  0  0  0  0  0  0
  -25.8942  -20.0551   17.0248 C   0  0  0  0  0  0  0  0  0  0  0  0
  -29.5695  -27.4435   19.8706 C   0  0  0  0  0  0  0  0  0  1  0  0
  -30.2089  -20.5655   22.0351 C   0  0  1  0  0  0  0  0  0  0  0  0
  -21.2338  -24.6035   20.9525 C   0  0  1  0  0  0  0  0  0  0  0  0
  -20.8548  -22.7148   17.6877 C   0  0  2  0  0  0  0  0  0  0  0  0
  -26.7346  -22.2803   18.1527 C   0  0  1  0  0  0  0  0  0  0  0  0
  -26.9512  -20.7292   17.9325 C   0  0  2  0  0  0  0  0  0  0  0  0
  -28.4508  -20.3853   17.4873 C   0  0  0  0  0  0  0  0  0  0  0  0
  -20.5023  -24.1238   22.2379 C   0  0  0  0  0  0  0  0  0  0  0  0
  -28.7809  -15.5025   20.7477 N   0  0  0  0  0  0  0  0  0  0  0  0
  -31.2041  -21.9266   20.3088 N   0  0  0  0  0  0  0  0  0  0  0  0
  -30.3497  -21.8480   18.0678 N   0  0  0  0  0  0  0  0  0  0  0  0
  -29.3551  -20.4920   19.7792 N   0  0  0  0  0  0  0  0  0  0  0  0
  -29.7056  -15.9936   19.9052 N   0  0  0  0  0  0  0  0  0  0  0  0
  -22.3145  -26.8166   20.7115 N   0  0  0  0  0  0  0  0  0  0  0  0
  -31.4909  -18.4607   22.2193 N   0  0  0  0  0  0  0  0  0  0  0  0
  -30.3382  -16.0566   17.6234 N   0  0  0  0  0  0  0  0  0  0  0  0
  -26.6012  -13.5208   17.5989 N   0  0  0  0  0  0  0  0  0  0  0  0
  -21.3008  -29.3891   22.6413 N   0  0  0  0  0  0  0  0  0  0  0  0
  -20.7542  -23.9796   19.7240 N   0  0  0  0  0  0  0  0  0  0  0  0
  -21.7523  -22.6888   16.4983 N   0  3  0  0  0  0  0  0  0  0  0  0
  -24.5302  -20.1809   17.5978 N   0  3  0  0  0  0  0  0  0  0  0  0
  -28.2561  -14.4107   16.2844 O   0  0  0  0  0  0  0  0  0  0  0  0
  -23.4380  -28.4710   22.7512 O   0  0  0  0  0  0  0  0  0  0  0  0
  -32.4072  -20.4801   22.9139 O   0  0  0  0  0  0  0  0  0  0  0  0
  -19.9956  -26.5971   20.6080 O   0  0  0  0  0  0  0  0  0  0  0  0
  -22.7932  -23.0803   19.0828 O   0  0  0  0  0  0  0  0  0  0  0  0
  -23.5224  -12.1498   22.0348 O   0  0  0  0  0  0  0  0  0  0  0  0
  -28.4757  -26.6407   20.2921 O   0  0  0  0  0  0  0  0  0  1  0  0
  -22.5616   -7.0096   20.2860 F   0  0  0  0  0  0  0  0  0  0  0  0
  -23.0675  -11.6237   19.3592 F   0  0  0  0  0  0  0  0  0  0  0  0
  1  2  1  0  0  0  0
  1  5  2  0  0  0  0
  2  6  2  0  0  0  0
  3  8  2  0  0  0  0
  3 15  1  0  0  0  0
  4  9  1  0  0  0  0
  4 15  2  0  0  0  0
  5 17  1  0  0  0  0
  6 19  1  0  0  0  0
  7 10  2  0  0  0  0
  7 18  1  0  0  0  0
  8 21  1  0  0  0  0
  9 21  2  0  0  0  0
 10 22  1  0  0  0  0
 11 12  2  0  0  0  0
 11 23  1  0  0  0  0
 12 24  1  0  0  0  0
 13 20  1  0  0  0  0
 13 22  2  0  0  0  0
 14 24  2  0  0  0  0
 14 25  1  0  0  0  0
 15 26  1  0  0  0  0
 16 26  1  0  0  0  0
 16 27  2  0  0  0  0
 16 31  1  0  0  0  0
 17 19  2  0  0  0  0
 17 36  1  0  0  0  0
 18 20  2  0  0  0  0
 18 37  1  0  0  0  0
 19 45  1  0  0  0  0
 20 38  1  0  0  0  0
 21 92  1  0  0  0  0
 22 93  1  0  0  0  0
 23 25  2  0  0  0  0
 23 92  1  0  0  0  0
 24 94  1  0  0  0  0
 25 95  1  0  0  0  0
 26 74  2  0  0  0  0
 27 78  1  0  0  0  0
 27 81  1  0  0  0  0
 28 60  1  0  0  0  0
 28 75  1  0  0  0  0
 28 76  2  0  0  0  0
 29 67  1  0  0  0  0
 29 75  2  0  0  0  0
 29 77  1  0  0  0  0
 30 72  1  0  0  0  0
 30 76  1  0  0  0  0
 30 77  2  0  0  0  0
 31 82  1  0  0  0  0
 31 87  2  0  0  0  0
 32 46  1  0  0  0  0
 32 83  1  0  0  0  0
 32 88  2  0  0  0  0
 33 67  1  0  0  0  0
 33 80  1  0  0  0  0
 33 89  2  0  0  0  0
 34 68  1  0  0  0  0
 34 79  1  0  0  0  0
 34 90  2  0  0  0  0
 35 69  1  0  0  0  0
 35 84  1  0  0  0  0
 35 91  2  0  0  0  0
 36 39  1  0  0  0  0
 37 46  1  0  0  0  0
 38 79  1  0  0  0  0
 39 41  1  0  0  0  0
 40 42  1  0  0  0  0
 40 43  1  0  0  0  0
 41 45  1  0  0  0  0
 42 47  1  0  0  0  0
 43 80  1  0  0  0  0
 44 47  1  0  0  0  0
 44 80  1  0  0  0  0
 45 83  1  0  0  0  0
 46 79  1  0  0  0  0
 47 78  1  0  0  0  0
 48 61  1  0  0  0  0
 49 67  1  0  0  0  0
 50 69  1  0  0  0  0
 51 70  1  0  0  0  0
 52 72  1  0  0  0  0
 53 72  1  0  0  0  0
 54 73  1  0  0  0  0
 55 73  1  0  0  0  0
 56 73  1  0  0  0  0
 57 85  1  0  0  0  0
 58 86  1  0  0  0  0
 59 86  1  0  0  0  0
 60 62  1  0  0  0  0
 61 70  1  0  0  0  0
 62 63  1  0  0  0  0
 63 64  1  0  0  0  0
 64 66  1  0  0  0  0
 65 71  1  0  0  0  0
 65 86  1  0  0  0  0
 66 93  1  0  0  0  0
 68 73  1  0  0  0  0
 68 84  1  0  0  0  0
 69 85  1  0  0  0  0
 70 71  1  0  0  0  0
 71 72  1  0  0  0  0
 74 78  1  0  0  0  0
M  CHG  2  85   1  86   1
M  ISO  4  33 100  66 101  67 100  93 101
M  END
> <Batch ID>
0064

> <Smiles>
CCC(C)C(CN(C)C)C(C)(C)c1nc(CCCC[101CH2:1][101O:1]c2ccc3c(c2)CN(C(=O)C(NC(=O)C(C)NC)C(C)(C)C)C(C(=O)NC2CCCc4ccccc42)C3)nc([100CH:0](C)[100C:0](=O)N2CCCC(n3nc(-c4ccc(Oc5ccc(F)cc5F)cc4)c(C(N)=O)c3N)C2)n1

> <Shape>
0.246

> <Color>
0.094

> <Negative vol penalty>
0.000

$$$$

  -OEChem-04052318053D

 94102  0     1  0  0  0  0  0999 V2000
  -23.0546  -26.9426   19.0312 C   0  0  0  0  0  0  0  0  0  0  0  0
  -23.9858  -25.9254   18.8481 C   0  0  0  0  0  0  0  0  0  0  0  0
  -21.4433  -23.2359   23.7370 C   0  0  0  0  0  0  0  0  0  0  0  0
  -21.6321  -22.5342   21.4329 C   0  0  0  0  0  0  0  0  0  0  0  0
  -23.4788  -28.2130   19.4188 C   0  0  0  0  0  0  0  0  0  0  0  0
  -25.3419  -26.1782   19.0515 C   0  0  0  0  0  0  0  0  0  0  0  0
  -27.6221  -22.5220   21.7119 C   0  0  0  0  0  0  0  0  0  0  0  0
  -21.2220  -24.5482   23.3192 C   0  0  0  0  0  0  0  0  0  0  0  0
  -21.4108  -23.8465   21.0151 C   0  0  0  0  0  0  0  0  0  0  0  0
  -27.9500  -21.3499   21.0319 C   0  0  0  0  0  0  0  0  0  0  0  0
  -18.6551  -26.3699   22.0842 C   0  0  0  0  0  0  0  0  0  0  0  0
  -17.6231  -27.0801   22.6975 C   0  0  0  0  0  0  0  0  0  0  0  0
  -30.2294  -22.1129   20.8282 C   0  0  0  0  0  0  0  0  0  0  0  0
  -19.2134  -28.7302   23.4627 C   0  0  0  0  0  0  0  0  0  0  0  0
  -28.2169  -15.5018   19.3681 C   0  0  0  0  0  0  0  0  0  0  0  0
  -21.6484  -22.2289   22.7938 C   0  0  0  0  0  0  0  0  0  0  0  0
  -20.9084  -19.8770   23.4485 C   0  0  0  0  0  0  0  0  0  0  0  0
  -24.8398  -28.4789   19.6364 C   0  0  0  0  0  0  0  0  0  0  0  0
  -28.5946  -23.5049   21.9459 C   0  0  0  0  0  0  0  0  0  0  0  0
  -25.7848  -27.4537   19.4411 C   0  0  0  0  0  0  0  0  0  0  0  0
  -29.9119  -23.2954   21.5136 C   0  0  0  0  0  0  0  0  0  0  0  0
  -27.8042  -14.6107   20.3283 C   0  0  0  0  0  0  0  0  0  0  0  0
  -21.2058  -24.8535   21.9583 C   0  0  0  0  0  0  0  0  0  0  0  0
  -29.2532  -21.1464   20.5874 C   0  0  0  0  0  0  0  0  0  0  0  0
  -19.9663  -26.8397   22.1603 C   0  0  0  0  0  0  0  0  0  0  0  0
  -17.9022  -28.2603   23.3867 C   0  0  0  0  0  0  0  0  0  0  0  0
  -20.2454  -28.0199   22.8494 C   0  0  0  0  0  0  0  0  0  0  0  0
  -21.8775  -20.8732   23.2248 C   0  0  0  0  0  0  0  0  0  0  0  0
  -28.9695  -13.9003   20.6733 C   0  0  0  0  0  0  0  0  0  0  0  0
  -21.6310  -18.7772   23.8419 C   0  0  0  0  0  0  0  0  0  0  0  0
  -19.4824  -19.9401   23.3129 C   0  0  0  0  0  0  0  0  0  0  0  0
  -28.9642  -26.5435   21.0893 C   0  0  0  0  0  0  0  0  0  0  0  0
  -31.5142  -26.3908   23.0883 C   0  0  0  0  0  0  0  0  0  0  0  0
  -26.7170  -16.2080   22.7110 C   0  0  0  0  0  0  0  0  0  0  0  0
  -33.8647  -24.4669   24.6442 C   0  0  0  0  0  0  0  0  0  0  0  0
  -25.2552  -29.8802   20.0087 C   0  0  0  0  0  0  0  0  0  0  0  0
  -28.2309  -24.7519   22.7043 C   0  0  0  0  0  0  0  0  0  0  0  0
  -30.9974  -24.3106   21.7574 C   0  0  0  0  0  0  0  0  0  0  0  0
  -26.6732  -29.9671   20.5673 C   0  0  0  0  0  0  0  0  0  0  0  0
  -26.1321  -18.0469   25.7303 C   0  0  0  0  0  0  0  0  0  0  0  0
  -27.6393  -29.1686   19.6979 C   0  0  0  0  0  0  0  0  0  0  0  0
  -24.9003  -18.8904   25.4041 C   0  0  0  0  0  0  0  0  0  0  0  0
  -27.0308  -17.8755   24.5097 C   0  0  0  0  0  0  0  0  0  0  0  0
  -25.1002  -18.1525   22.9873 C   0  0  0  0  0  0  0  0  0  0  0  0
  -27.2622  -27.6823   19.6760 C   0  0  1  0  0  0  0  0  0  0  0  0
  -29.1827  -25.9135   22.4357 C   0  0  1  0  0  0  0  0  0  0  0  0
  -24.1498  -18.3245   24.1855 C   0  0  2  0  0  0  0  0  0  0  0  0
  -29.1976  -11.4272   21.0177 C   0  0  0  0  0  0  0  0  0  0  0  0
  -29.9922  -14.3841   16.2497 C   0  0  0  0  0  0  0  0  0  0  0  0
  -32.9989  -16.2463   17.4355 C   0  0  0  0  0  0  0  0  0  0  0  0
  -35.8380  -24.6302   26.1859 C   0  0  0  0  0  0  0  0  0  0  0  0
  -33.2224  -27.4376   20.7870 C   0  0  0  0  0  0  0  0  0  0  0  0
  -35.2529  -26.6873   22.0449 C   0  0  0  0  0  0  0  0  0  0  0  0
  -33.7578  -28.4303   23.0191 C   0  0  0  0  0  0  0  0  0  0  0  0
  -32.5526  -22.7788   26.6906 C   0  0  0  0  0  0  0  0  0  0  0  0
  -29.1069  -12.8160   21.6615 C   0  0  0  0  0  0  0  0  0  0  0  0
  -29.9774  -15.8231   16.7581 C   0  0  0  0  0  0  0  0  0  0  0  0
  -31.9846  -15.5443   18.3348 C   0  0  0  0  0  0  0  0  0  0  0  0
  -30.9463  -18.0104   19.8956 C   0  0  0  0  0  0  0  0  0  0  0  0
  -30.4157  -17.5719   18.5197 C   0  0  0  0  0  0  0  0  0  0  0  0
  -30.9135  -19.5267   20.0623 C   0  0  0  0  0  0  0  0  0  1  0  0
  -32.9718  -26.0288   22.9360 C   0  0  1  0  0  0  0  0  0  0  0  0
  -34.3349  -24.4213   26.0869 C   0  0  2  0  0  0  0  0  0  0  0  0
  -26.4438  -14.4453   20.8673 C   0  0  1  0  0  0  0  0  0  0  0  0
  -25.8853  -15.7330   21.5462 C   0  0  0  0  0  0  0  0  0  0  0  0
  -33.7806  -27.1275   22.1903 C   0  0  0  0  0  0  0  0  0  0  0  0
  -30.4973  -16.0300   18.2250 C   0  0  0  0  0  0  0  0  0  0  0  0
  -25.4045  -13.8628   19.8724 C   0  0  0  0  0  0  0  0  0  0  0  0
  -23.1210  -20.4443   23.4568 N   0  0  0  0  0  0  0  0  0  0  0  0
  -30.0421  -14.3050   19.9879 N   0  0  0  0  0  0  0  0  0  0  0  0
  -29.5523  -15.2794   19.2025 N   0  0  0  0  0  0  0  0  0  0  0  0
  -22.9381  -19.1664   23.8305 N   0  0  0  0  0  0  0  0  0  0  0  0
  -30.5908  -25.5164   22.4978 N   0  0  0  0  0  0  0  0  0  0  0  0
  -26.2760  -17.3572   23.3674 N   0  0  0  0  0  0  0  0  0  0  0  0
  -21.2694  -17.5248   24.1929 N   0  0  0  0  0  0  0  0  0  0  0  0
  -18.9035  -21.1474   22.8986 N   0  0  0  0  0  0  0  0  0  0  0  0
  -27.6868  -27.0351   20.8988 N   0  0  0  0  0  0  0  0  0  0  0  0
  -33.4615  -25.7337   24.2783 N   0  0  0  0  0  0  0  0  0  0  0  0
  -34.0022  -23.1038   26.6987 N   0  3  0  0  0  0  0  0  0  0  0  0
  -18.7423  -18.9600   23.5679 O   0  0  0  0  0  0  0  0  0  0  0  0
  -29.8865  -26.5821   20.2834 O   0  0  0  0  0  0  0  0  0  0  0  0
  -31.2059  -27.4079   23.7144 O   0  0  0  0  0  0  0  0  0  0  0  0
  -27.7265  -15.5736   23.0283 O   0  0  0  0  0  0  0  0  0  0  0  0
  -33.8593  -23.4785   23.9138 O   0  0  0  0  0  0  0  0  0  0  0  0
  -20.9897  -26.1339   21.5502 O   0  0  0  0  0  0  0  0  0  0  0  0
  -29.5758  -20.0035   19.9229 O   0  0  0  0  0  0  0  0  0  1  0  0
  -16.9109  -28.9431   23.9742 F   0  0  0  0  0  0  0  0  0  0  0  0
  -21.5029  -28.4768   22.9249 F   0  0  0  0  0  0  0  0  0  0  0  0
  -26.4097  -13.5040   21.9039 F   0  0  0  0  0  0  0  0  0  0  0  0
  -24.6160  -15.4658   21.9644 F   0  0  0  0  0  0  0  0  0  0  0  0
  -25.7636  -16.7362   20.6318 F   0  0  0  0  0  0  0  0  0  0  0  0
  -25.7539  -12.6328   19.4263 F   0  0  0  0  0  0  0  0  0  0  0  0
  -24.1748  -13.7513   20.4134 F   0  0  0  0  0  0  0  0  0  0  0  0
  -25.3067  -14.6650   18.7877 F   0  0  0  0  0  0  0  0  0  0  0  0
  1  2  1  0  0  0  0
  1  5  2  0  0  0  0
  2  6  2  0  0  0  0
  3  8  2  0  0  0  0
  3 16  1  0  0  0  0
  4  9  1  0  0  0  0
  4 16  2  0  0  0  0
  5 18  1  0  0  0  0
  6 20  1  0  0  0  0
  7 10  2  0  0  0  0
  7 19  1  0  0  0  0
  8 23  1  0  0  0  0
  9 23  2  0  0  0  0
 10 24  1  0  0  0  0
 11 12  2  0  0  0  0
 11 25  1  0  0  0  0
 12 26  1  0  0  0  0
 13 21  1  0  0  0  0
 13 24  2  0  0  0  0
 14 26  2  0  0  0  0
 14 27  1  0  0  0  0
 15 22  2  0  0  0  0
 15 71  1  0  0  0  0
 16 28  1  0  0  0  0
 17 28  1  0  0  0  0
 17 30  2  0  0  0  0
 17 31  1  0  0  0  0
 18 20  2  0  0  0  0
 18 36  1  0  0  0  0
 19 21  2  0  0  0  0
 19 37  1  0  0  0  0
 20 45  1  0  0  0  0
 21 38  1  0  0  0  0
 22 29  1  0  0  0  0
 22 64  1  0  0  0  0
 23 85  1  0  0  0  0
 24 86  1  0  0  0  0
 25 27  2  0  0  0  0
 25 85  1  0  0  0  0
 26 87  1  0  0  0  0
 27 88  1  0  0  0  0
 28 69  2  0  0  0  0
 29 56  1  0  0  0  0
 29 70  2  0  0  0  0
 30 72  1  0  0  0  0
 30 75  1  0  0  0  0
 31 76  1  0  0  0  0
 31 80  2  0  0  0  0
 32 46  1  0  0  0  0
 32 77  1  0  0  0  0
 32 81  2  0  0  0  0
 33 62  1  0  0  0  0
 33 73  1  0  0  0  0
 33 82  2  0  0  0  0
 34 65  1  0  0  0  0
 34 74  1  0  0  0  0
 34 83  2  0  0  0  0
 35 63  1  0  0  0  0
 35 78  1  0  0  0  0
 35 84  2  0  0  0  0
 36 39  1  0  0  0  0
 37 46  1  0  0  0  0
 38 73  1  0  0  0  0
 39 41  1  0  0  0  0
 40 42  1  0  0  0  0
 40 43  1  0  0  0  0
 41 45  1  0  0  0  0
 42 47  1  0  0  0  0
 43 74  1  0  0  0  0
 44 47  1  0  0  0  0
 44 74  1  0  0  0  0
 45 77  1  0  0  0  0
 46 73  1  0  0  0  0
 47 72  1  0  0  0  0
 48 56  1  0  0  0  0
 49 57  1  0  0  0  0
 50 58  1  0  0  0  0
 51 63  1  0  0  0  0
 52 66  1  0  0  0  0
 53 66  1  0  0  0  0
 54 66  1  0  0  0  0
 55 79  1  0  0  0  0
 57 67  1  0  0  0  0
 58 67  1  0  0  0  0
 59 60  1  0  0  0  0
 59 61  1  0  0  0  0
 60 67  1  0  0  0  0
 61 86  1  0  0  0  0
 62 66  1  0  0  0  0
 62 78  1  0  0  0  0
 63 79  1  0  0  0  0
 64 65  1  0  0  0  0
 64 68  1  0  0  0  0
 64 89  1  0  0  0  0
 65 90  1  0  0  0  0
 65 91  1  0  0  0  0
 67 71  1  0  0  0  0
 68 92  1  0  0  0  0
 68 93  1  0  0  0  0
 68 94  1  0  0  0  0
 69 72  1  0  0  0  0
 70 71  1  0  0  0  0
M  CHG  1  79   1
M  ISO  4  34 100  61 101  65 100  86 101
M  END
> <Batch ID>
0064

> <Smiles>
CCc1nn(C(CC)(CC)CC[101CH2:1][101O:1]c2ccc3c(c2)CN(C(=O)C(NC(=O)C(C)NC)C(C)(C)C)C(C(=O)NC2CCCc4ccccc42)C3)cc1C(F)(C(F)(F)F)[100C:0](F)(F)[100C:0](=O)N1CCCC(n2nc(-c3ccc(Oc4ccc(F)cc4F)cc3)c(C(N)=O)c2N)C1

> <Shape>
0.212

> <Color>
0.046

> <Negative vol penalty>
0.000

$$$$

  -OEChem-04052318053D

 84 92  0     1  0  0  0  0  0999 V2000
  -23.8759  -33.4600   22.8730 C   0  0  0  0  0  0  0  0  0  0  0  0
  -25.0076  -32.6618   23.0052 C   0  0  0  0  0  0  0  0  0  0  0  0
  -23.0759   -9.8635   19.9481 C   0  0  0  0  0  0  0  0  0  0  0  0
  -23.8323   -9.8850   22.2425 C   0  0  0  0  0  0  0  0  0  0  0  0
  -22.6250  -32.9586   23.2304 C   0  0  0  0  0  0  0  0  0  0  0  0
  -24.8891  -31.3620   23.4961 C   0  0  0  0  0  0  0  0  0  0  0  0
  -28.1976  -26.4835   21.8345 C   0  0  0  0  0  0  0  0  0  0  0  0
  -22.3332   -8.7109   20.2038 C   0  0  0  0  0  0  0  0  0  0  0  0
  -23.0895   -8.7324   22.4983 C   0  0  0  0  0  0  0  0  0  0  0  0
  -29.3059  -25.8622   22.4084 C   0  0  0  0  0  0  0  0  0  0  0  0
  -19.3837   -7.9191   21.6553 C   0  0  0  0  0  0  0  0  0  0  0  0
  -18.0776   -7.8684   21.1683 C   0  0  0  0  0  0  0  0  0  0  0  0
  -27.8475  -24.2763   23.4933 C   0  0  0  0  0  0  0  0  0  0  0  0
  -18.6418   -5.9182   19.8585 C   0  0  0  0  0  0  0  0  0  0  0  0
  -31.8082  -21.1061   21.8556 C   0  0  0  0  0  0  0  0  0  0  0  0
  -30.2682  -19.9493   23.7043 C   0  0  0  0  0  0  0  0  0  0  0  0
  -23.8256  -10.4505   20.9675 C   0  0  0  0  0  0  0  0  0  0  0  0
  -24.1644  -12.9754   20.8330 C   0  0  0  0  0  0  0  0  0  0  0  0
  -22.4898  -31.6487   23.7168 C   0  0  0  0  0  0  0  0  0  0  0  0
  -26.9029  -26.0117   22.0949 C   0  0  0  0  0  0  0  0  0  0  0  0
  -23.6354  -30.8431   23.8616 C   0  0  0  0  0  0  0  0  0  0  0  0
  -26.7246  -24.8918   22.9195 C   0  0  0  0  0  0  0  0  0  0  0  0
  -22.3399   -8.1454   21.4788 C   0  0  0  0  0  0  0  0  0  0  0  0
  -29.1308  -24.7602   23.2402 C   0  0  0  0  0  0  0  0  0  0  0  0
  -20.3189   -6.9695   21.2438 C   0  0  0  0  0  0  0  0  0  0  0  0
  -17.7067   -6.8679   20.2699 C   0  0  0  0  0  0  0  0  0  0  0  0
  -19.9480   -5.9690   20.3454 C   0  0  0  0  0  0  0  0  0  0  0  0
  -24.5935  -11.6408   20.7038 C   0  0  0  0  0  0  0  0  0  0  0  0
  -31.6259  -21.6847   23.0923 C   0  0  0  0  0  0  0  0  0  0  0  0
  -30.4498  -19.3709   22.4673 C   0  0  0  0  0  0  0  0  0  0  0  0
  -25.2561  -13.7241   20.4669 C   0  0  0  0  0  0  0  0  0  0  0  0
  -22.8926  -13.4920   21.2469 C   0  0  0  0  0  0  0  0  0  0  0  0
  -24.3028  -27.2314   23.4570 C   0  0  0  0  0  0  0  0  0  0  0  0
  -22.9528  -24.4557   22.4595 C   0  0  0  0  0  0  0  0  0  0  0  0
  -23.3718  -21.1938   21.5477 C   0  0  0  0  0  0  0  0  0  0  0  0
  -30.7383  -14.7512   20.6576 C   0  0  0  0  0  0  0  0  0  0  0  0
  -21.1232  -31.1670   24.1348 C   0  0  0  0  0  0  0  0  0  0  0  0
  -25.7196  -26.6766   21.4468 C   0  0  0  0  0  0  0  0  0  0  0  0
  -25.3571  -24.3338   23.2145 C   0  0  0  0  0  0  0  0  0  0  0  0
  -21.0339  -29.6514   24.2938 C   0  0  0  0  0  0  0  0  0  0  0  0
  -29.6074  -12.3511   18.2833 C   0  0  0  0  0  0  0  0  0  0  0  0
  -22.2244  -29.1271   25.0906 C   0  0  0  0  0  0  0  0  0  0  0  0
  -28.1696  -12.0581   18.7158 C   0  0  0  0  0  0  0  0  0  0  0  0
  -30.5224  -12.5802   19.4842 C   0  0  0  0  0  0  0  0  0  0  0  0
  -28.6176  -13.3171   20.8636 C   0  0  0  0  0  0  0  0  0  0  0  0
  -23.5443  -29.4195   24.3669 C   0  0  1  0  0  0  0  0  0  0  0  0
  -24.4120  -26.4277   22.1922 C   0  0  1  0  0  0  0  0  0  0  0  0
  -27.6455  -13.1343   19.6855 C   0  0  2  0  0  0  0  0  0  0  0  0
  -22.0785  -19.1697   20.8214 C   0  0  0  0  0  0  0  0  0  0  0  0
  -31.6605  -16.6233   23.1139 C   0  0  0  0  0  0  0  0  0  0  0  0
  -28.8522  -18.2572   20.9108 C   0  0  0  0  0  0  0  0  0  0  0  0
  -22.0288  -24.0176   25.3343 C   0  0  0  0  0  0  0  0  0  0  0  0
  -21.6045  -21.6183   24.7586 C   0  0  0  0  0  0  0  0  0  0  0  0
  -20.3362  -23.4221   23.5922 C   0  0  0  0  0  0  0  0  0  0  0  0
  -24.7904  -21.0751   18.9530 C   0  0  0  0  0  0  0  0  0  0  0  0
  -32.2970  -22.9931   23.4327 C   0  0  0  0  0  0  0  0  0  0  0  0
  -31.4354  -24.1981   23.0709 C   0  0  0  0  0  0  0  0  0  1  0  0
  -22.7815  -23.0772   23.0506 C   0  0  1  0  0  0  0  0  0  0  0  0
  -22.8429  -20.4026   20.3650 C   0  0  2  0  0  0  0  0  0  0  0  0
  -30.7995  -16.9092   21.8818 C   0  0  2  0  0  0  0  0  0  0  0  0
  -29.7882  -18.0802   22.1318 C   0  0  1  0  0  0  0  0  0  0  0  0
  -21.7135  -23.0452   24.1801 C   0  0  0  0  0  0  0  0  0  0  0  0
  -30.8529  -21.1166   24.0389 N   0  0  0  0  0  0  0  0  0  0  0  0
  -31.2232  -19.9389   21.5208 N   0  0  0  0  0  0  0  0  0  0  0  0
  -25.8592  -11.5441   20.2881 N   0  0  0  0  0  0  0  0  0  0  0  0
  -26.2346  -12.8274   20.1527 N   0  0  0  0  0  0  0  0  0  0  0  0
  -24.2311  -25.0225   22.5623 N   0  0  0  0  0  0  0  0  0  0  0  0
  -29.9692  -13.6133   20.3633 N   0  0  0  0  0  0  0  0  0  0  0  0
  -25.4650  -15.0553   20.3863 N   0  0  0  0  0  0  0  0  0  0  0  0
  -21.8813  -12.5836   21.5880 N   0  0  0  0  0  0  0  0  0  0  0  0
  -23.7440  -28.4830   23.2817 N   0  0  0  0  0  0  0  0  0  0  0  0
  -22.4947  -22.1860   21.9317 N   0  0  0  0  0  0  0  0  0  0  0  0
  -30.1367  -15.6843   21.4932 N   0  0  0  0  0  0  0  0  0  0  0  0
  -23.9675  -19.9619   19.4921 N   0  3  0  0  0  0  0  0  0  0  0  0
  -22.6547  -14.7227   21.2965 O   0  0  0  0  0  0  0  0  0  0  0  0
  -24.6950  -26.7511   24.5139 O   0  0  0  0  0  0  0  0  0  0  0  0
  -21.9898  -25.0062   21.9199 O   0  0  0  0  0  0  0  0  0  0  0  0
  -24.4531  -20.9532   22.0801 O   0  0  0  0  0  0  0  0  0  0  0  0
  -31.8747  -14.9254   20.2047 O   0  0  0  0  0  0  0  0  0  0  0  0
  -21.6150   -7.0208   21.7288 O   0  0  0  0  0  0  0  0  0  0  0  0
  -30.2109  -24.1523   23.8022 O   0  0  0  0  0  0  0  0  0  1  0  0
  -16.4520   -6.8183   19.8036 F   0  0  0  0  0  0  0  0  0  0  0  0
  -20.8417   -5.0532   19.9474 F   0  0  0  0  0  0  0  0  0  0  0  0
  -28.9514  -17.6252   23.1418 F   0  0  0  0  0  0  0  0  0  0  0  0
  1  2  1  0  0  0  0
  1  5  2  0  0  0  0
  2  6  2  0  0  0  0
  3  8  2  0  0  0  0
  3 17  1  0  0  0  0
  4  9  1  0  0  0  0
  4 17  2  0  0  0  0
  5 19  1  0  0  0  0
  6 21  1  0  0  0  0
  7 10  2  0  0  0  0
  7 20  1  0  0  0  0
  8 23  1  0  0  0  0
  9 23  2  0  0  0  0
 10 24  1  0  0  0  0
 11 12  2  0  0  0  0
 11 25  1  0  0  0  0
 12 26  1  0  0  0  0
 13 22  1  0  0  0  0
 13 24  2  0  0  0  0
 14 26  2  0  0  0  0
 14 27  1  0  0  0  0
 15 29  1  0  0  0  0
 15 64  2  0  0  0  0
 16 30  2  0  0  0  0
 16 63  1  0  0  0  0
 17 28  1  0  0  0  0
 18 28  1  0  0  0  0
 18 31  2  0  0  0  0
 18 32  1  0  0  0  0
 19 21  2  0  0  0  0
 19 37  1  0  0  0  0
 20 22  2  0  0  0  0
 20 38  1  0  0  0  0
 21 46  1  0  0  0  0
 22 39  1  0  0  0  0
 23 80  1  0  0  0  0
 24 81  1  0  0  0  0
 25 27  2  0  0  0  0
 25 80  1  0  0  0  0
 26 82  1  0  0  0  0
 27 83  1  0  0  0  0
 28 65  2  0  0  0  0
 29 56  1  0  0  0  0
 29 63  2  0  0  0  0
 30 61  1  0  0  0  0
 30 64  1  0  0  0  0
 31 66  1  0  0  0  0
 31 69  1  0  0  0  0
 32 70  1  0  0  0  0
 32 75  2  0  0  0  0
 33 47  1  0  0  0  0
 33 71  1  0  0  0  0
 33 76  2  0  0  0  0
 34 58  1  0  0  0  0
 34 67  1  0  0  0  0
 34 77  2  0  0  0  0
 35 59  1  0  0  0  0
 35 72  1  0  0  0  0
 35 78  2  0  0  0  0
 36 68  1  0  0  0  0
 36 73  1  0  0  0  0
 36 79  2  0  0  0  0
 37 40  1  0  0  0  0
 38 47  1  0  0  0  0
 39 67  1  0  0  0  0
 40 42  1  0  0  0  0
 41 43  1  0  0  0  0
 41 44  1  0  0  0  0
 42 46  1  0  0  0  0
 43 48  1  0  0  0  0
 44 68  1  0  0  0  0
 45 48  1  0  0  0  0
 45 68  1  0  0  0  0
 46 71  1  0  0  0  0
 47 67  1  0  0  0  0
 48 66  1  0  0  0  0
 49 59  1  0  0  0  0
 50 60  1  0  0  0  0
 51 61  1  0  0  0  0
 52 62  1  0  0  0  0
 53 62  1  0  0  0  0
 54 62  1  0  0  0  0
 55 74  1  0  0  0  0
 56 57  1  0  0  0  0
 57 81  1  0  0  0  0
 58 62  1  0  0  0  0
 58 72  1  0  0  0  0
 59 74  1  0  0  0  0
 60 61  1  0  0  0  0
 60 73  1  0  0  0  0
 61 84  1  0  0  0  0
 65 66  1  0  0  0  0
M  CHG  1  74   1
M  ISO  4  36 100  57 101  73 100  81 101
M  END
> <Batch ID>
0064

> <Smiles>
CNC(C)C(=O)NC(C(=O)N1Cc2cc([101O:1][101CH2:1]Cc3cnc(C(C)(F)C(C)[100NH:0][100C:0](=O)N4CCCC(n5nc(-c6ccc(Oc7ccc(F)cc7F)cc6)c(C(N)=O)c5N)C4)cn3)ccc2CC1C(=O)NC1CCCc2ccccc21)C(C)(C)C

> <Shape>
0.205

> <Color>
0.191

> <Negative vol penalty>
0.000

$$$$

  -OEChem-04052318053D

 86 94  0     1  0  0  0  0  0999 V2000
  -31.0300  -11.5352   18.7530 C   0  0  0  0  0  0  0  0  0  0  0  0
  -30.8567  -12.7479   19.4123 C   0  0  0  0  0  0  0  0  0  0  0  0
  -22.3145  -28.6577   20.7640 C   0  0  0  0  0  0  0  0  0  0  0  0
  -23.2813  -27.1514   22.3868 C   0  0  0  0  0  0  0  0  0  0  0  0
  -29.9305  -10.8814   18.1982 C   0  0  0  0  0  0  0  0  0  0  0  0
  -29.5840  -13.3082   19.5162 C   0  0  0  0  0  0  0  0  0  0  0  0
  -28.6047  -15.0560   24.1671 C   0  0  0  0  0  0  0  0  0  0  0  0
  -21.0471  -28.4147   21.2935 C   0  0  0  0  0  0  0  0  0  0  0  0
  -22.0139  -26.9085   22.9163 C   0  0  0  0  0  0  0  0  0  0  0  0
  -29.1657  -16.2833   24.5173 C   0  0  0  0  0  0  0  0  0  0  0  0
  -19.2314  -29.4105   23.9664 C   0  0  0  0  0  0  0  0  0  0  0  0
  -18.3983  -30.5079   24.1835 C   0  0  0  0  0  0  0  0  0  0  0  0
  -27.0586  -17.3680   24.0672 C   0  0  0  0  0  0  0  0  0  0  0  0
  -16.7669  -29.5689   22.6689 C   0  0  0  0  0  0  0  0  0  0  0  0
  -29.5118  -20.1892   22.0053 C   0  0  0  0  0  0  0  0  0  0  0  0
  -23.4316  -28.0260   21.3106 C   0  0  0  0  0  0  0  0  0  0  0  0
  -25.6481  -29.2792   21.1547 C   0  0  0  0  0  0  0  0  0  0  0  0
  -28.6423  -11.4291   18.3038 C   0  0  0  0  0  0  0  0  0  0  0  0
  -27.2672  -14.9769   23.7532 C   0  0  0  0  0  0  0  0  0  0  0  0
  -28.4666  -12.6618   18.9612 C   0  0  0  0  0  0  0  0  0  0  0  0
  -26.4823  -16.1381   23.7147 C   0  0  0  0  0  0  0  0  0  0  0  0
  -20.8968  -27.5401   22.3697 C   0  0  0  0  0  0  0  0  0  0  0  0
  -28.3935  -17.4400   24.4646 C   0  0  0  0  0  0  0  0  0  0  0  0
  -18.8324  -28.3923   23.1006 C   0  0  0  0  0  0  0  0  0  0  0  0
  -17.1660  -30.5871   23.5348 C   0  0  0  0  0  0  0  0  0  0  0  0
  -17.6001  -28.4715   22.4518 C   0  0  0  0  0  0  0  0  0  0  0  0
  -24.7409  -28.2761   20.7638 C   0  0  0  0  0  0  0  0  0  0  0  0
  -29.9325  -20.8539   23.1298 C   0  0  0  0  0  0  0  0  0  0  0  0
  -26.7363  -29.0955   20.3371 C   0  0  0  0  0  0  0  0  0  0  0  0
  -25.5186  -30.2868   22.1664 C   0  0  0  0  0  0  0  0  0  0  0  0
  -25.7952  -14.0834   21.0814 C   0  0  0  0  0  0  0  0  0  0  0  0
  -23.1242  -14.5132   22.8712 C   0  0  0  0  0  0  0  0  0  0  0  0
  -21.6402  -16.0327   25.5425 C   0  0  0  0  0  0  0  0  0  0  0  0
  -28.8726  -24.3350   17.4002 C   0  0  0  0  0  0  0  0  0  0  0  0
  -27.4913  -10.7091   17.6470 C   0  0  0  0  0  0  0  0  0  0  0  0
  -26.6695  -13.6414   23.4044 C   0  0  0  0  0  0  0  0  0  0  0  0
  -25.0357  -16.1040   23.2966 C   0  0  0  0  0  0  0  0  0  0  0  0
  -26.1222  -11.1845   18.1266 C   0  0  0  0  0  0  0  0  0  0  0  0
  -27.9281  -27.4686   15.9984 C   0  0  0  0  0  0  0  0  0  0  0  0
  -26.0628  -12.7086   18.1454 C   0  0  0  0  0  0  0  0  0  0  0  0
  -27.0860  -28.1214   17.0960 C   0  0  0  0  0  0  0  0  0  0  0  0
  -27.7052  -25.9591   15.9387 C   0  0  0  0  0  0  0  0  0  0  0  0
  -27.0588  -25.9058   18.3163 C   0  0  0  0  0  0  0  0  0  0  0  0
  -27.0982  -13.2891   19.1162 C   0  0  1  0  0  0  0  0  0  0  0  0
  -25.4429  -13.7526   22.5042 C   0  0  1  0  0  0  0  0  0  0  0  0
  -27.2917  -27.4203   18.4523 C   0  0  2  0  0  0  0  0  0  0  0  0
  -19.4372  -16.2180   26.7300 C   0  0  0  0  0  0  0  0  0  0  0  0
  -30.4778  -20.3246   18.7104 C   0  0  0  0  0  0  0  0  0  0  0  0
  -30.3638  -21.0628   25.6693 C   0  0  0  0  0  0  0  0  0  0  0  0
  -32.2034  -20.4317   24.1218 C   0  0  0  0  0  0  0  0  0  0  0  0
  -22.0907  -16.3472   20.6626 C   0  0  0  0  0  0  0  0  0  0  0  0
  -20.3931  -17.2238   22.2806 C   0  0  0  0  0  0  0  0  0  0  0  0
  -20.3709  -14.8142   21.6355 C   0  0  0  0  0  0  0  0  0  0  0  0
  -27.6800  -19.6237   19.7419 C   0  0  0  0  0  0  0  0  0  0  0  0
  -27.1058  -22.0249   19.9276 C   0  0  0  0  0  0  0  0  0  0  0  0
  -22.7663  -14.9311   28.0480 C   0  0  0  0  0  0  0  0  0  0  0  0
  -29.9619  -22.7726   18.9913 C   0  0  0  0  0  0  0  0  0  0  0  0
  -30.3365  -18.8071   24.5719 C   0  0  0  0  0  0  0  0  0  1  0  0
  -22.2013  -15.6743   23.1527 C   0  0  1  0  0  0  0  0  0  0  0  0
  -20.7671  -15.4839   26.6565 C   0  0  2  0  0  0  0  0  0  0  0  0
  -29.3469  -21.3636   18.8332 C   0  0  2  0  0  0  0  0  0  0  0  0
  -30.6809  -20.3038   24.3584 C   0  0  0  0  0  0  0  0  0  0  0  0
  -21.2918  -16.0161   21.9389 C   0  0  0  0  0  0  0  0  0  0  0  0
  -28.2952  -21.0281   19.9702 C   0  0  0  0  0  0  0  0  0  0  0  0
  -25.2119  -27.5120   19.7747 N   0  0  0  0  0  0  0  0  0  0  0  0
  -29.5911  -22.1746   23.0375 N   0  0  0  0  0  0  0  0  0  0  0  0
  -28.9642  -22.3543   21.8801 N   0  0  0  0  0  0  0  0  0  0  0  0
  -28.9176  -21.1627   21.2628 N   0  0  0  0  0  0  0  0  0  0  0  0
  -26.4268  -28.0351   19.5371 N   0  0  0  0  0  0  0  0  0  0  0  0
  -24.4987  -14.7753   22.9591 N   0  0  0  0  0  0  0  0  0  0  0  0
  -27.9175  -25.3548   17.2562 N   0  0  0  0  0  0  0  0  0  0  0  0
  -27.9182  -29.7392   20.2316 N   0  0  0  0  0  0  0  0  0  0  0  0
  -24.3344  -30.3341   22.9146 N   0  0  0  0  0  0  0  0  0  0  0  0
  -26.6357  -13.1650   20.4819 N   0  0  0  0  0  0  0  0  0  0  0  0
  -21.4714  -15.3302   24.3681 N   0  0  0  0  0  0  0  0  0  0  0  0
  -29.0153  -23.8214   18.6834 N   0  0  0  0  0  0  0  0  0  0  0  0
  -21.4550  -15.6250   27.9710 N   0  3  0  0  0  0  0  0  0  0  0  0
  -26.4195  -31.1309   22.3889 O   0  0  0  0  0  0  0  0  0  0  0  0
  -25.3370  -15.0960   20.5653 O   0  0  0  0  0  0  0  0  0  0  0  0
  -22.6431  -13.4125   22.5910 O   0  0  0  0  0  0  0  0  0  0  0  0
  -22.3936  -16.9913   25.6975 O   0  0  0  0  0  0  0  0  0  0  0  0
  -29.5519  -23.9171   16.4564 O   0  0  0  0  0  0  0  0  0  0  0  0
  -19.6603  -27.3030   22.8867 O   0  0  0  0  0  0  0  0  0  0  0  0
  -28.9387  -18.6394   24.8052 O   0  0  0  0  0  0  0  0  0  1  0  0
  -16.3654  -31.6403   23.7445 F   0  0  0  0  0  0  0  0  0  0  0  0
  -17.2107  -27.4958   21.6198 F   0  0  0  0  0  0  0  0  0  0  0  0
  1  2  1  0  0  0  0
  1  5  2  0  0  0  0
  2  6  2  0  0  0  0
  3  8  2  0  0  0  0
  3 16  1  0  0  0  0
  4  9  1  0  0  0  0
  4 16  2  0  0  0  0
  5 18  1  0  0  0  0
  6 20  1  0  0  0  0
  7 10  2  0  0  0  0
  7 19  1  0  0  0  0
  8 22  1  0  0  0  0
  9 22  2  0  0  0  0
 10 23  1  0  0  0  0
 11 12  2  0  0  0  0
 11 24  1  0  0  0  0
 12 25  1  0  0  0  0
 13 21  1  0  0  0  0
 13 23  2  0  0  0  0
 14 25  2  0  0  0  0
 14 26  1  0  0  0  0
 15 28  2  0  0  0  0
 15 68  1  0  0  0  0
 16 27  1  0  0  0  0
 17 27  1  0  0  0  0
 17 29  2  0  0  0  0
 17 30  1  0  0  0  0
 18 20  2  0  0  0  0
 18 35  1  0  0  0  0
 19 21  2  0  0  0  0
 19 36  1  0  0  0  0
 20 44  1  0  0  0  0
 21 37  1  0  0  0  0
 22 83  1  0  0  0  0
 23 84  1  0  0  0  0
 24 26  2  0  0  0  0
 24 83  1  0  0  0  0
 25 85  1  0  0  0  0
 26 86  1  0  0  0  0
 27 65  2  0  0  0  0
 28 62  1  0  0  0  0
 28 66  1  0  0  0  0
 29 69  1  0  0  0  0
 29 72  1  0  0  0  0
 30 73  1  0  0  0  0
 30 78  2  0  0  0  0
 31 45  1  0  0  0  0
 31 74  1  0  0  0  0
 31 79  2  0  0  0  0
 32 59  1  0  0  0  0
 32 70  1  0  0  0  0
 32 80  2  0  0  0  0
 33 60  1  0  0  0  0
 33 75  1  0  0  0  0
 33 81  2  0  0  0  0
 34 71  1  0  0  0  0
 34 76  1  0  0  0  0
 34 82  2  0  0  0  0
 35 38  1  0  0  0  0
 36 45  1  0  0  0  0
 37 70  1  0  0  0  0
 38 40  1  0  0  0  0
 39 41  1  0  0  0  0
 39 42  1  0  0  0  0
 40 44  1  0  0  0  0
 41 46  1  0  0  0  0
 42 71  1  0  0  0  0
 43 46  1  0  0  0  0
 43 71  1  0  0  0  0
 44 74  1  0  0  0  0
 45 70  1  0  0  0  0
 46 69  1  0  0  0  0
 47 60  1  0  0  0  0
 48 61  1  0  0  0  0
 49 62  1  0  0  0  0
 50 62  1  0  0  0  0
 51 63  1  0  0  0  0
 52 63  1  0  0  0  0
 53 63  1  0  0  0  0
 54 64  1  0  0  0  0
 55 64  1  0  0  0  0
 56 77  1  0  0  0  0
 57 61  1  0  0  0  0
 57 76  1  0  0  0  0
 58 62  1  0  0  0  0
 58 84  1  0  0  0  0
 59 63  1  0  0  0  0
 59 75  1  0  0  0  0
 60 77  1  0  0  0  0
 61 64  1  0  0  0  0
 64 68  1  0  0  0  0
 65 69  1  0  0  0  0
 66 67  2  0  0  0  0
 67 68  1  0  0  0  0
M  CHG  1  77   1
M  ISO  4  34 100  58 101  76 100  84 101
M  END
> <Batch ID>
0064

> <Smiles>
CNC(C)C(=O)NC(C(=O)N1Cc2cc([101O:1][101CH2:1]C(C)(C)c3cn(C(C)(C)C(C)C[100NH:0][100C:0](=O)N4CCCC(n5nc(-c6ccc(Oc7ccc(F)cc7F)cc6)c(C(N)=O)c5N)C4)nn3)ccc2CC1C(=O)NC1CCCc2ccccc21)C(C)(C)C

> <Shape>
0.248

> <Color>
0.054

> <Negative vol penalty>
0.000

$$$$

  -OEChem-04052318053D

 82 90  0     1  0  0  0  0  0999 V2000
  -25.6825  -30.3116   21.9121 C   0  0  0  0  0  0  0  0  0  0  0  0
  -25.4307  -29.1660   22.6601 C   0  0  0  0  0  0  0  0  0  0  0  0
  -24.1491   -9.5378   19.9989 C   0  0  0  0  0  0  0  0  0  0  0  0
  -24.6045   -9.7977   22.3573 C   0  0  0  0  0  0  0  0  0  0  0  0
  -25.8285  -30.2212   20.5285 C   0  0  0  0  0  0  0  0  0  0  0  0
  -25.3236  -27.9294   22.0248 C   0  0  0  0  0  0  0  0  0  0  0  0
  -27.1027  -22.4960   24.2201 C   0  0  0  0  0  0  0  0  0  0  0  0
  -23.7395   -8.2234   20.2228 C   0  0  0  0  0  0  0  0  0  0  0  0
  -24.1948   -8.4833   22.5812 C   0  0  0  0  0  0  0  0  0  0  0  0
  -26.4051  -21.4619   24.8427 C   0  0  0  0  0  0  0  0  0  0  0  0
  -22.9142   -4.6833   20.1216 C   0  0  0  0  0  0  0  0  0  0  0  0
  -23.3757   -3.7005   19.2461 C   0  0  0  0  0  0  0  0  0  0  0  0
  -26.1977  -20.3326   22.7211 C   0  0  0  0  0  0  0  0  0  0  0  0
  -25.6536   -4.2285   19.8541 C   0  0  0  0  0  0  0  0  0  0  0  0
  -27.3607  -16.1633   25.7865 C   0  0  0  0  0  0  0  0  0  0  0  0
  -24.5817  -10.3249   21.0661 C   0  0  0  0  0  0  0  0  0  0  0  0
  -24.2040  -12.8396   20.8628 C   0  0  0  0  0  0  0  0  0  0  0  0
  -25.7328  -28.9815   19.8769 C   0  0  0  0  0  0  0  0  0  0  0  0
  -27.3440  -22.4615   22.8391 C   0  0  0  0  0  0  0  0  0  0  0  0
  -25.4671  -27.8225   20.6310 C   0  0  0  0  0  0  0  0  0  0  0  0
  -26.9009  -21.3663   22.0839 C   0  0  0  0  0  0  0  0  0  0  0  0
  -23.7623   -7.6961   21.5139 C   0  0  0  0  0  0  0  0  0  0  0  0
  -25.9500  -20.3814   24.0927 C   0  0  0  0  0  0  0  0  0  0  0  0
  -23.8223   -5.4388   20.8634 C   0  0  0  0  0  0  0  0  0  0  0  0
  -24.7454   -3.4730   19.1123 C   0  0  0  0  0  0  0  0  0  0  0  0
  -25.1920   -5.2113   20.7297 C   0  0  0  0  0  0  0  0  0  0  0  0
  -25.0055  -11.6826   20.8354 C   0  0  0  0  0  0  0  0  0  0  0  0
  -26.1206  -16.6926   25.5313 C   0  0  0  0  0  0  0  0  0  0  0  0
  -25.0729  -13.8659   20.5828 C   0  0  0  0  0  0  0  0  0  0  0  0
  -22.7997  -12.9747   21.1186 C   0  0  0  0  0  0  0  0  0  0  0  0
  -26.5261  -24.2919   20.3726 C   0  0  0  0  0  0  0  0  0  0  0  0
  -28.5073  -22.3069   18.7427 C   0  0  0  0  0  0  0  0  0  0  0  0
  -31.0203  -14.3874   21.2666 C   0  0  0  0  0  0  0  0  0  0  0  0
  -30.0228  -19.2562   18.5344 C   0  0  0  0  0  0  0  0  0  0  0  0
  -25.8508  -28.9403   18.3739 C   0  0  0  0  0  0  0  0  0  0  0  0
  -28.1213  -23.5719   22.1871 C   0  0  0  0  0  0  0  0  0  0  0  0
  -27.1517  -21.2716   20.6018 C   0  0  0  0  0  0  0  0  0  0  0  0
  -26.0954  -27.5389   17.8204 C   0  0  0  0  0  0  0  0  0  0  0  0
  -29.1325  -14.8145   18.2510 C   0  0  0  0  0  0  0  0  0  0  0  0
  -25.1441  -26.5363   18.4660 C   0  0  0  0  0  0  0  0  0  0  0  0
  -27.7977  -14.1399   18.5645 C   0  0  0  0  0  0  0  0  0  0  0  0
  -30.2955  -14.0897   18.9214 C   0  0  0  0  0  0  0  0  0  0  0  0
  -28.8083  -13.2583   20.7155 C   0  0  0  0  0  0  0  0  0  0  0  0
  -25.3687  -26.4594   19.9809 C   0  0  1  0  0  0  0  0  0  0  0  0
  -27.8626  -23.6820   20.6877 C   0  0  1  0  0  0  0  0  0  0  0  0
  -27.6037  -13.9771   20.0825 C   0  0  2  0  0  0  0  0  0  0  0  0
  -31.5545  -17.9135   17.0686 C   0  0  0  0  0  0  0  0  0  0  0  0
  -30.5342  -12.7012   23.0118 C   0  0  0  0  0  0  0  0  0  0  0  0
  -31.9155  -14.7289   23.5149 C   0  0  0  0  0  0  0  0  0  0  0  0
  -26.2099  -21.8163   16.7956 C   0  0  0  0  0  0  0  0  0  0  0  0
  -27.4452  -19.8082   15.9528 C   0  0  0  0  0  0  0  0  0  0  0  0
  -28.4519  -22.0786   15.7190 C   0  0  0  0  0  0  0  0  0  0  0  0
  -32.0543  -19.0219   20.6738 C   0  0  0  0  0  0  0  0  0  0  0  0
  -25.2972  -17.6344   26.3758 C   0  0  0  0  0  0  0  0  0  0  0  0
  -29.4535  -15.0175   23.1064 C   0  0  0  0  0  0  0  0  0  0  0  0
  -28.7824  -14.5997   24.4228 C   0  0  0  0  0  0  0  0  0  0  0  0
  -25.5867  -19.0982   26.0619 C   0  0  0  0  0  0  0  0  0  1  0  0
  -28.3413  -21.0011   18.0034 C   0  0  1  0  0  0  0  0  0  0  0  0
  -31.4619  -18.8635   18.2525 C   0  0  2  0  0  0  0  0  0  0  0  0
  -30.7082  -14.1969   22.7296 C   0  0  0  0  0  0  0  0  0  0  0  0
  -27.6055  -21.1785   16.6453 C   0  0  0  0  0  0  0  0  0  0  0  0
  -26.2851  -11.9481   20.5595 N   0  0  0  0  0  0  0  0  0  0  0  0
  -25.6682  -16.2411   24.3226 N   0  0  0  0  0  0  0  0  0  0  0  0
  -26.5965  -15.4388   23.8130 N   0  0  0  0  0  0  0  0  0  0  0  0
  -27.6104  -15.3933   24.6924 N   0  0  0  0  0  0  0  0  0  0  0  0
  -26.2943  -13.2838   20.4110 N   0  0  0  0  0  0  0  0  0  0  0  0
  -27.9108  -22.3852   20.0091 N   0  0  0  0  0  0  0  0  0  0  0  0
  -30.0629  -13.9352   20.3584 N   0  0  0  0  0  0  0  0  0  0  0  0
  -24.9036  -15.2003   20.4692 N   0  0  0  0  0  0  0  0  0  0  0  0
  -22.0556  -11.8182   21.3890 N   0  0  0  0  0  0  0  0  0  0  0  0
  -26.5450  -25.6704   20.2781 N   0  0  0  0  0  0  0  0  0  0  0  0
  -29.6764  -20.4243   17.8889 N   0  0  0  0  0  0  0  0  0  0  0  0
  -32.0579  -18.1918   19.4418 N   0  3  0  0  0  0  0  0  0  0  0  0
  -22.2188  -14.0861   21.0916 O   0  0  0  0  0  0  0  0  0  0  0  0
  -25.5502  -23.5656   20.2246 O   0  0  0  0  0  0  0  0  0  0  0  0
  -29.1489  -23.2210   18.2189 O   0  0  0  0  0  0  0  0  0  0  0  0
  -32.0826  -14.9249   20.9427 O   0  0  0  0  0  0  0  0  0  0  0  0
  -29.2792  -18.5911   19.2522 O   0  0  0  0  0  0  0  0  0  0  0  0
  -23.3625   -6.4136   21.7328 O   0  0  0  0  0  0  0  0  0  0  0  0
  -25.2682  -19.3710   24.6978 O   0  0  0  0  0  0  0  0  0  1  0  0
  -25.1884   -2.5281   18.2726 F   0  0  0  0  0  0  0  0  0  0  0  0
  -26.0692   -5.9331   21.4405 F   0  0  0  0  0  0  0  0  0  0  0  0
  1  2  1  0  0  0  0
  1  5  2  0  0  0  0
  2  6  2  0  0  0  0
  3  8  2  0  0  0  0
  3 16  1  0  0  0  0
  4  9  1  0  0  0  0
  4 16  2  0  0  0  0
  5 18  1  0  0  0  0
  6 20  1  0  0  0  0
  7 10  2  0  0  0  0
  7 19  1  0  0  0  0
  8 22  1  0  0  0  0
  9 22  2  0  0  0  0
 10 23  1  0  0  0  0
 11 12  2  0  0  0  0
 11 24  1  0  0  0  0
 12 25  1  0  0  0  0
 13 21  1  0  0  0  0
 13 23  2  0  0  0  0
 14 25  2  0  0  0  0
 14 26  1  0  0  0  0
 15 28  2  0  0  0  0
 15 65  1  0  0  0  0
 16 27  1  0  0  0  0
 17 27  1  0  0  0  0
 17 29  2  0  0  0  0
 17 30  1  0  0  0  0
 18 20  2  0  0  0  0
 18 35  1  0  0  0  0
 19 21  2  0  0  0  0
 19 36  1  0  0  0  0
 20 44  1  0  0  0  0
 21 37  1  0  0  0  0
 22 79  1  0  0  0  0
 23 80  1  0  0  0  0
 24 26  2  0  0  0  0
 24 79  1  0  0  0  0
 25 81  1  0  0  0  0
 26 82  1  0  0  0  0
 27 62  2  0  0  0  0
 28 54  1  0  0  0  0
 28 63  1  0  0  0  0
 29 66  1  0  0  0  0
 29 69  1  0  0  0  0
 30 70  1  0  0  0  0
 30 74  2  0  0  0  0
 31 45  1  0  0  0  0
 31 71  1  0  0  0  0
 31 75  2  0  0  0  0
 32 58  1  0  0  0  0
 32 67  1  0  0  0  0
 32 76  2  0  0  0  0
 33 60  1  0  0  0  0
 33 68  1  0  0  0  0
 33 77  2  0  0  0  0
 34 59  1  0  0  0  0
 34 72  1  0  0  0  0
 34 78  2  0  0  0  0
 35 38  1  0  0  0  0
 36 45  1  0  0  0  0
 37 67  1  0  0  0  0
 38 40  1  0  0  0  0
 39 41  1  0  0  0  0
 39 42  1  0  0  0  0
 40 44  1  0  0  0  0
 41 46  1  0  0  0  0
 42 68  1  0  0  0  0
 43 46  1  0  0  0  0
 43 68  1  0  0  0  0
 44 71  1  0  0  0  0
 45 67  1  0  0  0  0
 46 66  1  0  0  0  0
 47 59  1  0  0  0  0
 48 60  1  0  0  0  0
 49 60  1  0  0  0  0
 50 61  1  0  0  0  0
 51 61  1  0  0  0  0
 52 61  1  0  0  0  0
 53 73  1  0  0  0  0
 54 57  1  0  0  0  0
 55 56  1  0  0  0  0
 55 60  1  0  0  0  0
 56 65  1  0  0  0  0
 57 80  1  0  0  0  0
 58 61  1  0  0  0  0
 58 72  1  0  0  0  0
 59 73  1  0  0  0  0
 62 66  1  0  0  0  0
 63 64  2  0  0  0  0
 64 65  1  0  0  0  0
M  CHG  1  73   1
M  ISO  4  33 100  57 101  60 100  80 101
M  END
> <Batch ID>
0064

> <Smiles>
CNC(C)C(=O)NC(C(=O)N1Cc2cc([101O:1][101CH2:1]Cc3cn(CC[100C:0](C)(C)[100C:0](=O)N4CCCC(n5nc(-c6ccc(Oc7ccc(F)cc7F)cc6)c(C(N)=O)c5N)C4)nn3)ccc2CC1C(=O)NC1CCCc2ccccc21)C(C)(C)C

> <Shape>
0.198

> <Color>
0.129

> <Negative vol penalty>
0.000

$$$$

  -OEChem-04052318053D

 87 95  0     1  0  0  0  0  0999 V2000
  -35.1771  -19.8764    9.3040 C   0  0  0  0  0  0  0  0  0  0  0  0
  -34.2948  -20.0551   10.3646 C   0  0  0  0  0  0  0  0  0  0  0  0
  -23.0678   -9.8988   19.9297 C   0  0  0  0  0  0  0  0  0  0  0  0
  -23.8414   -9.8743   22.2183 C   0  0  0  0  0  0  0  0  0  0  0  0
  -36.3224  -20.6660    9.2108 C   0  0  0  0  0  0  0  0  0  0  0  0
  -34.5578  -21.0229   11.3334 C   0  0  0  0  0  0  0  0  0  0  0  0
  -30.4600  -23.7543   12.5136 C   0  0  0  0  0  0  0  0  0  0  0  0
  -22.3196   -8.7465   20.1702 C   0  0  0  0  0  0  0  0  0  0  0  0
  -23.0931   -8.7220   22.4589 C   0  0  0  0  0  0  0  0  0  0  0  0
  -29.5263  -23.1658   13.3654 C   0  0  0  0  0  0  0  0  0  0  0  0
  -19.8646   -7.9333   23.0713 C   0  0  0  0  0  0  0  0  0  0  0  0
  -19.1145   -7.8830   24.2462 C   0  0  0  0  0  0  0  0  0  0  0  0
  -30.4370  -24.4152   15.2171 C   0  0  0  0  0  0  0  0  0  0  0  0
  -20.3503   -5.9306   24.9518 C   0  0  0  0  0  0  0  0  0  0  0  0
  -25.7139  -21.1940   19.0306 C   0  0  0  0  0  0  0  0  0  0  0  0
  -23.8288  -10.4627   20.9537 C   0  0  0  0  0  0  0  0  0  0  0  0
  -24.1828  -12.9873   20.8620 C   0  0  0  0  0  0  0  0  0  0  0  0
  -36.5947  -21.6506   10.1737 C   0  0  0  0  0  0  0  0  0  0  0  0
  -31.3979  -24.6710   13.0100 C   0  0  0  0  0  0  0  0  0  0  0  0
  -35.7085  -21.8256   11.2537 C   0  0  0  0  0  0  0  0  0  0  0  0
  -31.3800  -25.0158   14.3690 C   0  0  0  0  0  0  0  0  0  0  0  0
  -22.3322   -8.1581   21.4349 C   0  0  0  0  0  0  0  0  0  0  0  0
  -29.5165  -23.4941   14.7179 C   0  0  0  0  0  0  0  0  0  0  0  0
  -20.8575   -6.9821   22.8366 C   0  0  0  0  0  0  0  0  0  0  0  0
  -19.3573   -6.8817   25.1865 C   0  0  0  0  0  0  0  0  0  0  0  0
  -21.1004   -5.9808   23.7768 C   0  0  0  0  0  0  0  0  0  0  0  0
  -24.6024  -11.6527   20.7057 C   0  0  0  0  0  0  0  0  0  0  0  0
  -25.4068  -22.2544   18.2027 C   0  0  0  0  0  0  0  0  0  0  0  0
  -27.0533  -20.8741   19.1191 C   0  0  0  0  0  0  0  0  0  0  0  0
  -25.2766  -13.7356   20.5012 C   0  0  0  0  0  0  0  0  0  0  0  0
  -27.5997  -22.5468   17.6802 C   0  0  0  0  0  0  0  0  0  0  0  0
  -22.9176  -13.5044   21.2948 C   0  0  0  0  0  0  0  0  0  0  0  0
  -34.5702  -24.7580   13.1923 C   0  0  0  0  0  0  0  0  0  0  0  0
  -34.0360  -27.7666   14.2812 C   0  0  0  0  0  0  0  0  0  0  0  0
  -31.9006  -29.9711   15.7735 C   0  0  0  0  0  0  0  0  0  0  0  0
  -30.7666  -14.7246   20.6686 C   0  0  0  0  0  0  0  0  0  0  0  0
  -37.8696  -22.4477   10.0564 C   0  0  0  0  0  0  0  0  0  0  0  0
  -32.3814  -25.3171   12.0731 C   0  0  0  0  0  0  0  0  0  0  0  0
  -32.3525  -26.0096   14.9479 C   0  0  0  0  0  0  0  0  0  0  0  0
  -37.8830  -23.7059   10.9207 C   0  0  0  0  0  0  0  0  0  0  0  0
  -29.6025  -12.3748   18.2603 C   0  0  0  0  0  0  0  0  0  0  0  0
  -37.3931  -23.3904   12.3304 C   0  0  0  0  0  0  0  0  0  0  0  0
  -28.1662  -12.0831   18.6983 C   0  0  0  0  0  0  0  0  0  0  0  0
  -30.5279  -12.5765   19.4582 C   0  0  0  0  0  0  0  0  0  0  0  0
  -28.6383  -13.3004   20.8649 C   0  0  0  0  0  0  0  0  0  0  0  0
  -35.9465  -22.8820   12.3109 C   0  0  1  0  0  0  0  0  0  0  0  0
  -33.6221  -25.8496   12.7834 C   0  0  1  0  0  0  0  0  0  0  0  0
  -27.6562  -13.1449   19.6912 C   0  0  2  0  0  0  0  0  0  0  0  0
  -31.7598  -32.3481   16.5656 C   0  0  0  0  0  0  0  0  0  0  0  0
  -23.3642  -23.1012   19.4095 C   0  0  0  0  0  0  0  0  0  0  0  0
  -23.1123  -21.5136   17.4725 C   0  0  0  0  0  0  0  0  0  0  0  0
  -23.7462  -23.8856   17.0814 C   0  0  0  0  0  0  0  0  0  0  0  0
  -35.7392  -27.0552   16.7108 C   0  0  0  0  0  0  0  0  0  0  0  0
  -34.7954  -29.0620   17.8728 C   0  0  0  0  0  0  0  0  0  0  0  0
  -36.1396  -29.3459   15.7907 C   0  0  0  0  0  0  0  0  0  0  0  0
  -29.6675  -30.5760   13.9278 C   0  0  0  0  0  0  0  0  0  0  0  0
  -28.6535  -23.3028   16.9257 C   0  0  0  0  0  0  0  0  0  1  0  0
  -30.5722  -18.0268   20.9890 C   0  0  0  0  0  0  0  0  0  0  0  0
  -29.0823  -18.3548   20.8874 C   0  0  0  0  0  0  0  0  0  0  0  0
  -30.8508  -16.8597   21.9309 C   0  0  0  0  0  0  0  0  0  0  0  0
  -28.8331  -19.5482   19.9737 C   0  0  0  0  0  0  0  0  0  0  0  0
  -33.8052  -28.3873   15.6378 C   0  0  1  0  0  0  0  0  0  0  0  0
  -31.5039  -31.3910   15.4118 C   0  0  2  0  0  0  0  0  0  0  0  0
  -23.9844  -22.6746   18.0431 C   0  0  0  0  0  0  0  0  0  0  0  0
  -35.1026  -28.4424   16.4928 C   0  0  0  0  0  0  0  0  0  0  0  0
  -25.8642  -11.5555   20.2786 N   0  0  0  0  0  0  0  0  0  0  0  0
  -26.3280  -22.9558   17.5099 N   0  0  0  0  0  0  0  0  0  0  0  0
  -28.0266  -21.5316   18.4553 N   0  0  0  0  0  0  0  0  0  0  0  0
  -26.2470  -12.8386   20.1635 N   0  0  0  0  0  0  0  0  0  0  0  0
  -33.2986  -26.6094   13.9926 N   0  0  0  0  0  0  0  0  0  0  0  0
  -29.9879  -13.5970   20.3598 N   0  0  0  0  0  0  0  0  0  0  0  0
  -25.4934  -15.0668   20.4429 N   0  0  0  0  0  0  0  0  0  0  0  0
  -21.9030  -12.5964   21.6272 N   0  0  0  0  0  0  0  0  0  0  0  0
  -35.0253  -23.9851   12.1411 N   0  0  0  0  0  0  0  0  0  0  0  0
  -33.1955  -29.6897   15.3924 N   0  0  0  0  0  0  0  0  0  0  0  0
  -30.1772  -15.6462   21.5254 N   0  0  0  0  0  0  0  0  0  0  0  0
  -30.0562  -31.4516   15.0632 N   0  3  0  0  0  0  0  0  0  0  0  0
  -22.6880  -14.7355   21.3683 O   0  0  0  0  0  0  0  0  0  0  0  0
  -34.8679  -24.6276   14.3738 O   0  0  0  0  0  0  0  0  0  0  0  0
  -34.8355  -28.2931   13.5034 O   0  0  0  0  0  0  0  0  0  0  0  0
  -31.1392  -29.1908   16.3409 O   0  0  0  0  0  0  0  0  0  0  0  0
  -31.9007  -14.8998   20.2103 O   0  0  0  0  0  0  0  0  0  0  0  0
  -21.6019   -7.0338   21.6700 O   0  0  0  0  0  0  0  0  0  0  0  0
  -28.6066  -22.9207   15.5516 O   0  0  0  0  0  0  0  0  0  1  0  0
  -27.4400  -19.8330   19.9209 O   0  0  0  0  0  0  0  0  0  0  0  0
  -18.6379   -6.8346   26.3154 F   0  0  0  0  0  0  0  0  0  0  0  0
  -22.0538   -5.0650   23.5575 F   0  0  0  0  0  0  0  0  0  0  0  0
  1  2  1  0  0  0  0
  1  5  2  0  0  0  0
  2  6  2  0  0  0  0
  3  8  2  0  0  0  0
  3 16  1  0  0  0  0
  4  9  1  0  0  0  0
  4 16  2  0  0  0  0
  5 18  1  0  0  0  0
  6 20  1  0  0  0  0
  7 10  2  0  0  0  0
  7 19  1  0  0  0  0
  8 22  1  0  0  0  0
  9 22  2  0  0  0  0
 10 23  1  0  0  0  0
 11 12  2  0  0  0  0
 11 24  1  0  0  0  0
 12 25  1  0  0  0  0
 13 21  1  0  0  0  0
 13 23  2  0  0  0  0
 14 25  2  0  0  0  0
 14 26  1  0  0  0  0
 15 28  2  0  0  0  0
 15 29  1  0  0  0  0
 16 27  1  0  0  0  0
 17 27  1  0  0  0  0
 17 30  2  0  0  0  0
 17 32  1  0  0  0  0
 18 20  2  0  0  0  0
 18 37  1  0  0  0  0
 19 21  2  0  0  0  0
 19 38  1  0  0  0  0
 20 46  1  0  0  0  0
 21 39  1  0  0  0  0
 22 83  1  0  0  0  0
 23 84  1  0  0  0  0
 24 26  2  0  0  0  0
 24 83  1  0  0  0  0
 25 86  1  0  0  0  0
 26 87  1  0  0  0  0
 27 66  2  0  0  0  0
 28 64  1  0  0  0  0
 28 67  1  0  0  0  0
 29 68  2  0  0  0  0
 29 85  1  0  0  0  0
 30 69  1  0  0  0  0
 30 72  1  0  0  0  0
 31 57  1  0  0  0  0
 31 67  2  0  0  0  0
 31 68  1  0  0  0  0
 32 73  1  0  0  0  0
 32 78  2  0  0  0  0
 33 47  1  0  0  0  0
 33 74  1  0  0  0  0
 33 79  2  0  0  0  0
 34 62  1  0  0  0  0
 34 70  1  0  0  0  0
 34 80  2  0  0  0  0
 35 63  1  0  0  0  0
 35 75  1  0  0  0  0
 35 81  2  0  0  0  0
 36 71  1  0  0  0  0
 36 76  1  0  0  0  0
 36 82  2  0  0  0  0
 37 40  1  0  0  0  0
 38 47  1  0  0  0  0
 39 70  1  0  0  0  0
 40 42  1  0  0  0  0
 41 43  1  0  0  0  0
 41 44  1  0  0  0  0
 42 46  1  0  0  0  0
 43 48  1  0  0  0  0
 44 71  1  0  0  0  0
 45 48  1  0  0  0  0
 45 71  1  0  0  0  0
 46 74  1  0  0  0  0
 47 70  1  0  0  0  0
 48 69  1  0  0  0  0
 49 63  1  0  0  0  0
 50 64  1  0  0  0  0
 51 64  1  0  0  0  0
 52 64  1  0  0  0  0
 53 65  1  0  0  0  0
 54 65  1  0  0  0  0
 55 65  1  0  0  0  0
 56 77  1  0  0  0  0
 57 84  1  0  0  0  0
 58 59  1  0  0  0  0
 58 60  1  0  0  0  0
 59 61  1  0  0  0  0
 60 76  1  0  0  0  0
 61 85  1  0  0  0  0
 62 65  1  0  0  0  0
 62 75  1  0  0  0  0
 63 77  1  0  0  0  0
 66 69  1  0  0  0  0
M  CHG  1  77   1
M  ISO  4  36 100  57 101  76 100  84 101
M  END
> <Batch ID>
0064

> <Smiles>
CNC(C)C(=O)NC(C(=O)N1Cc2cc([101O:1][101CH2:1]c3nc(OCCCC[100NH:0][100C:0](=O)N4CCCC(n5nc(-c6ccc(Oc7ccc(F)cc7F)cc6)c(C(N)=O)c5N)C4)cc(C(C)(C)C)n3)ccc2CC1C(=O)NC1CCCc2ccccc21)C(C)(C)C

> <Shape>
0.192

> <Color>
0.185

> <Negative vol penalty>
0.000

$$$$

  -OEChem-04052318053D

 85 93  0     1  0  0  0  0  0999 V2000
  -28.5573  -36.0103   24.0830 C   0  0  0  0  0  0  0  0  0  0  0  0
  -28.8897  -34.7383   23.6282 C   0  0  0  0  0  0  0  0  0  0  0  0
  -24.4771   -9.1745   21.7018 C   0  0  0  0  0  0  0  0  0  0  0  0
  -22.8529  -10.4071   20.4057 C   0  0  0  0  0  0  0  0  0  0  0  0
  -27.3051  -36.2410   24.6512 C   0  0  0  0  0  0  0  0  0  0  0  0
  -27.9705  -33.6960   23.7422 C   0  0  0  0  0  0  0  0  0  0  0  0
  -27.1663  -29.0522   19.8314 C   0  0  0  0  0  0  0  0  0  0  0  0
  -23.5666   -8.1279   21.8475 C   0  0  0  0  0  0  0  0  0  0  0  0
  -21.9424   -9.3604   20.5513 C   0  0  0  0  0  0  0  0  0  0  0  0
  -27.6196  -27.7337   19.8349 C   0  0  0  0  0  0  0  0  0  0  0  0
  -22.4226   -5.5448   19.9895 C   0  0  0  0  0  0  0  0  0  0  0  0
  -22.8912   -4.2459   19.7923 C   0  0  0  0  0  0  0  0  0  0  0  0
  -25.5347  -27.0259   20.8205 C   0  0  0  0  0  0  0  0  0  0  0  0
  -22.2666   -3.6770   22.0558 C   0  0  0  0  0  0  0  0  0  0  0  0
  -29.1398  -23.1386   21.0980 C   0  0  0  0  0  0  0  0  0  0  0  0
  -29.0514  -21.7235   18.8177 C   0  0  0  0  0  0  0  0  0  0  0  0
  -24.1202  -10.3142   20.9810 C   0  0  0  0  0  0  0  0  0  0  0  0
  -26.0069  -11.5627   19.8023 C   0  0  0  0  0  0  0  0  0  0  0  0
  -26.3665  -35.2032   24.7635 C   0  0  0  0  0  0  0  0  0  0  0  0
  -25.8959  -29.3694   20.3333 C   0  0  0  0  0  0  0  0  0  0  0  0
  -26.7051  -33.9127   24.3136 C   0  0  0  0  0  0  0  0  0  0  0  0
  -25.0667  -28.3487   20.8199 C   0  0  0  0  0  0  0  0  0  0  0  0
  -22.2993   -8.2208   21.2722 C   0  0  0  0  0  0  0  0  0  0  0  0
  -26.8050  -26.7207   20.3322 C   0  0  0  0  0  0  0  0  0  0  0  0
  -21.8762   -5.9099   21.2199 C   0  0  0  0  0  0  0  0  0  0  0  0
  -22.8132   -3.3120   20.8254 C   0  0  0  0  0  0  0  0  0  0  0  0
  -21.7981   -4.9759   22.2530 C   0  0  0  0  0  0  0  0  0  0  0  0
  -25.0600  -11.3959   20.8307 C   0  0  0  0  0  0  0  0  0  0  0  0
  -29.3908  -21.7820   21.0646 C   0  0  0  0  0  0  0  0  0  0  0  0
  -28.8405  -23.7204   19.8831 C   0  0  0  0  0  0  0  0  0  0  0  0
  -26.6483  -12.7367   20.1133 C   0  0  0  0  0  0  0  0  0  0  0  0
  -26.2819  -10.7308   18.6674 C   0  0  0  0  0  0  0  0  0  0  0  0
  -24.8115  -31.1706   22.7173 C   0  0  0  0  0  0  0  0  0  0  0  0
  -21.9216  -30.4346   21.4411 C   0  0  0  0  0  0  0  0  0  0  0  0
  -20.0460  -28.2922   19.5598 C   0  0  0  0  0  0  0  0  0  0  0  0
  -25.0734  -17.5016   23.0154 C   0  0  0  0  0  0  0  0  0  0  0  0
  -25.0432  -35.4900   25.4278 C   0  0  0  0  0  0  0  0  0  0  0  0
  -25.4112  -30.7928   20.2979 C   0  0  0  0  0  0  0  0  0  0  0  0
  -23.6865  -28.6340   21.3512 C   0  0  0  0  0  0  0  0  0  0  0  0
  -23.9874  -34.4179   25.1704 C   0  0  0  0  0  0  0  0  0  0  0  0
  -27.8559  -15.4845   23.8285 C   0  0  0  0  0  0  0  0  0  0  0  0
  -24.5774  -33.0267   25.3785 C   0  0  0  0  0  0  0  0  0  0  0  0
  -27.5409  -14.2070   23.0515 C   0  0  0  0  0  0  0  0  0  0  0  0
  -26.6054  -16.0918   24.4670 C   0  0  0  0  0  0  0  0  0  0  0  0
  -25.1826  -15.0436   22.7351 C   0  0  0  0  0  0  0  0  0  0  0  0
  -25.7258  -32.7620   24.3973 C   0  0  1  0  0  0  0  0  0  0  0  0
  -24.3019  -31.0716   21.3073 C   0  0  1  0  0  0  0  0  0  0  0  0
  -26.4122  -14.4463   22.0338 C   0  0  2  0  0  0  0  0  0  0  0  0
  -17.7064  -27.9351   18.7255 C   0  0  0  0  0  0  0  0  0  0  0  0
  -21.0827  -29.4726   24.2126 C   0  0  0  0  0  0  0  0  0  0  0  0
  -19.1572  -28.2843   23.1408 C   0  0  0  0  0  0  0  0  0  0  0  0
  -19.3315  -30.7677   22.9836 C   0  0  0  0  0  0  0  0  0  0  0  0
  -25.0362  -18.4426   25.3645 C   0  0  0  0  0  0  0  0  0  0  0  0
  -20.9045  -28.4608   16.7326 C   0  0  0  0  0  0  0  0  0  0  0  0
  -29.1730  -20.9398   24.7546 C   0  0  0  0  0  0  0  0  0  0  0  0
  -29.7240  -21.0639   22.3294 C   0  0  0  0  0  0  0  0  0  0  0  0
  -28.5523  -25.1915   19.8182 C   0  0  0  0  0  0  0  0  0  1  0  0
  -26.2324  -20.7888   23.6993 C   0  0  0  0  0  0  0  0  0  0  0  0
  -25.0041  -19.9357   23.4010 C   0  0  0  0  0  0  0  0  0  0  0  0
  -27.4949  -20.2270   23.0582 C   0  0  0  0  0  0  0  0  0  0  0  0
  -20.9159  -29.3265   21.6402 C   0  0  1  0  0  0  0  0  0  0  0  0
  -19.0689  -28.5398   18.4247 C   0  0  2  0  0  0  0  0  0  0  0  0
  -20.1485  -29.4573   22.9862 C   0  0  0  0  0  0  0  0  0  0  0  0
  -29.3551  -21.0406   19.9379 N   0  0  0  0  0  0  0  0  0  0  0  0
  -28.7876  -23.0404   18.7190 N   0  0  0  0  0  0  0  0  0  0  0  0
  -25.0937  -12.3848   21.7279 N   0  0  0  0  0  0  0  0  0  0  0  0
  -26.0695  -13.1841   21.2644 N   0  0  0  0  0  0  0  0  0  0  0  0
  -23.2603  -30.0423   21.3011 N   0  0  0  0  0  0  0  0  0  0  0  0
  -25.5377  -16.2592   23.4716 N   0  0  0  0  0  0  0  0  0  0  0  0
  -27.6455  -13.4195   19.5118 N   0  0  0  0  0  0  0  0  0  0  0  0
  -25.5294   -9.5605   18.4988 N   0  0  0  0  0  0  0  0  0  0  0  0
  -25.2058  -32.4430   23.0850 N   0  0  0  0  0  0  0  0  0  0  0  0
  -20.0583  -29.3366   20.4600 N   0  0  0  0  0  0  0  0  0  0  0  0
  -25.1339  -18.5786   23.9126 N   0  0  0  0  0  0  0  0  0  0  0  0
  -19.5808  -27.9393   17.1604 N   0  3  0  0  0  0  0  0  0  0  0  0
  -28.6498  -21.1482   23.3566 N   0  3  1  0  0  0  0  0  0  0  0  0
  -27.1798  -11.0084   17.8366 O   0  0  0  0  0  0  0  0  0  0  0  0
  -24.8433  -30.1673   23.4201 O   0  0  0  0  0  0  0  0  0  0  0  0
  -21.5327  -31.6046   21.4039 O   0  0  0  0  0  0  0  0  0  0  0  0
  -20.7272  -27.2725   19.6419 O   0  0  0  0  0  0  0  0  0  0  0  0
  -24.6215  -17.6409   21.8716 O   0  0  0  0  0  0  0  0  0  0  0  0
  -21.4107   -7.1996   21.4139 O   0  0  0  0  0  0  0  0  0  0  0  0
  -27.2452  -25.4331   20.3373 O   0  0  0  0  0  0  0  0  0  1  0  0
  -23.2617   -2.0642   20.6353 F   0  0  0  0  0  0  0  0  0  0  0  0
  -21.2731   -5.3204   23.4368 F   0  0  0  0  0  0  0  0  0  0  0  0
  1  2  1  0  0  0  0
  1  5  2  0  0  0  0
  2  6  2  0  0  0  0
  3  8  2  0  0  0  0
  3 17  1  0  0  0  0
  4  9  1  0  0  0  0
  4 17  2  0  0  0  0
  5 19  1  0  0  0  0
  6 21  1  0  0  0  0
  7 10  2  0  0  0  0
  7 20  1  0  0  0  0
  8 23  1  0  0  0  0
  9 23  2  0  0  0  0
 10 24  1  0  0  0  0
 11 12  2  0  0  0  0
 11 25  1  0  0  0  0
 12 26  1  0  0  0  0
 13 22  1  0  0  0  0
 13 24  2  0  0  0  0
 14 26  2  0  0  0  0
 14 27  1  0  0  0  0
 15 29  2  0  0  0  0
 15 30  1  0  0  0  0
 16 64  2  0  0  0  0
 16 65  1  0  0  0  0
 17 28  1  0  0  0  0
 18 28  1  0  0  0  0
 18 31  2  0  0  0  0
 18 32  1  0  0  0  0
 19 21  2  0  0  0  0
 19 37  1  0  0  0  0
 20 22  2  0  0  0  0
 20 38  1  0  0  0  0
 21 46  1  0  0  0  0
 22 39  1  0  0  0  0
 23 82  1  0  0  0  0
 24 83  1  0  0  0  0
 25 27  2  0  0  0  0
 25 82  1  0  0  0  0
 26 84  1  0  0  0  0
 27 85  1  0  0  0  0
 28 66  2  0  0  0  0
 29 56  1  0  0  0  0
 29 64  1  0  0  0  0
 30 57  1  0  0  0  0
 30 65  2  0  0  0  0
 31 67  1  0  0  0  0
 31 70  1  0  0  0  0
 32 71  1  0  0  0  0
 32 77  2  0  0  0  0
 33 47  1  0  0  0  0
 33 72  1  0  0  0  0
 33 78  2  0  0  0  0
 34 61  1  0  0  0  0
 34 68  1  0  0  0  0
 34 79  2  0  0  0  0
 35 62  1  0  0  0  0
 35 73  1  0  0  0  0
 35 80  2  0  0  0  0
 36 69  1  0  0  0  0
 36 74  1  0  0  0  0
 36 81  2  0  0  0  0
 37 40  1  0  0  0  0
 38 47  1  0  0  0  0
 39 68  1  0  0  0  0
 40 42  1  0  0  0  0
 41 43  1  0  0  0  0
 41 44  1  0  0  0  0
 42 46  1  0  0  0  0
 43 48  1  0  0  0  0
 44 69  1  0  0  0  0
 45 48  1  0  0  0  0
 45 69  1  0  0  0  0
 46 72  1  0  0  0  0
 47 68  1  0  0  0  0
 48 67  1  0  0  0  0
 49 62  1  0  0  0  0
 50 63  1  0  0  0  0
 51 63  1  0  0  0  0
 52 63  1  0  0  0  0
 53 74  1  0  0  0  0
 54 75  1  0  0  0  0
 55 76  1  0  0  0  0
 56 76  1  0  0  0  0
 57 83  1  0  0  0  0
 58 59  1  0  0  0  0
 58 60  1  0  0  0  0
 59 74  1  0  0  0  0
 60 76  1  0  0  0  0
 61 63  1  0  0  0  0
 61 73  1  0  0  0  0
 62 75  1  0  0  0  0
 66 67  1  0  0  0  0
M  CHG  2  75   1  76   1
M  ISO  4  36 100  57 101  74 100  83 101
M  END
> <Batch ID>
0064

> <Smiles>
CNC(C)C(=O)NC(C(=O)N1Cc2cc([101O:1][101CH2:1]c3cc(CN(C)CCC[100N:0](C)[100C:0](=O)N4CCCC(n5nc(-c6ccc(Oc7ccc(F)cc7F)cc6)c(C(N)=O)c5N)C4)ncn3)ccc2CC1C(=O)NC1CCCc2ccccc21)C(C)(C)C

> <Shape>
0.293

> <Color>
0.118

> <Negative vol penalty>
0.000

$$$$

  -OEChem-04052318052D

  0  0  0     0  0  0  0  0  0999 V2000
M  END
$$$$

  -OEChem-04052318053D

 92100  0     1  0  0  0  0  0999 V2000
  -23.8161  -15.7063   13.0278 C   0  0  0  0  0  0  0  0  0  0  0  0
  -24.9876  -15.6698   13.7772 C   0  0  0  0  0  0  0  0  0  0  0  0
  -26.2638  -28.0139   18.9990 C   0  0  0  0  0  0  0  0  0  0  0  0
  -26.2483  -27.0979   21.2345 C   0  0  0  0  0  0  0  0  0  0  0  0
  -22.5850  -15.5054   13.6506 C   0  0  0  0  0  0  0  0  0  0  0  0
  -24.9286  -15.4334   15.1502 C   0  0  0  0  0  0  0  0  0  0  0  0
  -29.0003  -12.3551   18.5342 C   0  0  0  0  0  0  0  0  0  0  0  0
  -25.7320  -29.2084   19.4847 C   0  0  0  0  0  0  0  0  0  0  0  0
  -25.7165  -28.2924   21.7203 C   0  0  0  0  0  0  0  0  0  0  0  0
  -30.0507  -12.7746   19.3494 C   0  0  0  0  0  0  0  0  0  0  0  0
  -22.6974  -29.8096   21.8378 C   0  0  0  0  0  0  0  0  0  0  0  0
  -21.6362  -29.7273   22.7393 C   0  0  0  0  0  0  0  0  0  0  0  0
  -29.4778  -20.4461   22.0779 C   0  0  0  0  0  0  0  0  0  0  0  0
  -28.6075  -12.6237   21.2764 C   0  0  0  0  0  0  0  0  0  0  0  0
  -22.9545  -30.8891   24.3974 C   0  0  0  0  0  0  0  0  0  0  0  0
  -30.3287  -19.9732   23.0468 C   0  0  0  0  0  0  0  0  0  0  0  0
  -26.5219  -26.9586   19.8739 C   0  0  0  0  0  0  0  0  0  0  0  0
  -28.4321  -25.3891   19.2449 C   0  0  0  0  0  0  0  0  0  0  0  0
  -22.5116  -15.2567   15.0303 C   0  0  0  0  0  0  0  0  0  0  0  0
  -27.7404  -12.0769   19.0835 C   0  0  0  0  0  0  0  0  0  0  0  0
  -23.6952  -15.2302   15.7923 C   0  0  0  0  0  0  0  0  0  0  0  0
  -27.5435  -12.1984   20.4665 C   0  0  0  0  0  0  0  0  0  0  0  0
  -25.4583  -29.3477   20.8454 C   0  0  0  0  0  0  0  0  0  0  0  0
  -29.8536  -12.9117   20.7203 C   0  0  0  0  0  0  0  0  0  0  0  0
  -23.8872  -30.4316   22.2162 C   0  0  0  0  0  0  0  0  0  0  0  0
  -21.7647  -30.2670   24.0191 C   0  0  0  0  0  0  0  0  0  0  0  0
  -24.0158  -30.9713   23.4959 C   0  0  0  0  0  0  0  0  0  0  0  0
  -27.0708  -25.7243   19.3726 C   0  0  0  0  0  0  0  0  0  0  0  0
  -28.5638  -19.3960   21.8691 C   0  0  0  0  0  0  0  0  0  0  0  0
  -28.4254  -24.1179   18.7249 C   0  0  0  0  0  0  0  0  0  0  0  0
  -29.5984  -26.1581   19.5676 C   0  0  0  0  0  0  0  0  0  0  0  0
  -24.8203  -13.2793   18.7216 C   0  0  0  0  0  0  0  0  0  0  0  0
  -23.9859  -10.8060   20.6474 C   0  0  0  0  0  0  0  0  0  0  0  0
  -26.3802  -18.9115   18.7441 C   0  0  0  0  0  0  0  0  0  0  0  0
  -24.9197   -8.5412   23.0234 C   0  0  0  0  0  0  0  0  0  0  0  0
  -21.1543  -15.0924   15.6670 C   0  0  0  0  0  0  0  0  0  0  0  0
  -26.6251  -11.5997   18.1943 C   0  0  0  0  0  0  0  0  0  0  0  0
  -26.2157  -11.8926   21.1083 C   0  0  0  0  0  0  0  0  0  0  0  0
  -21.2068  -14.4757   17.0625 C   0  0  0  0  0  0  0  0  0  0  0  0
  -24.6630  -21.3671   16.7791 C   0  0  0  0  0  0  0  0  0  0  0  0
  -22.2871  -15.1487   17.9032 C   0  0  0  0  0  0  0  0  0  0  0  0
  -25.2261  -22.6930   17.2893 C   0  0  0  0  0  0  0  0  0  0  0  0
  -24.5467  -20.3409   17.9018 C   0  0  0  0  0  0  0  0  0  0  0  0
  -26.3893  -21.4229   19.1492 C   0  0  0  0  0  0  0  0  0  0  0  0
  -23.6741  -14.9519   17.2796 C   0  0  1  0  0  0  0  0  0  0  0  0
  -25.2415  -11.8386   18.7909 C   0  0  1  0  0  0  0  0  0  0  0  0
  -26.5519  -22.4779   18.0406 C   0  0  2  0  0  0  0  0  0  0  0  0
  -24.0089   -6.6738   24.4309 C   0  0  0  0  0  0  0  0  0  0  0  0
  -28.1209  -17.3523   19.5068 C   0  0  0  0  0  0  0  0  0  0  0  0
  -29.3576  -18.0626   27.3889 C   0  0  0  0  0  0  0  0  0  0  0  0
  -27.8291  -18.7492   25.5503 C   0  0  0  0  0  0  0  0  0  0  0  0
  -27.4689  -16.5663   26.7049 C   0  0  0  0  0  0  0  0  0  0  0  0
  -22.6192  -12.8433   22.4617 C   0  0  0  0  0  0  0  0  0  0  0  0
  -22.5729  -11.1045   24.2625 C   0  0  0  0  0  0  0  0  0  0  0  0
  -21.3404  -10.7201   22.1281 C   0  0  0  0  0  0  0  0  0  0  0  0
  -32.3564  -16.0877   24.9448 C   0  0  0  0  0  0  0  0  0  0  0  0
  -32.8464  -17.8781   23.2993 C   0  0  0  0  0  0  0  0  0  0  0  0
  -26.7818   -6.5762   21.8275 C   0  0  0  0  0  0  0  0  0  0  0  0
  -27.4304  -19.3673   20.9291 C   0  0  0  0  0  0  0  0  0  0  0  0
  -32.4047  -15.1116   22.0148 C   0  0  0  0  0  0  0  0  0  0  0  0
  -31.2972  -15.9747   22.6330 C   0  0  0  0  0  0  0  0  0  0  0  0
  -29.4335  -16.8805   25.0933 C   0  0  0  0  0  0  0  0  0  0  0  0
  -28.7287  -19.7124   18.7523 C   0  0  0  0  0  0  0  0  0  0  0  0
  -31.8490  -14.1873   20.9370 C   0  0  0  0  0  0  0  0  0  1  0  0
  -23.8660  -10.6056   22.1389 C   0  0  1  0  0  0  0  0  0  0  0  0
  -24.7009   -7.0426   23.1278 C   0  0  2  0  0  0  0  0  0  0  0  0
  -30.5039  -17.7629   24.3733 C   0  0  1  0  0  0  0  0  0  0  0  0
  -27.6954  -18.8280   19.4772 C   0  0  2  0  0  0  0  0  0  0  0  0
  -28.5449  -17.5408   26.1954 C   0  0  0  0  0  0  0  0  0  0  0  0
  -22.6242  -11.3261   22.7357 C   0  0  0  0  0  0  0  0  0  0  0  0
  -31.7335  -16.9200   23.7933 C   0  0  0  0  0  0  0  0  0  0  0  0
  -26.2584  -24.7451   18.9663 N   0  0  0  0  0  0  0  0  0  0  0  0
  -28.8109  -18.3358   22.6430 N   0  0  0  0  0  0  0  0  0  0  0  0
  -29.8899  -18.7173   23.3475 N   0  0  0  0  0  0  0  0  0  0  0  0
  -27.1117  -23.7821   18.5781 N   0  0  0  0  0  0  0  0  0  0  0  0
  -25.1545  -11.4355   20.1959 N   0  0  0  0  0  0  0  0  0  0  0  0
  -25.8208  -20.1818   18.6052 N   0  0  0  0  0  0  0  0  0  0  0  0
  -29.4152  -23.2658   18.3834 N   0  0  0  0  0  0  0  0  0  0  0  0
  -29.4253  -27.4458   20.0933 N   0  0  0  0  0  0  0  0  0  0  0  0
  -24.1664  -13.6186   17.5526 N   0  0  0  0  0  0  0  0  0  0  0  0
  -23.8837   -9.1636   22.3597 N   0  0  0  0  0  0  0  0  0  0  0  0
  -29.2767  -19.0467   17.5408 N   0  3  0  0  0  0  0  0  0  0  0  0
  -26.0047   -6.3234   23.0681 N   0  3  0  0  0  0  0  0  0  0  0  0
  -30.7597  -25.7227   19.3796 O   0  0  0  0  0  0  0  0  0  0  0  0
  -25.0689  -14.0272   19.6599 O   0  0  0  0  0  0  0  0  0  0  0  0
  -23.0793  -10.4119   19.9095 O   0  0  0  0  0  0  0  0  0  0  0  0
  -25.8684  -17.8778   18.3061 O   0  0  0  0  0  0  0  0  0  0  0  0
  -25.9088   -9.1039   23.4877 O   0  0  0  0  0  0  0  0  0  0  0  0
  -24.9396  -30.5132   21.3198 O   0  0  0  0  0  0  0  0  0  0  0  0
  -30.8845  -13.3245   21.5240 O   0  0  0  0  0  0  0  0  0  1  0  0
  -20.7450  -30.1893   24.8841 F   0  0  0  0  0  0  0  0  0  0  0  0
  -25.1560  -31.5711   23.8647 F   0  0  0  0  0  0  0  0  0  0  0  0
  1  2  1  0  0  0  0
  1  5  2  0  0  0  0
  2  6  2  0  0  0  0
  3  8  2  0  0  0  0
  3 17  1  0  0  0  0
  4  9  1  0  0  0  0
  4 17  2  0  0  0  0
  5 19  1  0  0  0  0
  6 21  1  0  0  0  0
  7 10  2  0  0  0  0
  7 20  1  0  0  0  0
  8 23  1  0  0  0  0
  9 23  2  0  0  0  0
 10 24  1  0  0  0  0
 11 12  2  0  0  0  0
 11 25  1  0  0  0  0
 12 26  1  0  0  0  0
 13 16  2  0  0  0  0
 13 29  1  0  0  0  0
 14 22  1  0  0  0  0
 14 24  2  0  0  0  0
 15 26  2  0  0  0  0
 15 27  1  0  0  0  0
 16 74  1  0  0  0  0
 17 28  1  0  0  0  0
 18 28  1  0  0  0  0
 18 30  2  0  0  0  0
 18 31  1  0  0  0  0
 19 21  2  0  0  0  0
 19 36  1  0  0  0  0
 20 22  2  0  0  0  0
 20 37  1  0  0  0  0
 21 45  1  0  0  0  0
 22 38  1  0  0  0  0
 23 89  1  0  0  0  0
 24 90  1  0  0  0  0
 25 27  2  0  0  0  0
 25 89  1  0  0  0  0
 26 91  1  0  0  0  0
 27 92  1  0  0  0  0
 28 72  2  0  0  0  0
 29 59  1  0  0  0  0
 29 73  2  0  0  0  0
 30 75  1  0  0  0  0
 30 78  1  0  0  0  0
 31 79  1  0  0  0  0
 31 84  2  0  0  0  0
 32 46  1  0  0  0  0
 32 80  1  0  0  0  0
 32 85  2  0  0  0  0
 33 65  1  0  0  0  0
 33 76  1  0  0  0  0
 33 86  2  0  0  0  0
 34 68  1  0  0  0  0
 34 77  1  0  0  0  0
 34 87  2  0  0  0  0
 35 66  1  0  0  0  0
 35 81  1  0  0  0  0
 35 88  2  0  0  0  0
 36 39  1  0  0  0  0
 37 46  1  0  0  0  0
 38 76  1  0  0  0  0
 39 41  1  0  0  0  0
 40 42  1  0  0  0  0
 40 43  1  0  0  0  0
 41 45  1  0  0  0  0
 42 47  1  0  0  0  0
 43 77  1  0  0  0  0
 44 47  1  0  0  0  0
 44 77  1  0  0  0  0
 45 80  1  0  0  0  0
 46 76  1  0  0  0  0
 47 75  1  0  0  0  0
 48 66  1  0  0  0  0
 49 68  1  0  0  0  0
 50 69  1  0  0  0  0
 51 69  1  0  0  0  0
 52 69  1  0  0  0  0
 53 70  1  0  0  0  0
 54 70  1  0  0  0  0
 55 70  1  0  0  0  0
 56 71  1  0  0  0  0
 57 71  1  0  0  0  0
 58 83  1  0  0  0  0
 59 68  1  0  0  0  0
 60 61  1  0  0  0  0
 60 64  1  0  0  0  0
 61 71  1  0  0  0  0
 62 67  1  0  0  0  0
 62 69  1  0  0  0  0
 63 68  1  0  0  0  0
 63 82  1  0  0  0  0
 64 90  1  0  0  0  0
 65 70  1  0  0  0  0
 65 81  1  0  0  0  0
 66 83  1  0  0  0  0
 67 71  1  0  0  0  0
 67 74  1  0  0  0  0
 72 75  1  0  0  0  0
 73 74  1  0  0  0  0
M  CHG  2  82   1  83   1
M  ISO  4  34 100  64 101  68 100  90 101
M  END
> <Batch ID>
0064

> <Smiles>
CNC(C)C(=O)NC(C(=O)N1Cc2cc([101O:1][101CH2:1]CCC(C)(C)C(CC(C)(C)C)n3ccc(C[100C:0](C)(CN)[100C:0](=O)N4CCCC(n5nc(-c6ccc(Oc7ccc(F)cc7F)cc6)c(C(N)=O)c5N)C4)n3)ccc2CC1C(=O)NC1CCCc2ccccc21)C(C)(C)C

> <Shape>
0.248

> <Color>
0.061

> <Negative vol penalty>
0.000

$$$$

  -OEChem-04052318053D

 87 95  0     1  0  0  0  0  0999 V2000
  -30.4284   -8.8250   15.0588 C   0  0  0  0  0  0  0  0  0  0  0  0
  -29.2595   -9.5043   15.3831 C   0  0  0  0  0  0  0  0  0  0  0  0
  -23.1193   -9.8756   19.9475 C   0  0  0  0  0  0  0  0  0  0  0  0
  -23.9009   -9.9002   22.2334 C   0  0  0  0  0  0  0  0  0  0  0  0
  -30.6665   -8.4459   13.7394 C   0  0  0  0  0  0  0  0  0  0  0  0
  -28.3229   -9.7942   14.3903 C   0  0  0  0  0  0  0  0  0  0  0  0
  -24.0425  -11.7291   15.8523 C   0  0  0  0  0  0  0  0  0  0  0  0
  -22.4019   -8.7075   20.2053 C   0  0  0  0  0  0  0  0  0  0  0  0
  -23.1834   -8.7321   22.4913 C   0  0  0  0  0  0  0  0  0  0  0  0
  -23.9266  -13.0390   16.3156 C   0  0  0  0  0  0  0  0  0  0  0  0
  -20.6528   -5.5196   20.1663 C   0  0  0  0  0  0  0  0  0  0  0  0
  -20.7284   -4.4899   19.2284 C   0  0  0  0  0  0  0  0  0  0  0  0
  -22.9658  -13.6949   14.2024 C   0  0  0  0  0  0  0  0  0  0  0  0
  -23.1195   -4.3695   19.5534 C   0  0  0  0  0  0  0  0  0  0  0  0
  -23.8689  -10.4719   20.9615 C   0  0  0  0  0  0  0  0  0  0  0  0
  -24.1572  -13.0035   20.8366 C   0  0  0  0  0  0  0  0  0  0  0  0
  -29.7376   -8.7426   12.7285 C   0  0  0  0  0  0  0  0  0  0  0  0
  -23.6303  -11.3940   14.5546 C   0  0  0  0  0  0  0  0  0  0  0  0
  -28.5339   -9.3988   13.0570 C   0  0  0  0  0  0  0  0  0  0  0  0
  -23.0752  -12.3796   13.7259 C   0  0  0  0  0  0  0  0  0  0  0  0
  -22.4339   -8.1358   21.4772 C   0  0  0  0  0  0  0  0  0  0  0  0
  -23.3908  -14.0227   15.4896 C   0  0  0  0  0  0  0  0  0  0  0  0
  -21.8106   -5.9743   20.7977 C   0  0  0  0  0  0  0  0  0  0  0  0
  -21.9617   -3.9148   18.9220 C   0  0  0  0  0  0  0  0  0  0  0  0
  -23.0439   -5.3992   20.4913 C   0  0  0  0  0  0  0  0  0  0  0  0
  -24.6107  -11.6782   20.6957 C   0  0  0  0  0  0  0  0  0  0  0  0
  -25.2301  -13.7751   20.4624 C   0  0  0  0  0  0  0  0  0  0  0  0
  -27.4132  -17.3296   16.0199 C   0  0  0  0  0  0  0  0  0  0  0  0
  -28.8254  -17.7585   17.6108 C   0  0  0  0  0  0  0  0  0  0  0  0
  -22.8804  -13.4933   21.2674 C   0  0  0  0  0  0  0  0  0  0  0  0
  -26.3739  -17.6203   15.0102 C   0  0  0  0  0  0  0  0  0  0  0  0
  -25.0527  -17.5520   15.3068 C   0  0  0  0  0  0  0  0  0  0  0  0
  -25.0794  -10.2564   11.9643 C   0  0  0  0  0  0  0  0  0  0  0  0
  -22.0540  -10.1376   10.8003 C   0  0  0  0  0  0  0  0  0  0  0  0
  -18.8518  -11.3108   10.9297 C   0  0  0  0  0  0  0  0  0  0  0  0
  -30.8258  -14.6042   21.0261 C   0  0  0  0  0  0  0  0  0  0  0  0
  -30.0423   -8.3020   11.3184 C   0  0  0  0  0  0  0  0  0  0  0  0
  -23.7373   -9.9710   14.0793 C   0  0  0  0  0  0  0  0  0  0  0  0
  -22.5990  -12.0673   12.3316 C   0  0  0  0  0  0  0  0  0  0  0  0
  -29.2107   -9.0379   10.2728 C   0  0  0  0  0  0  0  0  0  0  0  0
  -29.5815  -12.5310   18.2235 C   0  0  0  0  0  0  0  0  0  0  0  0
  -27.7409   -9.0110   10.6646 C   0  0  0  0  0  0  0  0  0  0  0  0
  -28.1640  -12.1800   18.6725 C   0  0  0  0  0  0  0  0  0  0  0  0
  -30.5109  -12.7651   19.4105 C   0  0  0  0  0  0  0  0  0  0  0  0
  -28.5945  -13.4323   20.8235 C   0  0  0  0  0  0  0  0  0  0  0  0
  -27.5149   -9.7519   11.9886 C   0  0  1  0  0  0  0  0  0  0  0  0
  -23.7610   -9.8490   12.5588 C   0  0  1  0  0  0  0  0  0  0  0  0
  -27.6214  -13.2358   19.6514 C   0  0  2  0  0  0  0  0  0  0  0  0
  -26.9534  -18.0034   13.6721 C   0  0  0  0  0  0  0  0  0  0  0  0
  -23.9483  -17.8395   14.3111 C   0  0  0  0  0  0  0  0  0  0  0  0
  -16.6122  -11.0497    9.8281 C   0  0  0  0  0  0  0  0  0  0  0  0
  -23.0436  -11.7559    8.4103 C   0  0  0  0  0  0  0  0  0  0  0  0
  -20.6561  -12.2672    7.8566 C   0  0  0  0  0  0  0  0  0  0  0  0
  -21.4615   -9.9064    7.8349 C   0  0  0  0  0  0  0  0  0  0  0  0
  -27.5282  -19.7337   16.7793 C   0  0  0  0  0  0  0  0  0  0  0  0
  -30.8568  -16.5441   22.5478 C   0  0  0  0  0  0  0  0  0  0  0  0
  -17.5842  -10.4259   13.4534 C   0  0  0  0  0  0  0  0  0  0  0  0
  -29.5980  -18.5082   18.6177 C   0  0  0  0  0  0  0  0  0  0  0  0
  -24.5282  -17.2281   16.6986 C   0  0  0  0  0  0  0  0  0  0  0  0
  -30.4031  -17.6336   19.6105 C   0  0  0  0  0  0  0  0  0  0  0  0
  -29.5400  -16.7109   20.4684 C   0  0  0  0  0  0  0  0  0  0  0  0
  -24.2399  -15.7424   16.8959 C   0  0  0  0  0  0  0  0  0  1  0  0
  -21.1600  -11.0928   10.0470 C   0  0  1  0  0  0  0  0  0  0  0  0
  -17.5158  -10.5907   10.9620 C   0  0  2  0  0  0  0  0  0  0  0  0
  -21.5910  -11.2622    8.5628 C   0  0  0  0  0  0  0  0  0  0  0  0
  -25.8732  -11.6082   20.2653 N   0  0  0  0  0  0  0  0  0  0  0  0
  -28.0046  -16.2002   16.3379 N   0  0  0  0  0  0  0  0  0  0  0  0
  -28.9031  -16.4731   17.3500 N   0  0  0  0  0  0  0  0  0  0  0  0
  -26.2222  -12.8992   20.1326 N   0  0  0  0  0  0  0  0  0  0  0  0
  -27.8996  -18.3371   16.7966 N   0  0  0  0  0  0  0  0  0  0  0  0
  -22.7306  -10.6627   11.9104 N   0  0  0  0  0  0  0  0  0  0  0  0
  -29.9510  -13.7406   20.3466 N   0  0  0  0  0  0  0  0  0  0  0  0
  -25.4122  -15.1106   20.3866 N   0  0  0  0  0  0  0  0  0  0  0  0
  -21.8908  -12.5637   21.6150 N   0  0  0  0  0  0  0  0  0  0  0  0
  -26.1562   -9.5262   12.4299 N   0  0  0  0  0  0  0  0  0  0  0  0
  -19.7978  -10.6005   10.2213 N   0  0  0  0  0  0  0  0  0  0  0  0
  -30.3358  -15.8747   21.3644 N   0  0  0  0  0  0  0  0  0  0  0  0
  -16.8185  -10.8505   12.2532 N   0  3  0  0  0  0  0  0  0  0  0  0
  -22.6193  -14.7188   21.3262 O   0  0  0  0  0  0  0  0  0  0  0  0
  -25.1168  -11.1649   11.1428 O   0  0  0  0  0  0  0  0  0  0  0  0
  -22.1429   -8.9669   10.4221 O   0  0  0  0  0  0  0  0  0  0  0  0
  -19.0367  -12.3966   11.4749 O   0  0  0  0  0  0  0  0  0  0  0  0
  -31.9822  -14.2627   21.3057 O   0  0  0  0  0  0  0  0  0  0  0  0
  -21.7338   -6.9961   21.7292 O   0  0  0  0  0  0  0  0  0  0  0  0
  -23.2771  -15.3021   15.9390 O   0  0  0  0  0  0  0  0  0  1  0  0
  -22.0340   -2.9250   18.0225 F   0  0  0  0  0  0  0  0  0  0  0  0
  -24.1594   -5.8310   21.0955 F   0  0  0  0  0  0  0  0  0  0  0  0
  1  2  1  0  0  0  0
  1  5  2  0  0  0  0
  2  6  2  0  0  0  0
  3  8  2  0  0  0  0
  3 15  1  0  0  0  0
  4  9  1  0  0  0  0
  4 15  2  0  0  0  0
  5 17  1  0  0  0  0
  6 19  1  0  0  0  0
  7 10  2  0  0  0  0
  7 18  1  0  0  0  0
  8 21  1  0  0  0  0
  9 21  2  0  0  0  0
 10 22  1  0  0  0  0
 11 12  2  0  0  0  0
 11 23  1  0  0  0  0
 12 24  1  0  0  0  0
 13 20  1  0  0  0  0
 13 22  2  0  0  0  0
 14 24  2  0  0  0  0
 14 25  1  0  0  0  0
 15 26  1  0  0  0  0
 16 26  1  0  0  0  0
 16 27  2  0  0  0  0
 16 30  1  0  0  0  0
 17 19  2  0  0  0  0
 17 37  1  0  0  0  0
 18 20  2  0  0  0  0
 18 38  1  0  0  0  0
 19 46  1  0  0  0  0
 20 39  1  0  0  0  0
 21 84  1  0  0  0  0
 22 85  1  0  0  0  0
 23 25  2  0  0  0  0
 23 84  1  0  0  0  0
 24 86  1  0  0  0  0
 25 87  1  0  0  0  0
 26 66  2  0  0  0  0
 27 69  1  0  0  0  0
 27 73  1  0  0  0  0
 28 31  1  0  0  0  0
 28 67  2  0  0  0  0
 28 70  1  0  0  0  0
 29 58  1  0  0  0  0
 29 68  2  0  0  0  0
 29 70  1  0  0  0  0
 30 74  1  0  0  0  0
 30 79  2  0  0  0  0
 31 32  2  0  0  0  0
 31 49  1  0  0  0  0
 32 50  1  0  0  0  0
 32 59  1  0  0  0  0
 33 47  1  0  0  0  0
 33 75  1  0  0  0  0
 33 80  2  0  0  0  0
 34 63  1  0  0  0  0
 34 71  1  0  0  0  0
 34 81  2  0  0  0  0
 35 64  1  0  0  0  0
 35 76  1  0  0  0  0
 35 82  2  0  0  0  0
 36 72  1  0  0  0  0
 36 77  1  0  0  0  0
 36 83  2  0  0  0  0
 37 40  1  0  0  0  0
 38 47  1  0  0  0  0
 39 71  1  0  0  0  0
 40 42  1  0  0  0  0
 41 43  1  0  0  0  0
 41 44  1  0  0  0  0
 42 46  1  0  0  0  0
 43 48  1  0  0  0  0
 44 72  1  0  0  0  0
 45 48  1  0  0  0  0
 45 72  1  0  0  0  0
 46 75  1  0  0  0  0
 47 71  1  0  0  0  0
 48 69  1  0  0  0  0
 51 64  1  0  0  0  0
 52 65  1  0  0  0  0
 53 65  1  0  0  0  0
 54 65  1  0  0  0  0
 55 70  1  0  0  0  0
 56 77  1  0  0  0  0
 57 78  1  0  0  0  0
 58 60  1  0  0  0  0
 59 62  1  0  0  0  0
 60 61  1  0  0  0  0
 61 77  1  0  0  0  0
 62 85  1  0  0  0  0
 63 65  1  0  0  0  0
 63 76  1  0  0  0  0
 64 78  1  0  0  0  0
 66 69  1  0  0  0  0
 67 68  1  0  0  0  0
M  CHG  1  78   1
M  ISO  4  36 100  62 101  77 100  85 101
M  END
> <Batch ID>
0064

> <Smiles>
CNC(C)C(=O)NC(C(=O)N1Cc2cc([101O:1][101CH2:1]CC(C)=C(C)c3nnc(CCC[100N:0](C)[100C:0](=O)N4CCCC(n5nc(-c6ccc(Oc7ccc(F)cc7F)cc6)c(C(N)=O)c5N)C4)n3C)ccc2CC1C(=O)NC1CCCc2ccccc21)C(C)(C)C

> <Shape>
0.161

> <Color>
0.168

> <Negative vol penalty>
0.000

$$$$

  -OEChem-04052318053D

 83 91  0     1  0  0  0  0  0999 V2000
  -23.1712  -23.3506   19.3162 C   0  0  0  0  0  0  0  0  0  0  0  0
  -24.4223  -22.7481   19.2315 C   0  0  0  0  0  0  0  0  0  0  0  0
  -26.4550  -28.3798   18.9162 C   0  0  0  0  0  0  0  0  0  0  0  0
  -26.5504  -27.9517   21.2920 C   0  0  0  0  0  0  0  0  0  0  0  0
  -22.1867  -22.7982   20.1344 C   0  0  0  0  0  0  0  0  0  0  0  0
  -24.6900  -21.5934   19.9659 C   0  0  0  0  0  0  0  0  0  0  0  0
  -28.2457  -16.9003   18.2811 C   0  0  0  0  0  0  0  0  0  0  0  0
  -25.3119  -29.1572   19.1021 C   0  0  0  0  0  0  0  0  0  0  0  0
  -25.4073  -28.7291   21.4780 C   0  0  0  0  0  0  0  0  0  0  0  0
  -29.5658  -16.5684   18.5823 C   0  0  0  0  0  0  0  0  0  0  0  0
  -22.0666  -28.3786   21.0943 C   0  0  0  0  0  0  0  0  0  0  0  0
  -21.0699  -27.8757   21.9306 C   0  0  0  0  0  0  0  0  0  0  0  0
  -28.7917  -15.1132   20.3436 C   0  0  0  0  0  0  0  0  0  0  0  0
  -21.3080  -29.8004   23.3715 C   0  0  0  0  0  0  0  0  0  0  0  0
  -27.0743  -27.7770   20.0111 C   0  0  0  0  0  0  0  0  0  0  0  0
  -29.5931  -27.4093   19.8446 C   0  0  0  0  0  0  0  0  0  0  0  0
  -22.4394  -21.6306   20.8718 C   0  0  0  0  0  0  0  0  0  0  0  0
  -27.1873  -16.3487   19.0172 C   0  0  0  0  0  0  0  0  0  0  0  0
  -23.7084  -21.0256   20.7958 C   0  0  0  0  0  0  0  0  0  0  0  0
  -27.4589  -15.4378   20.0481 C   0  0  0  0  0  0  0  0  0  0  0  0
  -24.7881  -29.3318   20.3830 C   0  0  0  0  0  0  0  0  0  0  0  0
  -29.8391  -15.6769   19.6156 C   0  0  0  0  0  0  0  0  0  0  0  0
  -22.6840  -29.5923   21.3966 C   0  0  0  0  0  0  0  0  0  0  0  0
  -20.6906  -28.5867   23.0692 C   0  0  0  0  0  0  0  0  0  0  0  0
  -22.3047  -30.3032   22.5352 C   0  0  0  0  0  0  0  0  0  0  0  0
  -28.2548  -26.9734   19.8196 C   0  0  0  0  0  0  0  0  0  0  0  0
  -30.3287  -26.2731   19.6111 C   0  0  0  0  0  0  0  0  0  0  0  0
  -30.6192  -19.0458   22.7178 C   0  0  0  0  0  0  0  0  0  0  0  0
  -32.6960  -18.8856   22.5821 C   0  0  0  0  0  0  0  0  0  0  0  0
  -30.1240  -28.7237   20.0596 C   0  0  0  0  0  0  0  0  0  0  0  0
  -24.8944  -17.5271   20.8767 C   0  0  0  0  0  0  0  0  0  0  0  0
  -29.1109  -20.4540   20.4872 C   0  0  0  0  0  0  0  0  0  0  0  0
  -23.8590  -14.4529   20.8844 C   0  0  0  0  0  0  0  0  0  0  0  0
  -24.6038  -11.1440   20.5064 C   0  0  0  0  0  0  0  0  0  0  0  0
  -21.3592  -21.0972   21.7792 C   0  0  0  0  0  0  0  0  0  0  0  0
  -25.7676  -16.6964   18.6624 C   0  0  0  0  0  0  0  0  0  0  0  0
  -26.3575  -14.8021   20.8552 C   0  0  0  0  0  0  0  0  0  0  0  0
  -21.6014  -19.6606   22.2353 C   0  0  0  0  0  0  0  0  0  0  0  0
  -30.0917  -22.0331   17.4238 C   0  0  0  0  0  0  0  0  0  0  0  0
  -23.0434  -19.4841   22.7004 C   0  0  0  0  0  0  0  0  0  0  0  0
  -29.8266  -23.5155   17.6832 C   0  0  0  0  0  0  0  0  0  0  0  0
  -29.0566  -21.1514   18.1155 C   0  0  0  0  0  0  0  0  0  0  0  0
  -28.6711  -22.8764   19.8468 C   0  0  0  0  0  0  0  0  0  0  0  0
  -24.0290  -19.7581   21.5580 C   0  0  1  0  0  0  0  0  0  0  0  0
  -24.7917  -16.4708   19.8130 C   0  0  1  0  0  0  0  0  0  0  0  0
  -29.7120  -23.8010   19.1911 C   0  0  2  0  0  0  0  0  0  0  0  0
  -34.1530  -19.1044   22.5430 C   0  0  0  0  0  0  0  0  0  0  0  0
  -23.5582   -8.8651   20.6101 C   0  0  0  0  0  0  0  0  0  0  0  0
  -28.0572  -18.6725   22.7803 C   0  0  0  0  0  0  0  0  0  0  0  0
  -23.8770  -14.5860   23.9327 C   0  0  0  0  0  0  0  0  0  0  0  0
  -23.7617  -12.0854   23.9731 C   0  0  0  0  0  0  0  0  0  0  0  0
  -21.9049  -13.4015   22.9519 C   0  0  0  0  0  0  0  0  0  0  0  0
  -25.2336  -10.5985   17.6665 C   0  0  0  0  0  0  0  0  0  0  0  0
  -29.0043  -20.8586   21.9360 C   0  0  0  0  0  0  0  0  0  0  0  0
  -33.2498  -16.1732   20.6700 C   0  0  0  0  0  0  0  0  0  0  0  0
  -32.7950  -16.3465   22.1208 C   0  0  0  0  0  0  0  0  0  0  0  0
  -32.1218  -16.3428   19.6590 C   0  0  0  0  0  0  0  0  0  1  0  0
  -24.1197  -13.2392   21.7434 C   0  0  1  0  0  0  0  0  0  0  0  0
  -23.9209  -10.0416   19.7172 C   0  0  2  0  0  0  0  0  0  0  0  0
  -29.2895  -19.6420   22.8917 C   0  0  2  0  0  0  0  0  0  0  0  0
  -23.4369  -13.3413   23.1365 C   0  0  0  0  0  0  0  0  0  0  0  0
  -28.1437  -25.6626   19.5883 N   0  0  0  0  0  0  0  0  0  0  0  0
  -31.7642  -19.7861   22.7927 N   0  0  0  0  0  0  0  0  0  0  0  0
  -30.7840  -17.7438   22.4743 N   0  0  0  0  0  0  0  0  0  0  0  0
  -29.4216  -25.2650   19.4658 N   0  0  0  0  0  0  0  0  0  0  0  0
  -32.1210  -17.6679   22.3918 N   0  0  0  0  0  0  0  0  0  0  0  0
  -24.9862  -15.1788   20.4741 N   0  0  0  0  0  0  0  0  0  0  0  0
  -28.9619  -21.4687   19.5416 N   0  0  0  0  0  0  0  0  0  0  0  0
  -31.6565  -26.0479   19.5180 N   0  0  0  0  0  0  0  0  0  0  0  0
  -29.2279  -29.7775   20.2848 N   0  0  0  0  0  0  0  0  0  0  0  0
  -24.0865  -18.6265   20.6577 N   0  0  0  0  0  0  0  0  0  0  0  0
  -23.7013  -12.0844   20.9561 N   0  0  0  0  0  0  0  0  0  0  0  0
  -29.0937  -20.2422   24.3002 N   0  3  0  0  0  0  0  0  0  0  0  0
  -24.8168   -9.5497   18.6326 N   0  3  0  0  0  0  0  0  0  0  0  0
  -31.3557  -28.9596   20.0361 O   0  0  0  0  0  0  0  0  0  0  0  0
  -25.6496  -17.3565   21.8266 O   0  0  0  0  0  0  0  0  0  0  0  0
  -29.3232  -19.2715   20.2065 O   0  0  0  0  0  0  0  0  0  0  0  0
  -22.6985  -14.7422   20.5825 O   0  0  0  0  0  0  0  0  0  0  0  0
  -25.8161  -11.1665   20.7072 O   0  0  0  0  0  0  0  0  0  0  0  0
  -23.6728  -30.0905   20.5649 O   0  0  0  0  0  0  0  0  0  0  0  0
  -31.1268  -15.3517   19.9121 O   0  0  0  0  0  0  0  0  0  1  0  0
  -19.7324  -28.1044   23.8714 F   0  0  0  0  0  0  0  0  0  0  0  0
  -22.8934  -31.4703   22.8302 F   0  0  0  0  0  0  0  0  0  0  0  0
  1  2  1  0  0  0  0
  1  5  2  0  0  0  0
  2  6  2  0  0  0  0
  3  8  2  0  0  0  0
  3 15  1  0  0  0  0
  4  9  1  0  0  0  0
  4 15  2  0  0  0  0
  5 17  1  0  0  0  0
  6 19  1  0  0  0  0
  7 10  2  0  0  0  0
  7 18  1  0  0  0  0
  8 21  1  0  0  0  0
  9 21  2  0  0  0  0
 10 22  1  0  0  0  0
 11 12  2  0  0  0  0
 11 23  1  0  0  0  0
 12 24  1  0  0  0  0
 13 20  1  0  0  0  0
 13 22  2  0  0  0  0
 14 24  2  0  0  0  0
 14 25  1  0  0  0  0
 15 26  1  0  0  0  0
 16 26  1  0  0  0  0
 16 27  2  0  0  0  0
 16 30  1  0  0  0  0
 17 19  2  0  0  0  0
 17 35  1  0  0  0  0
 18 20  2  0  0  0  0
 18 36  1  0  0  0  0
 19 44  1  0  0  0  0
 20 37  1  0  0  0  0
 21 80  1  0  0  0  0
 22 81  1  0  0  0  0
 23 25  2  0  0  0  0
 23 80  1  0  0  0  0
 24 82  1  0  0  0  0
 25 83  1  0  0  0  0
 26 62  2  0  0  0  0
 27 65  1  0  0  0  0
 27 69  1  0  0  0  0
 28 60  1  0  0  0  0
 28 63  1  0  0  0  0
 28 64  2  0  0  0  0
 29 47  1  0  0  0  0
 29 63  2  0  0  0  0
 29 66  1  0  0  0  0
 30 70  1  0  0  0  0
 30 75  2  0  0  0  0
 31 45  1  0  0  0  0
 31 71  1  0  0  0  0
 31 76  2  0  0  0  0
 32 54  1  0  0  0  0
 32 68  1  0  0  0  0
 32 77  2  0  0  0  0
 33 58  1  0  0  0  0
 33 67  1  0  0  0  0
 33 78  2  0  0  0  0
 34 59  1  0  0  0  0
 34 72  1  0  0  0  0
 34 79  2  0  0  0  0
 35 38  1  0  0  0  0
 36 45  1  0  0  0  0
 37 67  1  0  0  0  0
 38 40  1  0  0  0  0
 39 41  1  0  0  0  0
 39 42  1  0  0  0  0
 40 44  1  0  0  0  0
 41 46  1  0  0  0  0
 42 68  1  0  0  0  0
 43 46  1  0  0  0  0
 43 68  1  0  0  0  0
 44 71  1  0  0  0  0
 45 67  1  0  0  0  0
 46 65  1  0  0  0  0
 48 59  1  0  0  0  0
 49 60  1  0  0  0  0
 50 61  1  0  0  0  0
 51 61  1  0  0  0  0
 52 61  1  0  0  0  0
 53 74  1  0  0  0  0
 54 60  1  0  0  0  0
 55 56  1  0  0  0  0
 55 57  1  0  0  0  0
 56 66  1  0  0  0  0
 57 81  1  0  0  0  0
 58 61  1  0  0  0  0
 58 72  1  0  0  0  0
 59 74  1  0  0  0  0
 60 73  1  0  0  0  0
 62 65  1  0  0  0  0
 64 66  1  0  0  0  0
M  CHG  2  73   1  74   1
M  ISO  4  32 100  54 100  57 101  81 101
M  END
> <Batch ID>
0064

> <Smiles>
CNC(C)C(=O)NC(C(=O)N1Cc2cc([101O:1][101CH2:1]CCn3nc(C(C)(N)[100CH2:0][100C:0](=O)N4CCCC(n5nc(-c6ccc(Oc7ccc(F)cc7F)cc6)c(C(N)=O)c5N)C4)nc3C)ccc2CC1C(=O)NC1CCCc2ccccc21)C(C)(C)C

> <Shape>
0.252

> <Color>
0.070

> <Negative vol penalty>
0.000

$$$$

  -OEChem-04052318052D

  0  0  0     0  0  0  0  0  0999 V2000
M  END
$$$$

  -OEChem-04052318052D

  0  0  0     0  0  0  0  0  0999 V2000
M  END
$$$$

  -OEChem-04052318053D

 83 91  0     1  0  0  0  0  0999 V2000
  -27.5350  -33.9001   26.0852 C   0  0  0  0  0  0  0  0  0  0  0  0
  -27.7757  -32.6837   25.4544 C   0  0  0  0  0  0  0  0  0  0  0  0
  -25.1518  -14.8994   21.0115 C   0  0  0  0  0  0  0  0  0  0  0  0
  -27.5261  -14.4547   21.0544 C   0  0  0  0  0  0  0  0  0  0  0  0
  -26.2286  -34.2784   26.3922 C   0  0  0  0  0  0  0  0  0  0  0  0
  -26.7101  -31.8443   25.1312 C   0  0  0  0  0  0  0  0  0  0  0  0
  -27.0854  -29.9417   20.4532 C   0  0  0  0  0  0  0  0  0  0  0  0
  -24.9058  -13.5579   20.7191 C   0  0  0  0  0  0  0  0  0  0  0  0
  -27.2801  -13.1131   20.7621 C   0  0  0  0  0  0  0  0  0  0  0  0
  -27.9691  -28.8796   20.2668 C   0  0  0  0  0  0  0  0  0  0  0  0
  -24.7819  -10.6250   22.3971 C   0  0  0  0  0  0  0  0  0  0  0  0
  -23.7621   -9.9846   23.1010 C   0  0  0  0  0  0  0  0  0  0  0  0
  -26.1190  -27.3338   20.3483 C   0  0  0  0  0  0  0  0  0  0  0  0
  -22.6116   -9.5345   21.0247 C   0  0  0  0  0  0  0  0  0  0  0  0
  -30.9992  -25.2608   18.4383 C   0  0  0  0  0  0  0  0  0  0  0  0
  -26.4620  -15.3478   21.1790 C   0  0  0  0  0  0  0  0  0  0  0  0
  -26.8045  -17.3240   22.7554 C   0  0  0  0  0  0  0  0  0  0  0  0
  -25.1457  -33.4476   26.0639 C   0  0  0  0  0  0  0  0  0  0  0  0
  -25.7107  -29.7065   20.5997 C   0  0  0  0  0  0  0  0  0  0  0  0
  -25.3881  -32.2113   25.4354 C   0  0  0  0  0  0  0  0  0  0  0  0
  -25.2196  -28.3948   20.5338 C   0  0  0  0  0  0  0  0  0  0  0  0
  -30.5067  -25.5900   19.6846 C   0  0  0  0  0  0  0  0  0  0  0  0
  -25.9699  -12.6648   20.5945 C   0  0  0  0  0  0  0  0  0  0  0  0
  -27.4863  -27.5751   20.2172 C   0  0  0  0  0  0  0  0  0  0  0  0
  -24.7166  -10.7202   21.0070 C   0  0  0  0  0  0  0  0  0  0  0  0
  -22.6770   -9.4393   22.4149 C   0  0  0  0  0  0  0  0  0  0  0  0
  -23.6314  -10.1749   20.3208 C   0  0  0  0  0  0  0  0  0  0  0  0
  -26.7168  -16.7336   21.4805 C   0  0  0  0  0  0  0  0  0  0  0  0
  -30.7758  -24.6851   20.6911 C   0  0  0  0  0  0  0  0  0  0  0  0
  -27.0583  -18.6501   22.5029 C   0  0  0  0  0  0  0  0  0  0  0  0
  -31.8983  -23.3358   19.2466 C   0  0  0  0  0  0  0  0  0  0  0  0
  -26.6688  -16.7272   24.0520 C   0  0  0  0  0  0  0  0  0  0  0  0
  -23.5799  -30.2205   22.9016 C   0  0  0  0  0  0  0  0  0  0  0  0
  -21.4809  -29.1928   20.6520 C   0  0  0  0  0  0  0  0  0  0  0  0
  -20.9353  -27.3849   17.8094 C   0  0  0  0  0  0  0  0  0  0  0  0
  -29.5610  -21.5140   17.8785 C   0  0  0  0  0  0  0  0  0  0  0  0
  -23.7551  -33.8778   26.4584 C   0  0  0  0  0  0  0  0  0  0  0  0
  -24.7675  -30.8652   20.7733 C   0  0  0  0  0  0  0  0  0  0  0  0
  -23.7504  -28.0906   20.6653 C   0  0  0  0  0  0  0  0  0  0  0  0
  -22.6517  -33.1007   25.7450 C   0  0  0  0  0  0  0  0  0  0  0  0
  -26.3060  -22.0473   19.2191 C   0  0  0  0  0  0  0  0  0  0  0  0
  -22.9466  -31.6044   25.7767 C   0  0  0  0  0  0  0  0  0  0  0  0
  -26.0501  -20.7992   20.0657 C   0  0  0  0  0  0  0  0  0  0  0  0
  -27.0934  -21.7185   17.9526 C   0  0  0  0  0  0  0  0  0  0  0  0
  -28.0993  -19.7413   19.0263 C   0  0  0  0  0  0  0  0  0  0  0  0
  -24.2566  -31.2847   25.0464 C   0  0  1  0  0  0  0  0  0  0  0  0
  -23.4468  -30.4681   21.4256 C   0  0  1  0  0  0  0  0  0  0  0  0
  -27.3568  -20.0314   20.3419 C   0  0  2  0  0  0  0  0  0  0  0  0
  -30.2925  -24.9368   22.0813 C   0  0  0  0  0  0  0  0  0  0  0  0
  -19.1090  -26.7004   16.2303 C   0  0  0  0  0  0  0  0  0  0  0  0
  -32.8858  -21.1690   20.2596 C   0  0  0  0  0  0  0  0  0  0  0  0
  -34.1156  -22.4226   18.5069 C   0  0  0  0  0  0  0  0  0  0  0  0
  -20.4816  -27.1576   22.6939 C   0  0  0  0  0  0  0  0  0  0  0  0
  -19.3793  -25.9201   20.8172 C   0  0  0  0  0  0  0  0  0  0  0  0
  -18.6819  -28.2555   21.3484 C   0  0  0  0  0  0  0  0  0  0  0  0
  -22.2483  -28.7306   15.5238 C   0  0  0  0  0  0  0  0  0  0  0  0
  -29.7314  -26.8557   19.9041 C   0  0  0  0  0  0  0  0  0  1  0  0
  -32.0197  -21.1767   17.8991 C   0  0  0  0  0  0  0  0  0  0  0  0
  -20.9209  -27.8510   20.2460 C   0  0  1  0  0  0  0  0  0  0  0  0
  -20.1954  -27.7222   16.5275 C   0  0  2  0  0  0  0  0  0  0  0  0
  -32.6718  -22.0841   19.0036 C   0  0  0  0  0  0  0  0  0  0  0  0
  -19.8939  -27.3013   21.2758 C   0  0  0  0  0  0  0  0  0  0  0  0
  -31.7018  -24.1376   18.1827 N   0  0  0  0  0  0  0  0  0  0  0  0
  -26.8998  -17.6125   20.4915 N   0  0  0  0  0  0  0  0  0  0  0  0
  -31.4711  -23.5436   20.5067 N   0  0  0  0  0  0  0  0  0  0  0  0
  -27.1050  -18.7687   21.1450 N   0  0  0  0  0  0  0  0  0  0  0  0
  -22.8689  -29.2568   20.8398 N   0  0  0  0  0  0  0  0  0  0  0  0
  -28.3216  -20.9921   18.2841 N   0  0  0  0  0  0  0  0  0  0  0  0
  -27.2438  -19.7145   23.3122 N   0  0  0  0  0  0  0  0  0  0  0  0
  -26.4091  -15.3522   24.1307 N   0  0  0  0  0  0  0  0  0  0  0  0
  -24.0546  -31.3055   23.6135 N   0  0  0  0  0  0  0  0  0  0  0  0
  -20.3841  -28.0230   18.9003 N   0  0  0  0  0  0  0  0  0  0  0  0
  -30.6754  -20.7664   18.2389 N   0  0  0  0  0  0  0  0  0  0  0  0
  -21.1409  -27.7514   15.3760 N   0  3  0  0  0  0  0  0  0  0  0  0
  -26.7584  -17.3966   25.1091 O   0  0  0  0  0  0  0  0  0  0  0  0
  -23.2730  -29.1265   23.3608 O   0  0  0  0  0  0  0  0  0  0  0  0
  -20.7160  -30.1506   20.7902 O   0  0  0  0  0  0  0  0  0  0  0  0
  -21.9030  -26.6278   17.8404 O   0  0  0  0  0  0  0  0  0  0  0  0
  -29.6670  -22.5708   17.2469 O   0  0  0  0  0  0  0  0  0  0  0  0
  -25.7302  -11.3556   20.3095 O   0  0  0  0  0  0  0  0  0  0  0  0
  -28.3468  -26.5366   20.0360 O   0  0  0  0  0  0  0  0  0  1  0  0
  -21.6985   -8.8230   23.0908 F   0  0  0  0  0  0  0  0  0  0  0  0
  -23.5637  -10.2623   18.9853 F   0  0  0  0  0  0  0  0  0  0  0  0
  1  2  1  0  0  0  0
  1  5  2  0  0  0  0
  2  6  2  0  0  0  0
  3  8  2  0  0  0  0
  3 16  1  0  0  0  0
  4  9  1  0  0  0  0
  4 16  2  0  0  0  0
  5 18  1  0  0  0  0
  6 20  1  0  0  0  0
  7 10  2  0  0  0  0
  7 19  1  0  0  0  0
  8 23  1  0  0  0  0
  9 23  2  0  0  0  0
 10 24  1  0  0  0  0
 11 12  2  0  0  0  0
 11 25  1  0  0  0  0
 12 26  1  0  0  0  0
 13 21  1  0  0  0  0
 13 24  2  0  0  0  0
 14 26  2  0  0  0  0
 14 27  1  0  0  0  0
 15 22  1  0  0  0  0
 15 63  2  0  0  0  0
 16 28  1  0  0  0  0
 17 28  1  0  0  0  0
 17 30  2  0  0  0  0
 17 32  1  0  0  0  0
 18 20  2  0  0  0  0
 18 37  1  0  0  0  0
 19 21  2  0  0  0  0
 19 38  1  0  0  0  0
 20 46  1  0  0  0  0
 21 39  1  0  0  0  0
 22 29  2  0  0  0  0
 22 57  1  0  0  0  0
 23 80  1  0  0  0  0
 24 81  1  0  0  0  0
 25 27  2  0  0  0  0
 25 80  1  0  0  0  0
 26 82  1  0  0  0  0
 27 83  1  0  0  0  0
 28 64  2  0  0  0  0
 29 49  1  0  0  0  0
 29 65  1  0  0  0  0
 30 66  1  0  0  0  0
 30 69  1  0  0  0  0
 31 61  1  0  0  0  0
 31 63  1  0  0  0  0
 31 65  2  0  0  0  0
 32 70  1  0  0  0  0
 32 75  2  0  0  0  0
 33 47  1  0  0  0  0
 33 71  1  0  0  0  0
 33 76  2  0  0  0  0
 34 59  1  0  0  0  0
 34 67  1  0  0  0  0
 34 77  2  0  0  0  0
 35 60  1  0  0  0  0
 35 72  1  0  0  0  0
 35 78  2  0  0  0  0
 36 68  1  0  0  0  0
 36 73  1  0  0  0  0
 36 79  2  0  0  0  0
 37 40  1  0  0  0  0
 38 47  1  0  0  0  0
 39 67  1  0  0  0  0
 40 42  1  0  0  0  0
 41 43  1  0  0  0  0
 41 44  1  0  0  0  0
 42 46  1  0  0  0  0
 43 48  1  0  0  0  0
 44 68  1  0  0  0  0
 45 48  1  0  0  0  0
 45 68  1  0  0  0  0
 46 71  1  0  0  0  0
 47 67  1  0  0  0  0
 48 66  1  0  0  0  0
 50 60  1  0  0  0  0
 51 61  1  0  0  0  0
 52 61  1  0  0  0  0
 53 62  1  0  0  0  0
 54 62  1  0  0  0  0
 55 62  1  0  0  0  0
 56 74  1  0  0  0  0
 57 81  1  0  0  0  0
 58 61  1  0  0  0  0
 58 73  1  0  0  0  0
 59 62  1  0  0  0  0
 59 72  1  0  0  0  0
 60 74  1  0  0  0  0
 64 66  1  0  0  0  0
M  CHG  1  74   1
M  ISO  4  36 100  57 101  73 100  81 101
M  END
> <Batch ID>
0064

> <Smiles>
CNC(C)C(=O)NC(C(=O)N1Cc2cc([101O:1][101CH2:1]c3cnc(C(C)(C)C[100NH:0][100C:0](=O)N4CCCC(n5nc(-c6ccc(Oc7ccc(F)cc7F)cc6)c(C(N)=O)c5N)C4)nc3C)ccc2CC1C(=O)NC1CCCc2ccccc21)C(C)(C)C

> <Shape>
0.273

> <Color>
0.079

> <Negative vol penalty>
0.000

$$$$

  -OEChem-04052318052D

  0  0  0     0  0  0  0  0  0999 V2000
M  END
$$$$

  -OEChem-04052318053D

 86 94  0     1  0  0  0  0  0999 V2000
  -25.8445  -29.5962   30.5115 C   0  0  0  0  0  0  0  0  0  0  0  0
  -25.2252  -28.6197   29.7379 C   0  0  0  0  0  0  0  0  0  0  0  0
  -23.1101   -9.9542   21.4820 C   0  0  0  0  0  0  0  0  0  0  0  0
  -24.0096  -10.8270   23.5475 C   0  0  0  0  0  0  0  0  0  0  0  0
  -26.6532  -30.5559   29.9042 C   0  0  0  0  0  0  0  0  0  0  0  0
  -25.4134  -28.6031   28.3563 C   0  0  0  0  0  0  0  0  0  0  0  0
  -25.7283  -23.6688   24.7427 C   0  0  0  0  0  0  0  0  0  0  0  0
  -22.4209   -8.9741   22.1962 C   0  0  0  0  0  0  0  0  0  0  0  0
  -23.3204   -9.8469   24.2618 C   0  0  0  0  0  0  0  0  0  0  0  0
  -24.7868  -23.0407   23.9286 C   0  0  0  0  0  0  0  0  0  0  0  0
  -23.1175   -6.0117   23.6671 C   0  0  0  0  0  0  0  0  0  0  0  0
  -23.1596   -4.7055   23.1796 C   0  0  0  0  0  0  0  0  0  0  0  0
  -25.6256  -24.2631   22.0256 C   0  0  0  0  0  0  0  0  0  0  0  0
  -25.0936  -19.5994   20.6716 C   0  0  0  0  0  0  0  0  0  0  0  0
  -20.7537   -4.7107   22.9579 C   0  0  0  0  0  0  0  0  0  0  0  0
  -22.8108  -19.2734   21.2111 C   0  0  0  0  0  0  0  0  0  0  0  0
  -23.9045  -10.8806   22.1576 C   0  0  0  0  0  0  0  0  0  0  0  0
  -24.1562  -13.1782   21.0782 C   0  0  0  0  0  0  0  0  0  0  0  0
  -26.8591  -30.5453   28.5156 C   0  0  0  0  0  0  0  0  0  0  0  0
  -26.6199  -24.6084   24.2055 C   0  0  0  0  0  0  0  0  0  0  0  0
  -26.2245  -29.5645   27.7297 C   0  0  0  0  0  0  0  0  0  0  0  0
  -26.5793  -24.8997   22.8345 C   0  0  0  0  0  0  0  0  0  0  0  0
  -23.7813  -20.0298   20.5853 C   0  0  0  0  0  0  0  0  0  0  0  0
  -22.5260   -8.9205   23.5861 C   0  0  0  0  0  0  0  0  0  0  0  0
  -24.7334  -23.3399   22.5704 C   0  0  0  0  0  0  0  0  0  0  0  0
  -21.8935   -6.6674   23.8000 C   0  0  0  0  0  0  0  0  0  0  0  0
  -21.9777   -4.0550   22.8250 C   0  0  0  0  0  0  0  0  0  0  0  0
  -20.7116   -6.0169   23.4454 C   0  0  0  0  0  0  0  0  0  0  0  0
  -24.6172  -11.8928   21.4203 C   0  0  0  0  0  0  0  0  0  0  0  0
  -25.3487  -18.4414   21.3783 C   0  0  0  0  0  0  0  0  0  0  0  0
  -25.1989  -13.7439   20.3860 C   0  0  0  0  0  0  0  0  0  0  0  0
  -22.8979  -13.8048   21.3608 C   0  0  0  0  0  0  0  0  0  0  0  0
  -27.1780  -27.7007   24.6851 C   0  0  0  0  0  0  0  0  0  0  0  0
  -29.6522  -27.1698   22.6556 C   0  0  0  0  0  0  0  0  0  0  0  0
  -30.9904  -25.2761   20.1517 C   0  0  0  0  0  0  0  0  0  0  0  0
  -30.8063  -14.6752   20.3015 C   0  0  0  0  0  0  0  0  0  0  0  0
  -27.7038  -31.6318   27.8987 C   0  0  0  0  0  0  0  0  0  0  0  0
  -27.6473  -25.2573   25.0920 C   0  0  0  0  0  0  0  0  0  0  0  0
  -27.5276  -25.8860   22.2049 C   0  0  0  0  0  0  0  0  0  0  0  0
  -28.1527  -31.3191   26.4736 C   0  0  0  0  0  0  0  0  0  0  0  0
  -29.4417  -11.7136   18.5499 C   0  0  0  0  0  0  0  0  0  0  0  0
  -26.9802  -30.8023   25.6459 C   0  0  0  0  0  0  0  0  0  0  0  0
  -28.0539  -11.5688   19.1719 C   0  0  0  0  0  0  0  0  0  0  0  0
  -30.4290  -12.3675   19.5118 C   0  0  0  0  0  0  0  0  0  0  0  0
  -28.5814  -13.5323   20.6709 C   0  0  0  0  0  0  0  0  0  0  0  0
  -26.4241  -29.4985   26.2311 C   0  0  1  0  0  0  0  0  0  0  0  0
  -28.1670  -26.5794   24.5358 C   0  0  1  0  0  0  0  0  0  0  0  0
  -27.5507  -12.9192   19.7110 C   0  0  2  0  0  0  0  0  0  0  0  0
  -33.0101  -25.1104   18.6715 C   0  0  0  0  0  0  0  0  0  0  0  0
  -21.9009  -21.6328   19.8279 C   0  0  0  0  0  0  0  0  0  0  0  0
  -23.8266  -21.1466   18.3336 C   0  0  0  0  0  0  0  0  0  0  0  0
  -28.6062  -29.4900   20.9726 C   0  0  0  0  0  0  0  0  0  0  0  0
  -30.0425  -28.6798   19.0888 C   0  0  0  0  0  0  0  0  0  0  0  0
  -31.0933  -29.4229   21.2257 C   0  0  0  0  0  0  0  0  0  0  0  0
  -31.1581  -16.9907   21.0724 C   0  0  0  0  0  0  0  0  0  0  0  0
  -31.6910  -22.6028   21.2109 C   0  0  0  0  0  0  0  0  0  0  0  0
  -28.3070  -16.4274   22.2111 C   0  0  0  0  0  0  0  0  0  0  0  0
  -28.8410  -16.1873   20.8054 C   0  0  0  0  0  0  0  0  0  0  0  0
  -26.8254  -16.7830   22.2297 C   0  0  0  0  0  0  0  0  0  0  0  0
  -24.1714  -22.5294   20.4064 C   0  0  0  0  0  0  0  0  0  1  0  0
  -29.8387  -27.2290   21.1587 C   0  0  1  0  0  0  0  0  0  0  0  0
  -32.3695  -24.6660   19.9772 C   0  0  2  0  0  0  0  0  0  0  0  0
  -23.4149  -21.3120   19.8146 C   0  0  0  0  0  0  0  0  0  0  0  0
  -29.8759  -28.6882   20.6234 C   0  0  0  0  0  0  0  0  0  0  0  0
  -23.0892  -18.1439   21.8960 N   0  0  0  0  0  0  0  0  0  0  0  0
  -25.8562  -11.6556   20.9815 N   0  0  0  0  0  0  0  0  0  0  0  0
  -24.3791  -17.7212   21.9811 N   0  0  0  0  0  0  0  0  0  0  0  0
  -26.1826  -12.7997   20.3565 N   0  0  0  0  0  0  0  0  0  0  0  0
  -28.5098  -26.4988   23.1144 N   0  0  0  0  0  0  0  0  0  0  0  0
  -29.9074  -13.6275   20.0423 N   0  0  0  0  0  0  0  0  0  0  0  0
  -25.3611  -14.9520   19.8057 N   0  0  0  0  0  0  0  0  0  0  0  0
  -21.9388  -13.0818   22.0831 N   0  0  0  0  0  0  0  0  0  0  0  0
  -27.2779  -28.3833   25.8824 N   0  0  0  0  0  0  0  0  0  0  0  0
  -31.0399  -26.4544   20.8661 N   0  0  0  0  0  0  0  0  0  0  0  0
  -30.2678  -15.8716   20.7989 N   0  0  0  0  0  0  0  0  0  0  0  0
  -32.2812  -23.1783   19.9750 N   0  3  0  0  0  0  0  0  0  0  0  0
  -22.6259  -14.9652   20.9698 O   0  0  0  0  0  0  0  0  0  0  0  0
  -26.3841  -27.9305   23.7804 O   0  0  0  0  0  0  0  0  0  0  0  0
  -30.4930  -27.6932   23.3910 O   0  0  0  0  0  0  0  0  0  0  0  0
  -29.9717  -24.7609   19.6963 O   0  0  0  0  0  0  0  0  0  0  0  0
  -32.0197  -14.5517   20.0909 O   0  0  0  0  0  0  0  0  0  0  0  0
  -21.8534   -7.9645   24.2834 O   0  0  0  0  0  0  0  0  0  0  0  0
  -23.8149  -22.7288   21.7737 O   0  0  0  0  0  0  0  0  0  1  0  0
  -26.6326  -17.9825   21.4874 O   0  0  0  0  0  0  0  0  0  0  0  0
  -22.0184   -2.8012   22.3555 F   0  0  0  0  0  0  0  0  0  0  0  0
  -19.5329   -6.6421   23.5699 F   0  0  0  0  0  0  0  0  0  0  0  0
  1  2  1  0  0  0  0
  1  5  2  0  0  0  0
  2  6  2  0  0  0  0
  3  8  2  0  0  0  0
  3 17  1  0  0  0  0
  4  9  1  0  0  0  0
  4 17  2  0  0  0  0
  5 19  1  0  0  0  0
  6 21  1  0  0  0  0
  7 10  2  0  0  0  0
  7 20  1  0  0  0  0
  8 24  1  0  0  0  0
  9 24  2  0  0  0  0
 10 25  1  0  0  0  0
 11 12  2  0  0  0  0
 11 26  1  0  0  0  0
 12 27  1  0  0  0  0
 13 22  1  0  0  0  0
 13 25  2  0  0  0  0
 14 23  2  0  0  0  0
 14 30  1  0  0  0  0
 15 27  2  0  0  0  0
 15 28  1  0  0  0  0
 16 23  1  0  0  0  0
 16 65  2  0  0  0  0
 17 29  1  0  0  0  0
 18 29  1  0  0  0  0
 18 31  2  0  0  0  0
 18 32  1  0  0  0  0
 19 21  2  0  0  0  0
 19 37  1  0  0  0  0
 20 22  2  0  0  0  0
 20 38  1  0  0  0  0
 21 46  1  0  0  0  0
 22 39  1  0  0  0  0
 23 63  1  0  0  0  0
 24 82  1  0  0  0  0
 25 83  1  0  0  0  0
 26 28  2  0  0  0  0
 26 82  1  0  0  0  0
 27 85  1  0  0  0  0
 28 86  1  0  0  0  0
 29 66  2  0  0  0  0
 30 67  2  0  0  0  0
 30 84  1  0  0  0  0
 31 68  1  0  0  0  0
 31 71  1  0  0  0  0
 32 72  1  0  0  0  0
 32 77  2  0  0  0  0
 33 47  1  0  0  0  0
 33 73  1  0  0  0  0
 33 78  2  0  0  0  0
 34 61  1  0  0  0  0
 34 69  1  0  0  0  0
 34 79  2  0  0  0  0
 35 62  1  0  0  0  0
 35 74  1  0  0  0  0
 35 80  2  0  0  0  0
 36 70  1  0  0  0  0
 36 75  1  0  0  0  0
 36 81  2  0  0  0  0
 37 40  1  0  0  0  0
 38 47  1  0  0  0  0
 39 69  1  0  0  0  0
 40 42  1  0  0  0  0
 41 43  1  0  0  0  0
 41 44  1  0  0  0  0
 42 46  1  0  0  0  0
 43 48  1  0  0  0  0
 44 70  1  0  0  0  0
 45 48  1  0  0  0  0
 45 70  1  0  0  0  0
 46 73  1  0  0  0  0
 47 69  1  0  0  0  0
 48 68  1  0  0  0  0
 49 62  1  0  0  0  0
 50 63  1  0  0  0  0
 51 63  1  0  0  0  0
 52 64  1  0  0  0  0
 53 64  1  0  0  0  0
 54 64  1  0  0  0  0
 55 75  1  0  0  0  0
 56 76  1  0  0  0  0
 57 58  1  0  0  0  0
 57 59  1  0  0  0  0
 58 75  1  0  0  0  0
 59 84  1  0  0  0  0
 60 63  1  0  0  0  0
 60 83  1  0  0  0  0
 61 64  1  0  0  0  0
 61 74  1  0  0  0  0
 62 76  1  0  0  0  0
 65 67  1  0  0  0  0
 66 68  1  0  0  0  0
M  CHG  1  76   1
M  ISO  4  36 100  60 101  75 100  83 101
M  END
> <Batch ID>
0064

> <Smiles>
CNC(C)C(=O)NC(C(=O)N1Cc2cc([101O:1][101CH2:1]C(C)(C)c3cnnc(OCCC[100N:0](C)[100C:0](=O)N4CCCC(n5nc(-c6ccc(Oc7ccc(F)cc7F)cc6)c(C(N)=O)c5N)C4)c3)ccc2CC1C(=O)NC1CCCc2ccccc21)C(C)(C)C

> <Shape>
0.212

> <Color>
0.159

> <Negative vol penalty>
0.000

$$$$

  -OEChem-04052318053D

 92100  0     1  0  0  0  0  0999 V2000
  -31.4910  -19.3165   21.6662 C   0  0  0  0  0  0  0  0  0  0  0  0
  -30.1743  -19.7353   21.5042 C   0  0  0  0  0  0  0  0  0  0  0  0
  -21.9859  -30.5022   22.0135 C   0  0  0  0  0  0  0  0  0  0  0  0
  -23.2872  -29.2037   23.5812 C   0  0  0  0  0  0  0  0  0  0  0  0
  -31.8479  -18.0055   21.3536 C   0  0  0  0  0  0  0  0  0  0  0  0
  -29.2137  -18.8434   21.0285 C   0  0  0  0  0  0  0  0  0  0  0  0
  -24.8914  -19.0583   23.6585 C   0  0  0  0  0  0  0  0  0  0  0  0
  -20.8531  -30.3263   22.8081 C   0  0  0  0  0  0  0  0  0  0  0  0
  -22.1544  -29.0278   24.3759 C   0  0  0  0  0  0  0  0  0  0  0  0
  -24.0310  -20.1204   23.3836 C   0  0  0  0  0  0  0  0  0  0  0  0
  -17.5367  -29.9155   24.2420 C   0  0  0  0  0  0  0  0  0  0  0  0
  -16.3427  -29.5760   23.6058 C   0  0  0  0  0  0  0  0  0  0  0  0
  -22.6877  -18.6671   22.0041 C   0  0  0  0  0  0  0  0  0  0  0  0
  -17.3709  -27.5642   22.7500 C   0  0  0  0  0  0  0  0  0  0  0  0
  -25.2613  -24.2983   18.9226 C   0  0  0  0  0  0  0  0  0  0  0  0
  -24.7725  -25.1522   21.4044 C   0  0  0  0  0  0  0  0  0  0  0  0
  -23.2030  -29.9409   22.4001 C   0  0  0  0  0  0  0  0  0  0  0  0
  -25.3159  -31.1642   21.6608 C   0  0  0  0  0  0  0  0  0  0  0  0
  -30.8892  -17.0943   20.8830 C   0  0  0  0  0  0  0  0  0  0  0  0
  -24.6622  -17.7933   23.0985 C   0  0  0  0  0  0  0  0  0  0  0  0
  -29.5583  -17.5192   20.7081 C   0  0  0  0  0  0  0  0  0  0  0  0
  -23.5453  -17.5901   22.2755 C   0  0  0  0  0  0  0  0  0  0  0  0
  -20.9373  -29.5891   23.9893 C   0  0  0  0  0  0  0  0  0  0  0  0
  -22.9306  -19.9256   22.5540 C   0  0  0  0  0  0  0  0  0  0  0  0
  -18.6478  -29.0794   24.1322 C   0  0  0  0  0  0  0  0  0  0  0  0
  -16.2598  -28.4003   22.8598 C   0  0  0  0  0  0  0  0  0  0  0  0
  -18.5649  -27.9037   23.3862 C   0  0  0  0  0  0  0  0  0  0  0  0
  -24.3734  -30.1217   21.5794 C   0  0  0  0  0  0  0  0  0  0  0  0
  -26.2729  -24.7920   19.7167 C   0  0  0  0  0  0  0  0  0  0  0  0
  -23.7607  -24.6593   20.6102 C   0  0  0  0  0  0  0  0  0  0  0  0
  -26.2266  -30.8818   20.6722 C   0  0  0  0  0  0  0  0  0  0  0  0
  -25.3640  -32.2875   22.5506 C   0  0  0  0  0  0  0  0  0  0  0  0
  -26.2674  -15.8909   21.1216 C   0  0  0  0  0  0  0  0  0  0  0  0
  -23.8772  -13.8084   21.8091 C   0  0  0  0  0  0  0  0  0  0  0  0
  -27.7576  -25.7325   17.9791 C   0  0  0  0  0  0  0  0  0  0  0  0
  -20.6640  -13.3285   22.8538 C   0  0  0  0  0  0  0  0  0  0  0  0
  -31.3321  -15.7008   20.5134 C   0  0  0  0  0  0  0  0  0  0  0  0
  -25.5847  -16.6514   23.4263 C   0  0  0  0  0  0  0  0  0  0  0  0
  -23.2435  -16.2463   21.6658 C   0  0  0  0  0  0  0  0  0  0  0  0
  -30.1775  -14.7126   20.3703 C   0  0  0  0  0  0  0  0  0  0  0  0
  -26.6034  -28.7438   16.4171 C   0  0  0  0  0  0  0  0  0  0  0  0
  -29.0526  -15.3225   19.5400 C   0  0  0  0  0  0  0  0  0  0  0  0
  -25.9612  -29.5206   17.5658 C   0  0  0  0  0  0  0  0  0  0  0  0
  -26.3932  -27.2409   16.5730 C   0  0  0  0  0  0  0  0  0  0  0  0
  -26.2248  -27.4690   19.0309 C   0  0  0  0  0  0  0  0  0  0  0  0
  -28.4827  -16.5743   20.2181 C   0  0  1  0  0  0  0  0  0  0  0  0
  -25.5438  -15.5335   22.3890 C   0  0  1  0  0  0  0  0  0  0  0  0
  -26.4403  -28.9894   18.9283 C   0  0  2  0  0  0  0  0  0  0  0  0
  -18.9805  -11.5166   23.2787 C   0  0  0  0  0  0  0  0  0  0  0  0
  -21.3432  -25.4113   20.2975 C   0  0  0  0  0  0  0  0  0  0  0  0
  -23.4352  -13.5179   18.8041 C   0  0  0  0  0  0  0  0  0  0  0  0
  -21.2067  -12.4910   19.3017 C   0  0  0  0  0  0  0  0  0  0  0  0
  -23.2950  -11.3780   20.0909 C   0  0  0  0  0  0  0  0  0  0  0  0
  -20.4468  -14.0417   25.7180 C   0  0  0  0  0  0  0  0  0  0  0  0
  -22.6530  -22.2717   22.2808 C   0  0  0  0  0  0  0  0  0  1  0  0
  -22.5214  -13.5044   21.2189 C   0  0  1  0  0  0  0  0  0  0  0  0
  -20.0703  -12.3865   23.8857 C   0  0  2  0  0  0  0  0  0  0  0  0
  -27.6697  -24.8602   19.2061 C   0  0  0  0  0  0  0  0  0  0  0  0
  -22.3315  -24.5890   21.1329 C   0  0  1  0  0  0  0  0  0  0  0  0
  -22.6211  -12.7487   19.8637 C   0  0  0  0  0  0  0  0  0  0  0  0
  -21.8575  -23.1349   21.3145 C   0  0  0  0  0  0  0  0  0  0  0  0
  -28.7254  -25.4821   20.1711 C   0  0  0  0  0  0  0  0  0  0  0  0
  -28.1907  -23.4554   18.7987 C   0  0  0  0  0  0  0  0  0  0  0  0
  -26.0468  -25.2275   20.9719 N   0  0  0  0  0  0  0  0  0  0  0  0
  -23.9870  -24.2234   19.3551 N   0  0  0  0  0  0  0  0  0  0  0  0
  -24.6588  -29.2427   20.6151 N   0  0  0  0  0  0  0  0  0  0  0  0
  -25.7910  -29.7322   20.0815 N   0  0  0  0  0  0  0  0  0  0  0  0
  -24.1785  -15.1628   22.0112 N   0  0  0  0  0  0  0  0  0  0  0  0
  -26.8401  -26.7793   17.8885 N   0  0  0  0  0  0  0  0  0  0  0  0
  -27.3495  -31.5071   20.2592 N   0  0  0  0  0  0  0  0  0  0  0  0
  -24.3489  -32.4262   23.5069 N   0  0  0  0  0  0  0  0  0  0  0  0
  -27.6009  -16.2036   21.3042 N   0  0  0  0  0  0  0  0  0  0  0  0
  -21.7790  -12.7871   22.2497 N   0  0  0  0  0  0  0  0  0  0  0  0
  -19.4800  -13.1601   25.0144 N   0  3  0  0  0  0  0  0  0  0  0  0
  -26.2710  -33.1517   22.4883 O   0  0  0  0  0  0  0  0  0  0  0  0
  -25.6611  -15.8822   20.0567 O   0  0  0  0  0  0  0  0  0  0  0  0
  -24.6380  -12.8782   22.0875 O   0  0  0  0  0  0  0  0  0  0  0  0
  -28.6186  -25.4908   17.1291 O   0  0  0  0  0  0  0  0  0  0  0  0
  -20.1842  -14.4325   22.6057 O   0  0  0  0  0  0  0  0  0  0  0  0
  -19.8322  -29.4175   24.7650 O   0  0  0  0  0  0  0  0  0  0  0  0
  -22.0895  -20.9606   22.2835 O   0  0  0  0  0  0  0  0  0  1  0  0
  -15.1127  -28.0736   22.2502 F   0  0  0  0  0  0  0  0  0  0  0  0
  -19.6286  -27.0959   23.2780 F   0  0  0  0  0  0  0  0  0  0  0  0
  -22.2642  -25.1483   22.3929 F   0  0  0  0  0  0  0  0  0  0  0  0
  -20.5551  -23.1441   21.7138 F   0  0  0  0  0  0  0  0  0  0  0  0
  -21.8682  -22.5285   20.0930 F   0  0  0  0  0  0  0  0  0  0  0  0
  -28.8331  -24.8006   21.3377 F   0  0  0  0  0  0  0  0  0  0  0  0
  -29.9530  -25.4909   19.6039 F   0  0  0  0  0  0  0  0  0  0  0  0
  -28.4110  -26.7563   20.4954 F   0  0  0  0  0  0  0  0  0  0  0  0
  -27.4490  -22.8782   17.8247 F   0  0  0  0  0  0  0  0  0  0  0  0
  -29.4607  -23.5352   18.3384 F   0  0  0  0  0  0  0  0  0  0  0  0
  -28.1965  -22.6046   19.8490 F   0  0  0  0  0  0  0  0  0  0  0  0
  1  2  1  0  0  0  0
  1  5  2  0  0  0  0
  2  6  2  0  0  0  0
  3  8  2  0  0  0  0
  3 17  1  0  0  0  0
  4  9  1  0  0  0  0
  4 17  2  0  0  0  0
  5 19  1  0  0  0  0
  6 21  1  0  0  0  0
  7 10  2  0  0  0  0
  7 20  1  0  0  0  0
  8 23  1  0  0  0  0
  9 23  2  0  0  0  0
 10 24  1  0  0  0  0
 11 12  2  0  0  0  0
 11 25  1  0  0  0  0
 12 26  1  0  0  0  0
 13 22  1  0  0  0  0
 13 24  2  0  0  0  0
 14 26  2  0  0  0  0
 14 27  1  0  0  0  0
 15 29  2  0  0  0  0
 15 65  1  0  0  0  0
 16 30  1  0  0  0  0
 16 64  2  0  0  0  0
 17 28  1  0  0  0  0
 18 28  1  0  0  0  0
 18 31  2  0  0  0  0
 18 32  1  0  0  0  0
 19 21  2  0  0  0  0
 19 37  1  0  0  0  0
 20 22  2  0  0  0  0
 20 38  1  0  0  0  0
 21 46  1  0  0  0  0
 22 39  1  0  0  0  0
 23 80  1  0  0  0  0
 24 81  1  0  0  0  0
 25 27  2  0  0  0  0
 25 80  1  0  0  0  0
 26 82  1  0  0  0  0
 27 83  1  0  0  0  0
 28 66  2  0  0  0  0
 29 58  1  0  0  0  0
 29 64  1  0  0  0  0
 30 59  1  0  0  0  0
 30 65  2  0  0  0  0
 31 67  1  0  0  0  0
 31 70  1  0  0  0  0
 32 71  1  0  0  0  0
 32 75  2  0  0  0  0
 33 47  1  0  0  0  0
 33 72  1  0  0  0  0
 33 76  2  0  0  0  0
 34 56  1  0  0  0  0
 34 68  1  0  0  0  0
 34 77  2  0  0  0  0
 35 58  1  0  0  0  0
 35 69  1  0  0  0  0
 35 78  2  0  0  0  0
 36 57  1  0  0  0  0
 36 73  1  0  0  0  0
 36 79  2  0  0  0  0
 37 40  1  0  0  0  0
 38 47  1  0  0  0  0
 39 68  1  0  0  0  0
 40 42  1  0  0  0  0
 41 43  1  0  0  0  0
 41 44  1  0  0  0  0
 42 46  1  0  0  0  0
 43 48  1  0  0  0  0
 44 69  1  0  0  0  0
 45 48  1  0  0  0  0
 45 69  1  0  0  0  0
 46 72  1  0  0  0  0
 47 68  1  0  0  0  0
 48 67  1  0  0  0  0
 49 57  1  0  0  0  0
 50 59  1  0  0  0  0
 51 60  1  0  0  0  0
 52 60  1  0  0  0  0
 53 60  1  0  0  0  0
 54 74  1  0  0  0  0
 55 61  1  0  0  0  0
 55 81  1  0  0  0  0
 56 60  1  0  0  0  0
 56 73  1  0  0  0  0
 57 74  1  0  0  0  0
 58 62  1  0  0  0  0
 58 63  1  0  0  0  0
 59 61  1  0  0  0  0
 59 84  1  0  0  0  0
 61 85  1  0  0  0  0
 61 86  1  0  0  0  0
 62 87  1  0  0  0  0
 62 88  1  0  0  0  0
 62 89  1  0  0  0  0
 63 90  1  0  0  0  0
 63 91  1  0  0  0  0
 63 92  1  0  0  0  0
 66 67  1  0  0  0  0
M  CHG  1  74   1
M  ISO  4  35 100  55 101  58 100  81 101
M  END
> <Batch ID>
0064

> <Smiles>
CNC(C)C(=O)NC(C(=O)N1Cc2cc([101O:1][101CH2:1]C(F)(F)C(C)(F)c3cnc([100C:0]([100C:0](=O)N4CCCC(n5nc(-c6ccc(Oc7ccc(F)cc7F)cc6)c(C(N)=O)c5N)C4)(C(F)(F)F)C(F)(F)F)cn3)ccc2CC1C(=O)NC1CCCc2ccccc21)C(C)(C)C

> <Shape>
0.247

> <Color>
0.052

> <Negative vol penalty>
0.000

$$$$

  -OEChem-04052318053D

 86 94  0     1  0  0  0  0  0999 V2000
  -22.2398  -18.6776   27.4932 C   0  0  0  0  0  0  0  0  0  0  0  0
  -23.1001  -19.2190   26.5434 C   0  0  0  0  0  0  0  0  0  0  0  0
  -25.8640  -14.3926   19.7363 C   0  0  0  0  0  0  0  0  0  0  0  0
  -25.0839  -15.6158   21.6681 C   0  0  0  0  0  0  0  0  0  0  0  0
  -20.9050  -19.0786   27.5321 C   0  0  0  0  0  0  0  0  0  0  0  0
  -22.6258  -20.1611   25.6312 C   0  0  0  0  0  0  0  0  0  0  0  0
  -25.7729  -24.0905   25.0832 C   0  0  0  0  0  0  0  0  0  0  0  0
  -24.8448  -13.4576   19.9167 C   0  0  0  0  0  0  0  0  0  0  0  0
  -24.0646  -14.6809   21.8486 C   0  0  0  0  0  0  0  0  0  0  0  0
  -26.9003  -23.8970   24.2861 C   0  0  0  0  0  0  0  0  0  0  0  0
  -24.2288  -10.7985   21.9101 C   0  0  0  0  0  0  0  0  0  0  0  0
  -24.5635   -9.4482   21.8086 C   0  0  0  0  0  0  0  0  0  0  0  0
  -25.7888  -25.0066   22.4551 C   0  0  0  0  0  0  0  0  0  0  0  0
  -23.0026   -9.1987   19.9815 C   0  0  0  0  0  0  0  0  0  0  0  0
  -25.9837  -15.4717   20.6120 C   0  0  0  0  0  0  0  0  0  0  0  0
  -28.4235  -16.1959   20.4385 C   0  0  0  0  0  0  0  0  0  0  0  0
  -20.4165  -20.0332   26.6262 C   0  0  0  0  0  0  0  0  0  0  0  0
  -24.6390  -24.7350   24.5679 C   0  0  0  0  0  0  0  0  0  0  0  0
  -21.2829  -20.5742   25.6572 C   0  0  0  0  0  0  0  0  0  0  0  0
  -24.6493  -25.2094   23.2485 C   0  0  0  0  0  0  0  0  0  0  0  0
  -23.9451  -13.6017   20.9728 C   0  0  0  0  0  0  0  0  0  0  0  0
  -26.9073  -24.3525   22.9710 C   0  0  0  0  0  0  0  0  0  0  0  0
  -23.2809  -11.3488   21.0474 C   0  0  0  0  0  0  0  0  0  0  0  0
  -23.9505   -8.6483   20.8443 C   0  0  0  0  0  0  0  0  0  0  0  0
  -22.6678  -10.5489   20.0831 C   0  0  0  0  0  0  0  0  0  0  0  0
  -27.0367  -16.4375   20.4265 C   0  0  0  0  0  0  0  0  0  0  0  0
  -28.9886  -17.4282   20.2179 C   0  0  0  0  0  0  0  0  0  0  0  0
  -29.2300  -24.3293   20.1511 C   0  0  0  0  0  0  0  0  0  0  0  0
  -30.8633  -23.1745   19.3098 C   0  0  0  0  0  0  0  0  0  0  0  0
  -29.1372  -14.9675   20.6317 C   0  0  0  0  0  0  0  0  0  0  0  0
  -21.6124  -23.8975   24.0760 C   0  0  0  0  0  0  0  0  0  0  0  0
  -21.2835  -27.0256   23.2830 C   0  0  0  0  0  0  0  0  0  0  0  0
  -22.7492  -29.9065   22.1878 C   0  0  0  0  0  0  0  0  0  0  0  0
  -28.8567  -22.1395   17.0393 C   0  0  0  0  0  0  0  0  0  0  0  0
  -18.9545  -20.4004   26.6766 C   0  0  0  0  0  0  0  0  0  0  0  0
  -23.4408  -24.9597   25.4489 C   0  0  0  0  0  0  0  0  0  0  0  0
  -23.4650  -25.9253   22.6539 C   0  0  0  0  0  0  0  0  0  0  0  0
  -18.6216  -21.6811   25.9156 C   0  0  0  0  0  0  0  0  0  0  0  0
  -26.9543  -22.0496   20.2134 C   0  0  0  0  0  0  0  0  0  0  0  0
  -19.2846  -21.6735   24.5419 C   0  0  0  0  0  0  0  0  0  0  0  0
  -26.8648  -20.5528   20.5057 C   0  0  0  0  0  0  0  0  0  0  0  0
  -27.0567  -22.3301   18.7172 C   0  0  0  0  0  0  0  0  0  0  0  0
  -28.0815  -20.1123   18.3364 C   0  0  0  0  0  0  0  0  0  0  0  0
  -20.8119  -21.6169   24.6667 C   0  0  1  0  0  0  0  0  0  0  0  0
  -22.1515  -25.1720   24.6614 C   0  0  1  0  0  0  0  0  0  0  0  0
  -28.0241  -19.7930   19.8378 C   0  0  2  0  0  0  0  0  0  0  0  0
  -22.9488  -32.3344   21.5858 C   0  0  0  0  0  0  0  0  0  0  0  0
  -32.2044  -21.1079   20.1016 C   0  0  0  0  0  0  0  0  0  0  0  0
  -33.0029  -22.4819   18.1963 C   0  0  0  0  0  0  0  0  0  0  0  0
  -20.0573  -26.0992   20.6470 C   0  0  0  0  0  0  0  0  0  0  0  0
  -20.4273  -28.4051   19.7448 C   0  0  0  0  0  0  0  0  0  0  0  0
  -18.9139  -28.0597   21.6974 C   0  0  0  0  0  0  0  0  0  0  0  0
  -27.5135  -22.0266   20.4309 C   0  0  0  0  0  0  0  0  0  0  0  0
  -29.5378  -21.4726   21.8363 C   0  0  0  0  0  0  0  0  0  0  0  0
  -29.3407  -20.6151   19.5136 C   0  0  0  0  0  0  0  0  0  0  0  0
  -30.9904  -22.3438   15.8207 C   0  0  0  0  0  0  0  0  0  0  0  0
  -23.4866  -30.6516   24.9555 C   0  0  0  0  0  0  0  0  0  0  0  0
  -27.9446  -24.6565   20.8526 C   0  0  0  0  0  0  0  0  0  1  0  0
  -30.9617  -21.0433   17.9168 C   0  0  0  0  0  0  0  0  0  0  0  0
  -21.4119  -27.8247   22.0086 C   0  0  1  0  0  0  0  0  0  0  0  0
  -22.6681  -31.3344   22.6966 C   0  0  2  0  0  0  0  0  0  0  0  0
  -31.6900  -22.0179   18.9218 C   0  0  0  0  0  0  0  0  0  0  0  0
  -20.2244  -27.5820   21.0348 C   0  0  0  0  0  0  0  0  0  0  0  0
  -29.0467  -21.8378   20.4176 C   0  0  0  0  0  0  0  0  0  0  0  0
  -26.7389  -17.7223   20.2152 N   0  0  0  0  0  0  0  0  0  0  0  0
  -30.0798  -25.1779   19.6181 N   0  0  0  0  0  0  0  0  0  0  0  0
  -31.1190  -24.4431   19.0829 N   0  0  0  0  0  0  0  0  0  0  0  0
  -27.9464  -18.2991   20.0924 N   0  0  0  0  0  0  0  0  0  0  0  0
  -29.6835  -23.0566   19.9800 N   0  0  0  0  0  0  0  0  0  0  0  0
  -22.3149  -26.1152   23.5533 N   0  0  0  0  0  0  0  0  0  0  0  0
  -28.1387  -21.5626   18.0997 N   0  0  0  0  0  0  0  0  0  0  0  0
  -30.2702  -17.8410   20.1211 N   0  0  0  0  0  0  0  0  0  0  0  0
  -29.4951  -14.6008   21.9362 N   0  0  0  0  0  0  0  0  0  0  0  0
  -21.3392  -22.9194   25.0131 N   0  0  0  0  0  0  0  0  0  0  0  0
  -21.5772  -29.2163   22.4142 N   0  0  0  0  0  0  0  0  0  0  0  0
  -30.2011  -21.7639   16.8981 N   0  0  0  0  0  0  0  0  0  0  0  0
  -23.6599  -31.5528   23.7873 N   0  3  0  0  0  0  0  0  0  0  0  0
  -29.4627  -14.2254   19.6742 O   0  0  0  0  0  0  0  0  0  0  0  0
  -21.4545  -23.8087   22.8640 O   0  0  0  0  0  0  0  0  0  0  0  0
  -20.3077  -27.2079   24.0153 O   0  0  0  0  0  0  0  0  0  0  0  0
  -23.7507  -29.4502   21.6407 O   0  0  0  0  0  0  0  0  0  0  0  0
  -28.3288  -22.9517   16.2688 O   0  0  0  0  0  0  0  0  0  0  0  0
  -22.9502  -12.6897   21.1490 O   0  0  0  0  0  0  0  0  0  0  0  0
  -28.0062  -24.1643   22.1906 O   0  0  0  0  0  0  0  0  0  1  0  0
  -24.2732   -7.3520   20.7459 F   0  0  0  0  0  0  0  0  0  0  0  0
  -21.7573  -11.0723   19.2507 F   0  0  0  0  0  0  0  0  0  0  0  0
  1  2  1  0  0  0  0
  1  5  2  0  0  0  0
  2  6  2  0  0  0  0
  3  8  2  0  0  0  0
  3 15  1  0  0  0  0
  4  9  1  0  0  0  0
  4 15  2  0  0  0  0
  5 17  1  0  0  0  0
  6 19  1  0  0  0  0
  7 10  2  0  0  0  0
  7 18  1  0  0  0  0
  8 21  1  0  0  0  0
  9 21  2  0  0  0  0
 10 22  1  0  0  0  0
 11 12  2  0  0  0  0
 11 23  1  0  0  0  0
 12 24  1  0  0  0  0
 13 20  1  0  0  0  0
 13 22  2  0  0  0  0
 14 24  2  0  0  0  0
 14 25  1  0  0  0  0
 15 26  1  0  0  0  0
 16 26  1  0  0  0  0
 16 27  2  0  0  0  0
 16 30  1  0  0  0  0
 17 19  2  0  0  0  0
 17 35  1  0  0  0  0
 18 20  2  0  0  0  0
 18 36  1  0  0  0  0
 19 44  1  0  0  0  0
 20 37  1  0  0  0  0
 21 83  1  0  0  0  0
 22 84  1  0  0  0  0
 23 25  2  0  0  0  0
 23 83  1  0  0  0  0
 24 85  1  0  0  0  0
 25 86  1  0  0  0  0
 26 65  2  0  0  0  0
 27 68  1  0  0  0  0
 27 72  1  0  0  0  0
 28 58  1  0  0  0  0
 28 66  2  0  0  0  0
 28 69  1  0  0  0  0
 29 62  1  0  0  0  0
 29 67  2  0  0  0  0
 29 69  1  0  0  0  0
 30 73  1  0  0  0  0
 30 78  2  0  0  0  0
 31 45  1  0  0  0  0
 31 74  1  0  0  0  0
 31 79  2  0  0  0  0
 32 60  1  0  0  0  0
 32 70  1  0  0  0  0
 32 80  2  0  0  0  0
 33 61  1  0  0  0  0
 33 75  1  0  0  0  0
 33 81  2  0  0  0  0
 34 71  1  0  0  0  0
 34 76  1  0  0  0  0
 34 82  2  0  0  0  0
 35 38  1  0  0  0  0
 36 45  1  0  0  0  0
 37 70  1  0  0  0  0
 38 40  1  0  0  0  0
 39 41  1  0  0  0  0
 39 42  1  0  0  0  0
 40 44  1  0  0  0  0
 41 46  1  0  0  0  0
 42 71  1  0  0  0  0
 43 46  1  0  0  0  0
 43 71  1  0  0  0  0
 44 74  1  0  0  0  0
 45 70  1  0  0  0  0
 46 68  1  0  0  0  0
 47 61  1  0  0  0  0
 48 62  1  0  0  0  0
 49 62  1  0  0  0  0
 50 63  1  0  0  0  0
 51 63  1  0  0  0  0
 52 63  1  0  0  0  0
 53 64  1  0  0  0  0
 54 64  1  0  0  0  0
 55 64  1  0  0  0  0
 56 76  1  0  0  0  0
 57 77  1  0  0  0  0
 58 84  1  0  0  0  0
 59 62  1  0  0  0  0
 59 76  1  0  0  0  0
 60 63  1  0  0  0  0
 60 75  1  0  0  0  0
 61 77  1  0  0  0  0
 64 69  1  0  0  0  0
 65 68  1  0  0  0  0
 66 67  1  0  0  0  0
M  CHG  1  77   1
M  ISO  4  34 100  58 101  76 100  84 101
M  END
> <Batch ID>
0064

> <Smiles>
CNC(C)C(=O)NC(C(=O)N1Cc2cc([101O:1][101CH2:1]c3nnc(C(C)(C)C[100N:0](C)[100C:0](=O)N4CCCC(n5nc(-c6ccc(Oc7ccc(F)cc7F)cc6)c(C(N)=O)c5N)C4)n3C(C)(C)C)ccc2CC1C(=O)NC1CCCc2ccccc21)C(C)(C)C

> <Shape>
0.234

> <Color>
0.062

> <Negative vol penalty>
0.000

$$$$

  -OEChem-04052318053D

 94102  0     1  0  0  0  0  0999 V2000
  -16.8501  -30.5120   23.5340 C   0  0  0  0  0  0  0  0  0  0  0  0
  -17.9406  -30.9777   22.8064 C   0  0  0  0  0  0  0  0  0  0  0  0
  -26.7986  -12.9369   20.6828 C   0  0  0  0  0  0  0  0  0  0  0  0
  -25.4354  -14.4116   19.3397 C   0  0  0  0  0  0  0  0  0  0  0  0
  -17.0054  -29.4394   24.4111 C   0  0  0  0  0  0  0  0  0  0  0  0
  -19.1875  -30.3717   22.9564 C   0  0  0  0  0  0  0  0  0  0  0  0
  -25.1069  -28.7867   19.2463 C   0  0  0  0  0  0  0  0  0  0  0  0
  -25.9670  -11.8670   20.3522 C   0  0  0  0  0  0  0  0  0  0  0  0
  -24.6037  -13.3417   19.0091 C   0  0  0  0  0  0  0  0  0  0  0  0
  -26.4913  -28.9382   19.3109 C   0  0  0  0  0  0  0  0  0  0  0  0
  -23.9940   -8.8190   20.1506 C   0  0  0  0  0  0  0  0  0  0  0  0
  -23.6014   -7.9597   21.1768 C   0  0  0  0  0  0  0  0  0  0  0  0
  -26.6236  -27.0417   20.7959 C   0  0  0  0  0  0  0  0  0  0  0  0
  -22.5567   -9.8101   22.3265 C   0  0  0  0  0  0  0  0  0  0  0  0
  -26.5328  -14.2092   20.1765 C   0  0  0  0  0  0  0  0  0  0  0  0
  -28.5388  -15.7456   19.8257 C   0  0  0  0  0  0  0  0  0  0  0  0
  -18.2527  -28.8137   24.5647 C   0  0  0  0  0  0  0  0  0  0  0  0
  -24.4682  -27.7666   19.9660 C   0  0  0  0  0  0  0  0  0  0  0  0
  -19.3600  -29.2905   23.8374 C   0  0  0  0  0  0  0  0  0  0  0  0
  -25.2312  -26.8779   20.7368 C   0  0  0  0  0  0  0  0  0  0  0  0
  -24.8695  -12.0694   19.5154 C   0  0  0  0  0  0  0  0  0  0  0  0
  -27.2496  -28.0674   20.0880 C   0  0  0  0  0  0  0  0  0  0  0  0
  -23.6680  -10.1739   20.2124 C   0  0  0  0  0  0  0  0  0  0  0  0
  -22.8827   -8.4552   22.2647 C   0  0  0  0  0  0  0  0  0  0  0  0
  -22.9494  -10.6694   21.3004 C   0  0  0  0  0  0  0  0  0  0  0  0
  -27.3912  -15.3149   20.5181 C   0  0  0  0  0  0  0  0  0  0  0  0
  -31.1765  -23.1315   21.7000 C   0  0  0  0  0  0  0  0  0  0  0  0
  -30.2561  -22.4814   20.9121 C   0  0  0  0  0  0  0  0  0  0  0  0
  -28.9913  -16.8229   20.5477 C   0  0  0  0  0  0  0  0  0  0  0  0
  -31.5201  -23.8391   19.7222 C   0  0  0  0  0  0  0  0  0  0  0  0
  -29.1419  -15.2191   18.6363 C   0  0  0  0  0  0  0  0  0  0  0  0
  -22.3048  -27.6793   22.2932 C   0  0  0  0  0  0  0  0  0  0  0  0
  -22.4310  -24.4821   21.7603 C   0  0  0  0  0  0  0  0  0  0  0  0
  -24.1995  -21.8071   20.5926 C   0  0  0  0  0  0  0  0  0  0  0  0
  -27.5385  -21.6783   23.1229 C   0  0  0  0  0  0  0  0  0  0  0  0
  -18.3824  -27.6881   25.5601 C   0  0  0  0  0  0  0  0  0  0  0  0
  -22.9767  -27.6000   19.8646 C   0  0  0  0  0  0  0  0  0  0  0  0
  -24.5958  -25.7538   21.5122 C   0  0  0  0  0  0  0  0  0  0  0  0
  -19.6527  -26.8606   25.3815 C   0  0  0  0  0  0  0  0  0  0  0  0
  -27.6582  -18.5517   25.1007 C   0  0  0  0  0  0  0  0  0  0  0  0
  -20.8636  -27.7719   25.2080 C   0  0  0  0  0  0  0  0  0  0  0  0
  -27.6212  -17.4724   24.0200 C   0  0  0  0  0  0  0  0  0  0  0  0
  -26.9562  -19.8293   24.6505 C   0  0  0  0  0  0  0  0  0  0  0  0
  -27.4292  -19.2960   22.2828 C   0  0  0  0  0  0  0  0  0  0  0  0
  -20.7230  -28.6435   23.9542 C   0  0  1  0  0  0  0  0  0  0  0  0
  -22.3783  -26.8437   21.0466 C   0  0  1  0  0  0  0  0  0  0  0  0
  -28.1685  -18.0117   22.6870 C   0  0  2  0  0  0  0  0  0  0  0  0
  -28.4746  -21.6061   15.8079 C   0  0  0  0  0  0  0  0  0  0  0  0
  -32.1985  -21.3619   15.5538 C   0  0  0  0  0  0  0  0  0  0  0  0
  -24.0565  -19.3160   20.3254 C   0  0  0  0  0  0  0  0  0  0  0  0
  -22.9787  -24.1332   24.7416 C   0  0  0  0  0  0  0  0  0  0  0  0
  -23.7548  -21.8031   24.2554 C   0  0  0  0  0  0  0  0  0  0  0  0
  -21.3975  -22.4578   23.7684 C   0  0  0  0  0  0  0  0  0  0  0  0
  -31.2238  -20.4638   18.3427 C   0  0  0  0  0  0  0  0  0  0  0  0
  -27.5798  -23.3429   21.3043 C   0  0  0  0  0  0  0  0  0  0  0  0
  -24.4298  -21.9933   17.6479 C   0  0  0  0  0  0  0  0  0  0  0  0
  -29.2105  -21.4932   21.2327 C   0  0  0  0  0  0  0  0  0  0  0  0
  -32.0544  -24.5529   18.5060 C   0  0  0  0  0  0  0  0  0  0  0  0
  -29.3582  -20.7556   16.7135 C   0  0  0  0  0  0  0  0  0  0  0  0
  -31.4637  -22.2467   16.5557 C   0  0  0  0  0  0  0  0  0  0  0  0
  -32.0361  -26.0809   18.6266 C   0  0  0  0  0  0  0  0  0  0  0  0
  -30.6222  -26.6545   18.7637 C   0  0  0  0  0  0  0  0  0  0  0  0
  -30.6538  -28.1747   18.9116 C   0  0  0  0  0  0  0  0  0  0  0  0
  -29.7748  -22.5581   18.4519 C   0  0  0  0  0  0  0  0  0  0  0  0
  -29.2515  -28.7589   19.0062 C   0  0  0  0  0  0  0  0  0  1  0  0
  -23.2573  -23.3400   22.3005 C   0  0  1  0  0  0  0  0  0  0  0  0
  -23.8088  -20.6661   19.6707 C   0  0  2  0  0  0  0  0  0  0  0  0
  -31.3815  -23.0158   23.1526 C   0  0  0  0  0  0  0  0  0  0  0  0
  -22.8592  -22.9558   23.7535 C   0  0  0  0  0  0  0  0  0  0  0  0
  -30.4664  -21.5202   17.5049 C   0  0  0  0  0  0  0  0  0  0  0  0
  -27.1309  -16.0578   21.5971 N   0  0  0  0  0  0  0  0  0  0  0  0
  -31.9601  -23.9754   20.9534 N   0  0  0  0  0  0  0  0  0  0  0  0
  -30.4882  -22.9453   19.6479 N   0  0  0  0  0  0  0  0  0  0  0  0
  -28.1213  -16.9661   21.5883 N   0  0  0  0  0  0  0  0  0  0  0  0
  -23.1337  -25.6361   21.3859 N   0  0  0  0  0  0  0  0  0  0  0  0
  -27.4656  -20.2959   23.3605 N   0  0  0  0  0  0  0  0  0  0  0  0
  -30.0446  -17.6520   20.3877 N   0  0  0  0  0  0  0  0  0  0  0  0
  -28.5478  -14.1086   18.0213 N   0  0  0  0  0  0  0  0  0  0  0  0
  -21.0210  -27.8721   22.7665 N   0  0  0  0  0  0  0  0  0  0  0  0
  -23.1279  -22.2514   21.3378 N   0  0  0  0  0  0  0  0  0  0  0  0
  -28.0425  -22.0877   21.8791 N   0  0  0  0  0  0  0  0  0  0  0  0
  -24.5972  -20.7276   18.4075 N   0  3  0  0  0  0  0  0  0  0  0  0
  -30.1862  -15.7084   18.1429 O   0  0  0  0  0  0  0  0  0  0  0  0
  -23.3367  -28.1156   22.7898 O   0  0  0  0  0  0  0  0  0  0  0  0
  -21.2078  -24.3523   21.6671 O   0  0  0  0  0  0  0  0  0  0  0  0
  -25.3420  -22.2565   20.6489 O   0  0  0  0  0  0  0  0  0  0  0  0
  -27.1828  -22.4998   23.9775 O   0  0  0  0  0  0  0  0  0  0  0  0
  -24.0579  -11.0256   19.1924 O   0  0  0  0  0  0  0  0  0  0  0  0
  -28.6010  -28.2134   20.1533 O   0  0  0  0  0  0  0  0  0  1  0  0
  -22.5044   -7.6297   23.2493 F   0  0  0  0  0  0  0  0  0  0  0  0
  -22.6323  -11.9699   21.3647 F   0  0  0  0  0  0  0  0  0  0  0  0
  -30.5293  -22.1376   23.7777 F   0  0  0  0  0  0  0  0  0  0  0  0
  -32.6350  -22.5860   23.5155 F   0  0  0  0  0  0  0  0  0  0  0  0
  -31.2123  -24.2016   23.8230 F   0  0  0  0  0  0  0  0  0  0  0  0
  1  2  1  0  0  0  0
  1  5  2  0  0  0  0
  2  6  2  0  0  0  0
  3  8  2  0  0  0  0
  3 15  1  0  0  0  0
  4  9  1  0  0  0  0
  4 15  2  0  0  0  0
  5 17  1  0  0  0  0
  6 19  1  0  0  0  0
  7 10  2  0  0  0  0
  7 18  1  0  0  0  0
  8 21  1  0  0  0  0
  9 21  2  0  0  0  0
 10 22  1  0  0  0  0
 11 12  2  0  0  0  0
 11 23  1  0  0  0  0
 12 24  1  0  0  0  0
 13 20  1  0  0  0  0
 13 22  2  0  0  0  0
 14 24  2  0  0  0  0
 14 25  1  0  0  0  0
 15 26  1  0  0  0  0
 16 26  1  0  0  0  0
 16 29  2  0  0  0  0
 16 31  1  0  0  0  0
 17 19  2  0  0  0  0
 17 36  1  0  0  0  0
 18 20  2  0  0  0  0
 18 37  1  0  0  0  0
 19 45  1  0  0  0  0
 20 38  1  0  0  0  0
 21 88  1  0  0  0  0
 22 89  1  0  0  0  0
 23 25  2  0  0  0  0
 23 88  1  0  0  0  0
 24 90  1  0  0  0  0
 25 91  1  0  0  0  0
 26 71  2  0  0  0  0
 27 28  2  0  0  0  0
 27 68  1  0  0  0  0
 27 72  1  0  0  0  0
 28 57  1  0  0  0  0
 28 73  1  0  0  0  0
 29 74  1  0  0  0  0
 29 77  1  0  0  0  0
 30 58  1  0  0  0  0
 30 72  2  0  0  0  0
 30 73  1  0  0  0  0
 31 78  1  0  0  0  0
 31 83  2  0  0  0  0
 32 46  1  0  0  0  0
 32 79  1  0  0  0  0
 32 84  2  0  0  0  0
 33 66  1  0  0  0  0
 33 75  1  0  0  0  0
 33 85  2  0  0  0  0
 34 67  1  0  0  0  0
 34 80  1  0  0  0  0
 34 86  2  0  0  0  0
 35 76  1  0  0  0  0
 35 81  1  0  0  0  0
 35 87  2  0  0  0  0
 36 39  1  0  0  0  0
 37 46  1  0  0  0  0
 38 75  1  0  0  0  0
 39 41  1  0  0  0  0
 40 42  1  0  0  0  0
 40 43  1  0  0  0  0
 41 45  1  0  0  0  0
 42 47  1  0  0  0  0
 43 76  1  0  0  0  0
 44 47  1  0  0  0  0
 44 76  1  0  0  0  0
 45 79  1  0  0  0  0
 46 75  1  0  0  0  0
 47 74  1  0  0  0  0
 48 59  1  0  0  0  0
 49 60  1  0  0  0  0
 50 67  1  0  0  0  0
 51 69  1  0  0  0  0
 52 69  1  0  0  0  0
 53 69  1  0  0  0  0
 54 70  1  0  0  0  0
 55 81  1  0  0  0  0
 56 82  1  0  0  0  0
 57 81  1  0  0  0  0
 58 61  1  0  0  0  0
 59 70  1  0  0  0  0
 60 70  1  0  0  0  0
 61 62  1  0  0  0  0
 62 63  1  0  0  0  0
 63 65  1  0  0  0  0
 64 70  1  0  0  0  0
 64 73  1  0  0  0  0
 65 89  1  0  0  0  0
 66 69  1  0  0  0  0
 66 80  1  0  0  0  0
 67 82  1  0  0  0  0
 68 92  1  0  0  0  0
 68 93  1  0  0  0  0
 68 94  1  0  0  0  0
 71 74  1  0  0  0  0
M  CHG  1  82   1
M  ISO  4  35 100  65 101  81 100  89 101
M  END
> <Batch ID>
0064

> <Smiles>
CCC(C)(CC)Cn1c(CCCC[101CH2:1][101O:1]c2ccc3c(c2)CN(C(=O)C(NC(=O)C(C)NC)C(C)(C)C)C(C(=O)NC2CCCc4ccccc42)C3)nc(C(F)(F)F)c1C[100N:0](C)[100C:0](=O)N1CCCC(n2nc(-c3ccc(Oc4ccc(F)cc4F)cc3)c(C(N)=O)c2N)C1

> <Shape>
0.218

> <Color>
0.078

> <Negative vol penalty>
0.000

$$$$

  -OEChem-04052318053D

 94102  0     1  0  0  0  0  0999 V2000
  -33.8357  -33.1975   24.5958 C   0  0  0  0  0  0  0  0  0  0  0  0
  -33.0373  -32.2643   23.9423 C   0  0  0  0  0  0  0  0  0  0  0  0
  -23.1656   -9.8505   19.9112 C   0  0  0  0  0  0  0  0  0  0  0  0
  -23.8286   -9.9012   22.2339 C   0  0  0  0  0  0  0  0  0  0  0  0
  -34.8994  -32.7694   25.3890 C   0  0  0  0  0  0  0  0  0  0  0  0
  -33.3029  -30.9024   24.0807 C   0  0  0  0  0  0  0  0  0  0  0  0
  -29.2093  -26.3498   24.2311 C   0  0  0  0  0  0  0  0  0  0  0  0
  -22.4388   -8.6830   20.1441 C   0  0  0  0  0  0  0  0  0  0  0  0
  -23.1018   -8.7337   22.4668 C   0  0  0  0  0  0  0  0  0  0  0  0
  -28.7601  -25.4598   23.2565 C   0  0  0  0  0  0  0  0  0  0  0  0
  -19.4517   -7.8333   21.4814 C   0  0  0  0  0  0  0  0  0  0  0  0
  -18.1677   -7.7508   20.9429 C   0  0  0  0  0  0  0  0  0  0  0  0
  -30.3452  -23.8165   24.0353 C   0  0  0  0  0  0  0  0  0  0  0  0
  -18.8269   -5.8067   19.6689 C   0  0  0  0  0  0  0  0  0  0  0  0
  -29.9447  -16.2627   18.1691 C   0  0  0  0  0  0  0  0  0  0  0  0
  -23.8606  -10.4596   20.9561 C   0  0  0  0  0  0  0  0  0  0  0  0
  -24.1486  -12.9906   20.8195 C   0  0  0  0  0  0  0  0  0  0  0  0
  -35.1723  -31.4013   25.5450 C   0  0  0  0  0  0  0  0  0  0  0  0
  -30.2390  -25.9832   25.1095 C   0  0  0  0  0  0  0  0  0  0  0  0
  -34.3721  -30.4557   24.8757 C   0  0  0  0  0  0  0  0  0  0  0  0
  -30.8038  -24.7029   25.0218 C   0  0  0  0  0  0  0  0  0  0  0  0
  -29.6199  -17.5155   17.7094 C   0  0  0  0  0  0  0  0  0  0  0  0
  -22.4069   -8.1246   21.4219 C   0  0  0  0  0  0  0  0  0  0  0  0
  -29.3300  -24.1939   23.1567 C   0  0  0  0  0  0  0  0  0  0  0  0
  -20.4234   -6.9026   21.1136 C   0  0  0  0  0  0  0  0  0  0  0  0
  -17.8552   -6.7375   20.0367 C   0  0  0  0  0  0  0  0  0  0  0  0
  -20.1110   -5.8893   20.2073 C   0  0  0  0  0  0  0  0  0  0  0  0
  -24.6120  -11.6653   20.7159 C   0  0  0  0  0  0  0  0  0  0  0  0
  -30.8112  -18.2554   17.8328 C   0  0  0  0  0  0  0  0  0  0  0  0
  -25.2374  -13.7615   20.4927 C   0  0  0  0  0  0  0  0  0  0  0  0
  -22.8502  -13.4809   21.1790 C   0  0  0  0  0  0  0  0  0  0  0  0
  -33.1687  -27.0623   25.7063 C   0  0  0  0  0  0  0  0  0  0  0  0
  -33.0638  -24.8783   28.1024 C   0  0  0  0  0  0  0  0  0  0  0  0
  -30.5924  -14.8795   21.0862 C   0  0  0  0  0  0  0  0  0  0  0  0
  -31.7210  -21.9938   29.3366 C   0  0  0  0  0  0  0  0  0  0  0  0
  -36.3620  -30.9883   26.3748 C   0  0  0  0  0  0  0  0  0  0  0  0
  -30.6939  -26.9453   26.1725 C   0  0  0  0  0  0  0  0  0  0  0  0
  -31.8981  -24.2533   25.9540 C   0  0  0  0  0  0  0  0  0  0  0  0
  -36.3467  -29.5139   26.7701 C   0  0  0  0  0  0  0  0  0  0  0  0
  -29.6971  -12.4973   18.4880 C   0  0  0  0  0  0  0  0  0  0  0  0
  -36.0091  -28.6417   25.5651 C   0  0  0  0  0  0  0  0  0  0  0  0
  -28.2571  -12.1563   18.8691 C   0  0  0  0  0  0  0  0  0  0  0  0
  -30.5631  -12.7345   19.7224 C   0  0  0  0  0  0  0  0  0  0  0  0
  -28.5825  -13.4378   21.0289 C   0  0  0  0  0  0  0  0  0  0  0  0
  -34.6132  -28.9688   25.0210 C   0  0  1  0  0  0  0  0  0  0  0  0
  -32.1018  -26.6516   26.6813 C   0  0  1  0  0  0  0  0  0  0  0  0
  -27.6686  -13.2211   19.8112 C   0  0  2  0  0  0  0  0  0  0  0  0
  -31.8614  -20.4382   31.3008 C   0  0  0  0  0  0  0  0  0  0  0  0
  -33.4740  -15.3266   18.4718 C   0  0  0  0  0  0  0  0  0  0  0  0
  -27.1262  -17.2000   17.8761 C   0  0  0  0  0  0  0  0  0  0  0  0
  -28.1780  -17.7542   15.6574 C   0  0  0  0  0  0  0  0  0  0  0  0
  -27.9795  -19.4913   17.4250 C   0  0  0  0  0  0  0  0  0  0  0  0
  -32.4907  -20.2205   17.7367 C   0  0  0  0  0  0  0  0  0  0  0  0
  -30.8075  -19.9015   15.9459 C   0  0  0  0  0  0  0  0  0  0  0  0
  -32.4792  -16.4142   21.3070 C   0  0  0  0  0  0  0  0  0  0  0  0
  -35.6781  -23.7429   27.0132 C   0  0  0  0  0  0  0  0  0  0  0  0
  -35.2696  -21.6823   28.3754 C   0  0  0  0  0  0  0  0  0  0  0  0
  -35.5617  -23.8859   29.5073 C   0  0  0  0  0  0  0  0  0  0  0  0
  -34.3457  -14.2522   21.4676 C   0  0  0  0  0  0  0  0  0  0  0  0
  -32.3144  -13.1978   22.4257 C   0  0  0  0  0  0  0  0  0  0  0  0
  -28.8882  -22.4596   30.0557 C   0  0  0  0  0  0  0  0  0  0  0  0
  -30.4611  -21.0445   19.6520 C   0  0  0  0  0  0  0  0  0  0  0  0
  -29.4728  -22.0374   20.2646 C   0  0  0  0  0  0  0  0  0  0  0  0
  -30.0501  -20.6696   18.2203 C   0  0  0  0  0  0  0  0  0  0  0  0
  -29.8429  -22.3858   21.6994 C   0  0  0  0  0  0  0  0  0  1  0  0
  -33.4271  -23.4191   28.2356 C   0  0  1  0  0  0  0  0  0  0  0  0
  -31.1598  -21.6484   30.7042 C   0  0  2  0  0  0  0  0  0  0  0  0
  -32.0523  -15.2487   19.0686 C   0  0  1  0  0  0  0  0  0  0  0  0
  -28.3138  -17.9703   17.2037 C   0  0  0  0  0  0  0  0  0  0  0  0
  -31.0468  -19.7324   17.4675 C   0  0  0  0  0  0  0  0  0  0  0  0
  -32.0192  -15.0922   20.6471 C   0  0  2  0  0  0  0  0  0  0  0  0
  -34.9648  -23.1914   28.2639 C   0  0  0  0  0  0  0  0  0  0  0  0
  -32.8861  -13.8856   21.1753 C   0  0  0  0  0  0  0  0  0  0  0  0
  -25.8951  -11.5947   20.3517 N   0  0  0  0  0  0  0  0  0  0  0  0
  -31.8176  -17.5329   18.3319 N   0  0  0  0  0  0  0  0  0  0  0  0
  -31.2595  -16.3259   18.5263 N   0  0  0  0  0  0  0  0  0  0  0  0
  -26.2473  -12.8853   20.2235 N   0  0  0  0  0  0  0  0  0  0  0  0
  -32.3130  -25.2321   26.9724 N   0  0  0  0  0  0  0  0  0  0  0  0
  -29.9545  -13.7349   20.6075 N   0  0  0  0  0  0  0  0  0  0  0  0
  -25.4198  -15.0967   20.4123 N   0  0  0  0  0  0  0  0  0  0  0  0
  -21.8463  -12.5520   21.4850 N   0  0  0  0  0  0  0  0  0  0  0  0
  -33.5929  -28.3691   25.8539 N   0  0  0  0  0  0  0  0  0  0  0  0
  -32.7289  -22.9311   29.4200 N   0  0  0  0  0  0  0  0  0  0  0  0
  -29.7038  -21.3462   30.6054 N   0  3  0  0  0  0  0  0  0  0  0  0
  -22.5833  -14.7062   21.2114 O   0  0  0  0  0  0  0  0  0  0  0  0
  -33.5779  -26.2530   24.8821 O   0  0  0  0  0  0  0  0  0  0  0  0
  -33.4266  -25.6737   28.9727 O   0  0  0  0  0  0  0  0  0  0  0  0
  -30.0615  -15.7083   21.8302 O   0  0  0  0  0  0  0  0  0  0  0  0
  -31.3092  -21.4805   28.2986 O   0  0  0  0  0  0  0  0  0  0  0  0
  -21.6976   -6.9855   21.6496 O   0  0  0  0  0  0  0  0  0  0  0  0
  -28.8939  -23.3234   22.2059 O   0  0  0  0  0  0  0  0  0  1  0  0
  -16.6217   -6.6574   19.5208 F   0  0  0  0  0  0  0  0  0  0  0  0
  -21.0400   -4.9916   19.8511 F   0  0  0  0  0  0  0  0  0  0  0  0
  -32.9116  -12.9185   20.2035 F   0  0  0  0  0  0  0  0  0  0  0  0
  1  2  1  0  0  0  0
  1  5  2  0  0  0  0
  2  6  2  0  0  0  0
  3  8  2  0  0  0  0
  3 16  1  0  0  0  0
  4  9  1  0  0  0  0
  4 16  2  0  0  0  0
  5 18  1  0  0  0  0
  6 20  1  0  0  0  0
  7 10  2  0  0  0  0
  7 19  1  0  0  0  0
  8 23  1  0  0  0  0
  9 23  2  0  0  0  0
 10 24  1  0  0  0  0
 11 12  2  0  0  0  0
 11 25  1  0  0  0  0
 12 26  1  0  0  0  0
 13 21  1  0  0  0  0
 13 24  2  0  0  0  0
 14 26  2  0  0  0  0
 14 27  1  0  0  0  0
 15 22  2  0  0  0  0
 15 76  1  0  0  0  0
 16 28  1  0  0  0  0
 17 28  1  0  0  0  0
 17 30  2  0  0  0  0
 17 31  1  0  0  0  0
 18 20  2  0  0  0  0
 18 36  1  0  0  0  0
 19 21  2  0  0  0  0
 19 37  1  0  0  0  0
 20 45  1  0  0  0  0
 21 38  1  0  0  0  0
 22 29  1  0  0  0  0
 22 69  1  0  0  0  0
 23 90  1  0  0  0  0
 24 91  1  0  0  0  0
 25 27  2  0  0  0  0
 25 90  1  0  0  0  0
 26 92  1  0  0  0  0
 27 93  1  0  0  0  0
 28 74  2  0  0  0  0
 29 70  1  0  0  0  0
 29 75  2  0  0  0  0
 30 77  1  0  0  0  0
 30 80  1  0  0  0  0
 31 81  1  0  0  0  0
 31 85  2  0  0  0  0
 32 46  1  0  0  0  0
 32 82  1  0  0  0  0
 32 86  2  0  0  0  0
 33 66  1  0  0  0  0
 33 78  1  0  0  0  0
 33 87  2  0  0  0  0
 34 71  1  0  0  0  0
 34 79  1  0  0  0  0
 34 88  2  0  0  0  0
 35 67  1  0  0  0  0
 35 83  1  0  0  0  0
 35 89  2  0  0  0  0
 36 39  1  0  0  0  0
 37 46  1  0  0  0  0
 38 78  1  0  0  0  0
 39 41  1  0  0  0  0
 40 42  1  0  0  0  0
 40 43  1  0  0  0  0
 41 45  1  0  0  0  0
 42 47  1  0  0  0  0
 43 79  1  0  0  0  0
 44 47  1  0  0  0  0
 44 79  1  0  0  0  0
 45 82  1  0  0  0  0
 46 78  1  0  0  0  0
 47 77  1  0  0  0  0
 48 67  1  0  0  0  0
 49 68  1  0  0  0  0
 50 69  1  0  0  0  0
 51 69  1  0  0  0  0
 52 69  1  0  0  0  0
 53 70  1  0  0  0  0
 54 70  1  0  0  0  0
 55 71  1  0  0  0  0
 56 72  1  0  0  0  0
 57 72  1  0  0  0  0
 58 72  1  0  0  0  0
 59 73  1  0  0  0  0
 60 73  1  0  0  0  0
 61 84  1  0  0  0  0
 62 63  1  0  0  0  0
 62 64  1  0  0  0  0
 63 65  1  0  0  0  0
 64 70  1  0  0  0  0
 65 91  1  0  0  0  0
 66 72  1  0  0  0  0
 66 83  1  0  0  0  0
 67 84  1  0  0  0  0
 68 71  1  0  0  0  0
 68 76  1  0  0  0  0
 71 73  1  0  0  0  0
 73 94  1  0  0  0  0
 74 77  1  0  0  0  0
 75 76  1  0  0  0  0
M  CHG  1  84   1
M  ISO  4  34 100  65 101  71 100  91 101
M  END
> <Batch ID>
0064

> <Smiles>
CNC(C)C(=O)NC(C(=O)N1Cc2cc([101O:1][101CH2:1]CCCC(C)(C)c3nn(C(C)[100C:0](C)([100C:0](=O)N4CCCC(n5nc(-c6ccc(Oc7ccc(F)cc7F)cc6)c(C(N)=O)c5N)C4)C(C)(C)F)cc3C(C)(C)C)ccc2CC1C(=O)NC1CCCc2ccccc21)C(C)(C)C

> <Shape>
0.165

> <Color>
0.161

> <Negative vol penalty>
0.000

$$$$

  -OEChem-04052318053D

 88 96  0     1  0  0  0  0  0999 V2000
  -19.1223  -25.7397   21.7453 C   0  0  0  0  0  0  0  0  0  0  0  0
  -20.3743  -25.2020   21.4649 C   0  0  0  0  0  0  0  0  0  0  0  0
  -23.8875   -9.6460   21.2561 C   0  0  0  0  0  0  0  0  0  0  0  0
  -24.4884  -10.5857   23.3992 C   0  0  0  0  0  0  0  0  0  0  0  0
  -18.7092  -26.9099   21.1098 C   0  0  0  0  0  0  0  0  0  0  0  0
  -21.2137  -25.8338   20.5479 C   0  0  0  0  0  0  0  0  0  0  0  0
  -25.9944  -26.1506   22.1879 C   0  0  0  0  0  0  0  0  0  0  0  0
  -23.4082   -8.5011   21.8924 C   0  0  0  0  0  0  0  0  0  0  0  0
  -24.0090   -9.4408   24.0356 C   0  0  0  0  0  0  0  0  0  0  0  0
  -26.7756  -24.9993   22.0989 C   0  0  0  0  0  0  0  0  0  0  0  0
  -20.6331   -7.5687   23.5844 C   0  0  0  0  0  0  0  0  0  0  0  0
  -19.4013   -7.0634   23.1684 C   0  0  0  0  0  0  0  0  0  0  0  0
  -27.7986  -25.8560   20.0892 C   0  0  0  0  0  0  0  0  0  0  0  0
  -20.4610   -4.9784   22.5628 C   0  0  0  0  0  0  0  0  0  0  0  0
  -30.6601  -18.7026   22.8709 C   0  0  0  0  0  0  0  0  0  0  0  0
  -30.2162  -17.5344   21.0617 C   0  0  0  0  0  0  0  0  0  0  0  0
  -24.4277  -10.6883   22.0094 C   0  0  0  0  0  0  0  0  0  0  0  0
  -24.2001  -13.0384   21.0437 C   0  0  0  0  0  0  0  0  0  0  0  0
  -19.5478  -27.5616   20.1917 C   0  0  0  0  0  0  0  0  0  0  0  0
  -26.1017  -27.1601   21.2205 C   0  0  0  0  0  0  0  0  0  0  0  0
  -20.8109  -27.0131   19.8985 C   0  0  0  0  0  0  0  0  0  0  0  0
  -27.0194  -27.0202   20.1696 C   0  0  0  0  0  0  0  0  0  0  0  0
  -30.6000  -18.7893   21.4671 C   0  0  0  0  0  0  0  0  0  0  0  0
  -23.4689   -8.3985   23.2822 C   0  0  0  0  0  0  0  0  0  0  0  0
  -27.6758  -24.8505   21.0479 C   0  0  0  0  0  0  0  0  0  0  0  0
  -21.7789   -6.7788   23.4895 C   0  0  0  0  0  0  0  0  0  0  0  0
  -19.3152   -5.7683   22.6577 C   0  0  0  0  0  0  0  0  0  0  0  0
  -21.6928   -5.4837   22.9787 C   0  0  0  0  0  0  0  0  0  0  0  0
  -24.9235  -11.8710   21.3526 C   0  0  0  0  0  0  0  0  0  0  0  0
  -25.1156  -13.8572   20.4290 C   0  0  0  0  0  0  0  0  0  0  0  0
  -22.8235  -13.3545   21.2905 C   0  0  0  0  0  0  0  0  0  0  0  0
  -24.1171  -28.4593   19.1045 C   0  0  0  0  0  0  0  0  0  0  0  0
  -26.6015  -30.4830   18.6002 C   0  0  0  0  0  0  0  0  0  0  0  0
  -31.1129  -14.1009   20.7203 C   0  0  0  0  0  0  0  0  0  0  0  0
  -29.9638  -31.0421   18.7721 C   0  0  0  0  0  0  0  0  0  0  0  0
  -19.0387  -28.7982   19.4944 C   0  0  0  0  0  0  0  0  0  0  0  0
  -25.2710  -28.4078   21.3455 C   0  0  0  0  0  0  0  0  0  0  0  0
  -27.1872  -28.0839   19.1165 C   0  0  0  0  0  0  0  0  0  0  0  0
  -20.1382  -29.6113   18.8161 C   0  0  0  0  0  0  0  0  0  0  0  0
  -29.0921  -13.7205   17.7857 C   0  0  0  0  0  0  0  0  0  0  0  0
  -21.0610  -28.6977   18.0157 C   0  0  0  0  0  0  0  0  0  0  0  0
  -27.7364  -13.2816   18.3378 C   0  0  0  0  0  0  0  0  0  0  0  0
  -30.2419  -13.1503   18.6103 C   0  0  0  0  0  0  0  0  0  0  0  0
  -28.8065  -13.0322   20.6220 C   0  0  0  0  0  0  0  0  0  0  0  0
  -21.7598  -27.6827   18.9283 C   0  0  1  0  0  0  0  0  0  0  0  0
  -25.0931  -29.1423   20.0203 C   0  0  1  0  0  0  0  0  0  0  0  0
  -27.6168  -13.6115   19.8362 C   0  0  2  0  0  0  0  0  0  0  0  0
  -31.7015  -32.7762   18.2521 C   0  0  0  0  0  0  0  0  0  0  0  0
  -28.7778  -15.1740   23.5104 C   0  0  0  0  0  0  0  0  0  0  0  0
  -32.3725  -20.4179   20.8629 C   0  0  0  0  0  0  0  0  0  0  0  0
  -30.8271  -19.7237   19.0676 C   0  0  0  0  0  0  0  0  0  0  0  0
  -30.6216  -13.0580   22.8888 C   0  0  0  0  0  0  0  0  0  0  0  0
  -32.1895  -15.0003   22.6947 C   0  0  0  0  0  0  0  0  0  0  0  0
  -26.3980  -29.7941   15.6347 C   0  0  0  0  0  0  0  0  0  0  0  0
  -28.6827  -30.7692   15.3228 C   0  0  0  0  0  0  0  0  0  0  0  0
  -26.8103  -32.2130   16.1179 C   0  0  0  0  0  0  0  0  0  0  0  0
  -28.0737  -21.4062   19.2569 C   0  0  0  0  0  0  0  0  0  0  0  0
  -27.7456  -20.0443   21.3337 C   0  0  0  0  0  0  0  0  0  0  0  0
  -30.7812  -31.2412   21.6096 C   0  0  0  0  0  0  0  0  0  0  0  0
  -30.0074  -21.2637   20.9398 C   0  0  0  0  0  0  0  0  0  0  0  0
  -27.8860  -22.5225   21.4859 C   0  0  0  0  0  0  0  0  0  1  0  0
  -27.8021  -30.4947   17.6850 C   0  0  1  0  0  0  0  0  0  0  0  0
  -30.7637  -32.2151   19.3096 C   0  0  2  0  0  0  0  0  0  0  0  0
  -29.6828  -15.4145   22.2865 C   0  0  2  0  0  0  0  0  0  0  0  0
  -30.8952  -20.0165   20.5815 C   0  0  0  0  0  0  0  0  0  0  0  0
  -30.8707  -14.3966   22.1790 C   0  0  0  0  0  0  0  0  0  0  0  0
  -27.4190  -30.7967   16.2087 C   0  0  0  0  0  0  0  0  0  0  0  0
  -28.4515  -21.2746   20.7478 C   0  0  0  0  0  0  0  0  0  0  0  0
  -30.3400  -17.4886   23.3267 N   0  0  0  0  0  0  0  0  0  0  0  0
  -26.2002  -11.9381   20.9658 N   0  0  0  0  0  0  0  0  0  0  0  0
  -30.0749  -16.8009   22.2028 N   0  0  0  0  0  0  0  0  0  0  0  0
  -26.2861  -13.1575   20.4075 N   0  0  0  0  0  0  0  0  0  0  0  0
  -26.3480  -29.2826   19.2788 N   0  0  0  0  0  0  0  0  0  0  0  0
  -30.0798  -13.4660   20.0306 N   0  0  0  0  0  0  0  0  0  0  0  0
  -25.0255  -15.1001   19.9100 N   0  0  0  0  0  0  0  0  0  0  0  0
  -22.0234  -12.3997   21.9327 N   0  0  0  0  0  0  0  0  0  0  0  0
  -22.8520  -28.3112   19.6402 N   0  0  0  0  0  0  0  0  0  0  0  0
  -28.7469  -31.4441   18.2633 N   0  0  0  0  0  0  0  0  0  0  0  0
  -31.5785  -31.7919   20.4835 N   0  3  0  0  0  0  0  0  0  0  0  0
  -22.3139  -14.4448   20.9369 O   0  0  0  0  0  0  0  0  0  0  0  0
  -24.4843  -28.0949   17.9936 O   0  0  0  0  0  0  0  0  0  0  0  0
  -25.9182  -31.5036   18.7144 O   0  0  0  0  0  0  0  0  0  0  0  0
  -32.1876  -14.4278   20.2100 O   0  0  0  0  0  0  0  0  0  0  0  0
  -30.3786  -29.8855   18.7976 O   0  0  0  0  0  0  0  0  0  0  0  0
  -23.0010   -7.2815   23.9036 O   0  0  0  0  0  0  0  0  0  0  0  0
  -28.4391  -23.7275   20.9584 O   0  0  0  0  0  0  0  0  0  1  0  0
  -18.1320   -5.2827   22.2597 F   0  0  0  0  0  0  0  0  0  0  0  0
  -22.7899   -4.7197   22.8862 F   0  0  0  0  0  0  0  0  0  0  0  0
  1  2  1  0  0  0  0
  1  5  2  0  0  0  0
  2  6  2  0  0  0  0
  3  8  2  0  0  0  0
  3 17  1  0  0  0  0
  4  9  1  0  0  0  0
  4 17  2  0  0  0  0
  5 19  1  0  0  0  0
  6 21  1  0  0  0  0
  7 10  2  0  0  0  0
  7 20  1  0  0  0  0
  8 24  1  0  0  0  0
  9 24  2  0  0  0  0
 10 25  1  0  0  0  0
 11 12  2  0  0  0  0
 11 26  1  0  0  0  0
 12 27  1  0  0  0  0
 13 22  1  0  0  0  0
 13 25  2  0  0  0  0
 14 27  2  0  0  0  0
 14 28  1  0  0  0  0
 15 23  1  0  0  0  0
 15 69  2  0  0  0  0
 16 23  2  0  0  0  0
 16 71  1  0  0  0  0
 17 29  1  0  0  0  0
 18 29  1  0  0  0  0
 18 30  2  0  0  0  0
 18 31  1  0  0  0  0
 19 21  2  0  0  0  0
 19 36  1  0  0  0  0
 20 22  2  0  0  0  0
 20 37  1  0  0  0  0
 21 45  1  0  0  0  0
 22 38  1  0  0  0  0
 23 65  1  0  0  0  0
 24 85  1  0  0  0  0
 25 86  1  0  0  0  0
 26 28  2  0  0  0  0
 26 85  1  0  0  0  0
 27 87  1  0  0  0  0
 28 88  1  0  0  0  0
 29 70  2  0  0  0  0
 30 72  1  0  0  0  0
 30 75  1  0  0  0  0
 31 76  1  0  0  0  0
 31 80  2  0  0  0  0
 32 46  1  0  0  0  0
 32 77  1  0  0  0  0
 32 81  2  0  0  0  0
 33 62  1  0  0  0  0
 33 73  1  0  0  0  0
 33 82  2  0  0  0  0
 34 66  1  0  0  0  0
 34 74  1  0  0  0  0
 34 83  2  0  0  0  0
 35 63  1  0  0  0  0
 35 78  1  0  0  0  0
 35 84  2  0  0  0  0
 36 39  1  0  0  0  0
 37 46  1  0  0  0  0
 38 73  1  0  0  0  0
 39 41  1  0  0  0  0
 40 42  1  0  0  0  0
 40 43  1  0  0  0  0
 41 45  1  0  0  0  0
 42 47  1  0  0  0  0
 43 74  1  0  0  0  0
 44 47  1  0  0  0  0
 44 74  1  0  0  0  0
 45 77  1  0  0  0  0
 46 73  1  0  0  0  0
 47 72  1  0  0  0  0
 48 63  1  0  0  0  0
 49 64  1  0  0  0  0
 50 65  1  0  0  0  0
 51 65  1  0  0  0  0
 52 66  1  0  0  0  0
 53 66  1  0  0  0  0
 54 67  1  0  0  0  0
 55 67  1  0  0  0  0
 56 67  1  0  0  0  0
 57 68  1  0  0  0  0
 58 68  1  0  0  0  0
 59 79  1  0  0  0  0
 60 65  1  0  0  0  0
 60 68  1  0  0  0  0
 61 68  1  0  0  0  0
 61 86  1  0  0  0  0
 62 67  1  0  0  0  0
 62 78  1  0  0  0  0
 63 79  1  0  0  0  0
 64 66  1  0  0  0  0
 64 71  1  0  0  0  0
 69 71  1  0  0  0  0
 70 72  1  0  0  0  0
M  CHG  1  79   1
M  ISO  4  34 100  61 101  66 100  86 101
M  END
> <Batch ID>
0064

> <Smiles>
CNC(C)C(=O)NC(C(=O)N1Cc2cc([101O:1][101CH2:1]C(C)(C)CC(C)(C)c3cnn(C(C)[100C:0](C)(C)[100C:0](=O)N4CCCC(n5nc(-c6ccc(Oc7ccc(F)cc7F)cc6)c(C(N)=O)c5N)C4)c3)ccc2CC1C(=O)NC1CCCc2ccccc21)C(C)(C)C

> <Shape>
0.269

> <Color>
0.146

> <Negative vol penalty>
0.000

$$$$

  -OEChem-04052318053D

 85 93  0     1  0  0  0  0  0999 V2000
  -21.6100  -11.6607   19.9309 C   0  0  0  0  0  0  0  0  0  0  0  0
  -21.4317  -12.8924   20.5526 C   0  0  0  0  0  0  0  0  0  0  0  0
  -29.9345  -26.7249   20.7972 C   0  0  0  0  0  0  0  0  0  0  0  0
  -28.3202  -24.9419   21.0255 C   0  0  0  0  0  0  0  0  0  0  0  0
  -22.8949  -11.1478   19.7584 C   0  0  0  0  0  0  0  0  0  0  0  0
  -22.5382  -13.6114   21.0033 C   0  0  0  0  0  0  0  0  0  0  0  0
  -23.1973  -19.6997   21.0631 C   0  0  0  0  0  0  0  0  0  0  0  0
  -30.8996  -25.9304   21.4159 C   0  0  0  0  0  0  0  0  0  0  0  0
  -29.2854  -24.1473   21.6442 C   0  0  0  0  0  0  0  0  0  0  0  0
  -23.0351  -20.6509   22.0695 C   0  0  0  0  0  0  0  0  0  0  0  0
  -30.6948  -23.8690   24.7047 C   0  0  0  0  0  0  0  0  0  0  0  0
  -30.3213  -23.1726   25.8540 C   0  0  0  0  0  0  0  0  0  0  0  0
  -25.4042  -20.5722   22.5172 C   0  0  0  0  0  0  0  0  0  0  0  0
  -30.8491  -21.0841   24.7601 C   0  0  0  0  0  0  0  0  0  0  0  0
  -19.8779  -24.7130   23.4231 C   0  0  0  0  0  0  0  0  0  0  0  0
  -28.6447  -26.2307   20.6020 C   0  0  0  0  0  0  0  0  0  0  0  0
  -27.3654  -27.1297   18.5864 C   0  0  0  0  0  0  0  0  0  0  0  0
  -24.0184  -11.8653   20.1985 C   0  0  0  0  0  0  0  0  0  0  0  0
  -24.4646  -19.1687   20.7831 C   0  0  0  0  0  0  0  0  0  0  0  0
  -23.8393  -13.1069   20.8378 C   0  0  0  0  0  0  0  0  0  0  0  0
  -25.5802  -19.6163   21.5051 C   0  0  0  0  0  0  0  0  0  0  0  0
  -30.5751  -24.6416   21.8394 C   0  0  0  0  0  0  0  0  0  0  0  0
  -24.1382  -21.0852   22.7986 C   0  0  0  0  0  0  0  0  0  0  0  0
  -31.1455  -23.1730   23.5830 C   0  0  0  0  0  0  0  0  0  0  0  0
  -30.3985  -21.7801   25.8818 C   0  0  0  0  0  0  0  0  0  0  0  0
  -31.2226  -21.7805   23.6107 C   0  0  0  0  0  0  0  0  0  0  0  0
  -27.6472  -27.0512   19.9635 C   0  0  0  0  0  0  0  0  0  0  0  0
  -26.3431  -28.0426   18.4967 C   0  0  0  0  0  0  0  0  0  0  0  0
  -20.3106  -26.7280   23.0914 C   0  0  0  0  0  0  0  0  0  0  0  0
  -27.9733  -26.4392   17.4867 C   0  0  0  0  0  0  0  0  0  0  0  0
  -25.7550  -16.2659   20.8946 C   0  0  0  0  0  0  0  0  0  0  0  0
  -28.2928  -17.7673   19.5426 C   0  0  0  0  0  0  0  0  0  0  0  0
  -29.9961  -20.6783   19.0211 C   0  0  0  0  0  0  0  0  0  0  0  0
  -22.1326  -29.8416   22.3550 C   0  0  0  0  0  0  0  0  0  0  0  0
  -25.3846  -11.2483   20.0324 C   0  0  0  0  0  0  0  0  0  0  0  0
  -24.6269  -18.1631   19.6764 C   0  0  0  0  0  0  0  0  0  0  0  0
  -26.9652  -19.0925   21.2298 C   0  0  0  0  0  0  0  0  0  0  0  0
  -26.5279  -12.2454   20.2023 C   0  0  0  0  0  0  0  0  0  0  0  0
  -24.5460  -31.8819   20.7151 C   0  0  0  0  0  0  0  0  0  0  0  0
  -26.3053  -13.1068   21.4413 C   0  0  0  0  0  0  0  0  0  0  0  0
  -25.5890  -30.8823   20.2122 C   0  0  0  0  0  0  0  0  0  0  0  0
  -23.9775  -31.4701   22.0713 C   0  0  0  0  0  0  0  0  0  0  0  0
  -24.4799  -29.0994   21.6229 C   0  0  0  0  0  0  0  0  0  0  0  0
  -25.0162  -13.9280   21.3180 C   0  0  1  0  0  0  0  0  0  0  0  0
  -25.8839  -17.3111   19.8228 C   0  0  1  0  0  0  0  0  0  0  0  0
  -25.0413  -29.4425   20.2324 C   0  0  2  0  0  0  0  0  0  0  0  0
  -19.4944  -28.3511   21.3418 C   0  0  0  0  0  0  0  0  0  0  0  0
  -31.7347  -22.2215   18.0762 C   0  0  0  0  0  0  0  0  0  0  0  0
  -30.0083  -16.6239   21.7919 C   0  0  0  0  0  0  0  0  0  0  0  0
  -31.7808  -18.2870   21.1913 C   0  0  0  0  0  0  0  0  0  0  0  0
  -31.0764  -16.5633   19.5314 C   0  0  0  0  0  0  0  0  0  0  0  0
  -20.4204  -23.0170   26.0543 C   0  0  0  0  0  0  0  0  0  0  0  0
  -21.5827  -25.0735   26.7807 C   0  0  0  0  0  0  0  0  0  0  0  0
  -28.3275  -21.2985   16.6567 C   0  0  0  0  0  0  0  0  0  0  0  0
  -22.6610  -22.4989   24.0132 C   0  0  0  0  0  0  0  0  0  1  0  0
  -20.3847  -28.0944   22.5819 C   0  0  2  0  0  0  0  0  0  0  0  0
  -29.5165  -18.4799   20.0658 C   0  0  1  0  0  0  0  0  0  0  0  0
  -30.5688  -21.2980   17.7592 C   0  0  2  0  0  0  0  0  0  0  0  0
  -30.5692  -17.4971   20.6518 C   0  0  0  0  0  0  0  0  0  0  0  0
  -21.3509  -24.1518   25.5552 C   0  0  0  0  0  0  0  0  0  0  0  0
  -22.7166  -23.5339   25.1291 C   0  0  0  0  0  0  0  0  0  0  0  0
  -19.5861  -25.7548   22.5899 N   0  0  0  0  0  0  0  0  0  0  0  0
  -26.8670  -27.8506   20.6958 N   0  0  0  0  0  0  0  0  0  0  0  0
  -20.9985  -26.2753   24.1738 N   0  0  0  0  0  0  0  0  0  0  0  0
  -20.7373  -24.9804   24.4086 N   0  0  0  0  0  0  0  0  0  0  0  0
  -26.0850  -28.4401   19.7756 N   0  0  0  0  0  0  0  0  0  0  0  0
  -27.0715  -18.1060   20.1422 N   0  0  0  0  0  0  0  0  0  0  0  0
  -23.4735  -30.0956   22.0224 N   0  0  0  0  0  0  0  0  0  0  0  0
  -25.6488  -28.5361   17.4494 N   0  0  0  0  0  0  0  0  0  0  0  0
  -29.0104  -25.5358   17.7562 N   0  0  0  0  0  0  0  0  0  0  0  0
  -25.2247  -15.0690   20.4524 N   0  0  0  0  0  0  0  0  0  0  0  0
  -30.0123  -19.3006   18.9662 N   0  0  0  0  0  0  0  0  0  0  0  0
  -21.7347  -28.5126   22.2764 N   0  0  0  0  0  0  0  0  0  0  0  0
  -29.5231  -22.0879   17.0494 N   0  3  0  0  0  0  0  0  0  0  0  0
  -27.6187  -26.6302   16.2988 O   0  0  0  0  0  0  0  0  0  0  0  0
  -26.1118  -16.5257   22.0379 O   0  0  0  0  0  0  0  0  0  0  0  0
  -28.4150  -16.9459   18.6305 O   0  0  0  0  0  0  0  0  0  0  0  0
  -29.5796  -21.3492   19.9629 O   0  0  0  0  0  0  0  0  0  0  0  0
  -21.3468  -30.7338   22.6916 O   0  0  0  0  0  0  0  0  0  0  0  0
  -31.5167  -23.8659   22.4429 O   0  0  0  0  0  0  0  0  0  0  0  0
  -23.9827  -22.0130   23.7819 O   0  0  0  0  0  0  0  0  0  1  0  0
  -30.0412  -21.1116   26.9861 F   0  0  0  0  0  0  0  0  0  0  0  0
  -31.6559  -21.1065   22.5366 F   0  0  0  0  0  0  0  0  0  0  0  0
  -23.5730  -24.5227   24.7506 F   0  0  0  0  0  0  0  0  0  0  0  0
  -23.2920  -22.9492   26.2194 F   0  0  0  0  0  0  0  0  0  0  0  0
  1  2  1  0  0  0  0
  1  5  2  0  0  0  0
  2  6  2  0  0  0  0
  3  8  2  0  0  0  0
  3 16  1  0  0  0  0
  4  9  1  0  0  0  0
  4 16  2  0  0  0  0
  5 18  1  0  0  0  0
  6 20  1  0  0  0  0
  7 10  2  0  0  0  0
  7 19  1  0  0  0  0
  8 22  1  0  0  0  0
  9 22  2  0  0  0  0
 10 23  1  0  0  0  0
 11 12  2  0  0  0  0
 11 24  1  0  0  0  0
 12 25  1  0  0  0  0
 13 21  1  0  0  0  0
 13 23  2  0  0  0  0
 14 25  2  0  0  0  0
 14 26  1  0  0  0  0
 15 62  2  0  0  0  0
 15 65  1  0  0  0  0
 16 27  1  0  0  0  0
 17 27  1  0  0  0  0
 17 28  2  0  0  0  0
 17 30  1  0  0  0  0
 18 20  2  0  0  0  0
 18 35  1  0  0  0  0
 19 21  2  0  0  0  0
 19 36  1  0  0  0  0
 20 44  1  0  0  0  0
 21 37  1  0  0  0  0
 22 80  1  0  0  0  0
 23 81  1  0  0  0  0
 24 26  2  0  0  0  0
 24 80  1  0  0  0  0
 25 82  1  0  0  0  0
 26 83  1  0  0  0  0
 27 63  2  0  0  0  0
 28 66  1  0  0  0  0
 28 69  1  0  0  0  0
 29 56  1  0  0  0  0
 29 62  1  0  0  0  0
 29 64  2  0  0  0  0
 30 70  1  0  0  0  0
 30 75  2  0  0  0  0
 31 45  1  0  0  0  0
 31 71  1  0  0  0  0
 31 76  2  0  0  0  0
 32 57  1  0  0  0  0
 32 67  1  0  0  0  0
 32 77  2  0  0  0  0
 33 58  1  0  0  0  0
 33 72  1  0  0  0  0
 33 78  2  0  0  0  0
 34 68  1  0  0  0  0
 34 73  1  0  0  0  0
 34 79  2  0  0  0  0
 35 38  1  0  0  0  0
 36 45  1  0  0  0  0
 37 67  1  0  0  0  0
 38 40  1  0  0  0  0
 39 41  1  0  0  0  0
 39 42  1  0  0  0  0
 40 44  1  0  0  0  0
 41 46  1  0  0  0  0
 42 68  1  0  0  0  0
 43 46  1  0  0  0  0
 43 68  1  0  0  0  0
 44 71  1  0  0  0  0
 45 67  1  0  0  0  0
 46 66  1  0  0  0  0
 47 56  1  0  0  0  0
 48 58  1  0  0  0  0
 49 59  1  0  0  0  0
 50 59  1  0  0  0  0
 51 59  1  0  0  0  0
 52 60  1  0  0  0  0
 53 60  1  0  0  0  0
 54 74  1  0  0  0  0
 55 61  1  0  0  0  0
 55 81  1  0  0  0  0
 56 73  1  0  0  0  0
 57 59  1  0  0  0  0
 57 72  1  0  0  0  0
 58 74  1  0  0  0  0
 60 61  1  0  0  0  0
 60 65  1  0  0  0  0
 61 84  1  0  0  0  0
 61 85  1  0  0  0  0
 63 66  1  0  0  0  0
 64 65  1  0  0  0  0
M  CHG  1  74   1
M  ISO  4  34 100  55 101  73 100  81 101
M  END
> <Batch ID>
0064

> <Smiles>
CNC(C)C(=O)NC(C(=O)N1Cc2cc([101O:1][101CH2:1]C(F)(F)C(C)(C)n3cnc(C(C)[100NH:0][100C:0](=O)N4CCCC(n5nc(-c6ccc(Oc7ccc(F)cc7F)cc6)c(C(N)=O)c5N)C4)n3)ccc2CC1C(=O)NC1CCCc2ccccc21)C(C)(C)C

> <Shape>
0.230

> <Color>
0.074

> <Negative vol penalty>
0.000

$$$$

  -OEChem-04052318053D

 84 92  0     1  0  0  0  0  0999 V2000
  -22.5082  -33.3821   16.4640 C   0  0  0  0  0  0  0  0  0  0  0  0
  -21.7665  -32.2319   16.7134 C   0  0  0  0  0  0  0  0  0  0  0  0
  -24.2905  -10.1534   22.1141 C   0  0  0  0  0  0  0  0  0  0  0  0
  -24.7627  -11.6466   23.9538 C   0  0  0  0  0  0  0  0  0  0  0  0
  -23.7443  -33.5612   17.0835 C   0  0  0  0  0  0  0  0  0  0  0  0
  -22.2611  -31.2594   17.5819 C   0  0  0  0  0  0  0  0  0  0  0  0
  -20.0556  -26.4013   22.3621 C   0  0  0  0  0  0  0  0  0  0  0  0
  -23.9400   -9.1506   23.0180 C   0  0  0  0  0  0  0  0  0  0  0  0
  -24.4122  -10.6438   24.8578 C   0  0  0  0  0  0  0  0  0  0  0  0
  -20.1904  -25.0462   22.6612 C   0  0  0  0  0  0  0  0  0  0  0  0
  -21.2761   -8.3496   24.9403 C   0  0  0  0  0  0  0  0  0  0  0  0
  -20.1135   -7.6229   24.6836 C   0  0  0  0  0  0  0  0  0  0  0  0
  -22.3018  -25.4996   23.7361 C   0  0  0  0  0  0  0  0  0  0  0  0
  -21.4094   -5.5865   24.5793 C   0  0  0  0  0  0  0  0  0  0  0  0
  -27.5986  -18.6414   23.2076 C   0  0  0  0  0  0  0  0  0  0  0  0
  -25.3602  -17.3132   22.6140 C   0  0  0  0  0  0  0  0  0  0  0  0
  -24.7019  -11.4014   22.5820 C   0  0  0  0  0  0  0  0  0  0  0  0
  -24.2150  -13.4059   21.0812 C   0  0  0  0  0  0  0  0  0  0  0  0
  -24.2499  -32.5949   17.9675 C   0  0  0  0  0  0  0  0  0  0  0  0
  -21.0499  -27.3156   22.7388 C   0  0  0  0  0  0  0  0  0  0  0  0
  -23.5058  -31.4251   18.2128 C   0  0  0  0  0  0  0  0  0  0  0  0
  -22.1761  -26.8661   23.4429 C   0  0  0  0  0  0  0  0  0  0  0  0
  -24.0008   -9.3957   24.3898 C   0  0  0  0  0  0  0  0  0  0  0  0
  -21.3149  -24.5947   23.3457 C   0  0  0  0  0  0  0  0  0  0  0  0
  -22.5054   -7.6948   25.0164 C   0  0  0  0  0  0  0  0  0  0  0  0
  -20.1801   -6.2414   24.5031 C   0  0  0  0  0  0  0  0  0  0  0  0
  -22.5720   -6.3132   24.8360 C   0  0  0  0  0  0  0  0  0  0  0  0
  -25.0647  -12.4376   21.6488 C   0  0  0  0  0  0  0  0  0  0  0  0
  -27.6337  -17.3089   22.8602 C   0  0  0  0  0  0  0  0  0  0  0  0
  -25.3249  -18.6455   22.9622 C   0  0  0  0  0  0  0  0  0  0  0  0
  -25.0359  -14.1490   20.2685 C   0  0  0  0  0  0  0  0  0  0  0  0
  -22.8094  -13.6151   21.2716 C   0  0  0  0  0  0  0  0  0  0  0  0
  -23.0051  -29.2740   21.1751 C   0  0  0  0  0  0  0  0  0  0  0  0
  -23.7742  -30.2647   24.1667 C   0  0  0  0  0  0  0  0  0  0  0  0
  -23.9181  -29.5633   27.5034 C   0  0  0  0  0  0  0  0  0  0  0  0
  -31.1215  -14.7919   20.5687 C   0  0  0  0  0  0  0  0  0  0  0  0
  -25.6125  -32.8107   18.5769 C   0  0  0  0  0  0  0  0  0  0  0  0
  -20.8768  -28.7779   22.4322 C   0  0  0  0  0  0  0  0  0  0  0  0
  -23.2622  -27.8100   23.8875 C   0  0  0  0  0  0  0  0  0  0  0  0
  -25.8947  -31.9061   19.7737 C   0  0  0  0  0  0  0  0  0  0  0  0
  -29.0322  -13.8326   17.6676 C   0  0  0  0  0  0  0  0  0  0  0  0
  -25.4987  -30.4668   19.4601 C   0  0  0  0  0  0  0  0  0  0  0  0
  -27.7310  -13.3816   18.3289 C   0  0  0  0  0  0  0  0  0  0  0  0
  -30.2352  -13.6249   18.5828 C   0  0  0  0  0  0  0  0  0  0  0  0
  -28.7909  -13.8116   20.5811 C   0  0  0  0  0  0  0  0  0  0  0  0
  -23.9972  -30.3589   19.1677 C   0  0  1  0  0  0  0  0  0  0  0  0
  -22.1958  -29.5443   22.4119 C   0  0  1  0  0  0  0  0  0  0  0  0
  -27.5534  -14.0505   19.7031 C   0  0  2  0  0  0  0  0  0  0  0  0
  -24.6294  -30.5553   29.6960 C   0  0  0  0  0  0  0  0  0  0  0  0
  -26.6939  -29.7356   23.4561 C   0  0  0  0  0  0  0  0  0  0  0  0
  -27.2313  -29.8192   25.9000 C   0  0  0  0  0  0  0  0  0  0  0  0
  -26.3012  -31.8334   24.7597 C   0  0  0  0  0  0  0  0  0  0  0  0
  -31.9764  -16.5012   22.1266 C   0  0  0  0  0  0  0  0  0  0  0  0
  -21.1709  -29.4150   28.5941 C   0  0  0  0  0  0  0  0  0  0  0  0
  -28.9285  -16.5757   22.8077 C   0  0  0  0  0  0  0  0  0  0  0  0
  -22.7805  -21.2836   23.3322 C   0  0  0  0  0  0  0  0  0  0  0  0
  -29.6119  -16.6286   21.4349 C   0  0  0  0  0  0  0  0  0  0  0  0
  -22.7772  -22.7556   23.7137 C   0  0  0  0  0  0  0  0  0  1  0  0
  -24.1787  -20.6875   23.3770 C   0  0  0  0  0  0  0  0  0  0  0  0
  -24.7940  -29.8520   25.2004 C   0  0  1  0  0  0  0  0  0  0  0  0
  -23.4800  -30.3588   28.7198 C   0  0  2  0  0  0  0  0  0  0  0  0
  -26.2357  -30.2917   24.8191 C   0  0  0  0  0  0  0  0  0  0  0  0
  -26.5152  -16.6209   22.5568 N   0  0  0  0  0  0  0  0  0  0  0  0
  -26.4435  -19.3335   23.2652 N   0  0  0  0  0  0  0  0  0  0  0  0
  -26.3284  -12.5524   21.2319 N   0  0  0  0  0  0  0  0  0  0  0  0
  -26.2789  -13.6016   20.3936 N   0  0  0  0  0  0  0  0  0  0  0  0
  -23.0502  -29.2293   23.5586 N   0  0  0  0  0  0  0  0  0  0  0  0
  -30.0221  -14.2335   19.8963 N   0  0  0  0  0  0  0  0  0  0  0  0
  -24.8085  -15.2106   19.4661 N   0  0  0  0  0  0  0  0  0  0  0  0
  -22.1186  -12.7606   22.1415 N   0  0  0  0  0  0  0  0  0  0  0  0
  -23.2387  -30.3937   20.3998 N   0  0  0  0  0  0  0  0  0  0  0  0
  -24.3235  -30.3861   26.4739 N   0  0  0  0  0  0  0  0  0  0  0  0
  -30.8671  -15.8807   21.4164 N   0  0  0  0  0  0  0  0  0  0  0  0
  -22.3757  -29.6535   29.4298 N   0  3  0  0  0  0  0  0  0  0  0  0
  -22.1814  -14.5224   20.6749 O   0  0  0  0  0  0  0  0  0  0  0  0
  -23.3904  -28.1343   20.9423 O   0  0  0  0  0  0  0  0  0  0  0  0
  -23.6204  -31.4621   23.9134 O   0  0  0  0  0  0  0  0  0  0  0  0
  -23.9058  -28.3347   27.4712 O   0  0  0  0  0  0  0  0  0  0  0  0
  -32.2667  -14.3490   20.4125 O   0  0  0  0  0  0  0  0  0  0  0  0
  -23.6586   -8.4175   25.2721 O   0  0  0  0  0  0  0  0  0  0  0  0
  -21.4492  -23.2725   23.6383 O   0  0  0  0  0  0  0  0  0  1  0  0
  -24.1302  -19.3156   23.0092 O   0  0  0  0  0  0  0  0  0  0  0  0
  -19.0634   -5.5435   24.2582 F   0  0  0  0  0  0  0  0  0  0  0  0
  -23.7499   -5.6784   24.9092 F   0  0  0  0  0  0  0  0  0  0  0  0
  1  2  1  0  0  0  0
  1  5  2  0  0  0  0
  2  6  2  0  0  0  0
  3  8  2  0  0  0  0
  3 17  1  0  0  0  0
  4  9  1  0  0  0  0
  4 17  2  0  0  0  0
  5 19  1  0  0  0  0
  6 21  1  0  0  0  0
  7 10  2  0  0  0  0
  7 20  1  0  0  0  0
  8 23  1  0  0  0  0
  9 23  2  0  0  0  0
 10 24  1  0  0  0  0
 11 12  2  0  0  0  0
 11 25  1  0  0  0  0
 12 26  1  0  0  0  0
 13 22  1  0  0  0  0
 13 24  2  0  0  0  0
 14 26  2  0  0  0  0
 14 27  1  0  0  0  0
 15 29  2  0  0  0  0
 15 64  1  0  0  0  0
 16 30  1  0  0  0  0
 16 63  2  0  0  0  0
 17 28  1  0  0  0  0
 18 28  1  0  0  0  0
 18 31  2  0  0  0  0
 18 32  1  0  0  0  0
 19 21  2  0  0  0  0
 19 37  1  0  0  0  0
 20 22  2  0  0  0  0
 20 38  1  0  0  0  0
 21 46  1  0  0  0  0
 22 39  1  0  0  0  0
 23 80  1  0  0  0  0
 24 81  1  0  0  0  0
 25 27  2  0  0  0  0
 25 80  1  0  0  0  0
 26 83  1  0  0  0  0
 27 84  1  0  0  0  0
 28 65  2  0  0  0  0
 29 55  1  0  0  0  0
 29 63  1  0  0  0  0
 30 64  2  0  0  0  0
 30 82  1  0  0  0  0
 31 66  1  0  0  0  0
 31 69  1  0  0  0  0
 32 70  1  0  0  0  0
 32 75  2  0  0  0  0
 33 47  1  0  0  0  0
 33 71  1  0  0  0  0
 33 76  2  0  0  0  0
 34 60  1  0  0  0  0
 34 67  1  0  0  0  0
 34 77  2  0  0  0  0
 35 61  1  0  0  0  0
 35 72  1  0  0  0  0
 35 78  2  0  0  0  0
 36 68  1  0  0  0  0
 36 73  1  0  0  0  0
 36 79  2  0  0  0  0
 37 40  1  0  0  0  0
 38 47  1  0  0  0  0
 39 67  1  0  0  0  0
 40 42  1  0  0  0  0
 41 43  1  0  0  0  0
 41 44  1  0  0  0  0
 42 46  1  0  0  0  0
 43 48  1  0  0  0  0
 44 68  1  0  0  0  0
 45 48  1  0  0  0  0
 45 68  1  0  0  0  0
 46 71  1  0  0  0  0
 47 67  1  0  0  0  0
 48 66  1  0  0  0  0
 49 61  1  0  0  0  0
 50 62  1  0  0  0  0
 51 62  1  0  0  0  0
 52 62  1  0  0  0  0
 53 73  1  0  0  0  0
 54 74  1  0  0  0  0
 55 57  1  0  0  0  0
 56 58  1  0  0  0  0
 56 59  1  0  0  0  0
 57 73  1  0  0  0  0
 58 81  1  0  0  0  0
 59 82  1  0  0  0  0
 60 62  1  0  0  0  0
 60 72  1  0  0  0  0
 61 74  1  0  0  0  0
 65 66  1  0  0  0  0
M  CHG  1  74   1
M  ISO  4  36 100  58 101  73 100  81 101
M  END
> <Batch ID>
0064

> <Smiles>
CNC(C)C(=O)NC(C(=O)N1Cc2cc([101O:1][101CH2:1]CCOc3cnc(CC[100N:0](C)[100C:0](=O)N4CCCC(n5nc(-c6ccc(Oc7ccc(F)cc7F)cc6)c(C(N)=O)c5N)C4)cn3)ccc2CC1C(=O)NC1CCCc2ccccc21)C(C)(C)C

> <Shape>
0.239

> <Color>
0.102

> <Negative vol penalty>
0.000

$$$$

  -OEChem-04052318052D

  0  0  0     0  0  0  0  0  0999 V2000
M  END
$$$$

  -OEChem-04052318053D

 85 93  0     1  0  0  0  0  0999 V2000
  -17.2253  -27.4493   22.5412 C   0  0  0  0  0  0  0  0  0  0  0  0
  -18.3136  -27.0353   21.7799 C   0  0  0  0  0  0  0  0  0  0  0  0
  -24.1216  -13.3307   21.2588 C   0  0  0  0  0  0  0  0  0  0  0  0
  -26.4470  -13.1722   20.6227 C   0  0  0  0  0  0  0  0  0  0  0  0
  -17.3592  -28.5230   23.4206 C   0  0  0  0  0  0  0  0  0  0  0  0
  -19.5363  -27.6955   21.8968 C   0  0  0  0  0  0  0  0  0  0  0  0
  -25.1174  -25.2083   21.4833 C   0  0  0  0  0  0  0  0  0  0  0  0
  -23.8909  -12.0599   20.7321 C   0  0  0  0  0  0  0  0  0  0  0  0
  -26.2162  -11.9013   20.0960 C   0  0  0  0  0  0  0  0  0  0  0  0
  -26.0383  -25.1387   20.4388 C   0  0  0  0  0  0  0  0  0  0  0  0
  -24.3923   -8.8485   21.6639 C   0  0  0  0  0  0  0  0  0  0  0  0
  -23.6341   -7.9591   22.4253 C   0  0  0  0  0  0  0  0  0  0  0  0
  -27.1680  -27.0824   21.3135 C   0  0  0  0  0  0  0  0  0  0  0  0
  -22.0098   -7.8176   20.6424 C   0  0  0  0  0  0  0  0  0  0  0  0
  -25.3997  -13.8869   21.2041 C   0  0  0  0  0  0  0  0  0  0  0  0
  -26.0207  -15.5181   23.0645 C   0  0  0  0  0  0  0  0  0  0  0  0
  -18.5868  -29.1905   23.5554 C   0  0  0  0  0  0  0  0  0  0  0  0
  -25.2086  -26.2236   22.4462 C   0  0  0  0  0  0  0  0  0  0  0  0
  -19.6864  -28.7799   22.7778 C   0  0  0  0  0  0  0  0  0  0  0  0
  -26.2486  -27.1611   22.3706 C   0  0  0  0  0  0  0  0  0  0  0  0
  -24.9382  -11.3452   20.1507 C   0  0  0  0  0  0  0  0  0  0  0  0
  -27.0621  -26.0776   20.3522 C   0  0  0  0  0  0  0  0  0  0  0  0
  -23.9592   -9.2226   20.3918 C   0  0  0  0  0  0  0  0  0  0  0  0
  -22.4429   -7.4436   21.9146 C   0  0  0  0  0  0  0  0  0  0  0  0
  -22.7680   -8.7070   19.8811 C   0  0  0  0  0  0  0  0  0  0  0  0
  -25.6386  -15.1998   21.7475 C   0  0  0  0  0  0  0  0  0  0  0  0
  -26.1172  -16.8882   23.0723 C   0  0  0  0  0  0  0  0  0  0  0  0
  -29.8336  -22.1635   18.7834 C   0  0  0  0  0  0  0  0  0  0  0  0
  -30.2982  -23.5301   20.2913 C   0  0  0  0  0  0  0  0  0  0  0  0
  -26.2666  -14.6527   24.1808 C   0  0  0  0  0  0  0  0  0  0  0  0
  -23.3304  -28.6169   23.3672 C   0  0  0  0  0  0  0  0  0  0  0  0
  -25.5902  -28.9907   25.6642 C   0  0  0  0  0  0  0  0  0  0  0  0
  -28.8185  -28.5049   26.6587 C   0  0  0  0  0  0  0  0  0  0  0  0
  -27.1389  -20.9286   18.7732 C   0  0  0  0  0  0  0  0  0  0  0  0
  -18.6703  -30.3758   24.4842 C   0  0  0  0  0  0  0  0  0  0  0  0
  -24.2232  -26.2690   23.5817 C   0  0  0  0  0  0  0  0  0  0  0  0
  -26.4025  -28.2587   23.3905 C   0  0  0  0  0  0  0  0  0  0  0  0
  -20.1016  -30.7830   24.8247 C   0  0  0  0  0  0  0  0  0  0  0  0
  -24.3225  -20.7805   20.9464 C   0  0  0  0  0  0  0  0  0  0  0  0
  -20.9571  -30.8330   23.5628 C   0  0  0  0  0  0  0  0  0  0  0  0
  -24.3749  -19.3622   21.5169 C   0  0  0  0  0  0  0  0  0  0  0  0
  -24.7692  -20.8184   19.4866 C   0  0  0  0  0  0  0  0  0  0  0  0
  -26.1413  -18.7949   19.7974 C   0  0  0  0  0  0  0  0  0  0  0  0
  -21.0358  -29.4549   22.8948 C   0  0  1  0  0  0  0  0  0  0  0  0
  -24.1068  -27.6511   24.2170 C   0  0  1  0  0  0  0  0  0  0  0  0
  -25.7531  -18.7145   21.2837 C   0  0  2  0  0  0  0  0  0  0  0  0
  -31.0116  -23.2586   22.6796 C   0  0  0  0  0  0  0  0  0  0  0  0
  -30.3790  -28.9534   28.5721 C   0  0  0  0  0  0  0  0  0  0  0  0
  -30.6383  -19.7792   18.2036 C   0  0  0  0  0  0  0  0  0  0  0  0
  -29.2621  -21.0913   16.5938 C   0  0  0  0  0  0  0  0  0  0  0  0
  -25.8062  -31.9092   24.8007 C   0  0  0  0  0  0  0  0  0  0  0  0
  -27.9754  -32.0439   26.0435 C   0  0  0  0  0  0  0  0  0  0  0  0
  -25.8635  -31.5463   27.2744 C   0  0  0  0  0  0  0  0  0  0  0  0
  -31.7335  -26.2336   19.1528 C   0  0  0  0  0  0  0  0  0  0  0  0
  -30.1124  -25.9228   17.2947 C   0  0  0  0  0  0  0  0  0  0  0  0
  -29.2820  -25.6168   27.1094 C   0  0  0  0  0  0  0  0  0  0  0  0
  -30.6198  -24.2215   21.5526 C   0  0  0  0  0  0  0  0  0  0  0  0
  -29.2784  -26.4953   19.5977 C   0  0  0  0  0  0  0  0  0  1  0  0
  -26.8754  -29.7739   25.7821 C   0  0  1  0  0  0  0  0  0  0  0  0
  -29.4039  -27.9652   27.9512 C   0  0  2  0  0  0  0  0  0  0  0  0
  -29.5330  -20.8890   18.1206 C   0  0  0  0  0  0  0  0  0  0  0  0
  -26.6264  -31.2989   25.9547 C   0  0  0  0  0  0  0  0  0  0  0  0
  -30.3314  -25.6781   18.8055 C   0  0  0  0  0  0  0  0  0  0  0  0
  -25.5014  -16.2806   20.9749 N   0  0  0  0  0  0  0  0  0  0  0  0
  -30.0879  -22.2452   20.1225 N   0  0  0  0  0  0  0  0  0  0  0  0
  -29.8733  -23.3170   18.1130 N   0  0  0  0  0  0  0  0  0  0  0  0
  -25.7990  -17.2915   21.8089 N   0  0  0  0  0  0  0  0  0  0  0  0
  -30.1723  -24.1748   19.1004 N   0  0  0  0  0  0  0  0  0  0  0  0
  -25.4104  -28.2647   24.4783 N   0  0  0  0  0  0  0  0  0  0  0  0
  -26.0837  -20.1902   19.3340 N   0  0  0  0  0  0  0  0  0  0  0  0
  -26.4422  -17.7752   24.0367 N   0  0  0  0  0  0  0  0  0  0  0  0
  -26.1220  -13.2705   23.9993 N   0  0  0  0  0  0  0  0  0  0  0  0
  -21.9686  -28.6033   23.6012 N   0  0  0  0  0  0  0  0  0  0  0  0
  -27.6265  -29.1638   26.8739 N   0  0  0  0  0  0  0  0  0  0  0  0
  -28.3528  -20.2602   18.6705 N   0  0  0  0  0  0  0  0  0  0  0  0
  -30.1273  -26.6871   27.6983 N   0  3  0  0  0  0  0  0  0  0  0  0
  -26.5887  -15.0932   25.3103 O   0  0  0  0  0  0  0  0  0  0  0  0
  -23.9232  -29.3232   22.5601 O   0  0  0  0  0  0  0  0  0  0  0  0
  -24.7790  -29.0163   26.5931 O   0  0  0  0  0  0  0  0  0  0  0  0
  -29.3658  -28.3599   25.5679 O   0  0  0  0  0  0  0  0  0  0  0  0
  -27.0102  -22.0986   18.3972 O   0  0  0  0  0  0  0  0  0  0  0  0
  -24.7134  -10.1051   19.6368 O   0  0  0  0  0  0  0  0  0  0  0  0
  -27.9619  -26.0124   19.3334 O   0  0  0  0  0  0  0  0  0  1  0  0
  -21.7157   -6.5883   22.6452 F   0  0  0  0  0  0  0  0  0  0  0  0
  -22.3474   -9.0617   18.6591 F   0  0  0  0  0  0  0  0  0  0  0  0
  1  2  1  0  0  0  0
  1  5  2  0  0  0  0
  2  6  2  0  0  0  0
  3  8  2  0  0  0  0
  3 15  1  0  0  0  0
  4  9  1  0  0  0  0
  4 15  2  0  0  0  0
  5 17  1  0  0  0  0
  6 19  1  0  0  0  0
  7 10  2  0  0  0  0
  7 18  1  0  0  0  0
  8 21  1  0  0  0  0
  9 21  2  0  0  0  0
 10 22  1  0  0  0  0
 11 12  2  0  0  0  0
 11 23  1  0  0  0  0
 12 24  1  0  0  0  0
 13 20  1  0  0  0  0
 13 22  2  0  0  0  0
 14 24  2  0  0  0  0
 14 25  1  0  0  0  0
 15 26  1  0  0  0  0
 16 26  1  0  0  0  0
 16 27  2  0  0  0  0
 16 30  1  0  0  0  0
 17 19  2  0  0  0  0
 17 35  1  0  0  0  0
 18 20  2  0  0  0  0
 18 36  1  0  0  0  0
 19 44  1  0  0  0  0
 20 37  1  0  0  0  0
 21 82  1  0  0  0  0
 22 83  1  0  0  0  0
 23 25  2  0  0  0  0
 23 82  1  0  0  0  0
 24 84  1  0  0  0  0
 25 85  1  0  0  0  0
 26 64  2  0  0  0  0
 27 67  1  0  0  0  0
 27 71  1  0  0  0  0
 28 61  1  0  0  0  0
 28 65  1  0  0  0  0
 28 66  2  0  0  0  0
 29 57  1  0  0  0  0
 29 65  2  0  0  0  0
 29 68  1  0  0  0  0
 30 72  1  0  0  0  0
 30 77  2  0  0  0  0
 31 45  1  0  0  0  0
 31 73  1  0  0  0  0
 31 78  2  0  0  0  0
 32 59  1  0  0  0  0
 32 69  1  0  0  0  0
 32 79  2  0  0  0  0
 33 60  1  0  0  0  0
 33 74  1  0  0  0  0
 33 80  2  0  0  0  0
 34 70  1  0  0  0  0
 34 75  1  0  0  0  0
 34 81  2  0  0  0  0
 35 38  1  0  0  0  0
 36 45  1  0  0  0  0
 37 69  1  0  0  0  0
 38 40  1  0  0  0  0
 39 41  1  0  0  0  0
 39 42  1  0  0  0  0
 40 44  1  0  0  0  0
 41 46  1  0  0  0  0
 42 70  1  0  0  0  0
 43 46  1  0  0  0  0
 43 70  1  0  0  0  0
 44 73  1  0  0  0  0
 45 69  1  0  0  0  0
 46 67  1  0  0  0  0
 47 57  1  0  0  0  0
 48 60  1  0  0  0  0
 49 61  1  0  0  0  0
 50 61  1  0  0  0  0
 51 62  1  0  0  0  0
 52 62  1  0  0  0  0
 53 62  1  0  0  0  0
 54 63  1  0  0  0  0
 55 63  1  0  0  0  0
 56 76  1  0  0  0  0
 58 63  1  0  0  0  0
 58 83  1  0  0  0  0
 59 62  1  0  0  0  0
 59 74  1  0  0  0  0
 60 76  1  0  0  0  0
 61 75  1  0  0  0  0
 63 68  1  0  0  0  0
 64 67  1  0  0  0  0
 66 68  1  0  0  0  0
M  CHG  1  76   1
M  ISO  4  34 100  58 101  75 100  83 101
M  END
> <Batch ID>
0064

> <Smiles>
CCc1nc(C(C)(C)[100NH:0][100C:0](=O)N2CCCC(n3nc(-c4ccc(Oc5ccc(F)cc5F)cc4)c(C(N)=O)c3N)C2)nn1C(C)(C)[101CH2:1][101O:1]c1ccc2c(c1)CN(C(=O)C(NC(=O)C(C)NC)C(C)(C)C)C(C(=O)NC1CCCc3ccccc31)C2

> <Shape>
0.260

> <Color>
0.068

> <Negative vol penalty>
0.000

$$$$

  -OEChem-04052318053D

 84 92  0     1  0  0  0  0  0999 V2000
  -27.2670  -10.8674   16.8239 C   0  0  0  0  0  0  0  0  0  0  0  0
  -26.4831  -12.0163   16.8552 C   0  0  0  0  0  0  0  0  0  0  0  0
  -26.0934  -29.6479   20.5377 C   0  0  0  0  0  0  0  0  0  0  0  0
  -23.7684  -29.0805   20.8687 C   0  0  0  0  0  0  0  0  0  0  0  0
  -28.3528  -10.7420   17.6894 C   0  0  0  0  0  0  0  0  0  0  0  0
  -26.7840  -13.0401   17.7528 C   0  0  0  0  0  0  0  0  0  0  0  0
  -26.5847  -17.6240   15.6097 C   0  0  0  0  0  0  0  0  0  0  0  0
  -25.8654  -30.9066   21.0939 C   0  0  0  0  0  0  0  0  0  0  0  0
  -23.5404  -30.3392   21.4249 C   0  0  0  0  0  0  0  0  0  0  0  0
  -25.3215  -18.1795   15.4108 C   0  0  0  0  0  0  0  0  0  0  0  0
  -25.5142  -32.2390   24.1816 C   0  0  0  0  0  0  0  0  0  0  0  0
  -26.4372  -32.7126   25.1140 C   0  0  0  0  0  0  0  0  0  0  0  0
  -25.6080  -19.5253   17.3922 C   0  0  0  0  0  0  0  0  0  0  0  0
  -26.8988  -34.6110   23.6927 C   0  0  0  0  0  0  0  0  0  0  0  0
  -20.3401  -20.4951   14.7103 C   0  0  0  0  0  0  0  0  0  0  0  0
  -25.0448  -28.7349   20.4250 C   0  0  0  0  0  0  0  0  0  0  0  0
  -25.6621  -26.2618   20.5282 C   0  0  0  0  0  0  0  0  0  0  0  0
  -28.6730  -11.7689   18.5914 C   0  0  0  0  0  0  0  0  0  0  0  0
  -27.3659  -18.0076   16.7093 C   0  0  0  0  0  0  0  0  0  0  0  0
  -27.8744  -12.9277   18.6322 C   0  0  0  0  0  0  0  0  0  0  0  0
  -26.8818  -18.9751   17.6014 C   0  0  0  0  0  0  0  0  0  0  0  0
  -20.1683  -21.6295   13.9553 C   0  0  0  0  0  0  0  0  0  0  0  0
  -24.5889  -31.2522   21.5375 C   0  0  0  0  0  0  0  0  0  0  0  0
  -24.8318  -19.1282   16.3037 C   0  0  0  0  0  0  0  0  0  0  0  0
  -25.2835  -32.9514   23.0048 C   0  0  0  0  0  0  0  0  0  0  0  0
  -27.1296  -33.8985   24.8695 C   0  0  0  0  0  0  0  0  0  0  0  0
  -25.9758  -34.1374   22.7603 C   0  0  0  0  0  0  0  0  0  0  0  0
  -25.2796  -27.4347   19.8501 C   0  0  0  0  0  0  0  0  0  0  0  0
  -20.7307  -22.6589   14.7337 C   0  0  0  0  0  0  0  0  0  0  0  0
  -25.7533  -25.3096   19.5425 C   0  0  0  0  0  0  0  0  0  0  0  0
  -25.9125  -26.0518   21.9242 C   0  0  0  0  0  0  0  0  0  0  0  0
  -28.5696  -16.5056   19.2388 C   0  0  0  0  0  0  0  0  0  0  0  0
  -30.0163  -19.3620   19.7586 C   0  0  0  0  0  0  0  0  0  0  0  0
  -30.0210  -22.7392   19.2671 C   0  0  0  0  0  0  0  0  0  0  0  0
  -23.1982  -24.7597   14.1555 C   0  0  0  0  0  0  0  0  0  0  0  0
  -29.8280  -11.5677   19.5402 C   0  0  0  0  0  0  0  0  0  0  0  0
  -28.7374  -17.4187   16.8949 C   0  0  0  0  0  0  0  0  0  0  0  0
  -27.6894  -19.4359   18.7862 C   0  0  0  0  0  0  0  0  0  0  0  0
  -30.3045  -12.8581   20.2020 C   0  0  0  0  0  0  0  0  0  0  0  0
  -26.6846  -24.8300   14.8742 C   0  0  0  0  0  0  0  0  0  0  0  0
  -29.1166  -13.6620   20.7211 C   0  0  0  0  0  0  0  0  0  0  0  0
  -26.7544  -25.3997   16.2921 C   0  0  0  0  0  0  0  0  0  0  0  0
  -25.5670  -25.4781   14.0600 C   0  0  0  0  0  0  0  0  0  0  0  0
  -24.3050  -26.0049   16.1102 C   0  0  0  0  0  0  0  0  0  0  0  0
  -28.1837  -14.0706   19.5746 C   0  0  1  0  0  0  0  0  0  0  0  0
  -29.2347  -17.5044   18.3346 C   0  0  1  0  0  0  0  0  0  0  0  0
  -25.3810  -25.3424   16.9876 C   0  0  2  0  0  0  0  0  0  0  0  0
  -19.5353  -21.7325   12.6296 C   0  0  0  0  0  0  0  0  0  0  0  0
  -31.3106  -24.8124   19.8469 C   0  0  0  0  0  0  0  0  0  0  0  0
  -28.8376  -19.3055   22.5724 C   0  0  0  0  0  0  0  0  0  0  0  0
  -29.3381  -21.7517   22.7560 C   0  0  0  0  0  0  0  0  0  0  0  0
  -31.1990  -20.1194   22.4467 C   0  0  0  0  0  0  0  0  0  0  0  0
  -30.5982  -23.3157   16.4222 C   0  0  0  0  0  0  0  0  0  0  0  0
  -21.3821  -20.0178   17.0054 C   0  0  0  0  0  0  0  0  0  0  0  0
  -22.8815  -20.0803   17.2761 C   0  0  0  0  0  0  0  0  0  1  0  0
  -20.8209  -24.0926   14.4059 C   0  0  1  0  0  0  0  0  0  0  0  0
  -29.6562  -20.6222   20.5079 C   0  0  1  0  0  0  0  0  0  0  0  0
  -31.1205  -23.6928   18.8355 C   0  0  2  0  0  0  0  0  0  0  0  0
  -29.7415  -20.4398   22.0496 C   0  0  0  0  0  0  0  0  0  0  0  0
  -19.6068  -24.9184   14.8627 C   0  0  0  0  0  0  0  0  0  0  0  0
  -25.1377  -27.2472   18.5353 N   0  0  0  0  0  0  0  0  0  0  0  0
  -21.2228  -22.2175   15.8943 N   0  0  0  0  0  0  0  0  0  0  0  0
  -20.9701  -20.8983   15.8508 N   0  0  0  0  0  0  0  0  0  0  0  0
  -25.4327  -25.9454   18.3793 N   0  0  0  0  0  0  0  0  0  0  0  0
  -29.0218  -18.8260   18.9283 N   0  0  0  0  0  0  0  0  0  0  0  0
  -24.2912  -25.3885   14.7743 N   0  0  0  0  0  0  0  0  0  0  0  0
  -26.0757  -23.9989   19.5661 N   0  0  0  0  0  0  0  0  0  0  0  0
  -25.7727  -27.1379   22.7989 N   0  0  0  0  0  0  0  0  0  0  0  0
  -28.7387  -15.1915   18.8465 N   0  0  0  0  0  0  0  0  0  0  0  0
  -30.5222  -21.6716   19.9815 N   0  0  0  0  0  0  0  0  0  0  0  0
  -22.0286  -24.7122   14.9042 N   0  0  0  0  0  0  0  0  0  0  0  0
  -30.7893  -24.3022   17.5164 N   0  3  0  0  0  0  0  0  0  0  0  0
  -26.2662  -24.9380   22.3801 O   0  0  0  0  0  0  0  0  0  0  0  0
  -27.9502  -16.8980   20.2207 O   0  0  0  0  0  0  0  0  0  0  0  0
  -31.1411  -18.8754   19.8992 O   0  0  0  0  0  0  0  0  0  0  0  0
  -28.8357  -22.9249   19.0007 O   0  0  0  0  0  0  0  0  0  0  0  0
  -23.2616  -24.2717   13.0220 O   0  0  0  0  0  0  0  0  0  0  0  0
  -24.3662  -32.4803   22.0805 O   0  0  0  0  0  0  0  0  0  0  0  0
  -23.5989  -19.6715   16.1122 O   0  0  0  0  0  0  0  0  0  1  0  0
  -28.0148  -34.3540   25.7657 F   0  0  0  0  0  0  0  0  0  0  0  0
  -25.7575  -34.8267   21.6320 F   0  0  0  0  0  0  0  0  0  0  0  0
  -18.4686  -24.5126   14.2616 F   0  0  0  0  0  0  0  0  0  0  0  0
  -19.4125  -24.8369   16.1996 F   0  0  0  0  0  0  0  0  0  0  0  0
  -19.7888  -26.2250   14.5663 F   0  0  0  0  0  0  0  0  0  0  0  0
  1  2  1  0  0  0  0
  1  5  2  0  0  0  0
  2  6  2  0  0  0  0
  3  8  2  0  0  0  0
  3 16  1  0  0  0  0
  4  9  1  0  0  0  0
  4 16  2  0  0  0  0
  5 18  1  0  0  0  0
  6 20  1  0  0  0  0
  7 10  2  0  0  0  0
  7 19  1  0  0  0  0
  8 23  1  0  0  0  0
  9 23  2  0  0  0  0
 10 24  1  0  0  0  0
 11 12  2  0  0  0  0
 11 25  1  0  0  0  0
 12 26  1  0  0  0  0
 13 21  1  0  0  0  0
 13 24  2  0  0  0  0
 14 26  2  0  0  0  0
 14 27  1  0  0  0  0
 15 22  2  0  0  0  0
 15 63  1  0  0  0  0
 16 28  1  0  0  0  0
 17 28  1  0  0  0  0
 17 30  2  0  0  0  0
 17 31  1  0  0  0  0
 18 20  2  0  0  0  0
 18 36  1  0  0  0  0
 19 21  2  0  0  0  0
 19 37  1  0  0  0  0
 20 45  1  0  0  0  0
 21 38  1  0  0  0  0
 22 29  1  0  0  0  0
 22 48  1  0  0  0  0
 23 78  1  0  0  0  0
 24 79  1  0  0  0  0
 25 27  2  0  0  0  0
 25 78  1  0  0  0  0
 26 80  1  0  0  0  0
 27 81  1  0  0  0  0
 28 61  2  0  0  0  0
 29 56  1  0  0  0  0
 29 62  2  0  0  0  0
 30 64  1  0  0  0  0
 30 67  1  0  0  0  0
 31 68  1  0  0  0  0
 31 73  2  0  0  0  0
 32 46  1  0  0  0  0
 32 69  1  0  0  0  0
 32 74  2  0  0  0  0
 33 57  1  0  0  0  0
 33 65  1  0  0  0  0
 33 75  2  0  0  0  0
 34 58  1  0  0  0  0
 34 70  1  0  0  0  0
 34 76  2  0  0  0  0
 35 66  1  0  0  0  0
 35 71  1  0  0  0  0
 35 77  2  0  0  0  0
 36 39  1  0  0  0  0
 37 46  1  0  0  0  0
 38 65  1  0  0  0  0
 39 41  1  0  0  0  0
 40 42  1  0  0  0  0
 40 43  1  0  0  0  0
 41 45  1  0  0  0  0
 42 47  1  0  0  0  0
 43 66  1  0  0  0  0
 44 47  1  0  0  0  0
 44 66  1  0  0  0  0
 45 69  1  0  0  0  0
 46 65  1  0  0  0  0
 47 64  1  0  0  0  0
 49 58  1  0  0  0  0
 50 59  1  0  0  0  0
 51 59  1  0  0  0  0
 52 59  1  0  0  0  0
 53 72  1  0  0  0  0
 54 55  1  0  0  0  0
 54 63  1  0  0  0  0
 55 79  1  0  0  0  0
 56 60  1  0  0  0  0
 56 71  1  0  0  0  0
 57 59  1  0  0  0  0
 57 70  1  0  0  0  0
 58 72  1  0  0  0  0
 60 82  1  0  0  0  0
 60 83  1  0  0  0  0
 60 84  1  0  0  0  0
 61 64  1  0  0  0  0
 62 63  1  0  0  0  0
M  CHG  1  72   1
M  ISO  4  35 100  55 101  71 100  79 101
M  END
> <Batch ID>
0064

> <Smiles>
CNC(C)C(=O)NC(C(=O)N1Cc2cc([101O:1][101CH2:1]Cn3cc(C)c(C([100NH:0][100C:0](=O)N4CCCC(n5nc(-c6ccc(Oc7ccc(F)cc7F)cc6)c(C(N)=O)c5N)C4)C(F)(F)F)n3)ccc2CC1C(=O)NC1CCCc2ccccc21)C(C)(C)C

> <Shape>
0.212

> <Color>
0.060

> <Negative vol penalty>
0.000

$$$$

  -OEChem-04052318053D

 89 97  0     1  0  0  0  0  0999 V2000
  -39.1853  -24.8252   16.3709 C   0  0  0  0  0  0  0  0  0  0  0  0
  -37.9591  -24.4684   16.9226 C   0  0  0  0  0  0  0  0  0  0  0  0
  -23.2250   -9.7619   19.9339 C   0  0  0  0  0  0  0  0  0  0  0  0
  -23.6978   -9.9111   22.2985 C   0  0  0  0  0  0  0  0  0  0  0  0
  -39.8687  -23.9260   15.5533 C   0  0  0  0  0  0  0  0  0  0  0  0
  -37.4149  -23.2125   16.6562 C   0  0  0  0  0  0  0  0  0  0  0  0
  -34.0819  -19.7618   20.4628 C   0  0  0  0  0  0  0  0  0  0  0  0
  -22.4864   -8.5995   20.1549 C   0  0  0  0  0  0  0  0  0  0  0  0
  -22.9591   -8.7487   22.5196 C   0  0  0  0  0  0  0  0  0  0  0  0
  -32.7074  -19.5671   20.5919 C   0  0  0  0  0  0  0  0  0  0  0  0
  -19.7034   -7.8782   22.7701 C   0  0  0  0  0  0  0  0  0  0  0  0
  -18.8100   -7.8736   23.8412 C   0  0  0  0  0  0  0  0  0  0  0  0
  -32.8657  -17.5855   19.2255 C   0  0  0  0  0  0  0  0  0  0  0  0
  -20.0019   -6.0179   24.8275 C   0  0  0  0  0  0  0  0  0  0  0  0
  -23.8307  -10.4177   21.0057 C   0  0  0  0  0  0  0  0  0  0  0  0
  -24.1188  -12.9432   20.7897 C   0  0  0  0  0  0  0  0  0  0  0  0
  -39.3372  -22.6548   15.2846 C   0  0  0  0  0  0  0  0  0  0  0  0
  -34.8582  -18.8743   19.7037 C   0  0  0  0  0  0  0  0  0  0  0  0
  -38.0912  -22.2959   15.8333 C   0  0  0  0  0  0  0  0  0  0  0  0
  -34.2503  -17.7696   19.0904 C   0  0  0  0  0  0  0  0  0  0  0  0
  -22.3534   -8.0929   21.4477 C   0  0  0  0  0  0  0  0  0  0  0  0
  -32.0987  -18.4805   19.9709 C   0  0  0  0  0  0  0  0  0  0  0  0
  -20.7460   -6.9525   22.7275 C   0  0  0  0  0  0  0  0  0  0  0  0
  -18.9593   -6.9436   24.8700 C   0  0  0  0  0  0  0  0  0  0  0  0
  -20.8953   -6.0224   23.7563 C   0  0  0  0  0  0  0  0  0  0  0  0
  -24.5943  -11.6182   20.7780 C   0  0  0  0  0  0  0  0  0  0  0  0
  -25.2273  -13.7082   20.5206 C   0  0  0  0  0  0  0  0  0  0  0  0
  -27.8815  -12.0936   25.2674 C   0  0  0  0  0  0  0  0  0  0  0  0
  -29.0279  -13.2492   23.9606 C   0  0  0  0  0  0  0  0  0  0  0  0
  -22.7935  -13.4382   21.0230 C   0  0  0  0  0  0  0  0  0  0  0  0
  -36.6557  -19.1335   17.0950 C   0  0  0  0  0  0  0  0  0  0  0  0
  -37.4066  -16.0529   17.7793 C   0  0  0  0  0  0  0  0  0  0  0  0
  -36.5324  -13.1281   19.3052 C   0  0  0  0  0  0  0  0  0  0  0  0
  -31.1308  -12.2590   21.2865 C   0  0  0  0  0  0  0  0  0  0  0  0
  -40.0901  -21.7345   14.3568 C   0  0  0  0  0  0  0  0  0  0  0  0
  -36.3439  -19.0832   19.5962 C   0  0  0  0  0  0  0  0  0  0  0  0
  -35.0423  -16.7764   18.2812 C   0  0  0  0  0  0  0  0  0  0  0  0
  -39.6227  -20.2830   14.4271 C   0  0  0  0  0  0  0  0  0  0  0  0
  -29.4364  -13.5591   18.2632 C   0  0  0  0  0  0  0  0  0  0  0  0
  -38.0996  -20.2100   14.3860 C   0  0  0  0  0  0  0  0  0  0  0  0
  -27.9671  -13.2507   18.5463 C   0  0  0  0  0  0  0  0  0  0  0  0
  -30.3676  -12.5719   18.9604 C   0  0  0  0  0  0  0  0  0  0  0  0
  -28.6712  -12.1541   20.7101 C   0  0  0  0  0  0  0  0  0  0  0  0
  -37.4800  -20.9334   15.5877 C   0  0  1  0  0  0  0  0  0  0  0  0
  -36.9558  -18.4050   18.3744 C   0  0  1  0  0  0  0  0  0  0  0  0
  -27.7077  -13.1584   20.0600 C   0  0  2  0  0  0  0  0  0  0  0  0
  -37.3299  -10.7749   19.6573 C   0  0  0  0  0  0  0  0  0  0  0  0
  -26.2880  -18.0541   24.4566 C   0  0  0  0  0  0  0  0  0  0  0  0
  -26.1525  -10.2855   25.2519 C   0  0  0  0  0  0  0  0  0  0  0  0
  -36.5848  -15.3501   14.9261 C   0  0  0  0  0  0  0  0  0  0  0  0
  -36.4883  -12.9465   15.6202 C   0  0  0  0  0  0  0  0  0  0  0  0
  -38.6480  -14.1898   15.7333 C   0  0  0  0  0  0  0  0  0  0  0  0
  -32.0715  -12.6103   23.5385 C   0  0  0  0  0  0  0  0  0  0  0  0
  -36.6440  -13.4820   22.2414 C   0  0  0  0  0  0  0  0  0  0  0  0
  -29.9726  -13.7679   22.9552 C   0  0  0  0  0  0  0  0  0  0  0  0
  -28.9573  -17.8485   21.6204 C   0  0  0  0  0  0  0  0  0  0  0  0
  -28.2429  -18.2971   22.8956 C   0  0  0  0  0  0  0  0  0  0  0  0
  -27.2150  -15.9597   23.3621 C   0  0  0  0  0  0  0  0  0  0  0  0
  -28.0265  -15.5448   24.5946 C   0  0  0  0  0  0  0  0  0  0  0  0
  -30.1438  -18.7476   21.2987 C   0  0  0  0  0  0  0  0  0  1  0  0
  -36.8312  -14.7058   17.4142 C   0  0  1  0  0  0  0  0  0  0  0  0
  -37.3127  -12.1916   20.2100 C   0  0  2  0  0  0  0  0  0  0  0  0
  -26.9775  -17.4772   23.2156 C   0  0  1  0  0  0  0  0  0  0  0  0
  -27.3545  -10.9175   25.9695 C   0  0  0  0  0  0  0  0  0  0  0  0
  -37.1226  -14.3177   15.9370 C   0  0  0  0  0  0  0  0  0  0  0  0
  -25.9029  -11.5423   20.5217 N   0  0  0  0  0  0  0  0  0  0  0  0
  -28.8587  -11.9974   24.3185 N   0  0  0  0  0  0  0  0  0  0  0  0
  -27.4354  -13.3261   25.5192 N   0  0  0  0  0  0  0  0  0  0  0  0
  -26.2591  -12.8292   20.3697 N   0  0  0  0  0  0  0  0  0  0  0  0
  -28.1848  -14.0460   24.6704 N   0  0  0  0  0  0  0  0  0  0  0  0
  -36.4907  -17.0274   18.2005 N   0  0  0  0  0  0  0  0  0  0  0  0
  -30.0709  -12.4714   20.3897 N   0  0  0  0  0  0  0  0  0  0  0  0
  -25.4103  -15.0403   20.4007 N   0  0  0  0  0  0  0  0  0  0  0  0
  -21.7720  -12.5150   21.2847 N   0  0  0  0  0  0  0  0  0  0  0  0
  -37.5766  -20.1133   16.7762 N   0  0  0  0  0  0  0  0  0  0  0  0
  -37.3529  -13.7598   18.3946 N   0  0  0  0  0  0  0  0  0  0  0  0
  -30.9943  -12.7943   22.5763 N   0  0  0  0  0  0  0  0  0  0  0  0
  -36.7036  -12.1583   21.5697 N   0  3  0  0  0  0  0  0  0  0  0  0
  -22.5201  -14.6618   20.9838 O   0  0  0  0  0  0  0  0  0  0  0  0
  -35.6631  -18.8284   16.4444 O   0  0  0  0  0  0  0  0  0  0  0  0
  -38.6246  -16.2317   17.7008 O   0  0  0  0  0  0  0  0  0  0  0  0
  -35.3162  -13.2810   19.3946 O   0  0  0  0  0  0  0  0  0  0  0  0
  -32.1455  -11.6350   20.9505 O   0  0  0  0  0  0  0  0  0  0  0  0
  -21.6326   -6.9587   21.6638 O   0  0  0  0  0  0  0  0  0  0  0  0
  -30.7571  -18.2886   20.0948 O   0  0  0  0  0  0  0  0  0  1  0  0
  -18.1022   -6.9404   25.8993 F   0  0  0  0  0  0  0  0  0  0  0  0
  -21.8957   -5.1314   23.7215 F   0  0  0  0  0  0  0  0  0  0  0  0
  -26.9349  -11.1767   27.2596 F   0  0  0  0  0  0  0  0  0  0  0  0
  -28.2773   -9.9028   26.1333 F   0  0  0  0  0  0  0  0  0  0  0  0
  1  2  1  0  0  0  0
  1  5  2  0  0  0  0
  2  6  2  0  0  0  0
  3  8  2  0  0  0  0
  3 15  1  0  0  0  0
  4  9  1  0  0  0  0
  4 15  2  0  0  0  0
  5 17  1  0  0  0  0
  6 19  1  0  0  0  0
  7 10  2  0  0  0  0
  7 18  1  0  0  0  0
  8 21  1  0  0  0  0
  9 21  2  0  0  0  0
 10 22  1  0  0  0  0
 11 12  2  0  0  0  0
 11 23  1  0  0  0  0
 12 24  1  0  0  0  0
 13 20  1  0  0  0  0
 13 22  2  0  0  0  0
 14 24  2  0  0  0  0
 14 25  1  0  0  0  0
 15 26  1  0  0  0  0
 16 26  1  0  0  0  0
 16 27  2  0  0  0  0
 16 30  1  0  0  0  0
 17 19  2  0  0  0  0
 17 35  1  0  0  0  0
 18 20  2  0  0  0  0
 18 36  1  0  0  0  0
 19 44  1  0  0  0  0
 20 37  1  0  0  0  0
 21 84  1  0  0  0  0
 22 85  1  0  0  0  0
 23 25  2  0  0  0  0
 23 84  1  0  0  0  0
 24 86  1  0  0  0  0
 25 87  1  0  0  0  0
 26 66  2  0  0  0  0
 27 69  1  0  0  0  0
 27 73  1  0  0  0  0
 28 64  1  0  0  0  0
 28 67  1  0  0  0  0
 28 68  2  0  0  0  0
 29 55  1  0  0  0  0
 29 67  2  0  0  0  0
 29 70  1  0  0  0  0
 30 74  1  0  0  0  0
 30 79  2  0  0  0  0
 31 45  1  0  0  0  0
 31 75  1  0  0  0  0
 31 80  2  0  0  0  0
 32 61  1  0  0  0  0
 32 71  1  0  0  0  0
 32 81  2  0  0  0  0
 33 62  1  0  0  0  0
 33 76  1  0  0  0  0
 33 82  2  0  0  0  0
 34 72  1  0  0  0  0
 34 77  1  0  0  0  0
 34 83  2  0  0  0  0
 35 38  1  0  0  0  0
 36 45  1  0  0  0  0
 37 71  1  0  0  0  0
 38 40  1  0  0  0  0
 39 41  1  0  0  0  0
 39 42  1  0  0  0  0
 40 44  1  0  0  0  0
 41 46  1  0  0  0  0
 42 72  1  0  0  0  0
 43 46  1  0  0  0  0
 43 72  1  0  0  0  0
 44 75  1  0  0  0  0
 45 71  1  0  0  0  0
 46 69  1  0  0  0  0
 47 62  1  0  0  0  0
 48 63  1  0  0  0  0
 49 64  1  0  0  0  0
 50 65  1  0  0  0  0
 51 65  1  0  0  0  0
 52 65  1  0  0  0  0
 53 77  1  0  0  0  0
 54 78  1  0  0  0  0
 55 77  1  0  0  0  0
 56 57  1  0  0  0  0
 56 60  1  0  0  0  0
 57 63  1  0  0  0  0
 58 59  1  0  0  0  0
 58 63  1  0  0  0  0
 59 70  1  0  0  0  0
 60 85  1  0  0  0  0
 61 65  1  0  0  0  0
 61 76  1  0  0  0  0
 62 78  1  0  0  0  0
 64 88  1  0  0  0  0
 64 89  1  0  0  0  0
 66 69  1  0  0  0  0
 68 70  1  0  0  0  0
M  CHG  1  78   1
M  ISO  4  34 100  60 101  77 100  85 101
M  END
> <Batch ID>
0064

> <Smiles>
CNC(C)C(=O)NC(C(=O)N1Cc2cc([101O:1][101CH2:1]CCC(C)CCn3nc(C(C)(F)F)nc3C[100N:0](C)[100C:0](=O)N3CCCC(n4nc(-c5ccc(Oc6ccc(F)cc6F)cc5)c(C(N)=O)c4N)C3)ccc2CC1C(=O)NC1CCCc2ccccc21)C(C)(C)C

> <Shape>
0.149

> <Color>
0.183

> <Negative vol penalty>
0.000

$$$$

  -OEChem-04052318053D

 88 96  0     1  0  0  0  0  0999 V2000
  -18.8654  -24.5636   22.4604 C   0  0  0  0  0  0  0  0  0  0  0  0
  -20.1111  -24.7604   21.8731 C   0  0  0  0  0  0  0  0  0  0  0  0
  -24.8136  -11.9343   20.0424 C   0  0  0  0  0  0  0  0  0  0  0  0
  -25.5050  -12.5667   22.2693 C   0  0  0  0  0  0  0  0  0  0  0  0
  -18.0751  -25.6607   22.8002 C   0  0  0  0  0  0  0  0  0  0  0  0
  -20.5668  -26.0546   21.6244 C   0  0  0  0  0  0  0  0  0  0  0  0
  -25.4023  -26.7059   22.9803 C   0  0  0  0  0  0  0  0  0  0  0  0
  -25.1074  -10.6014   20.3297 C   0  0  0  0  0  0  0  0  0  0  0  0
  -25.7988  -11.2338   22.5566 C   0  0  0  0  0  0  0  0  0  0  0  0
  -26.3779  -26.2048   22.1196 C   0  0  0  0  0  0  0  0  0  0  0  0
  -25.3347   -6.9830   20.5965 C   0  0  0  0  0  0  0  0  0  0  0  0
  -24.4059   -6.0165   20.2108 C   0  0  0  0  0  0  0  0  0  0  0  0
  -26.7167  -28.4189   21.2241 C   0  0  0  0  0  0  0  0  0  0  0  0
  -22.7347   -7.0664   21.6045 C   0  0  0  0  0  0  0  0  0  0  0  0
  -29.0683  -22.5276   19.5285 C   0  0  0  0  0  0  0  0  0  0  0  0
  -25.0124  -12.9170   21.0122 C   0  0  0  0  0  0  0  0  0  0  0  0
  -23.4820  -14.9553   20.9094 C   0  0  0  0  0  0  0  0  0  0  0  0
  -18.5254  -26.9693   22.5644 C   0  0  0  0  0  0  0  0  0  0  0  0
  -25.0682  -28.0677   22.9616 C   0  0  0  0  0  0  0  0  0  0  0  0
  -19.7811  -27.1703   21.9602 C   0  0  0  0  0  0  0  0  0  0  0  0
  -25.7382  -28.9353   22.0873 C   0  0  0  0  0  0  0  0  0  0  0  0
  -25.6000  -10.2511   21.5868 C   0  0  0  0  0  0  0  0  0  0  0  0
  -27.0333  -27.0608   21.2393 C   0  0  0  0  0  0  0  0  0  0  0  0
  -24.9635   -7.9912   21.4863 C   0  0  0  0  0  0  0  0  0  0  0  0
  -23.1059   -6.0582   20.7148 C   0  0  0  0  0  0  0  0  0  0  0  0
  -23.6635   -8.0329   21.9902 C   0  0  0  0  0  0  0  0  0  0  0  0
  -24.7097  -14.2942   20.7158 C   0  0  0  0  0  0  0  0  0  0  0  0
  -27.9299  -22.2839   20.2437 C   0  0  0  0  0  0  0  0  0  0  0  0
  -23.7106  -16.2381   20.4750 C   0  0  0  0  0  0  0  0  0  0  0  0
  -27.3349  -23.0043   18.2368 C   0  0  0  0  0  0  0  0  0  0  0  0
  -22.2455  -14.4547   21.4350 C   0  0  0  0  0  0  0  0  0  0  0  0
  -22.4288  -29.7214   22.3274 C   0  0  0  0  0  0  0  0  0  0  0  0
  -24.2328  -32.2316   23.3105 C   0  0  0  0  0  0  0  0  0  0  0  0
  -27.3424  -33.5581   23.7769 C   0  0  0  0  0  0  0  0  0  0  0  0
  -29.0572  -19.1834   19.9480 C   0  0  0  0  0  0  0  0  0  0  0  0
  -17.6155  -28.1227   22.9057 C   0  0  0  0  0  0  0  0  0  0  0  0
  -24.0324  -28.5974   23.9151 C   0  0  0  0  0  0  0  0  0  0  0  0
  -25.4308  -30.4090   22.0423 C   0  0  0  0  0  0  0  0  0  0  0  0
  -18.3314  -29.4702   22.9519 C   0  0  0  0  0  0  0  0  0  0  0  0
  -26.3919  -18.7465   17.4167 C   0  0  0  0  0  0  0  0  0  0  0  0
  -19.2317  -29.6384   21.7321 C   0  0  0  0  0  0  0  0  0  0  0  0
  -25.6011  -17.5608   17.9669 C   0  0  0  0  0  0  0  0  0  0  0  0
  -27.8550  -18.7013   17.8471 C   0  0  0  0  0  0  0  0  0  0  0  0
  -27.2560  -17.4107   19.8694 C   0  0  0  0  0  0  0  0  0  0  0  0
  -20.3208  -28.5594   21.6972 C   0  0  1  0  0  0  0  0  0  0  0  0
  -23.4086  -29.9099   23.4508 C   0  0  1  0  0  0  0  0  0  0  0  0
  -25.7674  -17.4511   19.4926 C   0  0  2  0  0  0  0  0  0  0  0  0
  -26.4986  -23.4226   17.0842 C   0  0  0  0  0  0  0  0  0  0  0  0
  -28.4971  -35.6439   24.5599 C   0  0  0  0  0  0  0  0  0  0  0  0
  -30.3472  -22.1191   16.6221 C   0  0  0  0  0  0  0  0  0  0  0  0
  -23.5344  -33.6041   20.6765 C   0  0  0  0  0  0  0  0  0  0  0  0
  -25.4217  -35.1972   21.0865 C   0  0  0  0  0  0  0  0  0  0  0  0
  -23.5014  -35.1058   22.6760 C   0  0  0  0  0  0  0  0  0  0  0  0
  -31.9292  -24.1484   18.0396 C   0  0  0  0  0  0  0  0  0  0  0  0
  -30.8564  -25.3721   16.1634 C   0  0  0  0  0  0  0  0  0  0  0  0
  -29.9770  -19.6447   22.1887 C   0  0  0  0  0  0  0  0  0  0  0  0
  -28.7034  -32.1184   25.9755 C   0  0  0  0  0  0  0  0  0  0  0  0
  -27.7314  -21.7985   21.6118 C   0  0  0  0  0  0  0  0  0  0  0  0
  -28.6071  -26.2268   18.1044 C   0  0  0  0  0  0  0  0  0  0  0  0
  -29.9322  -25.5736   18.5105 C   0  0  0  0  0  0  0  0  0  0  0  0
  -27.6316  -20.2628   21.7383 C   0  0  0  0  0  0  0  0  0  0  0  0
  -28.1480  -27.2402   19.1462 C   0  0  0  0  0  0  0  0  0  1  0  0
  -25.1683  -33.2053   22.6354 C   0  0  1  0  0  0  0  0  0  0  0  0
  -27.9635  -34.2774   24.9606 C   0  0  2  0  0  0  0  0  0  0  0  0
  -29.6126  -23.3661   17.1540 C   0  0  2  0  0  0  0  0  0  0  0  0
  -24.4111  -34.2500   21.7678 C   0  0  0  0  0  0  0  0  0  0  0  0
  -30.5620  -24.5927   17.4682 C   0  0  0  0  0  0  0  0  0  0  0  0
  -25.6485  -15.0910   20.1985 N   0  0  0  0  0  0  0  0  0  0  0  0
  -28.6704  -22.9718   18.2906 N   0  0  0  0  0  0  0  0  0  0  0  0
  -25.0106  -16.2661   20.0633 N   0  0  0  0  0  0  0  0  0  0  0  0
  -26.8727  -22.5876   19.4201 N   0  3  0  0  0  0  0  0  0  0  0  0
  -24.4059  -30.8778   22.9897 N   0  0  0  0  0  0  0  0  0  0  0  0
  -27.9838  -18.5533   19.2971 N   0  0  0  0  0  0  0  0  0  0  0  0
  -22.9244  -17.3335   20.4088 N   0  0  0  0  0  0  0  0  0  0  0  0
  -22.1839  -13.1127   21.8345 N   0  0  0  0  0  0  0  0  0  0  0  0
  -21.3779  -28.8778   22.6330 N   0  0  0  0  0  0  0  0  0  0  0  0
  -25.9853  -33.7876   23.6945 N   0  0  0  0  0  0  0  0  0  0  0  0
  -28.8472  -19.5998   21.2713 N   0  0  0  0  0  0  0  0  0  0  0  0
  -29.0905  -33.4781   25.5192 N   0  3  0  0  0  0  0  0  0  0  0  0
  -21.2208  -15.1718   21.5319 O   0  0  0  0  0  0  0  0  0  0  0  0
  -22.6118  -30.2997   21.2626 O   0  0  0  0  0  0  0  0  0  0  0  0
  -23.3845  -32.6559   24.0992 O   0  0  0  0  0  0  0  0  0  0  0  0
  -27.9964  -32.8651   23.0006 O   0  0  0  0  0  0  0  0  0  0  0  0
  -30.1381  -19.3722   19.3755 O   0  0  0  0  0  0  0  0  0  0  0  0
  -25.8866   -8.9505   21.8676 O   0  0  0  0  0  0  0  0  0  0  0  0
  -27.9855  -26.5741   20.3978 O   0  0  0  0  0  0  0  0  0  1  0  0
  -22.2136   -5.1309   20.3431 F   0  0  0  0  0  0  0  0  0  0  0  0
  -23.3008   -8.9997   22.8443 F   0  0  0  0  0  0  0  0  0  0  0  0
  1  2  1  0  0  0  0
  1  5  2  0  0  0  0
  2  6  2  0  0  0  0
  3  8  2  0  0  0  0
  3 16  1  0  0  0  0
  4  9  1  0  0  0  0
  4 16  2  0  0  0  0
  5 18  1  0  0  0  0
  6 20  1  0  0  0  0
  7 10  2  0  0  0  0
  7 19  1  0  0  0  0
  8 22  1  0  0  0  0
  9 22  2  0  0  0  0
 10 23  1  0  0  0  0
 11 12  2  0  0  0  0
 11 24  1  0  0  0  0
 12 25  1  0  0  0  0
 13 21  1  0  0  0  0
 13 23  2  0  0  0  0
 14 25  2  0  0  0  0
 14 26  1  0  0  0  0
 15 28  2  0  0  0  0
 15 69  1  0  0  0  0
 16 27  1  0  0  0  0
 17 27  1  0  0  0  0
 17 29  2  0  0  0  0
 17 31  1  0  0  0  0
 18 20  2  0  0  0  0
 18 36  1  0  0  0  0
 19 21  2  0  0  0  0
 19 37  1  0  0  0  0
 20 45  1  0  0  0  0
 21 38  1  0  0  0  0
 22 85  1  0  0  0  0
 23 86  1  0  0  0  0
 24 26  2  0  0  0  0
 24 85  1  0  0  0  0
 25 87  1  0  0  0  0
 26 88  1  0  0  0  0
 27 68  2  0  0  0  0
 28 58  1  0  0  0  0
 28 71  1  0  0  0  0
 29 70  1  0  0  0  0
 29 74  1  0  0  0  0
 30 48  1  0  0  0  0
 30 69  1  0  0  0  0
 30 71  2  0  0  0  0
 31 75  1  0  0  0  0
 31 80  2  0  0  0  0
 32 46  1  0  0  0  0
 32 76  1  0  0  0  0
 32 81  2  0  0  0  0
 33 63  1  0  0  0  0
 33 72  1  0  0  0  0
 33 82  2  0  0  0  0
 34 64  1  0  0  0  0
 34 77  1  0  0  0  0
 34 83  2  0  0  0  0
 35 73  1  0  0  0  0
 35 78  1  0  0  0  0
 35 84  2  0  0  0  0
 36 39  1  0  0  0  0
 37 46  1  0  0  0  0
 38 72  1  0  0  0  0
 39 41  1  0  0  0  0
 40 42  1  0  0  0  0
 40 43  1  0  0  0  0
 41 45  1  0  0  0  0
 42 47  1  0  0  0  0
 43 73  1  0  0  0  0
 44 47  1  0  0  0  0
 44 73  1  0  0  0  0
 45 76  1  0  0  0  0
 46 72  1  0  0  0  0
 47 70  1  0  0  0  0
 49 64  1  0  0  0  0
 50 65  1  0  0  0  0
 51 66  1  0  0  0  0
 52 66  1  0  0  0  0
 53 66  1  0  0  0  0
 54 67  1  0  0  0  0
 55 67  1  0  0  0  0
 56 78  1  0  0  0  0
 57 79  1  0  0  0  0
 58 61  1  0  0  0  0
 59 60  1  0  0  0  0
 59 62  1  0  0  0  0
 60 67  1  0  0  0  0
 61 78  1  0  0  0  0
 62 86  1  0  0  0  0
 63 66  1  0  0  0  0
 63 77  1  0  0  0  0
 64 79  1  0  0  0  0
 65 67  1  0  0  0  0
 65 69  1  0  0  0  0
 68 70  1  0  0  0  0
M  CHG  2  71   1  79   1
M  ISO  4  35 100  62 101  78 100  86 101
M  END
> <Batch ID>
0064

> <Smiles>
CNC(C)C(=O)NC(C(=O)N1Cc2cc([101O:1][101CH2:1]CCC(C)(C)C(C)n3cc(CC[100N:0](C)[100C:0](=O)N4CCCC(n5nc(-c6ccc(Oc7ccc(F)cc7F)cc6)c(C(N)=O)c5N)C4)nc3C)ccc2CC1C(=O)NC1CCCc2ccccc21)C(C)(C)C

> <Shape>
0.316

> <Color>
0.111

> <Negative vol penalty>
0.000

$$$$

  -OEChem-04052318053D

 88 96  0     1  0  0  0  0  0999 V2000
  -16.1434  -26.0926   24.8891 C   0  0  0  0  0  0  0  0  0  0  0  0
  -16.8783  -25.2036   24.1112 C   0  0  0  0  0  0  0  0  0  0  0  0
  -25.4982  -15.1739   21.6634 C   0  0  0  0  0  0  0  0  0  0  0  0
  -24.8855  -16.3435   19.6401 C   0  0  0  0  0  0  0  0  0  0  0  0
  -16.3890  -27.4622   24.8006 C   0  0  0  0  0  0  0  0  0  0  0  0
  -17.8586  -25.6839   23.2436 C   0  0  0  0  0  0  0  0  0  0  0  0
  -23.1604  -22.9714   21.8156 C   0  0  0  0  0  0  0  0  0  0  0  0
  -24.2948  -14.4699   21.6210 C   0  0  0  0  0  0  0  0  0  0  0  0
  -23.6820  -15.6394   19.5977 C   0  0  0  0  0  0  0  0  0  0  0  0
  -23.5534  -22.1955   20.7260 C   0  0  0  0  0  0  0  0  0  0  0  0
  -23.0128  -11.8269   19.9465 C   0  0  0  0  0  0  0  0  0  0  0  0
  -23.0573  -10.4524   20.1795 C   0  0  0  0  0  0  0  0  0  0  0  0
  -24.4821  -24.1566   19.6721 C   0  0  0  0  0  0  0  0  0  0  0  0
  -21.5885  -10.7268   22.0782 C   0  0  0  0  0  0  0  0  0  0  0  0
  -27.8549  -23.0006   17.5822 C   0  0  0  0  0  0  0  0  0  0  0  0
  -25.7935  -16.1107   20.6730 C   0  0  0  0  0  0  0  0  0  0  0  0
  -28.2607  -16.4661   20.1302 C   0  0  0  0  0  0  0  0  0  0  0  0
  -17.3794  -27.9587   23.9386 C   0  0  0  0  0  0  0  0  0  0  0  0
  -23.4160  -24.3500   21.8367 C   0  0  0  0  0  0  0  0  0  0  0  0
  -18.1167  -27.0615   23.1425 C   0  0  0  0  0  0  0  0  0  0  0  0
  -24.0936  -24.9473   20.7642 C   0  0  0  0  0  0  0  0  0  0  0  0
  -28.0306  -22.0970   16.5541 C   0  0  0  0  0  0  0  0  0  0  0  0
  -23.3867  -14.7027   20.5881 C   0  0  0  0  0  0  0  0  0  0  0  0
  -24.2118  -22.7885   19.6527 C   0  0  0  0  0  0  0  0  0  0  0  0
  -22.2562  -12.6514   20.7794 C   0  0  0  0  0  0  0  0  0  0  0  0
  -22.3451   -9.9023   21.2453 C   0  0  0  0  0  0  0  0  0  0  0  0
  -21.5441  -12.1013   21.8452 C   0  0  0  0  0  0  0  0  0  0  0  0
  -27.0362  -16.8386   20.7166 C   0  0  0  0  0  0  0  0  0  0  0  0
  -29.1884  -21.3482   16.6087 C   0  0  0  0  0  0  0  0  0  0  0  0
  -29.1219  -17.4848   20.4572 C   0  0  0  0  0  0  0  0  0  0  0  0
  -29.8246  -22.3796   18.5319 C   0  0  0  0  0  0  0  0  0  0  0  0
  -28.5900  -15.3033   19.3589 C   0  0  0  0  0  0  0  0  0  0  0  0
  -21.6116  -26.9646   21.9470 C   0  0  0  0  0  0  0  0  0  0  0  0
  -24.4770  -28.4580   22.2328 C   0  0  0  0  0  0  0  0  0  0  0  0
  -30.1575  -22.9627   20.9160 C   0  0  0  0  0  0  0  0  0  0  0  0
  -27.8454  -28.3922   21.6886 C   0  0  0  0  0  0  0  0  0  0  0  0
  -17.5764  -29.4509   23.8423 C   0  0  0  0  0  0  0  0  0  0  0  0
  -23.0094  -25.1684   23.0315 C   0  0  0  0  0  0  0  0  0  0  0  0
  -24.4099  -26.4198   20.7473 C   0  0  0  0  0  0  0  0  0  0  0  0
  -18.8898  -29.8501   23.1746 C   0  0  0  0  0  0  0  0  0  0  0  0
  -28.6165  -21.3209   23.7034 C   0  0  0  0  0  0  0  0  0  0  0  0
  -19.1081  -29.0412   21.9000 C   0  0  0  0  0  0  0  0  0  0  0  0
  -28.1420  -19.9909   23.1192 C   0  0  0  0  0  0  0  0  0  0  0  0
  -28.5061  -22.4499   22.6835 C   0  0  0  0  0  0  0  0  0  0  0  0
  -28.7451  -20.8495   20.8118 C   0  0  0  0  0  0  0  0  0  0  0  0
  -19.2055  -27.5421   22.2078 C   0  0  1  0  0  0  0  0  0  0  0  0
  -22.8642  -26.6540   22.7167 C   0  0  1  0  0  0  0  0  0  0  0  0
  -28.8688  -19.6760   21.7998 C   0  0  2  0  0  0  0  0  0  0  0  0
  -29.4845  -20.3383   15.5495 C   0  0  0  0  0  0  0  0  0  0  0  0
  -29.9180  -29.7731   21.9966 C   0  0  0  0  0  0  0  0  0  0  0  0
  -25.8197  -22.9459   15.6861 C   0  0  0  0  0  0  0  0  0  0  0  0
  -27.5361  -22.3000   14.0228 C   0  0  0  0  0  0  0  0  0  0  0  0
  -31.8766  -23.6169   19.2741 C   0  0  0  0  0  0  0  0  0  0  0  0
  -31.6063  -21.2523   20.0291 C   0  0  0  0  0  0  0  0  0  0  0  0
  -23.6604  -30.2063   19.8692 C   0  0  0  0  0  0  0  0  0  0  0  0
  -26.0605  -30.8757   19.6248 C   0  0  0  0  0  0  0  0  0  0  0  0
  -24.8206  -31.4270   21.7180 C   0  0  0  0  0  0  0  0  0  0  0  0
  -29.0827  -26.3542   23.4421 C   0  0  0  0  0  0  0  0  0  0  0  0
  -24.4003  -19.1918   16.1007 C   0  0  0  0  0  0  0  0  0  0  0  0
  -25.9159  -20.1791   17.8121 C   0  0  0  0  0  0  0  0  0  0  0  0
  -26.3816  -20.5227   15.3902 C   0  0  0  0  0  0  0  0  0  0  0  0
  -24.9163  -20.6665   18.8424 C   0  0  0  0  0  0  0  0  0  1  0  0
  -25.4856  -29.0300   21.2661 C   0  0  1  0  0  0  0  0  0  0  0  0
  -29.0192  -28.7046   22.5992 C   0  0  2  0  0  0  0  0  0  0  0  0
  -26.9849  -21.9540   15.4291 C   0  0  0  0  0  0  0  0  0  0  0  0
  -30.8207  -22.5359   19.6307 C   0  0  0  0  0  0  0  0  0  0  0  0
  -24.9992  -30.3573   20.6186 C   0  0  0  0  0  0  0  0  0  0  0  0
  -28.7349  -23.1686   18.5910 N   0  0  0  0  0  0  0  0  0  0  0  0
  -27.1091  -18.0030   21.3670 N   0  0  0  0  0  0  0  0  0  0  0  0
  -30.1107  -21.4641   17.5866 N   0  0  0  0  0  0  0  0  0  0  0  0
  -28.3897  -18.3709   21.1913 N   0  0  0  0  0  0  0  0  0  0  0  0
  -23.9863  -27.1786   21.9357 N   0  0  0  0  0  0  0  0  0  0  0  0
  -29.1900  -22.1030   21.4364 N   0  0  0  0  0  0  0  0  0  0  0  0
  -30.4267  -17.7001   20.1857 N   0  0  0  0  0  0  0  0  0  0  0  0
  -27.5859  -14.3560   19.1163 N   0  0  0  0  0  0  0  0  0  0  0  0
  -20.5111  -27.2198   22.7427 N   0  0  0  0  0  0  0  0  0  0  0  0
  -26.7375  -29.1494   22.0054 N   0  0  0  0  0  0  0  0  0  0  0  0
  -29.8356  -27.4795   22.8306 N   0  3  0  0  0  0  0  0  0  0  0  0
  -25.3314  -20.3248   16.4551 N   0  3  1  0  0  0  0  0  0  0  0  0
  -29.7448  -15.1020   18.9123 O   0  0  0  0  0  0  0  0  0  0  0  0
  -21.6418  -26.9735   20.7220 O   0  0  0  0  0  0  0  0  0  0  0  0
  -24.1424  -29.1189   23.2191 O   0  0  0  0  0  0  0  0  0  0  0  0
  -30.4928  -24.0272   21.4418 O   0  0  0  0  0  0  0  0  0  0  0  0
  -27.9065  -27.5622   20.7841 O   0  0  0  0  0  0  0  0  0  0  0  0
  -22.2124  -14.0157   20.5463 O   0  0  0  0  0  0  0  0  0  0  0  0
  -24.5959  -22.0335   18.5876 O   0  0  0  0  0  0  0  0  0  1  0  0
  -22.3867   -8.5822   21.4680 F   0  0  0  0  0  0  0  0  0  0  0  0
  -20.8146  -12.8881   22.6480 F   0  0  0  0  0  0  0  0  0  0  0  0
  1  2  1  0  0  0  0
  1  5  2  0  0  0  0
  2  6  2  0  0  0  0
  3  8  2  0  0  0  0
  3 16  1  0  0  0  0
  4  9  1  0  0  0  0
  4 16  2  0  0  0  0
  5 18  1  0  0  0  0
  6 20  1  0  0  0  0
  7 10  2  0  0  0  0
  7 19  1  0  0  0  0
  8 23  1  0  0  0  0
  9 23  2  0  0  0  0
 10 24  1  0  0  0  0
 11 12  2  0  0  0  0
 11 25  1  0  0  0  0
 12 26  1  0  0  0  0
 13 21  1  0  0  0  0
 13 24  2  0  0  0  0
 14 26  2  0  0  0  0
 14 27  1  0  0  0  0
 15 22  1  0  0  0  0
 15 68  2  0  0  0  0
 16 28  1  0  0  0  0
 17 28  1  0  0  0  0
 17 30  2  0  0  0  0
 17 32  1  0  0  0  0
 18 20  2  0  0  0  0
 18 37  1  0  0  0  0
 19 21  2  0  0  0  0
 19 38  1  0  0  0  0
 20 46  1  0  0  0  0
 21 39  1  0  0  0  0
 22 29  2  0  0  0  0
 22 65  1  0  0  0  0
 23 85  1  0  0  0  0
 24 86  1  0  0  0  0
 25 27  2  0  0  0  0
 25 85  1  0  0  0  0
 26 87  1  0  0  0  0
 27 88  1  0  0  0  0
 28 69  2  0  0  0  0
 29 49  1  0  0  0  0
 29 70  1  0  0  0  0
 30 71  1  0  0  0  0
 30 74  1  0  0  0  0
 31 66  1  0  0  0  0
 31 68  1  0  0  0  0
 31 70  2  0  0  0  0
 32 75  1  0  0  0  0
 32 80  2  0  0  0  0
 33 47  1  0  0  0  0
 33 76  1  0  0  0  0
 33 81  2  0  0  0  0
 34 63  1  0  0  0  0
 34 72  1  0  0  0  0
 34 82  2  0  0  0  0
 35 66  1  0  0  0  0
 35 73  1  0  0  0  0
 35 83  2  0  0  0  0
 36 64  1  0  0  0  0
 36 77  1  0  0  0  0
 36 84  2  0  0  0  0
 37 40  1  0  0  0  0
 38 47  1  0  0  0  0
 39 72  1  0  0  0  0
 40 42  1  0  0  0  0
 41 43  1  0  0  0  0
 41 44  1  0  0  0  0
 42 46  1  0  0  0  0
 43 48  1  0  0  0  0
 44 73  1  0  0  0  0
 45 48  1  0  0  0  0
 45 73  1  0  0  0  0
 46 76  1  0  0  0  0
 47 72  1  0  0  0  0
 48 71  1  0  0  0  0
 50 64  1  0  0  0  0
 51 65  1  0  0  0  0
 52 65  1  0  0  0  0
 53 66  1  0  0  0  0
 54 66  1  0  0  0  0
 55 67  1  0  0  0  0
 56 67  1  0  0  0  0
 57 67  1  0  0  0  0
 58 78  1  0  0  0  0
 59 79  1  0  0  0  0
 60 62  1  0  0  0  0
 60 79  1  0  0  0  0
 61 65  1  0  0  0  0
 61 79  1  0  0  0  0
 62 86  1  0  0  0  0
 63 67  1  0  0  0  0
 63 77  1  0  0  0  0
 64 78  1  0  0  0  0
 69 71  1  0  0  0  0
M  CHG  2  78   1  79   1
M  ISO  4  35 100  62 101  66 100  86 101
M  END
> <Batch ID>
0064

> <Smiles>
CNC(C)C(=O)NC(C(=O)N1Cc2cc([101O:1][101CH2:1]CN(C)CC(C)(C)c3cnc([100C:0](C)(C)[100C:0](=O)N4CCCC(n5nc(-c6ccc(Oc7ccc(F)cc7F)cc6)c(C(N)=O)c5N)C4)nc3C)ccc2CC1C(=O)NC1CCCc2ccccc21)C(C)(C)C

> <Shape>
0.235

> <Color>
0.067

> <Negative vol penalty>
0.000

$$$$

  -OEChem-04052318052D

  0  0  0     0  0  0  0  0  0999 V2000
M  END
$$$$

  -OEChem-04052318053D

 87 95  0     1  0  0  0  0  0999 V2000
  -26.5150  -32.2298   23.2469 C   0  0  0  0  0  0  0  0  0  0  0  0
  -27.2307  -31.0738   23.5419 C   0  0  0  0  0  0  0  0  0  0  0  0
  -18.5935  -23.7950   18.2796 C   0  0  0  0  0  0  0  0  0  0  0  0
  -20.8102  -24.1869   19.1569 C   0  0  0  0  0  0  0  0  0  0  0  0
  -25.4577  -32.1811   22.3393 C   0  0  0  0  0  0  0  0  0  0  0  0
  -26.8887  -29.8682   22.9303 C   0  0  0  0  0  0  0  0  0  0  0  0
  -29.8318  -23.7957   20.5263 C   0  0  0  0  0  0  0  0  0  0  0  0
  -18.1828  -25.0376   18.7621 C   0  0  0  0  0  0  0  0  0  0  0  0
  -20.3995  -25.4296   19.6394 C   0  0  0  0  0  0  0  0  0  0  0  0
  -29.6940  -22.4131   20.6407 C   0  0  0  0  0  0  0  0  0  0  0  0
  -18.6564  -26.6254   22.2781 C   0  0  0  0  0  0  0  0  0  0  0  0
  -19.0320  -26.9731   23.5756 C   0  0  0  0  0  0  0  0  0  0  0  0
  -27.8996  -22.4647   19.0293 C   0  0  0  0  0  0  0  0  0  0  0  0
  -20.2141  -28.8977   22.7177 C   0  0  0  0  0  0  0  0  0  0  0  0
  -26.4478  -16.8387   19.5012 C   0  0  0  0  0  0  0  0  0  0  0  0
  -19.9072  -23.3696   18.4771 C   0  0  0  0  0  0  0  0  0  0  0  0
  -20.8824  -21.8042   16.7147 C   0  0  0  0  0  0  0  0  0  0  0  0
  -25.1088  -30.9763   21.7090 C   0  0  0  0  0  0  0  0  0  0  0  0
  -28.9959  -24.5259   19.6693 C   0  0  0  0  0  0  0  0  0  0  0  0
  -25.8249  -29.8032   22.0145 C   0  0  0  0  0  0  0  0  0  0  0  0
  -28.0306  -23.8562   18.9039 C   0  0  0  0  0  0  0  0  0  0  0  0
  -19.0858  -25.8549   19.4420 C   0  0  0  0  0  0  0  0  0  0  0  0
  -28.7259  -21.7477   19.8943 C   0  0  0  0  0  0  0  0  0  0  0  0
  -19.0597  -27.4137   21.2003 C   0  0  0  0  0  0  0  0  0  0  0  0
  -19.8108  -28.1093   23.7955 C   0  0  0  0  0  0  0  0  0  0  0  0
  -19.8385  -28.5499   21.4202 C   0  0  0  0  0  0  0  0  0  0  0  0
  -20.3319  -22.0859   17.9794 C   0  0  0  0  0  0  0  0  0  0  0  0
  -21.1146  -20.4506   16.7351 C   0  0  0  0  0  0  0  0  0  0  0  0
  -25.2818  -16.2561   19.9109 C   0  0  0  0  0  0  0  0  0  0  0  0
  -26.9133  -14.7850   20.1839 C   0  0  0  0  0  0  0  0  0  0  0  0
  -21.1593  -22.6871   15.6195 C   0  0  0  0  0  0  0  0  0  0  0  0
  -26.8515  -26.8392   20.0615 C   0  0  0  0  0  0  0  0  0  0  0  0
  -26.8165  -26.8232   16.8180 C   0  0  0  0  0  0  0  0  0  0  0  0
  -27.3758  -25.1048   13.9230 C   0  0  0  0  0  0  0  0  0  0  0  0
  -22.7972  -16.2520   20.3269 C   0  0  0  0  0  0  0  0  0  0  0  0
  -23.9281  -30.9633   20.7707 C   0  0  0  0  0  0  0  0  0  0  0  0
  -29.1751  -26.0134   19.5373 C   0  0  0  0  0  0  0  0  0  0  0  0
  -27.1217  -24.5914   17.9542 C   0  0  0  0  0  0  0  0  0  0  0  0
  -23.8691  -29.7228   19.8830 C   0  0  0  0  0  0  0  0  0  0  0  0
  -19.3836  -16.6576   19.3997 C   0  0  0  0  0  0  0  0  0  0  0  0
  -24.1083  -28.4632   20.7093 C   0  0  0  0  0  0  0  0  0  0  0  0
  -19.3322  -18.0709   18.8149 C   0  0  0  0  0  0  0  0  0  0  0  0
  -20.3457  -16.5680   20.5828 C   0  0  0  0  0  0  0  0  0  0  0  0
  -21.6512  -18.4769   19.7338 C   0  0  0  0  0  0  0  0  0  0  0  0
  -25.5001  -28.4815   21.3528 C   0  0  1  0  0  0  0  0  0  0  0  0
  -27.9273  -26.7219   19.0192 C   0  0  1  0  0  0  0  0  0  0  0  0
  -20.7443  -18.6016   18.4986 C   0  0  2  0  0  0  0  0  0  0  0  0
  -28.3555  -16.4202   16.8136 C   0  0  0  0  0  0  0  0  0  0  0  0
  -27.2207  -25.3427   11.4296 C   0  0  0  0  0  0  0  0  0  0  0  0
  -28.7352  -13.7861   21.6082 C   0  0  0  0  0  0  0  0  0  0  0  0
  -28.3484  -12.9247   19.2748 C   0  0  0  0  0  0  0  0  0  0  0  0
  -26.7525  -12.3745   21.1002 C   0  0  0  0  0  0  0  0  0  0  0  0
  -23.7878  -26.4889   16.9769 C   0  0  0  0  0  0  0  0  0  0  0  0
  -23.8089  -25.7889   14.5732 C   0  0  0  0  0  0  0  0  0  0  0  0
  -24.5708  -28.0771   15.2108 C   0  0  0  0  0  0  0  0  0  0  0  0
  -29.8947  -15.3141   20.2581 C   0  0  0  0  0  0  0  0  0  0  0  0
  -30.2841  -24.6733   13.5845 C   0  0  0  0  0  0  0  0  0  0  0  0
  -29.2145  -15.7220   17.8649 C   0  0  0  0  0  0  0  0  0  0  0  0
  -29.1431  -18.2386   20.8960 C   0  0  0  0  0  0  0  0  0  0  0  0
  -29.2966  -17.6423   19.4909 C   0  0  0  0  0  0  0  0  0  0  0  0
  -29.4704  -19.7272   20.9038 C   0  0  0  0  0  0  0  0  0  1  0  0
  -26.0296  -26.0868   15.7609 C   0  0  1  0  0  0  0  0  0  0  0  0
  -28.1139  -25.4854   12.6522 C   0  0  2  0  0  0  0  0  0  0  0  0
  -27.6364  -13.5353   20.5252 C   0  0  0  0  0  0  0  0  0  0  0  0
  -24.5650  -26.5965   15.6497 C   0  0  0  0  0  0  0  0  0  0  0  0
  -28.9311  -16.1229   19.3534 C   0  0  2  0  0  0  0  0  0  0  0  0
  -20.2208  -20.9986   18.7472 N   0  0  0  0  0  0  0  0  0  0  0  0
  -27.4408  -15.9061   19.6816 N   0  0  0  0  0  0  0  0  0  0  0  0
  -20.7047  -20.0205   17.9627 N   0  0  0  0  0  0  0  0  0  0  0  0
  -25.5994  -14.9859   20.3279 N   0  3  0  0  0  0  0  0  0  0  0  0
  -27.3316  -26.0459   17.8649 N   0  0  0  0  0  0  0  0  0  0  0  0
  -21.6640  -17.0842   20.2080 N   0  0  0  0  0  0  0  0  0  0  0  0
  -21.6273  -19.5982   15.8224 N   0  0  0  0  0  0  0  0  0  0  0  0
  -20.8596  -24.0483   15.7665 N   0  0  0  0  0  0  0  0  0  0  0  0
  -23.9909  -16.8402   19.9101 N   0  0  0  0  0  0  0  0  0  0  0  0
  -26.5128  -28.1413   20.3765 N   0  0  0  0  0  0  0  0  0  0  0  0
  -26.7978  -26.2019   14.5259 N   0  0  0  0  0  0  0  0  0  0  0  0
  -29.3082  -24.6138   12.4660 N   0  3  0  0  0  0  0  0  0  0  0  0
  -21.6424  -22.2783   14.5365 O   0  0  0  0  0  0  0  0  0  0  0  0
  -26.3637  -25.8234   20.5432 O   0  0  0  0  0  0  0  0  0  0  0  0
  -26.9746  -28.0422   16.7146 O   0  0  0  0  0  0  0  0  0  0  0  0
  -27.3148  -23.9493   14.3371 O   0  0  0  0  0  0  0  0  0  0  0  0
  -22.7106  -15.0929   20.7405 O   0  0  0  0  0  0  0  0  0  0  0  0
  -18.6854  -27.0676   19.9128 O   0  0  0  0  0  0  0  0  0  0  0  0
  -28.5888  -20.3983   20.0045 O   0  0  0  0  0  0  0  0  0  1  0  0
  -20.1700  -28.4439   25.0417 F   0  0  0  0  0  0  0  0  0  0  0  0
  -20.2280  -29.3118   20.3889 F   0  0  0  0  0  0  0  0  0  0  0  0
  1  2  1  0  0  0  0
  1  5  2  0  0  0  0
  2  6  2  0  0  0  0
  3  8  2  0  0  0  0
  3 16  1  0  0  0  0
  4  9  1  0  0  0  0
  4 16  2  0  0  0  0
  5 18  1  0  0  0  0
  6 20  1  0  0  0  0
  7 10  2  0  0  0  0
  7 19  1  0  0  0  0
  8 22  1  0  0  0  0
  9 22  2  0  0  0  0
 10 23  1  0  0  0  0
 11 12  2  0  0  0  0
 11 24  1  0  0  0  0
 12 25  1  0  0  0  0
 13 21  1  0  0  0  0
 13 23  2  0  0  0  0
 14 25  2  0  0  0  0
 14 26  1  0  0  0  0
 15 29  2  0  0  0  0
 15 68  1  0  0  0  0
 16 27  1  0  0  0  0
 17 27  1  0  0  0  0
 17 28  2  0  0  0  0
 17 31  1  0  0  0  0
 18 20  2  0  0  0  0
 18 36  1  0  0  0  0
 19 21  2  0  0  0  0
 19 37  1  0  0  0  0
 20 45  1  0  0  0  0
 21 38  1  0  0  0  0
 22 84  1  0  0  0  0
 23 85  1  0  0  0  0
 24 26  2  0  0  0  0
 24 84  1  0  0  0  0
 25 86  1  0  0  0  0
 26 87  1  0  0  0  0
 27 67  2  0  0  0  0
 28 69  1  0  0  0  0
 28 73  1  0  0  0  0
 29 70  1  0  0  0  0
 29 75  1  0  0  0  0
 30 64  1  0  0  0  0
 30 68  1  0  0  0  0
 30 70  2  0  0  0  0
 31 74  1  0  0  0  0
 31 79  2  0  0  0  0
 32 46  1  0  0  0  0
 32 76  1  0  0  0  0
 32 80  2  0  0  0  0
 33 62  1  0  0  0  0
 33 71  1  0  0  0  0
 33 81  2  0  0  0  0
 34 63  1  0  0  0  0
 34 77  1  0  0  0  0
 34 82  2  0  0  0  0
 35 72  1  0  0  0  0
 35 75  1  0  0  0  0
 35 83  2  0  0  0  0
 36 39  1  0  0  0  0
 37 46  1  0  0  0  0
 38 71  1  0  0  0  0
 39 41  1  0  0  0  0
 40 42  1  0  0  0  0
 40 43  1  0  0  0  0
 41 45  1  0  0  0  0
 42 47  1  0  0  0  0
 43 72  1  0  0  0  0
 44 47  1  0  0  0  0
 44 72  1  0  0  0  0
 45 76  1  0  0  0  0
 46 71  1  0  0  0  0
 47 69  1  0  0  0  0
 48 58  1  0  0  0  0
 49 63  1  0  0  0  0
 50 64  1  0  0  0  0
 51 64  1  0  0  0  0
 52 64  1  0  0  0  0
 53 65  1  0  0  0  0
 54 65  1  0  0  0  0
 55 65  1  0  0  0  0
 56 66  1  0  0  0  0
 57 78  1  0  0  0  0
 58 66  1  0  0  0  0
 59 60  1  0  0  0  0
 59 61  1  0  0  0  0
 60 66  1  0  0  0  0
 61 85  1  0  0  0  0
 62 65  1  0  0  0  0
 62 77  1  0  0  0  0
 63 78  1  0  0  0  0
 66 68  1  0  0  0  0
 67 69  1  0  0  0  0
M  CHG  2  70   1  78   1
M  ISO  4  35 100  61 101  75 100  85 101
M  END
> <Batch ID>
0064

> <Smiles>
CCC(C)(CC[101CH2:1][101O:1]c1ccc2c(c1)CN(C(=O)C(NC(=O)C(C)NC)C(C)(C)C)C(C(=O)NC1CCCc3ccccc31)C2)n1cc([100NH:0][100C:0](=O)N2CCCC(n3nc(-c4ccc(Oc5ccc(F)cc5F)cc4)c(C(N)=O)c3N)C2)nc1C(C)(C)C

> <Shape>
0.221

> <Color>
0.074

> <Negative vol penalty>
0.000

$$$$

  -OEChem-04052318053D

 84 92  0     1  0  0  0  0  0999 V2000
  -19.2706  -34.0944   21.9750 C   0  0  0  0  0  0  0  0  0  0  0  0
  -20.5974  -33.8304   21.6507 C   0  0  0  0  0  0  0  0  0  0  0  0
  -27.8532  -14.2825   22.2343 C   0  0  0  0  0  0  0  0  0  0  0  0
  -28.2017  -14.4775   19.8515 C   0  0  0  0  0  0  0  0  0  0  0  0
  -18.5688  -33.2186   22.8023 C   0  0  0  0  0  0  0  0  0  0  0  0
  -21.2237  -32.6910   22.1546 C   0  0  0  0  0  0  0  0  0  0  0  0
  -25.4443  -29.2606   19.3394 C   0  0  0  0  0  0  0  0  0  0  0  0
  -27.0498  -13.1617   22.0251 C   0  0  0  0  0  0  0  0  0  0  0  0
  -27.3983  -13.3566   19.6423 C   0  0  0  0  0  0  0  0  0  0  0  0
  -26.8352  -29.2239   19.4289 C   0  0  0  0  0  0  0  0  0  0  0  0
  -27.4839   -9.8739   21.3653 C   0  0  0  0  0  0  0  0  0  0  0  0
  -27.6887   -8.7668   22.1886 C   0  0  0  0  0  0  0  0  0  0  0  0
  -26.6795  -27.4101   21.0116 C   0  0  0  0  0  0  0  0  0  0  0  0
  -25.4071   -8.9240   22.9677 C   0  0  0  0  0  0  0  0  0  0  0  0
  -30.9108  -25.4806   20.0626 C   0  0  0  0  0  0  0  0  0  0  0  0
  -28.4291  -14.9405   21.1475 C   0  0  0  0  0  0  0  0  0  0  0  0
  -30.6512  -16.1208   21.5681 C   0  0  0  0  0  0  0  0  0  0  0  0
  -19.1839  -32.0628   23.3088 C   0  0  0  0  0  0  0  0  0  0  0  0
  -24.6590  -28.3781   20.0950 C   0  0  0  0  0  0  0  0  0  0  0  0
  -20.5300  -31.7996   22.9906 C   0  0  0  0  0  0  0  0  0  0  0  0
  -25.2790  -27.4359   20.9280 C   0  0  0  0  0  0  0  0  0  0  0  0
  -26.8224  -12.6987   20.7291 C   0  0  0  0  0  0  0  0  0  0  0  0
  -27.4529  -28.3005   20.2672 C   0  0  0  0  0  0  0  0  0  0  0  0
  -26.2407  -10.5062   21.3432 C   0  0  0  0  0  0  0  0  0  0  0  0
  -26.6503   -8.2918   22.9898 C   0  0  0  0  0  0  0  0  0  0  0  0
  -25.2023  -10.0312   22.1444 C   0  0  0  0  0  0  0  0  0  0  0  0
  -29.2587  -16.0988   21.3629 C   0  0  0  0  0  0  0  0  0  0  0  0
  -30.9548  -17.4516   21.7205 C   0  0  0  0  0  0  0  0  0  0  0  0
  -30.4319  -24.4047   18.3392 C   0  0  0  0  0  0  0  0  0  0  0  0
  -31.5867  -15.0353   21.6165 C   0  0  0  0  0  0  0  0  0  0  0  0
  -22.4665  -28.7142   22.3718 C   0  0  0  0  0  0  0  0  0  0  0  0
  -22.1579  -25.5058   22.0062 C   0  0  0  0  0  0  0  0  0  0  0  0
  -23.5584  -22.5544   21.0189 C   0  0  0  0  0  0  0  0  0  0  0  0
  -28.2868  -22.4809   19.8660 C   0  0  0  0  0  0  0  0  0  0  0  0
  -18.3992  -31.1705   24.2376 C   0  0  0  0  0  0  0  0  0  0  0  0
  -23.1607  -28.4127   19.9670 C   0  0  0  0  0  0  0  0  0  0  0  0
  -24.4817  -26.4531   21.7446 C   0  0  0  0  0  0  0  0  0  0  0  0
  -19.0221  -29.7897   24.4264 C   0  0  0  0  0  0  0  0  0  0  0  0
  -29.0547  -21.5775   23.2232 C   0  0  0  0  0  0  0  0  0  0  0  0
  -20.5201  -29.9110   24.6873 C   0  0  0  0  0  0  0  0  0  0  0  0
  -29.3197  -20.0729   23.1456 C   0  0  0  0  0  0  0  0  0  0  0  0
  -27.9389  -22.0038   22.2718 C   0  0  0  0  0  0  0  0  0  0  0  0
  -28.3954  -20.0873   20.7910 C   0  0  0  0  0  0  0  0  0  0  0  0
  -21.2365  -30.5610   23.4974 C   0  0  1  0  0  0  0  0  0  0  0  0
  -22.4441  -27.8104   21.1716 C   0  0  1  0  0  0  0  0  0  0  0  0
  -29.5508  -19.6184   21.6919 C   0  0  2  0  0  0  0  0  0  0  0  0
  -23.6970  -20.1062   20.4854 C   0  0  0  0  0  0  0  0  0  0  0  0
  -22.6033  -25.2463   25.0135 C   0  0  0  0  0  0  0  0  0  0  0  0
  -23.0574  -22.8089   24.6655 C   0  0  0  0  0  0  0  0  0  0  0  0
  -20.8216  -23.7538   24.0901 C   0  0  0  0  0  0  0  0  0  0  0  0
  -28.1225  -22.9821   14.9230 C   0  0  0  0  0  0  0  0  0  0  0  0
  -29.0489  -20.8467   15.8430 C   0  0  0  0  0  0  0  0  0  0  0  0
  -26.7188  -21.5224   16.3933 C   0  0  0  0  0  0  0  0  0  0  0  0
  -22.6569  -22.9917   18.2341 C   0  0  0  0  0  0  0  0  0  0  0  0
  -30.1282  -23.3683   17.3563 C   0  0  0  0  0  0  0  0  0  0  0  0
  -30.9046  -27.9540   19.1950 C   0  0  0  0  0  0  0  0  0  0  0  0
  -29.5486  -28.6514   19.1992 C   0  0  0  0  0  0  0  0  0  1  0  0
  -22.8094  -24.2919   22.6234 C   0  0  1  0  0  0  0  0  0  0  0  0
  -23.0287  -21.4299   20.1475 C   0  0  2  0  0  0  0  0  0  0  0  0
  -28.6708  -22.8007   17.4351 C   0  0  1  0  0  0  0  0  0  0  0  0
  -22.3382  -24.0449   24.0844 C   0  0  0  0  0  0  0  0  0  0  0  0
  -28.1455  -22.0608   16.1570 C   0  0  0  0  0  0  0  0  0  0  0  0
  -30.7085  -24.2091   19.6075 N   0  0  0  0  0  0  0  0  0  0  0  0
  -28.7152  -17.3187   21.3827 N   0  0  0  0  0  0  0  0  0  0  0  0
  -30.4704  -25.7357   18.0623 N   0  0  0  0  0  0  0  0  0  0  0  0
  -30.7767  -26.4506   19.1556 N   0  0  0  0  0  0  0  0  0  0  0  0
  -29.7717  -18.1198   21.6023 N   0  0  0  0  0  0  0  0  0  0  0  0
  -23.0196  -26.5306   21.5900 N   0  0  0  0  0  0  0  0  0  0  0  0
  -28.2198  -21.5433   20.9098 N   0  0  0  0  0  0  0  0  0  0  0  0
  -32.1157  -18.1037   21.9429 N   0  0  0  0  0  0  0  0  0  0  0  0
  -31.1060  -13.7307   21.4402 N   0  0  0  0  0  0  0  0  0  0  0  0
  -21.4097  -29.6028   22.4268 N   0  0  0  0  0  0  0  0  0  0  0  0
  -22.5464  -23.1812   21.7149 N   0  0  0  0  0  0  0  0  0  0  0  0
  -28.5638  -21.9611   18.6075 N   0  0  0  0  0  0  0  0  0  0  0  0
  -23.2776  -21.7282   18.7088 N   0  3  0  0  0  0  0  0  0  0  0  0
  -32.8101  -15.2157   21.8267 O   0  0  0  0  0  0  0  0  0  0  0  0
  -23.3746  -28.6118   23.1883 O   0  0  0  0  0  0  0  0  0  0  0  0
  -20.9303  -25.5404   21.8908 O   0  0  0  0  0  0  0  0  0  0  0  0
  -24.7510  -22.8452   21.0792 O   0  0  0  0  0  0  0  0  0  0  0  0
  -28.1180  -23.6921   20.0435 O   0  0  0  0  0  0  0  0  0  0  0  0
  -26.0387  -11.6048   20.5247 O   0  0  0  0  0  0  0  0  0  0  0  0
  -28.8102  -28.2629   20.3569 O   0  0  0  0  0  0  0  0  0  1  0  0
  -26.8467   -7.2277   23.7792 F   0  0  0  0  0  0  0  0  0  0  0  0
  -24.0055  -10.6338   22.1265 F   0  0  0  0  0  0  0  0  0  0  0  0
  1  2  1  0  0  0  0
  1  5  2  0  0  0  0
  2  6  2  0  0  0  0
  3  8  2  0  0  0  0
  3 16  1  0  0  0  0
  4  9  1  0  0  0  0
  4 16  2  0  0  0  0
  5 18  1  0  0  0  0
  6 20  1  0  0  0  0
  7 10  2  0  0  0  0
  7 19  1  0  0  0  0
  8 22  1  0  0  0  0
  9 22  2  0  0  0  0
 10 23  1  0  0  0  0
 11 12  2  0  0  0  0
 11 24  1  0  0  0  0
 12 25  1  0  0  0  0
 13 21  1  0  0  0  0
 13 23  2  0  0  0  0
 14 25  2  0  0  0  0
 14 26  1  0  0  0  0
 15 63  2  0  0  0  0
 15 66  1  0  0  0  0
 16 27  1  0  0  0  0
 17 27  1  0  0  0  0
 17 28  2  0  0  0  0
 17 30  1  0  0  0  0
 18 20  2  0  0  0  0
 18 35  1  0  0  0  0
 19 21  2  0  0  0  0
 19 36  1  0  0  0  0
 20 44  1  0  0  0  0
 21 37  1  0  0  0  0
 22 81  1  0  0  0  0
 23 82  1  0  0  0  0
 24 26  2  0  0  0  0
 24 81  1  0  0  0  0
 25 83  1  0  0  0  0
 26 84  1  0  0  0  0
 27 64  2  0  0  0  0
 28 67  1  0  0  0  0
 28 70  1  0  0  0  0
 29 55  1  0  0  0  0
 29 63  1  0  0  0  0
 29 65  2  0  0  0  0
 30 71  1  0  0  0  0
 30 76  2  0  0  0  0
 31 45  1  0  0  0  0
 31 72  1  0  0  0  0
 31 77  2  0  0  0  0
 32 58  1  0  0  0  0
 32 68  1  0  0  0  0
 32 78  2  0  0  0  0
 33 59  1  0  0  0  0
 33 73  1  0  0  0  0
 33 79  2  0  0  0  0
 34 69  1  0  0  0  0
 34 74  1  0  0  0  0
 34 80  2  0  0  0  0
 35 38  1  0  0  0  0
 36 45  1  0  0  0  0
 37 68  1  0  0  0  0
 38 40  1  0  0  0  0
 39 41  1  0  0  0  0
 39 42  1  0  0  0  0
 40 44  1  0  0  0  0
 41 46  1  0  0  0  0
 42 69  1  0  0  0  0
 43 46  1  0  0  0  0
 43 69  1  0  0  0  0
 44 72  1  0  0  0  0
 45 68  1  0  0  0  0
 46 67  1  0  0  0  0
 47 59  1  0  0  0  0
 48 61  1  0  0  0  0
 49 61  1  0  0  0  0
 50 61  1  0  0  0  0
 51 62  1  0  0  0  0
 52 62  1  0  0  0  0
 53 62  1  0  0  0  0
 54 75  1  0  0  0  0
 55 60  1  0  0  0  0
 56 57  1  0  0  0  0
 56 66  1  0  0  0  0
 57 82  1  0  0  0  0
 58 61  1  0  0  0  0
 58 73  1  0  0  0  0
 59 75  1  0  0  0  0
 60 62  1  0  0  0  0
 60 74  1  0  0  0  0
 64 67  1  0  0  0  0
 65 66  1  0  0  0  0
M  CHG  1  75   1
M  ISO  4  34 100  57 101  74 100  82 101
M  END
> <Batch ID>
0064

> <Smiles>
CNC(C)C(=O)NC(C(=O)N1Cc2cc([101O:1][101CH2:1]Cn3cnc(CC([100NH:0][100C:0](=O)N4CCCC(n5nc(-c6ccc(Oc7ccc(F)cc7F)cc6)c(C(N)=O)c5N)C4)C(C)(C)C)n3)ccc2CC1C(=O)NC1CCCc2ccccc21)C(C)(C)C

> <Shape>
0.239

> <Color>
0.084

> <Negative vol penalty>
0.000

$$$$

  -OEChem-04052318053D

 93101  0     1  0  0  0  0  0999 V2000
  -32.3060  -32.4984   22.9220 C   0  0  0  0  0  0  0  0  0  0  0  0
  -31.7261  -31.3743   22.3429 C   0  0  0  0  0  0  0  0  0  0  0  0
  -24.3897   -8.7863   20.5869 C   0  0  0  0  0  0  0  0  0  0  0  0
  -22.6659  -10.4540   20.8768 C   0  0  0  0  0  0  0  0  0  0  0  0
  -31.6842  -33.1243   24.0016 C   0  0  0  0  0  0  0  0  0  0  0  0
  -30.5245  -30.8746   22.8438 C   0  0  0  0  0  0  0  0  0  0  0  0
  -27.2329  -29.6959   19.1803 C   0  0  0  0  0  0  0  0  0  0  0  0
  -23.4951   -7.7925   20.9837 C   0  0  0  0  0  0  0  0  0  0  0  0
  -21.7712   -9.4602   21.2736 C   0  0  0  0  0  0  0  0  0  0  0  0
  -27.4398  -28.4965   18.5002 C   0  0  0  0  0  0  0  0  0  0  0  0
  -22.2109   -6.6089   23.8776 C   0  0  0  0  0  0  0  0  0  0  0  0
  -22.6650   -5.6554   24.7887 C   0  0  0  0  0  0  0  0  0  0  0  0
  -25.7434  -27.4434   19.8539 C   0  0  0  0  0  0  0  0  0  0  0  0
  -22.2221   -3.9078   23.1803 C   0  0  0  0  0  0  0  0  0  0  0  0
  -30.0287  -20.8275   20.9019 C   0  0  0  0  0  0  0  0  0  0  0  0
  -28.0802  -20.1055   21.6207 C   0  0  0  0  0  0  0  0  0  0  0  0
  -23.9752  -10.1171   20.5334 C   0  0  0  0  0  0  0  0  0  0  0  0
  -25.1282  -11.6089   18.8151 C   0  0  0  0  0  0  0  0  0  0  0  0
  -30.4694  -32.6378   24.5099 C   0  0  0  0  0  0  0  0  0  0  0  0
  -26.2859  -29.7753   20.2113 C   0  0  0  0  0  0  0  0  0  0  0  0
  -29.8865  -31.4938   23.9321 C   0  0  0  0  0  0  0  0  0  0  0  0
  -25.5246  -28.6456   20.5437 C   0  0  0  0  0  0  0  0  0  0  0  0
  -28.6766  -21.1957   21.0357 C   0  0  0  0  0  0  0  0  0  0  0  0
  -22.1858   -8.1294   21.3271 C   0  0  0  0  0  0  0  0  0  0  0  0
  -26.6970  -27.3693   18.8389 C   0  0  0  0  0  0  0  0  0  0  0  0
  -21.7623   -6.2119   22.6179 C   0  0  0  0  0  0  0  0  0  0  0  0
  -22.6707   -4.3048   24.4400 C   0  0  0  0  0  0  0  0  0  0  0  0
  -21.7679   -4.8614   22.2692 C   0  0  0  0  0  0  0  0  0  0  0  0
  -24.8990  -11.1442   20.1241 C   0  0  0  0  0  0  0  0  0  0  0  0
  -26.0898  -12.5791   18.9587 C   0  0  0  0  0  0  0  0  0  0  0  0
  -24.5257  -11.2002   17.5800 C   0  0  0  0  0  0  0  0  0  0  0  0
  -26.4055  -30.4147   23.3227 C   0  0  0  0  0  0  0  0  0  0  0  0
  -23.1737  -30.2833   23.0774 C   0  0  0  0  0  0  0  0  0  0  0  0
  -27.9549  -17.0398   21.5858 C   0  0  0  0  0  0  0  0  0  0  0  0
  -20.4407  -29.1269   21.3920 C   0  0  0  0  0  0  0  0  0  0  0  0
  -29.8589  -33.3198   25.7085 C   0  0  0  0  0  0  0  0  0  0  0  0
  -26.0558  -31.0835   20.9172 C   0  0  0  0  0  0  0  0  0  0  0  0
  -24.4813  -28.6838   21.6293 C   0  0  0  0  0  0  0  0  0  0  0  0
  -28.3961  -32.9500   25.9402 C   0  0  0  0  0  0  0  0  0  0  0  0
  -28.9717  -13.8122   22.9184 C   0  0  0  0  0  0  0  0  0  0  0  0
  -28.2034  -31.4407   25.8321 C   0  0  0  0  0  0  0  0  0  0  0  0
  -27.9933  -12.8704   22.2180 C   0  0  0  0  0  0  0  0  0  0  0  0
  -28.3211  -15.1528   23.2493 C   0  0  0  0  0  0  0  0  0  0  0  0
  -26.7376  -14.8972   21.3646 C   0  0  0  0  0  0  0  0  0  0  0  0
  -28.5710  -30.9366   24.4313 C   0  0  1  0  0  0  0  0  0  0  0  0
  -25.4279  -30.9154   22.2974 C   0  0  1  0  0  0  0  0  0  0  0  0
  -27.3640  -13.5446   20.9863 C   0  0  2  0  0  0  0  0  0  0  0  0
  -29.5049  -23.9310   22.2893 C   0  0  0  0  0  0  0  0  0  0  0  0
  -17.9321  -29.1542   21.4523 C   0  0  0  0  0  0  0  0  0  0  0  0
  -31.4334  -17.7011   23.1335 C   0  0  0  0  0  0  0  0  0  0  0  0
  -30.8069  -16.7679   20.9085 C   0  0  0  0  0  0  0  0  0  0  0  0
  -28.7457  -19.2583   24.6049 C   0  0  0  0  0  0  0  0  0  0  0  0
  -26.8138  -17.8407   23.9196 C   0  0  0  0  0  0  0  0  0  0  0  0
  -26.7939  -22.8518   21.5546 C   0  0  0  0  0  0  0  0  0  0  0  0
  -23.2087  -28.2506   25.3526 C   0  0  0  0  0  0  0  0  0  0  0  0
  -20.8655  -27.6220   24.7340 C   0  0  0  0  0  0  0  0  0  0  0  0
  -21.3729  -29.9431   25.4939 C   0  0  0  0  0  0  0  0  0  0  0  0
  -26.0478  -21.9667   18.9352 C   0  0  0  0  0  0  0  0  0  0  0  0
  -28.3853  -21.5025   18.2380 C   0  0  0  0  0  0  0  0  0  0  0  0
  -20.2762  -30.4623   18.7560 C   0  0  0  0  0  0  0  0  0  0  0  0
  -29.0193  -23.7303   20.8515 C   0  0  0  0  0  0  0  0  0  0  0  0
  -26.6620  -24.9924   18.9106 C   0  0  0  0  0  0  0  0  0  1  0  0
  -22.1354  -29.1946   23.2025 C   0  0  1  0  0  0  0  0  0  0  0  0
  -19.1832  -29.8279   20.9105 C   0  0  2  0  0  0  0  0  0  0  0  0
  -30.2895  -17.0488   22.3315 C   0  0  0  0  0  0  0  0  0  0  0  0
  -28.3457  -17.9848   23.8453 C   0  0  0  0  0  0  0  0  0  0  0  0
  -28.0069  -22.5357   20.6188 C   0  0  1  0  0  0  0  0  0  0  0  0
  -28.9311  -17.8734   22.3771 C   0  0  0  0  0  0  0  0  0  0  0  0
  -21.9166  -28.7510   24.6766 C   0  0  0  0  0  0  0  0  0  0  0  0
  -27.5040  -22.4903   19.0529 C   0  0  0  0  0  0  0  0  0  0  0  0
  -27.5662  -23.8981   18.3499 C   0  0  0  0  0  0  0  0  0  0  0  0
  -30.2770  -19.5994   21.3647 N   0  0  0  0  0  0  0  0  0  0  0  0
  -25.6543  -11.7677   21.0323 N   0  0  0  0  0  0  0  0  0  0  0  0
  -29.0727  -19.1865   21.7953 N   0  0  0  0  0  0  0  0  0  0  0  0
  -26.3676  -12.6341   20.2928 N   0  0  0  0  0  0  0  0  0  0  0  0
  -24.2978  -29.9843   22.2946 N   0  0  0  0  0  0  0  0  0  0  0  0
  -27.7096  -15.7493   22.0557 N   0  0  0  0  0  0  0  0  0  0  0  0
  -26.7164  -13.3819   18.0725 N   0  0  0  0  0  0  0  0  0  0  0  0
  -23.5548  -10.1899   17.6123 N   0  0  0  0  0  0  0  0  0  0  0  0
  -27.5083  -31.2296   23.4937 N   0  0  0  0  0  0  0  0  0  0  0  0
  -20.9342  -29.6987   22.5456 N   0  0  0  0  0  0  0  0  0  0  0  0
  -19.1187  -29.8111   19.4217 N   0  3  0  0  0  0  0  0  0  0  0  0
  -24.8509  -11.7042   16.4782 O   0  0  0  0  0  0  0  0  0  0  0  0
  -26.1756  -29.3674   23.9159 O   0  0  0  0  0  0  0  0  0  0  0  0
  -22.9906  -31.3620   23.6471 O   0  0  0  0  0  0  0  0  0  0  0  0
  -27.4294  -17.5219   20.5790 O   0  0  0  0  0  0  0  0  0  0  0  0
  -20.9336  -28.1658   20.8057 O   0  0  0  0  0  0  0  0  0  0  0  0
  -21.3124   -7.1599   21.7142 O   0  0  0  0  0  0  0  0  0  0  0  0
  -26.8985  -26.1908   18.1735 O   0  0  0  0  0  0  0  0  0  1  0  0
  -23.1083   -3.3894   25.3145 F   0  0  0  0  0  0  0  0  0  0  0  0
  -21.3393   -4.4740   21.0601 F   0  0  0  0  0  0  0  0  0  0  0  0
  -27.2576  -23.7668   17.0315 F   0  0  0  0  0  0  0  0  0  0  0  0
  -28.8415  -24.3750   18.3982 F   0  0  0  0  0  0  0  0  0  0  0  0
  1  2  1  0  0  0  0
  1  5  2  0  0  0  0
  2  6  2  0  0  0  0
  3  8  2  0  0  0  0
  3 17  1  0  0  0  0
  4  9  1  0  0  0  0
  4 17  2  0  0  0  0
  5 19  1  0  0  0  0
  6 21  1  0  0  0  0
  7 10  2  0  0  0  0
  7 20  1  0  0  0  0
  8 24  1  0  0  0  0
  9 24  2  0  0  0  0
 10 25  1  0  0  0  0
 11 12  2  0  0  0  0
 11 26  1  0  0  0  0
 12 27  1  0  0  0  0
 13 22  1  0  0  0  0
 13 25  2  0  0  0  0
 14 27  2  0  0  0  0
 14 28  1  0  0  0  0
 15 23  1  0  0  0  0
 15 72  2  0  0  0  0
 16 23  2  0  0  0  0
 16 74  1  0  0  0  0
 17 29  1  0  0  0  0
 18 29  1  0  0  0  0
 18 30  2  0  0  0  0
 18 31  1  0  0  0  0
 19 21  2  0  0  0  0
 19 36  1  0  0  0  0
 20 22  2  0  0  0  0
 20 37  1  0  0  0  0
 21 45  1  0  0  0  0
 22 38  1  0  0  0  0
 23 67  1  0  0  0  0
 24 88  1  0  0  0  0
 25 89  1  0  0  0  0
 26 28  2  0  0  0  0
 26 88  1  0  0  0  0
 27 90  1  0  0  0  0
 28 91  1  0  0  0  0
 29 73  2  0  0  0  0
 30 75  1  0  0  0  0
 30 78  1  0  0  0  0
 31 79  1  0  0  0  0
 31 83  2  0  0  0  0
 32 46  1  0  0  0  0
 32 80  1  0  0  0  0
 32 84  2  0  0  0  0
 33 63  1  0  0  0  0
 33 76  1  0  0  0  0
 33 85  2  0  0  0  0
 34 68  1  0  0  0  0
 34 77  1  0  0  0  0
 34 86  2  0  0  0  0
 35 64  1  0  0  0  0
 35 81  1  0  0  0  0
 35 87  2  0  0  0  0
 36 39  1  0  0  0  0
 37 46  1  0  0  0  0
 38 76  1  0  0  0  0
 39 41  1  0  0  0  0
 40 42  1  0  0  0  0
 40 43  1  0  0  0  0
 41 45  1  0  0  0  0
 42 47  1  0  0  0  0
 43 77  1  0  0  0  0
 44 47  1  0  0  0  0
 44 77  1  0  0  0  0
 45 80  1  0  0  0  0
 46 76  1  0  0  0  0
 47 75  1  0  0  0  0
 48 61  1  0  0  0  0
 49 64  1  0  0  0  0
 50 65  1  0  0  0  0
 51 65  1  0  0  0  0
 52 66  1  0  0  0  0
 53 66  1  0  0  0  0
 54 67  1  0  0  0  0
 55 69  1  0  0  0  0
 56 69  1  0  0  0  0
 57 69  1  0  0  0  0
 58 70  1  0  0  0  0
 59 70  1  0  0  0  0
 60 82  1  0  0  0  0
 61 67  1  0  0  0  0
 62 71  1  0  0  0  0
 62 89  1  0  0  0  0
 63 69  1  0  0  0  0
 63 81  1  0  0  0  0
 64 82  1  0  0  0  0
 65 68  1  0  0  0  0
 66 68  1  0  0  0  0
 67 70  1  0  0  0  0
 68 74  1  0  0  0  0
 70 71  1  0  0  0  0
 71 92  1  0  0  0  0
 71 93  1  0  0  0  0
 72 74  1  0  0  0  0
 73 75  1  0  0  0  0
M  CHG  1  82   1
M  ISO  4  34 100  62 101  68 100  89 101
M  END
> <Batch ID>
0064

> <Smiles>
CCC(C)(c1cnn([100C:0](C(C)C)(C(C)C)[100C:0](=O)N2CCCC(n3nc(-c4ccc(Oc5ccc(F)cc5F)cc4)c(C(N)=O)c3N)C2)c1)C(C)(C)C(F)(F)[101CH2:1][101O:1]c1ccc2c(c1)CN(C(=O)C(NC(=O)C(C)NC)C(C)(C)C)C(C(=O)NC1CCCc3ccccc31)C2

> <Shape>
0.288

> <Color>
0.106

> <Negative vol penalty>
0.000

$$$$

  -OEChem-04052318052D

  0  0  0     0  0  0  0  0  0999 V2000
M  END
$$$$

  -OEChem-04052318053D

 88 96  0     1  0  0  0  0  0999 V2000
  -22.8012  -24.6943   18.3953 C   0  0  0  0  0  0  0  0  0  0  0  0
  -23.9709  -24.5564   19.1358 C   0  0  0  0  0  0  0  0  0  0  0  0
  -23.2179   -9.7007   20.4783 C   0  0  0  0  0  0  0  0  0  0  0  0
  -24.0612  -10.1402   22.6993 C   0  0  0  0  0  0  0  0  0  0  0  0
  -22.1271  -25.9147   18.3799 C   0  0  0  0  0  0  0  0  0  0  0  0
  -24.4678  -25.6393   19.8603 C   0  0  0  0  0  0  0  0  0  0  0  0
  -25.9379  -24.3420   24.5295 C   0  0  0  0  0  0  0  0  0  0  0  0
  -22.5585   -8.5669   20.9530 C   0  0  0  0  0  0  0  0  0  0  0  0
  -23.4017   -9.0064   23.1741 C   0  0  0  0  0  0  0  0  0  0  0  0
  -27.1703  -23.7023   24.6543 C   0  0  0  0  0  0  0  0  0  0  0  0
  -19.7230   -7.8646   22.6559 C   0  0  0  0  0  0  0  0  0  0  0  0
  -18.4044   -7.6632   22.2480 C   0  0  0  0  0  0  0  0  0  0  0  0
  -28.1806  -25.7905   25.3160 C   0  0  0  0  0  0  0  0  0  0  0  0
  -19.0362   -5.5581   21.2448 C   0  0  0  0  0  0  0  0  0  0  0  0
  -23.9693  -10.4873   21.3515 C   0  0  0  0  0  0  0  0  0  0  0  0
  -24.1458  -12.9704   20.7941 C   0  0  0  0  0  0  0  0  0  0  0  0
  -22.6108  -27.0102   19.1124 C   0  0  0  0  0  0  0  0  0  0  0  0
  -25.8196  -25.7154   24.7869 C   0  0  0  0  0  0  0  0  0  0  0  0
  -23.8003  -26.8758   19.8536 C   0  0  0  0  0  0  0  0  0  0  0  0
  -26.9450  -26.4448   25.1962 C   0  0  0  0  0  0  0  0  0  0  0  0
  -22.6503   -8.2198   22.3009 C   0  0  0  0  0  0  0  0  0  0  0  0
  -28.2925  -24.4271   25.0448 C   0  0  0  0  0  0  0  0  0  0  0  0
  -20.6983   -6.9127   22.3582 C   0  0  0  0  0  0  0  0  0  0  0  0
  -18.0610   -6.5100   21.5425 C   0  0  0  0  0  0  0  0  0  0  0  0
  -20.3548   -5.7595   21.6526 C   0  0  0  0  0  0  0  0  0  0  0  0
  -24.6512  -11.6582   20.8616 C   0  0  0  0  0  0  0  0  0  0  0  0
  -25.1739  -13.7073   20.2589 C   0  0  0  0  0  0  0  0  0  0  0  0
  -31.5381  -19.2456   22.4296 C   0  0  0  0  0  0  0  0  0  0  0  0
  -31.5577  -21.0634   23.6146 C   0  0  0  0  0  0  0  0  0  0  0  0
  -22.8617  -13.4778   21.1807 C   0  0  0  0  0  0  0  0  0  0  0  0
  -24.9943  -28.2572   23.0659 C   0  0  0  0  0  0  0  0  0  0  0  0
  -25.2151  -29.7777   25.9228 C   0  0  0  0  0  0  0  0  0  0  0  0
  -26.5327  -29.8539   29.0700 C   0  0  0  0  0  0  0  0  0  0  0  0
  -30.7426  -14.8282   20.4811 C   0  0  0  0  0  0  0  0  0  0  0  0
  -21.8733  -28.3230   19.0270 C   0  0  0  0  0  0  0  0  0  0  0  0
  -24.4776  -26.3852   24.6736 C   0  0  0  0  0  0  0  0  0  0  0  0
  -26.8669  -27.9171   25.5040 C   0  0  0  0  0  0  0  0  0  0  0  0
  -22.2626  -29.3127   20.1222 C   0  0  0  0  0  0  0  0  0  0  0  0
  -29.5102  -12.2664   18.1105 C   0  0  0  0  0  0  0  0  0  0  0  0
  -23.7797  -29.3810   20.2652 C   0  0  0  0  0  0  0  0  0  0  0  0
  -28.1221  -11.9436   18.6609 C   0  0  0  0  0  0  0  0  0  0  0  0
  -30.4615  -12.7323   19.2085 C   0  0  0  0  0  0  0  0  0  0  0  0
  -28.5586  -13.5564   20.5553 C   0  0  0  0  0  0  0  0  0  0  0  0
  -24.3573  -28.0201   20.6724 C   0  0  1  0  0  0  0  0  0  0  0  0
  -24.5782  -27.8929   24.4630 C   0  0  1  0  0  0  0  0  0  0  0  0
  -27.5624  -13.1285   19.4672 C   0  0  2  0  0  0  0  0  0  0  0  0
  -30.9129  -21.5854   20.2656 C   0  0  0  0  0  0  0  0  0  0  0  0
  -32.4831  -17.9591   20.4849 C   0  0  0  0  0  0  0  0  0  0  0  0
  -26.5603  -31.2412   31.1609 C   0  0  0  0  0  0  0  0  0  0  0  0
  -31.7058  -23.5796   23.0435 C   0  0  0  0  0  0  0  0  0  0  0  0
  -32.0148  -22.7929   25.3808 C   0  0  0  0  0  0  0  0  0  0  0  0
  -27.1080  -31.7589   24.5805 C   0  0  0  0  0  0  0  0  0  0  0  0
  -27.8266  -32.5089   26.8585 C   0  0  0  0  0  0  0  0  0  0  0  0
  -25.4533  -32.7931   26.1448 C   0  0  0  0  0  0  0  0  0  0  0  0
  -29.0741  -17.2993   22.4142 C   0  0  0  0  0  0  0  0  0  0  0  0
  -31.2625  -16.1958   22.8149 C   0  0  0  0  0  0  0  0  0  0  0  0
  -29.1435  -16.5445   19.7216 C   0  0  0  0  0  0  0  0  0  0  0  0
  -25.3601  -27.6632   30.6777 C   0  0  0  0  0  0  0  0  0  0  0  0
  -30.1740  -21.1488   21.5190 C   0  0  0  0  0  0  0  0  0  0  0  0
  -29.7382  -22.6848   24.3167 C   0  0  0  0  0  0  0  0  0  1  0  0
  -31.2268  -18.2999   21.3431 C   0  0  1  0  0  0  0  0  0  0  0  0
  -26.3184  -30.4782   26.6786 C   0  0  1  0  0  0  0  0  0  0  0  0
  -25.8910  -30.0908   30.4252 C   0  0  2  0  0  0  0  0  0  0  0  0
  -31.2575  -22.5058   24.0639 C   0  0  0  0  0  0  0  0  0  0  0  0
  -26.6788  -31.8574   26.0580 C   0  0  0  0  0  0  0  0  0  0  0  0
  -30.4402  -16.9821   21.7741 C   0  0  0  0  0  0  0  0  0  0  0  0
  -25.9031  -11.5638   20.4055 N   0  0  0  0  0  0  0  0  0  0  0  0
  -32.3015  -19.0263   23.4763 N   0  0  0  0  0  0  0  0  0  0  0  0
  -32.3140  -20.1828   24.2302 N   0  0  0  0  0  0  0  0  0  0  0  0
  -26.1928  -12.8260   20.0463 N   0  0  0  0  0  0  0  0  0  0  0  0
  -31.0489  -20.5158   22.4762 N   0  0  0  0  0  0  0  0  0  0  0  0
  -25.5339  -28.5281   25.3725 N   0  0  0  0  0  0  0  0  0  0  0  0
  -29.8869  -13.8302   19.9867 N   0  0  0  0  0  0  0  0  0  0  0  0
  -25.2966  -15.0166   19.9539 N   0  0  0  0  0  0  0  0  0  0  0  0
  -21.9228  -12.5839   21.7133 N   0  0  0  0  0  0  0  0  0  0  0  0
  -24.1452  -27.7830   22.0842 N   0  0  0  0  0  0  0  0  0  0  0  0
  -25.8823  -30.5443   28.0692 N   0  0  0  0  0  0  0  0  0  0  0  0
  -30.2085  -16.1184   20.6185 N   0  0  0  0  0  0  0  0  0  0  0  0
  -25.9975  -28.8675   31.2696 N   0  3  0  0  0  0  0  0  0  0  0  0
  -22.5503  -14.6850   21.0423 O   0  0  0  0  0  0  0  0  0  0  0  0
  -26.0097  -28.9208   22.8916 O   0  0  0  0  0  0  0  0  0  0  0  0
  -24.1092  -30.3161   25.8303 O   0  0  0  0  0  0  0  0  0  0  0  0
  -27.5152  -29.1319   28.9153 O   0  0  0  0  0  0  0  0  0  0  0  0
  -31.9199  -14.5823   20.7737 O   0  0  0  0  0  0  0  0  0  0  0  0
  -22.0068   -7.1137   22.7645 O   0  0  0  0  0  0  0  0  0  0  0  0
  -29.4968  -23.8052   25.1667 O   0  0  0  0  0  0  0  0  0  1  0  0
  -16.7944   -6.3161   21.1522 F   0  0  0  0  0  0  0  0  0  0  0  0
  -21.2871   -4.8409   21.3647 F   0  0  0  0  0  0  0  0  0  0  0  0
  1  2  1  0  0  0  0
  1  5  2  0  0  0  0
  2  6  2  0  0  0  0
  3  8  2  0  0  0  0
  3 15  1  0  0  0  0
  4  9  1  0  0  0  0
  4 15  2  0  0  0  0
  5 17  1  0  0  0  0
  6 19  1  0  0  0  0
  7 10  2  0  0  0  0
  7 18  1  0  0  0  0
  8 21  1  0  0  0  0
  9 21  2  0  0  0  0
 10 22  1  0  0  0  0
 11 12  2  0  0  0  0
 11 23  1  0  0  0  0
 12 24  1  0  0  0  0
 13 20  1  0  0  0  0
 13 22  2  0  0  0  0
 14 24  2  0  0  0  0
 14 25  1  0  0  0  0
 15 26  1  0  0  0  0
 16 26  1  0  0  0  0
 16 27  2  0  0  0  0
 16 30  1  0  0  0  0
 17 19  2  0  0  0  0
 17 35  1  0  0  0  0
 18 20  2  0  0  0  0
 18 36  1  0  0  0  0
 19 44  1  0  0  0  0
 20 37  1  0  0  0  0
 21 85  1  0  0  0  0
 22 86  1  0  0  0  0
 23 25  2  0  0  0  0
 23 85  1  0  0  0  0
 24 87  1  0  0  0  0
 25 88  1  0  0  0  0
 26 67  2  0  0  0  0
 27 70  1  0  0  0  0
 27 74  1  0  0  0  0
 28 61  1  0  0  0  0
 28 68  2  0  0  0  0
 28 71  1  0  0  0  0
 29 64  1  0  0  0  0
 29 69  2  0  0  0  0
 29 71  1  0  0  0  0
 30 75  1  0  0  0  0
 30 80  2  0  0  0  0
 31 45  1  0  0  0  0
 31 76  1  0  0  0  0
 31 81  2  0  0  0  0
 32 62  1  0  0  0  0
 32 72  1  0  0  0  0
 32 82  2  0  0  0  0
 33 63  1  0  0  0  0
 33 77  1  0  0  0  0
 33 83  2  0  0  0  0
 34 73  1  0  0  0  0
 34 78  1  0  0  0  0
 34 84  2  0  0  0  0
 35 38  1  0  0  0  0
 36 45  1  0  0  0  0
 37 72  1  0  0  0  0
 38 40  1  0  0  0  0
 39 41  1  0  0  0  0
 39 42  1  0  0  0  0
 40 44  1  0  0  0  0
 41 46  1  0  0  0  0
 42 73  1  0  0  0  0
 43 46  1  0  0  0  0
 43 73  1  0  0  0  0
 44 76  1  0  0  0  0
 45 72  1  0  0  0  0
 46 70  1  0  0  0  0
 47 59  1  0  0  0  0
 48 61  1  0  0  0  0
 49 63  1  0  0  0  0
 50 64  1  0  0  0  0
 51 64  1  0  0  0  0
 52 65  1  0  0  0  0
 53 65  1  0  0  0  0
 54 65  1  0  0  0  0
 55 66  1  0  0  0  0
 56 66  1  0  0  0  0
 57 78  1  0  0  0  0
 58 79  1  0  0  0  0
 59 71  1  0  0  0  0
 60 64  1  0  0  0  0
 60 86  1  0  0  0  0
 61 66  1  0  0  0  0
 62 65  1  0  0  0  0
 62 77  1  0  0  0  0
 63 79  1  0  0  0  0
 66 78  1  0  0  0  0
 67 70  1  0  0  0  0
 68 69  1  0  0  0  0
M  CHG  1  79   1
M  ISO  4  34 100  60 101  78 100  86 101
M  END
> <Batch ID>
0064

> <Smiles>
CCn1c(C(C)C(C)(C)[100N:0](C)[100C:0](=O)N2CCCC(n3nc(-c4ccc(Oc5ccc(F)cc5F)cc4)c(C(N)=O)c3N)C2)nnc1C(C)(C)[101CH2:1][101O:1]c1ccc2c(c1)CN(C(=O)C(NC(=O)C(C)NC)C(C)(C)C)C(C(=O)NC1CCCc3ccccc31)C2

> <Shape>
0.241

> <Color>
0.155

> <Negative vol penalty>
0.000

$$$$

  -OEChem-04052318053D

 85 93  0     1  0  0  0  0  0999 V2000
  -30.9967  -29.9383   20.6227 C   0  0  0  0  0  0  0  0  0  0  0  0
  -30.5491  -28.7845   19.9871 C   0  0  0  0  0  0  0  0  0  0  0  0
  -30.4085  -19.8274   19.1030 C   0  0  0  0  0  0  0  0  0  0  0  0
  -28.7825  -19.9720   20.8842 C   0  0  0  0  0  0  0  0  0  0  0  0
  -30.6346  -30.1891   21.9455 C   0  0  0  0  0  0  0  0  0  0  0  0
  -29.7401  -27.8804   20.6744 C   0  0  0  0  0  0  0  0  0  0  0  0
  -24.3738  -23.2575   19.6027 C   0  0  0  0  0  0  0  0  0  0  0  0
  -30.0129  -21.0822   18.6400 C   0  0  0  0  0  0  0  0  0  0  0  0
  -28.3870  -21.2269   20.4212 C   0  0  0  0  0  0  0  0  0  0  0  0
  -24.0337  -21.9272   19.8445 C   0  0  0  0  0  0  0  0  0  0  0  0
  -29.6803  -24.4050   17.2035 C   0  0  0  0  0  0  0  0  0  0  0  0
  -30.6806  -25.3133   16.8569 C   0  0  0  0  0  0  0  0  0  0  0  0
  -23.4069  -22.5039   22.1014 C   0  0  0  0  0  0  0  0  0  0  0  0
  -31.5390  -25.2292   19.1137 C   0  0  0  0  0  0  0  0  0  0  0  0
  -20.0520  -14.2808   21.1161 C   0  0  0  0  0  0  0  0  0  0  0  0
  -29.7932  -19.2722   20.2251 C   0  0  0  0  0  0  0  0  0  0  0  0
  -31.2084  -17.6956   21.6461 C   0  0  0  0  0  0  0  0  0  0  0  0
  -29.8128  -29.2924   22.6463 C   0  0  0  0  0  0  0  0  0  0  0  0
  -24.2430  -24.2206   20.6136 C   0  0  0  0  0  0  0  0  0  0  0  0
  -29.3678  -28.1188   22.0083 C   0  0  0  0  0  0  0  0  0  0  0  0
  -23.7435  -23.8462   21.8691 C   0  0  0  0  0  0  0  0  0  0  0  0
  -29.0022  -21.7820   19.2991 C   0  0  0  0  0  0  0  0  0  0  0  0
  -23.5529  -21.5497   21.0949 C   0  0  0  0  0  0  0  0  0  0  0  0
  -29.6093  -23.9089   18.5053 C   0  0  0  0  0  0  0  0  0  0  0  0
  -31.6099  -25.7253   17.8120 C   0  0  0  0  0  0  0  0  0  0  0  0
  -30.5386  -24.3210   19.4604 C   0  0  0  0  0  0  0  0  0  0  0  0
  -30.2010  -17.9757   20.7035 C   0  0  0  0  0  0  0  0  0  0  0  0
  -20.8993  -13.2359   21.3932 C   0  0  0  0  0  0  0  0  0  0  0  0
  -20.8869  -15.2770   20.5755 C   0  0  0  0  0  0  0  0  0  0  0  0
  -31.2052  -16.3265   21.7556 C   0  0  0  0  0  0  0  0  0  0  0  0
  -32.0700  -18.5929   22.3592 C   0  0  0  0  0  0  0  0  0  0  0  0
  -26.2534  -26.1362   22.1603 C   0  0  0  0  0  0  0  0  0  0  0  0
  -23.5208  -27.3261   23.4405 C   0  0  0  0  0  0  0  0  0  0  0  0
  -20.2399  -26.8306   24.2389 C   0  0  0  0  0  0  0  0  0  0  0  0
  -27.0111  -12.1674   20.7743 C   0  0  0  0  0  0  0  0  0  0  0  0
  -29.4867  -29.5830   24.0899 C   0  0  0  0  0  0  0  0  0  0  0  0
  -24.5889  -25.6564   20.3286 C   0  0  0  0  0  0  0  0  0  0  0  0
  -23.5653  -24.8456   22.9818 C   0  0  0  0  0  0  0  0  0  0  0  0
  -28.3189  -28.7602   24.6281 C   0  0  0  0  0  0  0  0  0  0  0  0
  -30.2215  -12.3721   19.2485 C   0  0  0  0  0  0  0  0  0  0  0  0
  -28.4737  -27.2940   24.2368 C   0  0  0  0  0  0  0  0  0  0  0  0
  -30.6712  -13.8061   19.5334 C   0  0  0  0  0  0  0  0  0  0  0  0
  -28.7194  -12.2935   18.9848 C   0  0  0  0  0  0  0  0  0  0  0  0
  -28.3239  -14.3275   20.3191 C   0  0  0  0  0  0  0  0  0  0  0  0
  -28.4683  -27.1263   22.7125 C   0  0  1  0  0  0  0  0  0  0  0  0
  -24.9014  -26.4572   21.5889 C   0  0  1  0  0  0  0  0  0  0  0  0
  -29.8220  -14.4494   20.6462 C   0  0  2  0  0  0  0  0  0  0  0  0
  -20.6390  -11.9048   21.9714 C   0  0  0  0  0  0  0  0  0  0  0  0
  -18.2795  -27.9723   25.3116 C   0  0  0  0  0  0  0  0  0  0  0  0
  -24.7455  -26.8382   26.1923 C   0  0  0  0  0  0  0  0  0  0  0  0
  -22.4569  -27.0836   27.1774 C   0  0  0  0  0  0  0  0  0  0  0  0
  -23.5052  -28.9986   25.9705 C   0  0  0  0  0  0  0  0  0  0  0  0
  -18.9414  -16.7922   20.2941 C   0  0  0  0  0  0  0  0  0  0  0  0
  -18.6393  -26.6703   21.7547 C   0  0  0  0  0  0  0  0  0  0  0  0
  -23.9870  -12.8905   22.5168 C   0  0  0  0  0  0  0  0  0  0  0  0
  -21.8031  -18.4098   20.7369 C   0  0  0  0  0  0  0  0  0  0  0  0
  -23.3743  -12.9059   21.1098 C   0  0  0  0  0  0  0  0  0  0  0  0
  -25.3422  -12.1928   22.6110 C   0  0  0  0  0  0  0  0  0  0  0  0
  -21.2291  -17.5431   19.6226 C   0  0  0  0  0  0  0  0  0  0  0  0
  -22.7523  -19.4865   20.2242 C   0  0  0  0  0  0  0  0  0  1  0  0
  -22.6798  -27.0052   24.6525 C   0  0  1  0  0  0  0  0  0  0  0  0
  -19.0067  -27.6851   24.0073 C   0  0  2  0  0  0  0  0  0  0  0  0
  -23.3519  -27.4620   25.9780 C   0  0  0  0  0  0  0  0  0  0  0  0
  -29.6015  -16.8731   20.2465 N   0  0  0  0  0  0  0  0  0  0  0  0
  -22.1664  -14.8990   20.5122 N   0  0  0  0  0  0  0  0  0  0  0  0
  -22.1419  -13.6536   21.0167 N   0  0  0  0  0  0  0  0  0  0  0  0
  -30.2342  -15.8868   20.9047 N   0  0  0  0  0  0  0  0  0  0  0  0
  -23.9234  -26.2360   22.6561 N   0  0  0  0  0  0  0  0  0  0  0  0
  -27.9714  -12.9195   20.0778 N   0  0  0  0  0  0  0  0  0  0  0  0
  -31.9384  -15.4679   22.4955 N   0  0  0  0  0  0  0  0  0  0  0  0
  -31.9401  -19.9691   22.1278 N   0  0  0  0  0  0  0  0  0  0  0  0
  -27.1179  -27.2135   22.1993 N   0  0  0  0  0  0  0  0  0  0  0  0
  -21.3704  -27.6013   24.4101 N   0  0  0  0  0  0  0  0  0  0  0  0
  -26.3523  -12.8348   21.7997 N   0  0  0  0  0  0  0  0  0  0  0  0
  -20.3733  -16.5154   20.1645 N   0  0  3  0  0  0  0  0  0  0  0  0
  -18.0625  -26.9927   23.0853 N   0  3  0  0  0  0  0  0  0  0  0  0
  -32.9407  -18.1852   23.1649 O   0  0  0  0  0  0  0  0  0  0  0  0
  -26.4940  -24.9959   22.5392 O   0  0  0  0  0  0  0  0  0  0  0  0
  -23.8039  -28.5013   23.1949 O   0  0  0  0  0  0  0  0  0  0  0  0
  -20.2033  -25.6025   24.2689 O   0  0  0  0  0  0  0  0  0  0  0  0
  -26.7633  -10.9869   20.5061 O   0  0  0  0  0  0  0  0  0  0  0  0
  -28.6161  -23.0067   18.8477 O   0  0  0  0  0  0  0  0  0  0  0  0
  -23.2209  -20.2518   21.3337 O   0  0  0  0  0  0  0  0  0  1  0  0
  -32.5714  -26.5963   17.4786 F   0  0  0  0  0  0  0  0  0  0  0  0
  -30.4762  -23.8469   20.7122 F   0  0  0  0  0  0  0  0  0  0  0  0
  1  2  1  0  0  0  0
  1  5  2  0  0  0  0
  2  6  2  0  0  0  0
  3  8  2  0  0  0  0
  3 16  1  0  0  0  0
  4  9  1  0  0  0  0
  4 16  2  0  0  0  0
  5 18  1  0  0  0  0
  6 20  1  0  0  0  0
  7 10  2  0  0  0  0
  7 19  1  0  0  0  0
  8 22  1  0  0  0  0
  9 22  2  0  0  0  0
 10 23  1  0  0  0  0
 11 12  2  0  0  0  0
 11 24  1  0  0  0  0
 12 25  1  0  0  0  0
 13 21  1  0  0  0  0
 13 23  2  0  0  0  0
 14 25  2  0  0  0  0
 14 26  1  0  0  0  0
 15 28  2  0  0  0  0
 15 29  1  0  0  0  0
 16 27  1  0  0  0  0
 17 27  1  0  0  0  0
 17 30  2  0  0  0  0
 17 31  1  0  0  0  0
 18 20  2  0  0  0  0
 18 36  1  0  0  0  0
 19 21  2  0  0  0  0
 19 37  1  0  0  0  0
 20 45  1  0  0  0  0
 21 38  1  0  0  0  0
 22 82  1  0  0  0  0
 23 83  1  0  0  0  0
 24 26  2  0  0  0  0
 24 82  1  0  0  0  0
 25 84  1  0  0  0  0
 26 85  1  0  0  0  0
 27 64  2  0  0  0  0
 28 48  1  0  0  0  0
 28 66  1  0  0  0  0
 29 65  2  0  0  0  0
 29 75  1  0  0  0  0
 30 67  1  0  0  0  0
 30 70  1  0  0  0  0
 31 71  1  0  0  0  0
 31 77  2  0  0  0  0
 32 46  1  0  0  0  0
 32 72  1  0  0  0  0
 32 78  2  0  0  0  0
 33 61  1  0  0  0  0
 33 68  1  0  0  0  0
 33 79  2  0  0  0  0
 34 62  1  0  0  0  0
 34 73  1  0  0  0  0
 34 80  2  0  0  0  0
 35 69  1  0  0  0  0
 35 74  1  0  0  0  0
 35 81  2  0  0  0  0
 36 39  1  0  0  0  0
 37 46  1  0  0  0  0
 38 68  1  0  0  0  0
 39 41  1  0  0  0  0
 40 42  1  0  0  0  0
 40 43  1  0  0  0  0
 41 45  1  0  0  0  0
 42 47  1  0  0  0  0
 43 69  1  0  0  0  0
 44 47  1  0  0  0  0
 44 69  1  0  0  0  0
 45 72  1  0  0  0  0
 46 68  1  0  0  0  0
 47 67  1  0  0  0  0
 49 62  1  0  0  0  0
 50 63  1  0  0  0  0
 51 63  1  0  0  0  0
 52 63  1  0  0  0  0
 53 75  1  0  0  0  0
 54 76  1  0  0  0  0
 55 57  1  0  0  0  0
 55 58  1  0  0  0  0
 56 59  1  0  0  0  0
 56 60  1  0  0  0  0
 57 66  1  0  0  0  0
 58 74  1  0  0  0  0
 59 75  1  0  0  0  0
 60 83  1  0  0  0  0
 61 63  1  0  0  0  0
 61 73  1  0  0  0  0
 62 76  1  0  0  0  0
 64 67  1  0  0  0  0
 65 66  1  0  0  0  0
M  CHG  1  76   1
M  ISO  4  35 100  60 101  74 100  83 101
M  END
> <Batch ID>
0064

> <Smiles>
CNC(C)C(=O)NC(C(=O)N1Cc2cc([101O:1][101CH2:1]CCN(C)c3cc(C)n(CCC[100NH:0][100C:0](=O)N4CCCC(n5nc(-c6ccc(Oc7ccc(F)cc7F)cc6)c(C(N)=O)c5N)C4)n3)ccc2CC1C(=O)NC1CCCc2ccccc21)C(C)(C)C

> <Shape>
0.218

> <Color>
0.072

> <Negative vol penalty>
0.000

$$$$

  -OEChem-04052318053D

 89 97  0     1  0  0  0  0  0999 V2000
  -22.3846  -31.5381   14.1702 C   0  0  0  0  0  0  0  0  0  0  0  0
  -23.4653  -30.9283   14.7993 C   0  0  0  0  0  0  0  0  0  0  0  0
  -30.0484  -18.1795   28.0010 C   0  0  0  0  0  0  0  0  0  0  0  0
  -31.5812  -19.6293   26.8239 C   0  0  0  0  0  0  0  0  0  0  0  0
  -21.7971  -32.6686   14.7364 C   0  0  0  0  0  0  0  0  0  0  0  0
  -23.9598  -31.4495   15.9944 C   0  0  0  0  0  0  0  0  0  0  0  0
  -24.8813  -27.8595   19.4452 C   0  0  0  0  0  0  0  0  0  0  0  0
  -30.8301  -18.2869   29.1512 C   0  0  0  0  0  0  0  0  0  0  0  0
  -32.3629  -19.7367   27.9742 C   0  0  0  0  0  0  0  0  0  0  0  0
  -26.0510  -27.1161   19.2938 C   0  0  0  0  0  0  0  0  0  0  0  0
  -32.6167  -17.8908   32.2936 C   0  0  0  0  0  0  0  0  0  0  0  0
  -32.8910  -16.7225   33.0046 C   0  0  0  0  0  0  0  0  0  0  0  0
  -27.1277  -28.4806   20.9665 C   0  0  0  0  0  0  0  0  0  0  0  0
  -33.9771  -15.7924   31.0572 C   0  0  0  0  0  0  0  0  0  0  0  0
  -30.4240  -18.8507   26.8373 C   0  0  0  0  0  0  0  0  0  0  0  0
  -28.5436  -19.5674   25.2696 C   0  0  0  0  0  0  0  0  0  0  0  0
  -22.2785  -33.1982   15.9441 C   0  0  0  0  0  0  0  0  0  0  0  0
  -24.8293  -28.9278   20.3521 C   0  0  0  0  0  0  0  0  0  0  0  0
  -23.3790  -32.5889   16.5766 C   0  0  0  0  0  0  0  0  0  0  0  0
  -25.9553  -29.2344   21.1294 C   0  0  0  0  0  0  0  0  0  0  0  0
  -31.9873  -19.0655   29.1378 C   0  0  0  0  0  0  0  0  0  0  0  0
  -27.1753  -27.4284   20.0524 C   0  0  0  0  0  0  0  0  0  0  0  0
  -33.0225  -18.0099   30.9644 C   0  0  0  0  0  0  0  0  0  0  0  0
  -33.5712  -15.6734   32.3864 C   0  0  0  0  0  0  0  0  0  0  0  0
  -33.7027  -16.9607   30.3462 C   0  0  0  0  0  0  0  0  0  0  0  0
  -29.6173  -18.7397   25.6486 C   0  0  0  0  0  0  0  0  0  0  0  0
  -29.0515  -21.5772   20.3999 C   0  0  0  0  0  0  0  0  0  0  0  0
  -29.7178  -22.7324   20.7449 C   0  0  0  0  0  0  0  0  0  0  0  0
  -31.0247  -20.4227   20.4544 C   0  0  0  0  0  0  0  0  0  0  0  0
  -31.6912  -21.5780   20.7986 C   0  0  0  0  0  0  0  0  0  0  0  0
  -28.1161  -19.0485   24.0719 C   0  0  0  0  0  0  0  0  0  0  0  0
  -27.9828  -20.7039   25.9401 C   0  0  0  0  0  0  0  0  0  0  0  0
  -24.3442  -32.0594   20.1037 C   0  0  0  0  0  0  0  0  0  0  0  0
  -24.3865  -31.9288   23.3447 C   0  0  0  0  0  0  0  0  0  0  0  0
  -25.3947  -30.2937   26.1654 C   0  0  0  0  0  0  0  0  0  0  0  0
  -31.2257  -15.5654   20.1049 C   0  0  0  0  0  0  0  0  0  0  0  0
  -21.6408  -34.4498   16.4933 C   0  0  0  0  0  0  0  0  0  0  0  0
  -23.5517  -29.7030   20.5229 C   0  0  0  0  0  0  0  0  0  0  0  0
  -25.9449  -30.3587   22.1315 C   0  0  0  0  0  0  0  0  0  0  0  0
  -21.9864  -34.7181   17.9557 C   0  0  0  0  0  0  0  0  0  0  0  0
  -27.9012  -14.9559   21.6142 C   0  0  0  0  0  0  0  0  0  0  0  0
  -23.4837  -34.5458   18.1908 C   0  0  0  0  0  0  0  0  0  0  0  0
  -27.9124  -15.8815   22.8296 C   0  0  0  0  0  0  0  0  0  0  0  0
  -29.3071  -14.5007   21.2350 C   0  0  0  0  0  0  0  0  0  0  0  0
  -30.2758  -16.5449   22.2336 C   0  0  0  0  0  0  0  0  0  0  0  0
  -23.9282  -33.1099   17.8870 C   0  0  1  0  0  0  0  0  0  0  0  0
  -23.7714  -31.0961   21.1046 C   0  0  1  0  0  0  0  0  0  0  0  0
  -28.8790  -17.0590   22.6136 C   0  0  2  0  0  0  0  0  0  0  0  0
  -27.2156  -21.5333   18.6928 C   0  0  0  0  0  0  0  0  0  0  0  0
  -25.3106  -30.4488   28.6687 C   0  0  0  0  0  0  0  0  0  0  0  0
  -26.5271  -34.1022   23.2795 C   0  0  0  0  0  0  0  0  0  0  0  0
  -27.0691  -33.5423   25.6587 C   0  0  0  0  0  0  0  0  0  0  0  0
  -24.8002  -34.3920   25.0650 C   0  0  0  0  0  0  0  0  0  0  0  0
  -32.6656  -16.7473   18.4896 C   0  0  0  0  0  0  0  0  0  0  0  0
  -23.9299  -27.7320   26.3908 C   0  0  0  0  0  0  0  0  0  0  0  0
  -27.5780  -21.5668   20.1757 C   0  0  0  0  0  0  0  0  0  0  0  0
  -28.9876  -24.0410   20.9123 C   0  0  0  0  0  0  0  0  0  0  0  0
  -31.7462  -19.1287   20.2902 C   0  0  0  0  0  0  0  0  0  0  0  0
  -29.9119  -25.2592   20.9682 C   0  0  0  0  0  0  0  0  0  0  0  0
  -30.8983  -18.0304   19.6367 C   0  0  0  0  0  0  0  0  0  0  0  0
  -29.1613  -26.5833   21.0512 C   0  0  0  0  0  0  0  0  0  1  0  0
  -25.4549  -32.0409   24.4053 C   0  0  1  0  0  0  0  0  0  0  0  0
  -24.6416  -29.8932   27.4211 C   0  0  2  0  0  0  0  0  0  0  0  0
  -33.1647  -21.5881   21.0225 C   0  0  0  0  0  0  0  0  0  0  0  0
  -25.9640  -33.4993   24.5819 C   0  0  0  0  0  0  0  0  0  0  0  0
  -29.8570  -17.7685   24.7635 N   0  0  0  0  0  0  0  0  0  0  0  0
  -29.6929  -20.4016   20.2485 N   0  0  0  0  0  0  0  0  0  0  0  0
  -31.0497  -22.7535   20.9504 N   0  0  0  0  0  0  0  0  0  0  0  0
  -28.9279  -17.9827   23.8165 N   0  0  0  0  0  0  0  0  0  0  0  0
  -24.6741  -31.0913   22.2576 N   0  0  0  0  0  0  0  0  0  0  0  0
  -30.2155  -15.6371   21.0782 N   0  0  0  0  0  0  0  0  0  0  0  0
  -27.1287  -19.4043   23.2229 N   0  0  0  0  0  0  0  0  0  0  0  0
  -28.5427  -21.1024   27.1616 N   0  0  0  0  0  0  0  0  0  0  0  0
  -23.5649  -32.2275   18.9750 N   0  0  0  0  0  0  0  0  0  0  0  0
  -24.8913  -31.4539   25.6161 N   0  0  0  0  0  0  0  0  0  0  0  0
  -31.6296  -16.7714   19.5123 N   0  0  0  0  0  0  0  0  0  0  0  0
  -24.5848  -28.4087   27.5398 N   0  3  0  0  0  0  0  0  0  0  0  0
  -27.0034  -21.3371   25.4780 O   0  0  0  0  0  0  0  0  0  0  0  0
  -25.4132  -32.6104   20.3388 O   0  0  0  0  0  0  0  0  0  0  0  0
  -23.3326  -32.5555   23.4794 O   0  0  0  0  0  0  0  0  0  0  0  0
  -26.3379  -29.6445   25.7188 O   0  0  0  0  0  0  0  0  0  0  0  0
  -31.7307  -14.4840   19.7771 O   0  0  0  0  0  0  0  0  0  0  0  0
  -32.7501  -19.1707   30.2601 O   0  0  0  0  0  0  0  0  0  0  0  0
  -28.3185  -26.7047   19.9061 O   0  0  0  0  0  0  0  0  0  1  0  0
  -33.8359  -14.5521   33.0697 F   0  0  0  0  0  0  0  0  0  0  0  0
  -34.0962  -17.0698   29.0698 F   0  0  0  0  0  0  0  0  0  0  0  0
  -33.7536  -20.3668   20.8533 F   0  0  0  0  0  0  0  0  0  0  0  0
  -33.8406  -22.4275   20.1827 F   0  0  0  0  0  0  0  0  0  0  0  0
  -33.5024  -21.9844   22.2846 F   0  0  0  0  0  0  0  0  0  0  0  0
  1  2  1  0  0  0  0
  1  5  2  0  0  0  0
  2  6  2  0  0  0  0
  3  8  2  0  0  0  0
  3 15  1  0  0  0  0
  4  9  1  0  0  0  0
  4 15  2  0  0  0  0
  5 17  1  0  0  0  0
  6 19  1  0  0  0  0
  7 10  2  0  0  0  0
  7 18  1  0  0  0  0
  8 21  1  0  0  0  0
  9 21  2  0  0  0  0
 10 22  1  0  0  0  0
 11 12  2  0  0  0  0
 11 23  1  0  0  0  0
 12 24  1  0  0  0  0
 13 20  1  0  0  0  0
 13 22  2  0  0  0  0
 14 24  2  0  0  0  0
 14 25  1  0  0  0  0
 15 26  1  0  0  0  0
 16 26  1  0  0  0  0
 16 31  2  0  0  0  0
 16 32  1  0  0  0  0
 17 19  2  0  0  0  0
 17 37  1  0  0  0  0
 18 20  2  0  0  0  0
 18 38  1  0  0  0  0
 19 46  1  0  0  0  0
 20 39  1  0  0  0  0
 21 83  1  0  0  0  0
 22 84  1  0  0  0  0
 23 25  2  0  0  0  0
 23 83  1  0  0  0  0
 24 85  1  0  0  0  0
 25 86  1  0  0  0  0
 26 66  2  0  0  0  0
 27 28  2  0  0  0  0
 27 56  1  0  0  0  0
 27 67  1  0  0  0  0
 28 57  1  0  0  0  0
 28 68  1  0  0  0  0
 29 30  1  0  0  0  0
 29 58  1  0  0  0  0
 29 67  2  0  0  0  0
 30 64  1  0  0  0  0
 30 68  2  0  0  0  0
 31 69  1  0  0  0  0
 31 72  1  0  0  0  0
 32 73  1  0  0  0  0
 32 78  2  0  0  0  0
 33 47  1  0  0  0  0
 33 74  1  0  0  0  0
 33 79  2  0  0  0  0
 34 62  1  0  0  0  0
 34 70  1  0  0  0  0
 34 80  2  0  0  0  0
 35 63  1  0  0  0  0
 35 75  1  0  0  0  0
 35 81  2  0  0  0  0
 36 71  1  0  0  0  0
 36 76  1  0  0  0  0
 36 82  2  0  0  0  0
 37 40  1  0  0  0  0
 38 47  1  0  0  0  0
 39 70  1  0  0  0  0
 40 42  1  0  0  0  0
 41 43  1  0  0  0  0
 41 44  1  0  0  0  0
 42 46  1  0  0  0  0
 43 48  1  0  0  0  0
 44 71  1  0  0  0  0
 45 48  1  0  0  0  0
 45 71  1  0  0  0  0
 46 74  1  0  0  0  0
 47 70  1  0  0  0  0
 48 69  1  0  0  0  0
 49 56  1  0  0  0  0
 50 63  1  0  0  0  0
 51 65  1  0  0  0  0
 52 65  1  0  0  0  0
 53 65  1  0  0  0  0
 54 76  1  0  0  0  0
 55 77  1  0  0  0  0
 57 59  1  0  0  0  0
 58 60  1  0  0  0  0
 59 61  1  0  0  0  0
 60 76  1  0  0  0  0
 61 84  1  0  0  0  0
 62 65  1  0  0  0  0
 62 75  1  0  0  0  0
 63 77  1  0  0  0  0
 64 87  1  0  0  0  0
 64 88  1  0  0  0  0
 64 89  1  0  0  0  0
 66 69  1  0  0  0  0
M  CHG  1  77   1
M  ISO  4  36 100  61 101  76 100  84 101
M  END
> <Batch ID>
0064

> <Smiles>
CCc1nc(CC[100N:0](C)[100C:0](=O)N2CCCC(n3nc(-c4ccc(Oc5ccc(F)cc5F)cc4)c(C(N)=O)c3N)C2)c(C(F)(F)F)nc1CC[101CH2:1][101O:1]c1ccc2c(c1)CN(C(=O)C(NC(=O)C(C)NC)C(C)(C)C)C(C(=O)NC1CCCc3ccccc31)C2

> <Shape>
0.192

> <Color>
0.106

> <Negative vol penalty>
0.000

$$$$

  -OEChem-04052318053D

 89 97  0     1  0  0  0  0  0999 V2000
  -25.8996  -34.8587   24.5495 C   0  0  0  0  0  0  0  0  0  0  0  0
  -26.4722  -33.6676   24.1150 C   0  0  0  0  0  0  0  0  0  0  0  0
  -24.4645  -12.3989   22.1783 C   0  0  0  0  0  0  0  0  0  0  0  0
  -23.3724  -12.4715   20.0244 C   0  0  0  0  0  0  0  0  0  0  0  0
  -24.5738  -34.8770   24.9805 C   0  0  0  0  0  0  0  0  0  0  0  0
  -25.7196  -32.4937   24.1124 C   0  0  0  0  0  0  0  0  0  0  0  0
  -26.2910  -29.8291   19.8441 C   0  0  0  0  0  0  0  0  0  0  0  0
  -23.4700  -11.5443   22.6538 C   0  0  0  0  0  0  0  0  0  0  0  0
  -22.3778  -11.6168   20.4999 C   0  0  0  0  0  0  0  0  0  0  0  0
  -27.4560  -29.0739   19.7160 C   0  0  0  0  0  0  0  0  0  0  0  0
  -21.4142   -9.0558   24.3260 C   0  0  0  0  0  0  0  0  0  0  0  0
  -21.8144   -7.9434   25.0663 C   0  0  0  0  0  0  0  0  0  0  0  0
  -26.2346  -27.0932   20.3519 C   0  0  0  0  0  0  0  0  0  0  0  0
  -23.0940   -7.1472   23.1779 C   0  0  0  0  0  0  0  0  0  0  0  0
  -28.8647  -21.9339   18.2050 C   0  0  0  0  0  0  0  0  0  0  0  0
  -24.4157  -12.8625   20.8636 C   0  0  0  0  0  0  0  0  0  0  0  0
  -26.6501  -13.3811   19.7472 C   0  0  0  0  0  0  0  0  0  0  0  0
  -23.8016  -33.7047   24.9741 C   0  0  0  0  0  0  0  0  0  0  0  0
  -25.0895  -29.2229   20.2382 C   0  0  0  0  0  0  0  0  0  0  0  0
  -24.3826  -32.4960   24.5450 C   0  0  0  0  0  0  0  0  0  0  0  0
  -25.0553  -27.8425   20.4817 C   0  0  0  0  0  0  0  0  0  0  0  0
  -22.4266  -11.1532   21.8146 C   0  0  0  0  0  0  0  0  0  0  0  0
  -27.4286  -27.7063   19.9728 C   0  0  0  0  0  0  0  0  0  0  0  0
  -21.8538   -9.2138   23.0116 C   0  0  0  0  0  0  0  0  0  0  0  0
  -22.6544   -6.9891   24.4923 C   0  0  0  0  0  0  0  0  0  0  0  0
  -22.6937   -8.2595   22.4376 C   0  0  0  0  0  0  0  0  0  0  0  0
  -25.4424  -13.7458   20.3720 C   0  0  0  0  0  0  0  0  0  0  0  0
  -28.6892  -22.5483   19.4127 C   0  0  0  0  0  0  0  0  0  0  0  0
  -27.2692  -14.5759   19.4726 C   0  0  0  0  0  0  0  0  0  0  0  0
  -26.7187  -21.8032   18.7324 C   0  0  0  0  0  0  0  0  0  0  0  0
  -27.1660  -12.0786   19.4422 C   0  0  0  0  0  0  0  0  0  0  0  0
  -23.1186  -29.5480   22.7108 C   0  0  0  0  0  0  0  0  0  0  0  0
  -21.2884  -27.4658   21.0265 C   0  0  0  0  0  0  0  0  0  0  0  0
  -25.0356  -20.0142   18.6287 C   0  0  0  0  0  0  0  0  0  0  0  0
  -21.1237  -25.0060   18.6666 C   0  0  0  0  0  0  0  0  0  0  0  0
  -22.3871  -33.7643   25.4939 C   0  0  0  0  0  0  0  0  0  0  0  0
  -23.8357  -30.0467   20.3458 C   0  0  0  0  0  0  0  0  0  0  0  0
  -23.7864  -27.1401   20.8880 C   0  0  0  0  0  0  0  0  0  0  0  0
  -21.5443  -32.5519   25.1066 C   0  0  0  0  0  0  0  0  0  0  0  0
  -27.5967  -19.0786   21.0354 C   0  0  0  0  0  0  0  0  0  0  0  0
  -22.3182  -31.2616   25.3575 C   0  0  0  0  0  0  0  0  0  0  0  0
  -27.4185  -17.5622   21.0975 C   0  0  0  0  0  0  0  0  0  0  0  0
  -26.2615  -19.7934   20.8446 C   0  0  0  0  0  0  0  0  0  0  0  0
  -25.3122  -17.8076   19.7132 C   0  0  0  0  0  0  0  0  0  0  0  0
  -23.5910  -31.2069   24.5040 C   0  0  1  0  0  0  0  0  0  0  0  0
  -22.7827  -29.4166   21.2522 C   0  0  1  0  0  0  0  0  0  0  0  0
  -26.6393  -17.0476   19.8745 C   0  0  2  0  0  0  0  0  0  0  0  0
  -31.1203  -21.0587   20.7029 C   0  0  0  0  0  0  0  0  0  0  0  0
  -27.3254  -21.6913   15.3707 C   0  0  0  0  0  0  0  0  0  0  0  0
  -19.4950  -23.4708   17.5317 C   0  0  0  0  0  0  0  0  0  0  0  0
  -29.2317  -23.1170   21.8489 C   0  0  0  0  0  0  0  0  0  0  0  0
  -24.4401  -21.9161   19.9581 C   0  0  0  0  0  0  0  0  0  0  0  0
  -21.1998  -25.7167   23.5251 C   0  0  0  0  0  0  0  0  0  0  0  0
  -20.4082  -23.8254   22.0883 C   0  0  0  0  0  0  0  0  0  0  0  0
  -19.0281  -25.8928   22.2974 C   0  0  0  0  0  0  0  0  0  0  0  0
  -30.3315  -25.0569   18.5339 C   0  0  0  0  0  0  0  0  0  0  0  0
  -30.8611  -25.5485   20.9036 C   0  0  0  0  0  0  0  0  0  0  0  0
  -21.7133  -26.1588   16.0053 C   0  0  0  0  0  0  0  0  0  0  0  0
  -31.1042  -22.5356   20.3010 C   0  0  0  0  0  0  0  0  0  0  0  0
  -27.3600  -20.7672   16.5758 C   0  0  0  0  0  0  0  0  0  0  0  0
  -24.5508  -22.0946   17.4346 C   0  0  0  0  0  0  0  0  0  0  0  0
  -28.4641  -25.5710   20.1277 C   0  0  0  0  0  0  0  0  0  1  0  0
  -21.1695  -25.9626   20.9551 C   0  0  1  0  0  0  0  0  0  0  0  0
  -20.2046  -24.8146   17.4736 C   0  0  2  0  0  0  0  0  0  0  0  0
  -29.6992  -23.2537   20.3642 C   0  0  1  0  0  0  0  0  0  0  0  0
  -25.2657  -21.5030   18.6953 C   0  0  1  0  0  0  0  0  0  0  0  0
  -20.4759  -25.3626   22.2107 C   0  0  0  0  0  0  0  0  0  0  0  0
  -29.8328  -24.8314   19.9852 C   0  0  0  0  0  0  0  0  0  0  0  0
  -25.3009  -15.0689   20.4878 N   0  0  0  0  0  0  0  0  0  0  0  0
  -27.6294  -21.4819   17.8077 N   0  0  0  0  0  0  0  0  0  0  0  0
  -26.4277  -15.5460   19.9320 N   0  0  0  0  0  0  0  0  0  0  0  0
  -27.3520  -22.4528   19.7144 N   0  3  0  0  0  0  0  0  0  0  0  0
  -22.5882  -27.9899   20.9857 N   0  0  0  0  0  0  0  0  0  0  0  0
  -25.5380  -19.2556   19.6863 N   0  0  0  0  0  0  0  0  0  0  0  0
  -28.4459  -14.8810   18.8854 N   0  0  0  0  0  0  0  0  0  0  0  0
  -26.4010  -10.9579   19.7931 N   0  0  0  0  0  0  0  0  0  0  0  0
  -23.2689  -30.8535   23.1381 N   0  0  0  0  0  0  0  0  0  0  0  0
  -20.4904  -25.6660   19.6984 N   0  0  0  0  0  0  0  0  0  0  0  0
  -24.6740  -23.5742   17.3955 N   0  3  0  0  0  0  0  0  0  0  0  0
  -20.9829  -24.8806   16.2044 N   0  3  0  0  0  0  0  0  0  0  0  0
  -28.2801  -11.9129   18.8900 O   0  0  0  0  0  0  0  0  0  0  0  0
  -23.2317  -28.5397   23.3980 O   0  0  0  0  0  0  0  0  0  0  0  0
  -20.2653  -28.1502   21.1080 O   0  0  0  0  0  0  0  0  0  0  0  0
  -24.4297  -19.5412   17.6637 O   0  0  0  0  0  0  0  0  0  0  0  0
  -22.2858  -24.6065   18.6830 O   0  0  0  0  0  0  0  0  0  0  0  0
  -21.4561  -10.3191   22.2782 O   0  0  0  0  0  0  0  0  0  0  0  0
  -28.5643  -26.9670   19.8492 O   0  0  0  0  0  0  0  0  0  1  0  0
  -23.0399   -5.9218   25.2038 F   0  0  0  0  0  0  0  0  0  0  0  0
  -23.1203   -8.4065   21.1758 F   0  0  0  0  0  0  0  0  0  0  0  0
  1  2  1  0  0  0  0
  1  5  2  0  0  0  0
  2  6  2  0  0  0  0
  3  8  2  0  0  0  0
  3 16  1  0  0  0  0
  4  9  1  0  0  0  0
  4 16  2  0  0  0  0
  5 18  1  0  0  0  0
  6 20  1  0  0  0  0
  7 10  2  0  0  0  0
  7 19  1  0  0  0  0
  8 22  1  0  0  0  0
  9 22  2  0  0  0  0
 10 23  1  0  0  0  0
 11 12  2  0  0  0  0
 11 24  1  0  0  0  0
 12 25  1  0  0  0  0
 13 21  1  0  0  0  0
 13 23  2  0  0  0  0
 14 25  2  0  0  0  0
 14 26  1  0  0  0  0
 15 28  2  0  0  0  0
 15 70  1  0  0  0  0
 16 27  1  0  0  0  0
 17 27  1  0  0  0  0
 17 29  2  0  0  0  0
 17 31  1  0  0  0  0
 18 20  2  0  0  0  0
 18 36  1  0  0  0  0
 19 21  2  0  0  0  0
 19 37  1  0  0  0  0
 20 45  1  0  0  0  0
 21 38  1  0  0  0  0
 22 86  1  0  0  0  0
 23 87  1  0  0  0  0
 24 26  2  0  0  0  0
 24 86  1  0  0  0  0
 25 88  1  0  0  0  0
 26 89  1  0  0  0  0
 27 69  2  0  0  0  0
 28 65  1  0  0  0  0
 28 72  1  0  0  0  0
 29 71  1  0  0  0  0
 29 75  1  0  0  0  0
 30 66  1  0  0  0  0
 30 70  1  0  0  0  0
 30 72  2  0  0  0  0
 31 76  1  0  0  0  0
 31 81  2  0  0  0  0
 32 46  1  0  0  0  0
 32 77  1  0  0  0  0
 32 82  2  0  0  0  0
 33 63  1  0  0  0  0
 33 73  1  0  0  0  0
 33 83  2  0  0  0  0
 34 66  1  0  0  0  0
 34 74  1  0  0  0  0
 34 84  2  0  0  0  0
 35 64  1  0  0  0  0
 35 78  1  0  0  0  0
 35 85  2  0  0  0  0
 36 39  1  0  0  0  0
 37 46  1  0  0  0  0
 38 73  1  0  0  0  0
 39 41  1  0  0  0  0
 40 42  1  0  0  0  0
 40 43  1  0  0  0  0
 41 45  1  0  0  0  0
 42 47  1  0  0  0  0
 43 74  1  0  0  0  0
 44 47  1  0  0  0  0
 44 74  1  0  0  0  0
 45 77  1  0  0  0  0
 46 73  1  0  0  0  0
 47 71  1  0  0  0  0
 48 59  1  0  0  0  0
 49 60  1  0  0  0  0
 50 64  1  0  0  0  0
 51 65  1  0  0  0  0
 52 66  1  0  0  0  0
 53 67  1  0  0  0  0
 54 67  1  0  0  0  0
 55 67  1  0  0  0  0
 56 68  1  0  0  0  0
 57 68  1  0  0  0  0
 58 80  1  0  0  0  0
 59 65  1  0  0  0  0
 60 70  1  0  0  0  0
 61 66  1  0  0  0  0
 61 79  1  0  0  0  0
 62 68  1  0  0  0  0
 62 87  1  0  0  0  0
 63 67  1  0  0  0  0
 63 78  1  0  0  0  0
 64 80  1  0  0  0  0
 65 68  1  0  0  0  0
 69 71  1  0  0  0  0
M  CHG  3  72   1  79   1  80   1
M  ISO  4  34 100  62 101  66 100  87 101
M  END
> <Batch ID>
0064

> <Smiles>
CCn1cc(C(C)(CC)C(C)(C)[101CH2:1][101O:1]c2ccc3c(c2)CN(C(=O)C(NC(=O)C(C)NC)C(C)(C)C)C(C(=O)NC2CCCc4ccccc42)C3)nc1[100C:0](C)(CN)[100C:0](=O)N1CCCC(n2nc(-c3ccc(Oc4ccc(F)cc4F)cc3)c(C(N)=O)c2N)C1

> <Shape>
0.275

> <Color>
0.065

> <Negative vol penalty>
0.000

$$$$
