
  -OEChem-04052318072D

  0  0  0     0  0  0  0  0  0999 V2000
M  END
$$$$

  -OEChem-04052318073D

 86 94  0     1  0  0  0  0  0999 V2000
  -31.6763  -32.4927   18.6446 C   0  0  0  0  0  0  0  0  0  0  0  0
  -30.9820  -31.2906   18.7348 C   0  0  0  0  0  0  0  0  0  0  0  0
  -23.1984  -13.1704   21.6342 C   0  0  0  0  0  0  0  0  0  0  0  0
  -24.5858  -12.0270   20.0203 C   0  0  0  0  0  0  0  0  0  0  0  0
  -31.5473  -33.4482   19.6518 C   0  0  0  0  0  0  0  0  0  0  0  0
  -30.1590  -31.0427   19.8329 C   0  0  0  0  0  0  0  0  0  0  0  0
  -25.6882  -29.0702   18.5041 C   0  0  0  0  0  0  0  0  0  0  0  0
  -22.1767  -12.2477   21.4096 C   0  0  0  0  0  0  0  0  0  0  0  0
  -23.5641  -11.1043   19.7957 C   0  0  0  0  0  0  0  0  0  0  0  0
  -25.6603  -27.7131   18.1860 C   0  0  0  0  0  0  0  0  0  0  0  0
  -22.3047   -8.3644   21.3213 C   0  0  0  0  0  0  0  0  0  0  0  0
  -22.6525   -7.0146   21.2692 C   0  0  0  0  0  0  0  0  0  0  0  0
  -24.8058  -27.2208   20.3875 C   0  0  0  0  0  0  0  0  0  0  0  0
  -21.8045   -6.8833   19.0107 C   0  0  0  0  0  0  0  0  0  0  0  0
  -28.3917  -25.3730   20.5556 C   0  0  0  0  0  0  0  0  0  0  0  0
  -24.4029  -13.0600   20.9395 C   0  0  0  0  0  0  0  0  0  0  0  0
  -26.4918  -13.9230   22.1225 C   0  0  0  0  0  0  0  0  0  0  0  0
  -30.7148  -33.2159   20.7580 C   0  0  0  0  0  0  0  0  0  0  0  0
  -25.2847  -29.5125   19.7722 C   0  0  0  0  0  0  0  0  0  0  0  0
  -30.0198  -31.9954   20.8565 C   0  0  0  0  0  0  0  0  0  0  0  0
  -24.8271  -28.5843   20.7183 C   0  0  0  0  0  0  0  0  0  0  0  0
  -22.3595  -11.2147   20.4904 C   0  0  0  0  0  0  0  0  0  0  0  0
  -25.2218  -26.7879   19.1287 C   0  0  0  0  0  0  0  0  0  0  0  0
  -21.7068   -8.9737   20.2181 C   0  0  0  0  0  0  0  0  0  0  0  0
  -22.4024   -6.2741   20.1139 C   0  0  0  0  0  0  0  0  0  0  0  0
  -21.4567   -8.2332   19.0628 C   0  0  0  0  0  0  0  0  0  0  0  0
  -25.4585  -14.0132   21.1707 C   0  0  0  0  0  0  0  0  0  0  0  0
  -27.2267  -15.0691   21.9411 C   0  0  0  0  0  0  0  0  0  0  0  0
  -29.6027  -23.9601   19.4392 C   0  0  0  0  0  0  0  0  0  0  0  0
  -26.7632  -12.8952   23.0846 C   0  0  0  0  0  0  0  0  0  0  0  0
  -26.7084  -31.0252   22.1781 C   0  0  0  0  0  0  0  0  0  0  0  0
  -23.7131  -31.0486   23.4229 C   0  0  0  0  0  0  0  0  0  0  0  0
  -20.6070  -29.6386   23.5249 C   0  0  0  0  0  0  0  0  0  0  0  0
  -29.7204  -18.7020   18.8517 C   0  0  0  0  0  0  0  0  0  0  0  0
  -30.6441  -34.2590   21.8450 C   0  0  0  0  0  0  0  0  0  0  0  0
  -25.2955  -30.9825   20.0905 C   0  0  0  0  0  0  0  0  0  0  0  0
  -24.3641  -29.0098   22.0869 C   0  0  0  0  0  0  0  0  0  0  0  0
  -29.4601  -34.0740   22.7906 C   0  0  0  0  0  0  0  0  0  0  0  0
  -26.2512  -19.2286   19.2507 C   0  0  0  0  0  0  0  0  0  0  0  0
  -29.3460  -32.6160   23.2243 C   0  0  0  0  0  0  0  0  0  0  0  0
  -25.8114  -17.8984   19.8604 C   0  0  0  0  0  0  0  0  0  0  0  0
  -27.3030  -19.0392   18.1560 C   0  0  0  0  0  0  0  0  0  0  0  0
  -28.0382  -16.9177   19.1960 C   0  0  0  0  0  0  0  0  0  0  0  0
  -29.0981  -31.6999   22.0198 C   0  0  1  0  0  0  0  0  0  0  0  0
  -25.3483  -31.2692   21.5880 C   0  0  1  0  0  0  0  0  0  0  0  0
  -27.0259  -17.0845   20.3397 C   0  0  2  0  0  0  0  0  0  0  0  0
  -30.4044  -23.1531   17.1887 C   0  0  0  0  0  0  0  0  0  0  0  0
  -18.3826  -29.8534   24.6666 C   0  0  0  0  0  0  0  0  0  0  0  0
  -24.8828  -29.7739   25.9363 C   0  0  0  0  0  0  0  0  0  0  0  0
  -22.5557  -29.1529   26.6201 C   0  0  0  0  0  0  0  0  0  0  0  0
  -23.1801  -31.5546   26.3654 C   0  0  0  0  0  0  0  0  0  0  0  0
  -32.3617  -22.4343   19.6362 C   0  0  0  0  0  0  0  0  0  0  0  0
  -30.4234  -21.2434   20.6581 C   0  0  0  0  0  0  0  0  0  0  0  0
  -29.6890  -19.9774   16.6659 C   0  0  0  0  0  0  0  0  0  0  0  0
  -19.2124  -30.1515   20.9654 C   0  0  0  0  0  0  0  0  0  0  0  0
  -26.5033  -23.5448   18.2171 C   0  0  0  0  0  0  0  0  0  0  0  0
  -27.0998  -23.3677   19.6151 C   0  0  0  0  0  0  0  0  0  0  0  0
  -31.3284  -20.5221   18.4272 C   0  0  0  0  0  0  0  0  0  0  0  0
  -26.1630  -24.9929   17.8845 C   0  0  0  0  0  0  0  0  0  1  0  0
  -29.9760  -22.7783   18.6416 C   0  0  1  0  0  0  0  0  0  0  0  0
  -22.9136  -30.1178   24.3023 C   0  0  1  0  0  0  0  0  0  0  0  0
  -19.2198  -30.2518   23.4611 C   0  0  2  0  0  0  0  0  0  0  0  0
  -23.3935  -30.1413   25.7810 C   0  0  0  0  0  0  0  0  0  0  0  0
  -31.0102  -21.7560   19.3204 C   0  0  0  0  0  0  0  0  0  0  0  0
  -29.6269  -25.8208   20.5615 N   0  0  0  0  0  0  0  0  0  0  0  0
  -25.5273  -15.1284   20.4390 N   0  0  0  0  0  0  0  0  0  0  0  0
  -30.3974  -24.9219   19.8512 N   0  0  0  0  0  0  0  0  0  0  0  0
  -28.3306  -24.2036   19.8601 N   0  0  0  0  0  0  0  0  0  0  0  0
  -26.6126  -15.7497   20.9312 N   0  0  0  0  0  0  0  0  0  0  0  0
  -24.3993  -30.4574   22.3527 N   0  0  0  0  0  0  0  0  0  0  0  0
  -28.4210  -18.2181   18.6405 N   0  0  0  0  0  0  0  0  0  0  0  0
  -28.3318  -15.5511   22.5485 N   0  0  0  0  0  0  0  0  0  0  0  0
  -25.9081  -11.7859   23.1364 N   0  0  0  0  0  0  0  0  0  0  0  0
  -27.7146  -31.7773   21.6023 N   0  0  0  0  0  0  0  0  0  0  0  0
  -21.5139  -30.4880   24.1224 N   0  0  0  0  0  0  0  0  0  0  0  0
  -30.1539  -19.7564   18.0339 N   0  0  0  0  0  0  0  0  0  0  0  0
  -18.5117  -29.8042   22.2285 N   0  3  0  0  0  0  0  0  0  0  0  0
  -27.7256  -12.9664   23.8859 O   0  0  0  0  0  0  0  0  0  0  0  0
  -26.8354  -30.2158   23.0893 O   0  0  0  0  0  0  0  0  0  0  0  0
  -23.7225  -32.2567   23.6721 O   0  0  0  0  0  0  0  0  0  0  0  0
  -20.8598  -28.5166   23.0916 O   0  0  0  0  0  0  0  0  0  0  0  0
  -30.4575  -18.2141   19.7181 O   0  0  0  0  0  0  0  0  0  0  0  0
  -21.3629  -10.3140   20.2711 O   0  0  0  0  0  0  0  0  0  0  0  0
  -25.1942  -25.4626   18.8210 O   0  0  0  0  0  0  0  0  0  1  0  0
  -22.7378   -4.9783   20.0634 F   0  0  0  0  0  0  0  0  0  0  0  0
  -20.8836   -8.8133   17.9994 F   0  0  0  0  0  0  0  0  0  0  0  0
  1  2  1  0  0  0  0
  1  5  2  0  0  0  0
  2  6  2  0  0  0  0
  3  8  2  0  0  0  0
  3 16  1  0  0  0  0
  4  9  1  0  0  0  0
  4 16  2  0  0  0  0
  5 18  1  0  0  0  0
  6 20  1  0  0  0  0
  7 10  2  0  0  0  0
  7 19  1  0  0  0  0
  8 22  1  0  0  0  0
  9 22  2  0  0  0  0
 10 23  1  0  0  0  0
 11 12  2  0  0  0  0
 11 24  1  0  0  0  0
 12 25  1  0  0  0  0
 13 21  1  0  0  0  0
 13 23  2  0  0  0  0
 14 25  2  0  0  0  0
 14 26  1  0  0  0  0
 15 65  2  0  0  0  0
 15 68  1  0  0  0  0
 16 27  1  0  0  0  0
 17 27  1  0  0  0  0
 17 28  2  0  0  0  0
 17 30  1  0  0  0  0
 18 20  2  0  0  0  0
 18 35  1  0  0  0  0
 19 21  2  0  0  0  0
 19 36  1  0  0  0  0
 20 44  1  0  0  0  0
 21 37  1  0  0  0  0
 22 83  1  0  0  0  0
 23 84  1  0  0  0  0
 24 26  2  0  0  0  0
 24 83  1  0  0  0  0
 25 85  1  0  0  0  0
 26 86  1  0  0  0  0
 27 66  2  0  0  0  0
 28 69  1  0  0  0  0
 28 72  1  0  0  0  0
 29 60  1  0  0  0  0
 29 67  2  0  0  0  0
 29 68  1  0  0  0  0
 30 73  1  0  0  0  0
 30 78  2  0  0  0  0
 31 45  1  0  0  0  0
 31 74  1  0  0  0  0
 31 79  2  0  0  0  0
 32 61  1  0  0  0  0
 32 70  1  0  0  0  0
 32 80  2  0  0  0  0
 33 62  1  0  0  0  0
 33 75  1  0  0  0  0
 33 81  2  0  0  0  0
 34 71  1  0  0  0  0
 34 76  1  0  0  0  0
 34 82  2  0  0  0  0
 35 38  1  0  0  0  0
 36 45  1  0  0  0  0
 37 70  1  0  0  0  0
 38 40  1  0  0  0  0
 39 41  1  0  0  0  0
 39 42  1  0  0  0  0
 40 44  1  0  0  0  0
 41 46  1  0  0  0  0
 42 71  1  0  0  0  0
 43 46  1  0  0  0  0
 43 71  1  0  0  0  0
 44 74  1  0  0  0  0
 45 70  1  0  0  0  0
 46 69  1  0  0  0  0
 47 60  1  0  0  0  0
 48 62  1  0  0  0  0
 49 63  1  0  0  0  0
 50 63  1  0  0  0  0
 51 63  1  0  0  0  0
 52 64  1  0  0  0  0
 53 64  1  0  0  0  0
 54 76  1  0  0  0  0
 55 77  1  0  0  0  0
 56 57  1  0  0  0  0
 56 59  1  0  0  0  0
 57 68  1  0  0  0  0
 58 64  1  0  0  0  0
 58 76  1  0  0  0  0
 59 84  1  0  0  0  0
 60 64  1  0  0  0  0
 61 63  1  0  0  0  0
 61 75  1  0  0  0  0
 62 77  1  0  0  0  0
 65 67  1  0  0  0  0
 66 69  1  0  0  0  0
M  CHG  1  77   1
M  ISO  4  34 100  59 101  76 100  84 101
M  END
> <Batch ID>
0065

> <Smiles>
CNC(C)C(=O)NC(C(=O)N1Cc2cc([101O:1][101CH2:1]CCn3cnnc3C(C)C(C)(C)C[100N:0](C)[100C:0](=O)N3CCCC(n4nc(-c5ccc(Oc6ccc(F)cc6F)cc5)c(C(N)=O)c4N)C3)ccc2CC1C(=O)NC1CCCc2ccccc21)C(C)(C)C

> <Shape>
0.253

> <Color>
0.090

> <Negative vol penalty>
0.000

$$$$

  -OEChem-04052318072D

  0  0  0     0  0  0  0  0  0999 V2000
M  END
$$$$

  -OEChem-04052318073D

 87 95  0     1  0  0  0  0  0999 V2000
  -24.2885   -5.3612   23.6399 C   0  0  0  0  0  0  0  0  0  0  0  0
  -25.4859   -6.0381   23.4315 C   0  0  0  0  0  0  0  0  0  0  0  0
  -24.0977  -29.6976   20.3423 C   0  0  0  0  0  0  0  0  0  0  0  0
  -25.9888  -29.2838   21.7878 C   0  0  0  0  0  0  0  0  0  0  0  0
  -23.1574   -5.7041   22.9004 C   0  0  0  0  0  0  0  0  0  0  0  0
  -25.5532   -7.0577   22.4827 C   0  0  0  0  0  0  0  0  0  0  0  0
  -28.8337  -13.2990   21.2173 C   0  0  0  0  0  0  0  0  0  0  0  0
  -23.6591  -30.7030   21.2038 C   0  0  0  0  0  0  0  0  0  0  0  0
  -25.5503  -30.2893   22.6494 C   0  0  0  0  0  0  0  0  0  0  0  0
  -29.5779  -13.9439   20.2305 C   0  0  0  0  0  0  0  0  0  0  0  0
  -25.6227  -33.6656   22.7760 C   0  0  0  0  0  0  0  0  0  0  0  0
  -26.5727  -34.5695   23.2515 C   0  0  0  0  0  0  0  0  0  0  0  0
  -27.5397  -14.5038   19.0679 C   0  0  0  0  0  0  0  0  0  0  0  0
  -26.0774  -33.8974   25.5186 C   0  0  0  0  0  0  0  0  0  0  0  0
  -29.1479  -18.7570   21.2688 C   0  0  0  0  0  0  0  0  0  0  0  0
  -25.2626  -28.9879   20.6343 C   0  0  0  0  0  0  0  0  0  0  0  0
  -26.5859  -28.0891   18.6472 C   0  0  0  0  0  0  0  0  0  0  0  0
  -23.2083   -6.7350   21.9489 C   0  0  0  0  0  0  0  0  0  0  0  0
  -27.4352  -13.2420   21.1311 C   0  0  0  0  0  0  0  0  0  0  0  0
  -24.4220   -7.4138   21.7288 C   0  0  0  0  0  0  0  0  0  0  0  0
  -26.7799  -13.8597   20.0563 C   0  0  0  0  0  0  0  0  0  0  0  0
  -24.3854  -30.9989   22.3574 C   0  0  0  0  0  0  0  0  0  0  0  0
  -28.9311  -14.5440   19.1540 C   0  0  0  0  0  0  0  0  0  0  0  0
  -24.9000  -32.8776   23.6718 C   0  0  0  0  0  0  0  0  0  0  0  0
  -26.8001  -34.6854   24.6228 C   0  0  0  0  0  0  0  0  0  0  0  0
  -25.1274  -32.9935   25.0431 C   0  0  0  0  0  0  0  0  0  0  0  0
  -25.7159  -27.9488   19.7450 C   0  0  0  0  0  0  0  0  0  0  0  0
  -28.7633  -20.0494   20.9871 C   0  0  0  0  0  0  0  0  0  0  0  0
  -29.7774  -19.9054   18.9424 C   0  0  0  0  0  0  0  0  0  0  0  0
  -30.1626  -18.6133   19.2245 C   0  0  0  0  0  0  0  0  0  0  0  0
  -26.7005  -26.8197   18.1355 C   0  0  0  0  0  0  0  0  0  0  0  0
  -27.2328  -29.2620   18.1359 C   0  0  0  0  0  0  0  0  0  0  0  0
  -25.2963  -10.9035   20.8859 C   0  0  0  0  0  0  0  0  0  0  0  0
  -23.1761  -13.3350   21.2248 C   0  0  0  0  0  0  0  0  0  0  0  0
  -22.5170  -16.6690   20.9127 C   0  0  0  0  0  0  0  0  0  0  0  0
  -26.0340  -21.3777   20.5421 C   0  0  0  0  0  0  0  0  0  0  0  0
  -21.9718   -7.0382   21.1403 C   0  0  0  0  0  0  0  0  0  0  0  0
  -26.6453  -12.5656   22.2177 C   0  0  0  0  0  0  0  0  0  0  0  0
  -25.2793  -13.8443   19.9278 C   0  0  0  0  0  0  0  0  0  0  0  0
  -22.0300   -8.3826   20.4194 C   0  0  0  0  0  0  0  0  0  0  0  0
  -24.2842  -22.7090   17.7417 C   0  0  0  0  0  0  0  0  0  0  0  0
  -23.3733   -8.5543   19.7175 C   0  0  0  0  0  0  0  0  0  0  0  0
  -24.5312  -24.2156   17.8385 C   0  0  0  0  0  0  0  0  0  0  0  0
  -24.1277  -22.0730   19.1212 C   0  0  0  0  0  0  0  0  0  0  0  0
  -25.4789  -23.8555   20.1560 C   0  0  0  0  0  0  0  0  0  0  0  0
  -24.5283   -8.5423   20.7261 C   0  0  1  0  0  0  0  0  0  0  0  0
  -25.2581  -12.1240   21.7615 C   0  0  1  0  0  0  0  0  0  0  0  0
  -25.6988  -24.5322   18.7922 C   0  0  2  0  0  0  0  0  0  0  0  0
  -30.1240  -20.5541   17.6459 C   0  0  0  0  0  0  0  0  0  0  0  0
  -21.2382  -18.8186   21.1152 C   0  0  0  0  0  0  0  0  0  0  0  0
  -27.0542  -20.0004   22.9116 C   0  0  0  0  0  0  0  0  0  0  0  0
  -21.8353  -12.3565   18.6645 C   0  0  0  0  0  0  0  0  0  0  0  0
  -20.6595  -14.5622   18.5201 C   0  0  0  0  0  0  0  0  0  0  0  0
  -20.2520  -13.0588   20.4685 C   0  0  0  0  0  0  0  0  0  0  0  0
  -23.6031  -17.1955   23.6149 C   0  0  0  0  0  0  0  0  0  0  0  0
  -30.9529  -17.7946   18.2352 C   0  0  0  0  0  0  0  0  0  0  0  0
  -30.1140  -17.2496   17.0773 C   0  0  0  0  0  0  0  0  0  0  0  0
  -29.0331  -16.2716   17.5228 C   0  0  0  0  0  0  0  0  0  1  0  0
  -22.4626  -14.2710   20.2793 C   0  0  1  0  0  0  0  0  0  0  0  0
  -21.8813  -17.6637   21.8671 C   0  0  2  0  0  0  0  0  0  0  0  0
  -27.9840  -20.8389   21.9796 C   0  0  1  0  0  0  0  0  0  0  0  0
  -21.3308  -13.5609   19.4842 C   0  0  0  0  0  0  0  0  0  0  0  0
  -28.9312  -21.6489   22.9048 C   0  0  0  0  0  0  0  0  0  0  0  0
  -29.8545  -18.0158   20.3926 N   0  0  0  0  0  0  0  0  0  0  0  0
  -25.3066  -26.6896   19.9209 N   0  0  0  0  0  0  0  0  0  0  0  0
  -29.0711  -20.6467   19.8187 N   0  0  0  0  0  0  0  0  0  0  0  0
  -25.9221  -26.0271   18.9268 N   0  0  0  0  0  0  0  0  0  0  0  0
  -24.5515  -13.1650   21.0124 N   0  0  0  0  0  0  0  0  0  0  0  0
  -25.2685  -22.4104   19.9760 N   0  0  0  0  0  0  0  0  0  0  0  0
  -27.3900  -26.3152   17.0902 N   0  0  0  0  0  0  0  0  0  0  0  0
  -27.0061  -30.4852   18.7813 N   0  0  0  0  0  0  0  0  0  0  0  0
  -24.6192   -9.8168   21.4056 N   0  0  0  0  0  0  0  0  0  0  0  0
  -22.0092  -15.3988   21.0861 N   0  0  0  0  0  0  0  0  0  0  0  0
  -27.1009  -21.7845   21.3340 N   0  0  0  0  0  0  0  0  0  0  0  0
  -22.9068  -18.2198   22.7945 N   0  3  0  0  0  0  0  0  0  0  0  0
  -27.9765  -29.2292   17.1262 O   0  0  0  0  0  0  0  0  0  0  0  0
  -25.8944  -10.9452   19.8171 O   0  0  0  0  0  0  0  0  0  0  0  0
  -22.5379  -12.7809   22.1233 O   0  0  0  0  0  0  0  0  0  0  0  0
  -23.3752  -16.9876   20.0927 O   0  0  0  0  0  0  0  0  0  0  0  0
  -25.7884  -20.1818   20.3512 O   0  0  0  0  0  0  0  0  0  0  0  0
  -23.9578  -31.9801   23.1982 O   0  0  0  0  0  0  0  0  0  0  0  0
  -29.6551  -15.1736   18.1890 O   0  0  0  0  0  0  0  0  0  1  0  0
  -27.7134  -35.5524   25.0791 F   0  0  0  0  0  0  0  0  0  0  0  0
  -24.4371  -32.2383   25.9086 F   0  0  0  0  0  0  0  0  0  0  0  0
  -29.6927  -22.5116   22.1959 F   0  0  0  0  0  0  0  0  0  0  0  0
  -29.7679  -20.8217   23.5723 F   0  0  0  0  0  0  0  0  0  0  0  0
  -28.2639  -22.3757   23.8317 F   0  0  0  0  0  0  0  0  0  0  0  0
  1  2  1  0  0  0  0
  1  5  2  0  0  0  0
  2  6  2  0  0  0  0
  3  8  2  0  0  0  0
  3 16  1  0  0  0  0
  4  9  1  0  0  0  0
  4 16  2  0  0  0  0
  5 18  1  0  0  0  0
  6 20  1  0  0  0  0
  7 10  2  0  0  0  0
  7 19  1  0  0  0  0
  8 22  1  0  0  0  0
  9 22  2  0  0  0  0
 10 23  1  0  0  0  0
 11 12  2  0  0  0  0
 11 24  1  0  0  0  0
 12 25  1  0  0  0  0
 13 21  1  0  0  0  0
 13 23  2  0  0  0  0
 14 25  2  0  0  0  0
 14 26  1  0  0  0  0
 15 28  1  0  0  0  0
 15 64  2  0  0  0  0
 16 27  1  0  0  0  0
 17 27  1  0  0  0  0
 17 31  2  0  0  0  0
 17 32  1  0  0  0  0
 18 20  2  0  0  0  0
 18 37  1  0  0  0  0
 19 21  2  0  0  0  0
 19 38  1  0  0  0  0
 20 46  1  0  0  0  0
 21 39  1  0  0  0  0
 22 81  1  0  0  0  0
 23 82  1  0  0  0  0
 24 26  2  0  0  0  0
 24 81  1  0  0  0  0
 25 83  1  0  0  0  0
 26 84  1  0  0  0  0
 27 65  2  0  0  0  0
 28 61  1  0  0  0  0
 28 66  2  0  0  0  0
 29 30  2  0  0  0  0
 29 49  1  0  0  0  0
 29 66  1  0  0  0  0
 30 56  1  0  0  0  0
 30 64  1  0  0  0  0
 31 67  1  0  0  0  0
 31 70  1  0  0  0  0
 32 71  1  0  0  0  0
 32 76  2  0  0  0  0
 33 47  1  0  0  0  0
 33 72  1  0  0  0  0
 33 77  2  0  0  0  0
 34 59  1  0  0  0  0
 34 68  1  0  0  0  0
 34 78  2  0  0  0  0
 35 60  1  0  0  0  0
 35 73  1  0  0  0  0
 35 79  2  0  0  0  0
 36 69  1  0  0  0  0
 36 74  1  0  0  0  0
 36 80  2  0  0  0  0
 37 40  1  0  0  0  0
 38 47  1  0  0  0  0
 39 68  1  0  0  0  0
 40 42  1  0  0  0  0
 41 43  1  0  0  0  0
 41 44  1  0  0  0  0
 42 46  1  0  0  0  0
 43 48  1  0  0  0  0
 44 69  1  0  0  0  0
 45 48  1  0  0  0  0
 45 69  1  0  0  0  0
 46 72  1  0  0  0  0
 47 68  1  0  0  0  0
 48 67  1  0  0  0  0
 50 60  1  0  0  0  0
 51 61  1  0  0  0  0
 52 62  1  0  0  0  0
 53 62  1  0  0  0  0
 54 62  1  0  0  0  0
 55 75  1  0  0  0  0
 56 57  1  0  0  0  0
 57 58  1  0  0  0  0
 58 82  1  0  0  0  0
 59 62  1  0  0  0  0
 59 73  1  0  0  0  0
 60 75  1  0  0  0  0
 61 63  1  0  0  0  0
 61 74  1  0  0  0  0
 63 85  1  0  0  0  0
 63 86  1  0  0  0  0
 63 87  1  0  0  0  0
 65 67  1  0  0  0  0
M  CHG  1  75   1
M  ISO  4  36 100  58 101  74 100  82 101
M  END
> <Batch ID>
0065

> <Smiles>
CNC(C)C(=O)NC(C(=O)N1Cc2cc([101O:1][101CH2:1]CCc3ncc(C(C)([100NH:0][100C:0](=O)N4CCCC(n5nc(-c6ccc(Oc7ccc(F)cc7F)cc6)c(C(N)=O)c5N)C4)C(F)(F)F)nc3C)ccc2CC1C(=O)NC1CCCc2ccccc21)C(C)(C)C

> <Shape>
0.260

> <Color>
0.073

> <Negative vol penalty>
0.000

$$$$

  -OEChem-04052318073D

 91100  0     1  0  0  0  0  0999 V2000
  -29.2985  -30.7860   27.3751 C   0  0  0  0  0  0  0  0  0  0  0  0
  -29.0502  -29.7497   26.4807 C   0  0  0  0  0  0  0  0  0  0  0  0
  -24.8796   -8.8044   22.1087 C   0  0  0  0  0  0  0  0  0  0  0  0
  -24.5717   -8.5010   19.7317 C   0  0  0  0  0  0  0  0  0  0  0  0
  -28.2791  -31.6771   27.7080 C   0  0  0  0  0  0  0  0  0  0  0  0
  -27.7821  -29.6033   25.9195 C   0  0  0  0  0  0  0  0  0  0  0  0
  -26.4599  -27.6342   20.2733 C   0  0  0  0  0  0  0  0  0  0  0  0
  -24.9839  -17.2541   19.8770 C   0  0  0  0  0  0  0  0  0  0  0  0
  -23.6326   -8.2257   22.3441 C   0  0  0  0  0  0  0  0  0  0  0  0
  -23.3246   -7.9222   19.9671 C   0  0  0  0  0  0  0  0  0  0  0  0
  -26.0654  -26.3905   19.7820 C   0  0  0  0  0  0  0  0  0  0  0  0
  -22.3111   -5.1154   22.4570 C   0  0  0  0  0  0  0  0  0  0  0  0
  -22.2184   -4.1676   23.4761 C   0  0  0  0  0  0  0  0  0  0  0  0
  -25.5345  -18.2033   20.7309 C   0  0  0  0  0  0  0  0  0  0  0  0
  -23.8895  -21.9499   21.7831 C   0  0  0  0  0  0  0  0  0  0  0  0
  -23.7587  -27.0893   19.8820 C   0  0  0  0  0  0  0  0  0  0  0  0
  -20.5943   -5.5487   24.6127 C   0  0  0  0  0  0  0  0  0  0  0  0
  -25.1109  -21.4560   22.1713 C   0  0  0  0  0  0  0  0  0  0  0  0
  -25.3492   -8.9421   20.8024 C   0  0  0  0  0  0  0  0  0  0  0  0
  -27.8792   -8.8823   20.4814 C   0  0  0  0  0  0  0  0  0  0  0  0
  -27.0005  -31.5473   27.1432 C   0  0  0  0  0  0  0  0  0  0  0  0
  -25.5043  -28.6126   20.5834 C   0  0  0  0  0  0  0  0  0  0  0  0
  -26.7444  -30.4927   26.2462 C   0  0  0  0  0  0  0  0  0  0  0  0
  -24.1438  -28.3455   20.3747 C   0  0  0  0  0  0  0  0  0  0  0  0
  -25.7444  -16.7440   18.8307 C   0  0  0  0  0  0  0  0  0  0  0  0
  -22.8550   -7.7846   21.2734 C   0  0  0  0  0  0  0  0  0  0  0  0
  -24.7145  -26.1168   19.5890 C   0  0  0  0  0  0  0  0  0  0  0  0
  -21.5455   -6.2799   22.5158 C   0  0  0  0  0  0  0  0  0  0  0  0
  -21.3599   -4.3842   24.5540 C   0  0  0  0  0  0  0  0  0  0  0  0
  -20.6871   -6.4965   23.5936 C   0  0  0  0  0  0  0  0  0  0  0  0
  -26.6371   -9.5404   20.5585 C   0  0  0  0  0  0  0  0  0  0  0  0
  -26.8395  -18.6063   20.4976 C   0  0  0  0  0  0  0  0  0  0  0  0
  -24.0648  -22.2991   20.4307 C   0  0  0  0  0  0  0  0  0  0  0  0
  -27.0399  -17.2125   18.6823 C   0  0  0  0  0  0  0  0  0  0  0  0
  -28.7845   -9.8855   20.2352 C   0  0  0  0  0  0  0  0  0  0  0  0
  -28.1872   -7.4889   20.6198 C   0  0  0  0  0  0  0  0  0  0  0  0
  -24.6358  -30.1396   23.2326 C   0  0  0  0  0  0  0  0  0  0  0  0
  -22.7631  -31.8191   21.1846 C   0  0  0  0  0  0  0  0  0  0  0  0
  -28.1012  -15.2069   17.6875 C   0  0  0  0  0  0  0  0  0  0  0  0
  -21.1207  -31.9385   18.1954 C   0  0  0  0  0  0  0  0  0  0  0  0
  -25.9177  -32.5066   27.5698 C   0  0  0  0  0  0  0  0  0  0  0  0
  -25.9478  -29.9587   21.0873 C   0  0  0  0  0  0  0  0  0  0  0  0
  -23.0798  -29.3690   20.6730 C   0  0  0  0  0  0  0  0  0  0  0  0
  -24.7042  -32.5063   26.6437 C   0  0  0  0  0  0  0  0  0  0  0  0
  -29.5110  -14.5491   20.9749 C   0  0  0  0  0  0  0  0  0  0  0  0
  -24.2751  -31.0773   26.3265 C   0  0  0  0  0  0  0  0  0  0  0  0
  -29.0156  -13.1282   21.2411 C   0  0  0  0  0  0  0  0  0  0  0  0
  -28.4829  -15.3652   20.1957 C   0  0  0  0  0  0  0  0  0  0  0  0
  -27.5590  -13.3075   19.1773 C   0  0  0  0  0  0  0  0  0  0  0  0
  -25.3887  -30.3157   25.5975 C   0  0  1  0  0  0  0  0  0  0  0  0
  -24.8567  -30.6983   21.8553 C   0  0  1  0  0  0  0  0  0  0  0  0
  -28.5797  -12.4419   19.9347 C   0  0  2  0  0  0  0  0  0  0  0  0
  -25.1596  -15.7279   17.9119 C   0  0  0  0  0  0  0  0  0  0  0  0
  -19.6443  -33.4277   16.8171 C   0  0  0  0  0  0  0  0  0  0  0  0
  -29.3087  -17.3563   17.6220 C   0  0  0  0  0  0  0  0  0  0  0  0
  -27.3563  -16.8952   16.1355 C   0  0  0  0  0  0  0  0  0  0  0  0
  -20.3968  -31.1361   22.9858 C   0  0  0  0  0  0  0  0  0  0  0  0
  -18.8708  -31.8036   21.1166 C   0  0  0  0  0  0  0  0  0  0  0  0
  -20.4109  -33.4852   22.1279 C   0  0  0  0  0  0  0  0  0  0  0  0
  -27.9288  -21.3553   19.5881 C   0  0  0  0  0  0  0  0  0  0  0  0
  -28.1376  -22.0102   21.9553 C   0  0  0  0  0  0  0  0  0  0  0  0
  -23.0962  -32.0551   15.9948 C   0  0  0  0  0  0  0  0  0  0  0  0
  -27.4712  -19.6364   21.4082 C   0  0  0  0  0  0  0  0  0  0  0  0
  -23.0413  -22.8957   19.4954 C   0  0  0  0  0  0  0  0  0  0  0  0
  -23.0492  -24.4202   19.5234 C   0  0  0  0  0  0  0  0  0  1  0  0
  -21.3596  -31.6668   20.6497 C   0  0  1  0  0  0  0  0  0  0  0  0
  -21.0740  -33.0024   17.1136 C   0  0  2  0  0  0  0  0  0  0  0  0
  -27.9042  -16.6980   17.5782 C   0  0  0  0  0  0  0  0  0  0  0  0
  -20.2792  -32.0028   21.7161 C   0  0  0  0  0  0  0  0  0  0  0  0
  -27.2957  -21.1335   20.9878 C   0  0  0  0  0  0  0  0  0  0  0  0
  -26.7402  -10.8595   20.3763 N   0  0  0  0  0  0  0  0  0  0  0  0
  -27.6091  -18.1336   19.4917 N   0  0  0  0  0  0  0  0  0  0  0  0
  -25.3003  -22.0484   19.9894 N   0  0  0  0  0  0  0  0  0  0  0  0
  -25.9124  -21.5365   21.0708 N   0  0  0  0  0  0  0  0  0  0  0  0
  -28.0580  -11.0385   20.1822 N   0  0  0  0  0  0  0  0  0  0  0  0
  -23.5632  -30.6679   21.1697 N   0  0  0  0  0  0  0  0  0  0  0  0
  -28.0731  -14.6648   18.9726 N   0  0  0  0  0  0  0  0  0  0  0  0
  -30.1232   -9.8850   20.0611 N   0  0  0  0  0  0  0  0  0  0  0  0
  -27.1377   -6.5944   20.8707 N   0  0  0  0  0  0  0  0  0  0  0  0
  -25.4389  -30.7050   24.2045 N   0  0  0  0  0  0  0  0  0  0  0  0
  -21.2893  -32.4905   19.4477 N   0  0  0  0  0  0  0  0  0  0  0  0
  -21.6819  -32.4876   15.8541 N   0  3  0  0  0  0  0  0  0  0  0  0
  -29.3603   -7.0521   20.5401 O   0  0  0  0  0  0  0  0  0  0  0  0
  -23.7978  -29.2616   23.4011 O   0  0  0  0  0  0  0  0  0  0  0  0
  -23.1380  -32.9208   21.5937 O   0  0  0  0  0  0  0  0  0  0  0  0
  -28.2775  -14.5461   16.6607 O   0  0  0  0  0  0  0  0  0  0  0  0
  -21.0144  -30.7381   17.9541 O   0  0  0  0  0  0  0  0  0  0  0  0
  -21.6382   -7.2196   21.5028 O   0  0  0  0  0  0  0  0  0  0  0  0
  -24.3268  -24.9035   19.1102 O   0  0  0  0  0  0  0  0  0  1  0  0
  -21.2698   -3.4732   25.5318 F   0  0  0  0  0  0  0  0  0  0  0  0
  -19.9482   -7.6128   23.6550 F   0  0  0  0  0  0  0  0  0  0  0  0
  1  2  1  0  0  0  0
  1  5  2  0  0  0  0
  2  6  2  0  0  0  0
  3  9  2  0  0  0  0
  3 19  1  0  0  0  0
  4 10  1  0  0  0  0
  4 19  2  0  0  0  0
  5 21  1  0  0  0  0
  6 23  1  0  0  0  0
  7 11  2  0  0  0  0
  7 22  1  0  0  0  0
  8 14  2  0  0  0  0
  8 25  1  0  0  0  0
  9 26  1  0  0  0  0
 10 26  2  0  0  0  0
 11 27  1  0  0  0  0
 12 13  2  0  0  0  0
 12 28  1  0  0  0  0
 13 29  1  0  0  0  0
 14 32  1  0  0  0  0
 15 18  2  0  0  0  0
 15 33  1  0  0  0  0
 16 24  1  0  0  0  0
 16 27  2  0  0  0  0
 17 29  2  0  0  0  0
 17 30  1  0  0  0  0
 18 74  1  0  0  0  0
 19 31  1  0  0  0  0
 20 31  1  0  0  0  0
 20 35  2  0  0  0  0
 20 36  1  0  0  0  0
 21 23  2  0  0  0  0
 21 41  1  0  0  0  0
 22 24  2  0  0  0  0
 22 42  1  0  0  0  0
 23 50  1  0  0  0  0
 24 43  1  0  0  0  0
 25 34  2  0  0  0  0
 25 53  1  0  0  0  0
 26 88  1  0  0  0  0
 27 89  1  0  0  0  0
 28 30  2  0  0  0  0
 28 88  1  0  0  0  0
 29 90  1  0  0  0  0
 30 91  1  0  0  0  0
 31 71  2  0  0  0  0
 32 63  1  0  0  0  0
 32 72  2  0  0  0  0
 33 64  1  0  0  0  0
 33 73  2  0  0  0  0
 34 68  1  0  0  0  0
 34 72  1  0  0  0  0
 35 75  1  0  0  0  0
 35 78  1  0  0  0  0
 36 79  1  0  0  0  0
 36 83  2  0  0  0  0
 37 51  1  0  0  0  0
 37 80  1  0  0  0  0
 37 84  2  0  0  0  0
 38 66  1  0  0  0  0
 38 76  1  0  0  0  0
 38 85  2  0  0  0  0
 39 68  1  0  0  0  0
 39 77  1  0  0  0  0
 39 86  2  0  0  0  0
 40 67  1  0  0  0  0
 40 81  1  0  0  0  0
 40 87  2  0  0  0  0
 41 44  1  0  0  0  0
 42 51  1  0  0  0  0
 43 76  1  0  0  0  0
 44 46  1  0  0  0  0
 45 47  1  0  0  0  0
 45 48  1  0  0  0  0
 46 50  1  0  0  0  0
 47 52  1  0  0  0  0
 48 77  1  0  0  0  0
 49 52  1  0  0  0  0
 49 77  1  0  0  0  0
 50 80  1  0  0  0  0
 51 76  1  0  0  0  0
 52 75  1  0  0  0  0
 54 67  1  0  0  0  0
 55 68  1  0  0  0  0
 56 68  1  0  0  0  0
 57 69  1  0  0  0  0
 58 69  1  0  0  0  0
 59 69  1  0  0  0  0
 60 70  1  0  0  0  0
 61 70  1  0  0  0  0
 62 82  1  0  0  0  0
 63 70  1  0  0  0  0
 64 65  1  0  0  0  0
 65 89  1  0  0  0  0
 66 69  1  0  0  0  0
 66 81  1  0  0  0  0
 67 82  1  0  0  0  0
 70 74  1  0  0  0  0
 71 75  1  0  0  0  0
 73 74  1  0  0  0  0
M  CHG  1  82   1
M  ISO  4  39 100  65 101  68 100  89 101
M  END
> <Batch ID>
0065

> <Smiles>
CNC(C)C(=O)NC(C(=O)N1Cc2cc([101O:1][101CH2:1]Cc3ccn(C(C)(C)Cc4ccc(C)c([100C:0](C)(C)[100C:0](=O)N5CCCC(n6nc(-c7ccc(Oc8ccc(F)cc8F)cc7)c(C(N)=O)c6N)C5)n4)n3)ccc2CC1C(=O)NC1CCCc2ccccc21)C(C)(C)C

> <Shape>
0.232

> <Color>
0.076

> <Negative vol penalty>
0.000

$$$$

  -OEChem-04052318073D

 89 97  0     1  0  0  0  0  0999 V2000
  -25.0755  -28.7282   20.4635 C   0  0  0  0  0  0  0  0  0  0  0  0
  -24.7050  -27.4945   19.9381 C   0  0  0  0  0  0  0  0  0  0  0  0
  -22.3611  -23.1430   20.5325 C   0  0  0  0  0  0  0  0  0  0  0  0
  -20.8847  -22.9108   22.4308 C   0  0  0  0  0  0  0  0  0  0  0  0
  -26.4246  -29.0330   20.6392 C   0  0  0  0  0  0  0  0  0  0  0  0
  -25.6836  -26.5652   19.5871 C   0  0  0  0  0  0  0  0  0  0  0  0
  -25.3059  -20.4699   20.0465 C   0  0  0  0  0  0  0  0  0  0  0  0
  -22.4352  -24.5174   20.7582 C   0  0  0  0  0  0  0  0  0  0  0  0
  -20.9588  -24.2853   22.6565 C   0  0  0  0  0  0  0  0  0  0  0  0
  -25.0070  -19.4759   19.1158 C   0  0  0  0  0  0  0  0  0  0  0  0
  -19.5941  -27.0984   21.3700 C   0  0  0  0  0  0  0  0  0  0  0  0
  -18.4048  -27.7761   21.6380 C   0  0  0  0  0  0  0  0  0  0  0  0
  -27.3644  -19.1201   18.7477 C   0  0  0  0  0  0  0  0  0  0  0  0
  -19.2791  -28.4623   23.7832 C   0  0  0  0  0  0  0  0  0  0  0  0
  -24.6302  -12.6333   19.9932 C   0  0  0  0  0  0  0  0  0  0  0  0
  -21.5858  -22.3397   21.3688 C   0  0  0  0  0  0  0  0  0  0  0  0
  -21.0380  -20.2729   19.9774 C   0  0  0  0  0  0  0  0  0  0  0  0
  -27.4199  -28.1033   20.2992 C   0  0  0  0  0  0  0  0  0  0  0  0
  -26.6385  -20.8046   20.3273 C   0  0  0  0  0  0  0  0  0  0  0  0
  -27.0473  -26.8584   19.7572 C   0  0  0  0  0  0  0  0  0  0  0  0
  -27.6776  -20.1170   19.6843 C   0  0  0  0  0  0  0  0  0  0  0  0
  -21.7341  -25.0886   21.8202 C   0  0  0  0  0  0  0  0  0  0  0  0
  -26.0363  -18.8028   18.4641 C   0  0  0  0  0  0  0  0  0  0  0  0
  -20.6259  -27.1025   22.3087 C   0  0  0  0  0  0  0  0  0  0  0  0
  -18.2473  -28.4581   22.8445 C   0  0  0  0  0  0  0  0  0  0  0  0
  -20.4684  -27.7844   23.5152 C   0  0  0  0  0  0  0  0  0  0  0  0
  -21.5084  -20.9199   21.1358 C   0  0  0  0  0  0  0  0  0  0  0  0
  -25.7358  -12.2295   20.7136 C   0  0  0  0  0  0  0  0  0  0  0  0
  -24.4925  -13.9960   19.8249 C   0  0  0  0  0  0  0  0  0  0  0  0
  -21.1704  -18.9341   20.2541 C   0  0  0  0  0  0  0  0  0  0  0  0
  -26.3982  -14.3848   21.0015 C   0  0  0  0  0  0  0  0  0  0  0  0
  -20.5270  -20.8321   18.7601 C   0  0  0  0  0  0  0  0  0  0  0  0
  -28.4027  -23.4315   20.0258 C   0  0  0  0  0  0  0  0  0  0  0  0
  -30.6209  -21.6507   21.5850 C   0  0  0  0  0  0  0  0  0  0  0  0
  -31.7964  -18.5528   22.4020 C   0  0  0  0  0  0  0  0  0  0  0  0
  -24.7424  -15.8694   23.9554 C   0  0  0  0  0  0  0  0  0  0  0  0
  -28.8667  -28.4961   20.4631 C   0  0  0  0  0  0  0  0  0  0  0  0
  -26.9445  -21.8608   21.3535 C   0  0  0  0  0  0  0  0  0  0  0  0
  -29.1250  -20.4246   19.9651 C   0  0  0  0  0  0  0  0  0  0  0  0
  -29.8286  -27.3117   20.4157 C   0  0  0  0  0  0  0  0  0  0  0  0
  -21.1823  -15.8496   23.9115 C   0  0  0  0  0  0  0  0  0  0  0  0
  -29.4903  -26.3958   19.2437 C   0  0  0  0  0  0  0  0  0  0  0  0
  -20.8197  -17.0884   23.0907 C   0  0  0  0  0  0  0  0  0  0  0  0
  -22.4164  -16.0886   24.7787 C   0  0  0  0  0  0  0  0  0  0  0  0
  -23.2374  -17.8195   23.2285 C   0  0  0  0  0  0  0  0  0  0  0  0
  -28.0787  -25.8144   19.3876 C   0  0  1  0  0  0  0  0  0  0  0  0
  -28.3302  -22.4758   21.1830 C   0  0  1  0  0  0  0  0  0  0  0  0
  -22.0324  -17.6091   22.2958 C   0  0  2  0  0  0  0  0  0  0  0  0
  -25.9698  -10.7746   20.9473 C   0  0  0  0  0  0  0  0  0  0  0  0
  -33.2289  -16.8289   23.5307 C   0  0  0  0  0  0  0  0  0  0  0  0
  -24.9506  -15.8228   15.6351 C   0  0  0  0  0  0  0  0  0  0  0  0
  -27.5477  -16.6890   20.7447 C   0  0  0  0  0  0  0  0  0  0  0  0
  -28.8133  -14.7294   21.5895 C   0  0  0  0  0  0  0  0  0  0  0  0
  -32.5527  -22.2943   19.3126 C   0  0  0  0  0  0  0  0  0  0  0  0
  -34.0055  -20.4174   20.1092 C   0  0  0  0  0  0  0  0  0  0  0  0
  -33.5670  -22.3709   21.5972 C   0  0  0  0  0  0  0  0  0  0  0  0
  -22.1537  -15.2771   16.9599 C   0  0  0  0  0  0  0  0  0  0  0  0
  -23.7015  -13.3341   16.8456 C   0  0  0  0  0  0  0  0  0  0  0  0
  -29.9969  -18.4252   24.7481 C   0  0  0  0  0  0  0  0  0  0  0  0
  -23.3124  -14.5352   19.0472 C   0  0  0  0  0  0  0  0  0  0  0  0
  -27.0450  -15.7786   23.0339 C   0  0  0  0  0  0  0  0  0  0  0  0
  -24.5420  -17.0948   17.7529 C   0  0  0  0  0  0  0  0  0  1  0  0
  -31.7176  -20.7020   21.1654 C   0  0  1  0  0  0  0  0  0  0  0  0
  -32.2291  -17.9575   23.7297 C   0  0  2  0  0  0  0  0  0  0  0  0
  -24.6903  -15.6842   17.1488 C   0  0  1  0  0  0  0  0  0  0  0  0
  -27.3816  -15.3579   21.5580 C   0  0  0  0  0  0  0  0  0  0  0  0
  -32.9335  -21.4415   20.5392 C   0  0  0  0  0  0  0  0  0  0  0  0
  -23.4933  -14.7200   17.5004 C   0  0  0  0  0  0  0  0  0  0  0  0
  -21.9096  -20.0626   22.0783 N   0  0  0  0  0  0  0  0  0  0  0  0
  -26.6434  -13.0813   21.2341 N   0  0  0  0  0  0  0  0  0  0  0  0
  -25.3607  -14.9038   20.3174 N   0  0  0  0  0  0  0  0  0  0  0  0
  -21.6916  -18.8633   21.5125 N   0  0  0  0  0  0  0  0  0  0  0  0
  -29.3730  -21.4697   20.9719 N   0  0  0  0  0  0  0  0  0  0  0  0
  -23.5306  -16.5797   23.9644 N   0  0  0  0  0  0  0  0  0  0  0  0
  -20.8908  -17.8223   19.5413 N   0  0  0  0  0  0  0  0  0  0  0  0
  -21.4272  -21.1079   17.7220 N   0  0  0  0  0  0  0  0  0  0  0  0
  -28.0729  -24.7336   20.3500 N   0  0  0  0  0  0  0  0  0  0  0  0
  -32.0440  -19.9080   22.3451 N   0  0  0  0  0  0  0  0  0  0  0  0
  -25.7446  -16.3997   23.1521 N   0  0  0  0  0  0  0  0  0  0  0  0
  -31.0501  -17.4169   24.4638 N   0  3  0  0  0  0  0  0  0  0  0  0
  -19.3104  -21.0951   18.6038 O   0  0  0  0  0  0  0  0  0  0  0  0
  -28.7348  -23.0183   18.9210 O   0  0  0  0  0  0  0  0  0  0  0  0
  -30.8606  -22.5159   22.4310 O   0  0  0  0  0  0  0  0  0  0  0  0
  -31.2929  -17.8819   21.5037 O   0  0  0  0  0  0  0  0  0  0  0  0
  -24.9165  -14.8361   24.6103 O   0  0  0  0  0  0  0  0  0  0  0  0
  -21.8063  -26.4297   22.0409 O   0  0  0  0  0  0  0  0  0  0  0  0
  -25.7473  -17.8325   17.5547 O   0  0  0  0  0  0  0  0  0  1  0  0
  -17.1058  -29.1102   23.1010 F   0  0  0  0  0  0  0  0  0  0  0  0
  -21.4566  -27.7930   24.4204 F   0  0  0  0  0  0  0  0  0  0  0  0
  1  2  1  0  0  0  0
  1  5  2  0  0  0  0
  2  6  2  0  0  0  0
  3  8  2  0  0  0  0
  3 16  1  0  0  0  0
  4  9  1  0  0  0  0
  4 16  2  0  0  0  0
  5 18  1  0  0  0  0
  6 20  1  0  0  0  0
  7 10  2  0  0  0  0
  7 19  1  0  0  0  0
  8 22  1  0  0  0  0
  9 22  2  0  0  0  0
 10 23  1  0  0  0  0
 11 12  2  0  0  0  0
 11 24  1  0  0  0  0
 12 25  1  0  0  0  0
 13 21  1  0  0  0  0
 13 23  2  0  0  0  0
 14 25  2  0  0  0  0
 14 26  1  0  0  0  0
 15 28  2  0  0  0  0
 15 29  1  0  0  0  0
 16 27  1  0  0  0  0
 17 27  1  0  0  0  0
 17 30  2  0  0  0  0
 17 32  1  0  0  0  0
 18 20  2  0  0  0  0
 18 37  1  0  0  0  0
 19 21  2  0  0  0  0
 19 38  1  0  0  0  0
 20 46  1  0  0  0  0
 21 39  1  0  0  0  0
 22 86  1  0  0  0  0
 23 87  1  0  0  0  0
 24 26  2  0  0  0  0
 24 86  1  0  0  0  0
 25 88  1  0  0  0  0
 26 89  1  0  0  0  0
 27 69  2  0  0  0  0
 28 49  1  0  0  0  0
 28 70  1  0  0  0  0
 29 60  1  0  0  0  0
 29 71  2  0  0  0  0
 30 72  1  0  0  0  0
 30 75  1  0  0  0  0
 31 66  1  0  0  0  0
 31 70  2  0  0  0  0
 31 71  1  0  0  0  0
 32 76  1  0  0  0  0
 32 81  2  0  0  0  0
 33 47  1  0  0  0  0
 33 77  1  0  0  0  0
 33 82  2  0  0  0  0
 34 63  1  0  0  0  0
 34 73  1  0  0  0  0
 34 83  2  0  0  0  0
 35 64  1  0  0  0  0
 35 78  1  0  0  0  0
 35 84  2  0  0  0  0
 36 74  1  0  0  0  0
 36 79  1  0  0  0  0
 36 85  2  0  0  0  0
 37 40  1  0  0  0  0
 38 47  1  0  0  0  0
 39 73  1  0  0  0  0
 40 42  1  0  0  0  0
 41 43  1  0  0  0  0
 41 44  1  0  0  0  0
 42 46  1  0  0  0  0
 43 48  1  0  0  0  0
 44 74  1  0  0  0  0
 45 48  1  0  0  0  0
 45 74  1  0  0  0  0
 46 77  1  0  0  0  0
 47 73  1  0  0  0  0
 48 72  1  0  0  0  0
 50 64  1  0  0  0  0
 51 65  1  0  0  0  0
 52 66  1  0  0  0  0
 53 66  1  0  0  0  0
 54 67  1  0  0  0  0
 55 67  1  0  0  0  0
 56 67  1  0  0  0  0
 57 68  1  0  0  0  0
 58 68  1  0  0  0  0
 59 80  1  0  0  0  0
 60 68  1  0  0  0  0
 61 66  1  0  0  0  0
 61 79  1  0  0  0  0
 62 65  1  0  0  0  0
 62 87  1  0  0  0  0
 63 67  1  0  0  0  0
 63 78  1  0  0  0  0
 64 80  1  0  0  0  0
 65 68  1  0  0  0  0
 69 72  1  0  0  0  0
M  CHG  1  80   1
M  ISO  4  36 100  62 101  79 100  87 101
M  END
> <Batch ID>
0065

> <Smiles>
CNC(C)C(=O)NC(C(=O)N1Cc2cc([101O:1][101CH2:1]C(C)C(C)(C)Cc3cc(C)nc(C(C)(C)C[100NH:0][100C:0](=O)N4CCCC(n5nc(-c6ccc(Oc7ccc(F)cc7F)cc6)c(C(N)=O)c5N)C4)n3)ccc2CC1C(=O)NC1CCCc2ccccc21)C(C)(C)C

> <Shape>
0.193

> <Color>
0.075

> <Negative vol penalty>
0.000

$$$$

  -OEChem-04052318073D

 85 93  0     1  0  0  0  0  0999 V2000
  -27.2819  -31.8931   28.4229 C   0  0  0  0  0  0  0  0  0  0  0  0
  -27.5950  -30.9582   27.4415 C   0  0  0  0  0  0  0  0  0  0  0  0
  -25.9569  -13.3937   21.3211 C   0  0  0  0  0  0  0  0  0  0  0  0
  -26.5038  -13.2880   18.9702 C   0  0  0  0  0  0  0  0  0  0  0  0
  -25.9660  -32.3279   28.5754 C   0  0  0  0  0  0  0  0  0  0  0  0
  -26.5921  -30.4566   26.6126 C   0  0  0  0  0  0  0  0  0  0  0  0
  -27.1295  -28.8914   20.7162 C   0  0  0  0  0  0  0  0  0  0  0  0
  -24.8476  -12.5777   21.0998 C   0  0  0  0  0  0  0  0  0  0  0  0
  -25.3944  -12.4719   18.7489 C   0  0  0  0  0  0  0  0  0  0  0  0
  -27.3110  -27.6616   20.0850 C   0  0  0  0  0  0  0  0  0  0  0  0
  -24.2288   -9.2850   20.6435 C   0  0  0  0  0  0  0  0  0  0  0  0
  -24.0079   -8.2354   21.5353 C   0  0  0  0  0  0  0  0  0  0  0  0
  -25.3672  -22.6162   18.5493 C   0  0  0  0  0  0  0  0  0  0  0  0
  -25.7506  -21.4335   17.9417 C   0  0  0  0  0  0  0  0  0  0  0  0
  -24.9315  -27.5035   19.7220 C   0  0  0  0  0  0  0  0  0  0  0  0
  -21.8565   -9.1743   22.1074 C   0  0  0  0  0  0  0  0  0  0  0  0
  -26.7850  -13.7489   20.2563 C   0  0  0  0  0  0  0  0  0  0  0  0
  -29.2381  -14.1815   20.8066 C   0  0  0  0  0  0  0  0  0  0  0  0
  -24.9481  -31.8386   27.7416 C   0  0  0  0  0  0  0  0  0  0  0  0
  -25.8443  -29.4322   20.8650 C   0  0  0  0  0  0  0  0  0  0  0  0
  -25.2611  -30.8842   26.7550 C   0  0  0  0  0  0  0  0  0  0  0  0
  -24.7365  -28.7415   20.3532 C   0  0  0  0  0  0  0  0  0  0  0  0
  -24.5663  -12.1167   19.8137 C   0  0  0  0  0  0  0  0  0  0  0  0
  -26.2117  -26.9661   19.5903 C   0  0  0  0  0  0  0  0  0  0  0  0
  -23.2636  -10.2793   20.4837 C   0  0  0  0  0  0  0  0  0  0  0  0
  -22.8217   -8.1801   22.2672 C   0  0  0  0  0  0  0  0  0  0  0  0
  -22.0774  -10.2239   21.2156 C   0  0  0  0  0  0  0  0  0  0  0  0
  -27.9308  -14.5923   20.4842 C   0  0  0  0  0  0  0  0  0  0  0  0
  -25.6097  -23.7966   17.8760 C   0  0  0  0  0  0  0  0  0  0  0  0
  -26.3509  -21.5095   16.7009 C   0  0  0  0  0  0  0  0  0  0  0  0
  -29.9481  -15.3519   20.9182 C   0  0  0  0  0  0  0  0  0  0  0  0
  -29.7637  -12.8601   20.9887 C   0  0  0  0  0  0  0  0  0  0  0  0
  -24.0127  -30.2142   23.3424 C   0  0  0  0  0  0  0  0  0  0  0  0
  -22.0643  -31.3923   21.0319 C   0  0  0  0  0  0  0  0  0  0  0  0
  -29.0730  -20.8152   18.5733 C   0  0  0  0  0  0  0  0  0  0  0  0
  -21.0655  -31.3193   17.7695 C   0  0  0  0  0  0  0  0  0  0  0  0
  -23.5323  -32.3029   27.9754 C   0  0  0  0  0  0  0  0  0  0  0  0
  -25.6680  -30.7725   21.5246 C   0  0  0  0  0  0  0  0  0  0  0  0
  -23.3380  -29.2883   20.4694 C   0  0  0  0  0  0  0  0  0  0  0  0
  -22.5927  -32.0027   26.8104 C   0  0  0  0  0  0  0  0  0  0  0  0
  -29.4241  -19.9663   22.0368 C   0  0  0  0  0  0  0  0  0  0  0  0
  -22.7781  -30.5664   26.3314 C   0  0  0  0  0  0  0  0  0  0  0  0
  -29.1717  -18.4594   22.0645 C   0  0  0  0  0  0  0  0  0  0  0  0
  -28.5600  -20.6581   20.9871 C   0  0  0  0  0  0  0  0  0  0  0  0
  -28.4562  -18.5878   19.6362 C   0  0  0  0  0  0  0  0  0  0  0  0
  -24.2052  -30.3353   25.8201 C   0  0  1  0  0  0  0  0  0  0  0  0
  -24.2623  -30.9860   22.0776 C   0  0  1  0  0  0  0  0  0  0  0  0
  -29.3316  -17.8463   20.6620 C   0  0  2  0  0  0  0  0  0  0  0  0
  -19.4264  -32.3714   16.1871 C   0  0  0  0  0  0  0  0  0  0  0  0
  -28.1678  -18.0047   16.1707 C   0  0  0  0  0  0  0  0  0  0  0  0
  -25.4814  -19.3949   15.7996 C   0  0  0  0  0  0  0  0  0  0  0  0
  -27.3090  -20.4668   14.5353 C   0  0  0  0  0  0  0  0  0  0  0  0
  -29.6151  -21.1864   16.2237 C   0  0  0  0  0  0  0  0  0  0  0  0
  -30.4346  -19.1571   17.3659 C   0  0  0  0  0  0  0  0  0  0  0  0
  -19.8228  -29.7112   22.2400 C   0  0  0  0  0  0  0  0  0  0  0  0
  -18.5267  -30.0449   20.1241 C   0  0  0  0  0  0  0  0  0  0  0  0
  -19.1377  -32.0103   21.5334 C   0  0  0  0  0  0  0  0  0  0  0  0
  -23.2288  -32.3900   16.0570 C   0  0  0  0  0  0  0  0  0  0  0  0
  -25.2156  -25.1071   18.4913 C   0  0  0  0  0  0  0  0  0  1  0  0
  -20.9352  -30.8352   20.1991 C   0  0  1  0  0  0  0  0  0  0  0  0
  -20.8330  -32.4309   16.7621 C   0  0  2  0  0  0  0  0  0  0  0  0
  -27.8785  -19.3817   16.8240 C   0  0  2  0  0  0  0  0  0  0  0  0
  -26.7791  -20.2643   16.0028 C   0  0  0  0  0  0  0  0  0  0  0  0
  -29.2265  -20.0992   17.2551 C   0  0  0  0  0  0  0  0  0  0  0  0
  -19.6316  -30.6389   21.0235 C   0  0  0  0  0  0  0  0  0  0  0  0
  -27.8143  -15.9200   20.3969 N   0  0  0  0  0  0  0  0  0  0  0  0
  -26.1991  -23.8413   16.6624 N   0  0  0  0  0  0  0  0  0  0  0  0
  -26.5755  -22.6788   16.0651 N   0  0  0  0  0  0  0  0  0  0  0  0
  -29.0575  -16.3537   20.6661 N   0  0  0  0  0  0  0  0  0  0  0  0
  -23.2167  -30.5994   21.1282 N   0  0  0  0  0  0  0  0  0  0  0  0
  -28.7233  -20.0324   19.6737 N   0  0  0  0  0  0  0  0  0  0  0  0
  -31.2411  -15.6117   21.2066 N   0  0  0  0  0  0  0  0  0  0  0  0
  -28.8967  -11.7694   20.8368 N   0  0  0  0  0  0  0  0  0  0  0  0
  -24.3635  -30.8927   24.4940 N   0  0  0  0  0  0  0  0  0  0  0  0
  -20.7904  -31.7307   19.0565 N   0  0  0  0  0  0  0  0  0  0  0  0
  -21.8052  -32.3227   15.6378 N   0  3  0  0  0  0  0  0  0  0  0  0
  -30.9628  -12.6533   21.2937 O   0  0  0  0  0  0  0  0  0  0  0  0
  -23.5357  -29.0873   23.2784 O   0  0  0  0  0  0  0  0  0  0  0  0
  -21.9316  -32.4938   21.5712 O   0  0  0  0  0  0  0  0  0  0  0  0
  -29.2615  -22.0335   18.6222 O   0  0  0  0  0  0  0  0  0  0  0  0
  -21.4489  -30.1972   17.4465 O   0  0  0  0  0  0  0  0  0  0  0  0
  -23.4840  -11.3202   19.5974 O   0  0  0  0  0  0  0  0  0  0  0  0
  -26.3860  -25.7652   18.9744 O   0  0  0  0  0  0  0  0  0  1  0  0
  -22.6091   -7.1713   23.1223 F   0  0  0  0  0  0  0  0  0  0  0  0
  -21.1460  -11.1756   21.0655 F   0  0  0  0  0  0  0  0  0  0  0  0
  1  2  1  0  0  0  0
  1  5  2  0  0  0  0
  2  6  2  0  0  0  0
  3  8  2  0  0  0  0
  3 17  1  0  0  0  0
  4  9  1  0  0  0  0
  4 17  2  0  0  0  0
  5 19  1  0  0  0  0
  6 21  1  0  0  0  0
  7 10  2  0  0  0  0
  7 20  1  0  0  0  0
  8 23  1  0  0  0  0
  9 23  2  0  0  0  0
 10 24  1  0  0  0  0
 11 12  2  0  0  0  0
 11 25  1  0  0  0  0
 12 26  1  0  0  0  0
 13 14  2  0  0  0  0
 13 29  1  0  0  0  0
 14 30  1  0  0  0  0
 15 22  1  0  0  0  0
 15 24  2  0  0  0  0
 16 26  2  0  0  0  0
 16 27  1  0  0  0  0
 17 28  1  0  0  0  0
 18 28  1  0  0  0  0
 18 31  2  0  0  0  0
 18 32  1  0  0  0  0
 19 21  2  0  0  0  0
 19 37  1  0  0  0  0
 20 22  2  0  0  0  0
 20 38  1  0  0  0  0
 21 46  1  0  0  0  0
 22 39  1  0  0  0  0
 23 82  1  0  0  0  0
 24 83  1  0  0  0  0
 25 27  2  0  0  0  0
 25 82  1  0  0  0  0
 26 84  1  0  0  0  0
 27 85  1  0  0  0  0
 28 66  2  0  0  0  0
 29 59  1  0  0  0  0
 29 67  2  0  0  0  0
 30 63  1  0  0  0  0
 30 68  2  0  0  0  0
 31 69  1  0  0  0  0
 31 72  1  0  0  0  0
 32 73  1  0  0  0  0
 32 77  2  0  0  0  0
 33 47  1  0  0  0  0
 33 74  1  0  0  0  0
 33 78  2  0  0  0  0
 34 60  1  0  0  0  0
 34 70  1  0  0  0  0
 34 79  2  0  0  0  0
 35 64  1  0  0  0  0
 35 71  1  0  0  0  0
 35 80  2  0  0  0  0
 36 61  1  0  0  0  0
 36 75  1  0  0  0  0
 36 81  2  0  0  0  0
 37 40  1  0  0  0  0
 38 47  1  0  0  0  0
 39 70  1  0  0  0  0
 40 42  1  0  0  0  0
 41 43  1  0  0  0  0
 41 44  1  0  0  0  0
 42 46  1  0  0  0  0
 43 48  1  0  0  0  0
 44 71  1  0  0  0  0
 45 48  1  0  0  0  0
 45 71  1  0  0  0  0
 46 74  1  0  0  0  0
 47 70  1  0  0  0  0
 48 69  1  0  0  0  0
 49 61  1  0  0  0  0
 50 62  1  0  0  0  0
 51 63  1  0  0  0  0
 52 63  1  0  0  0  0
 53 64  1  0  0  0  0
 54 64  1  0  0  0  0
 55 65  1  0  0  0  0
 56 65  1  0  0  0  0
 57 65  1  0  0  0  0
 58 76  1  0  0  0  0
 59 83  1  0  0  0  0
 60 65  1  0  0  0  0
 60 75  1  0  0  0  0
 61 76  1  0  0  0  0
 62 63  1  0  0  0  0
 62 64  1  0  0  0  0
 66 69  1  0  0  0  0
 67 68  1  0  0  0  0
M  CHG  1  76   1
M  ISO  4  35 100  59 101  64 100  83 101
M  END
> <Batch ID>
0065

> <Smiles>
CNC(C)C(=O)NC(C(=O)N1Cc2cc([101O:1][101CH2:1]c3ccc(C(C)(C)C(C)[100C:0](C)(C)[100C:0](=O)N4CCCC(n5nc(-c6ccc(Oc7ccc(F)cc7F)cc6)c(C(N)=O)c5N)C4)nn3)ccc2CC1C(=O)NC1CCCc2ccccc21)C(C)(C)C

> <Shape>
0.263

> <Color>
0.089

> <Negative vol penalty>
0.000

$$$$

  -OEChem-04052318073D

 90 98  0     1  0  0  0  0  0999 V2000
  -27.5875  -36.2132   16.5455 C   0  0  0  0  0  0  0  0  0  0  0  0
  -28.1012  -34.9833   16.9442 C   0  0  0  0  0  0  0  0  0  0  0  0
  -23.1950   -9.8611   21.5577 C   0  0  0  0  0  0  0  0  0  0  0  0
  -23.8152  -11.0116   23.5896 C   0  0  0  0  0  0  0  0  0  0  0  0
  -26.6401  -36.8613   17.3370 C   0  0  0  0  0  0  0  0  0  0  0  0
  -27.6686  -34.4013   18.1353 C   0  0  0  0  0  0  0  0  0  0  0  0
  -26.9329  -28.4261   19.2584 C   0  0  0  0  0  0  0  0  0  0  0  0
  -22.4973   -8.9139   22.3070 C   0  0  0  0  0  0  0  0  0  0  0  0
  -23.1174  -10.0644   24.3389 C   0  0  0  0  0  0  0  0  0  0  0  0
  -27.7402  -27.4852   19.8962 C   0  0  0  0  0  0  0  0  0  0  0  0
  -23.2196   -6.1834   24.1636 C   0  0  0  0  0  0  0  0  0  0  0  0
  -23.3948   -4.8396   23.8331 C   0  0  0  0  0  0  0  0  0  0  0  0
  -26.5183  -27.8354   21.9465 C   0  0  0  0  0  0  0  0  0  0  0  0
  -21.0302   -4.6434   23.3778 C   0  0  0  0  0  0  0  0  0  0  0  0
  -23.8541  -10.9100   22.1990 C   0  0  0  0  0  0  0  0  0  0  0  0
  -24.0733  -13.0928   20.8971 C   0  0  0  0  0  0  0  0  0  0  0  0
  -26.1886  -36.2824   18.5335 C   0  0  0  0  0  0  0  0  0  0  0  0
  -25.9175  -29.0878   19.9639 C   0  0  0  0  0  0  0  0  0  0  0  0
  -26.7153  -35.0429   18.9442 C   0  0  0  0  0  0  0  0  0  0  0  0
  -25.6978  -28.7824   21.3147 C   0  0  0  0  0  0  0  0  0  0  0  0
  -22.4585   -9.0155   23.6976 C   0  0  0  0  0  0  0  0  0  0  0  0
  -27.5348  -27.1919   21.2411 C   0  0  0  0  0  0  0  0  0  0  0  0
  -21.9497   -6.7571   24.1014 C   0  0  0  0  0  0  0  0  0  0  0  0
  -22.3001   -4.0696   23.4401 C   0  0  0  0  0  0  0  0  0  0  0  0
  -20.8550   -5.9871   23.7084 C   0  0  0  0  0  0  0  0  0  0  0  0
  -24.5755  -11.8885   21.4255 C   0  0  0  0  0  0  0  0  0  0  0  0
  -25.1456  -13.6577   20.2509 C   0  0  0  0  0  0  0  0  0  0  0  0
  -30.1063  -18.8244   20.5909 C   0  0  0  0  0  0  0  0  0  0  0  0
  -28.8968  -20.5108   20.3668 C   0  0  0  0  0  0  0  0  0  0  0  0
  -22.7554  -13.6510   20.9828 C   0  0  0  0  0  0  0  0  0  0  0  0
  -25.3153  -32.1173   20.7144 C   0  0  0  0  0  0  0  0  0  0  0  0
  -30.5676  -15.0321   20.2017 C   0  0  0  0  0  0  0  0  0  0  0  0
  -22.5431  -30.8766   21.8536 C   0  0  0  0  0  0  0  0  0  0  0  0
  -20.8637  -28.1613   23.0591 C   0  0  0  0  0  0  0  0  0  0  0  0
  -25.1983  -37.0430   19.3794 C   0  0  0  0  0  0  0  0  0  0  0  0
  -25.0380  -30.0806   19.2546 C   0  0  0  0  0  0  0  0  0  0  0  0
  -24.6080  -29.4501   22.1116 C   0  0  0  0  0  0  0  0  0  0  0  0
  -24.5151  -36.1825   20.4393 C   0  0  0  0  0  0  0  0  0  0  0  0
  -29.6722  -11.7495   19.0778 C   0  0  0  0  0  0  0  0  0  0  0  0
  -25.5418  -35.3293   21.1772 C   0  0  0  0  0  0  0  0  0  0  0  0
  -28.2359  -11.5805   19.5712 C   0  0  0  0  0  0  0  0  0  0  0  0
  -30.5079  -12.5641   20.0601 C   0  0  0  0  0  0  0  0  0  0  0  0
  -28.4894  -13.7336   20.8846 C   0  0  0  0  0  0  0  0  0  0  0  0
  -26.2527  -34.3679   20.2171 C   0  0  1  0  0  0  0  0  0  0  0  0
  -24.3674  -31.0695   20.2031 C   0  0  1  0  0  0  0  0  0  0  0  0
  -27.6028  -12.9425   19.9067 C   0  0  2  0  0  0  0  0  0  0  0  0
  -27.9561  -21.5534   19.9189 C   0  0  0  0  0  0  0  0  0  0  0  0
  -18.6204  -27.4651   23.9425 C   0  0  0  0  0  0  0  0  0  0  0  0
  -31.2374  -28.8207   24.6933 C   0  0  0  0  0  0  0  0  0  0  0  0
  -32.5664  -28.0351   22.7242 C   0  0  0  0  0  0  0  0  0  0  0  0
  -31.4691  -22.9062   21.2658 C   0  0  0  0  0  0  0  0  0  0  0  0
  -23.1632  -32.2521   24.5057 C   0  0  0  0  0  0  0  0  0  0  0  0
  -21.4498  -30.7826   25.5887 C   0  0  0  0  0  0  0  0  0  0  0  0
  -20.7678  -32.3808   23.7989 C   0  0  0  0  0  0  0  0  0  0  0  0
  -28.1540  -21.9240   23.2106 C   0  0  0  0  0  0  0  0  0  0  0  0
  -30.4672  -21.2473   23.7729 C   0  0  0  0  0  0  0  0  0  0  0  0
  -20.4868  -26.1942   20.8802 C   0  0  0  0  0  0  0  0  0  0  0  0
  -30.7409  -17.5330   20.3019 C   0  0  0  0  0  0  0  0  0  0  0  0
  -29.8344  -16.3061   20.5382 C   0  0  0  0  0  0  0  0  0  0  0  0
  -30.7112  -26.5749   23.6979 C   0  0  0  0  0  0  0  0  0  0  0  0
  -30.1885  -24.2147   23.0190 C   0  0  0  0  0  0  0  0  0  0  0  0
  -29.6589  -26.1331   21.3939 C   0  0  0  0  0  0  0  0  0  1  0  0
  -22.0880  -30.3156   23.1792 C   0  0  1  0  0  0  0  0  0  0  0  0
  -19.5048  -27.5811   22.7108 C   0  0  2  0  0  0  0  0  0  0  0  0
  -31.1929  -28.0083   23.3952 C   0  0  0  0  0  0  0  0  0  0  0  0
  -30.1113  -23.0654   21.9723 C   0  0  2  0  0  0  0  0  0  0  0  0
  -30.6080  -25.6125   22.4852 C   0  0  1  0  0  0  0  0  0  0  0  0
  -21.8891  -31.4214   24.2539 C   0  0  0  0  0  0  0  0  0  0  0  0
  -29.5620  -21.7115   22.5990 C   0  0  0  0  0  0  0  0  0  0  0  0
  -25.8663  -11.6985   21.1397 N   0  0  0  0  0  0  0  0  0  0  0  0
  -29.2021  -19.3969   19.7428 N   0  0  0  0  0  0  0  0  0  0  0  0
  -30.3798  -19.5141   21.7004 N   0  0  0  0  0  0  0  0  0  0  0  0
  -26.1843  -12.7910   20.4245 N   0  0  0  0  0  0  0  0  0  0  0  0
  -29.5933  -20.5881   21.5324 N   0  0  0  0  0  0  0  0  0  0  0  0
  -23.7786  -30.4182   21.3750 N   0  0  0  0  0  0  0  0  0  0  0  0
  -29.8619  -13.8407   20.3704 N   0  0  0  0  0  0  0  0  0  0  0  0
  -25.2918  -14.8063   19.5568 N   0  0  0  0  0  0  0  0  0  0  0  0
  -21.7728  -12.9395   21.6847 N   0  0  0  0  0  0  0  0  0  0  0  0
  -25.4014  -33.2382   19.9108 N   0  0  0  0  0  0  0  0  0  0  0  0
  -20.8901  -29.5308   22.9006 N   0  0  0  0  0  0  0  0  0  0  0  0
  -19.6585  -26.2246   22.1131 N   0  3  0  0  0  0  0  0  0  0  0  0
  -22.4538  -14.7402   20.4387 O   0  0  0  0  0  0  0  0  0  0  0  0
  -25.9224  -31.9239   21.7611 O   0  0  0  0  0  0  0  0  0  0  0  0
  -31.7318  -15.0960   19.7981 O   0  0  0  0  0  0  0  0  0  0  0  0
  -21.8254  -31.6863   21.2612 O   0  0  0  0  0  0  0  0  0  0  0  0
  -21.8062  -27.4693   23.4378 O   0  0  0  0  0  0  0  0  0  0  0  0
  -21.7775   -8.0915   24.4291 O   0  0  0  0  0  0  0  0  0  0  0  0
  -28.3277  -26.2675   21.8709 O   0  0  0  0  0  0  0  0  0  1  0  0
  -22.4687   -2.7796   23.1212 F   0  0  0  0  0  0  0  0  0  0  0  0
  -19.6328   -6.5330   23.6456 F   0  0  0  0  0  0  0  0  0  0  0  0
  1  2  1  0  0  0  0
  1  5  2  0  0  0  0
  2  6  2  0  0  0  0
  3  8  2  0  0  0  0
  3 15  1  0  0  0  0
  4  9  1  0  0  0  0
  4 15  2  0  0  0  0
  5 17  1  0  0  0  0
  6 19  1  0  0  0  0
  7 10  2  0  0  0  0
  7 18  1  0  0  0  0
  8 21  1  0  0  0  0
  9 21  2  0  0  0  0
 10 22  1  0  0  0  0
 11 12  2  0  0  0  0
 11 23  1  0  0  0  0
 12 24  1  0  0  0  0
 13 20  1  0  0  0  0
 13 22  2  0  0  0  0
 14 24  2  0  0  0  0
 14 25  1  0  0  0  0
 15 26  1  0  0  0  0
 16 26  1  0  0  0  0
 16 27  2  0  0  0  0
 16 30  1  0  0  0  0
 17 19  2  0  0  0  0
 17 35  1  0  0  0  0
 18 20  2  0  0  0  0
 18 36  1  0  0  0  0
 19 44  1  0  0  0  0
 20 37  1  0  0  0  0
 21 87  1  0  0  0  0
 22 88  1  0  0  0  0
 23 25  2  0  0  0  0
 23 87  1  0  0  0  0
 24 89  1  0  0  0  0
 25 90  1  0  0  0  0
 26 70  2  0  0  0  0
 27 73  1  0  0  0  0
 27 77  1  0  0  0  0
 28 58  1  0  0  0  0
 28 71  1  0  0  0  0
 28 72  2  0  0  0  0
 29 47  1  0  0  0  0
 29 71  2  0  0  0  0
 29 74  1  0  0  0  0
 30 78  1  0  0  0  0
 30 82  2  0  0  0  0
 31 45  1  0  0  0  0
 31 79  1  0  0  0  0
 31 83  2  0  0  0  0
 32 59  1  0  0  0  0
 32 76  1  0  0  0  0
 32 84  2  0  0  0  0
 33 63  1  0  0  0  0
 33 75  1  0  0  0  0
 33 85  2  0  0  0  0
 34 64  1  0  0  0  0
 34 80  1  0  0  0  0
 34 86  2  0  0  0  0
 35 38  1  0  0  0  0
 36 45  1  0  0  0  0
 37 75  1  0  0  0  0
 38 40  1  0  0  0  0
 39 41  1  0  0  0  0
 39 42  1  0  0  0  0
 40 44  1  0  0  0  0
 41 46  1  0  0  0  0
 42 76  1  0  0  0  0
 43 46  1  0  0  0  0
 43 76  1  0  0  0  0
 44 79  1  0  0  0  0
 45 75  1  0  0  0  0
 46 73  1  0  0  0  0
 48 64  1  0  0  0  0
 49 65  1  0  0  0  0
 50 65  1  0  0  0  0
 51 66  1  0  0  0  0
 52 68  1  0  0  0  0
 53 68  1  0  0  0  0
 54 68  1  0  0  0  0
 55 69  1  0  0  0  0
 56 69  1  0  0  0  0
 57 81  1  0  0  0  0
 58 59  1  0  0  0  0
 60 65  1  0  0  0  0
 60 67  1  0  0  0  0
 61 66  1  0  0  0  0
 61 67  1  0  0  0  0
 62 67  1  0  0  0  0
 62 88  1  0  0  0  0
 63 68  1  0  0  0  0
 63 80  1  0  0  0  0
 64 81  1  0  0  0  0
 66 69  1  0  0  0  0
 69 74  1  0  0  0  0
 70 73  1  0  0  0  0
 72 74  1  0  0  0  0
M  CHG  1  81   1
M  ISO  4  32 100  59 100  62 101  88 101
M  END
> <Batch ID>
0065

> <Smiles>
CNC(C)C(=O)NC(C(=O)N1Cc2cc([101O:1][101CH2:1]C(CC(C)C)CC(C)C(C)(C)n3nc(C[100CH2:0][100C:0](=O)N4CCCC(n5nc(-c6ccc(Oc7ccc(F)cc7F)cc6)c(C(N)=O)c5N)C4)nc3C)ccc2CC1C(=O)NC1CCCc2ccccc21)C(C)(C)C

> <Shape>
0.316

> <Color>
0.178

> <Negative vol penalty>
0.000

$$$$

  -OEChem-04052318073D

 92100  0     1  0  0  0  0  0999 V2000
  -19.8282  -28.7476   26.6854 C   0  0  0  0  0  0  0  0  0  0  0  0
  -21.0916  -28.3513   26.2588 C   0  0  0  0  0  0  0  0  0  0  0  0
  -23.3840  -10.0271   22.3510 C   0  0  0  0  0  0  0  0  0  0  0  0
  -24.8770   -8.9673   20.7747 C   0  0  0  0  0  0  0  0  0  0  0  0
  -18.7647  -28.7708   25.7840 C   0  0  0  0  0  0  0  0  0  0  0  0
  -21.2921  -27.9769   24.9306 C   0  0  0  0  0  0  0  0  0  0  0  0
  -26.3193  -28.9128   21.5605 C   0  0  0  0  0  0  0  0  0  0  0  0
  -22.4436   -9.0192   22.1379 C   0  0  0  0  0  0  0  0  0  0  0  0
  -23.9366   -7.9593   20.5617 C   0  0  0  0  0  0  0  0  0  0  0  0
  -27.3962  -28.0898   21.2339 C   0  0  0  0  0  0  0  0  0  0  0  0
  -21.9480   -5.8249   23.1296 C   0  0  0  0  0  0  0  0  0  0  0  0
  -21.3260   -5.2715   24.2487 C   0  0  0  0  0  0  0  0  0  0  0  0
  -26.3239  -27.5247   19.1482 C   0  0  0  0  0  0  0  0  0  0  0  0
  -19.1756   -5.9749   23.4015 C   0  0  0  0  0  0  0  0  0  0  0  0
  -28.4330  -19.4578   18.7359 C   0  0  0  0  0  0  0  0  0  0  0  0
  -24.6007  -10.0012   21.6693 C   0  0  0  0  0  0  0  0  0  0  0  0
  -26.5995  -11.0576   22.8509 C   0  0  0  0  0  0  0  0  0  0  0  0
  -18.9545  -28.4057   24.4419 C   0  0  0  0  0  0  0  0  0  0  0  0
  -25.2298  -29.0397   20.6869 C   0  0  0  0  0  0  0  0  0  0  0  0
  -20.2300  -27.9939   24.0107 C   0  0  0  0  0  0  0  0  0  0  0  0
  -25.2356  -28.3520   19.4650 C   0  0  0  0  0  0  0  0  0  0  0  0
  -22.7199   -7.9853   21.2433 C   0  0  0  0  0  0  0  0  0  0  0  0
  -27.3974  -27.3934   20.0289 C   0  0  0  0  0  0  0  0  0  0  0  0
  -21.1837   -6.4533   22.1463 C   0  0  0  0  0  0  0  0  0  0  0  0
  -19.9399   -5.3465   24.3847 C   0  0  0  0  0  0  0  0  0  0  0  0
  -19.7976   -6.5283   22.2823 C   0  0  0  0  0  0  0  0  0  0  0  0
  -25.5723  -11.0424   21.8885 C   0  0  0  0  0  0  0  0  0  0  0  0
  -28.9841  -18.2997   19.2069 C   0  0  0  0  0  0  0  0  0  0  0  0
  -27.2400  -12.2560   22.6506 C   0  0  0  0  0  0  0  0  0  0  0  0
  -28.0733  -19.3683   20.9184 C   0  0  0  0  0  0  0  0  0  0  0  0
  -26.9440  -10.0762   23.8378 C   0  0  0  0  0  0  0  0  0  0  0  0
  -22.1252  -28.3804   20.8625 C   0  0  0  0  0  0  0  0  0  0  0  0
  -22.0480  -29.8456   17.9695 C   0  0  0  0  0  0  0  0  0  0  0  0
  -29.5098  -15.8878   19.1957 C   0  0  0  0  0  0  0  0  0  0  0  0
  -23.7245  -30.7697   15.1442 C   0  0  0  0  0  0  0  0  0  0  0  0
  -17.7642  -28.4013   23.5155 C   0  0  0  0  0  0  0  0  0  0  0  0
  -24.0881  -29.9523   21.0419 C   0  0  0  0  0  0  0  0  0  0  0  0
  -24.0995  -28.4698   18.4832 C   0  0  0  0  0  0  0  0  0  0  0  0
  -18.1428  -28.3485   22.0377 C   0  0  0  0  0  0  0  0  0  0  0  0
  -25.9532  -16.2618   19.8571 C   0  0  0  0  0  0  0  0  0  0  0  0
  -19.2087  -27.2841   21.7974 C   0  0  0  0  0  0  0  0  0  0  0  0
  -25.6188  -14.9165   20.5001 C   0  0  0  0  0  0  0  0  0  0  0  0
  -27.0142  -16.1158   18.7695 C   0  0  0  0  0  0  0  0  0  0  0  0
  -27.9361  -14.1054   19.8798 C   0  0  0  0  0  0  0  0  0  0  0  0
  -20.4927  -27.6043   22.5722 C   0  0  1  0  0  0  0  0  0  0  0  0
  -22.7959  -29.6057   20.3088 C   0  0  1  0  0  0  0  0  0  0  0  0
  -26.8917  -14.2137   21.0034 C   0  0  2  0  0  0  0  0  0  0  0  0
  -24.7043  -22.3968   19.3662 C   0  0  0  0  0  0  0  0  0  0  0  0
  -23.3859  -31.9215   12.9405 C   0  0  0  0  0  0  0  0  0  0  0  0
  -31.2468  -17.4808   18.4983 C   0  0  0  0  0  0  0  0  0  0  0  0
  -29.2985  -16.9261   17.0387 C   0  0  0  0  0  0  0  0  0  0  0  0
  -26.0793  -19.8412   22.3833 C   0  0  0  0  0  0  0  0  0  0  0  0
  -28.2522  -21.0449   22.7902 C   0  0  0  0  0  0  0  0  0  0  0  0
  -28.0090  -18.6465   23.3984 C   0  0  0  0  0  0  0  0  0  0  0  0
  -20.6521  -27.3580   16.8865 C   0  0  0  0  0  0  0  0  0  0  0  0
  -21.1936  -28.1464   14.5728 C   0  0  0  0  0  0  0  0  0  0  0  0
  -19.7253  -29.5234   16.0461 C   0  0  0  0  0  0  0  0  0  0  0  0
  -30.1572  -22.0780   18.8813 C   0  0  0  0  0  0  0  0  0  0  0  0
  -29.2609  -23.3419   16.9459 C   0  0  0  0  0  0  0  0  0  0  0  0
  -27.2574  -22.2768   21.0612 C   0  0  0  0  0  0  0  0  0  0  0  0
  -25.6871  -32.8811   15.8145 C   0  0  0  0  0  0  0  0  0  0  0  0
  -25.6044  -21.1728   19.5231 C   0  0  0  0  0  0  0  0  0  0  0  0
  -29.1388  -24.3354   19.2510 C   0  0  0  0  0  0  0  0  0  0  0  0
  -27.6077  -22.3240   18.5262 C   0  0  0  0  0  0  0  0  0  0  0  0
  -28.1670  -25.4547   18.8864 C   0  0  0  0  0  0  0  0  0  1  0  0
  -22.2019  -29.3932   16.5375 C   0  0  1  0  0  0  0  0  0  0  0  0
  -23.7887  -32.0898   14.3973 C   0  0  2  0  0  0  0  0  0  0  0  0
  -29.7062  -17.2234   18.5237 C   0  0  0  0  0  0  0  0  0  0  0  0
  -27.6331  -19.6973   22.2971 C   0  0  0  0  0  0  0  0  0  0  0  0
  -20.9639  -28.6013   16.0299 C   0  0  0  0  0  0  0  0  0  0  0  0
  -29.0145  -23.0110   18.4428 C   0  0  0  0  0  0  0  0  0  0  0  0
  -27.1368  -21.4540   19.7605 C   0  0  1  0  0  0  0  0  0  0  0  0
  -25.5572  -12.1437   21.1329 N   0  0  0  0  0  0  0  0  0  0  0  0
  -27.8760  -20.0989   19.8162 N   0  0  0  0  0  0  0  0  0  0  0  0
  -26.5829  -12.8623   21.6206 N   0  0  0  0  0  0  0  0  0  0  0  0
  -28.7469  -18.2705   20.5601 N   0  3  0  0  0  0  0  0  0  0  0  0
  -23.0033  -29.3696   18.8787 N   0  0  0  0  0  0  0  0  0  0  0  0
  -28.1993  -15.4172   19.2813 N   0  0  0  0  0  0  0  0  0  0  0  0
  -28.2956  -12.8398   23.2567 N   0  0  0  0  0  0  0  0  0  0  0  0
  -26.1821   -8.9019   23.9067 N   0  0  0  0  0  0  0  0  0  0  0  0
  -21.2460  -28.6389   21.8966 N   0  0  0  0  0  0  0  0  0  0  0  0
  -22.5045  -30.5909   15.7613 N   0  0  0  0  0  0  0  0  0  0  0  0
  -25.1716  -32.6433   14.4417 N   0  3  0  0  0  0  0  0  0  0  0  0
  -27.8890  -10.2431   24.6456 O   0  0  0  0  0  0  0  0  0  0  0  0
  -22.3851  -27.2818   20.3857 O   0  0  0  0  0  0  0  0  0  0  0  0
  -21.1187  -30.5996   18.2690 O   0  0  0  0  0  0  0  0  0  0  0  0
  -30.4926  -15.2837   19.6331 O   0  0  0  0  0  0  0  0  0  0  0  0
  -24.6615  -29.9750   15.1739 O   0  0  0  0  0  0  0  0  0  0  0  0
  -21.8026   -7.0015   21.0354 O   0  0  0  0  0  0  0  0  0  0  0  0
  -28.4535  -26.5839   19.7058 O   0  0  0  0  0  0  0  0  0  1  0  0
  -19.3426   -4.8137   25.4587 F   0  0  0  0  0  0  0  0  0  0  0  0
  -19.0580   -7.1298   21.3404 F   0  0  0  0  0  0  0  0  0  0  0  0
  1  2  1  0  0  0  0
  1  5  2  0  0  0  0
  2  6  2  0  0  0  0
  3  8  2  0  0  0  0
  3 16  1  0  0  0  0
  4  9  1  0  0  0  0
  4 16  2  0  0  0  0
  5 18  1  0  0  0  0
  6 20  1  0  0  0  0
  7 10  2  0  0  0  0
  7 19  1  0  0  0  0
  8 22  1  0  0  0  0
  9 22  2  0  0  0  0
 10 23  1  0  0  0  0
 11 12  2  0  0  0  0
 11 24  1  0  0  0  0
 12 25  1  0  0  0  0
 13 21  1  0  0  0  0
 13 23  2  0  0  0  0
 14 25  2  0  0  0  0
 14 26  1  0  0  0  0
 15 28  2  0  0  0  0
 15 74  1  0  0  0  0
 16 27  1  0  0  0  0
 17 27  1  0  0  0  0
 17 29  2  0  0  0  0
 17 31  1  0  0  0  0
 18 20  2  0  0  0  0
 18 36  1  0  0  0  0
 19 21  2  0  0  0  0
 19 37  1  0  0  0  0
 20 45  1  0  0  0  0
 21 38  1  0  0  0  0
 22 89  1  0  0  0  0
 23 90  1  0  0  0  0
 24 26  2  0  0  0  0
 24 89  1  0  0  0  0
 25 91  1  0  0  0  0
 26 92  1  0  0  0  0
 27 73  2  0  0  0  0
 28 68  1  0  0  0  0
 28 76  1  0  0  0  0
 29 75  1  0  0  0  0
 29 79  1  0  0  0  0
 30 69  1  0  0  0  0
 30 74  1  0  0  0  0
 30 76  2  0  0  0  0
 31 80  1  0  0  0  0
 31 84  2  0  0  0  0
 32 46  1  0  0  0  0
 32 81  1  0  0  0  0
 32 85  2  0  0  0  0
 33 66  1  0  0  0  0
 33 77  1  0  0  0  0
 33 86  2  0  0  0  0
 34 68  1  0  0  0  0
 34 78  1  0  0  0  0
 34 87  2  0  0  0  0
 35 67  1  0  0  0  0
 35 82  1  0  0  0  0
 35 88  2  0  0  0  0
 36 39  1  0  0  0  0
 37 46  1  0  0  0  0
 38 77  1  0  0  0  0
 39 41  1  0  0  0  0
 40 42  1  0  0  0  0
 40 43  1  0  0  0  0
 41 45  1  0  0  0  0
 42 47  1  0  0  0  0
 43 78  1  0  0  0  0
 44 47  1  0  0  0  0
 44 78  1  0  0  0  0
 45 81  1  0  0  0  0
 46 77  1  0  0  0  0
 47 75  1  0  0  0  0
 48 62  1  0  0  0  0
 49 67  1  0  0  0  0
 50 68  1  0  0  0  0
 51 68  1  0  0  0  0
 52 69  1  0  0  0  0
 53 69  1  0  0  0  0
 54 69  1  0  0  0  0
 55 70  1  0  0  0  0
 56 70  1  0  0  0  0
 57 70  1  0  0  0  0
 58 71  1  0  0  0  0
 59 71  1  0  0  0  0
 60 72  1  0  0  0  0
 61 83  1  0  0  0  0
 62 72  1  0  0  0  0
 63 65  1  0  0  0  0
 63 71  1  0  0  0  0
 64 71  1  0  0  0  0
 64 72  1  0  0  0  0
 65 90  1  0  0  0  0
 66 70  1  0  0  0  0
 66 82  1  0  0  0  0
 67 83  1  0  0  0  0
 72 74  1  0  0  0  0
 73 75  1  0  0  0  0
M  CHG  2  76   1  83   1
M  ISO  4  34 100  65 101  68 100  90 101
M  END
> <Batch ID>
0065

> <Smiles>
CCC(C)(CC(C)(C)C[101CH2:1][101O:1]c1ccc2c(c1)CN(C(=O)C(NC(=O)C(C)NC)C(C)(C)C)C(C(=O)NC1CCCc3ccccc31)C2)n1cc([100C:0](C)(C)[100C:0](=O)N2CCCC(n3nc(-c4ccc(Oc5ccc(F)cc5F)cc4)c(C(N)=O)c3N)C2)nc1C(C)(C)C

> <Shape>
0.264

> <Color>
0.099

> <Negative vol penalty>
0.000

$$$$

  -OEChem-04052318073D

 93102  0     1  0  0  0  0  0999 V2000
  -18.8511  -24.0481   23.5957 C   0  0  0  0  0  0  0  0  0  0  0  0
  -20.0915  -24.0953   22.9675 C   0  0  0  0  0  0  0  0  0  0  0  0
  -22.6798  -15.3505   23.8532 C   0  0  0  0  0  0  0  0  0  0  0  0
  -22.2888  -16.2077   21.6285 C   0  0  0  0  0  0  0  0  0  0  0  0
  -18.0970  -25.2124   23.7353 C   0  0  0  0  0  0  0  0  0  0  0  0
  -20.5780  -25.3068   22.4776 C   0  0  0  0  0  0  0  0  0  0  0  0
  -25.4520  -26.0524   23.6322 C   0  0  0  0  0  0  0  0  0  0  0  0
  -21.5773  -16.0646   24.3222 C   0  0  0  0  0  0  0  0  0  0  0  0
  -21.1862  -16.9218   22.0975 C   0  0  0  0  0  0  0  0  0  0  0  0
  -26.3987  -25.3716   22.8681 C   0  0  0  0  0  0  0  0  0  0  0  0
  -17.9664  -16.2841   22.9017 C   0  0  0  0  0  0  0  0  0  0  0  0
  -16.7973  -16.2407   22.1422 C   0  0  0  0  0  0  0  0  0  0  0  0
  -29.9833  -22.8003   17.7883 C   0  0  0  0  0  0  0  0  0  0  0  0
  -26.7824  -27.3704   21.5734 C   0  0  0  0  0  0  0  0  0  0  0  0
  -16.8820  -18.6404   21.8748 C   0  0  0  0  0  0  0  0  0  0  0  0
  -26.4965  -19.2633   17.6888 C   0  0  0  0  0  0  0  0  0  0  0  0
  -30.1653  -24.0938   18.2254 C   0  0  0  0  0  0  0  0  0  0  0  0
  -29.9705  -22.7961   20.0399 C   0  0  0  0  0  0  0  0  0  0  0  0
  -23.0357  -15.4221   22.5064 C   0  0  0  0  0  0  0  0  0  0  0  0
  -24.1846  -13.3722   21.5136 C   0  0  0  0  0  0  0  0  0  0  0  0
  -18.5787  -26.4405   23.2555 C   0  0  0  0  0  0  0  0  0  0  0  0
  -25.1550  -27.3966   23.3651 C   0  0  0  0  0  0  0  0  0  0  0  0
  -19.8290  -26.4884   22.6098 C   0  0  0  0  0  0  0  0  0  0  0  0
  -25.8334  -28.0668   22.3372 C   0  0  0  0  0  0  0  0  0  0  0  0
  -29.8602  -21.9793   18.9363 C   0  0  0  0  0  0  0  0  0  0  0  0
  -20.8304  -16.8502   23.4444 C   0  0  0  0  0  0  0  0  0  0  0  0
  -27.0620  -26.0297   21.8366 C   0  0  0  0  0  0  0  0  0  0  0  0
  -18.5932  -17.5056   23.1479 C   0  0  0  0  0  0  0  0  0  0  0  0
  -16.2551  -17.4188   21.6286 C   0  0  0  0  0  0  0  0  0  0  0  0
  -18.0511  -18.6837   22.6344 C   0  0  0  0  0  0  0  0  0  0  0  0
  -24.1749  -14.6851   22.0214 C   0  0  0  0  0  0  0  0  0  0  0  0
  -26.1765  -20.1110   18.7662 C   0  0  0  0  0  0  0  0  0  0  0  0
  -27.8673  -19.3057   17.6139 C   0  0  0  0  0  0  0  0  0  0  0  0
  -25.4991  -13.1383   21.1915 C   0  0  0  0  0  0  0  0  0  0  0  0
  -23.1021  -12.4468   21.3478 C   0  0  0  0  0  0  0  0  0  0  0  0
  -22.5512  -28.9828   22.4661 C   0  0  0  0  0  0  0  0  0  0  0  0
  -24.4397  -31.5763   22.9451 C   0  0  0  0  0  0  0  0  0  0  0  0
  -27.5919  -32.8722   23.1206 C   0  0  0  0  0  0  0  0  0  0  0  0
  -30.0558  -16.7551   19.7750 C   0  0  0  0  0  0  0  0  0  0  0  0
  -17.7067  -27.6640   23.3875 C   0  0  0  0  0  0  0  0  0  0  0  0
  -24.1505  -28.1245   24.2158 C   0  0  0  0  0  0  0  0  0  0  0  0
  -25.5656  -29.5153   22.0231 C   0  0  0  0  0  0  0  0  0  0  0  0
  -18.4598  -28.9746   23.1745 C   0  0  0  0  0  0  0  0  0  0  0  0
  -29.9420  -14.3987   22.4417 C   0  0  0  0  0  0  0  0  0  0  0  0
  -19.3434  -28.8871   21.9342 C   0  0  0  0  0  0  0  0  0  0  0  0
  -28.4520  -14.0865   22.5905 C   0  0  0  0  0  0  0  0  0  0  0  0
  -30.1784  -15.8642   22.0831 C   0  0  0  0  0  0  0  0  0  0  0  0
  -27.9476  -16.0273   21.0486 C   0  0  0  0  0  0  0  0  0  0  0  0
  -20.4018  -27.7880   22.0873 C   0  0  1  0  0  0  0  0  0  0  0  0
  -23.5549  -29.3465   23.5234 C   0  0  1  0  0  0  0  0  0  0  0  0
  -27.6561  -14.5483   21.3550 C   0  0  2  0  0  0  0  0  0  0  0  0
  -28.8164  -35.0314   23.4894 C   0  0  0  0  0  0  0  0  0  0  0  0
  -30.2434  -16.4525   16.5842 C   0  0  0  0  0  0  0  0  0  0  0  0
  -24.0770  -19.1558   19.7787 C   0  0  0  0  0  0  0  0  0  0  0  0
  -23.9345  -21.1093   18.1977 C   0  0  0  0  0  0  0  0  0  0  0  0
  -24.7924  -21.4219   20.5102 C   0  0  0  0  0  0  0  0  0  0  0  0
  -29.7155  -19.6013   15.8366 C   0  0  0  0  0  0  0  0  0  0  0  0
  -28.0206  -17.8069   15.6114 C   0  0  0  0  0  0  0  0  0  0  0  0
  -23.7341  -32.4578   20.1105 C   0  0  0  0  0  0  0  0  0  0  0  0
  -25.6710  -34.0418   20.1956 C   0  0  0  0  0  0  0  0  0  0  0  0
  -23.7763  -34.3039   21.7970 C   0  0  0  0  0  0  0  0  0  0  0  0
  -28.9504  -31.8243   25.5321 C   0  0  0  0  0  0  0  0  0  0  0  0
  -29.6531  -20.5185   18.9490 C   0  0  0  0  0  0  0  0  0  0  0  0
  -30.3218  -25.2911   20.4801 C   0  0  0  0  0  0  0  0  0  0  0  0
  -29.0563  -26.1392   20.5455 C   0  0  0  0  0  0  0  0  0  1  0  0
  -25.3897  -32.3796   22.0901 C   0  0  1  0  0  0  0  0  0  0  0  0
  -28.2526  -33.7793   24.1430 C   0  0  2  0  0  0  0  0  0  0  0  0
  -29.7729  -17.6143   17.4639 C   0  0  1  0  0  0  0  0  0  0  0  0
  -24.8374  -20.4346   19.2865 C   0  0  0  0  0  0  0  0  0  0  0  0
  -28.8082  -18.6356   16.6978 C   0  0  0  0  0  0  0  0  0  0  0  0
  -24.6467  -33.2679   21.0527 C   0  0  0  0  0  0  0  0  0  0  0  0
  -25.3871  -15.2460   22.0239 N   0  0  0  0  0  0  0  0  0  0  0  0
  -27.2571  -20.6521   19.3351 N   0  0  0  0  0  0  0  0  0  0  0  0
  -30.1555  -24.0793   19.5958 N   0  0  0  0  0  0  0  0  0  0  0  0
  -28.2694  -20.1432   18.6124 N   0  0  0  0  0  0  0  0  0  0  0  0
  -26.1708  -14.2807   21.5138 N   0  0  0  0  0  0  0  0  0  0  0  0
  -24.5703  -30.1819   22.8790 N   0  0  0  0  0  0  0  0  0  0  0  0
  -29.3963  -16.2379   20.9022 N   0  0  0  0  0  0  0  0  0  0  0  0
  -26.1344  -12.0689   20.6670 N   0  0  0  0  0  0  0  0  0  0  0  0
  -21.8149  -12.8488   21.7298 N   0  0  0  0  0  0  0  0  0  0  0  0
  -21.4830  -28.2422   22.9353 N   0  0  0  0  0  0  0  0  0  0  0  0
  -26.2404  -33.1232   23.0131 N   0  0  0  0  0  0  0  0  0  0  0  0
  -29.2409  -17.0779   18.6968 N   0  0  0  0  0  0  0  0  0  0  0  0
  -29.3667  -33.0638   24.8269 N   0  3  0  0  0  0  0  0  0  0  0  0
  -23.2739  -11.2915   20.8902 O   0  0  0  0  0  0  0  0  0  0  0  0
  -22.7317  -29.3482   21.3104 O   0  0  0  0  0  0  0  0  0  0  0  0
  -23.6169  -32.1646   23.6513 O   0  0  0  0  0  0  0  0  0  0  0  0
  -28.2134  -32.0282   22.4788 O   0  0  0  0  0  0  0  0  0  0  0  0
  -31.2806  -16.9123   19.7306 O   0  0  0  0  0  0  0  0  0  0  0  0
  -19.7543  -17.5469   23.9016 O   0  0  0  0  0  0  0  0  0  0  0  0
  -27.9861  -25.3673   21.0889 O   0  0  0  0  0  0  0  0  0  1  0  0
  -15.1333  -17.3768   20.8979 F   0  0  0  0  0  0  0  0  0  0  0  0
  -18.6495  -19.8601   22.8666 F   0  0  0  0  0  0  0  0  0  0  0  0
  1  2  1  0  0  0  0
  1  5  2  0  0  0  0
  2  6  2  0  0  0  0
  3  8  2  0  0  0  0
  3 19  1  0  0  0  0
  4  9  1  0  0  0  0
  4 19  2  0  0  0  0
  5 21  1  0  0  0  0
  6 23  1  0  0  0  0
  7 10  2  0  0  0  0
  7 22  1  0  0  0  0
  8 26  1  0  0  0  0
  9 26  2  0  0  0  0
 10 27  1  0  0  0  0
 11 12  2  0  0  0  0
 11 28  1  0  0  0  0
 12 29  1  0  0  0  0
 13 17  2  0  0  0  0
 13 25  1  0  0  0  0
 14 24  1  0  0  0  0
 14 27  2  0  0  0  0
 15 29  2  0  0  0  0
 15 30  1  0  0  0  0
 16 32  1  0  0  0  0
 16 33  2  0  0  0  0
 17 74  1  0  0  0  0
 18 25  2  0  0  0  0
 18 74  1  0  0  0  0
 19 31  1  0  0  0  0
 20 31  1  0  0  0  0
 20 34  2  0  0  0  0
 20 35  1  0  0  0  0
 21 23  2  0  0  0  0
 21 40  1  0  0  0  0
 22 24  2  0  0  0  0
 22 41  1  0  0  0  0
 23 49  1  0  0  0  0
 24 42  1  0  0  0  0
 25 63  1  0  0  0  0
 26 90  1  0  0  0  0
 27 91  1  0  0  0  0
 28 30  2  0  0  0  0
 28 90  1  0  0  0  0
 29 92  1  0  0  0  0
 30 93  1  0  0  0  0
 31 72  2  0  0  0  0
 32 69  1  0  0  0  0
 32 73  2  0  0  0  0
 33 70  1  0  0  0  0
 33 75  1  0  0  0  0
 34 76  1  0  0  0  0
 34 79  1  0  0  0  0
 35 80  1  0  0  0  0
 35 85  2  0  0  0  0
 36 50  1  0  0  0  0
 36 81  1  0  0  0  0
 36 86  2  0  0  0  0
 37 66  1  0  0  0  0
 37 77  1  0  0  0  0
 37 87  2  0  0  0  0
 38 67  1  0  0  0  0
 38 82  1  0  0  0  0
 38 88  2  0  0  0  0
 39 78  1  0  0  0  0
 39 83  1  0  0  0  0
 39 89  2  0  0  0  0
 40 43  1  0  0  0  0
 41 50  1  0  0  0  0
 42 77  1  0  0  0  0
 43 45  1  0  0  0  0
 44 46  1  0  0  0  0
 44 47  1  0  0  0  0
 45 49  1  0  0  0  0
 46 51  1  0  0  0  0
 47 78  1  0  0  0  0
 48 51  1  0  0  0  0
 48 78  1  0  0  0  0
 49 81  1  0  0  0  0
 50 77  1  0  0  0  0
 51 76  1  0  0  0  0
 52 67  1  0  0  0  0
 53 68  1  0  0  0  0
 54 69  1  0  0  0  0
 55 69  1  0  0  0  0
 56 69  1  0  0  0  0
 57 70  1  0  0  0  0
 58 70  1  0  0  0  0
 59 71  1  0  0  0  0
 60 71  1  0  0  0  0
 61 71  1  0  0  0  0
 62 84  1  0  0  0  0
 63 75  1  0  0  0  0
 64 65  1  0  0  0  0
 64 74  1  0  0  0  0
 65 91  1  0  0  0  0
 66 71  1  0  0  0  0
 66 82  1  0  0  0  0
 67 84  1  0  0  0  0
 68 70  1  0  0  0  0
 68 83  1  0  0  0  0
 72 76  1  0  0  0  0
 73 75  1  0  0  0  0
M  CHG  1  84   1
M  ISO  4  39 100  65 101  83 100  91 101
M  END
> <Batch ID>
0065

> <Smiles>
CNC(C)C(=O)NC(C(=O)N1Cc2cc([101O:1][101CH2:1]Cn3ccc(Cn4nc(C(C)(C)C)cc4C(C)(C)C(C)[100NH:0][100C:0](=O)N4CCCC(n5nc(-c6ccc(Oc7ccc(F)cc7F)cc6)c(C(N)=O)c5N)C4)c3)ccc2CC1C(=O)NC1CCCc2ccccc21)C(C)(C)C

> <Shape>
0.239

> <Color>
0.079

> <Negative vol penalty>
0.000

$$$$

  -OEChem-04052318073D

 91 99  0     1  0  0  0  0  0999 V2000
  -26.7585  -29.1353   23.6700 C   0  0  0  0  0  0  0  0  0  0  0  0
  -26.3273  -27.9505   23.0819 C   0  0  0  0  0  0  0  0  0  0  0  0
  -23.0120   -9.9279   19.9400 C   0  0  0  0  0  0  0  0  0  0  0  0
  -23.7420   -9.8771   22.2426 C   0  0  0  0  0  0  0  0  0  0  0  0
  -26.3462  -30.3611   23.1491 C   0  0  0  0  0  0  0  0  0  0  0  0
  -25.4825  -27.9909   21.9733 C   0  0  0  0  0  0  0  0  0  0  0  0
  -26.8941  -24.7617   18.3367 C   0  0  0  0  0  0  0  0  0  0  0  0
  -22.2340   -8.7916   20.1615 C   0  0  0  0  0  0  0  0  0  0  0  0
  -22.9640   -8.7407   22.4641 C   0  0  0  0  0  0  0  0  0  0  0  0
  -26.5762  -23.4167   18.5209 C   0  0  0  0  0  0  0  0  0  0  0  0
  -23.1720   -5.4215   21.8556 C   0  0  0  0  0  0  0  0  0  0  0  0
  -23.7502   -4.3683   22.5641 C   0  0  0  0  0  0  0  0  0  0  0  0
  -24.6821  -23.6691   17.0486 C   0  0  0  0  0  0  0  0  0  0  0  0
  -22.0321   -4.5606   24.2518 C   0  0  0  0  0  0  0  0  0  0  0  0
  -29.5675  -16.1867   17.2185 C   0  0  0  0  0  0  0  0  0  0  0  0
  -23.7661  -10.4707   20.9805 C   0  0  0  0  0  0  0  0  0  0  0  0
  -24.1777  -12.9871   20.9066 C   0  0  0  0  0  0  0  0  0  0  0  0
  -25.5038  -30.4166   22.0276 C   0  0  0  0  0  0  0  0  0  0  0  0
  -26.1007  -25.5744   17.5143 C   0  0  0  0  0  0  0  0  0  0  0  0
  -25.0575  -29.2186   21.4377 C   0  0  0  0  0  0  0  0  0  0  0  0
  -24.9935  -25.0233   16.8535 C   0  0  0  0  0  0  0  0  0  0  0  0
  -22.2100   -8.1980   21.4236 C   0  0  0  0  0  0  0  0  0  0  0  0
  -25.4684  -22.8709   17.8791 C   0  0  0  0  0  0  0  0  0  0  0  0
  -22.0239   -6.0444   22.3452 C   0  0  0  0  0  0  0  0  0  0  0  0
  -23.1802   -3.9378   23.7622 C   0  0  0  0  0  0  0  0  0  0  0  0
  -21.4540   -5.6139   23.5433 C   0  0  0  0  0  0  0  0  0  0  0  0
  -24.5704  -11.6441   20.7522 C   0  0  0  0  0  0  0  0  0  0  0  0
  -29.4656  -17.5026   17.5717 C   0  0  0  0  0  0  0  0  0  0  0  0
  -25.2944  -13.7123   20.5695 C   0  0  0  0  0  0  0  0  0  0  0  0
  -31.3801  -16.7279   18.3683 C   0  0  0  0  0  0  0  0  0  0  0  0
  -22.9163  -13.5306   21.3180 C   0  0  0  0  0  0  0  0  0  0  0  0
  -24.3353  -28.1787   17.9664 C   0  0  0  0  0  0  0  0  0  0  0  0
  -24.0369  -28.0630   14.7384 C   0  0  0  0  0  0  0  0  0  0  0  0
  -24.1179  -26.1900   11.8867 C   0  0  0  0  0  0  0  0  0  0  0  0
  -30.5768  -14.7181   20.7811 C   0  0  0  0  0  0  0  0  0  0  0  0
  -25.0466  -31.7646   21.5291 C   0  0  0  0  0  0  0  0  0  0  0  0
  -26.4725  -27.0167   17.3048 C   0  0  0  0  0  0  0  0  0  0  0  0
  -24.1213  -25.8483   15.9440 C   0  0  0  0  0  0  0  0  0  0  0  0
  -24.4526  -31.7249   20.1234 C   0  0  0  0  0  0  0  0  0  0  0  0
  -29.6253  -12.2921   18.3976 C   0  0  0  0  0  0  0  0  0  0  0  0
  -23.4652  -30.5695   19.9936 C   0  0  0  0  0  0  0  0  0  0  0  0
  -28.1840  -12.0055   18.8163 C   0  0  0  0  0  0  0  0  0  0  0  0
  -30.5496  -12.4699   19.6036 C   0  0  0  0  0  0  0  0  0  0  0  0
  -28.6356  -13.1954   20.9939 C   0  0  0  0  0  0  0  0  0  0  0  0
  -24.1607  -29.2215   20.2187 C   0  0  1  0  0  0  0  0  0  0  0  0
  -25.2969  -27.8771   16.8520 C   0  0  1  0  0  0  0  0  0  0  0  0
  -27.6748  -13.0721   19.8013 C   0  0  2  0  0  0  0  0  0  0  0  0
  -29.5767  -19.2982   15.1600 C   0  0  0  0  0  0  0  0  0  0  0  0
  -30.6755  -19.1454   20.3548 C   0  0  0  0  0  0  0  0  0  0  0  0
  -23.7965  -26.3666    9.4041 C   0  0  0  0  0  0  0  0  0  0  0  0
  -33.5462  -17.9484   19.0860 C   0  0  0  0  0  0  0  0  0  0  0  0
  -33.6155  -15.5883   18.3238 C   0  0  0  0  0  0  0  0  0  0  0  0
  -21.0138  -28.1649   15.1394 C   0  0  0  0  0  0  0  0  0  0  0  0
  -20.7440  -27.3915   12.7736 C   0  0  0  0  0  0  0  0  0  0  0  0
  -21.8637  -29.5686   13.2522 C   0  0  0  0  0  0  0  0  0  0  0  0
  -26.3593  -16.8635   17.4000 C   0  0  0  0  0  0  0  0  0  0  0  0
  -27.1464  -17.9712   19.4907 C   0  0  0  0  0  0  0  0  0  0  0  0
  -32.9016  -13.7252   20.9020 C   0  0  0  0  0  0  0  0  0  0  0  0
  -26.9018  -25.3416   11.3491 C   0  0  0  0  0  0  0  0  0  0  0  0
  -28.2519  -18.8525   15.7748 C   0  0  0  0  0  0  0  0  0  0  0  0
  -25.9022  -19.2868   17.7420 C   0  0  0  0  0  0  0  0  0  0  0  0
  -30.9132  -19.1067   18.8550 C   0  0  0  0  0  0  0  0  0  0  0  0
  -32.5740  -16.1437   20.5421 C   0  0  0  0  0  0  0  0  0  0  0  0
  -26.2357  -20.6626   18.3155 C   0  0  0  0  0  0  0  0  0  1  0  0
  -28.3597  -18.5235   17.2894 C   0  0  1  0  0  0  0  0  0  0  0  0
  -23.0731  -27.4112   13.7765 C   0  0  1  0  0  0  0  0  0  0  0  0
  -24.7965  -26.4213   10.5486 C   0  0  2  0  0  0  0  0  0  0  0  0
  -32.6949  -16.6275   19.0492 C   0  0  0  0  0  0  0  0  0  0  0  0
  -21.6888  -28.1187   13.7540 C   0  0  0  0  0  0  0  0  0  0  0  0
  -26.9697  -18.1670   17.9649 C   0  0  0  0  0  0  0  0  0  0  0  0
  -25.8375  -11.5206   20.3482 N   0  0  0  0  0  0  0  0  0  0  0  0
  -30.6005  -17.8106   18.2826 N   0  0  0  0  0  0  0  0  0  0  0  0
  -26.2507  -12.7953   20.2459 N   0  0  0  0  0  0  0  0  0  0  0  0
  -30.7618  -15.7328   17.7242 N   0  3  0  0  0  0  0  0  0  0  0  0
  -24.5224  -27.2549   15.7763 N   0  0  0  0  0  0  0  0  0  0  0  0
  -30.0031  -13.4610   20.5406 N   0  0  0  0  0  0  0  0  0  0  0  0
  -25.5417  -15.0386   20.5211 N   0  0  0  0  0  0  0  0  0  0  0  0
  -21.8759  -12.6440   21.6275 N   0  0  0  0  0  0  0  0  0  0  0  0
  -24.9064  -28.8344   19.0403 N   0  0  0  0  0  0  0  0  0  0  0  0
  -23.7476  -27.3767   12.4834 N   0  0  0  0  0  0  0  0  0  0  0  0
  -31.9699  -14.8234   20.6526 N   0  0  0  0  0  0  0  0  0  0  0  0
  -25.8400  -25.3842   10.3109 N   0  3  0  0  0  0  0  0  0  0  0  0
  -22.7127  -14.7661   21.3927 O   0  0  0  0  0  0  0  0  0  0  0  0
  -23.1617  -27.8428   17.8592 O   0  0  0  0  0  0  0  0  0  0  0  0
  -24.3530  -29.2435   14.5708 O   0  0  0  0  0  0  0  0  0  0  0  0
  -23.9314  -25.0687   12.3539 O   0  0  0  0  0  0  0  0  0  0  0  0
  -29.8841  -15.6926   21.1014 O   0  0  0  0  0  0  0  0  0  0  0  0
  -21.4507   -7.0894   21.6401 O   0  0  0  0  0  0  0  0  0  0  0  0
  -25.1555  -21.5587   18.0577 O   0  0  0  0  0  0  0  0  0  1  0  0
  -23.7346   -2.9254   24.4418 F   0  0  0  0  0  0  0  0  0  0  0  0
  -20.3504   -6.2076   24.0180 F   0  0  0  0  0  0  0  0  0  0  0  0
  1  2  1  0  0  0  0
  1  5  2  0  0  0  0
  2  6  2  0  0  0  0
  3  8  2  0  0  0  0
  3 16  1  0  0  0  0
  4  9  1  0  0  0  0
  4 16  2  0  0  0  0
  5 18  1  0  0  0  0
  6 20  1  0  0  0  0
  7 10  2  0  0  0  0
  7 19  1  0  0  0  0
  8 22  1  0  0  0  0
  9 22  2  0  0  0  0
 10 23  1  0  0  0  0
 11 12  2  0  0  0  0
 11 24  1  0  0  0  0
 12 25  1  0  0  0  0
 13 21  1  0  0  0  0
 13 23  2  0  0  0  0
 14 25  2  0  0  0  0
 14 26  1  0  0  0  0
 15 28  2  0  0  0  0
 15 74  1  0  0  0  0
 16 27  1  0  0  0  0
 17 27  1  0  0  0  0
 17 29  2  0  0  0  0
 17 31  1  0  0  0  0
 18 20  2  0  0  0  0
 18 36  1  0  0  0  0
 19 21  2  0  0  0  0
 19 37  1  0  0  0  0
 20 45  1  0  0  0  0
 21 38  1  0  0  0  0
 22 88  1  0  0  0  0
 23 89  1  0  0  0  0
 24 26  2  0  0  0  0
 24 88  1  0  0  0  0
 25 90  1  0  0  0  0
 26 91  1  0  0  0  0
 27 71  2  0  0  0  0
 28 65  1  0  0  0  0
 28 72  1  0  0  0  0
 29 73  1  0  0  0  0
 29 77  1  0  0  0  0
 30 68  1  0  0  0  0
 30 72  1  0  0  0  0
 30 74  2  0  0  0  0
 31 78  1  0  0  0  0
 31 83  2  0  0  0  0
 32 46  1  0  0  0  0
 32 79  1  0  0  0  0
 32 84  2  0  0  0  0
 33 66  1  0  0  0  0
 33 75  1  0  0  0  0
 33 85  2  0  0  0  0
 34 67  1  0  0  0  0
 34 80  1  0  0  0  0
 34 86  2  0  0  0  0
 35 76  1  0  0  0  0
 35 81  1  0  0  0  0
 35 87  2  0  0  0  0
 36 39  1  0  0  0  0
 37 46  1  0  0  0  0
 38 75  1  0  0  0  0
 39 41  1  0  0  0  0
 40 42  1  0  0  0  0
 40 43  1  0  0  0  0
 41 45  1  0  0  0  0
 42 47  1  0  0  0  0
 43 76  1  0  0  0  0
 44 47  1  0  0  0  0
 44 76  1  0  0  0  0
 45 79  1  0  0  0  0
 46 75  1  0  0  0  0
 47 73  1  0  0  0  0
 48 60  1  0  0  0  0
 49 62  1  0  0  0  0
 50 67  1  0  0  0  0
 51 68  1  0  0  0  0
 52 68  1  0  0  0  0
 53 69  1  0  0  0  0
 54 69  1  0  0  0  0
 55 69  1  0  0  0  0
 56 70  1  0  0  0  0
 57 70  1  0  0  0  0
 58 81  1  0  0  0  0
 59 82  1  0  0  0  0
 60 65  1  0  0  0  0
 61 64  1  0  0  0  0
 61 70  1  0  0  0  0
 62 72  1  0  0  0  0
 63 68  1  0  0  0  0
 63 81  1  0  0  0  0
 64 89  1  0  0  0  0
 65 70  1  0  0  0  0
 66 69  1  0  0  0  0
 66 80  1  0  0  0  0
 67 82  1  0  0  0  0
 71 73  1  0  0  0  0
M  CHG  2  74   1  82   1
M  ISO  4  35 100  64 101  81 100  89 101
M  END
> <Batch ID>
0065

> <Smiles>
CCC(c1cnc(C(C)(C)C[100N:0](C)[100C:0](=O)N2CCCC(n3nc(-c4ccc(Oc5ccc(F)cc5F)cc4)c(C(N)=O)c3N)C2)n1CC)C(C)(C)C[101CH2:1][101O:1]c1ccc2c(c1)CN(C(=O)C(NC(=O)C(C)NC)C(C)(C)C)C(C(=O)NC1CCCc3ccccc31)C2

> <Shape>
0.240

> <Color>
0.181

> <Negative vol penalty>
0.000

$$$$

  -OEChem-04052318073D

 83 91  0     1  0  0  0  0  0999 V2000
  -17.5875  -26.1153   22.7769 C   0  0  0  0  0  0  0  0  0  0  0  0
  -18.8517  -25.7795   22.3032 C   0  0  0  0  0  0  0  0  0  0  0  0
  -28.4516  -13.1868   23.3565 C   0  0  0  0  0  0  0  0  0  0  0  0
  -27.1074  -13.2237   21.3493 C   0  0  0  0  0  0  0  0  0  0  0  0
  -17.1840  -27.4497   22.7981 C   0  0  0  0  0  0  0  0  0  0  0  0
  -19.7128  -26.7780   21.8493 C   0  0  0  0  0  0  0  0  0  0  0  0
  -25.8127  -26.9002   22.3808 C   0  0  0  0  0  0  0  0  0  0  0  0
  -27.8288  -12.0030   23.7519 C   0  0  0  0  0  0  0  0  0  0  0  0
  -26.4845  -12.0399   21.7447 C   0  0  0  0  0  0  0  0  0  0  0  0
  -26.8381  -26.5725   21.4950 C   0  0  0  0  0  0  0  0  0  0  0  0
  -27.1919   -8.7353   21.7466 C   0  0  0  0  0  0  0  0  0  0  0  0
  -27.0302   -7.7375   20.7855 C   0  0  0  0  0  0  0  0  0  0  0  0
  -27.0283  -28.8936   20.8659 C   0  0  0  0  0  0  0  0  0  0  0  0
  -24.6350   -7.8357   21.0867 C   0  0  0  0  0  0  0  0  0  0  0  0
  -27.5283  -23.7696   17.9992 C   0  0  0  0  0  0  0  0  0  0  0  0
  -28.8505  -23.6606   20.3159 C   0  0  0  0  0  0  0  0  0  0  0  0
  -28.0909  -13.7971   22.1552 C   0  0  0  0  0  0  0  0  0  0  0  0
  -29.8993  -15.1490   20.9679 C   0  0  0  0  0  0  0  0  0  0  0  0
  -18.0442  -28.4660   22.3533 C   0  0  0  0  0  0  0  0  0  0  0  0
  -25.3791  -28.2278   22.5081 C   0  0  0  0  0  0  0  0  0  0  0  0
  -19.3200  -28.1271   21.8633 C   0  0  0  0  0  0  0  0  0  0  0  0
  -25.9989  -29.2359   21.7560 C   0  0  0  0  0  0  0  0  0  0  0  0
  -26.8452  -11.4295   22.9460 C   0  0  0  0  0  0  0  0  0  0  0  0
  -27.4442  -27.5688   20.7352 C   0  0  0  0  0  0  0  0  0  0  0  0
  -26.0752   -9.2832   22.3779 C   0  0  0  0  0  0  0  0  0  0  0  0
  -25.7518   -7.2877   20.4555 C   0  0  0  0  0  0  0  0  0  0  0  0
  -24.7968   -8.8334   22.0479 C   0  0  0  0  0  0  0  0  0  0  0  0
  -28.7335  -15.0203   21.7465 C   0  0  0  0  0  0  0  0  0  0  0  0
  -27.6879  -22.5778   18.6711 C   0  0  0  0  0  0  0  0  0  0  0  0
  -28.6915  -24.8524   19.6437 C   0  0  0  0  0  0  0  0  0  0  0  0
  -30.0933  -16.5046   20.8618 C   0  0  0  0  0  0  0  0  0  0  0  0
  -30.7322  -14.1341   20.3919 C   0  0  0  0  0  0  0  0  0  0  0  0
  -22.6365  -29.7507   21.9960 C   0  0  0  0  0  0  0  0  0  0  0  0
  -24.2317  -32.2534   23.3053 C   0  0  0  0  0  0  0  0  0  0  0  0
  -27.2257  -33.7360   24.0013 C   0  0  0  0  0  0  0  0  0  0  0  0
  -25.9833  -21.0016   21.5120 C   0  0  0  0  0  0  0  0  0  0  0  0
  -17.5461  -29.8895   22.3512 C   0  0  0  0  0  0  0  0  0  0  0  0
  -24.2899  -28.5687   23.4877 C   0  0  0  0  0  0  0  0  0  0  0  0
  -25.5841  -30.6793   21.8705 C   0  0  0  0  0  0  0  0  0  0  0  0
  -18.6587  -30.9240   22.2023 C   0  0  0  0  0  0  0  0  0  0  0  0
  -29.2707  -20.6087   23.1672 C   0  0  0  0  0  0  0  0  0  0  0  0
  -19.6123  -30.5246   21.0807 C   0  0  0  0  0  0  0  0  0  0  0  0
  -29.5620  -19.1207   22.9803 C   0  0  0  0  0  0  0  0  0  0  0  0
  -27.7723  -20.8925   23.2087 C   0  0  0  0  0  0  0  0  0  0  0  0
  -27.3184  -18.8804   21.8450 C   0  0  0  0  0  0  0  0  0  0  0  0
  -20.2919  -29.1841   21.3856 C   0  0  1  0  0  0  0  0  0  0  0  0
  -23.5791  -29.8780   23.1591 C   0  0  1  0  0  0  0  0  0  0  0  0
  -28.8191  -18.5662   21.7523 C   0  0  2  0  0  0  0  0  0  0  0  0
  -30.6776  -26.4000   19.7025 C   0  0  0  0  0  0  0  0  0  0  0  0
  -28.2085  -35.7950   25.0464 C   0  0  0  0  0  0  0  0  0  0  0  0
  -26.1436  -19.0212   18.5767 C   0  0  0  0  0  0  0  0  0  0  0  0
  -23.4815  -33.8667   20.8265 C   0  0  0  0  0  0  0  0  0  0  0  0
  -25.2381  -35.5327   21.4646 C   0  0  0  0  0  0  0  0  0  0  0  0
  -23.3012  -35.1218   22.9821 C   0  0  0  0  0  0  0  0  0  0  0  0
  -24.6332  -21.5601   19.5258 C   0  0  0  0  0  0  0  0  0  0  0  0
  -28.6494  -32.1536   26.0576 C   0  0  0  0  0  0  0  0  0  0  0  0
  -27.1230  -21.3165   18.1177 C   0  0  0  0  0  0  0  0  0  0  0  0
  -29.2647  -26.1331   20.2058 C   0  0  1  0  0  0  0  0  0  1  0  0
  -25.1046  -33.3626   22.7700 C   0  0  1  0  0  0  0  0  0  0  0  0
  -27.7703  -34.3568   25.2751 C   0  0  2  0  0  0  0  0  0  0  0  0
  -26.7216  -20.2882   19.1992 C   0  0  1  0  0  0  0  0  0  0  0  0
  -24.2881  -34.4436   22.0070 C   0  0  0  0  0  0  0  0  0  0  0  0
  -28.3516  -22.5019   19.8416 N   0  0  0  0  0  0  0  0  0  0  0  0
  -28.0275  -24.9283   18.4733 N   0  0  0  0  0  0  0  0  0  0  0  0
  -28.2230  -16.2000   22.1095 N   0  0  0  0  0  0  0  0  0  0  0  0
  -29.0720  -17.0829   21.5566 N   0  0  0  0  0  0  0  0  0  0  0  0
  -24.5103  -30.9614   22.8374 N   0  0  0  0  0  0  0  0  0  0  0  0
  -27.0846  -20.3174   22.0522 N   0  0  0  0  0  0  0  0  0  0  0  0
  -31.0363  -17.2464   20.2430 N   0  0  0  0  0  0  0  0  0  0  0  0
  -30.3885  -12.7911   20.5983 N   0  0  0  0  0  0  0  0  0  0  0  0
  -21.3572  -29.3649   22.3483 N   0  0  0  0  0  0  0  0  0  0  0  0
  -25.8570  -33.8760   23.9097 N   0  0  0  0  0  0  0  0  0  0  0  0
  -25.7559  -20.8609   20.1346 N   0  0  0  0  0  0  0  0  0  0  0  0
  -28.9430  -33.5810   25.7690 N   0  3  0  0  0  0  0  0  0  0  0  0
  -31.7602  -14.4096   19.7281 O   0  0  0  0  0  0  0  0  0  0  0  0
  -23.0395  -29.9864   20.8630 O   0  0  0  0  0  0  0  0  0  0  0  0
  -23.3402  -32.5223   24.1143 O   0  0  0  0  0  0  0  0  0  0  0  0
  -27.9431  -33.1856   23.1690 O   0  0  0  0  0  0  0  0  0  0  0  0
  -25.2510  -21.7061   22.2186 O   0  0  0  0  0  0  0  0  0  0  0  0
  -26.2374  -10.2743   23.3314 O   0  0  0  0  0  0  0  0  0  0  0  0
  -28.4449  -27.2516   19.8693 O   0  0  0  0  0  0  0  0  0  1  0  0
  -25.5965   -6.3307   19.5313 F   0  0  0  0  0  0  0  0  0  0  0  0
  -23.7201   -9.3568   22.6501 F   0  0  0  0  0  0  0  0  0  0  0  0
  1  2  1  0  0  0  0
  1  5  2  0  0  0  0
  2  6  2  0  0  0  0
  3  8  2  0  0  0  0
  3 17  1  0  0  0  0
  4  9  1  0  0  0  0
  4 17  2  0  0  0  0
  5 19  1  0  0  0  0
  6 21  1  0  0  0  0
  7 10  2  0  0  0  0
  7 20  1  0  0  0  0
  8 23  1  0  0  0  0
  9 23  2  0  0  0  0
 10 24  1  0  0  0  0
 11 12  2  0  0  0  0
 11 25  1  0  0  0  0
 12 26  1  0  0  0  0
 13 22  1  0  0  0  0
 13 24  2  0  0  0  0
 14 26  2  0  0  0  0
 14 27  1  0  0  0  0
 15 29  2  0  0  0  0
 15 64  1  0  0  0  0
 16 30  1  0  0  0  0
 16 63  2  0  0  0  0
 17 28  1  0  0  0  0
 18 28  1  0  0  0  0
 18 31  2  0  0  0  0
 18 32  1  0  0  0  0
 19 21  2  0  0  0  0
 19 37  1  0  0  0  0
 20 22  2  0  0  0  0
 20 38  1  0  0  0  0
 21 46  1  0  0  0  0
 22 39  1  0  0  0  0
 23 80  1  0  0  0  0
 24 81  1  0  0  0  0
 25 27  2  0  0  0  0
 25 80  1  0  0  0  0
 26 82  1  0  0  0  0
 27 83  1  0  0  0  0
 28 65  2  0  0  0  0
 29 57  1  0  0  0  0
 29 63  1  0  0  0  0
 30 58  1  0  0  0  0
 30 64  2  0  0  0  0
 31 66  1  0  0  0  0
 31 69  1  0  0  0  0
 32 70  1  0  0  0  0
 32 75  2  0  0  0  0
 33 47  1  0  0  0  0
 33 71  1  0  0  0  0
 33 76  2  0  0  0  0
 34 59  1  0  0  0  0
 34 67  1  0  0  0  0
 34 77  2  0  0  0  0
 35 60  1  0  0  0  0
 35 72  1  0  0  0  0
 35 78  2  0  0  0  0
 36 68  1  0  0  0  0
 36 73  1  0  0  0  0
 36 79  2  0  0  0  0
 37 40  1  0  0  0  0
 38 47  1  0  0  0  0
 39 67  1  0  0  0  0
 40 42  1  0  0  0  0
 41 43  1  0  0  0  0
 41 44  1  0  0  0  0
 42 46  1  0  0  0  0
 43 48  1  0  0  0  0
 44 68  1  0  0  0  0
 45 48  1  0  0  0  0
 45 68  1  0  0  0  0
 46 71  1  0  0  0  0
 47 67  1  0  0  0  0
 48 66  1  0  0  0  0
 49 58  1  0  0  0  0
 50 60  1  0  0  0  0
 51 61  1  0  0  0  0
 52 62  1  0  0  0  0
 53 62  1  0  0  0  0
 54 62  1  0  0  0  0
 55 73  1  0  0  0  0
 56 74  1  0  0  0  0
 57 61  1  0  0  0  0
 58 81  1  0  0  0  0
 59 62  1  0  0  0  0
 59 72  1  0  0  0  0
 60 74  1  0  0  0  0
 61 73  1  0  0  0  0
 65 66  1  0  0  0  0
M  CHG  1  74   1
M  ISO  4  36 100  58 101  73 100  81 101
M  END
> <Batch ID>
0065

> <Smiles>
CNC(C)C(=O)NC(C(=O)N1Cc2cc([101O:1][101CH:1](C)c3cnc(CC(C)[100N:0](C)[100C:0](=O)N4CCCC(n5nc(-c6ccc(Oc7ccc(F)cc7F)cc6)c(C(N)=O)c5N)C4)cn3)ccc2CC1C(=O)NC1CCCc2ccccc21)C(C)(C)C

> <Shape>
0.273

> <Color>
0.108

> <Negative vol penalty>
0.000

$$$$

  -OEChem-04052318073D

 85 93  0     1  0  0  0  0  0999 V2000
  -30.6230  -34.3274   17.7637 C   0  0  0  0  0  0  0  0  0  0  0  0
  -30.7171  -32.9467   17.9062 C   0  0  0  0  0  0  0  0  0  0  0  0
  -24.3327  -15.3643   23.2319 C   0  0  0  0  0  0  0  0  0  0  0  0
  -23.5143  -16.0767   21.0733 C   0  0  0  0  0  0  0  0  0  0  0  0
  -29.8196  -35.0636   18.6335 C   0  0  0  0  0  0  0  0  0  0  0  0
  -30.0087  -32.3016   18.9193 C   0  0  0  0  0  0  0  0  0  0  0  0
  -27.4784  -26.7302   18.6692 C   0  0  0  0  0  0  0  0  0  0  0  0
  -23.7471  -16.4836   23.8234 C   0  0  0  0  0  0  0  0  0  0  0  0
  -22.9287  -17.1961   21.6647 C   0  0  0  0  0  0  0  0  0  0  0  0
  -27.9084  -25.4835   19.1216 C   0  0  0  0  0  0  0  0  0  0  0  0
  -23.9218  -20.2261   22.7888 C   0  0  0  0  0  0  0  0  0  0  0  0
  -24.0908  -21.4570   22.1548 C   0  0  0  0  0  0  0  0  0  0  0  0
  -26.6208  -25.7785   21.1400 C   0  0  0  0  0  0  0  0  0  0  0  0
  -21.6954  -21.6630   21.9163 C   0  0  0  0  0  0  0  0  0  0  0  0
  -29.5210  -17.3957   18.8118 C   0  0  0  0  0  0  0  0  0  0  0  0
  -24.2163  -15.1608   21.8569 C   0  0  0  0  0  0  0  0  0  0  0  0
  -24.2338  -12.7407   21.0505 C   0  0  0  0  0  0  0  0  0  0  0  0
  -29.0934  -34.4261   19.6517 C   0  0  0  0  0  0  0  0  0  0  0  0
  -26.6236  -27.5164   19.4550 C   0  0  0  0  0  0  0  0  0  0  0  0
  -29.1959  -33.0301   19.8043 C   0  0  0  0  0  0  0  0  0  0  0  0
  -26.1794  -27.0337   20.6942 C   0  0  0  0  0  0  0  0  0  0  0  0
  -28.2123  -17.8020   18.9747 C   0  0  0  0  0  0  0  0  0  0  0  0
  -23.0452  -17.3995   23.0398 C   0  0  0  0  0  0  0  0  0  0  0  0
  -27.4820  -25.0088   20.3584 C   0  0  0  0  0  0  0  0  0  0  0  0
  -22.6396  -19.7136   22.9864 C   0  0  0  0  0  0  0  0  0  0  0  0
  -22.9776  -22.1755   21.7186 C   0  0  0  0  0  0  0  0  0  0  0  0
  -21.5264  -20.4320   22.5502 C   0  0  0  0  0  0  0  0  0  0  0  0
  -24.8214  -14.0051   21.2452 C   0  0  0  0  0  0  0  0  0  0  0  0
  -27.2782  -17.1241   18.2185 C   0  0  0  0  0  0  0  0  0  0  0  0
  -25.2116  -11.9989   20.4340 C   0  0  0  0  0  0  0  0  0  0  0  0
  -28.8964  -15.8212   17.2960 C   0  0  0  0  0  0  0  0  0  0  0  0
  -22.9214  -12.2781   21.3959 C   0  0  0  0  0  0  0  0  0  0  0  0
  -26.8335  -30.3779   20.8231 C   0  0  0  0  0  0  0  0  0  0  0  0
  -23.7152  -29.8359   21.5332 C   0  0  0  0  0  0  0  0  0  0  0  0
  -29.9502  -13.5885   17.0977 C   0  0  0  0  0  0  0  0  0  0  0  0
  -21.2087  -27.5748   22.0348 C   0  0  0  0  0  0  0  0  0  0  0  0
  -28.2753  -35.2695   20.5972 C   0  0  0  0  0  0  0  0  0  0  0  0
  -26.1474  -28.8474   18.9409 C   0  0  0  0  0  0  0  0  0  0  0  0
  -25.2454  -27.8302   21.5670 C   0  0  0  0  0  0  0  0  0  0  0  0
  -27.2632  -34.4660   21.4098 C   0  0  0  0  0  0  0  0  0  0  0  0
  -29.9589  -11.6030   20.0805 C   0  0  0  0  0  0  0  0  0  0  0  0
  -27.9162  -33.2152   21.9892 C   0  0  0  0  0  0  0  0  0  0  0  0
  -28.6006  -11.9010   20.7141 C   0  0  0  0  0  0  0  0  0  0  0  0
  -30.5296  -12.8317   19.3793 C   0  0  0  0  0  0  0  0  0  0  0  0
  -28.2562  -13.7272   18.9904 C   0  0  0  0  0  0  0  0  0  0  0  0
  -28.4233  -32.2912   20.8754 C   0  0  1  0  0  0  0  0  0  0  0  0
  -25.6877  -29.7871   20.0513 C   0  0  1  0  0  0  0  0  0  0  0  0
  -27.6301  -12.5039   19.6831 C   0  0  2  0  0  0  0  0  0  0  0  0
  -24.9348  -16.4294   17.6594 C   0  0  0  0  0  0  0  0  0  0  0  0
  -18.7774  -27.4309   22.6394 C   0  0  0  0  0  0  0  0  0  0  0  0
  -30.2680  -15.2258   15.2819 C   0  0  0  0  0  0  0  0  0  0  0  0
  -28.1032  -14.0264   15.6118 C   0  0  0  0  0  0  0  0  0  0  0  0
  -24.4084  -30.4126   24.4481 C   0  0  0  0  0  0  0  0  0  0  0  0
  -22.2388  -29.3480   25.1021 C   0  0  0  0  0  0  0  0  0  0  0  0
  -22.2418  -31.3953   23.6770 C   0  0  0  0  0  0  0  0  0  0  0  0
  -20.5263  -26.2800   19.4625 C   0  0  0  0  0  0  0  0  0  0  0  0
  -27.8535  -18.9176   19.9238 C   0  0  0  0  0  0  0  0  0  0  0  0
  -25.8306  -17.4777   18.3127 C   0  0  0  0  0  0  0  0  0  0  0  0
  -28.1826  -20.3156   19.3887 C   0  0  0  0  0  0  0  0  0  0  0  0
  -27.8833  -21.4276   20.3950 C   0  0  0  0  0  0  0  0  0  0  0  0
  -28.1848  -22.8028   19.8148 C   0  0  0  0  0  0  0  0  0  1  0  0
  -22.9766  -29.1908   22.6810 C   0  0  1  0  0  0  0  0  0  0  0  0
  -19.7873  -27.5126   21.5054 C   0  0  2  0  0  0  0  0  0  0  0  0
  -29.2760  -14.7205   16.3641 C   0  0  0  0  0  0  0  0  0  0  0  0
  -22.9855  -30.0723   23.9617 C   0  0  0  0  0  0  0  0  0  0  0  0
  -29.9000  -16.4050   17.9780 N   0  0  0  0  0  0  0  0  0  0  0  0
  -26.0754  -14.0665   20.7896 N   0  0  0  0  0  0  0  0  0  0  0  0
  -27.5862  -16.1249   17.3657 N   0  0  0  0  0  0  0  0  0  0  0  0
  -26.2838  -12.8315   20.3024 N   0  0  0  0  0  0  0  0  0  0  0  0
  -24.8128  -29.1282   21.0232 N   0  0  0  0  0  0  0  0  0  0  0  0
  -29.5692  -13.3878   18.4245 N   0  0  0  0  0  0  0  0  0  0  0  0
  -25.2503  -10.7222   19.9972 N   0  0  0  0  0  0  0  0  0  0  0  0
  -22.0424  -13.1706   22.0245 N   0  0  0  0  0  0  0  0  0  0  0  0
  -27.3237  -31.5547   20.2899 N   0  0  0  0  0  0  0  0  0  0  0  0
  -21.6424  -28.8753   22.1820 N   0  0  0  0  0  0  0  0  0  0  0  0
  -19.6115  -26.3176   20.6324 N   0  3  0  0  0  0  0  0  0  0  0  0
  -22.5451  -11.1032   21.1690 O   0  0  0  0  0  0  0  0  0  0  0  0
  -27.2417  -29.8090   21.8288 O   0  0  0  0  0  0  0  0  0  0  0  0
  -23.3280  -30.9241   21.1003 O   0  0  0  0  0  0  0  0  0  0  0  0
  -30.7879  -12.9023   16.5064 O   0  0  0  0  0  0  0  0  0  0  0  0
  -21.8669  -26.5702   22.2956 O   0  0  0  0  0  0  0  0  0  0  0  0
  -22.4735  -18.4918   23.6166 O   0  0  0  0  0  0  0  0  0  0  0  0
  -27.9008  -23.7925   20.8027 O   0  0  0  0  0  0  0  0  0  1  0  0
  -23.1399  -23.3583   21.1112 F   0  0  0  0  0  0  0  0  0  0  0  0
  -20.2921  -19.9453   22.7383 F   0  0  0  0  0  0  0  0  0  0  0  0
  1  2  1  0  0  0  0
  1  5  2  0  0  0  0
  2  6  2  0  0  0  0
  3  8  2  0  0  0  0
  3 16  1  0  0  0  0
  4  9  1  0  0  0  0
  4 16  2  0  0  0  0
  5 18  1  0  0  0  0
  6 20  1  0  0  0  0
  7 10  2  0  0  0  0
  7 19  1  0  0  0  0
  8 23  1  0  0  0  0
  9 23  2  0  0  0  0
 10 24  1  0  0  0  0
 11 12  2  0  0  0  0
 11 25  1  0  0  0  0
 12 26  1  0  0  0  0
 13 21  1  0  0  0  0
 13 24  2  0  0  0  0
 14 26  2  0  0  0  0
 14 27  1  0  0  0  0
 15 22  1  0  0  0  0
 15 66  2  0  0  0  0
 16 28  1  0  0  0  0
 17 28  1  0  0  0  0
 17 30  2  0  0  0  0
 17 32  1  0  0  0  0
 18 20  2  0  0  0  0
 18 37  1  0  0  0  0
 19 21  2  0  0  0  0
 19 38  1  0  0  0  0
 20 46  1  0  0  0  0
 21 39  1  0  0  0  0
 22 29  2  0  0  0  0
 22 57  1  0  0  0  0
 23 82  1  0  0  0  0
 24 83  1  0  0  0  0
 25 27  2  0  0  0  0
 25 82  1  0  0  0  0
 26 84  1  0  0  0  0
 27 85  1  0  0  0  0
 28 67  2  0  0  0  0
 29 58  1  0  0  0  0
 29 68  1  0  0  0  0
 30 69  1  0  0  0  0
 30 72  1  0  0  0  0
 31 64  1  0  0  0  0
 31 66  1  0  0  0  0
 31 68  2  0  0  0  0
 32 73  1  0  0  0  0
 32 77  2  0  0  0  0
 33 47  1  0  0  0  0
 33 74  1  0  0  0  0
 33 78  2  0  0  0  0
 34 62  1  0  0  0  0
 34 70  1  0  0  0  0
 34 79  2  0  0  0  0
 35 64  1  0  0  0  0
 35 71  1  0  0  0  0
 35 80  2  0  0  0  0
 36 63  1  0  0  0  0
 36 75  1  0  0  0  0
 36 81  2  0  0  0  0
 37 40  1  0  0  0  0
 38 47  1  0  0  0  0
 39 70  1  0  0  0  0
 40 42  1  0  0  0  0
 41 43  1  0  0  0  0
 41 44  1  0  0  0  0
 42 46  1  0  0  0  0
 43 48  1  0  0  0  0
 44 71  1  0  0  0  0
 45 48  1  0  0  0  0
 45 71  1  0  0  0  0
 46 74  1  0  0  0  0
 47 70  1  0  0  0  0
 48 69  1  0  0  0  0
 49 58  1  0  0  0  0
 50 63  1  0  0  0  0
 51 64  1  0  0  0  0
 52 64  1  0  0  0  0
 53 65  1  0  0  0  0
 54 65  1  0  0  0  0
 55 65  1  0  0  0  0
 56 76  1  0  0  0  0
 57 59  1  0  0  0  0
 59 60  1  0  0  0  0
 60 61  1  0  0  0  0
 61 83  1  0  0  0  0
 62 65  1  0  0  0  0
 62 75  1  0  0  0  0
 63 76  1  0  0  0  0
 67 69  1  0  0  0  0
M  CHG  1  76   1
M  ISO  4  35 100  61 101  64 100  83 101
M  END
> <Batch ID>
0065

> <Smiles>
CCc1nc([100C:0](C)(C)[100C:0](=O)N2CCCC(n3nc(-c4ccc(Oc5ccc(F)cc5F)cc4)c(C(N)=O)c3N)C2)ncc1CCC[101CH2:1][101O:1]c1ccc2c(c1)CN(C(=O)C(NC(=O)C(C)NC)C(C)(C)C)C(C(=O)NC1CCCc3ccccc31)C2

> <Shape>
0.243

> <Color>
0.088

> <Negative vol penalty>
0.000

$$$$

  -OEChem-04052318073D

 86 95  0     1  0  0  0  0  0999 V2000
  -31.8631  -12.8061   21.6852 C   0  0  0  0  0  0  0  0  0  0  0  0
  -31.3711  -14.1047   21.6015 C   0  0  0  0  0  0  0  0  0  0  0  0
  -25.6745  -29.8404   22.1206 C   0  0  0  0  0  0  0  0  0  0  0  0
  -23.7728  -30.4246   20.7497 C   0  0  0  0  0  0  0  0  0  0  0  0
  -31.1570  -11.7554   21.1008 C   0  0  0  0  0  0  0  0  0  0  0  0
  -30.1732  -14.3535   20.9324 C   0  0  0  0  0  0  0  0  0  0  0  0
  -27.1328  -17.4908   23.4933 C   0  0  0  0  0  0  0  0  0  0  0  0
  -25.2767  -30.7790   23.0725 C   0  0  0  0  0  0  0  0  0  0  0  0
  -23.3749  -31.3632   21.7017 C   0  0  0  0  0  0  0  0  0  0  0  0
  -27.4345  -18.8511   23.4441 C   0  0  0  0  0  0  0  0  0  0  0  0
  -25.4405  -34.1296   23.4861 C   0  0  0  0  0  0  0  0  0  0  0  0
  -26.4211  -34.9654   24.0203 C   0  0  0  0  0  0  0  0  0  0  0  0
  -25.7291  -19.1624   21.7666 C   0  0  0  0  0  0  0  0  0  0  0  0
  -29.3067  -23.1171   20.6117 C   0  0  0  0  0  0  0  0  0  0  0  0
  -25.9429  -34.1139   26.2302 C   0  0  0  0  0  0  0  0  0  0  0  0
  -30.9286  -24.7266   17.4427 C   0  0  0  0  0  0  0  0  0  0  0  0
  -24.9226  -29.6632   20.9591 C   0  0  0  0  0  0  0  0  0  0  0  0
  -24.9623  -27.3376   19.9114 C   0  0  0  0  0  0  0  0  0  0  0  0
  -29.9450  -11.9901   20.4326 C   0  0  0  0  0  0  0  0  0  0  0  0
  -26.1328  -16.9533   22.6703 C   0  0  0  0  0  0  0  0  0  0  0  0
  -29.4510  -13.3051   20.3374 C   0  0  0  0  0  0  0  0  0  0  0  0
  -25.4149  -17.7954   21.8092 C   0  0  0  0  0  0  0  0  0  0  0  0
  -28.3341  -22.7614   21.5296 C   0  0  0  0  0  0  0  0  0  0  0  0
  -24.1269  -31.5405   22.8631 C   0  0  0  0  0  0  0  0  0  0  0  0
  -26.7346  -19.6866   22.5786 C   0  0  0  0  0  0  0  0  0  0  0  0
  -24.7110  -33.2860   24.3239 C   0  0  0  0  0  0  0  0  0  0  0  0
  -26.6724  -34.9575   25.3924 C   0  0  0  0  0  0  0  0  0  0  0  0
  -24.9622  -33.2782   25.6959 C   0  0  0  0  0  0  0  0  0  0  0  0
  -25.3333  -28.6941   19.9751 C   0  0  0  0  0  0  0  0  0  0  0  0
  -30.1420  -25.1773   16.4108 C   0  0  0  0  0  0  0  0  0  0  0  0
  -29.8748  -22.1150   19.8512 C   0  0  0  0  0  0  0  0  0  0  0  0
  -30.4186  -23.4491   17.7420 C   0  0  0  0  0  0  0  0  0  0  0  0
  -27.9940  -21.4270   21.6261 C   0  0  0  0  0  0  0  0  0  1  0  0
  -25.6129  -26.8554   18.8020 C   0  0  0  0  0  0  0  0  0  0  0  0
  -24.1061  -26.5810   20.7775 C   0  0  0  0  0  0  0  0  0  0  0  0
  -30.2147  -26.4558   15.6919 C   0  0  0  0  0  0  0  0  0  0  0  0
  -26.0646  -14.7833   20.3486 C   0  0  0  0  0  0  0  0  0  0  0  0
  -22.8599  -15.2479   20.5400 C   0  0  0  0  0  0  0  0  0  0  0  0
  -20.2771  -17.2990   21.4167 C   0  0  0  0  0  0  0  0  0  0  0  0
  -29.2415  -10.8289   19.7758 C   0  0  0  0  0  0  0  0  0  0  0  0
  -25.8012  -15.4886   22.7547 C   0  0  0  0  0  0  0  0  0  0  0  0
  -24.3183  -17.2714   20.9196 C   0  0  0  0  0  0  0  0  0  0  0  0
  -27.7898  -11.1253   19.4082 C   0  0  0  0  0  0  0  0  0  0  0  0
  -28.0946  -29.2690   15.1150 C   0  0  0  0  0  0  0  0  0  0  0  0
  -27.6804  -12.4800   18.7157 C   0  0  0  0  0  0  0  0  0  0  0  0
  -27.1675  -29.2732   16.3319 C   0  0  0  0  0  0  0  0  0  0  0  0
  -29.5048  -28.8142   15.4824 C   0  0  0  0  0  0  0  0  0  0  0  0
  -28.6394  -27.5114   17.3952 C   0  0  0  0  0  0  0  0  0  0  0  0
  -28.1426  -13.6117   19.6415 C   0  0  1  0  0  0  0  0  0  0  0  0
  -25.1148  -14.9581   21.4997 C   0  0  1  0  0  0  0  0  0  0  0  0
  -27.1946  -27.9152   17.0583 C   0  0  1  0  0  0  0  0  0  0  0  0
  -27.6869  -23.8004   22.3776 C   0  0  0  0  0  0  0  0  0  0  0  0
  -17.7705  -17.4193   21.4189 C   0  0  0  0  0  0  0  0  0  0  0  0
  -31.5065  -21.2164   18.0422 C   0  0  0  0  0  0  0  0  0  0  0  0
  -32.1917  -23.0215   19.5900 C   0  0  0  0  0  0  0  0  0  0  0  0
  -22.8859  -15.7936   17.5381 C   0  0  0  0  0  0  0  0  0  0  0  0
  -20.6117  -16.8137   17.7744 C   0  0  0  0  0  0  0  0  0  0  0  0
  -20.9610  -14.4070   18.3298 C   0  0  0  0  0  0  0  0  0  0  0  0
  -28.2007  -24.1812   15.1650 C   0  0  0  0  0  0  0  0  0  0  0  0
  -20.1757  -17.5436   24.3644 C   0  0  0  0  0  0  0  0  0  0  0  0
  -21.8739  -16.1822   19.8814 C   0  0  1  0  0  0  0  0  0  0  0  0
  -19.0108  -17.0402   22.2130 C   0  0  2  0  0  0  0  0  0  0  0  0
  -30.9285  -22.4450   18.8500 C   0  0  0  0  0  0  0  0  0  0  0  0
  -21.6051  -15.8090   18.3962 C   0  0  0  0  0  0  0  0  0  0  0  0
  -26.1559  -29.0507   18.9851 N   0  0  0  0  0  0  0  0  0  0  0  0
  -29.5224  -20.8170   19.9668 N   0  0  0  0  0  0  0  0  0  0  0  0
  -29.3878  -23.1099   16.9633 N   0  0  0  0  0  0  0  0  0  0  0  0
  -28.5666  -20.4674   20.8689 N   0  0  0  0  0  0  0  0  0  0  0  0
  -29.2436  -24.1810   16.1644 N   0  0  0  0  0  0  0  0  0  0  0  0
  -26.3073  -27.9112   18.2888 N   0  0  0  0  0  0  0  0  0  0  0  0
  -29.4687  -27.5304   16.1819 N   0  0  0  0  0  0  0  0  0  0  0  0
  -24.0354  -15.8311   21.0339 N   0  0  0  0  0  0  0  0  0  0  0  0
  -25.6530  -25.6356   18.2251 N   0  0  0  0  0  0  0  0  0  0  0  0
  -23.5186  -27.2316   21.8711 N   0  0  0  0  0  0  0  0  0  0  0  0
  -27.1143  -13.9237   20.6108 N   0  0  0  0  0  0  0  0  0  0  0  0
  -20.6826  -16.1782   20.7235 N   0  0  0  0  0  0  0  0  0  0  0  0
  -19.0214  -17.8328   23.4750 N   0  3  0  0  0  0  0  0  0  0  0  0
  -23.8821  -25.3601   20.5967 O   0  0  0  0  0  0  0  0  0  0  0  0
  -30.9296  -26.4766   14.6910 O   0  0  0  0  0  0  0  0  0  0  0  0
  -25.8594  -15.3827   19.2996 O   0  0  0  0  0  0  0  0  0  0  0  0
  -22.5937  -14.0461   20.6200 O   0  0  0  0  0  0  0  0  0  0  0  0
  -20.8472  -18.3878   21.4074 O   0  0  0  0  0  0  0  0  0  0  0  0
  -23.7382  -32.4563   23.7919 O   0  0  0  0  0  0  0  0  0  0  0  0
  -27.0274  -21.0146   22.5281 O   0  0  0  0  0  0  0  0  0  1  0  0
  -27.6152  -35.7590   25.9050 F   0  0  0  0  0  0  0  0  0  0  0  0
  -24.2654  -32.4691   26.5057 F   0  0  0  0  0  0  0  0  0  0  0  0
  1  2  1  0  0  0  0
  1  5  2  0  0  0  0
  2  6  2  0  0  0  0
  3  8  2  0  0  0  0
  3 17  1  0  0  0  0
  4  9  1  0  0  0  0
  4 17  2  0  0  0  0
  5 19  1  0  0  0  0
  6 21  1  0  0  0  0
  7 10  2  0  0  0  0
  7 20  1  0  0  0  0
  8 24  1  0  0  0  0
  9 24  2  0  0  0  0
 10 25  1  0  0  0  0
 11 12  2  0  0  0  0
 11 26  1  0  0  0  0
 12 27  1  0  0  0  0
 13 22  1  0  0  0  0
 13 25  2  0  0  0  0
 14 23  1  0  0  0  0
 14 31  2  0  0  0  0
 15 27  2  0  0  0  0
 15 28  1  0  0  0  0
 16 30  2  0  0  0  0
 16 32  1  0  0  0  0
 17 29  1  0  0  0  0
 18 29  1  0  0  0  0
 18 34  2  0  0  0  0
 18 35  1  0  0  0  0
 19 21  2  0  0  0  0
 19 40  1  0  0  0  0
 20 22  2  0  0  0  0
 20 41  1  0  0  0  0
 21 49  1  0  0  0  0
 22 42  1  0  0  0  0
 23 33  2  0  0  0  0
 23 52  1  0  0  0  0
 24 83  1  0  0  0  0
 25 84  1  0  0  0  0
 26 28  2  0  0  0  0
 26 83  1  0  0  0  0
 27 85  1  0  0  0  0
 28 86  1  0  0  0  0
 29 65  2  0  0  0  0
 30 36  1  0  0  0  0
 30 69  1  0  0  0  0
 31 63  1  0  0  0  0
 31 66  1  0  0  0  0
 32 63  1  0  0  0  0
 32 67  2  0  0  0  0
 33 68  1  0  0  0  0
 33 84  1  0  0  0  0
 34 70  1  0  0  0  0
 34 73  1  0  0  0  0
 35 74  1  0  0  0  0
 35 78  2  0  0  0  0
 36 71  1  0  0  0  0
 36 79  2  0  0  0  0
 37 50  1  0  0  0  0
 37 75  1  0  0  0  0
 37 80  2  0  0  0  0
 38 61  1  0  0  0  0
 38 72  1  0  0  0  0
 38 81  2  0  0  0  0
 39 62  1  0  0  0  0
 39 76  1  0  0  0  0
 39 82  2  0  0  0  0
 40 43  1  0  0  0  0
 41 50  1  0  0  0  0
 42 72  1  0  0  0  0
 43 45  1  0  0  0  0
 44 46  1  0  0  0  0
 44 47  1  0  0  0  0
 45 49  1  0  0  0  0
 46 51  1  0  0  0  0
 47 71  1  0  0  0  0
 48 51  1  0  0  0  0
 48 71  1  0  0  0  0
 49 75  1  0  0  0  0
 50 72  1  0  0  0  0
 51 70  1  0  0  0  0
 53 62  1  0  0  0  0
 54 63  1  0  0  0  0
 55 63  1  0  0  0  0
 56 64  1  0  0  0  0
 57 64  1  0  0  0  0
 58 64  1  0  0  0  0
 59 69  1  0  0  0  0
 60 77  1  0  0  0  0
 61 64  1  0  0  0  0
 61 76  1  0  0  0  0
 62 77  1  0  0  0  0
 65 70  1  0  0  0  0
 66 68  2  0  0  0  0
 67 69  1  0  0  0  0
M  CHG  1  77   1
M  ISO  4  30 100  33 101  36 100  84 101
M  END
> <Batch ID>
0065

> <Smiles>
CNC(C)C(=O)NC(C(=O)N1Cc2cc([101O:1][101c:1]3nnc(C(C)(C)c4c[100c:0]([100C:0](=O)N5CCCC(n6nc(-c7ccc(Oc8ccc(F)cc8F)cc7)c(C(N)=O)c6N)C5)n(C)n4)cc3C)ccc2CC1C(=O)NC1CCCc2ccccc21)C(C)(C)C

> <Shape>
0.231

> <Color>
0.079

> <Negative vol penalty>
0.000

$$$$

  -OEChem-04052318073D

 88 96  0     1  0  0  0  0  0999 V2000
  -27.5011  -29.2542   17.9565 C   0  0  0  0  0  0  0  0  0  0  0  0
  -27.2506  -28.2114   18.8427 C   0  0  0  0  0  0  0  0  0  0  0  0
  -22.9624  -10.0270   19.9163 C   0  0  0  0  0  0  0  0  0  0  0  0
  -23.9211   -9.7407   22.1154 C   0  0  0  0  0  0  0  0  0  0  0  0
  -26.9124  -30.5008   18.1645 C   0  0  0  0  0  0  0  0  0  0  0  0
  -26.4121  -28.4151   19.9381 C   0  0  0  0  0  0  0  0  0  0  0  0
  -23.1159  -24.6267   20.5921 C   0  0  0  0  0  0  0  0  0  0  0  0
  -22.2054   -8.8692   20.0956 C   0  0  0  0  0  0  0  0  0  0  0  0
  -23.1641   -8.5829   22.2947 C   0  0  0  0  0  0  0  0  0  0  0  0
  -23.5961  -23.4602   21.1858 C   0  0  0  0  0  0  0  0  0  0  0  0
  -19.9768   -7.7913   23.0915 C   0  0  0  0  0  0  0  0  0  0  0  0
  -19.3250   -7.6278   24.3138 C   0  0  0  0  0  0  0  0  0  0  0  0
  -22.6528  -24.1526   23.2953 C   0  0  0  0  0  0  0  0  0  0  0  0
  -20.5612   -5.5883   24.7002 C   0  0  0  0  0  0  0  0  0  0  0  0
  -31.2879  -18.3527   23.5419 C   0  0  0  0  0  0  0  0  0  0  0  0
  -23.8203  -10.4627   20.9262 C   0  0  0  0  0  0  0  0  0  0  0  0
  -24.2340  -12.9756   21.0739 C   0  0  0  0  0  0  0  0  0  0  0  0
  -26.0585  -30.7171   19.2575 C   0  0  0  0  0  0  0  0  0  0  0  0
  -22.4087  -25.5716   21.3494 C   0  0  0  0  0  0  0  0  0  0  0  0
  -25.8125  -29.6662   20.1616 C   0  0  0  0  0  0  0  0  0  0  0  0
  -22.1624  -25.3291   22.7083 C   0  0  0  0  0  0  0  0  0  0  0  0
  -30.4336  -19.0920   24.3229 C   0  0  0  0  0  0  0  0  0  0  0  0
  -22.3063   -8.1472   21.2847 C   0  0  0  0  0  0  0  0  0  0  0  0
  -23.3671  -23.2244   22.5382 C   0  0  0  0  0  0  0  0  0  0  0  0
  -20.9208   -6.8533   22.6735 C   0  0  0  0  0  0  0  0  0  0  0  0
  -19.6172   -6.5263   25.1181 C   0  0  0  0  0  0  0  0  0  0  0  0
  -21.2130   -5.7518   23.4778 C   0  0  0  0  0  0  0  0  0  0  0  0
  -24.6029  -11.6583   20.7414 C   0  0  0  0  0  0  0  0  0  0  0  0
  -29.1571  -18.8374   23.7867 C   0  0  0  0  0  0  0  0  0  0  0  0
  -25.3143  -13.7386   20.7032 C   0  0  0  0  0  0  0  0  0  0  0  0
  -23.0233  -13.4657   21.6651 C   0  0  0  0  0  0  0  0  0  0  0  0
  -22.8736  -28.6152   22.1394 C   0  0  0  0  0  0  0  0  0  0  0  0
  -30.8513  -14.5256   20.5945 C   0  0  0  0  0  0  0  0  0  0  0  0
  -19.9024  -28.3337   23.4102 C   0  0  0  0  0  0  0  0  0  0  0  0
  -17.4786  -26.2991   24.6879 C   0  0  0  0  0  0  0  0  0  0  0  0
  -25.4828  -32.0952   19.4674 C   0  0  0  0  0  0  0  0  0  0  0  0
  -21.8742  -26.8123   20.6880 C   0  0  0  0  0  0  0  0  0  0  0  0
  -21.3912  -26.3024   23.5605 C   0  0  0  0  0  0  0  0  0  0  0  0
  -24.3091  -32.1229   20.4431 C   0  0  0  0  0  0  0  0  0  0  0  0
  -29.3958  -12.5725   17.9664 C   0  0  0  0  0  0  0  0  0  0  0  0
  -24.6356  -31.3132   21.6940 C   0  0  0  0  0  0  0  0  0  0  0  0
  -28.0000  -12.2435   18.4945 C   0  0  0  0  0  0  0  0  0  0  0  0
  -30.4246  -12.6085   19.0922 C   0  0  0  0  0  0  0  0  0  0  0  0
  -28.6774  -13.2121   20.7368 C   0  0  0  0  0  0  0  0  0  0  0  0
  -24.8889  -29.8410   21.3476 C   0  0  1  0  0  0  0  0  0  0  0  0
  -21.6110  -27.9479   21.6721 C   0  0  1  0  0  0  0  0  0  0  0  0
  -27.6022  -13.1960   19.6359 C   0  0  2  0  0  0  0  0  0  0  0  0
  -30.8700  -22.1686   24.0795 C   0  0  0  0  0  0  0  0  0  0  0  0
  -30.6992  -14.7224   23.0202 C   0  0  0  0  0  0  0  0  0  0  0  0
  -15.1740  -26.3627   25.6789 C   0  0  0  0  0  0  0  0  0  0  0  0
  -30.6531  -17.4618   20.2070 C   0  0  0  0  0  0  0  0  0  0  0  0
  -32.3193  -20.0334   25.8223 C   0  0  0  0  0  0  0  0  0  0  0  0
  -30.1162  -19.4298   26.7843 C   0  0  0  0  0  0  0  0  0  0  0  0
  -21.0616  -29.3762   26.0331 C   0  0  0  0  0  0  0  0  0  0  0  0
  -19.0108  -28.5313   27.1945 C   0  0  0  0  0  0  0  0  0  0  0  0
  -18.8128  -30.2998   25.4463 C   0  0  0  0  0  0  0  0  0  0  0  0
  -16.3754  -24.6088   22.5235 C   0  0  0  0  0  0  0  0  0  0  0  0
  -27.8326  -19.3884   24.2515 C   0  0  0  0  0  0  0  0  0  0  0  0
  -30.2967  -21.4535   25.2996 C   0  0  0  0  0  0  0  0  0  0  0  0
  -27.0757  -20.1726   23.1738 C   0  0  0  0  0  0  0  0  0  0  0  0
  -25.7726  -20.7881   23.6855 C   0  0  0  0  0  0  0  0  0  0  0  0
  -25.0298  -21.5245   22.5789 C   0  0  0  0  0  0  0  0  0  1  0  0
  -30.3423  -15.4127   21.7026 C   0  0  1  0  0  0  0  0  0  0  0  0
  -19.3488  -27.9278   24.7547 C   0  0  1  0  0  0  0  0  0  0  0  0
  -15.9901  -26.2053   24.4053 C   0  0  2  0  0  0  0  0  0  0  0  0
  -30.9498  -16.8327   21.5786 C   0  0  2  0  0  0  0  0  0  0  0  0
  -30.7868  -19.9544   25.4632 C   0  0  0  0  0  0  0  0  0  0  0  0
  -19.5748  -29.0161   25.8418 C   0  0  0  0  0  0  0  0  0  0  0  0
  -25.8221  -11.5851   20.2009 N   0  0  0  0  0  0  0  0  0  0  0  0
  -29.1927  -18.0017   22.7453 N   0  0  0  0  0  0  0  0  0  0  0  0
  -30.5018  -17.7249   22.6209 N   0  0  0  0  0  0  0  0  0  0  0  0
  -26.2287  -12.8659   20.1909 N   0  0  0  0  0  0  0  0  0  0  0  0
  -20.8945  -27.5037   22.8694 N   0  0  0  0  0  0  0  0  0  0  0  0
  -29.9994  -13.5071   20.1669 N   0  0  0  0  0  0  0  0  0  0  0  0
  -25.5617  -15.0641   20.7687 N   0  0  0  0  0  0  0  0  0  0  0  0
  -22.0153  -12.5456   21.9839 N   0  0  0  0  0  0  0  0  0  0  0  0
  -23.6364  -29.1526   21.1201 N   0  0  0  0  0  0  0  0  0  0  0  0
  -17.9478  -27.5864   24.5331 N   0  0  0  0  0  0  0  0  0  0  0  0
  -15.6606  -24.8858   23.7960 N   0  3  0  0  0  0  0  0  0  0  0  0
  -22.8341  -14.6855   21.8884 O   0  0  0  0  0  0  0  0  0  0  0  0
  -23.1355  -28.6420   23.3362 O   0  0  0  0  0  0  0  0  0  0  0  0
  -31.9717  -14.7351   20.1222 O   0  0  0  0  0  0  0  0  0  0  0  0
  -19.4654  -29.3459   22.8569 O   0  0  0  0  0  0  0  0  0  0  0  0
  -18.1566  -25.3282   25.0170 O   0  0  0  0  0  0  0  0  0  0  0  0
  -21.5676   -7.0175   21.4601 O   0  0  0  0  0  0  0  0  0  0  0  0
  -23.8353  -22.0869   23.1203 O   0  0  0  0  0  0  0  0  0  1  0  0
  -18.9923   -6.3702   26.2926 F   0  0  0  0  0  0  0  0  0  0  0  0
  -22.1198   -4.8480   23.0821 F   0  0  0  0  0  0  0  0  0  0  0  0
  1  2  1  0  0  0  0
  1  5  2  0  0  0  0
  2  6  2  0  0  0  0
  3  8  2  0  0  0  0
  3 16  1  0  0  0  0
  4  9  1  0  0  0  0
  4 16  2  0  0  0  0
  5 18  1  0  0  0  0
  6 20  1  0  0  0  0
  7 10  2  0  0  0  0
  7 19  1  0  0  0  0
  8 23  1  0  0  0  0
  9 23  2  0  0  0  0
 10 24  1  0  0  0  0
 11 12  2  0  0  0  0
 11 25  1  0  0  0  0
 12 26  1  0  0  0  0
 13 21  1  0  0  0  0
 13 24  2  0  0  0  0
 14 26  2  0  0  0  0
 14 27  1  0  0  0  0
 15 22  2  0  0  0  0
 15 71  1  0  0  0  0
 16 28  1  0  0  0  0
 17 28  1  0  0  0  0
 17 30  2  0  0  0  0
 17 31  1  0  0  0  0
 18 20  2  0  0  0  0
 18 36  1  0  0  0  0
 19 21  2  0  0  0  0
 19 37  1  0  0  0  0
 20 45  1  0  0  0  0
 21 38  1  0  0  0  0
 22 29  1  0  0  0  0
 22 67  1  0  0  0  0
 23 85  1  0  0  0  0
 24 86  1  0  0  0  0
 25 27  2  0  0  0  0
 25 85  1  0  0  0  0
 26 87  1  0  0  0  0
 27 88  1  0  0  0  0
 28 69  2  0  0  0  0
 29 58  1  0  0  0  0
 29 70  2  0  0  0  0
 30 72  1  0  0  0  0
 30 75  1  0  0  0  0
 31 76  1  0  0  0  0
 31 80  2  0  0  0  0
 32 46  1  0  0  0  0
 32 77  1  0  0  0  0
 32 81  2  0  0  0  0
 33 63  1  0  0  0  0
 33 74  1  0  0  0  0
 33 82  2  0  0  0  0
 34 64  1  0  0  0  0
 34 73  1  0  0  0  0
 34 83  2  0  0  0  0
 35 65  1  0  0  0  0
 35 78  1  0  0  0  0
 35 84  2  0  0  0  0
 36 39  1  0  0  0  0
 37 46  1  0  0  0  0
 38 73  1  0  0  0  0
 39 41  1  0  0  0  0
 40 42  1  0  0  0  0
 40 43  1  0  0  0  0
 41 45  1  0  0  0  0
 42 47  1  0  0  0  0
 43 74  1  0  0  0  0
 44 47  1  0  0  0  0
 44 74  1  0  0  0  0
 45 77  1  0  0  0  0
 46 73  1  0  0  0  0
 47 72  1  0  0  0  0
 48 59  1  0  0  0  0
 49 63  1  0  0  0  0
 50 65  1  0  0  0  0
 51 66  1  0  0  0  0
 52 67  1  0  0  0  0
 53 67  1  0  0  0  0
 54 68  1  0  0  0  0
 55 68  1  0  0  0  0
 56 68  1  0  0  0  0
 57 79  1  0  0  0  0
 58 60  1  0  0  0  0
 59 67  1  0  0  0  0
 60 61  1  0  0  0  0
 61 62  1  0  0  0  0
 62 86  1  0  0  0  0
 63 66  1  0  0  0  0
 64 68  1  0  0  0  0
 64 78  1  0  0  0  0
 65 79  1  0  0  0  0
 66 71  1  0  0  0  0
 69 72  1  0  0  0  0
 70 71  1  0  0  0  0
M  CHG  1  79   1
M  ISO  4  33 100  62 101  63 100  86 101
M  END
> <Batch ID>
0065

> <Smiles>
CCC(C)(C)c1cn(C(C)[100CH:0](C)[100C:0](=O)N2CCCC(n3nc(-c4ccc(Oc5ccc(F)cc5F)cc4)c(C(N)=O)c3N)C2)nc1CCC[101CH2:1][101O:1]c1ccc2c(c1)CN(C(=O)C(NC(=O)C(C)NC)C(C)(C)C)C(C(=O)NC1CCCc3ccccc31)C2

> <Shape>
0.281

> <Color>
0.205

> <Negative vol penalty>
0.000

$$$$

  -OEChem-04052318073D

 93101  0     1  0  0  0  0  0999 V2000
  -24.7403  -35.9892   23.4098 C   0  0  0  0  0  0  0  0  0  0  0  0
  -25.2058  -34.9463   22.6154 C   0  0  0  0  0  0  0  0  0  0  0  0
  -23.1511   -9.7778   20.0686 C   0  0  0  0  0  0  0  0  0  0  0  0
  -23.8688   -9.9852   22.3662 C   0  0  0  0  0  0  0  0  0  0  0  0
  -25.0839  -36.0425   24.7600 C   0  0  0  0  0  0  0  0  0  0  0  0
  -26.0161  -33.9566   23.1705 C   0  0  0  0  0  0  0  0  0  0  0  0
  -26.1108  -28.0154   21.6873 C   0  0  0  0  0  0  0  0  0  0  0  0
  -22.4401   -8.6230   20.3949 C   0  0  0  0  0  0  0  0  0  0  0  0
  -23.1577   -8.8303   22.6925 C   0  0  0  0  0  0  0  0  0  0  0  0
  -26.9479  -27.2686   20.8595 C   0  0  0  0  0  0  0  0  0  0  0  0
  -19.9464   -7.9738   23.3043 C   0  0  0  0  0  0  0  0  0  0  0  0
  -19.1701   -7.9982   24.4628 C   0  0  0  0  0  0  0  0  0  0  0  0
  -28.2600  -26.6237   22.7783 C   0  0  0  0  0  0  0  0  0  0  0  0
  -20.4594   -6.1651   25.3653 C   0  0  0  0  0  0  0  0  0  0  0  0
  -30.2911  -19.2151   24.5080 C   0  0  0  0  0  0  0  0  0  0  0  0
  -23.8655  -10.4589   21.0543 C   0  0  0  0  0  0  0  0  0  0  0  0
  -24.1284  -12.9775   20.7457 C   0  0  0  0  0  0  0  0  0  0  0  0
  -25.8909  -35.0477   25.3342 C   0  0  0  0  0  0  0  0  0  0  0  0
  -26.3489  -28.0810   23.0677 C   0  0  0  0  0  0  0  0  0  0  0  0
  -26.3719  -33.9973   24.5294 C   0  0  0  0  0  0  0  0  0  0  0  0
  -27.4230  -27.3701   23.6218 C   0  0  0  0  0  0  0  0  0  0  0  0
  -29.8701  -20.3947   23.9287 C   0  0  0  0  0  0  0  0  0  0  0  0
  -22.4434   -8.1493   21.7068 C   0  0  0  0  0  0  0  0  0  0  0  0
  -28.0244  -26.5749   21.4046 C   0  0  0  0  0  0  0  0  0  0  0  0
  -20.9792   -7.0450   23.1762 C   0  0  0  0  0  0  0  0  0  0  0  0
  -19.4266   -7.0939   25.4934 C   0  0  0  0  0  0  0  0  0  0  0  0
  -21.2357   -6.1407   24.2067 C   0  0  0  0  0  0  0  0  0  0  0  0
  -24.6006  -11.6515   20.7177 C   0  0  0  0  0  0  0  0  0  0  0  0
  -29.8569  -20.4107   22.5489 C   0  0  0  0  0  0  0  0  0  0  0  0
  -25.2024  -13.7330   20.3429 C   0  0  0  0  0  0  0  0  0  0  0  0
  -30.6146  -18.2692   22.4665 C   0  0  0  0  0  0  0  0  0  0  0  0
  -22.8347  -13.4812   21.1039 C   0  0  0  0  0  0  0  0  0  0  0  0
  -27.0397  -30.4109   25.1166 C   0  0  0  0  0  0  0  0  0  0  0  0
  -26.6959  -28.0502   27.3146 C   0  0  0  0  0  0  0  0  0  0  0  0
  -30.6677  -14.8873   20.6398 C   0  0  0  0  0  0  0  0  0  0  0  0
  -26.7567  -24.7101   28.0125 C   0  0  0  0  0  0  0  0  0  0  0  0
  -26.2747  -35.1734   26.7873 C   0  0  0  0  0  0  0  0  0  0  0  0
  -25.4209  -28.8695   23.9506 C   0  0  0  0  0  0  0  0  0  0  0  0
  -27.7097  -27.3915   25.1002 C   0  0  0  0  0  0  0  0  0  0  0  0
  -26.8296  -33.8828   27.3846 C   0  0  0  0  0  0  0  0  0  0  0  0
  -29.6222  -12.3697   18.3142 C   0  0  0  0  0  0  0  0  0  0  0  0
  -27.8622  -33.2623   26.4489 C   0  0  0  0  0  0  0  0  0  0  0  0
  -28.1948  -12.0459   18.7534 C   0  0  0  0  0  0  0  0  0  0  0  0
  -30.5139  -12.6939   19.5087 C   0  0  0  0  0  0  0  0  0  0  0  0
  -28.5630  -13.4695   20.8180 C   0  0  0  0  0  0  0  0  0  0  0  0
  -27.2327  -32.8915   25.1007 C   0  0  1  0  0  0  0  0  0  0  0  0
  -26.0607  -29.2818   25.2728 C   0  0  1  0  0  0  0  0  0  0  0  0
  -27.6214  -13.1662   19.6392 C   0  0  2  0  0  0  0  0  0  0  0  0
  -30.8376  -14.7716   23.6583 C   0  0  0  0  0  0  0  0  0  0  0  0
  -26.4739  -23.0879   29.9061 C   0  0  0  0  0  0  0  0  0  0  0  0
  -29.5846  -21.2403   26.2843 C   0  0  0  0  0  0  0  0  0  0  0  0
  -27.9804  -21.9650   24.4851 C   0  0  0  0  0  0  0  0  0  0  0  0
  -30.2962  -22.8676   24.5444 C   0  0  0  0  0  0  0  0  0  0  0  0
  -28.7339  -16.4000   20.7504 C   0  0  0  0  0  0  0  0  0  0  0  0
  -29.4646  -28.7921   28.3605 C   0  0  0  0  0  0  0  0  0  0  0  0
  -29.5214  -26.5976   29.5643 C   0  0  0  0  0  0  0  0  0  0  0  0
  -27.7788  -28.2879   30.1376 C   0  0  0  0  0  0  0  0  0  0  0  0
  -30.6915  -21.2133   19.6542 C   0  0  0  0  0  0  0  0  0  0  0  0
  -31.7553  -22.5913   21.4316 C   0  0  0  0  0  0  0  0  0  0  0  0
  -30.7330  -24.2528   19.0588 C   0  0  0  0  0  0  0  0  0  0  0  0
  -28.4487  -23.3099   19.3391 C   0  0  0  0  0  0  0  0  0  0  0  0
  -24.4606  -23.3901   26.6920 C   0  0  0  0  0  0  0  0  0  0  0  0
  -29.4128  -21.6519   21.8019 C   0  0  0  0  0  0  0  0  0  0  0  0
  -31.0274  -17.0886   21.6542 C   0  0  0  0  0  0  0  0  0  0  0  0
  -29.6440  -15.2956   22.8641 C   0  0  0  0  0  0  0  0  0  0  0  0
  -29.4638  -24.6960   21.1729 C   0  0  0  0  0  0  0  0  0  1  0  0
  -27.6178  -27.0358   27.9471 C   0  0  1  0  0  0  0  0  0  0  0  0
  -25.7843  -23.8206   28.7659 C   0  0  2  0  0  0  0  0  0  0  0  0
  -29.4636  -21.5569   24.7590 C   0  0  0  0  0  0  0  0  0  0  0  0
  -29.9912  -15.9291   21.4948 C   0  0  2  0  0  0  0  0  0  0  0  0
  -28.5917  -27.6793   28.9742 C   0  0  0  0  0  0  0  0  0  0  0  0
  -30.4013  -22.2745   20.7468 C   0  0  0  0  0  0  0  0  0  0  0  0
  -29.7705  -23.6129   20.0934 C   0  0  0  0  0  0  0  0  0  0  0  0
  -30.6719  -18.1286   23.8045 N   0  0  0  0  0  0  0  0  0  0  0  0
  -25.8752  -11.5662   20.3278 N   0  0  0  0  0  0  0  0  0  0  0  0
  -30.2241  -19.3622   21.7834 N   0  0  0  0  0  0  0  0  0  0  0  0
  -26.2131  -12.8481   20.1070 N   0  0  0  0  0  0  0  0  0  0  0  0
  -26.7775  -28.1818   25.9211 N   0  0  0  0  0  0  0  0  0  0  0  0
  -29.9238  -13.7467   20.3373 N   0  0  0  0  0  0  0  0  0  0  0  0
  -25.3714  -15.0612   20.1710 N   0  0  0  0  0  0  0  0  0  0  0  0
  -21.8465  -12.5672   21.4943 N   0  0  0  0  0  0  0  0  0  0  0  0
  -26.4713  -31.6664   25.2183 N   0  0  0  0  0  0  0  0  0  0  0  0
  -26.7596  -25.9973   28.5069 N   0  0  0  0  0  0  0  0  0  0  0  0
  -25.1905  -22.8081   27.8476 N   0  3  0  0  0  0  0  0  0  0  0  0
  -22.5582  -14.7040   21.0628 O   0  0  0  0  0  0  0  0  0  0  0  0
  -28.2232  -30.1616   24.9200 O   0  0  0  0  0  0  0  0  0  0  0  0
  -25.9265  -28.6968   28.0299 O   0  0  0  0  0  0  0  0  0  0  0  0
  -31.8218  -15.0846   20.2509 O   0  0  0  0  0  0  0  0  0  0  0  0
  -27.4477  -24.3028   27.0813 O   0  0  0  0  0  0  0  0  0  0  0  0
  -21.7495   -7.0226   22.0256 O   0  0  0  0  0  0  0  0  0  0  0  0
  -28.8434  -25.8457   20.5988 O   0  0  0  0  0  0  0  0  0  1  0  0
  -18.6820   -7.1185   26.6066 F   0  0  0  0  0  0  0  0  0  0  0  0
  -22.2272   -5.2468   24.0899 F   0  0  0  0  0  0  0  0  0  0  0  0
  1  2  1  0  0  0  0
  1  5  2  0  0  0  0
  2  6  2  0  0  0  0
  3  8  2  0  0  0  0
  3 16  1  0  0  0  0
  4  9  1  0  0  0  0
  4 16  2  0  0  0  0
  5 18  1  0  0  0  0
  6 20  1  0  0  0  0
  7 10  2  0  0  0  0
  7 19  1  0  0  0  0
  8 23  1  0  0  0  0
  9 23  2  0  0  0  0
 10 24  1  0  0  0  0
 11 12  2  0  0  0  0
 11 25  1  0  0  0  0
 12 26  1  0  0  0  0
 13 21  1  0  0  0  0
 13 24  2  0  0  0  0
 14 26  2  0  0  0  0
 14 27  1  0  0  0  0
 15 22  1  0  0  0  0
 15 74  2  0  0  0  0
 16 28  1  0  0  0  0
 17 28  1  0  0  0  0
 17 30  2  0  0  0  0
 17 32  1  0  0  0  0
 18 20  2  0  0  0  0
 18 37  1  0  0  0  0
 19 21  2  0  0  0  0
 19 38  1  0  0  0  0
 20 46  1  0  0  0  0
 21 39  1  0  0  0  0
 22 29  2  0  0  0  0
 22 69  1  0  0  0  0
 23 90  1  0  0  0  0
 24 91  1  0  0  0  0
 25 27  2  0  0  0  0
 25 90  1  0  0  0  0
 26 92  1  0  0  0  0
 27 93  1  0  0  0  0
 28 75  2  0  0  0  0
 29 63  1  0  0  0  0
 29 76  1  0  0  0  0
 30 77  1  0  0  0  0
 30 80  1  0  0  0  0
 31 64  1  0  0  0  0
 31 74  1  0  0  0  0
 31 76  2  0  0  0  0
 32 81  1  0  0  0  0
 32 85  2  0  0  0  0
 33 47  1  0  0  0  0
 33 82  1  0  0  0  0
 33 86  2  0  0  0  0
 34 67  1  0  0  0  0
 34 78  1  0  0  0  0
 34 87  2  0  0  0  0
 35 70  1  0  0  0  0
 35 79  1  0  0  0  0
 35 88  2  0  0  0  0
 36 68  1  0  0  0  0
 36 83  1  0  0  0  0
 36 89  2  0  0  0  0
 37 40  1  0  0  0  0
 38 47  1  0  0  0  0
 39 78  1  0  0  0  0
 40 42  1  0  0  0  0
 41 43  1  0  0  0  0
 41 44  1  0  0  0  0
 42 46  1  0  0  0  0
 43 48  1  0  0  0  0
 44 79  1  0  0  0  0
 45 48  1  0  0  0  0
 45 79  1  0  0  0  0
 46 82  1  0  0  0  0
 47 78  1  0  0  0  0
 48 77  1  0  0  0  0
 49 65  1  0  0  0  0
 50 68  1  0  0  0  0
 51 69  1  0  0  0  0
 52 69  1  0  0  0  0
 53 69  1  0  0  0  0
 54 70  1  0  0  0  0
 55 71  1  0  0  0  0
 56 71  1  0  0  0  0
 57 71  1  0  0  0  0
 58 72  1  0  0  0  0
 59 72  1  0  0  0  0
 60 73  1  0  0  0  0
 61 73  1  0  0  0  0
 62 84  1  0  0  0  0
 63 72  1  0  0  0  0
 64 70  1  0  0  0  0
 65 70  1  0  0  0  0
 66 73  1  0  0  0  0
 66 91  1  0  0  0  0
 67 71  1  0  0  0  0
 67 83  1  0  0  0  0
 68 84  1  0  0  0  0
 72 73  1  0  0  0  0
 75 77  1  0  0  0  0
M  CHG  1  84   1
M  ISO  4  35 100  66 101  70 100  91 101
M  END
> <Batch ID>
0065

> <Smiles>
CC[100C:0](C)(Cc1ncc(C(C)(C)C)c(CC(C)(C)C(C)(C)[101CH2:1][101O:1]c2ccc3c(c2)CN(C(=O)C(NC(=O)C(C)NC)C(C)(C)C)C(C(=O)NC2CCCc4ccccc42)C3)n1)[100C:0](=O)N1CCCC(n2nc(-c3ccc(Oc4ccc(F)cc4F)cc3)c(C(N)=O)c2N)C1

> <Shape>
0.310

> <Color>
0.175

> <Negative vol penalty>
0.000

$$$$

  -OEChem-04052318073D

 85 93  0     1  0  0  0  0  0999 V2000
  -28.4688  -25.1058   16.9590 C   0  0  0  0  0  0  0  0  0  0  0  0
  -27.2999  -25.2278   17.7034 C   0  0  0  0  0  0  0  0  0  0  0  0
  -25.6580  -15.7665   23.4580 C   0  0  0  0  0  0  0  0  0  0  0  0
  -26.7222  -17.1820   21.8145 C   0  0  0  0  0  0  0  0  0  0  0  0
  -29.6397  -25.7240   17.3957 C   0  0  0  0  0  0  0  0  0  0  0  0
  -27.3014  -25.9673   18.8855 C   0  0  0  0  0  0  0  0  0  0  0  0
  -23.2834  -29.0257   19.2691 C   0  0  0  0  0  0  0  0  0  0  0  0
  -25.2285  -14.9113   22.4433 C   0  0  0  0  0  0  0  0  0  0  0  0
  -26.2926  -16.3267   20.7998 C   0  0  0  0  0  0  0  0  0  0  0  0
  -22.0733  -28.4432   19.6436 C   0  0  0  0  0  0  0  0  0  0  0  0
  -24.1591  -12.1622   20.3186 C   0  0  0  0  0  0  0  0  0  0  0  0
  -24.3098  -10.7902   20.5198 C   0  0  0  0  0  0  0  0  0  0  0  0
  -21.4120  -23.6496   23.1822 C   0  0  0  0  0  0  0  0  0  0  0  0
  -22.6953  -23.2324   23.4889 C   0  0  0  0  0  0  0  0  0  0  0  0
  -22.4101  -29.2121   21.9051 C   0  0  0  0  0  0  0  0  0  0  0  0
  -26.6987  -11.0833   20.7299 C   0  0  0  0  0  0  0  0  0  0  0  0
  -26.4049  -16.9019   23.1436 C   0  0  0  0  0  0  0  0  0  0  0  0
  -28.0564  -17.7133   24.9104 C   0  0  0  0  0  0  0  0  0  0  0  0
  -29.6533  -26.4796   18.5787 C   0  0  0  0  0  0  0  0  0  0  0  0
  -24.0725  -29.6974   20.2138 C   0  0  0  0  0  0  0  0  0  0  0  0
  -28.4739  -26.5952   19.3391 C   0  0  0  0  0  0  0  0  0  0  0  0
  -23.6285  -29.8044   21.5396 C   0  0  0  0  0  0  0  0  0  0  0  0
  -25.5458  -15.1913   21.1142 C   0  0  0  0  0  0  0  0  0  0  0  0
  -21.6379  -28.5339   20.9624 C   0  0  0  0  0  0  0  0  0  0  0  0
  -25.2783  -12.9948   20.3230 C   0  0  0  0  0  0  0  0  0  0  0  0
  -25.5796  -10.2508   20.7255 C   0  0  0  0  0  0  0  0  0  0  0  0
  -26.5481  -12.4554   20.5286 C   0  0  0  0  0  0  0  0  0  0  0  0
  -26.8484  -17.7861   24.1913 C   0  0  0  0  0  0  0  0  0  0  0  0
  -21.2642  -24.6368   22.2287 C   0  0  0  0  0  0  0  0  0  0  0  0
  -23.7457  -23.8297   22.8216 C   0  0  0  0  0  0  0  0  0  0  0  0
  -28.0001  -18.7716   25.7842 C   0  0  0  0  0  0  0  0  0  0  0  0
  -29.1332  -16.7732   24.7986 C   0  0  0  0  0  0  0  0  0  0  0  0
  -26.9961  -29.2883   21.3924 C   0  0  0  0  0  0  0  0  0  0  0  0
  -26.3762  -32.1123   22.8632 C   0  0  0  0  0  0  0  0  0  0  0  0
  -24.9913  -23.9701   25.6017 C   0  0  0  0  0  0  0  0  0  0  0  0
  -24.0524  -34.3177   24.0392 C   0  0  0  0  0  0  0  0  0  0  0  0
  -30.9545  -27.0903   19.0352 C   0  0  0  0  0  0  0  0  0  0  0  0
  -25.3624  -30.3434   19.7881 C   0  0  0  0  0  0  0  0  0  0  0  0
  -24.4288  -30.5321   22.5876 C   0  0  0  0  0  0  0  0  0  0  0  0
  -30.7805  -28.1670   20.1032 C   0  0  0  0  0  0  0  0  0  0  0  0
  -24.8953  -21.4918   28.1879 C   0  0  0  0  0  0  0  0  0  0  0  0
  -29.8225  -27.6907   21.1904 C   0  0  0  0  0  0  0  0  0  0  0  0
  -25.4686  -20.2464   27.5131 C   0  0  0  0  0  0  0  0  0  0  0  0
  -24.0771  -22.3299   27.2105 C   0  0  0  0  0  0  0  0  0  0  0  0
  -25.3953  -21.4769   25.2983 C   0  0  0  0  0  0  0  0  0  0  0  0
  -28.4296  -27.4096   20.6139 C   0  0  1  0  0  0  0  0  0  0  0  0
  -26.3326  -30.5601   20.9453 C   0  0  1  0  0  0  0  0  0  0  0  0
  -26.2543  -20.6180   26.2431 C   0  0  2  0  0  0  0  0  0  0  0  0
  -23.8496  -36.5195   25.2259 C   0  0  0  0  0  0  0  0  0  0  0  0
  -26.0999  -23.5708   21.8614 C   0  0  0  0  0  0  0  0  0  0  0  0
  -25.2442  -21.8611   23.4004 C   0  0  0  0  0  0  0  0  0  0  0  0
  -25.8075  -25.7416   24.1325 C   0  0  0  0  0  0  0  0  0  0  0  0
  -27.2510  -23.8013   24.7080 C   0  0  0  0  0  0  0  0  0  0  0  0
  -27.1025  -30.7562   25.4982 C   0  0  0  0  0  0  0  0  0  0  0  0
  -25.9917  -32.6514   26.6993 C   0  0  0  0  0  0  0  0  0  0  0  0
  -27.9743  -33.0870   25.2495 C   0  0  0  0  0  0  0  0  0  0  0  0
  -22.6244  -35.5478   21.7574 C   0  0  0  0  0  0  0  0  0  0  0  0
  -19.8878  -25.1292   21.8589 C   0  0  0  0  0  0  0  0  0  0  0  0
  -19.4061  -26.3069   22.7089 C   0  0  0  0  0  0  0  0  0  0  0  0
  -20.3517  -27.5019   22.6761 C   0  0  0  0  0  0  0  0  0  1  0  0
  -25.7558  -32.5195   24.1778 C   0  0  1  0  0  0  0  0  0  0  0  0
  -23.9176  -35.8210   23.8768 C   0  0  2  0  0  0  0  0  0  0  0  0
  -25.1468  -23.4134   23.1130 C   0  0  0  0  0  0  0  0  0  0  0  0
  -25.8054  -24.2139   24.3560 C   0  0  0  0  0  0  0  0  0  0  0  0
  -26.6917  -32.2381   25.3871 C   0  0  0  0  0  0  0  0  0  0  0  0
  -26.0807  -18.8096   24.5750 N   0  0  0  0  0  0  0  0  0  0  0  0
  -22.3104  -25.2038   21.5914 N   0  0  0  0  0  0  0  0  0  0  0  0
  -23.5715  -24.7934   21.8926 N   0  0  0  0  0  0  0  0  0  0  0  0
  -26.8081  -19.3896   25.5448 N   0  0  0  0  0  0  0  0  0  0  0  0
  -25.6861  -31.1415   22.1235 N   0  0  0  0  0  0  0  0  0  0  0  0
  -24.8510  -22.6430   26.0078 N   0  0  0  0  0  0  0  0  0  0  0  0
  -28.8545  -19.2243   26.7263 N   0  0  0  0  0  0  0  0  0  0  0  0
  -29.0288  -15.7477   23.8490 N   0  0  0  0  0  0  0  0  0  0  0  0
  -27.7122  -28.6480   20.3992 N   0  0  0  0  0  0  0  0  0  0  0  0
  -25.3725  -33.9196   24.0320 N   0  0  0  0  0  0  0  0  0  0  0  0
  -22.6805  -36.1507   23.1140 N   0  3  0  0  0  0  0  0  0  0  0  0
  -30.1501  -16.8309   25.5307 O   0  0  0  0  0  0  0  0  0  0  0  0
  -26.8690  -28.9163   22.5531 O   0  0  0  0  0  0  0  0  0  0  0  0
  -27.4305  -32.6414   22.5024 O   0  0  0  0  0  0  0  0  0  0  0  0
  -24.4980  -24.9321   26.1963 O   0  0  0  0  0  0  0  0  0  0  0  0
  -23.0837  -33.5717   24.1640 O   0  0  0  0  0  0  0  0  0  0  0  0
  -25.1270  -14.3568   20.1239 O   0  0  0  0  0  0  0  0  0  0  0  0
  -20.4575  -27.9657   21.3307 O   0  0  0  0  0  0  0  0  0  1  0  0
  -25.7239   -8.9334   20.9202 F   0  0  0  0  0  0  0  0  0  0  0  0
  -27.6269  -13.2504   20.5351 F   0  0  0  0  0  0  0  0  0  0  0  0
  1  2  1  0  0  0  0
  1  5  2  0  0  0  0
  2  6  2  0  0  0  0
  3  8  2  0  0  0  0
  3 17  1  0  0  0  0
  4  9  1  0  0  0  0
  4 17  2  0  0  0  0
  5 19  1  0  0  0  0
  6 21  1  0  0  0  0
  7 10  2  0  0  0  0
  7 20  1  0  0  0  0
  8 23  1  0  0  0  0
  9 23  2  0  0  0  0
 10 24  1  0  0  0  0
 11 12  2  0  0  0  0
 11 25  1  0  0  0  0
 12 26  1  0  0  0  0
 13 14  2  0  0  0  0
 13 29  1  0  0  0  0
 14 30  1  0  0  0  0
 15 22  1  0  0  0  0
 15 24  2  0  0  0  0
 16 26  2  0  0  0  0
 16 27  1  0  0  0  0
 17 28  1  0  0  0  0
 18 28  1  0  0  0  0
 18 31  2  0  0  0  0
 18 32  1  0  0  0  0
 19 21  2  0  0  0  0
 19 37  1  0  0  0  0
 20 22  2  0  0  0  0
 20 38  1  0  0  0  0
 21 46  1  0  0  0  0
 22 39  1  0  0  0  0
 23 82  1  0  0  0  0
 24 83  1  0  0  0  0
 25 27  2  0  0  0  0
 25 82  1  0  0  0  0
 26 84  1  0  0  0  0
 27 85  1  0  0  0  0
 28 66  2  0  0  0  0
 29 58  1  0  0  0  0
 29 67  2  0  0  0  0
 30 63  1  0  0  0  0
 30 68  2  0  0  0  0
 31 69  1  0  0  0  0
 31 72  1  0  0  0  0
 32 73  1  0  0  0  0
 32 77  2  0  0  0  0
 33 47  1  0  0  0  0
 33 74  1  0  0  0  0
 33 78  2  0  0  0  0
 34 61  1  0  0  0  0
 34 70  1  0  0  0  0
 34 79  2  0  0  0  0
 35 64  1  0  0  0  0
 35 71  1  0  0  0  0
 35 80  2  0  0  0  0
 36 62  1  0  0  0  0
 36 75  1  0  0  0  0
 36 81  2  0  0  0  0
 37 40  1  0  0  0  0
 38 47  1  0  0  0  0
 39 70  1  0  0  0  0
 40 42  1  0  0  0  0
 41 43  1  0  0  0  0
 41 44  1  0  0  0  0
 42 46  1  0  0  0  0
 43 48  1  0  0  0  0
 44 71  1  0  0  0  0
 45 48  1  0  0  0  0
 45 71  1  0  0  0  0
 46 74  1  0  0  0  0
 47 70  1  0  0  0  0
 48 69  1  0  0  0  0
 49 62  1  0  0  0  0
 50 63  1  0  0  0  0
 51 63  1  0  0  0  0
 52 64  1  0  0  0  0
 53 64  1  0  0  0  0
 54 65  1  0  0  0  0
 55 65  1  0  0  0  0
 56 65  1  0  0  0  0
 57 76  1  0  0  0  0
 58 59  1  0  0  0  0
 59 60  1  0  0  0  0
 60 83  1  0  0  0  0
 61 65  1  0  0  0  0
 61 75  1  0  0  0  0
 62 76  1  0  0  0  0
 63 64  1  0  0  0  0
 66 69  1  0  0  0  0
 67 68  1  0  0  0  0
M  CHG  1  76   1
M  ISO  4  35 100  60 101  64 100  83 101
M  END
> <Batch ID>
0065

> <Smiles>
CNC(C)C(=O)NC(C(=O)N1Cc2cc([101O:1][101CH2:1]CCc3ccc(C(C)(C)[100C:0](C)(C)[100C:0](=O)N4CCCC(n5nc(-c6ccc(Oc7ccc(F)cc7F)cc6)c(C(N)=O)c5N)C4)nn3)ccc2CC1C(=O)NC1CCCc2ccccc21)C(C)(C)C

> <Shape>
0.248

> <Color>
0.058

> <Negative vol penalty>
0.000

$$$$

  -OEChem-04052318073D

 94102  0     1  0  0  0  0  0999 V2000
  -28.6994  -24.6490   17.4945 C   0  0  0  0  0  0  0  0  0  0  0  0
  -27.5627  -24.7496   18.2903 C   0  0  0  0  0  0  0  0  0  0  0  0
  -24.1131  -12.5273   19.9216 C   0  0  0  0  0  0  0  0  0  0  0  0
  -25.9678  -12.9614   21.4077 C   0  0  0  0  0  0  0  0  0  0  0  0
  -29.8343  -25.3974   17.8043 C   0  0  0  0  0  0  0  0  0  0  0  0
  -27.5606  -25.5979   19.3970 C   0  0  0  0  0  0  0  0  0  0  0  0
  -23.3232  -28.3513   19.7261 C   0  0  0  0  0  0  0  0  0  0  0  0
  -24.4148  -11.1657   19.9426 C   0  0  0  0  0  0  0  0  0  0  0  0
  -26.2696  -11.5997   21.4287 C   0  0  0  0  0  0  0  0  0  0  0  0
  -22.1866  -27.7139   20.2216 C   0  0  0  0  0  0  0  0  0  0  0  0
  -23.9453   -8.5421   22.0232 C   0  0  0  0  0  0  0  0  0  0  0  0
  -22.8886   -7.6463   22.1863 C   0  0  0  0  0  0  0  0  0  0  0  0
  -22.5691  -28.7223   22.3794 C   0  0  0  0  0  0  0  0  0  0  0  0
  -23.4182   -6.6338   20.0576 C   0  0  0  0  0  0  0  0  0  0  0  0
  -22.9689  -24.7080   23.4279 C   0  0  0  0  0  0  0  0  0  0  0  0
  -24.8896  -13.4252   20.6541 C   0  0  0  0  0  0  0  0  0  0  0  0
  -23.3782  -15.4437   21.0403 C   0  0  0  0  0  0  0  0  0  0  0  0
  -29.8428  -26.2626   18.9097 C   0  0  0  0  0  0  0  0  0  0  0  0
  -24.0988  -29.1717   20.5579 C   0  0  0  0  0  0  0  0  0  0  0  0
  -28.6971  -26.3576   19.7226 C   0  0  0  0  0  0  0  0  0  0  0  0
  -23.7137  -29.3710   21.8913 C   0  0  0  0  0  0  0  0  0  0  0  0
  -21.7270  -24.1083   23.4778 C   0  0  0  0  0  0  0  0  0  0  0  0
  -25.4931  -10.7019   20.6961 C   0  0  0  0  0  0  0  0  0  0  0  0
  -21.8110  -27.8970   21.5492 C   0  0  0  0  0  0  0  0  0  0  0  0
  -24.7385   -8.4837   20.8772 C   0  0  0  0  0  0  0  0  0  0  0  0
  -22.6251   -6.6922   21.2035 C   0  0  0  0  0  0  0  0  0  0  0  0
  -24.4749   -7.5296   19.8944 C   0  0  0  0  0  0  0  0  0  0  0  0
  -24.5787  -14.8320   20.6324 C   0  0  0  0  0  0  0  0  0  0  0  0
  -21.7135  -22.7448   23.2661 C   0  0  0  0  0  0  0  0  0  0  0  0
  -23.5846  -16.7840   20.8228 C   0  0  0  0  0  0  0  0  0  0  0  0
  -23.9708  -22.7129   23.0004 C   0  0  0  0  0  0  0  0  0  0  0  0
  -22.1833  -14.8531   21.5686 C   0  0  0  0  0  0  0  0  0  0  0  0
  -27.1012  -29.1113   21.5996 C   0  0  0  0  0  0  0  0  0  0  0  0
  -26.3194  -32.0065   22.8362 C   0  0  0  0  0  0  0  0  0  0  0  0
  -23.8793  -34.1244   23.9347 C   0  0  0  0  0  0  0  0  0  0  0  0
  -28.9023  -19.7961   20.3887 C   0  0  0  0  0  0  0  0  0  0  0  0
  -31.1090  -27.0157   19.2324 C   0  0  0  0  0  0  0  0  0  0  0  0
  -25.3070  -29.8735   20.0009 C   0  0  0  0  0  0  0  0  0  0  0  0
  -24.5008  -30.2578   22.8200 C   0  0  0  0  0  0  0  0  0  0  0  0
  -30.8981  -28.1736   20.2045 C   0  0  0  0  0  0  0  0  0  0  0  0
  -26.0350  -19.8055   18.0477 C   0  0  0  0  0  0  0  0  0  0  0  0
  -30.0387  -27.7304   21.3843 C   0  0  0  0  0  0  0  0  0  0  0  0
  -25.2788  -18.5380   18.4422 C   0  0  0  0  0  0  0  0  0  0  0  0
  -27.5277  -19.6900   18.3416 C   0  0  0  0  0  0  0  0  0  0  0  0
  -27.0815  -18.0587   20.1454 C   0  0  0  0  0  0  0  0  0  0  0  0
  -28.6476  -27.2854   20.9170 C   0  0  1  0  0  0  0  0  0  0  0  0
  -26.3116  -30.2773   21.0756 C   0  0  1  0  0  0  0  0  0  0  0  0
  -25.5677  -18.1598   19.9053 C   0  0  2  0  0  0  0  0  0  0  0  0
  -19.3389  -19.7051   23.4284 C   0  0  0  0  0  0  0  0  0  0  0  0
  -23.5508  -36.4077   24.9226 C   0  0  0  0  0  0  0  0  0  0  0  0
  -25.2806  -22.7641   25.4593 C   0  0  0  0  0  0  0  0  0  0  0  0
  -27.8003  -22.9013   25.3812 C   0  0  0  0  0  0  0  0  0  0  0  0
  -27.7804  -22.8044   21.2916 C   0  0  0  0  0  0  0  0  0  0  0  0
  -25.5497  -21.8501   21.2199 C   0  0  0  0  0  0  0  0  0  0  0  0
  -25.1544  -20.4979   23.3192 C   0  0  0  0  0  0  0  0  0  0  0  0
  -27.2871  -30.9736   25.5393 C   0  0  0  0  0  0  0  0  0  0  0  0
  -26.0815  -32.8822   26.6218 C   0  0  0  0  0  0  0  0  0  0  0  0
  -27.9461  -33.3310   25.0266 C   0  0  0  0  0  0  0  0  0  0  0  0
  -30.0067  -19.8557   22.5924 C   0  0  0  0  0  0  0  0  0  0  0  0
  -22.2413  -35.0109   21.6347 C   0  0  0  0  0  0  0  0  0  0  0  0
  -20.4813  -24.9140   23.7473 C   0  0  0  0  0  0  0  0  0  0  0  0
  -20.4261  -21.9890   23.2972 C   0  0  0  0  0  0  0  0  0  0  0  0
  -20.6505  -20.4713   23.3628 C   0  0  0  0  0  0  0  0  0  0  0  0
  -19.6358  -25.1770   22.4992 C   0  0  0  0  0  0  0  0  0  0  0  0
  -27.6393  -20.5352   22.4530 C   0  0  0  0  0  0  0  0  0  0  0  0
  -20.3520  -26.0214   21.4517 C   0  0  0  0  0  0  0  0  0  1  0  0
  -25.7329  -32.4886   24.1410 C   0  0  1  0  0  0  0  0  0  0  0  0
  -23.6104  -35.5895   23.6421 C   0  0  2  0  0  0  0  0  0  0  0  0
  -26.5539  -22.2400   24.8152 C   0  0  0  0  0  0  0  0  0  0  0  0
  -27.7015  -22.0526   22.6133 C   0  0  2  0  0  0  0  0  0  0  0  0
  -25.2171  -21.9376   22.7359 C   0  0  0  0  0  0  0  0  0  0  0  0
  -26.7480  -32.4005   25.3155 C   0  0  0  0  0  0  0  0  0  0  0  0
  -24.1157  -24.0382   23.1907 N   0  0  0  0  0  0  0  0  0  0  0  0
  -25.4809  -15.7115   20.1891 N   0  0  0  0  0  0  0  0  0  0  0  0
  -22.8207  -22.0128   23.0236 N   0  0  0  0  0  0  0  0  0  0  0  0
  -24.8470  -16.8895   20.3172 N   0  0  0  0  0  0  0  0  0  0  0  0
  -25.6777  -30.9171   22.2302 N   0  0  0  0  0  0  0  0  0  0  0  0
  -27.7726  -19.2874   19.7269 N   0  0  0  0  0  0  0  0  0  0  0  0
  -22.8077  -17.8709   21.0166 N   0  0  0  0  0  0  0  0  0  0  0  0
  -22.0739  -14.6944   22.9569 N   0  0  0  0  0  0  0  0  0  0  0  0
  -27.8186  -28.4365   20.6303 N   0  0  0  0  0  0  0  0  0  0  0  0
  -25.2263  -33.8332   23.8887 N   0  0  0  0  0  0  0  0  0  0  0  0
  -28.8055  -19.9701   21.7776 N   0  0  0  0  0  0  0  0  0  0  0  0
  -22.3136  -35.7448   22.9243 N   0  3  0  0  0  0  0  0  0  0  0  0
  -26.4932  -22.5199   23.3518 N   0  3  1  0  0  0  0  0  0  0  0  0
  -21.2475  -14.4623   20.8304 O   0  0  0  0  0  0  0  0  0  0  0  0
  -27.0637  -28.8445   22.7950 O   0  0  0  0  0  0  0  0  0  0  0  0
  -27.3062  -32.5800   22.3682 O   0  0  0  0  0  0  0  0  0  0  0  0
  -22.9842  -33.3196   24.1833 O   0  0  0  0  0  0  0  0  0  0  0  0
  -29.9350  -20.0875   19.7719 O   0  0  0  0  0  0  0  0  0  0  0  0
  -25.7877   -9.3732   20.7171 O   0  0  0  0  0  0  0  0  0  0  0  0
  -20.7024  -27.2755   22.0355 O   0  0  0  0  0  0  0  0  0  1  0  0
  -21.6112   -5.8311   21.3610 F   0  0  0  0  0  0  0  0  0  0  0  0
  -25.2342   -7.4680   18.7919 F   0  0  0  0  0  0  0  0  0  0  0  0
  1  2  1  0  0  0  0
  1  5  2  0  0  0  0
  2  6  2  0  0  0  0
  3  8  2  0  0  0  0
  3 16  1  0  0  0  0
  4  9  1  0  0  0  0
  4 16  2  0  0  0  0
  5 18  1  0  0  0  0
  6 20  1  0  0  0  0
  7 10  2  0  0  0  0
  7 19  1  0  0  0  0
  8 23  1  0  0  0  0
  9 23  2  0  0  0  0
 10 24  1  0  0  0  0
 11 12  2  0  0  0  0
 11 25  1  0  0  0  0
 12 26  1  0  0  0  0
 13 21  1  0  0  0  0
 13 24  2  0  0  0  0
 14 26  2  0  0  0  0
 14 27  1  0  0  0  0
 15 22  1  0  0  0  0
 15 73  2  0  0  0  0
 16 28  1  0  0  0  0
 17 28  1  0  0  0  0
 17 30  2  0  0  0  0
 17 32  1  0  0  0  0
 18 20  2  0  0  0  0
 18 37  1  0  0  0  0
 19 21  2  0  0  0  0
 19 38  1  0  0  0  0
 20 46  1  0  0  0  0
 21 39  1  0  0  0  0
 22 29  2  0  0  0  0
 22 61  1  0  0  0  0
 23 91  1  0  0  0  0
 24 92  1  0  0  0  0
 25 27  2  0  0  0  0
 25 91  1  0  0  0  0
 26 93  1  0  0  0  0
 27 94  1  0  0  0  0
 28 74  2  0  0  0  0
 29 62  1  0  0  0  0
 29 75  1  0  0  0  0
 30 76  1  0  0  0  0
 30 79  1  0  0  0  0
 31 71  1  0  0  0  0
 31 73  1  0  0  0  0
 31 75  2  0  0  0  0
 32 80  1  0  0  0  0
 32 86  2  0  0  0  0
 33 47  1  0  0  0  0
 33 81  1  0  0  0  0
 33 87  2  0  0  0  0
 34 67  1  0  0  0  0
 34 77  1  0  0  0  0
 34 88  2  0  0  0  0
 35 68  1  0  0  0  0
 35 82  1  0  0  0  0
 35 89  2  0  0  0  0
 36 78  1  0  0  0  0
 36 83  1  0  0  0  0
 36 90  2  0  0  0  0
 37 40  1  0  0  0  0
 38 47  1  0  0  0  0
 39 77  1  0  0  0  0
 40 42  1  0  0  0  0
 41 43  1  0  0  0  0
 41 44  1  0  0  0  0
 42 46  1  0  0  0  0
 43 48  1  0  0  0  0
 44 78  1  0  0  0  0
 45 48  1  0  0  0  0
 45 78  1  0  0  0  0
 46 81  1  0  0  0  0
 47 77  1  0  0  0  0
 48 76  1  0  0  0  0
 49 63  1  0  0  0  0
 50 68  1  0  0  0  0
 51 69  1  0  0  0  0
 52 69  1  0  0  0  0
 53 70  1  0  0  0  0
 54 71  1  0  0  0  0
 55 71  1  0  0  0  0
 56 72  1  0  0  0  0
 57 72  1  0  0  0  0
 58 72  1  0  0  0  0
 59 83  1  0  0  0  0
 60 84  1  0  0  0  0
 61 64  1  0  0  0  0
 62 63  1  0  0  0  0
 64 66  1  0  0  0  0
 65 70  1  0  0  0  0
 65 83  1  0  0  0  0
 66 92  1  0  0  0  0
 67 72  1  0  0  0  0
 67 82  1  0  0  0  0
 68 84  1  0  0  0  0
 69 85  1  0  0  0  0
 70 85  1  0  0  0  0
 71 85  1  0  0  0  0
 74 76  1  0  0  0  0
M  CHG  2  84   1  85   1
M  ISO  4  36 100  66 101  83 100  92 101
M  END
> <Batch ID>
0065

> <Smiles>
CCCc1nc(C(C)(C)N(C(C)C)C(C)C[100N:0](C)[100C:0](=O)N2CCCC(n3nc(-c4ccc(Oc5ccc(F)cc5F)cc4)c(C(N)=O)c3N)C2)ncc1CC[101CH2:1][101O:1]c1ccc2c(c1)CN(C(=O)C(NC(=O)C(C)NC)C(C)(C)C)C(C(=O)NC1CCCc3ccccc31)C2

> <Shape>
0.293

> <Color>
0.080

> <Negative vol penalty>
0.000

$$$$

  -OEChem-04052318073D

 90 98  0     1  0  0  0  0  0999 V2000
  -37.2617  -21.8923   19.4789 C   0  0  0  0  0  0  0  0  0  0  0  0
  -35.9783  -21.5270   19.0854 C   0  0  0  0  0  0  0  0  0  0  0  0
  -23.0909   -9.8692   19.9371 C   0  0  0  0  0  0  0  0  0  0  0  0
  -23.6910   -9.9586   22.2757 C   0  0  0  0  0  0  0  0  0  0  0  0
  -37.4605  -22.5211   20.7073 C   0  0  0  0  0  0  0  0  0  0  0  0
  -34.8930  -21.7893   19.9206 C   0  0  0  0  0  0  0  0  0  0  0  0
  -30.9376  -23.7216   17.4174 C   0  0  0  0  0  0  0  0  0  0  0  0
  -22.3316   -8.7237   20.1757 C   0  0  0  0  0  0  0  0  0  0  0  0
  -22.9317   -8.8132   22.5144 C   0  0  0  0  0  0  0  0  0  0  0  0
  -30.1509  -22.8327   16.6862 C   0  0  0  0  0  0  0  0  0  0  0  0
  -21.4435   -5.7066   23.6738 C   0  0  0  0  0  0  0  0  0  0  0  0
  -22.0063   -4.7101   24.4711 C   0  0  0  0  0  0  0  0  0  0  0  0
  -28.5327  -22.8031   18.4750 C   0  0  0  0  0  0  0  0  0  0  0  0
  -23.8236   -4.4766   22.8963 C   0  0  0  0  0  0  0  0  0  0  0  0
  -23.7707  -10.4866   20.9871 C   0  0  0  0  0  0  0  0  0  0  0  0
  -24.1200  -13.0068   20.8020 C   0  0  0  0  0  0  0  0  0  0  0  0
  -36.3759  -22.8000   21.5538 C   0  0  0  0  0  0  0  0  0  0  0  0
  -30.5324  -24.1502   18.6896 C   0  0  0  0  0  0  0  0  0  0  0  0
  -35.0776  -22.4213   21.1621 C   0  0  0  0  0  0  0  0  0  0  0  0
  -29.3148  -23.6996   19.2191 C   0  0  0  0  0  0  0  0  0  0  0  0
  -22.2520   -8.1957   21.4644 C   0  0  0  0  0  0  0  0  0  0  0  0
  -28.9496  -22.3710   17.2163 C   0  0  0  0  0  0  0  0  0  0  0  0
  -22.0706   -6.0881   22.4877 C   0  0  0  0  0  0  0  0  0  0  0  0
  -23.1964   -4.0951   24.0824 C   0  0  0  0  0  0  0  0  0  0  0  0
  -23.2607   -5.4731   22.0990 C   0  0  0  0  0  0  0  0  0  0  0  0
  -24.5557  -11.6696   20.7411 C   0  0  0  0  0  0  0  0  0  0  0  0
  -29.7552  -17.0035   17.0018 C   0  0  0  0  0  0  0  0  0  0  0  0
  -29.1083  -18.1290   17.4625 C   0  0  0  0  0  0  0  0  0  0  0  0
  -31.3689  -17.2771   18.5989 C   0  0  0  0  0  0  0  0  0  0  0  0
  -30.7224  -18.4031   19.0592 C   0  0  0  0  0  0  0  0  0  0  0  0
  -25.2345  -13.7457   20.4886 C   0  0  0  0  0  0  0  0  0  0  0  0
  -22.8236  -13.5339   21.1140 C   0  0  0  0  0  0  0  0  0  0  0  0
  -31.7221  -23.8971   21.6263 C   0  0  0  0  0  0  0  0  0  0  0  0
  -29.2482  -25.8562   22.3771 C   0  0  0  0  0  0  0  0  0  0  0  0
  -26.1456  -27.0381   21.5872 C   0  0  0  0  0  0  0  0  0  0  0  0
  -30.4686  -14.9141   20.9362 C   0  0  0  0  0  0  0  0  0  0  0  0
  -36.6458  -23.4389   22.8931 C   0  0  0  0  0  0  0  0  0  0  0  0
  -31.3795  -25.1302   19.4542 C   0  0  0  0  0  0  0  0  0  0  0  0
  -28.8250  -24.1452   20.5719 C   0  0  0  0  0  0  0  0  0  0  0  0
  -35.3978  -24.0185   23.5540 C   0  0  0  0  0  0  0  0  0  0  0  0
  -29.7167  -12.3415   18.6365 C   0  0  0  0  0  0  0  0  0  0  0  0
  -34.2450  -23.0221   23.4841 C   0  0  0  0  0  0  0  0  0  0  0  0
  -28.2620  -12.0352   18.9902 C   0  0  0  0  0  0  0  0  0  0  0  0
  -30.5665  -12.6082   19.8803 C   0  0  0  0  0  0  0  0  0  0  0  0
  -28.5589  -13.3487   21.1228 C   0  0  0  0  0  0  0  0  0  0  0  0
  -33.8719  -22.7112   22.0296 C   0  0  1  0  0  0  0  0  0  0  0  0
  -31.1191  -25.0997   20.9570 C   0  0  1  0  0  0  0  0  0  0  0  0
  -27.6704  -13.1360   19.8875 C   0  0  2  0  0  0  0  0  0  0  0  0
  -29.2228  -16.2156   15.8542 C   0  0  0  0  0  0  0  0  0  0  0  0
  -24.3652  -28.6031   22.4109 C   0  0  0  0  0  0  0  0  0  0  0  0
  -33.8311  -17.8047   19.1953 C   0  0  0  0  0  0  0  0  0  0  0  0
  -33.1611  -15.5243   18.4834 C   0  0  0  0  0  0  0  0  0  0  0  0
  -28.4403  -23.8169   24.4981 C   0  0  0  0  0  0  0  0  0  0  0  0
  -26.1999  -24.9284   24.6137 C   0  0  0  0  0  0  0  0  0  0  0  0
  -28.2558  -26.2036   25.2219 C   0  0  0  0  0  0  0  0  0  0  0  0
  -32.8080  -13.9967   21.2373 C   0  0  0  0  0  0  0  0  0  0  0  0
  -26.3233  -28.7083   19.1504 C   0  0  0  0  0  0  0  0  0  0  0  0
  -27.8306  -18.6167   16.8276 C   0  0  0  0  0  0  0  0  0  0  0  0
  -28.0409  -19.3325   15.4916 C   0  0  0  0  0  0  0  0  0  0  0  0
  -32.4382  -16.3828   20.7317 C   0  0  0  0  0  0  0  0  0  0  0  0
  -28.8556  -20.6148   15.6153 C   0  0  0  0  0  0  0  0  0  1  0  0
  -27.8118  -25.6525   22.7947 C   0  0  1  0  0  0  0  0  0  0  0  0
  -25.5914  -28.4500   21.5245 C   0  0  2  0  0  0  0  0  0  0  0  0
  -32.6312  -16.7942   19.2273 C   0  0  0  0  0  0  0  0  0  0  0  0
  -31.2553  -19.1910   20.2067 C   0  0  0  0  0  0  0  0  0  0  0  0
  -27.6869  -25.1402   24.2574 C   0  0  0  0  0  0  0  0  0  0  0  0
  -25.8464  -11.5622   20.4145 N   0  0  0  0  0  0  0  0  0  0  0  0
  -30.8971  -16.5573   17.5618 N   0  0  0  0  0  0  0  0  0  0  0  0
  -29.5804  -18.8490   18.4995 N   0  0  0  0  0  0  0  0  0  0  0  0
  -26.2312  -12.8414   20.2673 N   0  0  0  0  0  0  0  0  0  0  0  0
  -29.6917  -25.0992   21.2835 N   0  0  0  0  0  0  0  0  0  0  0  0
  -29.9423  -13.6301   20.7318 N   0  0  0  0  0  0  0  0  0  0  0  0
  -25.4495  -15.0743   20.3834 N   0  0  0  0  0  0  0  0  0  0  0  0
  -21.7909  -12.6347   21.4127 N   0  0  0  0  0  0  0  0  0  0  0  0
  -33.0906  -23.7913   21.4663 N   0  0  0  0  0  0  0  0  0  0  0  0
  -27.1306  -26.9181   22.5446 N   0  0  0  0  0  0  0  0  0  0  0  0
  -31.8635  -15.0530   20.8789 N   0  0  0  0  0  0  0  0  0  0  0  0
  -25.2066  -28.7939   20.1265 N   0  3  0  0  0  0  0  0  0  0  0  0
  -22.5840  -14.7652   21.1116 O   0  0  0  0  0  0  0  0  0  0  0  0
  -30.9995  -23.1234   22.2434 O   0  0  0  0  0  0  0  0  0  0  0  0
  -29.9487  -26.6628   22.9939 O   0  0  0  0  0  0  0  0  0  0  0  0
  -25.7423  -26.1315   20.8621 O   0  0  0  0  0  0  0  0  0  0  0  0
  -29.7337  -15.8833   21.1656 O   0  0  0  0  0  0  0  0  0  0  0  0
  -21.5109   -7.0781   21.6976 O   0  0  0  0  0  0  0  0  0  0  0  0
  -28.1801  -21.5028   16.5050 O   0  0  0  0  0  0  0  0  0  1  0  0
  -23.7376   -3.1392   24.8489 F   0  0  0  0  0  0  0  0  0  0  0  0
  -23.8684   -5.8362   20.9611 F   0  0  0  0  0  0  0  0  0  0  0  0
  -32.4133  -18.6864   20.7278 F   0  0  0  0  0  0  0  0  0  0  0  0
  -31.5432  -20.4892   19.8930 F   0  0  0  0  0  0  0  0  0  0  0  0
  -30.3808  -19.2534   21.2533 F   0  0  0  0  0  0  0  0  0  0  0  0
  1  2  1  0  0  0  0
  1  5  2  0  0  0  0
  2  6  2  0  0  0  0
  3  8  2  0  0  0  0
  3 15  1  0  0  0  0
  4  9  1  0  0  0  0
  4 15  2  0  0  0  0
  5 17  1  0  0  0  0
  6 19  1  0  0  0  0
  7 10  2  0  0  0  0
  7 18  1  0  0  0  0
  8 21  1  0  0  0  0
  9 21  2  0  0  0  0
 10 22  1  0  0  0  0
 11 12  2  0  0  0  0
 11 23  1  0  0  0  0
 12 24  1  0  0  0  0
 13 20  1  0  0  0  0
 13 22  2  0  0  0  0
 14 24  2  0  0  0  0
 14 25  1  0  0  0  0
 15 26  1  0  0  0  0
 16 26  1  0  0  0  0
 16 31  2  0  0  0  0
 16 32  1  0  0  0  0
 17 19  2  0  0  0  0
 17 37  1  0  0  0  0
 18 20  2  0  0  0  0
 18 38  1  0  0  0  0
 19 46  1  0  0  0  0
 20 39  1  0  0  0  0
 21 84  1  0  0  0  0
 22 85  1  0  0  0  0
 23 25  2  0  0  0  0
 23 84  1  0  0  0  0
 24 86  1  0  0  0  0
 25 87  1  0  0  0  0
 26 67  2  0  0  0  0
 27 28  2  0  0  0  0
 27 49  1  0  0  0  0
 27 68  1  0  0  0  0
 28 58  1  0  0  0  0
 28 69  1  0  0  0  0
 29 30  1  0  0  0  0
 29 64  1  0  0  0  0
 29 68  2  0  0  0  0
 30 65  1  0  0  0  0
 30 69  2  0  0  0  0
 31 70  1  0  0  0  0
 31 73  1  0  0  0  0
 32 74  1  0  0  0  0
 32 79  2  0  0  0  0
 33 47  1  0  0  0  0
 33 75  1  0  0  0  0
 33 80  2  0  0  0  0
 34 62  1  0  0  0  0
 34 71  1  0  0  0  0
 34 81  2  0  0  0  0
 35 63  1  0  0  0  0
 35 76  1  0  0  0  0
 35 82  2  0  0  0  0
 36 72  1  0  0  0  0
 36 77  1  0  0  0  0
 36 83  2  0  0  0  0
 37 40  1  0  0  0  0
 38 47  1  0  0  0  0
 39 71  1  0  0  0  0
 40 42  1  0  0  0  0
 41 43  1  0  0  0  0
 41 44  1  0  0  0  0
 42 46  1  0  0  0  0
 43 48  1  0  0  0  0
 44 72  1  0  0  0  0
 45 48  1  0  0  0  0
 45 72  1  0  0  0  0
 46 75  1  0  0  0  0
 47 71  1  0  0  0  0
 48 70  1  0  0  0  0
 50 63  1  0  0  0  0
 51 64  1  0  0  0  0
 52 64  1  0  0  0  0
 53 66  1  0  0  0  0
 54 66  1  0  0  0  0
 55 66  1  0  0  0  0
 56 77  1  0  0  0  0
 57 78  1  0  0  0  0
 58 59  1  0  0  0  0
 59 61  1  0  0  0  0
 60 64  1  0  0  0  0
 60 77  1  0  0  0  0
 61 85  1  0  0  0  0
 62 66  1  0  0  0  0
 62 76  1  0  0  0  0
 63 78  1  0  0  0  0
 65 88  1  0  0  0  0
 65 89  1  0  0  0  0
 65 90  1  0  0  0  0
 67 70  1  0  0  0  0
M  CHG  1  78   1
M  ISO  4  36 100  61 101  77 100  85 101
M  END
> <Batch ID>
0065

> <Smiles>
CNC(C)C(=O)NC(C(=O)N1Cc2cc([101O:1][101CH2:1]CCc3nc(C(F)(F)F)c(C(C)(C)C[100N:0](C)[100C:0](=O)N4CCCC(n5nc(-c6ccc(Oc7ccc(F)cc7F)cc6)c(C(N)=O)c5N)C4)nc3C)ccc2CC1C(=O)NC1CCCc2ccccc21)C(C)(C)C

> <Shape>
0.250

> <Color>
0.177

> <Negative vol penalty>
0.000

$$$$

  -OEChem-04052318073D

 87 95  0     1  0  0  0  0  0999 V2000
  -21.8520  -32.5564   23.5949 C   0  0  0  0  0  0  0  0  0  0  0  0
  -21.3301  -31.2675   23.5519 C   0  0  0  0  0  0  0  0  0  0  0  0
  -23.0999   -9.8541   19.9860 C   0  0  0  0  0  0  0  0  0  0  0  0
  -23.7073   -9.9481   22.3225 C   0  0  0  0  0  0  0  0  0  0  0  0
  -22.7463  -32.9784   22.6120 C   0  0  0  0  0  0  0  0  0  0  0  0
  -21.7015  -30.4002   22.5251 C   0  0  0  0  0  0  0  0  0  0  0  0
  -24.8381  -24.0772   23.9650 C   0  0  0  0  0  0  0  0  0  0  0  0
  -22.3259   -8.7202   20.2328 C   0  0  0  0  0  0  0  0  0  0  0  0
  -22.9333   -8.8142   22.5693 C   0  0  0  0  0  0  0  0  0  0  0  0
  -25.2501  -22.7598   24.1674 C   0  0  0  0  0  0  0  0  0  0  0  0
  -20.4779   -5.5888   20.1825 C   0  0  0  0  0  0  0  0  0  0  0  0
  -20.5891   -4.5198   19.2934 C   0  0  0  0  0  0  0  0  0  0  0  0
  -25.4343  -22.4390   21.7775 C   0  0  0  0  0  0  0  0  0  0  0  0
  -22.9434   -4.3391   19.8050 C   0  0  0  0  0  0  0  0  0  0  0  0
  -23.7906  -10.4681   21.0308 C   0  0  0  0  0  0  0  0  0  0  0  0
  -24.1730  -12.9823   20.8312 C   0  0  0  0  0  0  0  0  0  0  0  0
  -23.1362  -32.1125   21.5782 C   0  0  0  0  0  0  0  0  0  0  0  0
  -24.7372  -24.5858   22.6671 C   0  0  0  0  0  0  0  0  0  0  0  0
  -22.6008  -30.8114   21.5267 C   0  0  0  0  0  0  0  0  0  0  0  0
  -25.0341  -23.7616   21.5691 C   0  0  0  0  0  0  0  0  0  0  0  0
  -22.2427   -8.2003   21.5244 C   0  0  0  0  0  0  0  0  0  0  0  0
  -25.5473  -21.9428   23.0763 C   0  0  0  0  0  0  0  0  0  0  0  0
  -21.5995   -6.0330   20.8828 C   0  0  0  0  0  0  0  0  0  0  0  0
  -21.8218   -3.8949   19.1047 C   0  0  0  0  0  0  0  0  0  0  0  0
  -22.8322   -5.4082   20.6941 C   0  0  0  0  0  0  0  0  0  0  0  0
  -24.5907  -11.6391   20.7764 C   0  0  0  0  0  0  0  0  0  0  0  0
  -25.2966  -13.7045   20.5109 C   0  0  0  0  0  0  0  0  0  0  0  0
  -30.6009  -16.7545   21.7068 C   0  0  0  0  0  0  0  0  0  0  0  0
  -32.3368  -15.6597   21.0016 C   0  0  0  0  0  0  0  0  0  0  0  0
  -22.8847  -13.5284   21.1437 C   0  0  0  0  0  0  0  0  0  0  0  0
  -23.9310  -27.5265   20.4812 C   0  0  0  0  0  0  0  0  0  0  0  0
  -26.3930  -26.1599   19.2640 C   0  0  0  0  0  0  0  0  0  0  0  0
  -29.3320  -24.6134   18.4844 C   0  0  0  0  0  0  0  0  0  0  0  0
  -30.9799  -12.7085   21.0719 C   0  0  0  0  0  0  0  0  0  0  0  0
  -24.0691  -32.6292   20.5116 C   0  0  0  0  0  0  0  0  0  0  0  0
  -24.2382  -25.9797   22.3995 C   0  0  0  0  0  0  0  0  0  0  0  0
  -24.8781  -24.3408   20.1896 C   0  0  0  0  0  0  0  0  0  0  0  0
  -24.7010  -31.5249   19.6681 C   0  0  0  0  0  0  0  0  0  0  0  0
  -29.3588  -13.4176   18.0155 C   0  0  0  0  0  0  0  0  0  0  0  0
  -23.6439  -30.5159   19.2310 C   0  0  0  0  0  0  0  0  0  0  0  0
  -27.8974  -13.1624   18.3818 C   0  0  0  0  0  0  0  0  0  0  0  0
  -30.2978  -12.3888   18.6482 C   0  0  0  0  0  0  0  0  0  0  0  0
  -28.6806  -12.0040   20.4810 C   0  0  0  0  0  0  0  0  0  0  0  0
  -22.9986  -29.8330   20.4429 C   0  0  1  0  0  0  0  0  0  0  0  0
  -24.9161  -26.6408   21.1860 C   0  0  1  0  0  0  0  0  0  0  0  0
  -27.7225  -13.0591   19.9068 C   0  0  2  0  0  0  0  0  0  0  0  0
  -32.6018  -16.7476   24.2651 C   0  0  0  0  0  0  0  0  0  0  0  0
  -31.2103  -24.6763   16.8215 C   0  0  0  0  0  0  0  0  0  0  0  0
  -34.7670  -15.3941   21.8503 C   0  0  0  0  0  0  0  0  0  0  0  0
  -34.1351  -14.6566   19.5672 C   0  0  0  0  0  0  0  0  0  0  0  0
  -24.5988  -24.8207   17.1924 C   0  0  0  0  0  0  0  0  0  0  0  0
  -26.6642  -24.0668   15.9949 C   0  0  0  0  0  0  0  0  0  0  0  0
  -26.1961  -26.5029   16.2580 C   0  0  0  0  0  0  0  0  0  0  0  0
  -32.9163  -11.6535   19.8300 C   0  0  0  0  0  0  0  0  0  0  0  0
  -31.3315  -25.1860   20.5900 C   0  0  0  0  0  0  0  0  0  0  0  0
  -29.5747  -17.3395   22.6441 C   0  0  0  0  0  0  0  0  0  0  0  0
  -28.6965  -18.4203   22.0041 C   0  0  0  0  0  0  0  0  0  0  0  0
  -27.7147  -19.0553   22.9899 C   0  0  0  0  0  0  0  0  0  0  0  0
  -31.9595  -15.6131   23.4854 C   0  0  0  0  0  0  0  0  0  0  0  0
  -33.3045  -13.3696   21.5592 C   0  0  0  0  0  0  0  0  0  0  0  0
  -26.8334  -20.0945   22.3101 C   0  0  0  0  0  0  0  0  0  1  0  0
  -26.9206  -25.1555   18.2709 C   0  0  1  0  0  0  0  0  0  0  0  0
  -30.7100  -25.1678   18.1708 C   0  0  2  0  0  0  0  0  0  0  0  0
  -33.5545  -14.8298   21.0158 C   0  0  0  0  0  0  0  0  0  0  0  0
  -26.0907  -25.1296   16.9564 C   0  0  0  0  0  0  0  0  0  0  0  0
  -25.8789  -11.5126   20.4471 N   0  0  0  0  0  0  0  0  0  0  0  0
  -30.6452  -16.8839   20.4000 N   0  0  0  0  0  0  0  0  0  0  0  0
  -31.7496  -16.1875   19.9514 N   0  0  0  0  0  0  0  0  0  0  0  0
  -26.2804  -12.7857   20.2920 N   0  0  0  0  0  0  0  0  0  0  0  0
  -31.6472  -15.9912   22.1283 N   0  0  0  0  0  0  0  0  0  0  0  0
  -25.4121  -25.7114   20.1569 N   0  0  0  0  0  0  0  0  0  0  0  0
  -30.0651  -12.2877   20.0954 N   0  0  0  0  0  0  0  0  0  0  0  0
  -25.5289  -15.0295   20.3979 N   0  0  0  0  0  0  0  0  0  0  0  0
  -21.8408  -12.6447   21.4499 N   0  0  0  0  0  0  0  0  0  0  0  0
  -23.8779  -28.8152   20.9771 N   0  0  0  0  0  0  0  0  0  0  0  0
  -28.3319  -25.4724   18.0805 N   0  0  0  0  0  0  0  0  0  0  0  0
  -32.3432  -12.6351   20.7488 N   0  0  0  0  0  0  0  0  0  0  0  0
  -31.6869  -24.7488   19.2154 N   0  3  0  0  0  0  0  0  0  0  0  0
  -22.6615  -14.7628   21.1352 O   0  0  0  0  0  0  0  0  0  0  0  0
  -23.2683  -27.0754   19.5544 O   0  0  0  0  0  0  0  0  0  0  0  0
  -26.8326  -27.3130   19.2470 O   0  0  0  0  0  0  0  0  0  0  0  0
  -29.1600  -23.5254   19.0296 O   0  0  0  0  0  0  0  0  0  0  0  0
  -30.6010  -13.1201   22.1760 O   0  0  0  0  0  0  0  0  0  0  0  0
  -21.4874   -7.0940   21.7656 O   0  0  0  0  0  0  0  0  0  0  0  0
  -25.9534  -20.6591   23.2812 O   0  0  0  0  0  0  0  0  0  1  0  0
  -21.9280   -2.8673   18.2521 F   0  0  0  0  0  0  0  0  0  0  0  0
  -23.9130   -5.8297   21.3649 F   0  0  0  0  0  0  0  0  0  0  0  0
  1  2  1  0  0  0  0
  1  5  2  0  0  0  0
  2  6  2  0  0  0  0
  3  8  2  0  0  0  0
  3 15  1  0  0  0  0
  4  9  1  0  0  0  0
  4 15  2  0  0  0  0
  5 17  1  0  0  0  0
  6 19  1  0  0  0  0
  7 10  2  0  0  0  0
  7 18  1  0  0  0  0
  8 21  1  0  0  0  0
  9 21  2  0  0  0  0
 10 22  1  0  0  0  0
 11 12  2  0  0  0  0
 11 23  1  0  0  0  0
 12 24  1  0  0  0  0
 13 20  1  0  0  0  0
 13 22  2  0  0  0  0
 14 24  2  0  0  0  0
 14 25  1  0  0  0  0
 15 26  1  0  0  0  0
 16 26  1  0  0  0  0
 16 27  2  0  0  0  0
 16 30  1  0  0  0  0
 17 19  2  0  0  0  0
 17 35  1  0  0  0  0
 18 20  2  0  0  0  0
 18 36  1  0  0  0  0
 19 44  1  0  0  0  0
 20 37  1  0  0  0  0
 21 84  1  0  0  0  0
 22 85  1  0  0  0  0
 23 25  2  0  0  0  0
 23 84  1  0  0  0  0
 24 86  1  0  0  0  0
 25 87  1  0  0  0  0
 26 66  2  0  0  0  0
 27 69  1  0  0  0  0
 27 73  1  0  0  0  0
 28 56  1  0  0  0  0
 28 67  2  0  0  0  0
 28 70  1  0  0  0  0
 29 64  1  0  0  0  0
 29 68  2  0  0  0  0
 29 70  1  0  0  0  0
 30 74  1  0  0  0  0
 30 79  2  0  0  0  0
 31 45  1  0  0  0  0
 31 75  1  0  0  0  0
 31 80  2  0  0  0  0
 32 62  1  0  0  0  0
 32 71  1  0  0  0  0
 32 81  2  0  0  0  0
 33 63  1  0  0  0  0
 33 76  1  0  0  0  0
 33 82  2  0  0  0  0
 34 72  1  0  0  0  0
 34 77  1  0  0  0  0
 34 83  2  0  0  0  0
 35 38  1  0  0  0  0
 36 45  1  0  0  0  0
 37 71  1  0  0  0  0
 38 40  1  0  0  0  0
 39 41  1  0  0  0  0
 39 42  1  0  0  0  0
 40 44  1  0  0  0  0
 41 46  1  0  0  0  0
 42 72  1  0  0  0  0
 43 46  1  0  0  0  0
 43 72  1  0  0  0  0
 44 75  1  0  0  0  0
 45 71  1  0  0  0  0
 46 69  1  0  0  0  0
 47 59  1  0  0  0  0
 48 63  1  0  0  0  0
 49 64  1  0  0  0  0
 50 64  1  0  0  0  0
 51 65  1  0  0  0  0
 52 65  1  0  0  0  0
 53 65  1  0  0  0  0
 54 77  1  0  0  0  0
 55 78  1  0  0  0  0
 56 57  1  0  0  0  0
 57 58  1  0  0  0  0
 58 61  1  0  0  0  0
 59 70  1  0  0  0  0
 60 64  1  0  0  0  0
 60 77  1  0  0  0  0
 61 85  1  0  0  0  0
 62 65  1  0  0  0  0
 62 76  1  0  0  0  0
 63 78  1  0  0  0  0
 66 69  1  0  0  0  0
 67 68  1  0  0  0  0
M  CHG  1  78   1
M  ISO  4  34 100  61 101  77 100  85 101
M  END
> <Batch ID>
0065

> <Smiles>
CCn1c(CCC[101CH2:1][101O:1]c2ccc3c(c2)CN(C(=O)C(NC(=O)C(C)NC)C(C)(C)C)C(C(=O)NC2CCCc4ccccc42)C3)nnc1C(C)(C)C[100N:0](C)[100C:0](=O)N1CCCC(n2nc(-c3ccc(Oc4ccc(F)cc4F)cc3)c(C(N)=O)c2N)C1

> <Shape>
0.263

> <Color>
0.197

> <Negative vol penalty>
0.000

$$$$

  -OEChem-04052318073D

 90 98  0     1  0  0  0  0  0999 V2000
  -34.1194  -25.6684   28.4327 C   0  0  0  0  0  0  0  0  0  0  0  0
  -33.9184  -24.8523   27.3241 C   0  0  0  0  0  0  0  0  0  0  0  0
  -23.1961   -9.8336   19.9154 C   0  0  0  0  0  0  0  0  0  0  0  0
  -23.7078   -9.9532   22.2735 C   0  0  0  0  0  0  0  0  0  0  0  0
  -33.1757  -26.6407   28.7614 C   0  0  0  0  0  0  0  0  0  0  0  0
  -32.7730  -25.0073   26.5441 C   0  0  0  0  0  0  0  0  0  0  0  0
  -32.3185  -24.2633   20.4823 C   0  0  0  0  0  0  0  0  0  0  0  0
  -22.4675   -8.6641   20.1328 C   0  0  0  0  0  0  0  0  0  0  0  0
  -22.9792   -8.7838   22.4910 C   0  0  0  0  0  0  0  0  0  0  0  0
  -31.8719  -23.2002   19.6986 C   0  0  0  0  0  0  0  0  0  0  0  0
  -23.4348   -5.4562   22.1028 C   0  0  0  0  0  0  0  0  0  0  0  0
  -24.0034   -4.4813   22.9224 C   0  0  0  0  0  0  0  0  0  0  0  0
  -29.6954  -24.2300   19.5525 C   0  0  0  0  0  0  0  0  0  0  0  0
  -22.1259   -4.6560   24.4329 C   0  0  0  0  0  0  0  0  0  0  0  0
  -28.4267  -18.3248   20.8957 C   0  0  0  0  0  0  0  0  0  0  0  0
  -23.8163  -10.4781   20.9858 C   0  0  0  0  0  0  0  0  0  0  0  0
  -24.0872  -13.0078   20.7995 C   0  0  0  0  0  0  0  0  0  0  0  0
  -32.0229  -26.8142   27.9794 C   0  0  0  0  0  0  0  0  0  0  0  0
  -31.4522  -25.3142   20.8166 C   0  0  0  0  0  0  0  0  0  0  0  0
  -31.8123  -25.9819   26.8634 C   0  0  0  0  0  0  0  0  0  0  0  0
  -30.1341  -25.3066   20.3384 C   0  0  0  0  0  0  0  0  0  0  0  0
  -27.3229  -19.0952   21.1684 C   0  0  0  0  0  0  0  0  0  0  0  0
  -22.3591   -8.1393   21.4206 C   0  0  0  0  0  0  0  0  0  0  0  0
  -30.5594  -23.1820   19.2360 C   0  0  0  0  0  0  0  0  0  0  0  0
  -22.2117   -6.0311   22.4483 C   0  0  0  0  0  0  0  0  0  0  0  0
  -23.3490   -4.0812   24.0874 C   0  0  0  0  0  0  0  0  0  0  0  0
  -21.5573   -5.6310   23.6133 C   0  0  0  0  0  0  0  0  0  0  0  0
  -24.5695  -11.6858   20.7617 C   0  0  0  0  0  0  0  0  0  0  0  0
  -27.1164  -18.9370   22.5519 C   0  0  0  0  0  0  0  0  0  0  0  0
  -25.1869  -13.7826   20.5224 C   0  0  0  0  0  0  0  0  0  0  0  0
  -22.7634  -13.4922   21.0618 C   0  0  0  0  0  0  0  0  0  0  0  0
  -30.2921  -26.4869   23.5337 C   0  0  0  0  0  0  0  0  0  0  0  0
  -29.0726  -28.7667   21.5748 C   0  0  0  0  0  0  0  0  0  0  0  0
  -28.0610  -29.6528   18.4382 C   0  0  0  0  0  0  0  0  0  0  0  0
  -30.9746  -13.4846   21.7462 C   0  0  0  0  0  0  0  0  0  0  0  0
  -31.0080  -27.8469   28.4015 C   0  0  0  0  0  0  0  0  0  0  0  0
  -31.9569  -26.4669   21.6406 C   0  0  0  0  0  0  0  0  0  0  0  0
  -29.1702  -26.4206   20.6522 C   0  0  0  0  0  0  0  0  0  0  0  0
  -30.0040  -28.1974   27.3064 C   0  0  0  0  0  0  0  0  0  0  0  0
  -29.5562  -13.0125   18.3599 C   0  0  0  0  0  0  0  0  0  0  0  0
  -29.4669  -26.9300   26.6490 C   0  0  0  0  0  0  0  0  0  0  0  0
  -28.0958  -12.6744   18.6546 C   0  0  0  0  0  0  0  0  0  0  0  0
  -30.4775  -12.5901   19.5003 C   0  0  0  0  0  0  0  0  0  0  0  0
  -28.6225  -12.7982   21.1220 C   0  0  0  0  0  0  0  0  0  0  0  0
  -30.5945  -26.1361   25.9784 C   0  0  1  0  0  0  0  0  0  0  0  0
  -30.8410  -27.2293   22.3483 C   0  0  1  0  0  0  0  0  0  0  0  0
  -27.6621  -13.2529   20.0128 C   0  0  2  0  0  0  0  0  0  0  0  0
  -26.0616  -19.5437   23.3828 C   0  0  0  0  0  0  0  0  0  0  0  0
  -27.0751  -31.5705   17.1546 C   0  0  0  0  0  0  0  0  0  0  0  0
  -26.5713  -21.4300   20.6604 C   0  0  0  0  0  0  0  0  0  0  0  0
  -24.9670  -19.6452   20.2923 C   0  0  0  0  0  0  0  0  0  0  0  0
  -26.3385  -28.1730   22.7924 C   0  0  0  0  0  0  0  0  0  0  0  0
  -25.2949  -29.3830   20.8650 C   0  0  0  0  0  0  0  0  0  0  0  0
  -26.8123  -30.6011   22.4260 C   0  0  0  0  0  0  0  0  0  0  0  0
  -26.8954  -18.3030   18.1607 C   0  0  0  0  0  0  0  0  0  0  0  0
  -26.0573  -20.5672   17.6446 C   0  0  0  0  0  0  0  0  0  0  0  0
  -29.5911  -19.5140   19.0819 C   0  0  0  0  0  0  0  0  0  0  0  0
  -31.5984  -14.9525   23.6266 C   0  0  0  0  0  0  0  0  0  0  0  0
  -30.4197  -29.8258   16.6591 C   0  0  0  0  0  0  0  0  0  0  0  0
  -29.9140  -16.8826   22.3054 C   0  0  0  0  0  0  0  0  0  0  0  0
  -29.4939  -15.4202   22.4275 C   0  0  0  0  0  0  0  0  0  0  0  0
  -28.7334  -21.8118   18.5697 C   0  0  0  0  0  0  0  0  0  1  0  0
  -27.7896  -28.9330   20.7968 C   0  0  1  0  0  0  0  0  0  0  0  0
  -28.3565  -30.8788   17.5933 C   0  0  2  0  0  0  0  0  0  0  0  0
  -26.4967  -19.9453   20.1653 C   0  0  0  0  0  0  0  0  0  0  0  0
  -26.5762  -29.2504   21.7156 C   0  0  0  0  0  0  0  0  0  0  0  0
  -27.0084  -19.7901   18.6077 C   0  0  0  0  0  0  0  0  0  0  0  0
  -28.5037  -20.3093   18.3280 C   0  0  2  0  0  0  0  0  0  0  0  0
  -25.8740  -11.6206   20.4824 N   0  0  0  0  0  0  0  0  0  0  0  0
  -28.0167  -18.1294   23.1186 N   0  0  0  0  0  0  0  0  0  0  0  0
  -28.7996  -17.7731   22.0860 N   0  0  0  0  0  0  0  0  0  0  0  0
  -26.2207  -12.9114   20.3421 N   0  0  0  0  0  0  0  0  0  0  0  0
  -29.7093  -27.5223   21.4665 N   0  0  0  0  0  0  0  0  0  0  0  0
  -30.0180  -13.1177   20.7854 N   0  0  0  0  0  0  0  0  0  0  0  0
  -25.3607  -15.1172   20.4177 N   0  0  0  0  0  0  0  0  0  0  0  0
  -21.7513  -12.5599   21.3279 N   0  0  0  0  0  0  0  0  0  0  0  0
  -30.9591  -26.7435   24.7164 N   0  0  0  0  0  0  0  0  0  0  0  0
  -28.0549  -29.9498   19.7847 N   0  0  0  0  0  0  0  0  0  0  0  0
  -30.6352  -14.5282   22.6206 N   0  0  0  0  0  0  0  0  0  0  0  0
  -29.1245  -30.4956   16.3750 N   0  3  0  0  0  0  0  0  0  0  0  0
  -22.4828  -14.7147   21.0439 O   0  0  0  0  0  0  0  0  0  0  0  0
  -29.3335  -25.7378   23.3865 O   0  0  0  0  0  0  0  0  0  0  0  0
  -29.4980  -29.7088   22.2481 O   0  0  0  0  0  0  0  0  0  0  0  0
  -27.8525  -28.5433   17.9522 O   0  0  0  0  0  0  0  0  0  0  0  0
  -32.0732  -12.9185   21.8122 O   0  0  0  0  0  0  0  0  0  0  0  0
  -21.6480   -6.9983   21.6331 O   0  0  0  0  0  0  0  0  0  0  0  0
  -30.1185  -22.1397   18.4674 O   0  0  0  0  0  0  0  0  0  1  0  0
  -23.8945   -3.1438   24.8736 F   0  0  0  0  0  0  0  0  0  0  0  0
  -20.3815   -6.1788   23.9498 F   0  0  0  0  0  0  0  0  0  0  0  0
  -28.7696  -20.0912   16.9966 F   0  0  0  0  0  0  0  0  0  0  0  0
  1  2  1  0  0  0  0
  1  5  2  0  0  0  0
  2  6  2  0  0  0  0
  3  8  2  0  0  0  0
  3 16  1  0  0  0  0
  4  9  1  0  0  0  0
  4 16  2  0  0  0  0
  5 18  1  0  0  0  0
  6 20  1  0  0  0  0
  7 10  2  0  0  0  0
  7 19  1  0  0  0  0
  8 23  1  0  0  0  0
  9 23  2  0  0  0  0
 10 24  1  0  0  0  0
 11 12  2  0  0  0  0
 11 25  1  0  0  0  0
 12 26  1  0  0  0  0
 13 21  1  0  0  0  0
 13 24  2  0  0  0  0
 14 26  2  0  0  0  0
 14 27  1  0  0  0  0
 15 22  2  0  0  0  0
 15 71  1  0  0  0  0
 16 28  1  0  0  0  0
 17 28  1  0  0  0  0
 17 30  2  0  0  0  0
 17 31  1  0  0  0  0
 18 20  2  0  0  0  0
 18 36  1  0  0  0  0
 19 21  2  0  0  0  0
 19 37  1  0  0  0  0
 20 45  1  0  0  0  0
 21 38  1  0  0  0  0
 22 29  1  0  0  0  0
 22 65  1  0  0  0  0
 23 86  1  0  0  0  0
 24 87  1  0  0  0  0
 25 27  2  0  0  0  0
 25 86  1  0  0  0  0
 26 88  1  0  0  0  0
 27 89  1  0  0  0  0
 28 69  2  0  0  0  0
 29 48  1  0  0  0  0
 29 70  2  0  0  0  0
 30 72  1  0  0  0  0
 30 75  1  0  0  0  0
 31 76  1  0  0  0  0
 31 81  2  0  0  0  0
 32 46  1  0  0  0  0
 32 77  1  0  0  0  0
 32 82  2  0  0  0  0
 33 63  1  0  0  0  0
 33 73  1  0  0  0  0
 33 83  2  0  0  0  0
 34 64  1  0  0  0  0
 34 78  1  0  0  0  0
 34 84  2  0  0  0  0
 35 74  1  0  0  0  0
 35 79  1  0  0  0  0
 35 85  2  0  0  0  0
 36 39  1  0  0  0  0
 37 46  1  0  0  0  0
 38 73  1  0  0  0  0
 39 41  1  0  0  0  0
 40 42  1  0  0  0  0
 40 43  1  0  0  0  0
 41 45  1  0  0  0  0
 42 47  1  0  0  0  0
 43 74  1  0  0  0  0
 44 47  1  0  0  0  0
 44 74  1  0  0  0  0
 45 77  1  0  0  0  0
 46 73  1  0  0  0  0
 47 72  1  0  0  0  0
 49 64  1  0  0  0  0
 50 65  1  0  0  0  0
 51 65  1  0  0  0  0
 52 66  1  0  0  0  0
 53 66  1  0  0  0  0
 54 66  1  0  0  0  0
 55 67  1  0  0  0  0
 56 67  1  0  0  0  0
 57 68  1  0  0  0  0
 58 79  1  0  0  0  0
 59 80  1  0  0  0  0
 60 61  1  0  0  0  0
 60 71  1  0  0  0  0
 61 79  1  0  0  0  0
 62 68  1  0  0  0  0
 62 87  1  0  0  0  0
 63 66  1  0  0  0  0
 63 78  1  0  0  0  0
 64 80  1  0  0  0  0
 65 67  1  0  0  0  0
 67 68  1  0  0  0  0
 68 90  1  0  0  0  0
 69 72  1  0  0  0  0
 70 71  1  0  0  0  0
M  CHG  1  80   1
M  ISO  4  35 100  62 101  79 100  87 101
M  END
> <Batch ID>
0065

> <Smiles>
CNC(C)C(=O)NC(C(=O)N1Cc2cc([101O:1][101CH2:1]C(C)(F)C(C)(C)C(C)(C)c3cn(CC[100N:0](C)[100C:0](=O)N4CCCC(n5nc(-c6ccc(Oc7ccc(F)cc7F)cc6)c(C(N)=O)c5N)C4)nc3C)ccc2CC1C(=O)NC1CCCc2ccccc21)C(C)(C)C

> <Shape>
0.270

> <Color>
0.181

> <Negative vol penalty>
0.000

$$$$

  -OEChem-04052318073D

 85 93  0     1  0  0  0  0  0999 V2000
  -18.3025  -30.6189   25.7985 C   0  0  0  0  0  0  0  0  0  0  0  0
  -19.6935  -30.6081   25.8203 C   0  0  0  0  0  0  0  0  0  0  0  0
  -23.9336  -12.1946   21.4686 C   0  0  0  0  0  0  0  0  0  0  0  0
  -24.1936  -12.1783   19.0666 C   0  0  0  0  0  0  0  0  0  0  0  0
  -17.6144  -29.8132   24.8923 C   0  0  0  0  0  0  0  0  0  0  0  0
  -20.3972  -29.7907   24.9366 C   0  0  0  0  0  0  0  0  0  0  0  0
  -26.5048  -29.5650   21.1999 C   0  0  0  0  0  0  0  0  0  0  0  0
  -22.9036  -11.2600   21.3635 C   0  0  0  0  0  0  0  0  0  0  0  0
  -23.1636  -11.2436   18.9615 C   0  0  0  0  0  0  0  0  0  0  0  0
  -27.6042  -28.7357   20.9820 C   0  0  0  0  0  0  0  0  0  0  0  0
  -20.4484   -8.6080   21.7557 C   0  0  0  0  0  0  0  0  0  0  0  0
  -20.4559   -7.5321   22.6433 C   0  0  0  0  0  0  0  0  0  0  0  0
  -26.3109  -27.4453   19.4067 C   0  0  0  0  0  0  0  0  0  0  0  0
  -22.6112   -6.8464   21.7939 C   0  0  0  0  0  0  0  0  0  0  0  0
  -28.3191  -22.3472   21.5413 C   0  0  0  0  0  0  0  0  0  0  0  0
  -29.4820  -22.4750   19.6795 C   0  0  0  0  0  0  0  0  0  0  0  0
  -24.5786  -12.6538   20.3201 C   0  0  0  0  0  0  0  0  0  0  0  0
  -27.0172  -13.3569   20.5784 C   0  0  0  0  0  0  0  0  0  0  0  0
  -18.3102  -28.9927   23.9904 C   0  0  0  0  0  0  0  0  0  0  0  0
  -25.2949  -29.3337   20.5299 C   0  0  0  0  0  0  0  0  0  0  0  0
  -19.7178  -28.9722   24.0183 C   0  0  0  0  0  0  0  0  0  0  0  0
  -25.1985  -28.2747   19.6159 C   0  0  0  0  0  0  0  0  0  0  0  0
  -28.5434  -23.1587   20.4130 C   0  0  0  0  0  0  0  0  0  0  0  0
  -22.5185  -10.7845   20.1100 C   0  0  0  0  0  0  0  0  0  0  0  0
  -27.5065  -27.6739   20.0875 C   0  0  0  0  0  0  0  0  0  0  0  0
  -21.5222   -8.8031   20.8871 C   0  0  0  0  0  0  0  0  0  0  0  0
  -21.5373   -6.6513   22.6624 C   0  0  0  0  0  0  0  0  0  0  0  0
  -22.6037   -7.9224   20.9062 C   0  0  0  0  0  0  0  0  0  0  0  0
  -25.6424  -13.6197   20.4280 C   0  0  0  0  0  0  0  0  0  0  0  0
  -27.6003  -14.5993   20.6322 C   0  0  0  0  0  0  0  0  0  0  0  0
  -27.7056  -12.1020   20.6619 C   0  0  0  0  0  0  0  0  0  0  0  0
  -22.3327  -28.6163   21.4321 C   0  0  0  0  0  0  0  0  0  0  0  0
  -21.6925  -29.0115   18.2767 C   0  0  0  0  0  0  0  0  0  0  0  0
  -22.8446  -29.0099   15.0644 C   0  0  0  0  0  0  0  0  0  0  0  0
  -27.8575  -19.7588   18.2592 C   0  0  0  0  0  0  0  0  0  0  0  0
  -17.5222  -28.1037   23.0613 C   0  0  0  0  0  0  0  0  0  0  0  0
  -24.1265  -30.2536   20.7559 C   0  0  0  0  0  0  0  0  0  0  0  0
  -23.9283  -27.9961   18.8561 C   0  0  0  0  0  0  0  0  0  0  0  0
  -18.3482  -27.5471   21.9045 C   0  0  0  0  0  0  0  0  0  0  0  0
  -25.5626  -19.1945   21.1082 C   0  0  0  0  0  0  0  0  0  0  0  0
  -19.6812  -27.0064   22.4121 C   0  0  0  0  0  0  0  0  0  0  0  0
  -25.4429  -17.6719   21.1430 C   0  0  0  0  0  0  0  0  0  0  0  0
  -25.8556  -19.7084   19.7018 C   0  0  0  0  0  0  0  0  0  0  0  0
  -26.9310  -17.5634   19.1047 C   0  0  0  0  0  0  0  0  0  0  0  0
  -20.5171  -28.1176   23.0587 C   0  0  1  0  0  0  0  0  0  0  0  0
  -22.7864  -29.6146   20.4049 C   0  0  1  0  0  0  0  0  0  0  0  0
  -26.6820  -17.0097   20.5158 C   0  0  2  0  0  0  0  0  0  0  0  0
  -22.0779  -29.3303   12.6965 C   0  0  0  0  0  0  0  0  0  0  0  0
  -27.8098  -24.6667   18.5219 C   0  0  0  0  0  0  0  0  0  0  0  0
  -26.3965  -24.5567   20.5389 C   0  0  0  0  0  0  0  0  0  0  0  0
  -20.4236  -26.2369   18.3147 C   0  0  0  0  0  0  0  0  0  0  0  0
  -20.5454  -26.2233   15.8141 C   0  0  0  0  0  0  0  0  0  0  0  0
  -19.1662  -27.9410   16.9845 C   0  0  0  0  0  0  0  0  0  0  0  0
  -30.2077  -25.4207   20.8488 C   0  0  0  0  0  0  0  0  0  0  0  0
  -28.1734  -26.1429   22.0963 C   0  0  0  0  0  0  0  0  0  0  0  0
  -29.9777  -19.5908   17.0117 C   0  0  0  0  0  0  0  0  0  0  0  0
  -24.6519  -31.3201   14.6693 C   0  0  0  0  0  0  0  0  0  0  0  0
  -30.6816  -20.3005   20.0125 C   0  0  0  0  0  0  0  0  0  0  0  0
  -29.9963  -19.0704   19.4231 C   0  0  0  0  0  0  0  0  0  0  0  0
  -21.6874  -28.1101   17.0658 C   0  0  1  0  0  0  0  0  0  0  0  0
  -22.6640  -30.0013   13.9290 C   0  0  2  0  0  0  0  0  0  0  0  0
  -27.8783  -24.5196   20.0706 C   0  0  0  0  0  0  0  0  0  0  0  0
  -20.4791  -27.1317   17.0604 C   0  0  0  0  0  0  0  0  0  0  0  0
  -28.7026  -25.7163   20.7143 C   0  0  0  0  0  0  0  0  0  1  0  0
  -29.0558  -21.2332   21.5298 N   0  0  0  0  0  0  0  0  0  0  0  0
  -25.3684  -14.9264   20.3890 N   0  0  0  0  0  0  0  0  0  0  0  0
  -29.7521  -21.3397   20.3853 N   0  0  0  0  0  0  0  0  0  0  0  0
  -26.5791  -15.4958   20.5157 N   0  0  0  0  0  0  0  0  0  0  0  0
  -22.8117  -28.9198   19.1162 N   0  0  0  0  0  0  0  0  0  0  0  0
  -27.0116  -19.0318   19.1129 N   0  0  0  0  0  0  0  0  0  0  0  0
  -28.8819  -15.0015   20.7675 N   0  0  0  0  0  0  0  0  0  0  0  0
  -26.9538  -10.9214   20.5893 N   0  0  0  0  0  0  0  0  0  0  0  0
  -21.1361  -28.9410   22.0421 N   0  0  0  0  0  0  0  0  0  0  0  0
  -21.7501  -28.9886   15.9027 N   0  0  0  0  0  0  0  0  0  0  0  0
  -29.2107  -19.3888   18.2327 N   0  0  0  0  0  0  0  0  0  0  0  0
  -23.9740  -30.6065   13.5565 N   0  3  0  0  0  0  0  0  0  0  0  0
  -28.9487  -12.0299   20.8134 O   0  0  0  0  0  0  0  0  0  0  0  0
  -23.0168  -27.6240   21.6536 O   0  0  0  0  0  0  0  0  0  0  0  0
  -20.7418  -29.7742   18.4669 O   0  0  0  0  0  0  0  0  0  0  0  0
  -23.8540  -28.3205   15.1925 O   0  0  0  0  0  0  0  0  0  0  0  0
  -27.4296  -20.6919   17.5678 O   0  0  0  0  0  0  0  0  0  0  0  0
  -21.5136   -9.8723   20.0070 O   0  0  0  0  0  0  0  0  0  0  0  0
  -28.5777  -26.8625   19.8735 O   0  0  0  0  0  0  0  0  0  1  0  0
  -21.5451   -5.6190   23.5159 F   0  0  0  0  0  0  0  0  0  0  0  0
  -23.6387   -8.1054   20.0750 F   0  0  0  0  0  0  0  0  0  0  0  0
  1  2  1  0  0  0  0
  1  5  2  0  0  0  0
  2  6  2  0  0  0  0
  3  8  2  0  0  0  0
  3 17  1  0  0  0  0
  4  9  1  0  0  0  0
  4 17  2  0  0  0  0
  5 19  1  0  0  0  0
  6 21  1  0  0  0  0
  7 10  2  0  0  0  0
  7 20  1  0  0  0  0
  8 24  1  0  0  0  0
  9 24  2  0  0  0  0
 10 25  1  0  0  0  0
 11 12  2  0  0  0  0
 11 26  1  0  0  0  0
 12 27  1  0  0  0  0
 13 22  1  0  0  0  0
 13 25  2  0  0  0  0
 14 27  2  0  0  0  0
 14 28  1  0  0  0  0
 15 23  1  0  0  0  0
 15 65  2  0  0  0  0
 16 23  2  0  0  0  0
 16 67  1  0  0  0  0
 17 29  1  0  0  0  0
 18 29  1  0  0  0  0
 18 30  2  0  0  0  0
 18 31  1  0  0  0  0
 19 21  2  0  0  0  0
 19 36  1  0  0  0  0
 20 22  2  0  0  0  0
 20 37  1  0  0  0  0
 21 45  1  0  0  0  0
 22 38  1  0  0  0  0
 23 62  1  0  0  0  0
 24 82  1  0  0  0  0
 25 83  1  0  0  0  0
 26 28  2  0  0  0  0
 26 82  1  0  0  0  0
 27 84  1  0  0  0  0
 28 85  1  0  0  0  0
 29 66  2  0  0  0  0
 30 68  1  0  0  0  0
 30 71  1  0  0  0  0
 31 72  1  0  0  0  0
 31 77  2  0  0  0  0
 32 46  1  0  0  0  0
 32 73  1  0  0  0  0
 32 78  2  0  0  0  0
 33 60  1  0  0  0  0
 33 69  1  0  0  0  0
 33 79  2  0  0  0  0
 34 61  1  0  0  0  0
 34 74  1  0  0  0  0
 34 80  2  0  0  0  0
 35 70  1  0  0  0  0
 35 75  1  0  0  0  0
 35 81  2  0  0  0  0
 36 39  1  0  0  0  0
 37 46  1  0  0  0  0
 38 69  1  0  0  0  0
 39 41  1  0  0  0  0
 40 42  1  0  0  0  0
 40 43  1  0  0  0  0
 41 45  1  0  0  0  0
 42 47  1  0  0  0  0
 43 70  1  0  0  0  0
 44 47  1  0  0  0  0
 44 70  1  0  0  0  0
 45 73  1  0  0  0  0
 46 69  1  0  0  0  0
 47 68  1  0  0  0  0
 48 61  1  0  0  0  0
 49 62  1  0  0  0  0
 50 62  1  0  0  0  0
 51 63  1  0  0  0  0
 52 63  1  0  0  0  0
 53 63  1  0  0  0  0
 54 64  1  0  0  0  0
 55 64  1  0  0  0  0
 56 75  1  0  0  0  0
 57 76  1  0  0  0  0
 58 59  1  0  0  0  0
 58 67  1  0  0  0  0
 59 75  1  0  0  0  0
 60 63  1  0  0  0  0
 60 74  1  0  0  0  0
 61 76  1  0  0  0  0
 62 64  1  0  0  0  0
 64 83  1  0  0  0  0
 65 67  1  0  0  0  0
 66 68  1  0  0  0  0
M  CHG  1  76   1
M  ISO  4  35 100  64 101  75 100  83 101
M  END
> <Batch ID>
0065

> <Smiles>
CNC(C)C(=O)NC(C(=O)N1Cc2cc([101O:1][101C:1](C)(C)C(C)(C)c3cnn(CC[100N:0](C)[100C:0](=O)N4CCCC(n5nc(-c6ccc(Oc7ccc(F)cc7F)cc6)c(C(N)=O)c5N)C4)c3)ccc2CC1C(=O)NC1CCCc2ccccc21)C(C)(C)C

> <Shape>
0.302

> <Color>
0.080

> <Negative vol penalty>
0.000

$$$$

  -OEChem-04052318073D

 94102  0     1  0  0  0  0  0999 V2000
  -28.7689  -13.3479   18.9313 C   0  0  0  0  0  0  0  0  0  0  0  0
  -28.1793  -14.5924   18.7335 C   0  0  0  0  0  0  0  0  0  0  0  0
  -29.1834  -23.2197   21.3872 C   0  0  0  0  0  0  0  0  0  0  0  0
  -30.1238  -23.6428   19.2023 C   0  0  0  0  0  0  0  0  0  0  0  0
  -28.0515  -12.3295   19.5575 C   0  0  0  0  0  0  0  0  0  0  0  0
  -26.8715  -14.8188   19.1609 C   0  0  0  0  0  0  0  0  0  0  0  0
  -24.5762  -20.0452   21.3796 C   0  0  0  0  0  0  0  0  0  0  0  0
  -29.3946  -21.8519   21.2133 C   0  0  0  0  0  0  0  0  0  0  0  0
  -30.3350  -22.2750   19.0284 C   0  0  0  0  0  0  0  0  0  0  0  0
  -23.8285  -21.0651   20.7926 C   0  0  0  0  0  0  0  0  0  0  0  0
  -30.7919  -18.8640   17.8594 C   0  0  0  0  0  0  0  0  0  0  0  0
  -30.4383  -18.3044   16.6316 C   0  0  0  0  0  0  0  0  0  0  0  0
  -21.8025  -20.0412   21.6086 C   0  0  0  0  0  0  0  0  0  0  0  0
  -28.1490  -18.9953   16.9761 C   0  0  0  0  0  0  0  0  0  0  0  0
  -21.4922  -29.0764   18.9840 C   0  0  0  0  0  0  0  0  0  0  0  0
  -29.5480  -24.1151   20.3817 C   0  0  0  0  0  0  0  0  0  0  0  0
  -30.2202  -26.4612   21.1244 C   0  0  0  0  0  0  0  0  0  0  0  0
  -26.7376  -12.5466   20.0014 C   0  0  0  0  0  0  0  0  0  0  0  0
  -23.9408  -19.0080   22.0773 C   0  0  0  0  0  0  0  0  0  0  0  0
  -26.1353  -13.8020   19.7924 C   0  0  0  0  0  0  0  0  0  0  0  0
  -22.5445  -19.0107   22.2057 C   0  0  0  0  0  0  0  0  0  0  0  0
  -29.9704  -21.3796   20.0339 C   0  0  0  0  0  0  0  0  0  0  0  0
  -22.4413  -21.0617   20.9046 C   0  0  0  0  0  0  0  0  0  0  0  0
  -29.8240  -19.4892   18.6456 C   0  0  0  0  0  0  0  0  0  0  0  0
  -29.1169  -18.3701   16.1900 C   0  0  0  0  0  0  0  0  0  0  0  0
  -28.5026  -19.5549   18.2039 C   0  0  0  0  0  0  0  0  0  0  0  0
  -29.3296  -25.5281   20.5606 C   0  0  0  0  0  0  0  0  0  0  0  0
  -22.0729  -30.2758   19.4379 C   0  0  0  0  0  0  0  0  0  0  0  0
  -21.3517  -28.3127   20.1169 C   0  0  0  0  0  0  0  0  0  0  0  0
  -29.5472  -27.6571   21.0654 C   0  0  0  0  0  0  0  0  0  0  0  0
  -31.5380  -26.2646   21.6540 C   0  0  0  0  0  0  0  0  0  0  0  0
  -23.7438  -15.8557   21.7200 C   0  0  0  0  0  0  0  0  0  0  0  0
  -22.1959  -16.0214   24.5659 C   0  0  0  0  0  0  0  0  0  0  0  0
  -20.3778  -17.8868   26.7708 C   0  0  0  0  0  0  0  0  0  0  0  0
  -24.9883  -29.1823   17.3495 C   0  0  0  0  0  0  0  0  0  0  0  0
  -25.9854  -11.4008   20.6307 C   0  0  0  0  0  0  0  0  0  0  0  0
  -24.7635  -17.9296   22.7275 C   0  0  0  0  0  0  0  0  0  0  0  0
  -21.8156  -17.9310   22.9616 C   0  0  0  0  0  0  0  0  0  0  0  0
  -24.7351  -11.8369   21.3902 C   0  0  0  0  0  0  0  0  0  0  0  0
  -25.1385  -29.4902   21.0744 C   0  0  0  0  0  0  0  0  0  0  0  0
  -23.9215  -12.8227   20.5576 C   0  0  0  0  0  0  0  0  0  0  0  0
  -26.2755  -28.5232   21.4012 C   0  0  0  0  0  0  0  0  0  0  0  0
  -24.4061  -29.0721   19.8051 C   0  0  0  0  0  0  0  0  0  0  0  0
  -26.4358  -27.9600   18.9330 C   0  0  0  0  0  0  0  0  0  0  0  0
  -24.7274  -14.0938   20.2642 C   0  0  1  0  0  0  0  0  0  0  0  0
  -23.9770  -16.6463   22.9763 C   0  0  1  0  0  0  0  0  0  0  0  0
  -27.2176  -28.3546   20.1971 C   0  0  2  0  0  0  0  0  0  0  0  0
  -22.3060  -28.9007   25.6004 C   0  0  0  0  0  0  0  0  0  0  0  0
  -19.9200  -31.5451   24.4578 C   0  0  0  0  0  0  0  0  0  0  0  0
  -19.2220  -17.7373   28.9932 C   0  0  0  0  0  0  0  0  0  0  0  0
  -24.4367  -30.5890   14.7509 C   0  0  0  0  0  0  0  0  0  0  0  0
  -22.5873  -29.0852   15.5518 C   0  0  0  0  0  0  0  0  0  0  0  0
  -22.3744  -32.8451   19.3722 C   0  0  0  0  0  0  0  0  0  0  0  0
  -21.4825  -31.6239   17.4052 C   0  0  0  0  0  0  0  0  0  0  0  0
  -19.9066  -14.4768   23.2686 C   0  0  0  0  0  0  0  0  0  0  0  0
  -18.4445  -15.1791   25.1758 C   0  0  0  0  0  0  0  0  0  0  0  0
  -20.4546  -13.7649   25.6025 C   0  0  0  0  0  0  0  0  0  0  0  0
  -19.4028  -28.8828   22.9814 C   0  0  0  0  0  0  0  0  0  0  0  0
  -22.1078  -19.9830   27.9421 C   0  0  0  0  0  0  0  0  0  0  0  0
  -20.7962  -26.9246   20.3131 C   0  0  0  0  0  0  0  0  0  0  0  0
  -20.9789  -28.6358   24.8983 C   0  0  0  0  0  0  0  0  0  0  0  0
  -20.9166  -30.8373   23.5454 C   0  0  0  0  0  0  0  0  0  0  0  0
  -21.8456  -25.8144   20.1881 C   0  0  0  0  0  0  0  0  0  0  0  0
  -21.2505  -24.4112   20.3134 C   0  0  0  0  0  0  0  0  0  0  0  0
  -21.9063  -28.7050   22.5362 C   0  0  0  0  0  0  0  0  0  0  0  0
  -23.9012  -31.3615   18.0342 C   0  0  0  0  0  0  0  0  0  0  0  0
  -22.3265  -23.3376   20.2241 C   0  0  0  0  0  0  0  0  0  1  0  0
  -20.7588  -16.1995   24.9925 C   0  0  1  0  0  0  0  0  0  0  0  0
  -20.5122  -18.0894   28.2692 C   0  0  2  0  0  0  0  0  0  0  0  0
  -23.4090  -30.3335   15.8462 C   0  0  0  0  0  0  0  0  0  0  0  0
  -22.4444  -31.4530   18.6349 C   0  0  0  0  0  0  0  0  0  0  0  0
  -19.9044  -14.9245   24.7439 C   0  0  0  0  0  0  0  0  0  0  0  0
  -20.8071  -29.2855   23.4886 C   0  0  0  0  0  0  0  0  0  0  0  0
  -28.1786  -26.0833   20.1722 N   0  0  0  0  0  0  0  0  0  0  0  0
  -22.2864  -30.2787   20.7564 N   0  0  0  0  0  0  0  0  0  0  0  0
  -21.8374  -29.0717   21.1407 N   0  0  0  0  0  0  0  0  0  0  0  0
  -28.3413  -27.3783   20.4925 N   0  0  0  0  0  0  0  0  0  0  0  0
  -22.6637  -16.8951   23.5742 N   0  0  0  0  0  0  0  0  0  0  0  0
  -25.3323  -28.8893   18.6795 N   0  0  0  0  0  0  0  0  0  0  0  0
  -29.8753  -28.9094   21.4483 N   0  0  0  0  0  0  0  0  0  0  0  0
  -32.0788  -24.9718   21.6373 N   0  0  0  0  0  0  0  0  0  0  0  0
  -24.7511  -14.9566   21.4260 N   0  0  0  0  0  0  0  0  0  0  0  0
  -20.7970  -16.6309   26.3856 N   0  0  0  0  0  0  0  0  0  0  0  0
  -24.0620  -30.2155   17.1422 N   0  0  0  0  0  0  0  0  0  0  0  0
  -20.8484  -19.5094   28.5718 N   0  3  0  0  0  0  0  0  0  0  0  0
  -32.2094  -27.2047   22.1431 O   0  0  0  0  0  0  0  0  0  0  0  0
  -22.7247  -16.0462   21.0667 O   0  0  0  0  0  0  0  0  0  0  0  0
  -22.8805  -15.1440   25.0983 O   0  0  0  0  0  0  0  0  0  0  0  0
  -19.9410  -18.7544   26.0178 O   0  0  0  0  0  0  0  0  0  0  0  0
  -25.4886  -28.5632   16.4017 O   0  0  0  0  0  0  0  0  0  0  0  0
  -30.1768  -20.0450   19.8639 O   0  0  0  0  0  0  0  0  0  0  0  0
  -21.7090  -22.0557   20.3321 O   0  0  0  0  0  0  0  0  0  1  0  0
  -28.7778  -17.8340   15.0102 F   0  0  0  0  0  0  0  0  0  0  0  0
  -27.5685  -20.1552   18.9542 F   0  0  0  0  0  0  0  0  0  0  0  0
  1  2  1  0  0  0  0
  1  5  2  0  0  0  0
  2  6  2  0  0  0  0
  3  8  2  0  0  0  0
  3 16  1  0  0  0  0
  4  9  1  0  0  0  0
  4 16  2  0  0  0  0
  5 18  1  0  0  0  0
  6 20  1  0  0  0  0
  7 10  2  0  0  0  0
  7 19  1  0  0  0  0
  8 22  1  0  0  0  0
  9 22  2  0  0  0  0
 10 23  1  0  0  0  0
 11 12  2  0  0  0  0
 11 24  1  0  0  0  0
 12 25  1  0  0  0  0
 13 21  1  0  0  0  0
 13 23  2  0  0  0  0
 14 25  2  0  0  0  0
 14 26  1  0  0  0  0
 15 28  1  0  0  0  0
 15 29  2  0  0  0  0
 16 27  1  0  0  0  0
 17 27  1  0  0  0  0
 17 30  2  0  0  0  0
 17 31  1  0  0  0  0
 18 20  2  0  0  0  0
 18 36  1  0  0  0  0
 19 21  2  0  0  0  0
 19 37  1  0  0  0  0
 20 45  1  0  0  0  0
 21 38  1  0  0  0  0
 22 91  1  0  0  0  0
 23 92  1  0  0  0  0
 24 26  2  0  0  0  0
 24 91  1  0  0  0  0
 25 93  1  0  0  0  0
 26 94  1  0  0  0  0
 27 74  2  0  0  0  0
 28 71  1  0  0  0  0
 28 75  2  0  0  0  0
 29 60  1  0  0  0  0
 29 76  1  0  0  0  0
 30 77  1  0  0  0  0
 30 80  1  0  0  0  0
 31 81  1  0  0  0  0
 31 86  2  0  0  0  0
 32 46  1  0  0  0  0
 32 82  1  0  0  0  0
 32 87  2  0  0  0  0
 33 68  1  0  0  0  0
 33 78  1  0  0  0  0
 33 88  2  0  0  0  0
 34 69  1  0  0  0  0
 34 83  1  0  0  0  0
 34 89  2  0  0  0  0
 35 79  1  0  0  0  0
 35 84  1  0  0  0  0
 35 90  2  0  0  0  0
 36 39  1  0  0  0  0
 37 46  1  0  0  0  0
 38 78  1  0  0  0  0
 39 41  1  0  0  0  0
 40 42  1  0  0  0  0
 40 43  1  0  0  0  0
 41 45  1  0  0  0  0
 42 47  1  0  0  0  0
 43 79  1  0  0  0  0
 44 47  1  0  0  0  0
 44 79  1  0  0  0  0
 45 82  1  0  0  0  0
 46 78  1  0  0  0  0
 47 77  1  0  0  0  0
 48 61  1  0  0  0  0
 49 62  1  0  0  0  0
 50 69  1  0  0  0  0
 51 70  1  0  0  0  0
 52 70  1  0  0  0  0
 53 71  1  0  0  0  0
 54 71  1  0  0  0  0
 55 72  1  0  0  0  0
 56 72  1  0  0  0  0
 57 72  1  0  0  0  0
 58 73  1  0  0  0  0
 59 85  1  0  0  0  0
 60 63  1  0  0  0  0
 61 73  1  0  0  0  0
 62 73  1  0  0  0  0
 63 64  1  0  0  0  0
 64 67  1  0  0  0  0
 65 73  1  0  0  0  0
 65 76  1  0  0  0  0
 66 71  1  0  0  0  0
 66 84  1  0  0  0  0
 67 92  1  0  0  0  0
 68 72  1  0  0  0  0
 68 83  1  0  0  0  0
 69 85  1  0  0  0  0
 70 84  1  0  0  0  0
 74 77  1  0  0  0  0
 75 76  1  0  0  0  0
M  CHG  1  85   1
M  ISO  4  35 100  67 101  84 100  92 101
M  END
> <Batch ID>
0065

> <Smiles>
CCC(C)(CC)Cn1nc(C(C)(C)C[100N:0](C(C)C)[100C:0](=O)N2CCCC(n3nc(-c4ccc(Oc5ccc(F)cc5F)cc4)c(C(N)=O)c3N)C2)cc1CCC[101CH2:1][101O:1]c1ccc2c(c1)CN(C(=O)C(NC(=O)C(C)NC)C(C)(C)C)C(C(=O)NC1CCCc3ccccc31)C2

> <Shape>
0.204

> <Color>
0.055

> <Negative vol penalty>
0.000

$$$$

  -OEChem-04052318073D

 87 95  0     1  0  0  0  0  0999 V2000
  -40.4072  -26.8991   13.8416 C   0  0  0  0  0  0  0  0  0  0  0  0
  -39.8332  -26.0812   14.8096 C   0  0  0  0  0  0  0  0  0  0  0  0
  -23.0001   -9.8944   19.9800 C   0  0  0  0  0  0  0  0  0  0  0  0
  -23.7302   -9.9417   22.2826 C   0  0  0  0  0  0  0  0  0  0  0  0
  -39.6221  -27.8290   13.1615 C   0  0  0  0  0  0  0  0  0  0  0  0
  -38.4737  -26.1937   15.0989 C   0  0  0  0  0  0  0  0  0  0  0  0
  -36.1877  -21.6903   15.4712 C   0  0  0  0  0  0  0  0  0  0  0  0
  -22.2354   -8.7586   20.2458 C   0  0  0  0  0  0  0  0  0  0  0  0
  -22.9654   -8.8058   22.5484 C   0  0  0  0  0  0  0  0  0  0  0  0
  -36.3733  -20.9780   16.6552 C   0  0  0  0  0  0  0  0  0  0  0  0
  -23.2123   -5.4681   22.0694 C   0  0  0  0  0  0  0  0  0  0  0  0
  -23.8025   -4.4501   22.8183 C   0  0  0  0  0  0  0  0  0  0  0  0
  -34.2156  -21.7234   17.4348 C   0  0  0  0  0  0  0  0  0  0  0  0
  -22.0820   -4.6879   24.4977 C   0  0  0  0  0  0  0  0  0  0  0  0
  -23.7476  -10.4859   20.9984 C   0  0  0  0  0  0  0  0  0  0  0  0
  -24.1298  -13.0023   20.8265 C   0  0  0  0  0  0  0  0  0  0  0  0
  -38.2503  -27.9462   13.4356 C   0  0  0  0  0  0  0  0  0  0  0  0
  -35.0174  -22.4346   15.2643 C   0  0  0  0  0  0  0  0  0  0  0  0
  -37.6697  -27.1270   14.4227 C   0  0  0  0  0  0  0  0  0  0  0  0
  -34.0165  -22.4422   16.2462 C   0  0  0  0  0  0  0  0  0  0  0  0
  -22.2180   -8.2143   21.5299 C   0  0  0  0  0  0  0  0  0  0  0  0
  -35.3885  -20.9968   17.6384 C   0  0  0  0  0  0  0  0  0  0  0  0
  -22.0569   -6.0961   22.5347 C   0  0  0  0  0  0  0  0  0  0  0  0
  -23.2374   -4.0599   24.0324 C   0  0  0  0  0  0  0  0  0  0  0  0
  -21.4917   -5.7060   23.7488 C   0  0  0  0  0  0  0  0  0  0  0  0
  -24.5382  -11.6589   20.7244 C   0  0  0  0  0  0  0  0  0  0  0  0
  -25.2380  -13.7268   20.4611 C   0  0  0  0  0  0  0  0  0  0  0  0
  -32.4666  -17.6161   20.0390 C   0  0  0  0  0  0  0  0  0  0  0  0
  -33.9614  -16.8282   18.8135 C   0  0  0  0  0  0  0  0  0  0  0  0
  -22.8621  -13.5466   21.2168 C   0  0  0  0  0  0  0  0  0  0  0  0
  -34.3683  -25.5120   14.8035 C   0  0  0  0  0  0  0  0  0  0  0  0
  -31.3588  -24.4034   14.3177 C   0  0  0  0  0  0  0  0  0  0  0  0
  -29.0522  -21.9481   14.8642 C   0  0  0  0  0  0  0  0  0  0  0  0
  -30.7339  -14.6668   20.6997 C   0  0  0  0  0  0  0  0  0  0  0  0
  -37.4519  -28.9987   12.7080 C   0  0  0  0  0  0  0  0  0  0  0  0
  -34.8209  -23.1759   13.9704 C   0  0  0  0  0  0  0  0  0  0  0  0
  -32.7331  -23.2092   16.0644 C   0  0  0  0  0  0  0  0  0  0  0  0
  -35.9423  -28.7959   12.8085 C   0  0  0  0  0  0  0  0  0  0  0  0
  -29.5908  -12.2465   18.3519 C   0  0  0  0  0  0  0  0  0  0  0  0
  -35.5387  -28.4960   14.2487 C   0  0  0  0  0  0  0  0  0  0  0  0
  -28.1435  -11.9844   18.7721 C   0  0  0  0  0  0  0  0  0  0  0  0
  -30.4955  -12.4805   19.5597 C   0  0  0  0  0  0  0  0  0  0  0  0
  -28.5874  -13.2713   20.9041 C   0  0  0  0  0  0  0  0  0  0  0  0
  -36.1935  -27.2020   14.7470 C   0  0  1  0  0  0  0  0  0  0  0  0
  -33.8136  -24.3163   14.0822 C   0  0  1  0  0  0  0  0  0  0  0  0
  -27.6261  -13.0849   19.7178 C   0  0  2  0  0  0  0  0  0  0  0  0
  -34.7621  -16.0955   17.8163 C   0  0  0  0  0  0  0  0  0  0  0  0
  -26.6677  -21.3405   14.3719 C   0  0  0  0  0  0  0  0  0  0  0  0
  -30.1749  -18.6778   18.3073 C   0  0  0  0  0  0  0  0  0  0  0  0
  -28.4736  -17.9275   19.9497 C   0  0  0  0  0  0  0  0  0  0  0  0
  -30.9686  -19.3404   21.1927 C   0  0  0  0  0  0  0  0  0  0  0  0
  -30.4176  -26.3997   16.4246 C   0  0  0  0  0  0  0  0  0  0  0  0
  -28.2699  -25.1220   16.5754 C   0  0  0  0  0  0  0  0  0  0  0  0
  -28.9243  -26.2089   14.4275 C   0  0  0  0  0  0  0  0  0  0  0  0
  -32.0977  -16.4374   22.6525 C   0  0  0  0  0  0  0  0  0  0  0  0
  -29.8917  -17.5366   22.9194 C   0  0  0  0  0  0  0  0  0  0  0  0
  -29.8554  -19.5044   13.4007 C   0  0  0  0  0  0  0  0  0  0  0  0
  -35.9387  -18.1497   19.8237 C   0  0  0  0  0  0  0  0  0  0  0  0
  -36.3631  -19.1204   18.7270 C   0  0  0  0  0  0  0  0  0  1  0  0
  -30.1605  -24.1424   15.1981 C   0  0  1  0  0  0  0  0  0  0  0  0
  -28.1144  -21.2187   13.9193 C   0  0  2  0  0  0  0  0  0  0  0  0
  -29.9341  -17.7343   19.5051 C   0  0  0  0  0  0  0  0  0  0  0  0
  -31.1386  -17.8544   20.6165 C   0  0  1  0  0  0  0  0  0  0  0  0
  -29.4680  -25.4553   15.6609 C   0  0  0  0  0  0  0  0  0  0  0  0
  -30.8169  -16.8435   21.8890 C   0  0  0  0  0  0  0  0  0  0  0  0
  -25.8068  -11.5346   20.3252 N   0  0  0  0  0  0  0  0  0  0  0  0
  -32.6671  -16.7375   19.0131 N   0  0  0  0  0  0  0  0  0  0  0  0
  -33.5555  -18.2447   20.4868 N   0  0  0  0  0  0  0  0  0  0  0  0
  -26.2050  -12.8091   20.1733 N   0  0  0  0  0  0  0  0  0  0  0  0
  -34.4975  -17.7230   19.6863 N   0  0  0  0  0  0  0  0  0  0  0  0
  -32.5905  -23.9232   14.7848 N   0  0  0  0  0  0  0  0  0  0  0  0
  -29.9494  -13.5369   20.4150 N   0  0  0  0  0  0  0  0  0  0  0  0
  -25.4699  -15.0529   20.3612 N   0  0  0  0  0  0  0  0  0  0  0  0
  -21.8320  -12.6607   21.5608 N   0  0  0  0  0  0  0  0  0  0  0  0
  -35.4992  -26.0478   14.2176 N   0  0  0  0  0  0  0  0  0  0  0  0
  -29.2921  -23.2409   14.4487 N   0  0  0  0  0  0  0  0  0  0  0  0
  -30.1383  -15.6233   21.5127 N   0  0  0  0  0  0  0  0  0  0  0  0
  -28.4664  -19.7720   13.8546 N   0  3  0  0  0  0  0  0  0  0  0  0
  -22.6441  -14.7816   21.2434 O   0  0  0  0  0  0  0  0  0  0  0  0
  -33.8106  -25.9191   15.8159 O   0  0  0  0  0  0  0  0  0  0  0  0
  -31.2063  -25.0046   13.2515 O   0  0  0  0  0  0  0  0  0  0  0  0
  -29.5219  -21.4248   15.8722 O   0  0  0  0  0  0  0  0  0  0  0  0
  -31.8782  -14.8148   20.2575 O   0  0  0  0  0  0  0  0  0  0  0  0
  -21.4717   -7.1061   21.7897 O   0  0  0  0  0  0  0  0  0  0  0  0
  -35.5674  -20.3029   18.7953 O   0  0  0  0  0  0  0  0  0  1  0  0
  -23.8034   -3.0812   24.7506 F   0  0  0  0  0  0  0  0  0  0  0  0
  -20.3812   -6.3048   24.2004 F   0  0  0  0  0  0  0  0  0  0  0  0
  1  2  1  0  0  0  0
  1  5  2  0  0  0  0
  2  6  2  0  0  0  0
  3  8  2  0  0  0  0
  3 15  1  0  0  0  0
  4  9  1  0  0  0  0
  4 15  2  0  0  0  0
  5 17  1  0  0  0  0
  6 19  1  0  0  0  0
  7 10  2  0  0  0  0
  7 18  1  0  0  0  0
  8 21  1  0  0  0  0
  9 21  2  0  0  0  0
 10 22  1  0  0  0  0
 11 12  2  0  0  0  0
 11 23  1  0  0  0  0
 12 24  1  0  0  0  0
 13 20  1  0  0  0  0
 13 22  2  0  0  0  0
 14 24  2  0  0  0  0
 14 25  1  0  0  0  0
 15 26  1  0  0  0  0
 16 26  1  0  0  0  0
 16 27  2  0  0  0  0
 16 30  1  0  0  0  0
 17 19  2  0  0  0  0
 17 35  1  0  0  0  0
 18 20  2  0  0  0  0
 18 36  1  0  0  0  0
 19 44  1  0  0  0  0
 20 37  1  0  0  0  0
 21 84  1  0  0  0  0
 22 85  1  0  0  0  0
 23 25  2  0  0  0  0
 23 84  1  0  0  0  0
 24 86  1  0  0  0  0
 25 87  1  0  0  0  0
 26 66  2  0  0  0  0
 27 69  1  0  0  0  0
 27 73  1  0  0  0  0
 28 63  1  0  0  0  0
 28 67  1  0  0  0  0
 28 68  2  0  0  0  0
 29 47  1  0  0  0  0
 29 67  2  0  0  0  0
 29 70  1  0  0  0  0
 30 74  1  0  0  0  0
 30 79  2  0  0  0  0
 31 45  1  0  0  0  0
 31 75  1  0  0  0  0
 31 80  2  0  0  0  0
 32 60  1  0  0  0  0
 32 71  1  0  0  0  0
 32 81  2  0  0  0  0
 33 61  1  0  0  0  0
 33 76  1  0  0  0  0
 33 82  2  0  0  0  0
 34 72  1  0  0  0  0
 34 77  1  0  0  0  0
 34 83  2  0  0  0  0
 35 38  1  0  0  0  0
 36 45  1  0  0  0  0
 37 71  1  0  0  0  0
 38 40  1  0  0  0  0
 39 41  1  0  0  0  0
 39 42  1  0  0  0  0
 40 44  1  0  0  0  0
 41 46  1  0  0  0  0
 42 72  1  0  0  0  0
 43 46  1  0  0  0  0
 43 72  1  0  0  0  0
 44 75  1  0  0  0  0
 45 71  1  0  0  0  0
 46 69  1  0  0  0  0
 48 61  1  0  0  0  0
 49 62  1  0  0  0  0
 50 62  1  0  0  0  0
 51 63  1  0  0  0  0
 52 64  1  0  0  0  0
 53 64  1  0  0  0  0
 54 64  1  0  0  0  0
 55 65  1  0  0  0  0
 56 65  1  0  0  0  0
 57 78  1  0  0  0  0
 58 59  1  0  0  0  0
 58 70  1  0  0  0  0
 59 85  1  0  0  0  0
 60 64  1  0  0  0  0
 60 76  1  0  0  0  0
 61 78  1  0  0  0  0
 62 63  1  0  0  0  0
 63 65  1  0  0  0  0
 65 77  1  0  0  0  0
 66 69  1  0  0  0  0
 68 70  1  0  0  0  0
M  CHG  1  78   1
M  ISO  4  34 100  59 101  77 100  85 101
M  END
> <Batch ID>
0065

> <Smiles>
CNC(C)C(=O)NC(C(=O)N1Cc2cc([101O:1][101CH2:1]Cn3nc(C(C)(C(C)C)C(C)(C)[100NH:0][100C:0](=O)N4CCCC(n5nc(-c6ccc(Oc7ccc(F)cc7F)cc6)c(C(N)=O)c5N)C4)nc3C)ccc2CC1C(=O)NC1CCCc2ccccc21)C(C)(C)C

> <Shape>
0.200

> <Color>
0.185

> <Negative vol penalty>
0.000

$$$$

  -OEChem-04052318073D

 91 99  0     1  0  0  0  0  0999 V2000
  -28.5856  -25.2211   20.5796 C   0  0  0  0  0  0  0  0  0  0  0  0
  -28.2552  -23.9382   21.0043 C   0  0  0  0  0  0  0  0  0  0  0  0
  -23.1900   -9.8192   19.9326 C   0  0  0  0  0  0  0  0  0  0  0  0
  -23.5677  -10.0008   22.3119 C   0  0  0  0  0  0  0  0  0  0  0  0
  -28.6394  -26.2668   21.5003 C   0  0  0  0  0  0  0  0  0  0  0  0
  -27.9794  -23.7000   22.3503 C   0  0  0  0  0  0  0  0  0  0  0  0
  -23.9244  -19.7158   24.6282 C   0  0  0  0  0  0  0  0  0  0  0  0
  -22.4233   -8.6728   20.1417 C   0  0  0  0  0  0  0  0  0  0  0  0
  -22.8009   -8.8544   22.5211 C   0  0  0  0  0  0  0  0  0  0  0  0
  -24.0623  -18.4263   25.1399 C   0  0  0  0  0  0  0  0  0  0  0  0
  -23.2012   -5.5075   22.2590 C   0  0  0  0  0  0  0  0  0  0  0  0
  -23.6990   -4.5465   23.1389 C   0  0  0  0  0  0  0  0  0  0  0  0
  -24.1565  -19.3297   27.3747 C   0  0  0  0  0  0  0  0  0  0  0  0
  -21.7422   -4.8079   24.5316 C   0  0  0  0  0  0  0  0  0  0  0  0
  -29.6860  -15.0289   26.0493 C   0  0  0  0  0  0  0  0  0  0  0  0
  -23.7622  -10.4831   21.0177 C   0  0  0  0  0  0  0  0  0  0  0  0
  -24.1017  -12.9995   20.7726 C   0  0  0  0  0  0  0  0  0  0  0  0
  -28.3547  -26.0431   22.8566 C   0  0  0  0  0  0  0  0  0  0  0  0
  -23.9125  -20.8247   25.4865 C   0  0  0  0  0  0  0  0  0  0  0  0
  -28.0307  -24.7433   23.2902 C   0  0  0  0  0  0  0  0  0  0  0  0
  -24.0158  -20.6320   26.8716 C   0  0  0  0  0  0  0  0  0  0  0  0
  -22.2288   -8.1905   21.4360 C   0  0  0  0  0  0  0  0  0  0  0  0
  -24.1813  -18.2332   26.5131 C   0  0  0  0  0  0  0  0  0  0  0  0
  -21.9738   -6.1188   22.5154 C   0  0  0  0  0  0  0  0  0  0  0  0
  -22.9695   -4.1967   24.2752 C   0  0  0  0  0  0  0  0  0  0  0  0
  -21.2443   -5.7689   23.6517 C   0  0  0  0  0  0  0  0  0  0  0  0
  -24.5547  -11.6670   20.8022 C   0  0  0  0  0  0  0  0  0  0  0  0
  -29.5593  -13.7778   25.4869 C   0  0  0  0  0  0  0  0  0  0  0  0
  -27.3421  -14.1784   25.0953 C   0  0  0  0  0  0  0  0  0  0  0  0
  -27.4687  -15.4292   25.6584 C   0  0  0  0  0  0  0  0  0  0  0  0
  -25.2331  -13.7417   20.5372 C   0  0  0  0  0  0  0  0  0  0  0  0
  -22.7766  -13.5199   20.9427 C   0  0  0  0  0  0  0  0  0  0  0  0
  -25.7535  -23.3881   25.8652 C   0  0  0  0  0  0  0  0  0  0  0  0
  -23.4502  -24.2483   27.9811 C   0  0  0  0  0  0  0  0  0  0  0  0
  -20.9340  -23.2844   30.0755 C   0  0  0  0  0  0  0  0  0  0  0  0
  -31.0474  -12.7507   21.5686 C   0  0  0  0  0  0  0  0  0  0  0  0
  -28.4718  -27.1955   23.8226 C   0  0  0  0  0  0  0  0  0  0  0  0
  -23.7362  -22.2071   24.9208 C   0  0  0  0  0  0  0  0  0  0  0  0
  -23.9883  -21.7876   27.8372 C   0  0  0  0  0  0  0  0  0  0  0  0
  -27.7998  -26.9332   25.1679 C   0  0  0  0  0  0  0  0  0  0  0  0
  -29.5210  -13.4668   18.4326 C   0  0  0  0  0  0  0  0  0  0  0  0
  -28.1768  -25.5514   25.6926 C   0  0  0  0  0  0  0  0  0  0  0  0
  -28.0343  -13.2070   18.6816 C   0  0  0  0  0  0  0  0  0  0  0  0
  -30.4019  -12.4776   19.1926 C   0  0  0  0  0  0  0  0  0  0  0  0
  -28.6478  -12.1362   20.8898 C   0  0  0  0  0  0  0  0  0  0  0  0
  -27.7008  -24.4500   24.7377 C   0  0  1  0  0  0  0  0  0  0  0  0
  -24.2535  -23.3026   25.8480 C   0  0  1  0  0  0  0  0  0  0  0  0
  -27.7208  -13.1439   20.1886 C   0  0  2  0  0  0  0  0  0  0  0  0
  -26.0375  -13.6958   24.5597 C   0  0  0  0  0  0  0  0  0  0  0  0
  -19.2599  -24.2097   31.6999 C   0  0  0  0  0  0  0  0  0  0  0  0
  -31.7671  -13.1015   26.5787 C   0  0  0  0  0  0  0  0  0  0  0  0
  -25.6624  -24.6100   30.0511 C   0  0  0  0  0  0  0  0  0  0  0  0
  -23.9029  -24.5935   31.8321 C   0  0  0  0  0  0  0  0  0  0  0  0
  -23.8964  -26.3803   30.0914 C   0  0  0  0  0  0  0  0  0  0  0  0
  -32.0737  -14.4377   23.7786 C   0  0  0  0  0  0  0  0  0  0  0  0
  -32.7409  -12.0514   23.8205 C   0  0  0  0  0  0  0  0  0  0  0  0
  -26.4165  -17.3926   28.1090 C   0  0  0  0  0  0  0  0  0  0  0  0
  -25.5398  -15.0697   27.7691 C   0  0  0  0  0  0  0  0  0  0  0  0
  -18.6545  -22.2838   28.4749 C   0  0  0  0  0  0  0  0  0  0  0  0
  -26.2906  -16.3712   25.7596 C   0  0  0  0  0  0  0  0  0  0  0  0
  -23.2181  -24.0290   29.4565 C   0  0  1  0  0  0  0  0  0  0  0  0
  -19.5196  -23.8050   30.2571 C   0  0  2  0  0  0  0  0  0  0  0  0
  -30.7333  -12.8669   25.3987 C   0  0  2  0  0  0  0  0  0  0  0  0
  -24.1724  -24.8814   30.3397 C   0  0  0  0  0  0  0  0  0  0  0  0
  -31.5369  -13.0031   23.9884 C   0  0  0  0  0  0  0  0  0  0  0  0
  -25.6444  -16.4732   27.1591 C   0  0  0  0  0  0  0  0  0  1  0  0
  -30.3313  -11.3494   25.6262 C   0  0  0  0  0  0  0  0  0  0  0  0
  -28.6430  -15.8771   26.1452 N   0  0  0  0  0  0  0  0  0  0  0  0
  -25.8713  -11.5654   20.6015 N   0  0  0  0  0  0  0  0  0  0  0  0
  -28.3850  -13.3302   24.9998 N   0  0  0  0  0  0  0  0  0  0  0  0
  -26.2553  -12.8436   20.4434 N   0  0  0  0  0  0  0  0  0  0  0  0
  -23.8203  -23.1204   27.2349 N   0  0  0  0  0  0  0  0  0  0  0  0
  -30.0549  -12.4674   20.6158 N   0  0  0  0  0  0  0  0  0  0  0  0
  -25.4435  -15.0685   20.4032 N   0  0  0  0  0  0  0  0  0  0  0  0
  -21.7296  -12.6181   21.1770 N   0  0  0  0  0  0  0  0  0  0  0  0
  -26.2807  -24.2217   24.8973 N   0  0  0  0  0  0  0  0  0  0  0  0
  -21.8007  -24.2848   29.6892 N   0  0  0  0  0  0  0  0  0  0  0  0
  -30.6328  -12.7262   22.8945 N   0  0  0  0  0  0  0  0  0  0  0  0
  -18.5295  -22.7580   29.8772 N   0  3  0  0  0  0  0  0  0  0  0  0
  -22.5257  -14.7470   20.8723 O   0  0  0  0  0  0  0  0  0  0  0  0
  -26.3858  -22.7464   26.6960 O   0  0  0  0  0  0  0  0  0  0  0  0
  -23.3014  -25.3772   27.5067 O   0  0  0  0  0  0  0  0  0  0  0  0
  -21.2401  -22.1087   30.2615 O   0  0  0  0  0  0  0  0  0  0  0  0
  -32.2151  -13.0119   21.2601 O   0  0  0  0  0  0  0  0  0  0  0  0
  -21.4805   -7.0721   21.6405 O   0  0  0  0  0  0  0  0  0  0  0  0
  -24.3166  -16.9757   27.0152 O   0  0  0  0  0  0  0  0  0  1  0  0
  -23.4470   -3.2727   25.1192 F   0  0  0  0  0  0  0  0  0  0  0  0
  -20.0640   -6.3518   23.9027 F   0  0  0  0  0  0  0  0  0  0  0  0
  -29.4342  -10.9740   24.6819 F   0  0  0  0  0  0  0  0  0  0  0  0
  -29.7492  -11.1030   26.8241 F   0  0  0  0  0  0  0  0  0  0  0  0
  -31.3877  -10.5149   25.5344 F   0  0  0  0  0  0  0  0  0  0  0  0
  1  2  1  0  0  0  0
  1  5  2  0  0  0  0
  2  6  2  0  0  0  0
  3  8  2  0  0  0  0
  3 16  1  0  0  0  0
  4  9  1  0  0  0  0
  4 16  2  0  0  0  0
  5 18  1  0  0  0  0
  6 20  1  0  0  0  0
  7 10  2  0  0  0  0
  7 19  1  0  0  0  0
  8 22  1  0  0  0  0
  9 22  2  0  0  0  0
 10 23  1  0  0  0  0
 11 12  2  0  0  0  0
 11 24  1  0  0  0  0
 12 25  1  0  0  0  0
 13 21  1  0  0  0  0
 13 23  2  0  0  0  0
 14 25  2  0  0  0  0
 14 26  1  0  0  0  0
 15 28  1  0  0  0  0
 15 68  2  0  0  0  0
 16 27  1  0  0  0  0
 17 27  1  0  0  0  0
 17 31  2  0  0  0  0
 17 32  1  0  0  0  0
 18 20  2  0  0  0  0
 18 37  1  0  0  0  0
 19 21  2  0  0  0  0
 19 38  1  0  0  0  0
 20 46  1  0  0  0  0
 21 39  1  0  0  0  0
 22 85  1  0  0  0  0
 23 86  1  0  0  0  0
 24 26  2  0  0  0  0
 24 85  1  0  0  0  0
 25 87  1  0  0  0  0
 26 88  1  0  0  0  0
 27 69  2  0  0  0  0
 28 63  1  0  0  0  0
 28 70  2  0  0  0  0
 29 30  2  0  0  0  0
 29 49  1  0  0  0  0
 29 70  1  0  0  0  0
 30 60  1  0  0  0  0
 30 68  1  0  0  0  0
 31 71  1  0  0  0  0
 31 74  1  0  0  0  0
 32 75  1  0  0  0  0
 32 80  2  0  0  0  0
 33 47  1  0  0  0  0
 33 76  1  0  0  0  0
 33 81  2  0  0  0  0
 34 61  1  0  0  0  0
 34 72  1  0  0  0  0
 34 82  2  0  0  0  0
 35 62  1  0  0  0  0
 35 77  1  0  0  0  0
 35 83  2  0  0  0  0
 36 73  1  0  0  0  0
 36 78  1  0  0  0  0
 36 84  2  0  0  0  0
 37 40  1  0  0  0  0
 38 47  1  0  0  0  0
 39 72  1  0  0  0  0
 40 42  1  0  0  0  0
 41 43  1  0  0  0  0
 41 44  1  0  0  0  0
 42 46  1  0  0  0  0
 43 48  1  0  0  0  0
 44 73  1  0  0  0  0
 45 48  1  0  0  0  0
 45 73  1  0  0  0  0
 46 76  1  0  0  0  0
 47 72  1  0  0  0  0
 48 71  1  0  0  0  0
 50 62  1  0  0  0  0
 51 63  1  0  0  0  0
 52 64  1  0  0  0  0
 53 64  1  0  0  0  0
 54 64  1  0  0  0  0
 55 65  1  0  0  0  0
 56 65  1  0  0  0  0
 57 66  1  0  0  0  0
 58 66  1  0  0  0  0
 59 79  1  0  0  0  0
 60 66  1  0  0  0  0
 61 64  1  0  0  0  0
 61 77  1  0  0  0  0
 62 79  1  0  0  0  0
 63 65  1  0  0  0  0
 63 67  1  0  0  0  0
 65 78  1  0  0  0  0
 66 86  1  0  0  0  0
 67 89  1  0  0  0  0
 67 90  1  0  0  0  0
 67 91  1  0  0  0  0
 69 71  1  0  0  0  0
M  CHG  1  79   1
M  ISO  4  36 100  66 101  78 100  86 101
M  END
> <Batch ID>
0065

> <Smiles>
CNC(C)C(=O)NC(C(=O)N1Cc2cc([101O:1][101C:1](C)(C)Cc3ncc(C(C)(C(F)(F)F)C(C)(C)[100NH:0][100C:0](=O)N4CCCC(n5nc(-c6ccc(Oc7ccc(F)cc7F)cc6)c(C(N)=O)c5N)C4)nc3C)ccc2CC1C(=O)NC1CCCc2ccccc21)C(C)(C)C

> <Shape>
0.148

> <Color>
0.171

> <Negative vol penalty>
0.000

$$$$

  -OEChem-04052318073D

 86 94  0     1  0  0  0  0  0999 V2000
  -16.9505  -27.7724   21.9491 C   0  0  0  0  0  0  0  0  0  0  0  0
  -17.9474  -27.6105   20.9923 C   0  0  0  0  0  0  0  0  0  0  0  0
  -25.7253  -14.4741   21.4343 C   0  0  0  0  0  0  0  0  0  0  0  0
  -25.1941  -15.1447   19.1748 C   0  0  0  0  0  0  0  0  0  0  0  0
  -17.1723  -28.5946   23.0530 C   0  0  0  0  0  0  0  0  0  0  0  0
  -19.1663  -28.2718   21.1383 C   0  0  0  0  0  0  0  0  0  0  0  0
  -24.6932  -26.2106   19.4919 C   0  0  0  0  0  0  0  0  0  0  0  0
  -24.6816  -13.5492   21.4052 C   0  0  0  0  0  0  0  0  0  0  0  0
  -24.1504  -14.2198   19.1457 C   0  0  0  0  0  0  0  0  0  0  0  0
  -25.4859  -26.4459   18.3694 C   0  0  0  0  0  0  0  0  0  0  0  0
  -24.1225  -10.4632   20.1415 C   0  0  0  0  0  0  0  0  0  0  0  0
  -24.3767   -9.1832   20.6341 C   0  0  0  0  0  0  0  0  0  0  0  0
  -26.6843  -28.1532   19.5811 C   0  0  0  0  0  0  0  0  0  0  0  0
  -22.6406   -9.4751   22.2887 C   0  0  0  0  0  0  0  0  0  0  0  0
  -25.9816  -15.2719   20.3191 C   0  0  0  0  0  0  0  0  0  0  0  0
  -28.3977  -16.0120   19.9698 C   0  0  0  0  0  0  0  0  0  0  0  0
  -18.3981  -29.2587   23.2176 C   0  0  0  0  0  0  0  0  0  0  0  0
  -24.8832  -26.9536   20.6659 C   0  0  0  0  0  0  0  0  0  0  0  0
  -19.4042  -29.1047   22.2448 C   0  0  0  0  0  0  0  0  0  0  0  0
  -25.8944  -27.9236   20.7179 C   0  0  0  0  0  0  0  0  0  0  0  0
  -23.8941  -13.4220   20.2609 C   0  0  0  0  0  0  0  0  0  0  0  0
  -26.4797  -27.4193   18.4130 C   0  0  0  0  0  0  0  0  0  0  0  0
  -23.1274  -11.2492   20.7227 C   0  0  0  0  0  0  0  0  0  0  0  0
  -23.6358   -8.6891   21.7076 C   0  0  0  0  0  0  0  0  0  0  0  0
  -22.3865  -10.7552   21.7962 C   0  0  0  0  0  0  0  0  0  0  0  0
  -27.0592  -16.2278   20.3488 C   0  0  0  0  0  0  0  0  0  0  0  0
  -29.0141  -17.2208   20.1828 C   0  0  0  0  0  0  0  0  0  0  0  0
  -29.7513  -25.6190   15.8441 C   0  0  0  0  0  0  0  0  0  0  0  0
  -30.4047  -23.9258   17.0337 C   0  0  0  0  0  0  0  0  0  0  0  0
  -29.0276  -14.8250   19.4699 C   0  0  0  0  0  0  0  0  0  0  0  0
  -23.0941  -28.9549   22.3681 C   0  0  0  0  0  0  0  0  0  0  0  0
  -25.6027  -28.8347   24.4211 C   0  0  0  0  0  0  0  0  0  0  0  0
  -28.9317  -28.2529   24.8970 C   0  0  0  0  0  0  0  0  0  0  0  0
  -29.0824  -22.7867   19.7802 C   0  0  0  0  0  0  0  0  0  0  0  0
  -18.5742  -30.1743   24.4030 C   0  0  0  0  0  0  0  0  0  0  0  0
  -24.0374  -26.6692   21.8768 C   0  0  0  0  0  0  0  0  0  0  0  0
  -26.1522  -28.7345   21.9607 C   0  0  0  0  0  0  0  0  0  0  0  0
  -20.0299  -30.5436   24.6765 C   0  0  0  0  0  0  0  0  0  0  0  0
  -27.3850  -21.3713   22.5716 C   0  0  0  0  0  0  0  0  0  0  0  0
  -20.7305  -30.9464   23.3828 C   0  0  0  0  0  0  0  0  0  0  0  0
  -27.2540  -19.8912   22.2081 C   0  0  0  0  0  0  0  0  0  0  0  0
  -27.2337  -22.2691   21.3457 C   0  0  0  0  0  0  0  0  0  0  0  0
  -27.9992  -20.4592   19.8584 C   0  0  0  0  0  0  0  0  0  0  0  0
  -20.7488  -29.7857   22.3808 C   0  0  1  0  0  0  0  0  0  0  0  0
  -23.9778  -27.8404   22.8525 C   0  0  1  0  0  0  0  0  0  0  0  0
  -28.2004  -19.5116   21.0533 C   0  0  2  0  0  0  0  0  0  0  0  0
  -31.8936  -26.9107   17.9155 C   0  0  0  0  0  0  0  0  0  0  0  0
  -30.6998  -28.2716   26.6776 C   0  0  0  0  0  0  0  0  0  0  0  0
  -32.6449  -21.5467   19.2096 C   0  0  0  0  0  0  0  0  0  0  0  0
  -33.4533  -23.2076   17.5221 C   0  0  0  0  0  0  0  0  0  0  0  0
  -32.0608  -21.2631   16.8060 C   0  0  0  0  0  0  0  0  0  0  0  0
  -25.6766  -31.8831   24.3124 C   0  0  0  0  0  0  0  0  0  0  0  0
  -27.9747  -31.7932   25.3018 C   0  0  0  0  0  0  0  0  0  0  0  0
  -26.0288  -30.9116   26.5898 C   0  0  0  0  0  0  0  0  0  0  0  0
  -29.4837  -25.3670   24.5420 C   0  0  0  0  0  0  0  0  0  0  0  0
  -29.4385  -27.0394   15.4464 C   0  0  0  0  0  0  0  0  0  0  0  0
  -27.9741  -27.2633   15.0629 C   0  0  0  0  0  0  0  0  0  0  0  0
  -30.5877  -26.1704   18.1481 C   0  0  0  0  0  0  0  0  0  0  0  0
  -26.9945  -26.8610   16.1592 C   0  0  0  0  0  0  0  0  0  1  0  0
  -30.9341  -23.1478   18.1677 C   0  0  2  0  0  0  0  0  0  0  0  0
  -26.8822  -29.6173   24.5927 C   0  0  1  0  0  0  0  0  0  0  0  0
  -29.6720  -27.4307   25.9364 C   0  0  2  0  0  0  0  0  0  0  0  0
  -32.2659  -22.3122   17.9241 C   0  0  0  0  0  0  0  0  0  0  0  0
  -26.6347  -31.0375   25.1750 C   0  0  0  0  0  0  0  0  0  0  0  0
  -26.8376  -17.4756   20.7707 N   0  0  0  0  0  0  0  0  0  0  0  0
  -29.5883  -24.5381   15.1151 N   0  0  0  0  0  0  0  0  0  0  0  0
  -30.0040  -23.4609   15.8719 N   0  0  0  0  0  0  0  0  0  0  0  0
  -28.0451  -18.0546   20.6582 N   0  0  0  0  0  0  0  0  0  0  0  0
  -30.2632  -25.2801   17.0598 N   0  0  0  0  0  0  0  0  0  0  0  0
  -25.2947  -28.4237   23.1164 N   0  0  0  0  0  0  0  0  0  0  0  0
  -28.1600  -21.8571   20.2883 N   0  0  0  0  0  0  0  0  0  0  0  0
  -30.2850  -17.6412   20.0080 N   0  0  0  0  0  0  0  0  0  0  0  0
  -28.2481  -13.6710   19.3114 N   0  0  0  0  0  0  0  0  0  0  0  0
  -21.7695  -28.8245   22.7394 N   0  0  0  0  0  0  0  0  0  0  0  0
  -27.7644  -28.7846   25.4031 N   0  0  0  0  0  0  0  0  0  0  0  0
  -29.9278  -22.3125   18.7846 N   0  0  0  0  0  0  0  0  0  0  0  0
  -30.3779  -26.2897   25.2876 N   0  3  0  0  0  0  0  0  0  0  0  0
  -30.2492  -14.7841   19.1880 O   0  0  0  0  0  0  0  0  0  0  0  0
  -23.5784  -29.8665   21.7077 O   0  0  0  0  0  0  0  0  0  0  0  0
  -24.9059  -28.5907   25.4093 O   0  0  0  0  0  0  0  0  0  0  0  0
  -29.3490  -28.4109   23.7518 O   0  0  0  0  0  0  0  0  0  0  0  0
  -29.1511  -23.9513   20.1875 O   0  0  0  0  0  0  0  0  0  0  0  0
  -22.8758  -12.5195   20.2320 O   0  0  0  0  0  0  0  0  0  0  0  0
  -27.2545  -27.6514   17.3185 O   0  0  0  0  0  0  0  0  0  1  0  0
  -23.8789   -7.4593   22.1795 F   0  0  0  0  0  0  0  0  0  0  0  0
  -21.4284  -11.5052   22.3578 F   0  0  0  0  0  0  0  0  0  0  0  0
  1  2  1  0  0  0  0
  1  5  2  0  0  0  0
  2  6  2  0  0  0  0
  3  8  2  0  0  0  0
  3 15  1  0  0  0  0
  4  9  1  0  0  0  0
  4 15  2  0  0  0  0
  5 17  1  0  0  0  0
  6 19  1  0  0  0  0
  7 10  2  0  0  0  0
  7 18  1  0  0  0  0
  8 21  1  0  0  0  0
  9 21  2  0  0  0  0
 10 22  1  0  0  0  0
 11 12  2  0  0  0  0
 11 23  1  0  0  0  0
 12 24  1  0  0  0  0
 13 20  1  0  0  0  0
 13 22  2  0  0  0  0
 14 24  2  0  0  0  0
 14 25  1  0  0  0  0
 15 26  1  0  0  0  0
 16 26  1  0  0  0  0
 16 27  2  0  0  0  0
 16 30  1  0  0  0  0
 17 19  2  0  0  0  0
 17 35  1  0  0  0  0
 18 20  2  0  0  0  0
 18 36  1  0  0  0  0
 19 44  1  0  0  0  0
 20 37  1  0  0  0  0
 21 83  1  0  0  0  0
 22 84  1  0  0  0  0
 23 25  2  0  0  0  0
 23 83  1  0  0  0  0
 24 85  1  0  0  0  0
 25 86  1  0  0  0  0
 26 65  2  0  0  0  0
 27 68  1  0  0  0  0
 27 72  1  0  0  0  0
 28 56  1  0  0  0  0
 28 66  2  0  0  0  0
 28 69  1  0  0  0  0
 29 60  1  0  0  0  0
 29 67  2  0  0  0  0
 29 69  1  0  0  0  0
 30 73  1  0  0  0  0
 30 78  2  0  0  0  0
 31 45  1  0  0  0  0
 31 74  1  0  0  0  0
 31 79  2  0  0  0  0
 32 61  1  0  0  0  0
 32 70  1  0  0  0  0
 32 80  2  0  0  0  0
 33 62  1  0  0  0  0
 33 75  1  0  0  0  0
 33 81  2  0  0  0  0
 34 71  1  0  0  0  0
 34 76  1  0  0  0  0
 34 82  2  0  0  0  0
 35 38  1  0  0  0  0
 36 45  1  0  0  0  0
 37 70  1  0  0  0  0
 38 40  1  0  0  0  0
 39 41  1  0  0  0  0
 39 42  1  0  0  0  0
 40 44  1  0  0  0  0
 41 46  1  0  0  0  0
 42 71  1  0  0  0  0
 43 46  1  0  0  0  0
 43 71  1  0  0  0  0
 44 74  1  0  0  0  0
 45 70  1  0  0  0  0
 46 68  1  0  0  0  0
 47 58  1  0  0  0  0
 48 62  1  0  0  0  0
 49 63  1  0  0  0  0
 50 63  1  0  0  0  0
 51 63  1  0  0  0  0
 52 64  1  0  0  0  0
 53 64  1  0  0  0  0
 54 64  1  0  0  0  0
 55 77  1  0  0  0  0
 56 57  1  0  0  0  0
 57 59  1  0  0  0  0
 58 69  1  0  0  0  0
 59 84  1  0  0  0  0
 60 63  1  0  0  0  0
 60 76  1  0  0  0  0
 61 64  1  0  0  0  0
 61 75  1  0  0  0  0
 62 77  1  0  0  0  0
 65 68  1  0  0  0  0
 66 67  1  0  0  0  0
M  CHG  1  77   1
M  ISO  4  34 100  59 101  76 100  84 101
M  END
> <Batch ID>
0065

> <Smiles>
CCn1c(CC[101CH2:1][101O:1]c2ccc3c(c2)CN(C(=O)C(NC(=O)C(C)NC)C(C)(C)C)C(C(=O)NC2CCCc4ccccc42)C3)nnc1C([100NH:0][100C:0](=O)N1CCCC(n2nc(-c3ccc(Oc4ccc(F)cc4F)cc3)c(C(N)=O)c2N)C1)C(C)(C)C

> <Shape>
0.304

> <Color>
0.070

> <Negative vol penalty>
0.000

$$$$

  -OEChem-04052318073D

 89 97  0     1  0  0  0  0  0999 V2000
  -22.9190   -7.8007   21.8869 C   0  0  0  0  0  0  0  0  0  0  0  0
  -24.2012   -8.3295   21.9956 C   0  0  0  0  0  0  0  0  0  0  0  0
  -20.3726  -27.0102   18.5632 C   0  0  0  0  0  0  0  0  0  0  0  0
  -21.1310  -24.8664   19.3792 C   0  0  0  0  0  0  0  0  0  0  0  0
  -21.9364   -8.4967   21.1842 C   0  0  0  0  0  0  0  0  0  0  0  0
  -24.5018   -9.5543   21.4007 C   0  0  0  0  0  0  0  0  0  0  0  0
  -28.5920  -15.3606   22.3353 C   0  0  0  0  0  0  0  0  0  0  0  0
  -19.4895  -26.3676   17.6955 C   0  0  0  0  0  0  0  0  0  0  0  0
  -20.2478  -24.2237   18.5116 C   0  0  0  0  0  0  0  0  0  0  0  0
  -29.5228  -16.1434   21.6537 C   0  0  0  0  0  0  0  0  0  0  0  0
  -16.9458  -23.5140   18.3965 C   0  0  0  0  0  0  0  0  0  0  0  0
  -16.1917  -22.4575   18.9071 C   0  0  0  0  0  0  0  0  0  0  0  0
  -27.7241  -17.2947   20.5319 C   0  0  0  0  0  0  0  0  0  0  0  0
  -17.1798  -20.9671   17.2825 C   0  0  0  0  0  0  0  0  0  0  0  0
  -21.1934  -26.2596   19.4050 C   0  0  0  0  0  0  0  0  0  0  0  0
  -21.8510  -27.3354   21.6226 C   0  0  0  0  0  0  0  0  0  0  0  0
  -22.2225   -9.7353   20.5885 C   0  0  0  0  0  0  0  0  0  0  0  0
  -27.2182  -15.5318   22.1118 C   0  0  0  0  0  0  0  0  0  0  0  0
  -23.5224  -10.2670   20.6881 C   0  0  0  0  0  0  0  0  0  0  0  0
  -26.7778  -16.5145   21.2138 C   0  0  0  0  0  0  0  0  0  0  0  0
  -19.4271  -24.9743   17.6698 C   0  0  0  0  0  0  0  0  0  0  0  0
  -29.0890  -17.1087   20.7497 C   0  0  0  0  0  0  0  0  0  0  0  0
  -17.8168  -23.2971   17.3288 C   0  0  0  0  0  0  0  0  0  0  0  0
  -16.3088  -21.1841   18.3501 C   0  0  0  0  0  0  0  0  0  0  0  0
  -17.9338  -22.0237   16.7718 C   0  0  0  0  0  0  0  0  0  0  0  0
  -22.1062  -26.9228   20.3010 C   0  0  0  0  0  0  0  0  0  0  0  0
  -28.9131  -19.6633   18.8606 C   0  0  0  0  0  0  0  0  0  0  0  0
  -27.9142  -20.1464   18.0486 C   0  0  0  0  0  0  0  0  0  0  0  0
  -23.0285  -27.9086   22.0367 C   0  0  0  0  0  0  0  0  0  0  0  0
  -28.4460  -21.5956   19.6214 C   0  0  0  0  0  0  0  0  0  0  0  0
  -20.6565  -27.2115   22.4058 C   0  0  0  0  0  0  0  0  0  0  0  0
  -24.8804  -13.6895   20.9963 C   0  0  0  0  0  0  0  0  0  0  0  0
  -23.0189  -16.2055   21.8487 C   0  0  0  0  0  0  0  0  0  0  0  0
  -22.7808  -19.5511   22.4790 C   0  0  0  0  0  0  0  0  0  0  0  0
  -28.7274  -27.1953   20.3442 C   0  0  0  0  0  0  0  0  0  0  0  0
  -21.1403  -10.4282   19.7989 C   0  0  0  0  0  0  0  0  0  0  0  0
  -26.2261  -14.6976   22.8748 C   0  0  0  0  0  0  0  0  0  0  0  0
  -25.3135  -16.7517   20.9532 C   0  0  0  0  0  0  0  0  0  0  0  0
  -21.4392  -11.8983   19.5160 C   0  0  0  0  0  0  0  0  0  0  0  0
  -26.8601  -30.2268   20.3528 C   0  0  0  0  0  0  0  0  0  0  0  0
  -22.8715  -12.0658   19.0189 C   0  0  0  0  0  0  0  0  0  0  0  0
  -25.4070  -29.7610   20.4598 C   0  0  0  0  0  0  0  0  0  0  0  0
  -27.6945  -29.2798   19.4931 C   0  0  0  0  0  0  0  0  0  0  0  0
  -26.1891  -27.3980   20.0091 C   0  0  0  0  0  0  0  0  0  0  0  0
  -23.8804  -11.6046   20.0776 C   0  0  1  0  0  0  0  0  0  0  0  0
  -24.8676  -14.6064   22.1866 C   0  0  1  0  0  0  0  0  0  0  0  0
  -25.3212  -28.2909   20.9123 C   0  0  2  0  0  0  0  0  0  0  0  0
  -27.2290  -19.5648   16.8803 C   0  0  0  0  0  0  0  0  0  0  0  0
  -30.8801  -18.4025   17.9203 C   0  0  0  0  0  0  0  0  0  0  0  0
  -27.8776  -22.6174   21.8555 C   0  0  0  0  0  0  0  0  0  0  0  0
  -21.1214  -21.3223   23.1167 C   0  0  0  0  0  0  0  0  0  0  0  0
  -21.9136  -16.1905   19.0047 C   0  0  0  0  0  0  0  0  0  0  0  0
  -21.0190  -18.4927   19.4147 C   0  0  0  0  0  0  0  0  0  0  0  0
  -20.2022  -16.5764   20.7870 C   0  0  0  0  0  0  0  0  0  0  0  0
  -30.9499  -22.9646   20.9790 C   0  0  0  0  0  0  0  0  0  0  0  0
  -30.0971  -24.1129   18.9360 C   0  0  0  0  0  0  0  0  0  0  0  0
  -25.2373  -21.6478   18.0885 C   0  0  0  0  0  0  0  0  0  0  0  0
  -26.9777  -22.6768   16.5746 C   0  0  0  0  0  0  0  0  0  0  0  0
  -26.5388  -23.6318   18.8251 C   0  0  0  0  0  0  0  0  0  0  0  0
  -24.2420  -20.1858   24.9732 C   0  0  0  0  0  0  0  0  0  0  0  0
  -29.6115  -25.0473   21.2180 C   0  0  0  0  0  0  0  0  0  0  0  0
  -29.6264  -18.3330   18.7829 C   0  0  1  0  0  0  0  0  0  1  0  0
  -28.4090  -22.8459   20.4078 C   0  0  1  0  0  0  0  0  0  0  0  0
  -22.5402  -17.4622   21.1626 C   0  0  1  0  0  0  0  0  0  0  0  0
  -22.1440  -20.3175   23.6242 C   0  0  2  0  0  0  0  0  0  0  0  0
  -21.4465  -17.1749   20.0955 C   0  0  0  0  0  0  0  0  0  0  0  0
  -29.7441  -23.7334   20.3948 C   0  0  0  0  0  0  0  0  0  0  0  0
  -26.6350  -22.3036   18.0342 C   0  0  0  0  0  0  0  0  0  0  0  0
  -23.3482  -27.2097   19.9020 N   0  0  0  0  0  0  0  0  0  0  0  0
  -29.2394  -20.5700   19.8379 N   0  0  0  0  0  0  0  0  0  0  0  0
  -27.6251  -21.3848   18.5486 N   0  0  0  0  0  0  0  0  0  0  0  0
  -23.8839  -27.8088   20.9792 N   0  0  0  0  0  0  0  0  0  0  0  0
  -24.3825  -15.9064   21.7190 N   0  0  0  0  0  0  0  0  0  0  0  0
  -27.5708  -27.9024   19.9760 N   0  0  0  0  0  0  0  0  0  0  0  0
  -23.4051  -28.4834   23.1987 N   0  0  0  0  0  0  0  0  0  0  0  0
  -19.5384  -26.5962   21.8263 N   0  0  0  0  0  0  0  0  0  0  0  0
  -24.0258  -12.6094   21.1089 N   0  0  0  0  0  0  0  0  0  0  0  0
  -22.1166  -18.3702   22.2230 N   0  0  0  0  0  0  0  0  0  0  0  0
  -28.5207  -25.8980   20.7970 N   0  0  0  0  0  0  0  0  0  0  0  0
  -23.1842  -21.0546   24.3959 N   0  3  0  0  0  0  0  0  0  0  0  0
  -20.5776  -27.6485   23.5789 O   0  0  0  0  0  0  0  0  0  0  0  0
  -25.6104  -13.9439   20.0455 O   0  0  0  0  0  0  0  0  0  0  0  0
  -22.2139  -15.5185   22.4825 O   0  0  0  0  0  0  0  0  0  0  0  0
  -23.7664  -19.9609   21.8698 O   0  0  0  0  0  0  0  0  0  0  0  0
  -29.8597  -27.6859   20.2796 O   0  0  0  0  0  0  0  0  0  0  0  0
  -18.5653  -24.3469   16.8234 O   0  0  0  0  0  0  0  0  0  0  0  0
  -29.9955  -17.8737   20.0826 O   0  0  0  0  0  0  0  0  0  1  0  0
  -15.5857  -20.1693   18.8416 F   0  0  0  0  0  0  0  0  0  0  0  0
  -18.7698  -21.8089   15.7467 F   0  0  0  0  0  0  0  0  0  0  0  0
  1  2  1  0  0  0  0
  1  5  2  0  0  0  0
  2  6  2  0  0  0  0
  3  8  2  0  0  0  0
  3 15  1  0  0  0  0
  4  9  1  0  0  0  0
  4 15  2  0  0  0  0
  5 17  1  0  0  0  0
  6 19  1  0  0  0  0
  7 10  2  0  0  0  0
  7 18  1  0  0  0  0
  8 21  1  0  0  0  0
  9 21  2  0  0  0  0
 10 22  1  0  0  0  0
 11 12  2  0  0  0  0
 11 23  1  0  0  0  0
 12 24  1  0  0  0  0
 13 20  1  0  0  0  0
 13 22  2  0  0  0  0
 14 24  2  0  0  0  0
 14 25  1  0  0  0  0
 15 26  1  0  0  0  0
 16 26  1  0  0  0  0
 16 29  2  0  0  0  0
 16 31  1  0  0  0  0
 17 19  2  0  0  0  0
 17 36  1  0  0  0  0
 18 20  2  0  0  0  0
 18 37  1  0  0  0  0
 19 45  1  0  0  0  0
 20 38  1  0  0  0  0
 21 86  1  0  0  0  0
 22 87  1  0  0  0  0
 23 25  2  0  0  0  0
 23 86  1  0  0  0  0
 24 88  1  0  0  0  0
 25 89  1  0  0  0  0
 26 69  2  0  0  0  0
 27 28  2  0  0  0  0
 27 62  1  0  0  0  0
 27 70  1  0  0  0  0
 28 48  1  0  0  0  0
 28 71  1  0  0  0  0
 29 72  1  0  0  0  0
 29 75  1  0  0  0  0
 30 63  1  0  0  0  0
 30 70  2  0  0  0  0
 30 71  1  0  0  0  0
 31 76  1  0  0  0  0
 31 81  2  0  0  0  0
 32 46  1  0  0  0  0
 32 77  1  0  0  0  0
 32 82  2  0  0  0  0
 33 64  1  0  0  0  0
 33 73  1  0  0  0  0
 33 83  2  0  0  0  0
 34 65  1  0  0  0  0
 34 78  1  0  0  0  0
 34 84  2  0  0  0  0
 35 74  1  0  0  0  0
 35 79  1  0  0  0  0
 35 85  2  0  0  0  0
 36 39  1  0  0  0  0
 37 46  1  0  0  0  0
 38 73  1  0  0  0  0
 39 41  1  0  0  0  0
 40 42  1  0  0  0  0
 40 43  1  0  0  0  0
 41 45  1  0  0  0  0
 42 47  1  0  0  0  0
 43 74  1  0  0  0  0
 44 47  1  0  0  0  0
 44 74  1  0  0  0  0
 45 77  1  0  0  0  0
 46 73  1  0  0  0  0
 47 72  1  0  0  0  0
 49 62  1  0  0  0  0
 50 63  1  0  0  0  0
 51 65  1  0  0  0  0
 52 66  1  0  0  0  0
 53 66  1  0  0  0  0
 54 66  1  0  0  0  0
 55 67  1  0  0  0  0
 56 67  1  0  0  0  0
 57 68  1  0  0  0  0
 58 68  1  0  0  0  0
 59 68  1  0  0  0  0
 60 80  1  0  0  0  0
 61 67  1  0  0  0  0
 61 79  1  0  0  0  0
 62 87  1  0  0  0  0
 63 67  1  0  0  0  0
 64 66  1  0  0  0  0
 64 78  1  0  0  0  0
 65 80  1  0  0  0  0
 68 71  1  0  0  0  0
 69 72  1  0  0  0  0
M  CHG  1  80   1
M  ISO  4  35 100  62 101  79 100  87 101
M  END
> <Batch ID>
0065

> <Smiles>
CNC(C)C(=O)NC(C(=O)N1Cc2cc([101O:1][101CH:1](C)c3nc(C(C)C(C)(C)C[100NH:0][100C:0](=O)N4CCCC(n5nc(-c6ccc(Oc7ccc(F)cc7F)cc6)c(C(N)=O)c5N)C4)n(C(C)(C)C)c3C)ccc2CC1C(=O)NC1CCCc2ccccc21)C(C)(C)C

> <Shape>
0.228

> <Color>
0.082

> <Negative vol penalty>
0.000

$$$$

  -OEChem-04052318073D

 89 97  0     1  0  0  0  0  0999 V2000
  -34.1963   -9.5640   19.0489 C   0  0  0  0  0  0  0  0  0  0  0  0
  -34.0985  -10.9481   19.1499 C   0  0  0  0  0  0  0  0  0  0  0  0
  -23.2658  -28.1707   24.8944 C   0  0  0  0  0  0  0  0  0  0  0  0
  -24.5827  -28.7881   22.9653 C   0  0  0  0  0  0  0  0  0  0  0  0
  -33.1139   -8.8224   18.5774 C   0  0  0  0  0  0  0  0  0  0  0  0
  -32.9185  -11.5915   18.7784 C   0  0  0  0  0  0  0  0  0  0  0  0
  -30.4870  -16.5924   21.3445 C   0  0  0  0  0  0  0  0  0  0  0  0
  -23.8734  -29.1853   25.6340 C   0  0  0  0  0  0  0  0  0  0  0  0
  -25.1903  -29.8028   23.7048 C   0  0  0  0  0  0  0  0  0  0  0  0
  -30.5218  -17.9402   20.9895 C   0  0  0  0  0  0  0  0  0  0  0  0
  -24.4257  -32.9272   24.7411 C   0  0  0  0  0  0  0  0  0  0  0  0
  -24.5569  -34.1777   24.1372 C   0  0  0  0  0  0  0  0  0  0  0  0
  -28.3938  -17.6967   19.8799 C   0  0  0  0  0  0  0  0  0  0  0  0
  -28.5096  -26.2788   19.8647 C   0  0  0  0  0  0  0  0  0  0  0  0
  -26.9573  -34.0405   24.3745 C   0  0  0  0  0  0  0  0  0  0  0  0
  -23.6205  -27.9721   23.5601 C   0  0  0  0  0  0  0  0  0  0  0  0
  -21.8196  -27.0195   22.0247 C   0  0  0  0  0  0  0  0  0  0  0  0
  -31.9167   -9.4562   18.2091 C   0  0  0  0  0  0  0  0  0  0  0  0
  -29.4087  -15.7827   20.9599 C   0  0  0  0  0  0  0  0  0  0  0  0
  -31.8195  -10.8578   18.3003 C   0  0  0  0  0  0  0  0  0  0  0  0
  -28.3464  -16.3395   20.2335 C   0  0  0  0  0  0  0  0  0  0  0  0
  -29.1964  -25.0754   19.9802 C   0  0  0  0  0  0  0  0  0  0  0  0
  -28.8148  -23.9864   19.2044 C   0  0  0  0  0  0  0  0  0  0  0  0
  -24.8356  -30.0014   25.0392 C   0  0  0  0  0  0  0  0  0  0  0  0
  -29.4765  -18.4918   20.2546 C   0  0  0  0  0  0  0  0  0  0  0  0
  -25.5604  -32.2334   25.1618 C   0  0  0  0  0  0  0  0  0  0  0  0
  -25.8227  -34.7343   23.9539 C   0  0  0  0  0  0  0  0  0  0  0  0
  -26.8261  -32.7900   24.9785 C   0  0  0  0  0  0  0  0  0  0  0  0
  -22.9936  -26.9238   22.7957 C   0  0  0  0  0  0  0  0  0  0  0  0
  -27.4570  -26.3412   18.9659 C   0  0  0  0  0  0  0  0  0  0  0  0
  -27.7484  -24.1513   18.3353 C   0  0  0  0  0  0  0  0  0  0  0  0
  -21.6477  -25.7605   21.5033 C   0  0  0  0  0  0  0  0  0  0  0  0
  -20.9614  -28.1458   21.7999 C   0  0  0  0  0  0  0  0  0  0  0  0
  -29.0835  -13.1927   19.1460 C   0  0  0  0  0  0  0  0  0  0  0  0
  -26.0251  -13.2998   20.2218 C   0  0  0  0  0  0  0  0  0  0  0  0
  -23.4669  -15.1626   21.4995 C   0  0  0  0  0  0  0  0  0  0  0  0
  -25.4406  -21.2759   20.3401 C   0  0  0  0  0  0  0  0  0  0  0  0
  -30.7901   -8.6169   17.6604 C   0  0  0  0  0  0  0  0  0  0  0  0
  -29.3733  -14.3370   21.3737 C   0  0  0  0  0  0  0  0  0  0  0  0
  -27.1561  -15.5178   19.8135 C   0  0  0  0  0  0  0  0  0  0  0  0
  -29.4456   -9.3396   17.6413 C   0  0  0  0  0  0  0  0  0  0  0  0
  -22.5695  -21.1606   22.4425 C   0  0  0  0  0  0  0  0  0  0  0  0
  -29.6027  -10.7444   17.0680 C   0  0  0  0  0  0  0  0  0  0  0  0
  -22.2467  -22.6332   22.7019 C   0  0  0  0  0  0  0  0  0  0  0  0
  -24.0754  -20.9163   22.3756 C   0  0  0  0  0  0  0  0  0  0  0  0
  -24.4771  -23.2455   21.6776 C   0  0  0  0  0  0  0  0  0  0  0  0
  -30.5476  -11.5898   17.9305 C   0  0  1  0  0  0  0  0  0  0  0  0
  -28.4716  -13.4836   20.4871 C   0  0  1  0  0  0  0  0  0  0  0  0
  -22.9696  -23.5510   21.6977 C   0  0  2  0  0  0  0  0  0  0  0  0
  -30.3334  -24.9781   20.9429 C   0  0  0  0  0  0  0  0  0  0  0  0
  -21.0765  -14.9800   22.2412 C   0  0  0  0  0  0  0  0  0  0  0  0
  -28.3677  -22.4546   16.4821 C   0  0  0  0  0  0  0  0  0  0  0  0
  -26.1054  -23.4701   16.5649 C   0  0  0  0  0  0  0  0  0  0  0  0
  -25.1290  -13.2211   17.3062 C   0  0  0  0  0  0  0  0  0  0  0  0
  -22.8661  -13.9885   18.0536 C   0  0  0  0  0  0  0  0  0  0  0  0
  -23.7681  -11.8050   18.8544 C   0  0  0  0  0  0  0  0  0  0  0  0
  -24.1392  -15.9890   24.2607 C   0  0  0  0  0  0  0  0  0  0  0  0
  -29.5423  -22.6696   19.3063 C   0  0  0  0  0  0  0  0  0  0  0  0
  -29.5301  -22.0665   20.7126 C   0  0  0  0  0  0  0  0  0  0  0  0
  -26.7768  -21.7960   18.3145 C   0  0  0  0  0  0  0  0  0  0  0  0
  -30.1931  -20.6960   20.7876 C   0  0  0  0  0  0  0  0  0  1  0  0
  -24.7489  -13.9554   19.7521 C   0  0  1  0  0  0  0  0  0  0  0  0
  -22.5337  -14.9219   22.6724 C   0  0  2  0  0  0  0  0  0  0  0  0
  -27.2933  -23.0182   17.4748 C   0  0  0  0  0  0  0  0  0  0  0  0
  -26.6981  -27.6172   18.8144 C   0  0  0  0  0  0  0  0  0  0  0  0
  -24.1512  -13.2578   18.4977 C   0  0  0  0  0  0  0  0  0  0  0  0
  -23.5294  -25.7006   22.7694 N   0  0  0  0  0  0  0  0  0  0  0  0
  -27.0573  -25.3048   18.1954 N   0  0  0  0  0  0  0  0  0  0  0  0
  -22.6883  -25.0161   21.9756 N   0  0  0  0  0  0  0  0  0  0  0  0
  -27.1709  -14.1078   20.2367 N   0  0  0  0  0  0  0  0  0  0  0  0
  -24.7005  -21.8171   21.4042 N   0  0  0  0  0  0  0  0  0  0  0  0
  -20.7092  -25.2287   20.6916 N   0  0  0  0  0  0  0  0  0  0  0  0
  -21.2845  -29.3647   22.4116 N   0  0  0  0  0  0  0  0  0  0  0  0
  -29.8665  -12.0545   19.1198 N   0  0  0  0  0  0  0  0  0  0  0  0
  -23.8549  -13.9807   20.9046 N   0  0  0  0  0  0  0  0  0  0  0  0
  -25.9942  -22.1992   19.4615 N   0  0  0  0  0  0  0  0  0  0  0  0
  -22.7528  -15.9506   23.7282 N   0  3  0  0  0  0  0  0  0  0  0  0
  -19.9292  -28.0692   21.0912 O   0  0  0  0  0  0  0  0  0  0  0  0
  -28.8604  -13.9444   18.2043 O   0  0  0  0  0  0  0  0  0  0  0  0
  -26.0046  -12.1165   20.5696 O   0  0  0  0  0  0  0  0  0  0  0  0
  -23.8138  -16.2868   21.1441 O   0  0  0  0  0  0  0  0  0  0  0  0
  -25.5920  -20.0598   20.1815 O   0  0  0  0  0  0  0  0  0  0  0  0
  -25.4285  -30.9917   25.7605 O   0  0  0  0  0  0  0  0  0  0  0  0
  -29.5083  -19.8069   19.9062 O   0  0  0  0  0  0  0  0  0  1  0  0
  -25.9486  -35.9345   23.3725 F   0  0  0  0  0  0  0  0  0  0  0  0
  -27.9199  -32.1277   25.3795 F   0  0  0  0  0  0  0  0  0  0  0  0
  -27.1529  -28.6225   19.6191 F   0  0  0  0  0  0  0  0  0  0  0  0
  -26.7367  -28.1283   17.5487 F   0  0  0  0  0  0  0  0  0  0  0  0
  -25.3741  -27.4783   19.1138 F   0  0  0  0  0  0  0  0  0  0  0  0
  1  2  1  0  0  0  0
  1  5  2  0  0  0  0
  2  6  2  0  0  0  0
  3  8  2  0  0  0  0
  3 16  1  0  0  0  0
  4  9  1  0  0  0  0
  4 16  2  0  0  0  0
  5 18  1  0  0  0  0
  6 20  1  0  0  0  0
  7 10  2  0  0  0  0
  7 19  1  0  0  0  0
  8 24  1  0  0  0  0
  9 24  2  0  0  0  0
 10 25  1  0  0  0  0
 11 12  2  0  0  0  0
 11 26  1  0  0  0  0
 12 27  1  0  0  0  0
 13 21  1  0  0  0  0
 13 25  2  0  0  0  0
 14 22  2  0  0  0  0
 14 30  1  0  0  0  0
 15 27  2  0  0  0  0
 15 28  1  0  0  0  0
 16 29  1  0  0  0  0
 17 29  1  0  0  0  0
 17 32  2  0  0  0  0
 17 33  1  0  0  0  0
 18 20  2  0  0  0  0
 18 38  1  0  0  0  0
 19 21  2  0  0  0  0
 19 39  1  0  0  0  0
 20 47  1  0  0  0  0
 21 40  1  0  0  0  0
 22 23  1  0  0  0  0
 22 50  1  0  0  0  0
 23 31  2  0  0  0  0
 23 58  1  0  0  0  0
 24 83  1  0  0  0  0
 25 84  1  0  0  0  0
 26 28  2  0  0  0  0
 26 83  1  0  0  0  0
 27 85  1  0  0  0  0
 28 86  1  0  0  0  0
 29 67  2  0  0  0  0
 30 65  1  0  0  0  0
 30 68  2  0  0  0  0
 31 64  1  0  0  0  0
 31 68  1  0  0  0  0
 32 69  1  0  0  0  0
 32 72  1  0  0  0  0
 33 73  1  0  0  0  0
 33 78  2  0  0  0  0
 34 48  1  0  0  0  0
 34 74  1  0  0  0  0
 34 79  2  0  0  0  0
 35 62  1  0  0  0  0
 35 70  1  0  0  0  0
 35 80  2  0  0  0  0
 36 63  1  0  0  0  0
 36 75  1  0  0  0  0
 36 81  2  0  0  0  0
 37 71  1  0  0  0  0
 37 76  1  0  0  0  0
 37 82  2  0  0  0  0
 38 41  1  0  0  0  0
 39 48  1  0  0  0  0
 40 70  1  0  0  0  0
 41 43  1  0  0  0  0
 42 44  1  0  0  0  0
 42 45  1  0  0  0  0
 43 47  1  0  0  0  0
 44 49  1  0  0  0  0
 45 71  1  0  0  0  0
 46 49  1  0  0  0  0
 46 71  1  0  0  0  0
 47 74  1  0  0  0  0
 48 70  1  0  0  0  0
 49 69  1  0  0  0  0
 51 63  1  0  0  0  0
 52 64  1  0  0  0  0
 53 64  1  0  0  0  0
 54 66  1  0  0  0  0
 55 66  1  0  0  0  0
 56 66  1  0  0  0  0
 57 77  1  0  0  0  0
 58 59  1  0  0  0  0
 59 61  1  0  0  0  0
 60 64  1  0  0  0  0
 60 76  1  0  0  0  0
 61 84  1  0  0  0  0
 62 66  1  0  0  0  0
 62 75  1  0  0  0  0
 63 77  1  0  0  0  0
 65 87  1  0  0  0  0
 65 88  1  0  0  0  0
 65 89  1  0  0  0  0
 67 69  1  0  0  0  0
M  CHG  1  77   1
M  ISO  4  37 100  61 101  76 100  84 101
M  END
> <Batch ID>
0065

> <Smiles>
CNC(C)C(=O)NC(C(=O)N1Cc2cc([101O:1][101CH2:1]CCc3c(C)cc(C(F)(F)F)nc3C(C)(C)C[100NH:0][100C:0](=O)N3CCCC(n4nc(-c5ccc(Oc6ccc(F)cc6F)cc5)c(C(N)=O)c4N)C3)ccc2CC1C(=O)NC1CCCc2ccccc21)C(C)(C)C

> <Shape>
0.266

> <Color>
0.047

> <Negative vol penalty>
0.000

$$$$

  -OEChem-04052318073D

 90 98  0     1  0  0  0  0  0999 V2000
  -18.5355  -31.6199   25.9610 C   0  0  0  0  0  0  0  0  0  0  0  0
  -19.9211  -31.4963   25.9457 C   0  0  0  0  0  0  0  0  0  0  0  0
  -28.0553  -12.7063   18.5679 C   0  0  0  0  0  0  0  0  0  0  0  0
  -29.0617  -13.1709   20.7147 C   0  0  0  0  0  0  0  0  0  0  0  0
  -17.7559  -30.8174   25.1291 C   0  0  0  0  0  0  0  0  0  0  0  0
  -20.5278  -30.5691   25.0991 C   0  0  0  0  0  0  0  0  0  0  0  0
  -26.4731  -29.6045   21.2210 C   0  0  0  0  0  0  0  0  0  0  0  0
  -29.1226  -11.8667   18.2493 C   0  0  0  0  0  0  0  0  0  0  0  0
  -30.1290  -12.3312   20.3960 C   0  0  0  0  0  0  0  0  0  0  0  0
  -27.4947  -28.6755   21.0286 C   0  0  0  0  0  0  0  0  0  0  0  0
  -31.4030   -9.3187   17.0155 C   0  0  0  0  0  0  0  0  0  0  0  0
  -31.1069   -8.0843   16.4375 C   0  0  0  0  0  0  0  0  0  0  0  0
  -26.0515  -27.3980   19.5778 C   0  0  0  0  0  0  0  0  0  0  0  0
  -29.8178   -7.4795   18.3893 C   0  0  0  0  0  0  0  0  0  0  0  0
  -30.3785  -18.3428   21.6960 C   0  0  0  0  0  0  0  0  0  0  0  0
  -30.8087  -19.4663   21.0303 C   0  0  0  0  0  0  0  0  0  0  0  0
  -28.0248  -13.3585   19.8006 C   0  0  0  0  0  0  0  0  0  0  0  0
  -25.7215  -13.8689   20.7709 C   0  0  0  0  0  0  0  0  0  0  0  0
  -18.3539  -29.8867   24.2649 C   0  0  0  0  0  0  0  0  0  0  0  0
  -25.2274  -29.4313   20.6008 C   0  0  0  0  0  0  0  0  0  0  0  0
  -19.7554  -29.7524   24.2558 C   0  0  0  0  0  0  0  0  0  0  0  0
  -25.0167  -28.3277   19.7619 C   0  0  0  0  0  0  0  0  0  0  0  0
  -30.1594  -11.6791   19.1633 C   0  0  0  0  0  0  0  0  0  0  0  0
  -27.2830  -27.5705   20.2093 C   0  0  0  0  0  0  0  0  0  0  0  0
  -30.9066   -9.6335   18.2806 C   0  0  0  0  0  0  0  0  0  0  0  0
  -30.3143   -7.1647   17.1244 C   0  0  0  0  0  0  0  0  0  0  0  0
  -30.1140   -8.7139   18.9674 C   0  0  0  0  0  0  0  0  0  0  0  0
  -26.9229  -14.2263   20.1302 C   0  0  0  0  0  0  0  0  0  0  0  0
  -25.0124  -15.0425   20.8504 C   0  0  0  0  0  0  0  0  0  0  0  0
  -28.7726  -19.7333   21.8299 C   0  0  0  0  0  0  0  0  0  0  0  0
  -25.2855  -12.5904   21.2515 C   0  0  0  0  0  0  0  0  0  0  0  0
  -22.2480  -29.0186   21.6287 C   0  0  0  0  0  0  0  0  0  0  0  0
  -21.5395  -29.2633   18.4727 C   0  0  0  0  0  0  0  0  0  0  0  0
  -26.7584  -20.7926   20.8635 C   0  0  0  0  0  0  0  0  0  0  0  0
  -22.5828  -28.9622   15.2373 C   0  0  0  0  0  0  0  0  0  0  0  0
  -17.4673  -29.0081   23.4184 C   0  0  0  0  0  0  0  0  0  0  0  0
  -24.1445  -30.4566   20.7972 C   0  0  0  0  0  0  0  0  0  0  0  0
  -23.7042  -28.1065   19.0569 C   0  0  0  0  0  0  0  0  0  0  0  0
  -18.2080  -28.3129   22.2789 C   0  0  0  0  0  0  0  0  0  0  0  0
  -24.4301  -19.2322   18.6309 C   0  0  0  0  0  0  0  0  0  0  0  0
  -19.5091  -27.6979   22.7848 C   0  0  0  0  0  0  0  0  0  0  0  0
  -24.7158  -17.7405   18.7994 C   0  0  0  0  0  0  0  0  0  0  0  0
  -25.7049  -20.0617   18.7492 C   0  0  0  0  0  0  0  0  0  0  0  0
  -26.7509  -18.3405   20.1862 C   0  0  0  0  0  0  0  0  0  0  0  0
  -20.4520  -28.7756   23.3335 C   0  0  1  0  0  0  0  0  0  0  0  0
  -22.7467  -29.9088   20.5258 C   0  0  1  0  0  0  0  0  0  0  0  0
  -25.4852  -17.4690   20.1043 C   0  0  2  0  0  0  0  0  0  0  0  0
  -28.6969  -20.9079   18.3501 C   0  0  0  0  0  0  0  0  0  0  0  0
  -21.7678  -29.1930   12.8751 C   0  0  0  0  0  0  0  0  0  0  0  0
  -27.7011  -21.7086   22.9446 C   0  0  0  0  0  0  0  0  0  0  0  0
  -26.4270  -19.5617   22.9048 C   0  0  0  0  0  0  0  0  0  0  0  0
  -20.0539  -26.6104   18.7286 C   0  0  0  0  0  0  0  0  0  0  0  0
  -20.0930  -26.4275   16.2320 C   0  0  0  0  0  0  0  0  0  0  0  0
  -18.8947  -28.3238   17.3233 C   0  0  0  0  0  0  0  0  0  0  0  0
  -29.4542  -24.6346   21.9310 C   0  0  0  0  0  0  0  0  0  0  0  0
  -31.9310  -24.7889   21.8284 C   0  0  0  0  0  0  0  0  0  0  0  0
  -30.1483  -26.3708   17.7640 C   0  0  0  0  0  0  0  0  0  0  0  0
  -31.9909  -26.9588   19.3174 C   0  0  0  0  0  0  0  0  0  0  0  0
  -24.5558  -31.0861   14.6412 C   0  0  0  0  0  0  0  0  0  0  0  0
  -29.8220  -21.7104   18.9947 C   0  0  0  0  0  0  0  0  0  0  0  0
  -30.8709  -22.6784   21.0826 C   0  0  0  0  0  0  0  0  0  0  0  0
  -30.6163  -24.7782   19.6253 C   0  0  0  0  0  0  0  0  0  0  0  0
  -29.6191  -27.1411   20.0890 C   0  0  0  0  0  0  0  0  0  1  0  0
  -21.4228  -28.2900   17.3246 C   0  0  1  0  0  0  0  0  0  0  0  0
  -22.4456  -29.8907   14.0442 C   0  0  2  0  0  0  0  0  0  0  0  0
  -29.7445  -21.7505   20.5448 C   0  0  2  0  0  0  0  0  0  0  0  0
  -27.4886  -20.4019   22.1237 C   0  0  0  0  0  0  0  0  0  0  0  0
  -20.1403  -27.4158   17.4168 C   0  0  0  0  0  0  0  0  0  0  0  0
  -30.6784  -24.2450   21.0938 C   0  0  0  0  0  0  0  0  0  0  0  0
  -30.6078  -26.2983   19.2458 C   0  0  0  0  0  0  0  0  0  0  0  0
  -29.1102  -18.5153   22.1911 N   0  0  0  0  0  0  0  0  0  0  0  0
  -26.9774  -15.5253   19.8241 N   0  0  0  0  0  0  0  0  0  0  0  0
  -29.7691  -20.3481   21.1241 N   0  0  0  0  0  0  0  0  0  0  0  0
  -25.8013  -15.9944   20.2744 N   0  0  0  0  0  0  0  0  0  0  0  0
  -22.6744  -29.1336   19.2856 N   0  0  0  0  0  0  0  0  0  0  0  0
  -26.4183  -19.7585   19.9911 N   0  0  0  0  0  0  0  0  0  0  0  0
  -23.7972  -15.3428   21.3559 N   0  0  0  0  0  0  0  0  0  0  0  0
  -26.1377  -11.4896   21.0894 N   0  0  0  0  0  0  0  0  0  0  0  0
  -21.1017  -29.4788   22.2482 N   0  0  0  0  0  0  0  0  0  0  0  0
  -21.5179  -29.0845   16.1047 N   0  0  0  0  0  0  0  0  0  0  0  0
  -23.7871  -30.3612   13.5970 N   0  3  0  0  0  0  0  0  0  0  0  0
  -24.1662  -12.4257   21.7935 O   0  0  0  0  0  0  0  0  0  0  0  0
  -22.8571  -27.9896   21.8967 O   0  0  0  0  0  0  0  0  0  0  0  0
  -20.6597  -30.1121   18.6377 O   0  0  0  0  0  0  0  0  0  0  0  0
  -26.4964  -21.9815   20.6636 O   0  0  0  0  0  0  0  0  0  0  0  0
  -23.5372  -28.2018   15.3833 O   0  0  0  0  0  0  0  0  0  0  0  0
  -31.2009  -10.8597   18.8528 O   0  0  0  0  0  0  0  0  0  0  0  0
  -28.2855  -26.6552   20.0190 O   0  0  0  0  0  0  0  0  0  1  0  0
  -30.0287   -5.9800   16.5685 F   0  0  0  0  0  0  0  0  0  0  0  0
  -29.6333   -9.0112   20.1825 F   0  0  0  0  0  0  0  0  0  0  0  0
  1  2  1  0  0  0  0
  1  5  2  0  0  0  0
  2  6  2  0  0  0  0
  3  8  2  0  0  0  0
  3 17  1  0  0  0  0
  4  9  1  0  0  0  0
  4 17  2  0  0  0  0
  5 19  1  0  0  0  0
  6 21  1  0  0  0  0
  7 10  2  0  0  0  0
  7 20  1  0  0  0  0
  8 23  1  0  0  0  0
  9 23  2  0  0  0  0
 10 24  1  0  0  0  0
 11 12  2  0  0  0  0
 11 25  1  0  0  0  0
 12 26  1  0  0  0  0
 13 22  1  0  0  0  0
 13 24  2  0  0  0  0
 14 26  2  0  0  0  0
 14 27  1  0  0  0  0
 15 16  2  0  0  0  0
 15 71  1  0  0  0  0
 16 73  1  0  0  0  0
 17 28  1  0  0  0  0
 18 28  1  0  0  0  0
 18 29  2  0  0  0  0
 18 31  1  0  0  0  0
 19 21  2  0  0  0  0
 19 36  1  0  0  0  0
 20 22  2  0  0  0  0
 20 37  1  0  0  0  0
 21 45  1  0  0  0  0
 22 38  1  0  0  0  0
 23 87  1  0  0  0  0
 24 88  1  0  0  0  0
 25 27  2  0  0  0  0
 25 87  1  0  0  0  0
 26 89  1  0  0  0  0
 27 90  1  0  0  0  0
 28 72  2  0  0  0  0
 29 74  1  0  0  0  0
 29 77  1  0  0  0  0
 30 67  1  0  0  0  0
 30 71  2  0  0  0  0
 30 73  1  0  0  0  0
 31 78  1  0  0  0  0
 31 82  2  0  0  0  0
 32 46  1  0  0  0  0
 32 79  1  0  0  0  0
 32 83  2  0  0  0  0
 33 64  1  0  0  0  0
 33 75  1  0  0  0  0
 33 84  2  0  0  0  0
 34 67  1  0  0  0  0
 34 76  1  0  0  0  0
 34 85  2  0  0  0  0
 35 65  1  0  0  0  0
 35 80  1  0  0  0  0
 35 86  2  0  0  0  0
 36 39  1  0  0  0  0
 37 46  1  0  0  0  0
 38 75  1  0  0  0  0
 39 41  1  0  0  0  0
 40 42  1  0  0  0  0
 40 43  1  0  0  0  0
 41 45  1  0  0  0  0
 42 47  1  0  0  0  0
 43 76  1  0  0  0  0
 44 47  1  0  0  0  0
 44 76  1  0  0  0  0
 45 79  1  0  0  0  0
 46 75  1  0  0  0  0
 47 74  1  0  0  0  0
 48 60  1  0  0  0  0
 49 65  1  0  0  0  0
 50 67  1  0  0  0  0
 51 67  1  0  0  0  0
 52 68  1  0  0  0  0
 53 68  1  0  0  0  0
 54 68  1  0  0  0  0
 55 69  1  0  0  0  0
 56 69  1  0  0  0  0
 57 70  1  0  0  0  0
 58 70  1  0  0  0  0
 59 81  1  0  0  0  0
 60 66  1  0  0  0  0
 61 66  1  0  0  0  0
 61 69  1  0  0  0  0
 62 69  1  0  0  0  0
 62 70  1  0  0  0  0
 63 70  1  0  0  0  0
 63 88  1  0  0  0  0
 64 68  1  0  0  0  0
 64 80  1  0  0  0  0
 65 81  1  0  0  0  0
 66 73  1  0  0  0  0
 72 74  1  0  0  0  0
M  CHG  1  81   1
M  ISO  4  34 100  63 101  67 100  88 101
M  END
> <Batch ID>
0065

> <Smiles>
CCC(CC(C)(C)CC(C)(C)[101CH2:1][101O:1]c1ccc2c(c1)CN(C(=O)C(NC(=O)C(C)NC)C(C)(C)C)C(C(=O)NC1CCCc3ccccc31)C2)n1ccnc1[100C:0](C)(C)[100C:0](=O)N1CCCC(n2nc(-c3ccc(Oc4ccc(F)cc4F)cc3)c(C(N)=O)c2N)C1

> <Shape>
0.281

> <Color>
0.076

> <Negative vol penalty>
0.000

$$$$

  -OEChem-04052318073D

 95103  0     1  0  0  0  0  0999 V2000
  -19.7315  -24.0699   22.1605 C   0  0  0  0  0  0  0  0  0  0  0  0
  -20.7516  -24.5027   21.3193 C   0  0  0  0  0  0  0  0  0  0  0  0
  -22.4902  -14.7361   20.8549 C   0  0  0  0  0  0  0  0  0  0  0  0
  -24.6826  -13.7665   20.5548 C   0  0  0  0  0  0  0  0  0  0  0  0
  -18.9265  -25.0016   22.8146 C   0  0  0  0  0  0  0  0  0  0  0  0
  -20.9665  -25.8675   21.1309 C   0  0  0  0  0  0  0  0  0  0  0  0
  -25.8707  -27.1105   21.3507 C   0  0  0  0  0  0  0  0  0  0  0  0
  -22.0673  -13.5780   21.5073 C   0  0  0  0  0  0  0  0  0  0  0  0
  -24.2598  -12.6084   21.2072 C   0  0  0  0  0  0  0  0  0  0  0  0
  -26.6472  -26.8401   20.2248 C   0  0  0  0  0  0  0  0  0  0  0  0
  -22.4468   -9.8524   20.4666 C   0  0  0  0  0  0  0  0  0  0  0  0
  -22.7875   -8.6260   19.8960 C   0  0  0  0  0  0  0  0  0  0  0  0
  -26.4719  -29.1513   19.5563 C   0  0  0  0  0  0  0  0  0  0  0  0
  -23.9933   -8.0276   21.9022 C   0  0  0  0  0  0  0  0  0  0  0  0
  -28.2331  -22.8326   19.9004 C   0  0  0  0  0  0  0  0  0  0  0  0
  -30.7989  -23.5119   19.6136 C   0  0  0  0  0  0  0  0  0  0  0  0
  -23.7978  -14.8303   20.3786 C   0  0  0  0  0  0  0  0  0  0  0  0
  -23.7014  -16.5807   18.5253 C   0  0  0  0  0  0  0  0  0  0  0  0
  -19.1378  -26.3786   22.6416 C   0  0  0  0  0  0  0  0  0  0  0  0
  -25.3791  -28.4031   21.5826 C   0  0  0  0  0  0  0  0  0  0  0  0
  -20.1627  -26.8185   21.7822 C   0  0  0  0  0  0  0  0  0  0  0  0
  -25.6915  -29.4360   20.6872 C   0  0  0  0  0  0  0  0  0  0  0  0
  -22.9521  -12.5142   21.6835 C   0  0  0  0  0  0  0  0  0  0  0  0
  -26.9455  -27.8599   19.3258 C   0  0  0  0  0  0  0  0  0  0  0  0
  -22.8795  -10.1665   21.7549 C   0  0  0  0  0  0  0  0  0  0  0  0
  -23.5607   -7.7136   20.6138 C   0  0  0  0  0  0  0  0  0  0  0  0
  -23.6527   -9.2540   22.4728 C   0  0  0  0  0  0  0  0  0  0  0  0
  -24.2351  -16.0261   19.7040 C   0  0  0  0  0  0  0  0  0  0  0  0
  -29.1332  -22.6604   20.9288 C   0  0  0  0  0  0  0  0  0  0  0  0
  -29.8990  -23.6835   18.5848 C   0  0  0  0  0  0  0  0  0  0  0  0
  -24.4594  -17.7038   18.3004 C   0  0  0  0  0  0  0  0  0  0  0  0
  -22.6173  -16.1217   17.7069 C   0  0  0  0  0  0  0  0  0  0  0  0
  -22.4834  -29.6936   21.8141 C   0  0  0  0  0  0  0  0  0  0  0  0
  -24.1579  -32.3470   22.6373 C   0  0  0  0  0  0  0  0  0  0  0  0
  -27.5404  -21.1347   22.0436 C   0  0  0  0  0  0  0  0  0  0  0  0
  -27.0968  -34.0764   22.5010 C   0  0  0  0  0  0  0  0  0  0  0  0
  -18.2117  -27.3476   23.3328 C   0  0  0  0  0  0  0  0  0  0  0  0
  -24.5652  -28.6843   22.8158 C   0  0  0  0  0  0  0  0  0  0  0  0
  -25.2049  -30.8453   20.9012 C   0  0  0  0  0  0  0  0  0  0  0  0
  -18.7451  -28.7774   23.3722 C   0  0  0  0  0  0  0  0  0  0  0  0
  -28.8208  -19.5007   19.0574 C   0  0  0  0  0  0  0  0  0  0  0  0
  -19.2755  -29.1871   22.0019 C   0  0  0  0  0  0  0  0  0  0  0  0
  -27.7422  -18.4499   18.7977 C   0  0  0  0  0  0  0  0  0  0  0  0
  -29.0388  -19.7238   20.5517 C   0  0  0  0  0  0  0  0  0  0  0  0
  -26.7130  -19.0314   21.0372 C   0  0  0  0  0  0  0  0  0  0  0  0
  -20.4429  -28.2906   21.5716 C   0  0  1  0  0  0  0  0  0  0  0  0
  -23.6875  -29.9250   22.6825 C   0  0  1  0  0  0  0  0  0  0  0  0
  -26.4412  -18.7989   19.5415 C   0  0  2  0  0  0  0  0  0  0  0  0
  -28.7548  -35.8931   22.9994 C   0  0  0  0  0  0  0  0  0  0  0  0
  -31.4494  -23.3293   16.6661 C   0  0  0  0  0  0  0  0  0  0  0  0
  -29.2299  -24.3094   16.1652 C   0  0  0  0  0  0  0  0  0  0  0  0
  -22.6458  -33.8302   20.4410 C   0  0  0  0  0  0  0  0  0  0  0  0
  -24.3657  -35.6444   20.5785 C   0  0  0  0  0  0  0  0  0  0  0  0
  -22.9425  -35.1246   22.5601 C   0  0  0  0  0  0  0  0  0  0  0  0
  -28.1109  -32.6550   24.8906 C   0  0  0  0  0  0  0  0  0  0  0  0
  -33.1396  -27.4969   18.2406 C   0  0  0  0  0  0  0  0  0  0  0  0
  -33.8332  -27.7474   15.8622 C   0  0  0  0  0  0  0  0  0  0  0  0
  -29.8328  -26.8292   17.3818 C   0  0  0  0  0  0  0  0  0  0  0  0
  -32.1007  -26.0702   16.4836 C   0  0  0  0  0  0  0  0  0  0  0  0
  -28.6715  -26.5568   18.3366 C   0  0  0  0  0  0  0  0  0  1  0  0
  -24.7629  -33.5062   21.8828 C   0  0  1  0  0  0  0  0  0  0  0  0
  -27.9075  -34.7715   23.5799 C   0  0  2  0  0  0  0  0  0  0  0  0
  -30.9421  -25.7410   17.4537 C   0  0  2  0  0  0  0  0  0  0  0  0
  -28.6928  -22.0890   22.2310 C   0  0  0  0  0  0  0  0  0  0  0  0
  -30.3575  -24.2789   17.2291 C   0  0  0  0  0  0  0  0  0  0  0  0
  -23.6870  -34.4995   21.3603 C   0  0  0  0  0  0  0  0  0  0  0  0
  -29.7486  -21.2378   23.0011 C   0  0  0  0  0  0  0  0  0  0  0  0
  -28.2046  -23.2009   23.1987 C   0  0  0  0  0  0  0  0  0  0  0  0
  -30.4322  -22.9973   20.8040 N   0  0  0  0  0  0  0  0  0  0  0  0
  -28.5999  -23.3470   18.7098 N   0  0  0  0  0  0  0  0  0  0  0  0
  -25.2536  -16.7381   20.1937 N   0  0  0  0  0  0  0  0  0  0  0  0
  -25.3660  -17.7516   19.3183 N   0  0  0  0  0  0  0  0  0  0  0  0
  -24.4074  -31.0686   22.1184 N   0  0  0  0  0  0  0  0  0  0  0  0
  -27.7720  -20.0266   21.2284 N   0  0  0  0  0  0  0  0  0  0  0  0
  -24.4323  -18.6452   17.3332 N   0  0  0  0  0  0  0  0  0  0  0  0
  -22.9012  -15.2408   16.6544 N   0  0  0  0  0  0  0  0  0  0  0  0
  -21.6571  -28.6783   22.2569 N   0  0  0  0  0  0  0  0  0  0  0  0
  -25.7463  -34.1068   22.7775 N   0  0  0  0  0  0  0  0  0  0  0  0
  -28.8133  -33.7992   24.2546 N   0  3  0  0  0  0  0  0  0  0  0  0
  -32.7068  -27.3883   16.7995 N   0  3  0  0  0  0  0  0  0  0  0  0
  -21.4343  -16.4950   17.8929 O   0  0  0  0  0  0  0  0  0  0  0  0
  -22.3155  -30.3859   20.8170 O   0  0  0  0  0  0  0  0  0  0  0  0
  -23.4945  -32.5672   23.6537 O   0  0  0  0  0  0  0  0  0  0  0  0
  -26.4665  -21.3704   22.6035 O   0  0  0  0  0  0  0  0  0  0  0  0
  -27.6100  -33.5615   21.5100 O   0  0  0  0  0  0  0  0  0  0  0  0
  -22.5398  -11.3841   22.3203 O   0  0  0  0  0  0  0  0  0  0  0  0
  -27.7026  -27.5986   18.2257 O   0  0  0  0  0  0  0  0  0  1  0  0
  -23.8864   -6.5353   20.0664 F   0  0  0  0  0  0  0  0  0  0  0  0
  -24.0703   -9.5496   23.7113 F   0  0  0  0  0  0  0  0  0  0  0  0
  -30.8642  -21.9427   23.3101 F   0  0  0  0  0  0  0  0  0  0  0  0
  -29.2397  -20.7734   24.1648 F   0  0  0  0  0  0  0  0  0  0  0  0
  -30.1536  -20.1730   22.2732 F   0  0  0  0  0  0  0  0  0  0  0  0
  -27.1573  -23.9051   22.7097 F   0  0  0  0  0  0  0  0  0  0  0  0
  -27.8094  -22.6649   24.3768 F   0  0  0  0  0  0  0  0  0  0  0  0
  -29.1869  -24.0887   23.4703 F   0  0  0  0  0  0  0  0  0  0  0  0
  1  2  1  0  0  0  0
  1  5  2  0  0  0  0
  2  6  2  0  0  0  0
  3  8  2  0  0  0  0
  3 17  1  0  0  0  0
  4  9  1  0  0  0  0
  4 17  2  0  0  0  0
  5 19  1  0  0  0  0
  6 21  1  0  0  0  0
  7 10  2  0  0  0  0
  7 20  1  0  0  0  0
  8 23  1  0  0  0  0
  9 23  2  0  0  0  0
 10 24  1  0  0  0  0
 11 12  2  0  0  0  0
 11 25  1  0  0  0  0
 12 26  1  0  0  0  0
 13 22  1  0  0  0  0
 13 24  2  0  0  0  0
 14 26  2  0  0  0  0
 14 27  1  0  0  0  0
 15 29  2  0  0  0  0
 15 70  1  0  0  0  0
 16 30  1  0  0  0  0
 16 69  2  0  0  0  0
 17 28  1  0  0  0  0
 18 28  1  0  0  0  0
 18 31  2  0  0  0  0
 18 32  1  0  0  0  0
 19 21  2  0  0  0  0
 19 37  1  0  0  0  0
 20 22  2  0  0  0  0
 20 38  1  0  0  0  0
 21 46  1  0  0  0  0
 22 39  1  0  0  0  0
 23 86  1  0  0  0  0
 24 87  1  0  0  0  0
 25 27  2  0  0  0  0
 25 86  1  0  0  0  0
 26 88  1  0  0  0  0
 27 89  1  0  0  0  0
 28 71  2  0  0  0  0
 29 64  1  0  0  0  0
 29 69  1  0  0  0  0
 30 65  1  0  0  0  0
 30 70  2  0  0  0  0
 31 72  1  0  0  0  0
 31 75  1  0  0  0  0
 32 76  1  0  0  0  0
 32 81  2  0  0  0  0
 33 47  1  0  0  0  0
 33 77  1  0  0  0  0
 33 82  2  0  0  0  0
 34 61  1  0  0  0  0
 34 73  1  0  0  0  0
 34 83  2  0  0  0  0
 35 64  1  0  0  0  0
 35 74  1  0  0  0  0
 35 84  2  0  0  0  0
 36 62  1  0  0  0  0
 36 78  1  0  0  0  0
 36 85  2  0  0  0  0
 37 40  1  0  0  0  0
 38 47  1  0  0  0  0
 39 73  1  0  0  0  0
 40 42  1  0  0  0  0
 41 43  1  0  0  0  0
 41 44  1  0  0  0  0
 42 46  1  0  0  0  0
 43 48  1  0  0  0  0
 44 74  1  0  0  0  0
 45 48  1  0  0  0  0
 45 74  1  0  0  0  0
 46 77  1  0  0  0  0
 47 73  1  0  0  0  0
 48 72  1  0  0  0  0
 49 62  1  0  0  0  0
 50 65  1  0  0  0  0
 51 65  1  0  0  0  0
 52 66  1  0  0  0  0
 53 66  1  0  0  0  0
 54 66  1  0  0  0  0
 55 79  1  0  0  0  0
 56 80  1  0  0  0  0
 57 80  1  0  0  0  0
 58 60  1  0  0  0  0
 58 63  1  0  0  0  0
 59 63  1  0  0  0  0
 59 80  1  0  0  0  0
 60 87  1  0  0  0  0
 61 66  1  0  0  0  0
 61 78  1  0  0  0  0
 62 79  1  0  0  0  0
 63 65  1  0  0  0  0
 64 67  1  0  0  0  0
 64 68  1  0  0  0  0
 67 90  1  0  0  0  0
 67 91  1  0  0  0  0
 67 92  1  0  0  0  0
 68 93  1  0  0  0  0
 68 94  1  0  0  0  0
 68 95  1  0  0  0  0
 71 72  1  0  0  0  0
M  CHG  2  79   1  80   1
M  ISO  4  35 100  60 101  64 100  87 101
M  END
> <Batch ID>
0065

> <Smiles>
CNC(C)C(=O)NC(C(=O)N1Cc2cc([101O:1][101CH2:1]CC(CN(C)C)C(C)(C)c3cnc([100C:0]([100C:0](=O)N4CCCC(n5nc(-c6ccc(Oc7ccc(F)cc7F)cc6)c(C(N)=O)c5N)C4)(C(F)(F)F)C(F)(F)F)cn3)ccc2CC1C(=O)NC1CCCc2ccccc21)C(C)(C)C

> <Shape>
0.290

> <Color>
0.107

> <Negative vol penalty>
0.000

$$$$

  -OEChem-04052318073D

 92100  0     1  0  0  0  0  0999 V2000
  -22.9995  -30.2138   23.0109 C   0  0  0  0  0  0  0  0  0  0  0  0
  -23.7834  -29.6193   22.0273 C   0  0  0  0  0  0  0  0  0  0  0  0
  -26.5082  -12.7332   21.6338 C   0  0  0  0  0  0  0  0  0  0  0  0
  -26.0506  -13.7330   19.4825 C   0  0  0  0  0  0  0  0  0  0  0  0
  -22.4937  -29.4439   24.0575 C   0  0  0  0  0  0  0  0  0  0  0  0
  -24.0630  -28.2547   22.0904 C   0  0  0  0  0  0  0  0  0  0  0  0
  -23.5295  -25.9533   17.6111 C   0  0  0  0  0  0  0  0  0  0  0  0
  -25.2509  -12.1293   21.6206 C   0  0  0  0  0  0  0  0  0  0  0  0
  -24.7933  -13.1290   19.4693 C   0  0  0  0  0  0  0  0  0  0  0  0
  -24.5599  -26.1143   16.6858 C   0  0  0  0  0  0  0  0  0  0  0  0
  -23.7940   -9.4407   20.1778 C   0  0  0  0  0  0  0  0  0  0  0  0
  -23.7156   -8.0987   20.5498 C   0  0  0  0  0  0  0  0  0  0  0  0
  -28.2782  -23.0727   21.1685 C   0  0  0  0  0  0  0  0  0  0  0  0
  -25.4259  -23.9431   17.2816 C   0  0  0  0  0  0  0  0  0  0  0  0
  -22.2257   -8.6872   22.3585 C   0  0  0  0  0  0  0  0  0  0  0  0
  -27.7405  -24.2258   20.6342 C   0  0  0  0  0  0  0  0  0  0  0  0
  -26.9080  -13.5351   20.5648 C   0  0  0  0  0  0  0  0  0  0  0  0
  -29.4099  -13.6297   20.0756 C   0  0  0  0  0  0  0  0  0  0  0  0
  -22.7591  -28.0672   24.1281 C   0  0  0  0  0  0  0  0  0  0  0  0
  -23.4457  -24.7887   18.3877 C   0  0  0  0  0  0  0  0  0  0  0  0
  -23.5614  -27.4659   23.1396 C   0  0  0  0  0  0  0  0  0  0  0  0
  -24.3920  -23.7687   18.2142 C   0  0  0  0  0  0  0  0  0  0  0  0
  -24.3935  -12.3272   20.5383 C   0  0  0  0  0  0  0  0  0  0  0  0
  -25.5100  -25.1103   16.5230 C   0  0  0  0  0  0  0  0  0  0  0  0
  -23.0884  -10.4060   20.8961 C   0  0  0  0  0  0  0  0  0  0  0  0
  -22.9314   -7.7219   21.6401 C   0  0  0  0  0  0  0  0  0  0  0  0
  -22.3042  -10.0292   21.9864 C   0  0  0  0  0  0  0  0  0  0  0  0
  -28.2064  -14.1597   20.5781 C   0  0  0  0  0  0  0  0  0  0  0  0
  -29.6495  -22.9528   21.0716 C   0  0  0  0  0  0  0  0  0  0  0  0
  -30.3455  -14.6030   20.3279 C   0  0  0  0  0  0  0  0  0  0  0  0
  -29.8009  -24.9601   20.0157 C   0  0  0  0  0  0  0  0  0  0  0  0
  -29.6597  -12.3702   19.4376 C   0  0  0  0  0  0  0  0  0  0  0  0
  -23.5659  -24.1546   21.5001 C   0  0  0  0  0  0  0  0  0  0  0  0
  -29.7672  -20.4737   21.0172 C   0  0  0  0  0  0  0  0  0  0  0  0
  -22.8214  -21.1530   20.5208 C   0  0  0  0  0  0  0  0  0  0  0  0
  -22.8476  -18.8316   18.0194 C   0  0  0  0  0  0  0  0  0  0  0  0
  -22.2298  -27.2853   25.3042 C   0  0  0  0  0  0  0  0  0  0  0  0
  -22.3127  -24.6190   19.3624 C   0  0  0  0  0  0  0  0  0  0  0  0
  -24.3350  -22.4905   19.0089 C   0  0  0  0  0  0  0  0  0  0  0  0
  -22.2614  -25.7736   25.0944 C   0  0  0  0  0  0  0  0  0  0  0  0
  -31.3307  -18.1665   23.3536 C   0  0  0  0  0  0  0  0  0  0  0  0
  -23.6104  -25.3412   24.5286 C   0  0  0  0  0  0  0  0  0  0  0  0
  -30.7855  -16.8239   22.8685 C   0  0  0  0  0  0  0  0  0  0  0  0
  -30.2990  -19.2806   23.1979 C   0  0  0  0  0  0  0  0  0  0  0  0
  -29.2229  -18.0794   21.3208 C   0  0  0  0  0  0  0  0  0  0  0  0
  -23.8661  -25.9837   23.1599 C   0  0  1  0  0  0  0  0  0  0  0  0
  -22.6201  -23.6119   20.4663 C   0  0  1  0  0  0  0  0  0  0  0  0
  -30.2438  -16.9347   21.4326 C   0  0  2  0  0  0  0  0  0  0  0  0
  -31.8458  -21.7558   21.4398 C   0  0  0  0  0  0  0  0  0  0  0  0
  -22.2038  -16.4561   17.5296 C   0  0  0  0  0  0  0  0  0  0  0  0
  -31.6357  -28.4058   19.4398 C   0  0  0  0  0  0  0  0  0  0  0  0
  -29.2668  -28.0897   20.1490 C   0  0  0  0  0  0  0  0  0  0  0  0
  -31.1395  -27.2519   21.5801 C   0  0  0  0  0  0  0  0  0  0  0  0
  -25.2510  -20.1745   22.0858 C   0  0  0  0  0  0  0  0  0  0  0  0
  -25.1156  -18.0218   20.8148 C   0  0  0  0  0  0  0  0  0  0  0  0
  -23.2262  -18.7203   22.2861 C   0  0  0  0  0  0  0  0  0  0  0  0
  -31.4426  -24.6275   13.2380 C   0  0  0  0  0  0  0  0  0  0  0  0
  -32.8213  -25.4357   15.1668 C   0  0  0  0  0  0  0  0  0  0  0  0
  -31.0362  -26.8740   14.2065 C   0  0  0  0  0  0  0  0  0  0  0  0
  -20.9619  -19.6588   15.8936 C   0  0  0  0  0  0  0  0  0  0  0  0
  -30.3765  -26.1522   17.8325 C   0  0  0  0  0  0  0  0  0  0  0  0
  -30.6631  -24.8505   17.0673 C   0  0  0  0  0  0  0  0  0  0  0  0
  -28.8923  -25.4167   15.2809 C   0  0  0  0  0  0  0  0  0  0  0  0
  -27.7552  -24.6184   15.9123 C   0  0  0  0  0  0  0  0  0  1  0  0
  -30.3218  -21.7395   21.6207 C   0  0  1  0  0  0  0  0  0  0  0  0
  -30.6681  -26.0344   19.3583 C   0  0  1  0  0  0  0  0  0  0  0  0
  -23.6133  -19.9372   20.1040 C   0  0  1  0  0  0  0  0  0  0  0  0
  -21.7637  -17.9112   17.4879 C   0  0  2  0  0  0  0  0  0  0  0  0
  -30.3041  -24.8363   15.5534 C   0  0  1  0  0  0  0  0  0  0  0  0
  -30.6540  -27.4216   20.1219 C   0  0  0  0  0  0  0  0  0  0  0  0
  -24.3040  -19.2383   21.3089 C   0  0  0  0  0  0  0  0  0  0  0  0
  -31.4015  -25.4105   14.5666 C   0  0  0  0  0  0  0  0  0  0  0  0
  -28.4752  -25.1940   20.0483 N   0  0  0  0  0  0  0  0  0  0  0  0
  -28.3606  -15.3752   21.1097 N   0  0  0  0  0  0  0  0  0  0  0  0
  -30.4446  -23.8805   20.4993 N   0  0  0  0  0  0  0  0  0  0  0  0
  -29.6719  -15.6171   20.9427 N   0  0  0  0  0  0  0  0  0  0  0  0
  -23.2119  -22.3745   19.9538 N   0  0  0  0  0  0  0  0  0  0  0  0
  -29.7875  -19.3353   21.8232 N   0  0  0  0  0  0  0  0  0  0  0  0
  -31.6706  -14.6817   20.0819 N   0  0  0  0  0  0  0  0  0  0  0  0
  -28.5856  -11.4881   19.2569 N   0  0  0  0  0  0  0  0  0  0  0  0
  -23.1139  -25.2978   22.1312 N   0  0  0  0  0  0  0  0  0  0  0  0
  -22.6900  -19.0820   19.3661 N   0  0  0  0  0  0  0  0  0  0  0  0
  -21.4321  -18.2616   16.0779 N   0  3  0  0  0  0  0  0  0  0  0  0
  -30.8046  -12.0301   19.0543 O   0  0  0  0  0  0  0  0  0  0  0  0
  -24.6264  -23.5779   21.7107 O   0  0  0  0  0  0  0  0  0  0  0  0
  -29.3321  -20.4975   19.8630 O   0  0  0  0  0  0  0  0  0  0  0  0
  -21.8861  -21.0227   21.3144 O   0  0  0  0  0  0  0  0  0  0  0  0
  -23.7466  -19.2804   17.3115 O   0  0  0  0  0  0  0  0  0  0  0  0
  -23.1667  -11.7378   20.5250 O   0  0  0  0  0  0  0  0  0  0  0  0
  -26.5239  -25.2662   15.6150 O   0  0  0  0  0  0  0  0  0  1  0  0
  -22.8549   -6.4329   21.9964 F   0  0  0  0  0  0  0  0  0  0  0  0
  -21.6231  -10.9519   22.6796 F   0  0  0  0  0  0  0  0  0  0  0  0
  1  2  1  0  0  0  0
  1  5  2  0  0  0  0
  2  6  2  0  0  0  0
  3  8  2  0  0  0  0
  3 17  1  0  0  0  0
  4  9  1  0  0  0  0
  4 17  2  0  0  0  0
  5 19  1  0  0  0  0
  6 21  1  0  0  0  0
  7 10  2  0  0  0  0
  7 20  1  0  0  0  0
  8 23  1  0  0  0  0
  9 23  2  0  0  0  0
 10 24  1  0  0  0  0
 11 12  2  0  0  0  0
 11 25  1  0  0  0  0
 12 26  1  0  0  0  0
 13 16  1  0  0  0  0
 13 29  2  0  0  0  0
 14 22  1  0  0  0  0
 14 24  2  0  0  0  0
 15 26  2  0  0  0  0
 15 27  1  0  0  0  0
 16 73  2  0  0  0  0
 17 28  1  0  0  0  0
 18 28  1  0  0  0  0
 18 30  2  0  0  0  0
 18 32  1  0  0  0  0
 19 21  2  0  0  0  0
 19 37  1  0  0  0  0
 20 22  2  0  0  0  0
 20 38  1  0  0  0  0
 21 46  1  0  0  0  0
 22 39  1  0  0  0  0
 23 89  1  0  0  0  0
 24 90  1  0  0  0  0
 25 27  2  0  0  0  0
 25 89  1  0  0  0  0
 26 91  1  0  0  0  0
 27 92  1  0  0  0  0
 28 74  2  0  0  0  0
 29 65  1  0  0  0  0
 29 75  1  0  0  0  0
 30 76  1  0  0  0  0
 30 79  1  0  0  0  0
 31 66  1  0  0  0  0
 31 73  1  0  0  0  0
 31 75  2  0  0  0  0
 32 80  1  0  0  0  0
 32 84  2  0  0  0  0
 33 47  1  0  0  0  0
 33 81  1  0  0  0  0
 33 85  2  0  0  0  0
 34 65  1  0  0  0  0
 34 78  1  0  0  0  0
 34 86  2  0  0  0  0
 35 67  1  0  0  0  0
 35 77  1  0  0  0  0
 35 87  2  0  0  0  0
 36 68  1  0  0  0  0
 36 82  1  0  0  0  0
 36 88  2  0  0  0  0
 37 40  1  0  0  0  0
 38 47  1  0  0  0  0
 39 77  1  0  0  0  0
 40 42  1  0  0  0  0
 41 43  1  0  0  0  0
 41 44  1  0  0  0  0
 42 46  1  0  0  0  0
 43 48  1  0  0  0  0
 44 78  1  0  0  0  0
 45 48  1  0  0  0  0
 45 78  1  0  0  0  0
 46 81  1  0  0  0  0
 47 77  1  0  0  0  0
 48 76  1  0  0  0  0
 49 65  1  0  0  0  0
 50 68  1  0  0  0  0
 51 70  1  0  0  0  0
 52 70  1  0  0  0  0
 53 70  1  0  0  0  0
 54 71  1  0  0  0  0
 55 71  1  0  0  0  0
 56 71  1  0  0  0  0
 57 72  1  0  0  0  0
 58 72  1  0  0  0  0
 59 72  1  0  0  0  0
 60 83  1  0  0  0  0
 61 62  1  0  0  0  0
 61 66  1  0  0  0  0
 62 69  1  0  0  0  0
 63 64  1  0  0  0  0
 63 69  1  0  0  0  0
 64 90  1  0  0  0  0
 66 70  1  0  0  0  0
 67 71  1  0  0  0  0
 67 82  1  0  0  0  0
 68 83  1  0  0  0  0
 69 72  1  0  0  0  0
 74 76  1  0  0  0  0
M  CHG  1  83   1
M  ISO  4  34 100  64 101  65 100  90 101
M  END
> <Batch ID>
0065

> <Smiles>
CNC(C)C(=O)NC(C(=O)N1Cc2cc([101O:1][101CH2:1]CC(CCC(c3nccc([100CH:0](C)[100C:0](=O)N4CCCC(n5nc(-c6ccc(Oc7ccc(F)cc7F)cc6)c(C(N)=O)c5N)C4)n3)C(C)(C)C)C(C)(C)C)ccc2CC1C(=O)NC1CCCc2ccccc21)C(C)(C)C

> <Shape>
0.217

> <Color>
0.066

> <Negative vol penalty>
0.000

$$$$

  -OEChem-04052318073D

 92100  0     1  0  0  0  0  0999 V2000
  -32.8339  -33.6877   17.0825 C   0  0  0  0  0  0  0  0  0  0  0  0
  -32.5043  -32.3808   16.7379 C   0  0  0  0  0  0  0  0  0  0  0  0
  -23.2980   -9.7628   19.9048 C   0  0  0  0  0  0  0  0  0  0  0  0
  -24.3877   -9.3630   22.0237 C   0  0  0  0  0  0  0  0  0  0  0  0
  -32.6475  -34.1305   18.3913 C   0  0  0  0  0  0  0  0  0  0  0  0
  -31.9889  -31.5155   17.7023 C   0  0  0  0  0  0  0  0  0  0  0  0
  -27.4323  -26.0351   18.4223 C   0  0  0  0  0  0  0  0  0  0  0  0
  -22.7706   -8.4718   19.9324 C   0  0  0  0  0  0  0  0  0  0  0  0
  -23.8603   -8.0720   22.0513 C   0  0  0  0  0  0  0  0  0  0  0  0
  -27.3776  -24.7402   18.9360 C   0  0  0  0  0  0  0  0  0  0  0  0
  -22.5065   -4.7949   22.8550 C   0  0  0  0  0  0  0  0  0  0  0  0
  -21.9501   -4.3463   24.0529 C   0  0  0  0  0  0  0  0  0  0  0  0
  -27.0241  -25.6386   21.1467 C   0  0  0  0  0  0  0  0  0  0  0  0
  -20.3486   -6.1541   23.9859 C   0  0  0  0  0  0  0  0  0  0  0  0
  -24.1066  -10.2084   20.9504 C   0  0  0  0  0  0  0  0  0  0  0  0
  -24.0670  -12.7109   21.4440 C   0  0  0  0  0  0  0  0  0  0  0  0
  -32.1205  -33.2731   19.3700 C   0  0  0  0  0  0  0  0  0  0  0  0
  -27.2939  -27.1436   19.2700 C   0  0  0  0  0  0  0  0  0  0  0  0
  -31.7964  -31.9469   19.0258 C   0  0  0  0  0  0  0  0  0  0  0  0
  -27.0748  -26.9465   20.6409 C   0  0  0  0  0  0  0  0  0  0  0  0
  -29.6487  -17.7461   23.0211 C   0  0  0  0  0  0  0  0  0  0  0  0
  -23.0517   -7.6264   21.0057 C   0  0  0  0  0  0  0  0  0  0  0  0
  -27.1764  -24.5418   20.2988 C   0  0  0  0  0  0  0  0  0  0  0  0
  -21.9840   -5.9231   22.2226 C   0  0  0  0  0  0  0  0  0  0  0  0
  -20.8712   -5.0259   24.6183 C   0  0  0  0  0  0  0  0  0  0  0  0
  -20.9051   -6.6026   22.7881 C   0  0  0  0  0  0  0  0  0  0  0  0
  -24.6522  -11.5417   20.9222 C   0  0  0  0  0  0  0  0  0  0  0  0
  -30.4677  -16.7774   23.6317 C   0  0  0  0  0  0  0  0  0  0  0  0
  -29.1719  -18.5001   24.0654 C   0  0  0  0  0  0  0  0  0  0  0  0
  -24.9748  -13.7031   21.1653 C   0  0  0  0  0  0  0  0  0  0  0  0
  -22.8147  -12.8845   22.1203 C   0  0  0  0  0  0  0  0  0  0  0  0
  -29.1499  -29.5937   20.0799 C   0  0  0  0  0  0  0  0  0  0  0  0
  -26.4871  -30.5910   21.6411 C   0  0  0  0  0  0  0  0  0  0  0  0
  -23.5161  -29.7801   23.1116 C   0  0  0  0  0  0  0  0  0  0  0  0
  -30.5692  -14.7059   20.8252 C   0  0  0  0  0  0  0  0  0  0  0  0
  -31.9811  -33.7827   20.7826 C   0  0  0  0  0  0  0  0  0  0  0  0
  -27.3285  -28.5335   18.6962 C   0  0  0  0  0  0  0  0  0  0  0  0
  -26.9000  -28.1026   21.5903 C   0  0  0  0  0  0  0  0  0  0  0  0
  -31.0792  -32.9152   21.6569 C   0  0  0  0  0  0  0  0  0  0  0  0
  -28.6803  -14.2495   17.9529 C   0  0  0  0  0  0  0  0  0  0  0  0
  -31.4289  -31.4403   21.4863 C   0  0  0  0  0  0  0  0  0  0  0  0
  -27.3859  -13.6161   18.4611 C   0  0  0  0  0  0  0  0  0  0  0  0
  -29.8898  -13.6744   18.6802 C   0  0  0  0  0  0  0  0  0  0  0  0
  -28.5337  -13.1943   20.6930 C   0  0  0  0  0  0  0  0  0  0  0  0
  -31.2117  -30.9857   20.0380 C   0  0  1  0  0  0  0  0  0  0  0  0
  -27.6890  -29.5973   19.7286 C   0  0  1  0  0  0  0  0  0  0  0  0
  -27.2742  -13.7418   19.9906 C   0  0  2  0  0  0  0  0  0  0  0  0
  -30.5167  -18.5777   20.8208 C   0  0  0  0  0  0  0  0  0  0  0  0
  -27.3741  -13.2181   23.9764 C   0  0  0  0  0  0  0  0  0  0  0  0
  -29.8600  -23.5290   25.9636 C   0  0  0  0  0  0  0  0  0  0  0  0
  -21.5790  -30.8046   24.3344 C   0  0  0  0  0  0  0  0  0  0  0  0
  -28.9614  -21.8400   21.1969 C   0  0  0  0  0  0  0  0  0  0  0  0
  -28.2000  -30.8230   24.1555 C   0  0  0  0  0  0  0  0  0  0  0  0
  -26.0901  -30.9126   25.5003 C   0  0  0  0  0  0  0  0  0  0  0  0
  -26.5751  -32.6949   23.8238 C   0  0  0  0  0  0  0  0  0  0  0  0
  -27.1705  -22.0918   25.5824 C   0  0  0  0  0  0  0  0  0  0  0  0
  -29.5102  -18.4021   26.5537 C   0  0  0  0  0  0  0  0  0  0  0  0
  -21.5962  -28.9149   21.0322 C   0  0  0  0  0  0  0  0  0  0  0  0
  -29.3642  -17.9155   21.5857 C   0  0  0  0  0  0  0  0  0  0  0  0
  -31.2359  -15.7024   22.9793 C   0  0  0  0  0  0  0  0  0  0  0  0
  -28.2456  -19.6912   24.0930 C   0  0  0  0  0  0  0  0  0  0  0  0
  -28.1688  -14.2048   23.1322 C   0  0  0  0  0  0  0  0  0  0  0  0
  -29.0172  -23.5522   24.6927 C   0  0  0  0  0  0  0  0  0  0  0  0
  -29.0244  -21.0003   24.2841 C   0  0  0  0  0  0  0  0  0  0  0  0
  -27.3560  -22.5796   23.0891 C   0  0  0  0  0  0  0  0  0  0  0  0
  -29.6386  -13.8223   23.0066 C   0  0  0  0  0  0  0  0  0  0  0  0
  -25.9199  -30.3873   23.0252 C   0  0  1  0  0  0  0  0  0  0  0  0
  -22.1295  -30.3838   22.9807 C   0  0  2  0  0  0  0  0  0  0  0  0
  -28.1060  -22.9436   21.7947 C   0  0  2  0  0  0  0  0  0  1  0  0
  -26.7015  -31.1825   24.1089 C   0  0  0  0  0  0  0  0  0  0  0  0
  -28.1512  -22.2802   24.4028 C   0  0  1  0  0  0  0  0  0  0  0  0
  -25.8398  -11.7686   20.3547 N   0  0  0  0  0  0  0  0  0  0  0  0
  -30.5111  -16.9024   24.9608 N   0  0  0  0  0  0  0  0  0  0  0  0
  -29.7134  -17.9585   25.1940 N   0  0  0  0  0  0  0  0  0  0  0  0
  -26.0082  -13.0918   20.5183 N   0  0  0  0  0  0  0  0  0  0  0  0
  -26.9480  -29.4425   20.9821 N   0  0  0  0  0  0  0  0  0  0  0  0
  -29.7476  -13.8059   20.1305 N   0  0  0  0  0  0  0  0  0  0  0  0
  -24.9820  -15.0302   21.4128 N   0  0  0  0  0  0  0  0  0  0  0  0
  -22.0039  -11.7596   22.3242 N   0  0  0  0  0  0  0  0  0  0  0  0
  -29.8034  -30.7738   19.7806 N   0  0  0  0  0  0  0  0  0  0  0  0
  -24.5037  -30.7270   22.9401 N   0  0  0  0  0  0  0  0  0  0  0  0
  -30.3990  -14.7881   22.2155 N   0  0  0  0  0  0  0  0  0  0  0  0
  -21.1898  -29.3969   22.3773 N   0  3  0  0  0  0  0  0  0  0  0  0
  -22.4188  -14.0067   22.5171 O   0  0  0  0  0  0  0  0  0  0  0  0
  -29.6470  -28.5947   20.5865 O   0  0  0  0  0  0  0  0  0  0  0  0
  -26.5135  -31.7264   21.1594 O   0  0  0  0  0  0  0  0  0  0  0  0
  -23.7044  -28.5885   23.3466 O   0  0  0  0  0  0  0  0  0  0  0  0
  -31.4142  -15.3936   20.2377 O   0  0  0  0  0  0  0  0  0  0  0  0
  -22.5370   -6.3667   21.0331 O   0  0  0  0  0  0  0  0  0  0  0  0
  -27.1232  -23.2750   20.8045 O   0  0  0  0  0  0  0  0  0  1  0  0
  -20.3360   -4.5941   25.7678 F   0  0  0  0  0  0  0  0  0  0  0  0
  -20.3981   -7.6864   22.1845 F   0  0  0  0  0  0  0  0  0  0  0  0
  1  2  1  0  0  0  0
  1  5  2  0  0  0  0
  2  6  2  0  0  0  0
  3  8  2  0  0  0  0
  3 15  1  0  0  0  0
  4  9  1  0  0  0  0
  4 15  2  0  0  0  0
  5 17  1  0  0  0  0
  6 19  1  0  0  0  0
  7 10  2  0  0  0  0
  7 18  1  0  0  0  0
  8 22  1  0  0  0  0
  9 22  2  0  0  0  0
 10 23  1  0  0  0  0
 11 12  2  0  0  0  0
 11 24  1  0  0  0  0
 12 25  1  0  0  0  0
 13 20  1  0  0  0  0
 13 23  2  0  0  0  0
 14 25  2  0  0  0  0
 14 26  1  0  0  0  0
 15 27  1  0  0  0  0
 16 27  1  0  0  0  0
 16 30  2  0  0  0  0
 16 31  1  0  0  0  0
 17 19  2  0  0  0  0
 17 36  1  0  0  0  0
 18 20  2  0  0  0  0
 18 37  1  0  0  0  0
 19 45  1  0  0  0  0
 20 38  1  0  0  0  0
 21 28  1  0  0  0  0
 21 29  2  0  0  0  0
 21 59  1  0  0  0  0
 22 89  1  0  0  0  0
 23 90  1  0  0  0  0
 24 26  2  0  0  0  0
 24 89  1  0  0  0  0
 25 91  1  0  0  0  0
 26 92  1  0  0  0  0
 27 72  2  0  0  0  0
 28 60  1  0  0  0  0
 28 73  2  0  0  0  0
 29 61  1  0  0  0  0
 29 74  1  0  0  0  0
 30 75  1  0  0  0  0
 30 78  1  0  0  0  0
 31 79  1  0  0  0  0
 31 84  2  0  0  0  0
 32 46  1  0  0  0  0
 32 80  1  0  0  0  0
 32 85  2  0  0  0  0
 33 67  1  0  0  0  0
 33 76  1  0  0  0  0
 33 86  2  0  0  0  0
 34 68  1  0  0  0  0
 34 81  1  0  0  0  0
 34 87  2  0  0  0  0
 35 77  1  0  0  0  0
 35 82  1  0  0  0  0
 35 88  2  0  0  0  0
 36 39  1  0  0  0  0
 37 46  1  0  0  0  0
 38 76  1  0  0  0  0
 39 41  1  0  0  0  0
 40 42  1  0  0  0  0
 40 43  1  0  0  0  0
 41 45  1  0  0  0  0
 42 47  1  0  0  0  0
 43 77  1  0  0  0  0
 44 47  1  0  0  0  0
 44 77  1  0  0  0  0
 45 80  1  0  0  0  0
 46 76  1  0  0  0  0
 47 75  1  0  0  0  0
 48 59  1  0  0  0  0
 49 62  1  0  0  0  0
 50 63  1  0  0  0  0
 51 68  1  0  0  0  0
 52 69  1  0  0  0  0
 53 70  1  0  0  0  0
 54 70  1  0  0  0  0
 55 70  1  0  0  0  0
 56 71  1  0  0  0  0
 57 74  1  0  0  0  0
 58 83  1  0  0  0  0
 60 82  1  0  0  0  0
 61 64  1  0  0  0  0
 62 66  1  0  0  0  0
 63 71  1  0  0  0  0
 64 71  1  0  0  0  0
 65 69  1  0  0  0  0
 65 71  1  0  0  0  0
 66 82  1  0  0  0  0
 67 70  1  0  0  0  0
 67 81  1  0  0  0  0
 68 83  1  0  0  0  0
 69 90  1  0  0  0  0
 72 75  1  0  0  0  0
 73 74  1  0  0  0  0
M  CHG  1  83   1
M  ISO  4  35 100  69 101  82 100  90 101
M  END
> <Batch ID>
0065

> <Smiles>
CCC[100N:0](Cc1nn(C)c(CCC(C)(CC)C[101CH:1](C)[101O:1]c2ccc3c(c2)CN(C(=O)C(NC(=O)C(C)NC)C(C)(C)C)C(C(=O)NC2CCCc4ccccc42)C3)c1CC)[100C:0](=O)N1CCCC(n2nc(-c3ccc(Oc4ccc(F)cc4F)cc3)c(C(N)=O)c2N)C1

> <Shape>
0.304

> <Color>
0.143

> <Negative vol penalty>
0.000

$$$$

  -OEChem-04052318073D

 88 96  0     1  0  0  0  0  0999 V2000
  -29.6355  -21.2549   15.6327 C   0  0  0  0  0  0  0  0  0  0  0  0
  -29.1561  -21.2423   16.9386 C   0  0  0  0  0  0  0  0  0  0  0  0
  -27.0053  -12.4314   21.8057 C   0  0  0  0  0  0  0  0  0  0  0  0
  -26.1229  -13.9846   20.1791 C   0  0  0  0  0  0  0  0  0  0  0  0
  -30.0696  -22.4507   15.0621 C   0  0  0  0  0  0  0  0  0  0  0  0
  -29.1115  -22.4255   17.6751 C   0  0  0  0  0  0  0  0  0  0  0  0
  -24.7463  -22.9919   20.1790 C   0  0  0  0  0  0  0  0  0  0  0  0
  -25.7346  -11.8798   21.9684 C   0  0  0  0  0  0  0  0  0  0  0  0
  -24.8521  -13.4329   20.3417 C   0  0  0  0  0  0  0  0  0  0  0  0
  -24.5881  -22.2617   21.3560 C   0  0  0  0  0  0  0  0  0  0  0  0
  -22.7929   -9.8235   22.5458 C   0  0  0  0  0  0  0  0  0  0  0  0
  -22.6883   -8.4329   22.5733 C   0  0  0  0  0  0  0  0  0  0  0  0
  -25.1526  -24.2233   22.6417 C   0  0  0  0  0  0  0  0  0  0  0  0
  -23.6259   -8.3183   20.3496 C   0  0  0  0  0  0  0  0  0  0  0  0
  -30.3147  -20.1713   26.7478 C   0  0  0  0  0  0  0  0  0  0  0  0
  -27.1995  -13.4839   20.9111 C   0  0  0  0  0  0  0  0  0  0  0  0
  -29.5012  -13.6552   19.8247 C   0  0  0  0  0  0  0  0  0  0  0  0
  -30.0213  -23.6508   15.7887 C   0  0  0  0  0  0  0  0  0  0  0  0
  -25.1201  -24.3427   20.2241 C   0  0  0  0  0  0  0  0  0  0  0  0
  -29.5466  -23.6383   17.1142 C   0  0  0  0  0  0  0  0  0  0  0  0
  -25.3124  -24.9691   21.4638 C   0  0  0  0  0  0  0  0  0  0  0  0
  -24.6580  -12.3805   21.2364 C   0  0  0  0  0  0  0  0  0  0  0  0
  -24.7940  -22.8766   22.5875 C   0  0  0  0  0  0  0  0  0  0  0  0
  -23.3139  -10.4616   21.4201 C   0  0  0  0  0  0  0  0  0  0  0  0
  -23.1048   -7.6803   21.4752 C   0  0  0  0  0  0  0  0  0  0  0  0
  -23.7305   -9.7090   20.3221 C   0  0  0  0  0  0  0  0  0  0  0  0
  -28.5118  -14.0546   20.7431 C   0  0  0  0  0  0  0  0  0  0  0  0
  -30.5540  -14.5045   20.0633 C   0  0  0  0  0  0  0  0  0  0  0  0
  -30.4332  -20.6558   24.7209 C   0  0  0  0  0  0  0  0  0  0  0  0
  -29.4713  -12.6101   18.8437 C   0  0  0  0  0  0  0  0  0  0  0  0
  -27.6070  -26.0184   19.1699 C   0  0  0  0  0  0  0  0  0  0  0  0
  -25.8504  -28.5408   20.2062 C   0  0  0  0  0  0  0  0  0  0  0  0
  -30.6949  -19.9813   22.3567 C   0  0  0  0  0  0  0  0  0  0  0  0
  -23.4013  -29.7112   22.2748 C   0  0  0  0  0  0  0  0  0  0  0  0
  -30.5457  -24.9103   15.1458 C   0  0  0  0  0  0  0  0  0  0  0  0
  -25.2607  -25.1235   18.9462 C   0  0  0  0  0  0  0  0  0  0  0  0
  -25.6949  -26.4222   21.5673 C   0  0  0  0  0  0  0  0  0  0  0  0
  -30.1155  -26.1861   15.8652 C   0  0  0  0  0  0  0  0  0  0  0  0
  -32.5723  -17.0967   23.5318 C   0  0  0  0  0  0  0  0  0  0  0  0
  -30.3169  -26.0438   17.3706 C   0  0  0  0  0  0  0  0  0  0  0  0
  -31.8055  -15.9468   22.8800 C   0  0  0  0  0  0  0  0  0  0  0  0
  -31.6388  -18.2326   23.9419 C   0  0  0  0  0  0  0  0  0  0  0  0
  -30.0290  -17.6058   22.1698 C   0  0  0  0  0  0  0  0  0  0  0  0
  -29.4595  -24.9055   17.9367 C   0  0  1  0  0  0  0  0  0  0  0  0
  -26.1452  -26.3577   19.0943 C   0  0  1  0  0  0  0  0  0  0  0  0
  -30.9384  -16.4526   21.7139 C   0  0  2  0  0  0  0  0  0  0  0  0
  -22.2137  -31.8247   22.9228 C   0  0  0  0  0  0  0  0  0  0  0  0
  -32.3759  -21.4587   23.2320 C   0  0  0  0  0  0  0  0  0  0  0  0
  -28.2826  -29.4061   21.8327 C   0  0  0  0  0  0  0  0  0  0  0  0
  -26.7784  -30.9120   23.1509 C   0  0  0  0  0  0  0  0  0  0  0  0
  -27.0667  -31.2749   20.6998 C   0  0  0  0  0  0  0  0  0  0  0  0
  -25.7087  -19.8705   28.4019 C   0  0  0  0  0  0  0  0  0  0  0  0
  -27.8427  -21.0115   29.0264 C   0  0  0  0  0  0  0  0  0  0  0  0
  -20.7834  -28.6468   21.3960 C   0  0  0  0  0  0  0  0  0  0  0  0
  -25.7358  -21.3248   25.7027 C   0  0  0  0  0  0  0  0  0  0  0  0
  -26.5809  -21.6842   26.9287 C   0  0  0  0  0  0  0  0  0  0  0  0
  -27.8055  -19.4484   27.0036 C   0  0  0  0  0  0  0  0  0  0  0  0
  -25.4408  -22.5559   24.8536 C   0  0  0  0  0  0  0  0  0  1  0  0
  -25.7236  -29.2919   21.5096 C   0  0  1  0  0  0  0  0  0  0  0  0
  -22.2039  -30.6066   22.0124 C   0  0  2  0  0  0  0  0  0  0  0  0
  -30.8602  -21.0697   23.3872 C   0  0  2  0  0  0  0  0  0  0  0  0
  -26.9575  -30.1933   21.7966 C   0  0  0  0  0  0  0  0  0  0  0  0
  -27.0070  -20.4917   27.8414 C   0  0  0  0  0  0  0  0  0  0  0  0
  -30.0459  -22.2913   22.8599 C   0  0  0  0  0  0  0  0  0  0  0  0
  -31.1862  -20.6166   25.7955 N   0  0  0  0  0  0  0  0  0  0  0  0
  -28.9012  -15.0778   21.5081 N   0  0  0  0  0  0  0  0  0  0  0  0
  -29.1724  -20.2503   25.0305 N   0  0  0  0  0  0  0  0  0  0  0  0
  -29.0697  -19.9326   26.3300 N   0  0  0  0  0  0  0  0  0  0  0  0
  -30.1471  -15.3286   21.0710 N   0  0  0  0  0  0  0  0  0  0  0  0
  -25.8264  -27.1414   20.2894 N   0  0  0  0  0  0  0  0  0  0  0  0
  -30.8108  -18.6673   22.8105 N   0  0  0  0  0  0  0  0  0  0  0  0
  -31.7788  -14.6192   19.5074 N   0  0  0  0  0  0  0  0  0  0  0  0
  -28.3110  -11.8321   18.7314 N   0  0  0  0  0  0  0  0  0  0  0  0
  -28.0821  -25.3289   18.0706 N   0  0  0  0  0  0  0  0  0  0  0  0
  -24.4581  -30.0147   21.4428 N   0  0  0  0  0  0  0  0  0  0  0  0
  -20.9364  -29.8575   22.2432 N   0  3  0  0  0  0  0  0  0  0  0  0
  -30.4508  -12.3625   18.1002 O   0  0  0  0  0  0  0  0  0  0  0  0
  -28.2561  -26.3584   20.1520 O   0  0  0  0  0  0  0  0  0  0  0  0
  -25.9592  -29.1726   19.1523 O   0  0  0  0  0  0  0  0  0  0  0  0
  -30.4722  -20.2919   21.1836 O   0  0  0  0  0  0  0  0  0  0  0  0
  -23.4006  -28.8330   23.1347 O   0  0  0  0  0  0  0  0  0  0  0  0
  -23.4179  -11.8422   21.3946 O   0  0  0  0  0  0  0  0  0  0  0  0
  -24.6409  -22.1660   23.7380 O   0  0  0  0  0  0  0  0  0  1  0  0
  -23.0057   -6.3447   21.5024 F   0  0  0  0  0  0  0  0  0  0  0  0
  -24.2330  -10.3163   19.2383 F   0  0  0  0  0  0  0  0  0  0  0  0
  -30.2032  -23.3486   23.6897 F   0  0  0  0  0  0  0  0  0  0  0  0
  -30.4127  -22.6977   21.6219 F   0  0  0  0  0  0  0  0  0  0  0  0
  -28.7253  -22.0078   22.8125 F   0  0  0  0  0  0  0  0  0  0  0  0
  1  2  1  0  0  0  0
  1  5  2  0  0  0  0
  2  6  2  0  0  0  0
  3  8  2  0  0  0  0
  3 16  1  0  0  0  0
  4  9  1  0  0  0  0
  4 16  2  0  0  0  0
  5 18  1  0  0  0  0
  6 20  1  0  0  0  0
  7 10  2  0  0  0  0
  7 19  1  0  0  0  0
  8 22  1  0  0  0  0
  9 22  2  0  0  0  0
 10 23  1  0  0  0  0
 11 12  2  0  0  0  0
 11 24  1  0  0  0  0
 12 25  1  0  0  0  0
 13 21  1  0  0  0  0
 13 23  2  0  0  0  0
 14 25  2  0  0  0  0
 14 26  1  0  0  0  0
 15 65  2  0  0  0  0
 15 68  1  0  0  0  0
 16 27  1  0  0  0  0
 17 27  1  0  0  0  0
 17 28  2  0  0  0  0
 17 30  1  0  0  0  0
 18 20  2  0  0  0  0
 18 35  1  0  0  0  0
 19 21  2  0  0  0  0
 19 36  1  0  0  0  0
 20 44  1  0  0  0  0
 21 37  1  0  0  0  0
 22 82  1  0  0  0  0
 23 83  1  0  0  0  0
 24 26  2  0  0  0  0
 24 82  1  0  0  0  0
 25 84  1  0  0  0  0
 26 85  1  0  0  0  0
 27 66  2  0  0  0  0
 28 69  1  0  0  0  0
 28 72  1  0  0  0  0
 29 61  1  0  0  0  0
 29 65  1  0  0  0  0
 29 67  2  0  0  0  0
 30 73  1  0  0  0  0
 30 77  2  0  0  0  0
 31 45  1  0  0  0  0
 31 74  1  0  0  0  0
 31 78  2  0  0  0  0
 32 59  1  0  0  0  0
 32 70  1  0  0  0  0
 32 79  2  0  0  0  0
 33 61  1  0  0  0  0
 33 71  1  0  0  0  0
 33 80  2  0  0  0  0
 34 60  1  0  0  0  0
 34 75  1  0  0  0  0
 34 81  2  0  0  0  0
 35 38  1  0  0  0  0
 36 45  1  0  0  0  0
 37 70  1  0  0  0  0
 38 40  1  0  0  0  0
 39 41  1  0  0  0  0
 39 42  1  0  0  0  0
 40 44  1  0  0  0  0
 41 46  1  0  0  0  0
 42 71  1  0  0  0  0
 43 46  1  0  0  0  0
 43 71  1  0  0  0  0
 44 74  1  0  0  0  0
 45 70  1  0  0  0  0
 46 69  1  0  0  0  0
 47 60  1  0  0  0  0
 48 61  1  0  0  0  0
 49 62  1  0  0  0  0
 50 62  1  0  0  0  0
 51 62  1  0  0  0  0
 52 63  1  0  0  0  0
 53 63  1  0  0  0  0
 54 76  1  0  0  0  0
 55 56  1  0  0  0  0
 55 58  1  0  0  0  0
 56 63  1  0  0  0  0
 57 63  1  0  0  0  0
 57 68  1  0  0  0  0
 58 83  1  0  0  0  0
 59 62  1  0  0  0  0
 59 75  1  0  0  0  0
 60 76  1  0  0  0  0
 61 64  1  0  0  0  0
 64 86  1  0  0  0  0
 64 87  1  0  0  0  0
 64 88  1  0  0  0  0
 66 69  1  0  0  0  0
 67 68  1  0  0  0  0
M  CHG  1  76   1
M  ISO  4  33 100  58 101  61 100  83 101
M  END
> <Batch ID>
0065

> <Smiles>
CNC(C)C(=O)NC(C(=O)N1Cc2cc([101O:1][101CH2:1]CCC(C)(C)Cn3cnc([100C:0](C)([100C:0](=O)N4CCCC(n5nc(-c6ccc(Oc7ccc(F)cc7F)cc6)c(C(N)=O)c5N)C4)C(F)(F)F)n3)ccc2CC1C(=O)NC1CCCc2ccccc21)C(C)(C)C

> <Shape>
0.250

> <Color>
0.088

> <Negative vol penalty>
0.000

$$$$

  -OEChem-04052318073D

 81 89  0     1  0  0  0  0  0999 V2000
  -33.9032  -11.0939   20.5975 C   0  0  0  0  0  0  0  0  0  0  0  0
  -33.6405  -12.4398   20.8321 C   0  0  0  0  0  0  0  0  0  0  0  0
  -29.7489  -23.4273   19.1805 C   0  0  0  0  0  0  0  0  0  0  0  0
  -29.9686  -24.8492   17.2397 C   0  0  0  0  0  0  0  0  0  0  0  0
  -33.0573  -10.3530   19.7732 C   0  0  0  0  0  0  0  0  0  0  0  0
  -32.5322  -13.0459   20.2415 C   0  0  0  0  0  0  0  0  0  0  0  0
  -27.6367  -18.1305   21.4652 C   0  0  0  0  0  0  0  0  0  0  0  0
  -29.9602  -22.3038   18.3814 C   0  0  0  0  0  0  0  0  0  0  0  0
  -30.1800  -23.7257   16.4405 C   0  0  0  0  0  0  0  0  0  0  0  0
  -27.0925  -19.2674   20.8693 C   0  0  0  0  0  0  0  0  0  0  0  0
  -30.0847  -19.0356   16.7917 C   0  0  0  0  0  0  0  0  0  0  0  0
  -29.2457  -17.9372   16.9794 C   0  0  0  0  0  0  0  0  0  0  0  0
  -25.6563  -17.8691   19.5272 C   0  0  0  0  0  0  0  0  0  0  0  0
  -27.3329  -19.3028   16.4192 C   0  0  0  0  0  0  0  0  0  0  0  0
  -29.7530  -24.7000   18.6097 C   0  0  0  0  0  0  0  0  0  0  0  0
  -30.5094  -26.6242   20.1039 C   0  0  0  0  0  0  0  0  0  0  0  0
  -31.9326  -10.9479   19.1800 C   0  0  0  0  0  0  0  0  0  0  0  0
  -27.2018  -16.8518   21.0881 C   0  0  0  0  0  0  0  0  0  0  0  0
  -31.6712  -12.3126   19.4075 C   0  0  0  0  0  0  0  0  0  0  0  0
  -26.1947  -16.7177   20.1216 C   0  0  0  0  0  0  0  0  0  0  0  0
  -30.1758  -22.4529   17.0114 C   0  0  0  0  0  0  0  0  0  0  0  0
  -26.1043  -19.1367   19.8981 C   0  0  0  0  0  0  0  0  0  0  0  0
  -29.5479  -20.2676   16.4180 C   0  0  0  0  0  0  0  0  0  0  0  0
  -27.8698  -18.0708   16.7931 C   0  0  0  0  0  0  0  0  0  0  0  0
  -28.1720  -20.4012   16.2317 C   0  0  0  0  0  0  0  0  0  0  0  0
  -29.5341  -25.8609   19.4345 C   0  0  0  0  0  0  0  0  0  0  0  0
  -23.8262  -24.0780   24.0824 C   0  0  0  0  0  0  0  0  0  0  0  0
  -23.9948  -24.2942   22.7387 C   0  0  0  0  0  0  0  0  0  0  0  0
  -29.7959  -27.6085   20.7432 C   0  0  0  0  0  0  0  0  0  0  0  0
  -24.0181  -26.5178   23.1315 C   0  0  0  0  0  0  0  0  0  0  0  0
  -31.9329  -26.4585   20.1442 C   0  0  0  0  0  0  0  0  0  0  0  0
  -24.1244  -27.8936   22.6288 C   0  0  0  0  0  0  0  0  0  0  0  0
  -28.5839  -14.3098   19.7722 C   0  0  0  0  0  0  0  0  0  0  0  0
  -25.7048  -12.9313   20.3488 C   0  0  0  0  0  0  0  0  0  0  0  0
  -22.3539  -13.3266   20.8608 C   0  0  0  0  0  0  0  0  0  0  0  0
  -31.0738  -10.1185   18.2586 C   0  0  0  0  0  0  0  0  0  0  0  0
  -27.7798  -15.6363   21.7596 C   0  0  0  0  0  0  0  0  0  0  0  0
  -25.6787  -15.3682   19.6960 C   0  0  0  0  0  0  0  0  0  0  0  0
  -29.7102  -10.7418   17.9715 C   0  0  0  0  0  0  0  0  0  0  0  0
  -25.7535  -30.1465   20.3900 C   0  0  0  0  0  0  0  0  0  0  0  0
  -29.8606  -12.2208   17.6301 C   0  0  0  0  0  0  0  0  0  0  0  0
  -26.9902  -29.3683   19.9373 C   0  0  0  0  0  0  0  0  0  0  0  0
  -24.5517  -29.2269   20.5918 C   0  0  0  0  0  0  0  0  0  0  0  0
  -26.0363  -27.3055   21.0489 C   0  0  0  0  0  0  0  0  0  0  0  0
  -30.4649  -12.9995   18.8048 C   0  0  1  0  0  0  0  0  0  0  0  0
  -27.6271  -14.3656   20.9293 C   0  0  1  0  0  0  0  0  0  0  0  0
  -27.2840  -28.1885   20.8830 C   0  0  1  0  0  0  0  0  0  0  0  0
  -23.7155  -22.7071   24.6506 C   0  0  0  0  0  0  0  0  0  0  0  0
  -20.2545  -12.0129   21.2659 C   0  0  0  0  0  0  0  0  0  0  0  0
  -25.6329  -12.1422   17.4023 C   0  0  0  0  0  0  0  0  0  0  0  0
  -23.1802  -11.7056   17.6509 C   0  0  0  0  0  0  0  0  0  0  0  0
  -24.8227  -10.3751   18.9755 C   0  0  0  0  0  0  0  0  0  0  0  0
  -21.9086  -14.6257   23.4824 C   0  0  0  0  0  0  0  0  0  0  0  0
  -24.3507  -22.2962   19.6642 C   0  0  0  0  0  0  0  0  0  0  0  0
  -25.5249  -21.4344   20.1012 C   0  0  0  0  0  0  0  0  0  1  0  0
  -24.2432  -23.5705   20.4869 C   0  0  0  0  0  0  0  0  0  0  0  0
  -24.4119  -12.7950   19.5815 C   0  0  1  0  0  0  0  0  0  0  0  0
  -21.4199  -12.7487   21.9087 C   0  0  2  0  0  0  0  0  0  0  0  0
  -24.5228  -11.7800   18.4089 C   0  0  0  0  0  0  0  0  0  0  0  0
  -28.2955  -26.3207   19.6305 N   0  0  0  0  0  0  0  0  0  0  0  0
  -23.7559  -25.1096   24.9432 N   0  0  0  0  0  0  0  0  0  0  0  0
  -24.0958  -25.5302   22.2270 N   0  0  0  0  0  0  0  0  0  0  0  0
  -23.8539  -26.3658   24.4604 N   0  0  0  0  0  0  0  0  0  0  0  0
  -28.4876  -27.3834   20.4303 N   0  0  0  0  0  0  0  0  0  0  0  0
  -24.8920  -28.1190   21.4836 N   0  0  0  0  0  0  0  0  0  0  0  0
  -26.2798  -14.2097   20.3772 N   0  0  0  0  0  0  0  0  0  0  0  0
  -30.1662  -28.6358   21.5368 N   0  0  0  0  0  0  0  0  0  0  0  0
  -32.5022  -25.3950   19.4305 N   0  0  0  0  0  0  0  0  0  0  0  0
  -29.4617  -13.2436   19.8189 N   0  0  0  0  0  0  0  0  0  0  0  0
  -23.3867  -12.4624   20.5648 N   0  0  0  0  0  0  0  0  0  0  0  0
  -20.8724  -13.8346   22.7700 N   0  3  0  0  0  0  0  0  0  0  0  0
  -32.6766  -27.2207   20.8071 O   0  0  0  0  0  0  0  0  0  0  0  0
  -23.5289  -28.7553   23.2737 O   0  0  0  0  0  0  0  0  0  0  0  0
  -28.5289  -15.1695   18.9007 O   0  0  0  0  0  0  0  0  0  0  0  0
  -26.1830  -11.9415   20.9085 O   0  0  0  0  0  0  0  0  0  0  0  0
  -22.1821  -14.4325   20.3526 O   0  0  0  0  0  0  0  0  0  0  0  0
  -30.3823  -21.3569   16.2313 O   0  0  0  0  0  0  0  0  0  0  0  0
  -25.5719  -20.2448   19.3144 O   0  0  0  0  0  0  0  0  0  1  0  0
  -24.0677  -23.2454   21.8592 O   0  0  0  0  0  0  0  0  0  0  0  0
  -27.0643  -17.0156   16.9718 F   0  0  0  0  0  0  0  0  0  0  0  0
  -27.6506  -21.5819   15.8714 F   0  0  0  0  0  0  0  0  0  0  0  0
  1  2  1  0  0  0  0
  1  5  2  0  0  0  0
  2  6  2  0  0  0  0
  3  8  2  0  0  0  0
  3 15  1  0  0  0  0
  4  9  1  0  0  0  0
  4 15  2  0  0  0  0
  5 17  1  0  0  0  0
  6 19  1  0  0  0  0
  7 10  2  0  0  0  0
  7 18  1  0  0  0  0
  8 21  1  0  0  0  0
  9 21  2  0  0  0  0
 10 22  1  0  0  0  0
 11 12  2  0  0  0  0
 11 23  1  0  0  0  0
 12 24  1  0  0  0  0
 13 20  1  0  0  0  0
 13 22  2  0  0  0  0
 14 24  2  0  0  0  0
 14 25  1  0  0  0  0
 15 26  1  0  0  0  0
 16 26  1  0  0  0  0
 16 29  2  0  0  0  0
 16 31  1  0  0  0  0
 17 19  2  0  0  0  0
 17 36  1  0  0  0  0
 18 20  2  0  0  0  0
 18 37  1  0  0  0  0
 19 45  1  0  0  0  0
 20 38  1  0  0  0  0
 21 77  1  0  0  0  0
 22 78  1  0  0  0  0
 23 25  2  0  0  0  0
 23 77  1  0  0  0  0
 24 80  1  0  0  0  0
 25 81  1  0  0  0  0
 26 60  2  0  0  0  0
 27 28  2  0  0  0  0
 27 48  1  0  0  0  0
 27 61  1  0  0  0  0
 28 62  1  0  0  0  0
 28 79  1  0  0  0  0
 29 64  1  0  0  0  0
 29 67  1  0  0  0  0
 30 32  1  0  0  0  0
 30 62  2  0  0  0  0
 30 63  1  0  0  0  0
 31 68  1  0  0  0  0
 31 72  2  0  0  0  0
 32 65  1  0  0  0  0
 32 73  2  0  0  0  0
 33 46  1  0  0  0  0
 33 69  1  0  0  0  0
 33 74  2  0  0  0  0
 34 57  1  0  0  0  0
 34 66  1  0  0  0  0
 34 75  2  0  0  0  0
 35 58  1  0  0  0  0
 35 70  1  0  0  0  0
 35 76  2  0  0  0  0
 36 39  1  0  0  0  0
 37 46  1  0  0  0  0
 38 66  1  0  0  0  0
 39 41  1  0  0  0  0
 40 42  1  0  0  0  0
 40 43  1  0  0  0  0
 41 45  1  0  0  0  0
 42 47  1  0  0  0  0
 43 65  1  0  0  0  0
 44 47  1  0  0  0  0
 44 65  1  0  0  0  0
 45 69  1  0  0  0  0
 46 66  1  0  0  0  0
 47 64  1  0  0  0  0
 49 58  1  0  0  0  0
 50 59  1  0  0  0  0
 51 59  1  0  0  0  0
 52 59  1  0  0  0  0
 53 71  1  0  0  0  0
 54 55  1  0  0  0  0
 54 56  1  0  0  0  0
 55 78  1  0  0  0  0
 56 79  1  0  0  0  0
 57 59  1  0  0  0  0
 57 70  1  0  0  0  0
 58 71  1  0  0  0  0
 60 64  1  0  0  0  0
 61 63  2  0  0  0  0
M  CHG  1  71   1
M  ISO  4  30 100  32 100  55 101  78 101
M  END
> <Batch ID>
0065

> <Smiles>
CNC(C)C(=O)NC(C(=O)N1Cc2cc([101O:1][101CH2:1]CCOc3n[100c:0]([100C:0](=O)N4CCCC(n5nc(-c6ccc(Oc7ccc(F)cc7F)cc6)c(C(N)=O)c5N)C4)nnc3C)ccc2CC1C(=O)NC1CCCc2ccccc21)C(C)(C)C

> <Shape>
0.208

> <Color>
0.075

> <Negative vol penalty>
0.000

$$$$

  -OEChem-04052318073D

 91 99  0     1  0  0  0  0  0999 V2000
  -26.5215  -35.4597   23.3473 C   0  0  0  0  0  0  0  0  0  0  0  0
  -26.9661  -34.1630   23.1098 C   0  0  0  0  0  0  0  0  0  0  0  0
  -28.4481  -10.6495   18.6437 C   0  0  0  0  0  0  0  0  0  0  0  0
  -30.1871  -11.5300   20.0713 C   0  0  0  0  0  0  0  0  0  0  0  0
  -25.2259  -35.6766   23.8144 C   0  0  0  0  0  0  0  0  0  0  0  0
  -26.1156  -33.0824   23.3403 C   0  0  0  0  0  0  0  0  0  0  0  0
  -26.2366  -29.6804   19.5911 C   0  0  0  0  0  0  0  0  0  0  0  0
  -29.1906   -9.4833   18.4586 C   0  0  0  0  0  0  0  0  0  0  0  0
  -30.9295  -10.3637   19.8862 C   0  0  0  0  0  0  0  0  0  0  0  0
  -27.3238  -28.8082   19.5576 C   0  0  0  0  0  0  0  0  0  0  0  0
  -30.7915   -6.4225   17.3216 C   0  0  0  0  0  0  0  0  0  0  0  0
  -30.8974   -5.9182   16.0255 C   0  0  0  0  0  0  0  0  0  0  0  0
  -25.9695  -27.0905   20.5748 C   0  0  0  0  0  0  0  0  0  0  0  0
  -31.9427   -7.9756   15.3104 C   0  0  0  0  0  0  0  0  0  0  0  0
  -30.0985  -20.8526   24.2299 C   0  0  0  0  0  0  0  0  0  0  0  0
  -28.9464  -11.6729   19.4500 C   0  0  0  0  0  0  0  0  0  0  0  0
  -26.8908  -12.9867   20.1956 C   0  0  0  0  0  0  0  0  0  0  0  0
  -24.3559  -34.5987   24.0416 C   0  0  0  0  0  0  0  0  0  0  0  0
  -25.0087  -29.2669   20.1276 C   0  0  0  0  0  0  0  0  0  0  0  0
  -24.8075  -33.2850   23.8122 C   0  0  0  0  0  0  0  0  0  0  0  0
  -24.8676  -27.9585   20.6117 C   0  0  0  0  0  0  0  0  0  0  0  0
  -30.4313   -9.3404   19.0799 C   0  0  0  0  0  0  0  0  0  0  0  0
  -27.1912  -27.5140   20.0521 C   0  0  0  0  0  0  0  0  0  0  0  0
  -31.2611   -7.7034   17.6122 C   0  0  0  0  0  0  0  0  0  0  0  0
  -31.4730   -6.6947   15.0199 C   0  0  0  0  0  0  0  0  0  0  0  0
  -31.8368   -8.4800   16.6066 C   0  0  0  0  0  0  0  0  0  0  0  0
  -28.1802  -12.8781   19.6412 C   0  0  0  0  0  0  0  0  0  0  0  0
  -31.0266  -21.5679   23.5271 C   0  0  0  0  0  0  0  0  0  0  0  0
  -26.6119  -14.3310   20.1555 C   0  0  0  0  0  0  0  0  0  0  0  0
  -30.6089  -19.7046   22.4072 C   0  0  0  0  0  0  0  0  0  0  0  0
  -26.0228  -11.9639   20.7018 C   0  0  0  0  0  0  0  0  0  0  0  0
  -23.2016  -30.1972   22.5715 C   0  0  0  0  0  0  0  0  0  0  0  0
  -30.1774  -19.1665   20.0250 C   0  0  0  0  0  0  0  0  0  0  0  0
  -21.1148  -28.0375   21.3455 C   0  0  0  0  0  0  0  0  0  0  0  0
  -20.6181  -25.2344   19.4633 C   0  0  0  0  0  0  0  0  0  0  0  0
  -22.9800  -34.8798   24.5918 C   0  0  0  0  0  0  0  0  0  0  0  0
  -23.8379  -30.2112   20.1321 C   0  0  0  0  0  0  0  0  0  0  0  0
  -23.5650  -27.4592   21.1794 C   0  0  0  0  0  0  0  0  0  0  0  0
  -22.0169  -33.7036   24.4540 C   0  0  0  0  0  0  0  0  0  0  0  0
  -27.6058  -18.2972   17.6859 C   0  0  0  0  0  0  0  0  0  0  0  0
  -22.6880  -32.4088   24.9012 C   0  0  0  0  0  0  0  0  0  0  0  0
  -27.3645  -16.8121   17.9531 C   0  0  0  0  0  0  0  0  0  0  0  0
  -29.0746  -18.6661   17.8691 C   0  0  0  0  0  0  0  0  0  0  0  0
  -29.3920  -16.8103   19.4744 C   0  0  0  0  0  0  0  0  0  0  0  0
  -23.9063  -32.0884   24.0268 C   0  0  1  0  0  0  0  0  0  0  0  0
  -22.7818  -29.8486   21.1716 C   0  0  1  0  0  0  0  0  0  0  0  0
  -27.9154  -16.4016   19.3302 C   0  0  2  0  0  0  0  0  0  0  0  0
  -33.7590  -21.8055   24.9692 C   0  0  0  0  0  0  0  0  0  0  0  0
  -30.7404  -17.2286   25.1485 C   0  0  0  0  0  0  0  0  0  0  0  0
  -26.9166  -19.6488   22.5522 C   0  0  0  0  0  0  0  0  0  0  0  0
  -32.0461  -18.0247   21.1807 C   0  0  0  0  0  0  0  0  0  0  0  0
  -18.8071  -23.6867   18.6743 C   0  0  0  0  0  0  0  0  0  0  0  0
  -31.2195  -23.5930   25.1292 C   0  0  0  0  0  0  0  0  0  0  0  0
  -21.0023  -26.7613   24.1148 C   0  0  0  0  0  0  0  0  0  0  0  0
  -19.9780  -24.7337   23.0623 C   0  0  0  0  0  0  0  0  0  0  0  0
  -18.7944  -26.9268   22.9519 C   0  0  0  0  0  0  0  0  0  0  0  0
  -28.2008  -18.9364   25.2389 C   0  0  0  0  0  0  0  0  0  0  0  0
  -21.1692  -25.8507   16.6215 C   0  0  0  0  0  0  0  0  0  0  0  0
  -33.2487  -22.7562   23.8893 C   0  0  0  0  0  0  0  0  0  0  0  0
  -29.6923  -17.2950   24.0405 C   0  0  0  0  0  0  0  0  0  0  0  0
  -27.8480  -18.4623   22.7880 C   0  0  0  0  0  0  0  0  0  0  0  0
  -29.9284  -24.2873   22.4141 C   0  0  0  0  0  0  0  0  0  0  0  0
  -29.7802  -25.3339   21.3089 C   0  0  0  0  0  0  0  0  0  0  0  0
  -31.4054  -23.9250   22.6346 C   0  0  0  0  0  0  0  0  0  0  0  0
  -28.3191  -25.6722   21.0479 C   0  0  0  0  0  0  0  0  0  1  0  0
  -30.6542  -18.6534   21.3604 C   0  0  1  0  0  0  0  0  0  0  0  0
  -20.8628  -26.5624   21.5444 C   0  0  1  0  0  0  0  0  0  0  0  0
  -19.6265  -24.9276   18.3555 C   0  0  2  0  0  0  0  0  0  0  0  0
  -31.6928  -22.9283   23.8118 C   0  0  1  0  0  0  0  0  0  0  0  0
  -20.1846  -26.2558   22.9095 C   0  0  0  0  0  0  0  0  0  0  0  0
  -28.9329  -18.6587   23.9015 C   0  0  0  0  0  0  0  0  0  0  0  0
  -28.6854  -14.0592   19.2755 N   0  0  0  0  0  0  0  0  0  0  0  0
  -29.8583  -19.7048   23.5137 N   0  0  0  0  0  0  0  0  0  0  0  0
  -27.7083  -14.9227   19.6007 N   0  0  0  0  0  0  0  0  0  0  0  0
  -31.3244  -20.8339   22.4044 N   0  3  0  0  0  0  0  0  0  0  0  0
  -22.4513  -28.4221   21.1676 N   0  0  0  0  0  0  0  0  0  0  0  0
  -29.5661  -18.2396   19.1805 N   0  0  0  0  0  0  0  0  0  0  0  0
  -25.5381  -15.0527   20.5409 N   0  0  0  0  0  0  0  0  0  0  0  0
  -26.1117  -11.6232   22.0584 N   0  0  0  0  0  0  0  0  0  0  0  0
  -23.4857  -31.5368   22.7566 N   0  0  0  0  0  0  0  0  0  0  0  0
  -20.0976  -26.1189   20.3841 N   0  0  0  0  0  0  0  0  0  0  0  0
  -20.3420  -24.7003   17.0682 N   0  3  0  0  0  0  0  0  0  0  0  0
  -25.2043  -11.3583   19.9691 O   0  0  0  0  0  0  0  0  0  0  0  0
  -23.2617  -29.3163   23.4213 O   0  0  0  0  0  0  0  0  0  0  0  0
  -30.3415  -20.3565   19.7438 O   0  0  0  0  0  0  0  0  0  0  0  0
  -20.1602  -28.8188   21.3409 O   0  0  0  0  0  0  0  0  0  0  0  0
  -21.7407  -24.7361   19.5093 O   0  0  0  0  0  0  0  0  0  0  0  0
  -31.1559   -8.2024   18.8997 O   0  0  0  0  0  0  0  0  0  0  0  0
  -28.2510  -26.6609   20.0211 O   0  0  0  0  0  0  0  0  0  1  0  0
  -31.5761   -6.2097   13.7756 F   0  0  0  0  0  0  0  0  0  0  0  0
  -32.2908   -9.7108   16.8799 F   0  0  0  0  0  0  0  0  0  0  0  0
  1  2  1  0  0  0  0
  1  5  2  0  0  0  0
  2  6  2  0  0  0  0
  3  8  2  0  0  0  0
  3 16  1  0  0  0  0
  4  9  1  0  0  0  0
  4 16  2  0  0  0  0
  5 18  1  0  0  0  0
  6 20  1  0  0  0  0
  7 10  2  0  0  0  0
  7 19  1  0  0  0  0
  8 22  1  0  0  0  0
  9 22  2  0  0  0  0
 10 23  1  0  0  0  0
 11 12  2  0  0  0  0
 11 24  1  0  0  0  0
 12 25  1  0  0  0  0
 13 21  1  0  0  0  0
 13 23  2  0  0  0  0
 14 25  2  0  0  0  0
 14 26  1  0  0  0  0
 15 28  2  0  0  0  0
 15 73  1  0  0  0  0
 16 27  1  0  0  0  0
 17 27  1  0  0  0  0
 17 29  2  0  0  0  0
 17 31  1  0  0  0  0
 18 20  2  0  0  0  0
 18 36  1  0  0  0  0
 19 21  2  0  0  0  0
 19 37  1  0  0  0  0
 20 45  1  0  0  0  0
 21 38  1  0  0  0  0
 22 88  1  0  0  0  0
 23 89  1  0  0  0  0
 24 26  2  0  0  0  0
 24 88  1  0  0  0  0
 25 90  1  0  0  0  0
 26 91  1  0  0  0  0
 27 72  2  0  0  0  0
 28 69  1  0  0  0  0
 28 75  1  0  0  0  0
 29 74  1  0  0  0  0
 29 78  1  0  0  0  0
 30 66  1  0  0  0  0
 30 73  1  0  0  0  0
 30 75  2  0  0  0  0
 31 79  1  0  0  0  0
 31 83  2  0  0  0  0
 32 46  1  0  0  0  0
 32 80  1  0  0  0  0
 32 84  2  0  0  0  0
 33 66  1  0  0  0  0
 33 77  1  0  0  0  0
 33 85  2  0  0  0  0
 34 67  1  0  0  0  0
 34 76  1  0  0  0  0
 34 86  2  0  0  0  0
 35 68  1  0  0  0  0
 35 81  1  0  0  0  0
 35 87  2  0  0  0  0
 36 39  1  0  0  0  0
 37 46  1  0  0  0  0
 38 76  1  0  0  0  0
 39 41  1  0  0  0  0
 40 42  1  0  0  0  0
 40 43  1  0  0  0  0
 41 45  1  0  0  0  0
 42 47  1  0  0  0  0
 43 77  1  0  0  0  0
 44 47  1  0  0  0  0
 44 77  1  0  0  0  0
 45 80  1  0  0  0  0
 46 76  1  0  0  0  0
 47 74  1  0  0  0  0
 48 59  1  0  0  0  0
 49 60  1  0  0  0  0
 50 61  1  0  0  0  0
 51 66  1  0  0  0  0
 52 68  1  0  0  0  0
 53 69  1  0  0  0  0
 54 70  1  0  0  0  0
 55 70  1  0  0  0  0
 56 70  1  0  0  0  0
 57 71  1  0  0  0  0
 58 82  1  0  0  0  0
 59 69  1  0  0  0  0
 60 71  1  0  0  0  0
 61 71  1  0  0  0  0
 62 63  1  0  0  0  0
 62 64  1  0  0  0  0
 63 65  1  0  0  0  0
 64 69  1  0  0  0  0
 65 89  1  0  0  0  0
 67 70  1  0  0  0  0
 67 81  1  0  0  0  0
 68 82  1  0  0  0  0
 71 73  1  0  0  0  0
 72 74  1  0  0  0  0
M  CHG  2  75   1  82   1
M  ISO  4  33 100  65 101  66 100  89 101
M  END
> <Batch ID>
0065

> <Smiles>
CCC(C)(CCC[101CH2:1][101O:1]c1ccc2c(c1)CN(C(=O)C(NC(=O)C(C)NC)C(C)(C)C)C(C(=O)NC1CCCc3ccccc31)C2)c1cn(C(C)(CC)CC)c([100CH:0](C)[100C:0](=O)N2CCCC(n3nc(-c4ccc(Oc5ccc(F)cc5F)cc4)c(C(N)=O)c3N)C2)n1

> <Shape>
0.244

> <Color>
0.098

> <Negative vol penalty>
0.000

$$$$

  -OEChem-04052318073D

 94102  0     1  0  0  0  0  0999 V2000
  -18.7910  -28.2394   26.2719 C   0  0  0  0  0  0  0  0  0  0  0  0
  -20.1454  -27.9397   26.1664 C   0  0  0  0  0  0  0  0  0  0  0  0
  -25.0175   -9.3527   20.7445 C   0  0  0  0  0  0  0  0  0  0  0  0
  -25.1902  -10.1179   23.0296 C   0  0  0  0  0  0  0  0  0  0  0  0
  -18.0404  -28.4828   25.1224 C   0  0  0  0  0  0  0  0  0  0  0  0
  -20.7498  -27.8821   24.9111 C   0  0  0  0  0  0  0  0  0  0  0  0
  -26.4806  -29.5222   23.5059 C   0  0  0  0  0  0  0  0  0  0  0  0
  -24.7803   -8.0548   21.1971 C   0  0  0  0  0  0  0  0  0  0  0  0
  -24.9530   -8.8200   23.4822 C   0  0  0  0  0  0  0  0  0  0  0  0
  -27.6532  -28.7863   23.3411 C   0  0  0  0  0  0  0  0  0  0  0  0
  -22.2944   -6.7753   23.8967 C   0  0  0  0  0  0  0  0  0  0  0  0
  -21.3873   -6.6113   24.9435 C   0  0  0  0  0  0  0  0  0  0  0  0
  -27.2778  -28.7330   20.9588 C   0  0  0  0  0  0  0  0  0  0  0  0
  -23.1249   -5.6125   26.2926 C   0  0  0  0  0  0  0  0  0  0  0  0
  -25.2225  -10.3843   21.6608 C   0  0  0  0  0  0  0  0  0  0  0  0
  -24.5103  -12.7230   20.9324 C   0  0  0  0  0  0  0  0  0  0  0  0
  -18.6381  -28.4377   23.8530 C   0  0  0  0  0  0  0  0  0  0  0  0
  -25.6908  -29.8603   22.3976 C   0  0  0  0  0  0  0  0  0  0  0  0
  -20.0063  -28.1239   23.7434 C   0  0  0  0  0  0  0  0  0  0  0  0
  -26.0970  -29.4755   21.1119 C   0  0  0  0  0  0  0  0  0  0  0  0
  -24.7480   -7.7885   22.5659 C   0  0  0  0  0  0  0  0  0  0  0  0
  -28.0505  -28.3891   22.0677 C   0  0  0  0  0  0  0  0  0  0  0  0
  -23.6168   -6.3579   24.0478 C   0  0  0  0  0  0  0  0  0  0  0  0
  -21.8026   -6.0299   26.1415 C   0  0  0  0  0  0  0  0  0  0  0  0
  -24.0320   -5.7765   25.2458 C   0  0  0  0  0  0  0  0  0  0  0  0
  -25.4682  -11.7251   21.1939 C   0  0  0  0  0  0  0  0  0  0  0  0
  -25.2939  -22.8583   20.1668 C   0  0  0  0  0  0  0  0  0  0  0  0
  -24.9828  -20.6417   20.6352 C   0  0  0  0  0  0  0  0  0  0  0  0
  -26.6516  -22.7048   20.3417 C   0  0  0  0  0  0  0  0  0  0  0  0
  -26.3406  -20.4879   20.8094 C   0  0  0  0  0  0  0  0  0  0  0  0
  -25.2466  -13.8048   20.5153 C   0  0  0  0  0  0  0  0  0  0  0  0
  -23.0826  -12.6763   21.0555 C   0  0  0  0  0  0  0  0  0  0  0  0
  -22.7173  -29.2114   21.4805 C   0  0  0  0  0  0  0  0  0  0  0  0
  -23.4070  -31.3098   19.1050 C   0  0  0  0  0  0  0  0  0  0  0  0
  -25.7821  -32.8475   17.1967 C   0  0  0  0  0  0  0  0  0  0  0  0
  -29.5616  -17.1877   20.8971 C   0  0  0  0  0  0  0  0  0  0  0  0
  -17.7757  -28.6615   22.6361 C   0  0  0  0  0  0  0  0  0  0  0  0
  -24.4427  -30.6775   22.5894 C   0  0  0  0  0  0  0  0  0  0  0  0
  -25.2951  -29.8305   19.8874 C   0  0  0  0  0  0  0  0  0  0  0  0
  -18.5748  -28.9497   21.3678 C   0  0  0  0  0  0  0  0  0  0  0  0
  -30.1170  -14.1922   19.2404 C   0  0  0  0  0  0  0  0  0  0  0  0
  -19.7259  -27.9590   21.2255 C   0  0  0  0  0  0  0  0  0  0  0  0
  -28.8844  -13.3533   19.5748 C   0  0  0  0  0  0  0  0  0  0  0  0
  -30.5874  -14.9782   20.4585 C   0  0  0  0  0  0  0  0  0  0  0  0
  -28.2939  -15.0427   21.3842 C   0  0  0  0  0  0  0  0  0  0  0  0
  -20.7035  -28.0765   22.4011 C   0  0  1  0  0  0  0  0  0  0  0  0
  -23.4465  -30.5246   21.4441 C   0  0  1  0  0  0  0  0  0  0  0  0
  -27.7728  -14.2255   20.1842 C   0  0  2  0  0  0  0  0  0  0  0  0
  -24.7003  -24.1776   19.8083 C   0  0  0  0  0  0  0  0  0  0  0  0
  -24.0437  -19.4956   20.7972 C   0  0  0  0  0  0  0  0  0  0  0  0
  -29.9323  -24.2326   17.2306 C   0  0  0  0  0  0  0  0  0  0  0  0
  -26.0386  -34.4835   15.3112 C   0  0  0  0  0  0  0  0  0  0  0  0
  -30.3106  -18.3324   23.9230 C   0  0  0  0  0  0  0  0  0  0  0  0
  -27.8161  -18.0561   24.0796 C   0  0  0  0  0  0  0  0  0  0  0  0
  -22.5431  -29.1571   17.1227 C   0  0  0  0  0  0  0  0  0  0  0  0
  -23.6932  -30.4560   15.3176 C   0  0  0  0  0  0  0  0  0  0  0  0
  -21.7767  -31.4683   16.5525 C   0  0  0  0  0  0  0  0  0  0  0  0
  -31.6114  -26.1215   21.3084 C   0  0  0  0  0  0  0  0  0  0  0  0
  -29.7754  -24.9290   22.4437 C   0  0  0  0  0  0  0  0  0  0  0  0
  -31.5393  -23.7728   19.7733 C   0  0  0  0  0  0  0  0  0  0  0  0
  -27.3306  -34.7240   18.8818 C   0  0  0  0  0  0  0  0  0  0  0  0
  -27.6030  -23.8666   20.1788 C   0  0  0  0  0  0  0  0  0  0  0  0
  -26.9338  -19.1683   21.1675 C   0  0  0  0  0  0  0  0  0  0  0  0
  -29.9540  -25.1424   18.4498 C   0  0  0  0  0  0  0  0  0  0  0  0
  -29.0627  -23.3867   20.1159 C   0  0  0  0  0  0  0  0  0  0  0  0
  -28.4050  -19.2505   21.5933 C   0  0  0  0  0  0  0  0  0  0  0  0
  -29.2356  -26.7609   20.8026 C   0  0  0  0  0  0  0  0  0  1  0  0
  -24.0022  -31.2011   17.7219 C   0  0  1  0  0  0  0  0  0  0  0  0
  -25.9841  -34.3042   16.8204 C   0  0  2  0  0  0  0  0  0  0  0  0
  -29.0825  -17.6449   23.3397 C   0  0  0  0  0  0  0  0  0  0  0  0
  -23.0181  -30.5621   16.7018 C   0  0  0  0  0  0  0  0  0  0  0  0
  -30.1793  -25.5548   21.0827 C   0  0  0  0  0  0  0  0  0  0  0  0
  -30.1552  -24.4860   19.8618 C   0  0  1  0  0  0  0  0  0  0  0  0
  -26.7177  -12.1363   20.9623 N   0  0  0  0  0  0  0  0  0  0  0  0
  -24.4351  -21.8296   20.3104 N   0  0  0  0  0  0  0  0  0  0  0  0
  -27.1993  -21.5168   20.6660 N   0  0  0  0  0  0  0  0  0  0  0  0
  -26.5500  -13.4046   20.5507 N   0  0  0  0  0  0  0  0  0  0  0  0
  -24.0793  -30.6253   20.1274 N   0  0  0  0  0  0  0  0  0  0  0  0
  -29.5052  -15.7910   21.0145 N   0  0  0  0  0  0  0  0  0  0  0  0
  -24.8999  -15.0499   20.1253 N   0  0  0  0  0  0  0  0  0  0  0  0
  -22.4887  -11.4864   21.4980 N   0  0  0  0  0  0  0  0  0  0  0  0
  -21.5588  -29.2318   22.2335 N   0  0  0  0  0  0  0  0  0  0  0  0
  -24.4475  -32.5431   17.3625 N   0  0  0  0  0  0  0  0  0  0  0  0
  -28.9570  -17.9419   21.9140 N   0  0  0  0  0  0  0  0  0  0  0  0
  -27.2570  -34.8175   17.4010 N   0  3  0  0  0  0  0  0  0  0  0  0
  -22.3539  -13.6553   20.7654 O   0  0  0  0  0  0  0  0  0  0  0  0
  -23.1712  -28.2511   20.8694 O   0  0  0  0  0  0  0  0  0  0  0  0
  -22.3874  -31.9833   19.2733 O   0  0  0  0  0  0  0  0  0  0  0  0
  -26.7147  -32.0576   17.3267 O   0  0  0  0  0  0  0  0  0  0  0  0
  -30.1277  -17.7325   19.9406 O   0  0  0  0  0  0  0  0  0  0  0  0
  -24.5164   -6.5221   23.0079 O   0  0  0  0  0  0  0  0  0  0  0  0
  -29.2010  -27.6658   21.9032 O   0  0  0  0  0  0  0  0  0  1  0  0
  -20.9317   -5.8738   27.1472 F   0  0  0  0  0  0  0  0  0  0  0  0
  -25.3014   -5.3746   25.3973 F   0  0  0  0  0  0  0  0  0  0  0  0
  1  2  1  0  0  0  0
  1  5  2  0  0  0  0
  2  6  2  0  0  0  0
  3  8  2  0  0  0  0
  3 15  1  0  0  0  0
  4  9  1  0  0  0  0
  4 15  2  0  0  0  0
  5 17  1  0  0  0  0
  6 19  1  0  0  0  0
  7 10  2  0  0  0  0
  7 18  1  0  0  0  0
  8 21  1  0  0  0  0
  9 21  2  0  0  0  0
 10 22  1  0  0  0  0
 11 12  2  0  0  0  0
 11 23  1  0  0  0  0
 12 24  1  0  0  0  0
 13 20  1  0  0  0  0
 13 22  2  0  0  0  0
 14 24  2  0  0  0  0
 14 25  1  0  0  0  0
 15 26  1  0  0  0  0
 16 26  1  0  0  0  0
 16 31  2  0  0  0  0
 16 32  1  0  0  0  0
 17 19  2  0  0  0  0
 17 37  1  0  0  0  0
 18 20  2  0  0  0  0
 18 38  1  0  0  0  0
 19 46  1  0  0  0  0
 20 39  1  0  0  0  0
 21 91  1  0  0  0  0
 22 92  1  0  0  0  0
 23 25  2  0  0  0  0
 23 91  1  0  0  0  0
 24 93  1  0  0  0  0
 25 94  1  0  0  0  0
 26 74  2  0  0  0  0
 27 29  2  0  0  0  0
 27 49  1  0  0  0  0
 27 75  1  0  0  0  0
 28 30  1  0  0  0  0
 28 50  1  0  0  0  0
 28 75  2  0  0  0  0
 29 62  1  0  0  0  0
 29 76  1  0  0  0  0
 30 63  1  0  0  0  0
 30 76  2  0  0  0  0
 31 77  1  0  0  0  0
 31 80  1  0  0  0  0
 32 81  1  0  0  0  0
 32 86  2  0  0  0  0
 33 47  1  0  0  0  0
 33 82  1  0  0  0  0
 33 87  2  0  0  0  0
 34 68  1  0  0  0  0
 34 78  1  0  0  0  0
 34 88  2  0  0  0  0
 35 69  1  0  0  0  0
 35 83  1  0  0  0  0
 35 89  2  0  0  0  0
 36 79  1  0  0  0  0
 36 84  1  0  0  0  0
 36 90  2  0  0  0  0
 37 40  1  0  0  0  0
 38 47  1  0  0  0  0
 39 78  1  0  0  0  0
 40 42  1  0  0  0  0
 41 43  1  0  0  0  0
 41 44  1  0  0  0  0
 42 46  1  0  0  0  0
 43 48  1  0  0  0  0
 44 79  1  0  0  0  0
 45 48  1  0  0  0  0
 45 79  1  0  0  0  0
 46 82  1  0  0  0  0
 47 78  1  0  0  0  0
 48 77  1  0  0  0  0
 51 64  1  0  0  0  0
 52 69  1  0  0  0  0
 53 70  1  0  0  0  0
 54 70  1  0  0  0  0
 55 71  1  0  0  0  0
 56 71  1  0  0  0  0
 57 71  1  0  0  0  0
 58 72  1  0  0  0  0
 59 72  1  0  0  0  0
 60 73  1  0  0  0  0
 61 85  1  0  0  0  0
 62 65  1  0  0  0  0
 63 66  1  0  0  0  0
 64 73  1  0  0  0  0
 65 73  1  0  0  0  0
 66 84  1  0  0  0  0
 67 72  1  0  0  0  0
 67 92  1  0  0  0  0
 68 71  1  0  0  0  0
 68 83  1  0  0  0  0
 69 85  1  0  0  0  0
 70 84  1  0  0  0  0
 72 73  1  0  0  0  0
 74 77  1  0  0  0  0
M  CHG  1  85   1
M  ISO  4  36 100  67 101  84 100  92 101
M  END
> <Batch ID>
0065

> <Smiles>
CCC(C)(CCc1nc(CC[100N:0](C(C)C)[100C:0](=O)N2CCCC(n3nc(-c4ccc(Oc5ccc(F)cc5F)cc4)c(C(N)=O)c3N)C2)c(C)nc1C)C(C)(C)[101CH2:1][101O:1]c1ccc2c(c1)CN(C(=O)C(NC(=O)C(C)NC)C(C)(C)C)C(C(=O)NC1CCCc3ccccc31)C2

> <Shape>
0.295

> <Color>
0.114

> <Negative vol penalty>
0.000

$$$$

  -OEChem-04052318073D

 90 98  0     1  0  0  0  0  0999 V2000
  -18.9586  -31.4744   23.7834 C   0  0  0  0  0  0  0  0  0  0  0  0
  -20.3268  -31.2300   23.7225 C   0  0  0  0  0  0  0  0  0  0  0  0
  -26.9537  -12.8815   20.9889 C   0  0  0  0  0  0  0  0  0  0  0  0
  -26.7901  -13.1330   18.5916 C   0  0  0  0  0  0  0  0  0  0  0  0
  -18.0569  -30.4856   23.3920 C   0  0  0  0  0  0  0  0  0  0  0  0
  -20.7941  -29.9962   23.2711 C   0  0  0  0  0  0  0  0  0  0  0  0
  -25.8848  -28.9484   20.0319 C   0  0  0  0  0  0  0  0  0  0  0  0
  -26.3513  -11.6268   20.8984 C   0  0  0  0  0  0  0  0  0  0  0  0
  -26.1877  -11.8782   18.5010 C   0  0  0  0  0  0  0  0  0  0  0  0
  -27.1593  -28.5200   20.4002 C   0  0  0  0  0  0  0  0  0  0  0  0
  -24.5291   -8.5103   21.3358 C   0  0  0  0  0  0  0  0  0  0  0  0
  -23.5234   -8.2045   22.2526 C   0  0  0  0  0  0  0  0  0  0  0  0
  -26.5533  -26.2537   19.8383 C   0  0  0  0  0  0  0  0  0  0  0  0
  -22.2224  -10.0752   21.4495 C   0  0  0  0  0  0  0  0  0  0  0  0
  -30.7254  -23.6697   20.7133 C   0  0  0  0  0  0  0  0  0  0  0  0
  -30.0919  -24.8334   18.3955 C   0  0  0  0  0  0  0  0  0  0  0  0
  -27.1731  -13.6347   19.8355 C   0  0  0  0  0  0  0  0  0  0  0  0
  -29.1711  -15.2205   19.8646 C   0  0  0  0  0  0  0  0  0  0  0  0
  -18.5135  -29.2425   22.9265 C   0  0  0  0  0  0  0  0  0  0  0  0
  -24.9298  -28.0295   19.5736 C   0  0  0  0  0  0  0  0  0  0  0  0
  -19.8976  -28.9893   22.8744 C   0  0  0  0  0  0  0  0  0  0  0  0
  -25.2682  -26.6733   19.4624 C   0  0  0  0  0  0  0  0  0  0  0  0
  -25.9683  -11.1251   19.6545 C   0  0  0  0  0  0  0  0  0  0  0  0
  -27.4929  -27.1720   20.3062 C   0  0  0  0  0  0  0  0  0  0  0  0
  -24.3816   -9.5987   20.4759 C   0  0  0  0  0  0  0  0  0  0  0  0
  -22.3701   -8.9869   22.3095 C   0  0  0  0  0  0  0  0  0  0  0  0
  -23.2282  -10.3811   20.5328 C   0  0  0  0  0  0  0  0  0  0  0  0
  -27.7949  -14.9312   19.9284 C   0  0  0  0  0  0  0  0  0  0  0  0
  -30.9107  -25.0213   20.5224 C   0  0  0  0  0  0  0  0  0  0  0  0
  -29.9073  -23.4817   18.5860 C   0  0  0  0  0  0  0  0  0  0  0  0
  -29.2418  -16.5853   20.0021 C   0  0  0  0  0  0  0  0  0  0  0  0
  -30.2859  -14.3348   19.6960 C   0  0  0  0  0  0  0  0  0  0  0  0
  -22.0729  -27.0710   20.5852 C   0  0  0  0  0  0  0  0  0  0  0  0
  -22.0622  -25.4346   17.7844 C   0  0  0  0  0  0  0  0  0  0  0  0
  -23.8558  -24.0050   15.2573 C   0  0  0  0  0  0  0  0  0  0  0  0
  -27.4115  -21.7048   18.7427 C   0  0  0  0  0  0  0  0  0  0  0  0
  -17.4998  -28.1879   22.5592 C   0  0  0  0  0  0  0  0  0  0  0  0
  -23.5679  -28.5116   19.1549 C   0  0  0  0  0  0  0  0  0  0  0  0
  -24.2856  -25.6497   18.9572 C   0  0  0  0  0  0  0  0  0  0  0  0
  -18.0841  -27.0410   21.7386 C   0  0  0  0  0  0  0  0  0  0  0  0
  -25.7030  -19.9485   21.3259 C   0  0  0  0  0  0  0  0  0  0  0  0
  -19.3925  -26.5561   22.3550 C   0  0  0  0  0  0  0  0  0  0  0  0
  -26.2036  -18.5101   21.1832 C   0  0  0  0  0  0  0  0  0  0  0  0
  -25.5465  -20.6290   19.9678 C   0  0  0  0  0  0  0  0  0  0  0  0
  -27.2488  -19.1518   18.9708 C   0  0  0  0  0  0  0  0  0  0  0  0
  -20.4438  -27.6724   22.3670 C   0  0  1  0  0  0  0  0  0  0  0  0
  -22.5090  -27.4139   19.1888 C   0  0  1  0  0  0  0  0  0  0  0  0
  -27.4756  -18.4424   20.3168 C   0  0  2  0  0  0  0  0  0  0  0  0
  -23.5702  -22.7082   13.1279 C   0  0  0  0  0  0  0  0  0  0  0  0
  -32.4566  -25.0580   22.5488 C   0  0  0  0  0  0  0  0  0  0  0  0
  -32.4375  -26.9860   21.0414 C   0  0  0  0  0  0  0  0  0  0  0  0
  -28.3629  -23.3633   16.5298 C   0  0  0  0  0  0  0  0  0  0  0  0
  -21.4540  -22.9191   19.4007 C   0  0  0  0  0  0  0  0  0  0  0  0
  -22.1156  -21.5606   17.4045 C   0  0  0  0  0  0  0  0  0  0  0  0
  -20.1736  -23.1198   17.2619 C   0  0  0  0  0  0  0  0  0  0  0  0
  -29.4304  -25.4968   23.2101 C   0  0  0  0  0  0  0  0  0  0  0  0
  -30.8915  -27.4396   23.7051 C   0  0  0  0  0  0  0  0  0  0  0  0
  -25.1553  -26.1267   13.6546 C   0  0  0  0  0  0  0  0  0  0  0  0
  -29.4031  -27.4927   21.6861 C   0  0  0  0  0  0  0  0  0  1  0  0
  -22.5175  -24.0639   17.3453 C   0  0  1  0  0  0  0  0  0  0  0  0
  -23.7135  -24.0893   13.7483 C   0  0  2  0  0  0  0  0  0  0  0  0
  -31.4955  -25.9058   21.6586 C   0  0  0  0  0  0  0  0  0  0  0  0
  -29.3467  -22.6345   17.4978 C   0  0  1  0  0  0  0  0  0  0  0  0
  -21.5833  -22.9346   17.8645 C   0  0  0  0  0  0  0  0  0  0  0  0
  -30.3263  -26.5766   22.5457 C   0  0  0  0  0  0  0  0  0  0  0  0
  -30.4820  -22.0436   16.6198 C   0  0  0  0  0  0  0  0  0  0  0  0
  -30.5969  -25.6275   19.3603 N   0  0  0  0  0  0  0  0  0  0  0  0
  -30.2207  -22.8756   19.7483 N   0  0  0  0  0  0  0  0  0  0  0  0
  -27.0453  -16.0243   20.0937 N   0  0  0  0  0  0  0  0  0  0  0  0
  -27.9538  -17.0137   20.1350 N   0  0  0  0  0  0  0  0  0  0  0  0
  -22.9649  -26.1694   18.5661 N   0  0  0  0  0  0  0  0  0  0  0  0
  -26.7882  -20.5308   19.1967 N   0  0  0  0  0  0  0  0  0  0  0  0
  -30.2794  -17.4486   20.0211 N   0  0  0  0  0  0  0  0  0  0  0  0
  -30.0352  -12.9617   19.5698 N   0  0  0  0  0  0  0  0  0  0  0  0
  -21.0211  -27.8371   21.0502 N   0  0  0  0  0  0  0  0  0  0  0  0
  -22.6373  -24.1195   15.8924 N   0  0  0  0  0  0  0  0  0  0  0  0
  -28.5873  -21.5227   18.0250 N   0  0  0  0  0  0  0  0  0  0  0  0
  -24.9080  -24.7510   13.1515 N   0  3  0  0  0  0  0  0  0  0  0  0
  -31.4704  -14.7471   19.6749 O   0  0  0  0  0  0  0  0  0  0  0  0
  -22.6471  -26.1765   21.1950 O   0  0  0  0  0  0  0  0  0  0  0  0
  -20.9497  -25.8413   17.4402 O   0  0  0  0  0  0  0  0  0  0  0  0
  -24.9391  -23.8492   15.8165 O   0  0  0  0  0  0  0  0  0  0  0  0
  -26.9569  -22.8321   18.9654 O   0  0  0  0  0  0  0  0  0  0  0  0
  -25.3806   -9.9006   19.5658 O   0  0  0  0  0  0  0  0  0  0  0  0
  -28.7360  -26.7511   20.6656 O   0  0  0  0  0  0  0  0  0  1  0  0
  -21.4036   -8.6921   23.1889 F   0  0  0  0  0  0  0  0  0  0  0  0
  -23.0803  -11.4272   19.7084 F   0  0  0  0  0  0  0  0  0  0  0  0
  -31.3212  -21.2765   17.3507 F   0  0  0  0  0  0  0  0  0  0  0  0
  -31.2171  -23.0326   16.0617 F   0  0  0  0  0  0  0  0  0  0  0  0
  -30.0162  -21.2726   15.6092 F   0  0  0  0  0  0  0  0  0  0  0  0
  1  2  1  0  0  0  0
  1  5  2  0  0  0  0
  2  6  2  0  0  0  0
  3  8  2  0  0  0  0
  3 17  1  0  0  0  0
  4  9  1  0  0  0  0
  4 17  2  0  0  0  0
  5 19  1  0  0  0  0
  6 21  1  0  0  0  0
  7 10  2  0  0  0  0
  7 20  1  0  0  0  0
  8 23  1  0  0  0  0
  9 23  2  0  0  0  0
 10 24  1  0  0  0  0
 11 12  2  0  0  0  0
 11 25  1  0  0  0  0
 12 26  1  0  0  0  0
 13 22  1  0  0  0  0
 13 24  2  0  0  0  0
 14 26  2  0  0  0  0
 14 27  1  0  0  0  0
 15 29  1  0  0  0  0
 15 68  2  0  0  0  0
 16 30  2  0  0  0  0
 16 67  1  0  0  0  0
 17 28  1  0  0  0  0
 18 28  1  0  0  0  0
 18 31  2  0  0  0  0
 18 32  1  0  0  0  0
 19 21  2  0  0  0  0
 19 37  1  0  0  0  0
 20 22  2  0  0  0  0
 20 38  1  0  0  0  0
 21 46  1  0  0  0  0
 22 39  1  0  0  0  0
 23 84  1  0  0  0  0
 24 85  1  0  0  0  0
 25 27  2  0  0  0  0
 25 84  1  0  0  0  0
 26 86  1  0  0  0  0
 27 87  1  0  0  0  0
 28 69  2  0  0  0  0
 29 62  1  0  0  0  0
 29 67  2  0  0  0  0
 30 63  1  0  0  0  0
 30 68  1  0  0  0  0
 31 70  1  0  0  0  0
 31 73  1  0  0  0  0
 32 74  1  0  0  0  0
 32 79  2  0  0  0  0
 33 47  1  0  0  0  0
 33 75  1  0  0  0  0
 33 80  2  0  0  0  0
 34 60  1  0  0  0  0
 34 71  1  0  0  0  0
 34 81  2  0  0  0  0
 35 61  1  0  0  0  0
 35 76  1  0  0  0  0
 35 82  2  0  0  0  0
 36 72  1  0  0  0  0
 36 77  1  0  0  0  0
 36 83  2  0  0  0  0
 37 40  1  0  0  0  0
 38 47  1  0  0  0  0
 39 71  1  0  0  0  0
 40 42  1  0  0  0  0
 41 43  1  0  0  0  0
 41 44  1  0  0  0  0
 42 46  1  0  0  0  0
 43 48  1  0  0  0  0
 44 72  1  0  0  0  0
 45 48  1  0  0  0  0
 45 72  1  0  0  0  0
 46 75  1  0  0  0  0
 47 71  1  0  0  0  0
 48 70  1  0  0  0  0
 49 61  1  0  0  0  0
 50 62  1  0  0  0  0
 51 62  1  0  0  0  0
 52 63  1  0  0  0  0
 53 64  1  0  0  0  0
 54 64  1  0  0  0  0
 55 64  1  0  0  0  0
 56 65  1  0  0  0  0
 57 65  1  0  0  0  0
 58 78  1  0  0  0  0
 59 65  1  0  0  0  0
 59 85  1  0  0  0  0
 60 64  1  0  0  0  0
 60 76  1  0  0  0  0
 61 78  1  0  0  0  0
 62 65  1  0  0  0  0
 63 66  1  0  0  0  0
 63 77  1  0  0  0  0
 66 88  1  0  0  0  0
 66 89  1  0  0  0  0
 66 90  1  0  0  0  0
 69 70  1  0  0  0  0
M  CHG  1  78   1
M  ISO  4  36 100  59 101  77 100  85 101
M  END
> <Batch ID>
0065

> <Smiles>
CNC(C)C(=O)NC(C(=O)N1Cc2cc([101O:1][101CH2:1]C(C)(C)C(C)(C)c3cnc(C(C)([100NH:0][100C:0](=O)N4CCCC(n5nc(-c6ccc(Oc7ccc(F)cc7F)cc6)c(C(N)=O)c5N)C4)C(F)(F)F)cn3)ccc2CC1C(=O)NC1CCCc2ccccc21)C(C)(C)C

> <Shape>
0.272

> <Color>
0.111

> <Negative vol penalty>
0.000

$$$$

  -OEChem-04052318073D

 93101  0     1  0  0  0  0  0999 V2000
  -29.2007  -32.9941   23.5921 C   0  0  0  0  0  0  0  0  0  0  0  0
  -28.8766  -31.7699   23.0160 C   0  0  0  0  0  0  0  0  0  0  0  0
  -23.2969  -12.6119   19.4427 C   0  0  0  0  0  0  0  0  0  0  0  0
  -25.1446  -11.8448   20.7972 C   0  0  0  0  0  0  0  0  0  0  0  0
  -28.2968  -33.6212   24.4486 C   0  0  0  0  0  0  0  0  0  0  0  0
  -27.6488  -31.1717   23.2970 C   0  0  0  0  0  0  0  0  0  0  0  0
  -25.3828  -29.3474   19.1519 C   0  0  0  0  0  0  0  0  0  0  0  0
  -23.0144  -11.2944   19.0820 C   0  0  0  0  0  0  0  0  0  0  0  0
  -24.8621  -10.5273   20.4366 C   0  0  0  0  0  0  0  0  0  0  0  0
  -25.8518  -28.1333   18.6520 C   0  0  0  0  0  0  0  0  0  0  0  0
  -21.5838   -8.1027   18.0913 C   0  0  0  0  0  0  0  0  0  0  0  0
  -20.2504   -7.6944   18.1194 C   0  0  0  0  0  0  0  0  0  0  0  0
  -24.0092  -26.9923   19.7113 C   0  0  0  0  0  0  0  0  0  0  0  0
  -20.1447   -8.2019   20.4792 C   0  0  0  0  0  0  0  0  0  0  0  0
  -30.0511  -21.5497   18.0656 C   0  0  0  0  0  0  0  0  0  0  0  0
  -24.3621  -12.8871   20.3003 C   0  0  0  0  0  0  0  0  0  0  0  0
  -24.1410  -14.9567   21.7753 C   0  0  0  0  0  0  0  0  0  0  0  0
  -27.0533  -33.0350   24.7326 C   0  0  0  0  0  0  0  0  0  0  0  0
  -24.2276  -29.3917   19.9457 C   0  0  0  0  0  0  0  0  0  0  0  0
  -26.7279  -31.7910   24.1592 C   0  0  0  0  0  0  0  0  0  0  0  0
  -23.5262  -28.2085   20.2180 C   0  0  0  0  0  0  0  0  0  0  0  0
  -23.7969  -10.2522   19.5789 C   0  0  0  0  0  0  0  0  0  0  0  0
  -25.1666  -26.9551   18.9341 C   0  0  0  0  0  0  0  0  0  0  0  0
  -22.1977   -8.5606   19.2571 C   0  0  0  0  0  0  0  0  0  0  0  0
  -19.5308   -7.7440   19.3133 C   0  0  0  0  0  0  0  0  0  0  0  0
  -21.4782   -8.6102   20.4510 C   0  0  0  0  0  0  0  0  0  0  0  0
  -24.6547  -14.2478   20.6728 C   0  0  0  0  0  0  0  0  0  0  0  0
  -30.0201  -20.3845   18.8550 C   0  0  0  0  0  0  0  0  0  0  0  0
  -29.3857  -22.4895   18.8144 C   0  0  0  0  0  0  0  0  0  0  0  0
  -24.7224  -16.1979   21.6866 C   0  0  0  0  0  0  0  0  0  0  0  0
  -23.2207  -14.5311   22.7890 C   0  0  0  0  0  0  0  0  0  0  0  0
  -23.5916  -30.2698   22.9337 C   0  0  0  0  0  0  0  0  0  0  0  0
  -20.5233  -29.7433   22.0222 C   0  0  0  0  0  0  0  0  0  0  0  0
  -29.8105  -17.9425   19.1681 C   0  0  0  0  0  0  0  0  0  0  0  0
  -18.3586  -28.1532   19.9168 C   0  0  0  0  0  0  0  0  0  0  0  0
  -26.1285  -33.7280   25.7017 C   0  0  0  0  0  0  0  0  0  0  0  0
  -23.7198  -30.7127   20.4551 C   0  0  0  0  0  0  0  0  0  0  0  0
  -22.2696  -28.2047   21.0483 C   0  0  0  0  0  0  0  0  0  0  0  0
  -24.6942  -33.2078   25.6528 C   0  0  0  0  0  0  0  0  0  0  0  0
  -26.4981  -19.2913   18.5083 C   0  0  0  0  0  0  0  0  0  0  0  0
  -24.6791  -31.6825   25.6546 C   0  0  0  0  0  0  0  0  0  0  0  0
  -25.6016  -18.1890   19.0707 C   0  0  0  0  0  0  0  0  0  0  0  0
  -27.7634  -18.7177   17.8758 C   0  0  0  0  0  0  0  0  0  0  0  0
  -27.6575  -16.7384   19.3575 C   0  0  0  0  0  0  0  0  0  0  0  0
  -25.3957  -31.1223   24.4200 C   0  0  1  0  0  0  0  0  0  0  0  0
  -22.8212  -30.5751   21.6803 C   0  0  1  0  0  0  0  0  0  0  0  0
  -26.3846  -17.2773   20.0316 C   0  0  2  0  0  0  0  0  0  0  0  0
  -27.3892  -21.4054   21.7569 C   0  0  0  0  0  0  0  0  0  0  0  0
  -15.9087  -27.8912   19.4405 C   0  0  0  0  0  0  0  0  0  0  0  0
  -26.7216  -23.2872   17.4725 C   0  0  0  0  0  0  0  0  0  0  0  0
  -32.0583  -18.9335   19.0361 C   0  0  0  0  0  0  0  0  0  0  0  0
  -30.6128  -18.6634   17.0183 C   0  0  0  0  0  0  0  0  0  0  0  0
  -29.6087  -24.4403   17.1481 C   0  0  0  0  0  0  0  0  0  0  0  0
  -20.2522  -27.9032   24.4409 C   0  0  0  0  0  0  0  0  0  0  0  0
  -18.1777  -26.9605   23.4037 C   0  0  0  0  0  0  0  0  0  0  0  0
  -18.2740  -29.3750   24.0230 C   0  0  0  0  0  0  0  0  0  0  0  0
  -31.4868  -25.8590   21.2111 C   0  0  0  0  0  0  0  0  0  0  0  0
  -31.8004  -23.7084   20.0171 C   0  0  0  0  0  0  0  0  0  0  0  0
  -18.6523  -29.2609   17.1881 C   0  0  0  0  0  0  0  0  0  0  0  0
  -32.5580  -28.0503   17.6962 C   0  0  0  0  0  0  0  0  0  0  0  0
  -30.4470  -27.8593   19.0031 C   0  0  0  0  0  0  0  0  0  0  0  0
  -29.6686  -24.9490   19.6265 C   0  0  0  0  0  0  0  0  0  0  0  0
  -28.2823  -22.4249   21.0711 C   0  0  0  0  0  0  0  0  0  0  0  0
  -31.9067  -25.8651   18.6977 C   0  0  0  0  0  0  0  0  0  0  0  0
  -27.0331  -25.6473   18.2549 C   0  0  0  0  0  0  0  0  0  1  0  0
  -19.5949  -28.5529   22.0302 C   0  0  1  0  0  0  0  0  0  0  0  0
  -17.1766  -28.6645   19.1131 C   0  0  2  0  0  0  0  0  0  0  0  0
  -27.4755  -24.1822   18.4770 C   0  0  2  0  0  0  0  0  0  0  0  0
  -30.5890  -19.0656   18.5306 C   0  0  0  0  0  0  0  0  0  0  0  0
  -29.0654  -23.9765   18.5284 C   0  0  2  0  0  0  0  0  0  0  0  0
  -19.0994  -28.1974   23.4604 C   0  0  0  0  0  0  0  0  0  0  0  0
  -31.2145  -25.1404   19.8709 C   0  0  0  0  0  0  0  0  0  0  0  0
  -25.4975  -14.9781   19.9376 N   0  0  0  0  0  0  0  0  0  0  0  0
  -29.3854  -20.5651   20.0162 N   0  0  0  0  0  0  0  0  0  0  0  0
  -29.0115  -21.8548   19.9621 N   0  0  0  0  0  0  0  0  0  0  0  0
  -25.5178  -16.1587   20.5793 N   0  0  0  0  0  0  0  0  0  0  0  0
  -21.8167  -29.5206   21.5289 N   0  0  0  0  0  0  0  0  0  0  0  0
  -28.4657  -17.8335   18.8135 N   0  0  0  0  0  0  0  0  0  0  0  0
  -24.6257  -17.3081   22.4485 N   0  0  0  0  0  0  0  0  0  0  0  0
  -22.7198  -13.2234   22.7303 N   0  0  0  0  0  0  0  0  0  0  0  0
  -24.5437  -31.2186   23.2541 N   0  0  0  0  0  0  0  0  0  0  0  0
  -18.5257  -28.8628   21.0872 N   0  0  0  0  0  0  0  0  0  0  0  0
  -17.4456  -28.5298   17.6535 N   0  3  0  0  0  0  0  0  0  0  0  0
  -31.8538  -27.3449   18.8279 N   0  3  0  0  0  0  0  0  0  0  0  0
  -22.8406  -15.2934   23.7099 O   0  0  0  0  0  0  0  0  0  0  0  0
  -23.3396  -29.2497   23.5642 O   0  0  0  0  0  0  0  0  0  0  0  0
  -20.1137  -30.8324   22.4317 O   0  0  0  0  0  0  0  0  0  0  0  0
  -30.3816  -17.1875   19.9593 O   0  0  0  0  0  0  0  0  0  0  0  0
  -19.0610  -27.2155   19.5455 O   0  0  0  0  0  0  0  0  0  0  0  0
  -23.5214   -8.9664   19.2273 O   0  0  0  0  0  0  0  0  0  0  0  0
  -25.6252  -25.7617   18.4451 O   0  0  0  0  0  0  0  0  0  1  0  0
  -18.2499   -7.3532   19.3399 F   0  0  0  0  0  0  0  0  0  0  0  0
  -22.0623   -9.0503   21.5740 F   0  0  0  0  0  0  0  0  0  0  0  0
  1  2  1  0  0  0  0
  1  5  2  0  0  0  0
  2  6  2  0  0  0  0
  3  8  2  0  0  0  0
  3 16  1  0  0  0  0
  4  9  1  0  0  0  0
  4 16  2  0  0  0  0
  5 18  1  0  0  0  0
  6 20  1  0  0  0  0
  7 10  2  0  0  0  0
  7 19  1  0  0  0  0
  8 22  1  0  0  0  0
  9 22  2  0  0  0  0
 10 23  1  0  0  0  0
 11 12  2  0  0  0  0
 11 24  1  0  0  0  0
 12 25  1  0  0  0  0
 13 21  1  0  0  0  0
 13 23  2  0  0  0  0
 14 25  2  0  0  0  0
 14 26  1  0  0  0  0
 15 28  1  0  0  0  0
 15 29  2  0  0  0  0
 16 27  1  0  0  0  0
 17 27  1  0  0  0  0
 17 30  2  0  0  0  0
 17 31  1  0  0  0  0
 18 20  2  0  0  0  0
 18 36  1  0  0  0  0
 19 21  2  0  0  0  0
 19 37  1  0  0  0  0
 20 45  1  0  0  0  0
 21 38  1  0  0  0  0
 22 90  1  0  0  0  0
 23 91  1  0  0  0  0
 24 26  2  0  0  0  0
 24 90  1  0  0  0  0
 25 92  1  0  0  0  0
 26 93  1  0  0  0  0
 27 73  2  0  0  0  0
 28 69  1  0  0  0  0
 28 74  2  0  0  0  0
 29 70  1  0  0  0  0
 29 75  1  0  0  0  0
 30 76  1  0  0  0  0
 30 79  1  0  0  0  0
 31 80  1  0  0  0  0
 31 85  2  0  0  0  0
 32 46  1  0  0  0  0
 32 81  1  0  0  0  0
 32 86  2  0  0  0  0
 33 66  1  0  0  0  0
 33 77  1  0  0  0  0
 33 87  2  0  0  0  0
 34 69  1  0  0  0  0
 34 78  1  0  0  0  0
 34 88  2  0  0  0  0
 35 67  1  0  0  0  0
 35 82  1  0  0  0  0
 35 89  2  0  0  0  0
 36 39  1  0  0  0  0
 37 46  1  0  0  0  0
 38 77  1  0  0  0  0
 39 41  1  0  0  0  0
 40 42  1  0  0  0  0
 40 43  1  0  0  0  0
 41 45  1  0  0  0  0
 42 47  1  0  0  0  0
 43 78  1  0  0  0  0
 44 47  1  0  0  0  0
 44 78  1  0  0  0  0
 45 81  1  0  0  0  0
 46 77  1  0  0  0  0
 47 76  1  0  0  0  0
 48 63  1  0  0  0  0
 49 67  1  0  0  0  0
 50 68  1  0  0  0  0
 51 69  1  0  0  0  0
 52 69  1  0  0  0  0
 53 70  1  0  0  0  0
 54 71  1  0  0  0  0
 55 71  1  0  0  0  0
 56 71  1  0  0  0  0
 57 72  1  0  0  0  0
 58 72  1  0  0  0  0
 59 83  1  0  0  0  0
 60 84  1  0  0  0  0
 61 84  1  0  0  0  0
 62 70  1  0  0  0  0
 62 72  1  0  0  0  0
 63 75  1  0  0  0  0
 64 72  1  0  0  0  0
 64 84  1  0  0  0  0
 65 68  1  0  0  0  0
 65 91  1  0  0  0  0
 66 71  1  0  0  0  0
 66 82  1  0  0  0  0
 67 83  1  0  0  0  0
 68 70  1  0  0  0  0
 73 76  1  0  0  0  0
 74 75  1  0  0  0  0
M  CHG  2  83   1  84   1
M  ISO  4  34 100  65 101  69 100  91 101
M  END
> <Batch ID>
0065

> <Smiles>
CCn1nc([100C:0](C)(C)[100C:0](=O)N2CCCC(n3nc(-c4ccc(Oc5ccc(F)cc5F)cc4)c(C(N)=O)c3N)C2)cc1C(C)(CC(C)(C)CN(C)C)C(C)[101CH2:1][101O:1]c1ccc2c(c1)CN(C(=O)C(NC(=O)C(C)NC)C(C)(C)C)C(C(=O)NC1CCCc3ccccc31)C2

> <Shape>
0.315

> <Color>
0.066

> <Negative vol penalty>
0.000

$$$$

  -OEChem-04052318073D

 85 93  0     1  0  0  0  0  0999 V2000
  -19.7771  -33.9427   21.4255 C   0  0  0  0  0  0  0  0  0  0  0  0
  -20.9545  -33.4271   20.8933 C   0  0  0  0  0  0  0  0  0  0  0  0
  -25.0856  -16.5936   21.5015 C   0  0  0  0  0  0  0  0  0  0  0  0
  -25.2307  -16.0441   19.1533 C   0  0  0  0  0  0  0  0  0  0  0  0
  -19.2485  -33.4036   22.5977 C   0  0  0  0  0  0  0  0  0  0  0  0
  -21.6047  -32.3727   21.5336 C   0  0  0  0  0  0  0  0  0  0  0  0
  -24.7071  -27.8067   18.8817 C   0  0  0  0  0  0  0  0  0  0  0  0
  -23.9028  -15.8609   21.5999 C   0  0  0  0  0  0  0  0  0  0  0  0
  -24.0478  -15.3114   19.2516 C   0  0  0  0  0  0  0  0  0  0  0  0
  -26.0682  -27.6025   18.6595 C   0  0  0  0  0  0  0  0  0  0  0  0
  -22.9980  -12.6120   21.8432 C   0  0  0  0  0  0  0  0  0  0  0  0
  -22.8567  -11.7525   22.9325 C   0  0  0  0  0  0  0  0  0  0  0  0
  -26.1912  -26.2754   20.6702 C   0  0  0  0  0  0  0  0  0  0  0  0
  -20.8963  -12.9736   23.6417 C   0  0  0  0  0  0  0  0  0  0  0  0
  -31.4520  -24.2933   19.5732 C   0  0  0  0  0  0  0  0  0  0  0  0
  -25.7495  -16.6852   20.2781 C   0  0  0  0  0  0  0  0  0  0  0  0
  -28.2831  -16.9693   20.3673 C   0  0  0  0  0  0  0  0  0  0  0  0
  -19.8874  -32.3357   23.2474 C   0  0  0  0  0  0  0  0  0  0  0  0
  -24.0791  -27.2549   20.0076 C   0  0  0  0  0  0  0  0  0  0  0  0
  -21.0849  -31.8197   22.7163 C   0  0  0  0  0  0  0  0  0  0  0  0
  -24.8215  -26.4719   20.9031 C   0  0  0  0  0  0  0  0  0  0  0  0
  -23.3839  -15.2198   20.4750 C   0  0  0  0  0  0  0  0  0  0  0  0
  -26.8111  -26.8392   19.5554 C   0  0  0  0  0  0  0  0  0  0  0  0
  -22.0886  -13.6525   21.6531 C   0  0  0  0  0  0  0  0  0  0  0  0
  -21.8058  -11.9332   23.8318 C   0  0  0  0  0  0  0  0  0  0  0  0
  -21.0377  -13.8332   22.5524 C   0  0  0  0  0  0  0  0  0  0  0  0
  -26.9711  -17.4424   20.1757 C   0  0  0  0  0  0  0  0  0  0  0  0
  -32.3663  -24.1695   18.5504 C   0  0  0  0  0  0  0  0  0  0  0  0
  -31.0385  -26.4521   18.9425 C   0  0  0  0  0  0  0  0  0  0  0  0
  -31.9534  -26.3288   17.9202 C   0  0  0  0  0  0  0  0  0  0  0  0
  -29.0787  -18.0692   20.1582 C   0  0  0  0  0  0  0  0  0  0  0  0
  -28.7417  -15.6533   20.7040 C   0  0  0  0  0  0  0  0  0  0  0  0
  -22.5710  -28.4412   22.5417 C   0  0  0  0  0  0  0  0  0  0  0  0
  -21.9482  -25.3159   23.1473 C   0  0  0  0  0  0  0  0  0  0  0  0
  -22.8330  -22.0485   22.7134 C   0  0  0  0  0  0  0  0  0  0  0  0
  -30.1381  -22.5061   16.7657 C   0  0  0  0  0  0  0  0  0  0  0  0
  -19.3035  -31.8172   24.5377 C   0  0  0  0  0  0  0  0  0  0  0  0
  -22.6043  -27.4622   20.2188 C   0  0  0  0  0  0  0  0  0  0  0  0
  -24.1903  -25.8406   22.1161 C   0  0  0  0  0  0  0  0  0  0  0  0
  -19.8525  -30.4539   24.9503 C   0  0  0  0  0  0  0  0  0  0  0  0
  -27.9095  -22.9586   19.6864 C   0  0  0  0  0  0  0  0  0  0  0  0
  -21.3722  -30.4289   24.8208 C   0  0  0  0  0  0  0  0  0  0  0  0
  -27.5240  -21.5224   20.0369 C   0  0  0  0  0  0  0  0  0  0  0  0
  -28.2255  -23.1148   18.2020 C   0  0  0  0  0  0  0  0  0  0  0  0
  -28.8765  -20.7340   18.0546 C   0  0  0  0  0  0  0  0  0  0  0  0
  -21.8060  -30.6599   23.3682 C   0  0  1  0  0  0  0  0  0  0  0  0
  -22.1775  -27.2808   21.6721 C   0  0  1  0  0  0  0  0  0  0  0  0
  -28.5971  -20.5323   19.5515 C   0  0  2  0  0  0  0  0  0  0  0  0
  -33.0302  -27.0185   15.7635 C   0  0  0  0  0  0  0  0  0  0  0  0
  -33.9991  -22.5367   19.5464 C   0  0  0  0  0  0  0  0  0  0  0  0
  -22.1543  -19.7211   23.3616 C   0  0  0  0  0  0  0  0  0  0  0  0
  -23.1268  -25.7492   25.9281 C   0  0  0  0  0  0  0  0  0  0  0  0
  -23.2997  -23.2629   26.1661 C   0  0  0  0  0  0  0  0  0  0  0  0
  -21.0654  -24.3341   25.8777 C   0  0  0  0  0  0  0  0  0  0  0  0
  -32.1370  -21.7053   15.5646 C   0  0  0  0  0  0  0  0  0  0  0  0
  -22.3719  -21.2733   19.8947 C   0  0  0  0  0  0  0  0  0  0  0  0
  -30.2833  -27.7387   19.1719 C   0  0  0  0  0  0  0  0  0  0  0  0
  -32.2400  -27.4602   16.9930 C   0  0  0  0  0  0  0  0  0  0  0  0
  -32.1713  -21.6894   18.0313 C   0  0  0  0  0  0  0  0  0  0  0  0
  -28.8501  -27.6697   18.6560 C   0  0  0  0  0  0  0  0  0  1  0  0
  -33.0989  -22.8904   18.3428 C   0  0  1  0  0  0  0  0  0  0  0  0
  -22.6462  -24.2146   23.9082 C   0  0  1  0  0  0  0  0  0  0  0  0
  -22.0185  -20.8272   22.3267 C   0  0  2  0  0  0  0  0  0  0  0  0
  -22.5471  -24.4036   25.4483 C   0  0  0  0  0  0  0  0  0  0  0  0
  -30.7716  -25.4368   19.7876 N   0  0  0  0  0  0  0  0  0  0  0  0
  -26.9312  -18.7417   19.8687 N   0  0  0  0  0  0  0  0  0  0  0  0
  -32.6335  -25.1851   17.7056 N   0  0  0  0  0  0  0  0  0  0  0  0
  -28.2280  -19.0944   19.8659 N   0  0  0  0  0  0  0  0  0  0  0  0
  -22.7468  -26.0776   22.2824 N   0  0  0  0  0  0  0  0  0  0  0  0
  -29.2160  -22.1337   17.7576 N   0  0  0  0  0  0  0  0  0  0  0  0
  -30.4159  -18.2498   20.1978 N   0  0  0  0  0  0  0  0  0  0  0  0
  -27.7904  -14.6397   20.8832 N   0  0  0  0  0  0  0  0  0  0  0  0
  -21.6304  -29.4523   22.5902 N   0  0  0  0  0  0  0  0  0  0  0  0
  -22.0804  -22.9607   23.4224 N   0  0  0  0  0  0  0  0  0  0  0  0
  -31.4019  -21.8980   16.8066 N   0  0  0  0  0  0  0  0  0  0  0  0
  -22.4729  -20.2973   21.0100 N   0  3  0  0  0  0  0  0  0  0  0  0
  -29.9579  -15.3878   20.8581 O   0  0  0  0  0  0  0  0  0  0  0  0
  -23.6476  -28.4201   23.1267 O   0  0  0  0  0  0  0  0  0  0  0  0
  -20.7376  -25.4891   23.3088 O   0  0  0  0  0  0  0  0  0  0  0  0
  -24.0193  -22.1784   22.4195 O   0  0  0  0  0  0  0  0  0  0  0  0
  -29.8514  -23.3419   15.8990 O   0  0  0  0  0  0  0  0  0  0  0  0
  -22.2298  -14.5045   20.5707 O   0  0  0  0  0  0  0  0  0  0  0  0
  -28.1400  -26.6388   19.3412 O   0  0  0  0  0  0  0  0  0  1  0  0
  -21.6693  -11.1068   24.8770 F   0  0  0  0  0  0  0  0  0  0  0  0
  -20.1602  -14.8303   22.3743 F   0  0  0  0  0  0  0  0  0  0  0  0
  1  2  1  0  0  0  0
  1  5  2  0  0  0  0
  2  6  2  0  0  0  0
  3  8  2  0  0  0  0
  3 16  1  0  0  0  0
  4  9  1  0  0  0  0
  4 16  2  0  0  0  0
  5 18  1  0  0  0  0
  6 20  1  0  0  0  0
  7 10  2  0  0  0  0
  7 19  1  0  0  0  0
  8 22  1  0  0  0  0
  9 22  2  0  0  0  0
 10 23  1  0  0  0  0
 11 12  2  0  0  0  0
 11 24  1  0  0  0  0
 12 25  1  0  0  0  0
 13 21  1  0  0  0  0
 13 23  2  0  0  0  0
 14 25  2  0  0  0  0
 14 26  1  0  0  0  0
 15 28  1  0  0  0  0
 15 65  2  0  0  0  0
 16 27  1  0  0  0  0
 17 27  1  0  0  0  0
 17 31  2  0  0  0  0
 17 32  1  0  0  0  0
 18 20  2  0  0  0  0
 18 37  1  0  0  0  0
 19 21  2  0  0  0  0
 19 38  1  0  0  0  0
 20 46  1  0  0  0  0
 21 39  1  0  0  0  0
 22 82  1  0  0  0  0
 23 83  1  0  0  0  0
 24 26  2  0  0  0  0
 24 82  1  0  0  0  0
 25 84  1  0  0  0  0
 26 85  1  0  0  0  0
 27 66  2  0  0  0  0
 28 61  1  0  0  0  0
 28 67  2  0  0  0  0
 29 30  2  0  0  0  0
 29 57  1  0  0  0  0
 29 65  1  0  0  0  0
 30 58  1  0  0  0  0
 30 67  1  0  0  0  0
 31 68  1  0  0  0  0
 31 71  1  0  0  0  0
 32 72  1  0  0  0  0
 32 77  2  0  0  0  0
 33 47  1  0  0  0  0
 33 73  1  0  0  0  0
 33 78  2  0  0  0  0
 34 62  1  0  0  0  0
 34 69  1  0  0  0  0
 34 79  2  0  0  0  0
 35 63  1  0  0  0  0
 35 74  1  0  0  0  0
 35 80  2  0  0  0  0
 36 70  1  0  0  0  0
 36 75  1  0  0  0  0
 36 81  2  0  0  0  0
 37 40  1  0  0  0  0
 38 47  1  0  0  0  0
 39 69  1  0  0  0  0
 40 42  1  0  0  0  0
 41 43  1  0  0  0  0
 41 44  1  0  0  0  0
 42 46  1  0  0  0  0
 43 48  1  0  0  0  0
 44 70  1  0  0  0  0
 45 48  1  0  0  0  0
 45 70  1  0  0  0  0
 46 73  1  0  0  0  0
 47 69  1  0  0  0  0
 48 68  1  0  0  0  0
 49 58  1  0  0  0  0
 50 61  1  0  0  0  0
 51 63  1  0  0  0  0
 52 64  1  0  0  0  0
 53 64  1  0  0  0  0
 54 64  1  0  0  0  0
 55 75  1  0  0  0  0
 56 76  1  0  0  0  0
 57 60  1  0  0  0  0
 59 61  1  0  0  0  0
 59 75  1  0  0  0  0
 60 83  1  0  0  0  0
 62 64  1  0  0  0  0
 62 74  1  0  0  0  0
 63 76  1  0  0  0  0
 66 68  1  0  0  0  0
M  CHG  1  76   1
M  ISO  4  36 100  60 101  75 100  83 101
M  END
> <Batch ID>
0065

> <Smiles>
CCc1nc(C(C)C[100N:0](C)[100C:0](=O)N2CCCC(n3nc(-c4ccc(Oc5ccc(F)cc5F)cc4)c(C(N)=O)c3N)C2)cnc1C[101CH2:1][101O:1]c1ccc2c(c1)CN(C(=O)C(NC(=O)C(C)NC)C(C)(C)C)C(C(=O)NC1CCCc3ccccc31)C2

> <Shape>
0.187

> <Color>
0.095

> <Negative vol penalty>
0.000

$$$$

  -OEChem-04052318073D

 83 91  0     1  0  0  0  0  0999 V2000
  -30.1840  -11.7510   19.3621 C   0  0  0  0  0  0  0  0  0  0  0  0
  -30.6852  -13.0191   19.6379 C   0  0  0  0  0  0  0  0  0  0  0  0
  -20.7726  -25.9638   21.3139 C   0  0  0  0  0  0  0  0  0  0  0  0
  -22.6485  -27.4217   20.8752 C   0  0  0  0  0  0  0  0  0  0  0  0
  -28.8071  -11.5313   19.3639 C   0  0  0  0  0  0  0  0  0  0  0  0
  -29.8097  -14.0686   19.9147 C   0  0  0  0  0  0  0  0  0  0  0  0
  -30.7357  -18.7063   23.8057 C   0  0  0  0  0  0  0  0  0  0  0  0
  -20.3024  -26.8582   22.2754 C   0  0  0  0  0  0  0  0  0  0  0  0
  -22.1783  -28.3161   21.8367 C   0  0  0  0  0  0  0  0  0  0  0  0
  -31.1573  -20.0214   23.6143 C   0  0  0  0  0  0  0  0  0  0  0  0
  -18.6167  -29.7887   22.3388 C   0  0  0  0  0  0  0  0  0  0  0  0
  -17.2555  -30.0929   22.3304 C   0  0  0  0  0  0  0  0  0  0  0  0
  -28.8572  -20.7476   23.5811 C   0  0  0  0  0  0  0  0  0  0  0  0
  -17.0503  -29.2365   24.5802 C   0  0  0  0  0  0  0  0  0  0  0  0
  -21.9457  -26.2455   20.6138 C   0  0  0  0  0  0  0  0  0  0  0  0
  -22.1219  -25.3082   18.2478 C   0  0  0  0  0  0  0  0  0  0  0  0
  -27.9147  -12.5764   19.6504 C   0  0  0  0  0  0  0  0  0  0  0  0
  -29.3690  -18.4001   23.8755 C   0  0  0  0  0  0  0  0  0  0  0  0
  -28.4196  -13.8630   19.9191 C   0  0  0  0  0  0  0  0  0  0  0  0
  -28.4208  -19.4283   23.7760 C   0  0  0  0  0  0  0  0  0  0  0  0
  -21.0052  -28.0344   22.5368 C   0  0  0  0  0  0  0  0  0  0  0  0
  -30.2180  -21.0419   23.4991 C   0  0  0  0  0  0  0  0  0  0  0  0
  -19.1948  -29.2082   23.4678 C   0  0  0  0  0  0  0  0  0  0  0  0
  -16.4723  -29.8169   23.4511 C   0  0  0  0  0  0  0  0  0  0  0  0
  -18.4115  -28.9322   24.5885 C   0  0  0  0  0  0  0  0  0  0  0  0
  -22.4322  -25.3217   19.6208 C   0  0  0  0  0  0  0  0  0  0  0  0
  -22.8318  -24.2450   17.7457 C   0  0  0  0  0  0  0  0  0  0  0  0
  -28.9218  -26.2361   21.6151 C   0  0  0  0  0  0  0  0  0  0  0  0
  -29.5291  -25.2822   19.7630 C   0  0  0  0  0  0  0  0  0  0  0  0
  -21.2682  -26.1789   17.4936 C   0  0  0  0  0  0  0  0  0  0  0  0
  -27.3798  -16.6142   22.1557 C   0  0  0  0  0  0  0  0  0  0  0  0
  -25.2844  -17.3677   24.5145 C   0  0  0  0  0  0  0  0  0  0  0  0
  -24.3743  -19.5182   27.0032 C   0  0  0  0  0  0  0  0  0  0  0  0
  -27.8095  -21.4492   19.5505 C   0  0  0  0  0  0  0  0  0  0  0  0
  -26.4329  -12.3015   19.5942 C   0  0  0  0  0  0  0  0  0  0  0  0
  -28.9312  -16.9801   24.1090 C   0  0  0  0  0  0  0  0  0  0  0  0
  -26.9424  -19.1549   23.8644 C   0  0  0  0  0  0  0  0  0  0  0  0
  -25.5873  -13.3806   20.2657 C   0  0  0  0  0  0  0  0  0  0  0  0
  -24.6054  -19.9890   19.0230 C   0  0  0  0  0  0  0  0  0  0  0  0
  -26.0492  -14.7680   19.8313 C   0  0  0  0  0  0  0  0  0  0  0  0
  -23.6571  -21.1889   18.9925 C   0  0  0  0  0  0  0  0  0  0  0  0
  -25.7335  -20.1867   20.0331 C   0  0  0  0  0  0  0  0  0  0  0  0
  -25.5506  -22.6368   19.8394 C   0  0  0  0  0  0  0  0  0  0  0  0
  -27.5029  -15.0211   20.2484 C   0  0  1  0  0  0  0  0  0  0  0  0
  -27.5010  -16.7127   23.6501 C   0  0  1  0  0  0  0  0  0  0  0  0
  -24.4281  -22.5080   18.7955 C   0  0  2  0  0  0  0  0  0  0  0  0
  -28.8186  -26.5334   23.0548 C   0  0  0  0  0  0  0  0  0  0  0  0
  -22.5936  -19.8901   28.7319 C   0  0  0  0  0  0  0  0  0  0  0  0
  -31.7785  -24.3849   18.8511 C   0  0  0  0  0  0  0  0  0  0  0  0
  -29.8313  -24.6880   17.3436 C   0  0  0  0  0  0  0  0  0  0  0  0
  -23.3803  -18.3444   22.3396 C   0  0  0  0  0  0  0  0  0  0  0  0
  -22.0816  -19.5437   24.1125 C   0  0  0  0  0  0  0  0  0  0  0  0
  -22.2855  -17.0585   24.1841 C   0  0  0  0  0  0  0  0  0  0  0  0
  -26.3258  -19.3347   29.2206 C   0  0  0  0  0  0  0  0  0  0  0  0
  -30.5680  -24.2790   21.8920 C   0  0  0  0  0  0  0  0  0  0  0  0
  -29.7981  -22.8492   19.0559 C   0  0  0  0  0  0  0  0  0  0  0  0
  -29.7559  -23.1841   22.5753 C   0  0  0  0  0  0  0  0  0  1  0  0
  -24.2956  -18.4839   24.7497 C   0  0  1  0  0  0  0  0  0  0  0  0
  -23.9535  -19.2744   28.4413 C   0  0  2  0  0  0  0  0  0  0  0  0
  -30.2024  -24.3582   18.8332 C   0  0  0  0  0  0  0  0  0  0  0  0
  -23.0385  -18.3628   23.8428 C   0  0  0  0  0  0  0  0  0  0  0  0
  -23.2737  -24.3446   19.9689 N   0  0  0  0  0  0  0  0  0  0  0  0
  -28.3108  -26.8580   20.6320 N   0  0  0  0  0  0  0  0  0  0  0  0
  -28.6972  -26.2511   19.4537 N   0  0  0  0  0  0  0  0  0  0  0  0
  -23.4980  -23.7071   18.8073 N   0  0  0  0  0  0  0  0  0  0  0  0
  -29.6992  -25.2368   21.1134 N   0  0  0  0  0  0  0  0  0  0  0  0
  -26.5640  -17.7496   24.0871 N   0  0  0  0  0  0  0  0  0  0  0  0
  -26.4255  -21.4548   19.7903 N   0  0  0  0  0  0  0  0  0  0  0  0
  -22.9448  -23.7271   16.5042 N   0  0  0  0  0  0  0  0  0  0  0  0
  -20.6148  -27.2208   18.1658 N   0  0  0  0  0  0  0  0  0  0  0  0
  -27.5760  -15.3401   21.6582 N   0  0  0  0  0  0  0  0  0  0  0  0
  -24.0041  -18.4765   26.1792 N   0  0  0  0  0  0  0  0  0  0  0  0
  -28.3857  -22.6930   19.3236 N   0  0  0  0  0  0  0  0  0  0  0  0
  -24.9480  -19.8672   29.3796 N   0  3  0  0  0  0  0  0  0  0  0  0
  -21.0773  -26.0272   16.2631 O   0  0  0  0  0  0  0  0  0  0  0  0
  -27.1256  -17.6194   21.5026 O   0  0  0  0  0  0  0  0  0  0  0  0
  -24.9366  -16.2005   24.7099 O   0  0  0  0  0  0  0  0  0  0  0  0
  -24.9684  -20.5331   26.6460 O   0  0  0  0  0  0  0  0  0  0  0  0
  -28.4809  -20.4119   19.5342 O   0  0  0  0  0  0  0  0  0  0  0  0
  -20.5465  -28.9075   23.4748 O   0  0  0  0  0  0  0  0  0  0  0  0
  -30.6268  -22.3262   23.3115 O   0  0  0  0  0  0  0  0  0  1  0  0
  -15.1655  -30.1106   23.4435 F   0  0  0  0  0  0  0  0  0  0  0  0
  -18.9614  -28.3758   25.6766 F   0  0  0  0  0  0  0  0  0  0  0  0
  1  2  1  0  0  0  0
  1  5  2  0  0  0  0
  2  6  2  0  0  0  0
  3  8  2  0  0  0  0
  3 15  1  0  0  0  0
  4  9  1  0  0  0  0
  4 15  2  0  0  0  0
  5 17  1  0  0  0  0
  6 19  1  0  0  0  0
  7 10  2  0  0  0  0
  7 18  1  0  0  0  0
  8 21  1  0  0  0  0
  9 21  2  0  0  0  0
 10 22  1  0  0  0  0
 11 12  2  0  0  0  0
 11 23  1  0  0  0  0
 12 24  1  0  0  0  0
 13 20  1  0  0  0  0
 13 22  2  0  0  0  0
 14 24  2  0  0  0  0
 14 25  1  0  0  0  0
 15 26  1  0  0  0  0
 16 26  1  0  0  0  0
 16 27  2  0  0  0  0
 16 30  1  0  0  0  0
 17 19  2  0  0  0  0
 17 35  1  0  0  0  0
 18 20  2  0  0  0  0
 18 36  1  0  0  0  0
 19 44  1  0  0  0  0
 20 37  1  0  0  0  0
 21 80  1  0  0  0  0
 22 81  1  0  0  0  0
 23 25  2  0  0  0  0
 23 80  1  0  0  0  0
 24 82  1  0  0  0  0
 25 83  1  0  0  0  0
 26 62  2  0  0  0  0
 27 65  1  0  0  0  0
 27 69  1  0  0  0  0
 28 47  1  0  0  0  0
 28 63  2  0  0  0  0
 28 66  1  0  0  0  0
 29 60  1  0  0  0  0
 29 64  2  0  0  0  0
 29 66  1  0  0  0  0
 30 70  1  0  0  0  0
 30 75  2  0  0  0  0
 31 45  1  0  0  0  0
 31 71  1  0  0  0  0
 31 76  2  0  0  0  0
 32 58  1  0  0  0  0
 32 67  1  0  0  0  0
 32 77  2  0  0  0  0
 33 59  1  0  0  0  0
 33 72  1  0  0  0  0
 33 78  2  0  0  0  0
 34 68  1  0  0  0  0
 34 73  1  0  0  0  0
 34 79  2  0  0  0  0
 35 38  1  0  0  0  0
 36 45  1  0  0  0  0
 37 67  1  0  0  0  0
 38 40  1  0  0  0  0
 39 41  1  0  0  0  0
 39 42  1  0  0  0  0
 40 44  1  0  0  0  0
 41 46  1  0  0  0  0
 42 68  1  0  0  0  0
 43 46  1  0  0  0  0
 43 68  1  0  0  0  0
 44 71  1  0  0  0  0
 45 67  1  0  0  0  0
 46 65  1  0  0  0  0
 48 59  1  0  0  0  0
 49 60  1  0  0  0  0
 50 60  1  0  0  0  0
 51 61  1  0  0  0  0
 52 61  1  0  0  0  0
 53 61  1  0  0  0  0
 54 74  1  0  0  0  0
 55 57  1  0  0  0  0
 55 66  1  0  0  0  0
 56 60  1  0  0  0  0
 56 73  1  0  0  0  0
 57 81  1  0  0  0  0
 58 61  1  0  0  0  0
 58 72  1  0  0  0  0
 59 74  1  0  0  0  0
 62 65  1  0  0  0  0
 63 64  1  0  0  0  0
M  CHG  1  74   1
M  ISO  4  34 100  57 101  73 100  81 101
M  END
> <Batch ID>
0065

> <Smiles>
CNC(C)C(=O)NC(C(=O)N1Cc2cc([101O:1][101CH2:1]Cn3c(C)nnc3C(C)(C)C[100NH:0][100C:0](=O)N3CCCC(n4nc(-c5ccc(Oc6ccc(F)cc6F)cc5)c(C(N)=O)c4N)C3)ccc2CC1C(=O)NC1CCCc2ccccc21)C(C)(C)C

> <Shape>
0.181

> <Color>
0.066

> <Negative vol penalty>
0.000

$$$$

  -OEChem-04052318073D

 92100  0     1  0  0  0  0  0999 V2000
  -37.5748  -13.7126   23.5718 C   0  0  0  0  0  0  0  0  0  0  0  0
  -36.8810  -14.8809   23.2733 C   0  0  0  0  0  0  0  0  0  0  0  0
  -21.6467  -29.0437   25.2438 C   0  0  0  0  0  0  0  0  0  0  0  0
  -22.0344  -30.8549   23.6925 C   0  0  0  0  0  0  0  0  0  0  0  0
  -37.1952  -12.5076   22.9821 C   0  0  0  0  0  0  0  0  0  0  0  0
  -35.8076  -14.8450   22.3839 C   0  0  0  0  0  0  0  0  0  0  0  0
  -30.7095  -18.2296   22.6280 C   0  0  0  0  0  0  0  0  0  0  0  0
  -22.8107  -29.3845   25.9325 C   0  0  0  0  0  0  0  0  0  0  0  0
  -23.1984  -31.1957   24.3813 C   0  0  0  0  0  0  0  0  0  0  0  0
  -30.3253  -19.3957   21.9676 C   0  0  0  0  0  0  0  0  0  0  0  0
  -26.3872  -30.0905   24.5842 C   0  0  0  0  0  0  0  0  0  0  0  0
  -27.5289  -30.3647   23.8314 C   0  0  0  0  0  0  0  0  0  0  0  0
  -29.1509  -18.0728   20.3275 C   0  0  0  0  0  0  0  0  0  0  0  0
  -27.6076  -32.5928   24.7622 C   0  0  0  0  0  0  0  0  0  0  0  0
  -21.2585  -29.7789   24.1237 C   0  0  0  0  0  0  0  0  0  0  0  0
  -18.7554  -29.9094   23.6491 C   0  0  0  0  0  0  0  0  0  0  0  0
  -36.1105  -12.4553   22.0924 C   0  0  0  0  0  0  0  0  0  0  0  0
  -30.3258  -16.9737   22.1362 C   0  0  0  0  0  0  0  0  0  0  0  0
  -35.4139  -13.6385   21.7806 C   0  0  0  0  0  0  0  0  0  0  0  0
  -29.5294  -16.8923   20.9850 C   0  0  0  0  0  0  0  0  0  0  0  0
  -23.5866  -30.4605   25.5014 C   0  0  0  0  0  0  0  0  0  0  0  0
  -29.5483  -19.3174   20.8155 C   0  0  0  0  0  0  0  0  0  0  0  0
  -25.8556  -31.0675   25.4260 C   0  0  0  0  0  0  0  0  0  0  0  0
  -28.1392  -31.6158   23.9204 C   0  0  0  0  0  0  0  0  0  0  0  0
  -26.4658  -32.3186   25.5151 C   0  0  0  0  0  0  0  0  0  0  0  0
  -20.0565  -29.4270   23.4114 C   0  0  0  0  0  0  0  0  0  0  0  0
  -25.8747  -25.8015   17.7634 C   0  0  0  0  0  0  0  0  0  0  0  0
  -26.2064  -26.8064   16.8991 C   0  0  0  0  0  0  0  0  0  0  0  0
  -17.9774  -29.2745   22.7121 C   0  0  0  0  0  0  0  0  0  0  0  0
  -24.5371  -27.5187   18.1665 C   0  0  0  0  0  0  0  0  0  0  0  0
  -18.2917  -30.8475   24.6292 C   0  0  0  0  0  0  0  0  0  0  0  0
  -31.8768  -14.4198   21.0519 C   0  0  0  0  0  0  0  0  0  0  0  0
  -28.9057  -13.1189   21.0041 C   0  0  0  0  0  0  0  0  0  0  0  0
  -20.3764  -26.0825   17.8539 C   0  0  0  0  0  0  0  0  0  0  0  0
  -25.5315  -13.6066   20.8484 C   0  0  0  0  0  0  0  0  0  0  0  0
  -35.7670  -11.1380   21.4433 C   0  0  0  0  0  0  0  0  0  0  0  0
  -30.7260  -15.7263   22.8752 C   0  0  0  0  0  0  0  0  0  0  0  0
  -29.0741  -15.5693   20.4275 C   0  0  0  0  0  0  0  0  0  0  0  0
  -34.3828  -11.1185   20.8000 C   0  0  0  0  0  0  0  0  0  0  0  0
  -17.6742  -25.2573   20.1260 C   0  0  0  0  0  0  0  0  0  0  0  0
  -34.1638  -12.3770   19.9663 C   0  0  0  0  0  0  0  0  0  0  0  0
  -18.0684  -26.1582   21.3011 C   0  0  0  0  0  0  0  0  0  0  0  0
  -18.0945  -25.8025   18.7632 C   0  0  0  0  0  0  0  0  0  0  0  0
  -19.6188  -27.4756   19.8169 C   0  0  0  0  0  0  0  0  0  0  0  0
  -34.2286  -13.6357   20.8398 C   0  0  1  0  0  0  0  0  0  0  0  0
  -30.7095  -14.4796   21.9961 C   0  0  1  0  0  0  0  0  0  0  0  0
  -18.4726  -27.5659   20.8399 C   0  0  2  0  0  0  0  0  0  0  0  0
  -26.8062  -27.7746   14.6654 C   0  0  0  0  0  0  0  0  0  0  0  0
  -23.3602  -12.3499   20.7899 C   0  0  0  0  0  0  0  0  0  0  0  0
  -23.3486  -29.8204   18.1089 C   0  0  0  0  0  0  0  0  0  0  0  0
  -23.8285  -28.7159   20.2457 C   0  0  0  0  0  0  0  0  0  0  0  0
  -22.3497  -26.6034   16.4598 C   0  0  0  0  0  0  0  0  0  0  0  0
  -20.5571  -28.2873   16.8417 C   0  0  0  0  0  0  0  0  0  0  0  0
  -29.4044  -12.3979   18.0815 C   0  0  0  0  0  0  0  0  0  0  0  0
  -26.9411  -12.0322   17.8238 C   0  0  0  0  0  0  0  0  0  0  0  0
  -28.2501  -10.6223   19.4117 C   0  0  0  0  0  0  0  0  0  0  0  0
  -28.9123  -25.1114   18.0134 C   0  0  0  0  0  0  0  0  0  0  0  0
  -27.6518  -24.8267   20.1525 C   0  0  0  0  0  0  0  0  0  0  0  0
  -24.1710  -25.5314   19.5912 C   0  0  0  0  0  0  0  0  0  0  0  0
  -24.6045  -14.8604   23.3639 C   0  0  0  0  0  0  0  0  0  0  0  0
  -26.4549  -24.4152   17.9311 C   0  0  0  0  0  0  0  0  0  0  0  0
  -27.2258  -26.8890   15.8484 C   0  0  0  0  0  0  0  0  0  0  0  0
  -27.3377  -21.8240   19.4448 C   0  0  0  0  0  0  0  0  0  0  0  0
  -28.2683  -22.8126   18.7354 C   0  0  0  0  0  0  0  0  0  0  0  0
  -22.0358  -27.7259   18.7883 C   0  0  0  0  0  0  0  0  0  0  0  0
  -27.9321  -20.4204   19.4637 C   0  0  0  0  0  0  0  0  0  1  0  0
  -27.7894  -13.0398   19.9908 C   0  0  1  0  0  0  0  0  0  0  0  0
  -24.3920  -13.0348   21.6725 C   0  0  2  0  0  0  0  0  0  0  0  0
  -23.4820  -28.3885   18.7432 C   0  0  0  0  0  0  0  0  0  0  0  0
  -21.3760  -27.1568   17.4984 C   0  0  0  0  0  0  0  0  0  0  0  0
  -28.1063  -12.0481   18.8361 C   0  0  0  0  0  0  0  0  0  0  0  0
  -27.7984  -24.3009   18.7120 C   0  0  0  0  0  0  0  0  0  0  0  0
  -20.1061  -28.5530   22.4026 N   0  0  0  0  0  0  0  0  0  0  0  0
  -24.8394  -26.2698   18.5360 N   0  0  0  0  0  0  0  0  0  0  0  0
  -18.8265  -28.4811   21.9981 N   0  0  0  0  0  0  0  0  0  0  0  0
  -25.3627  -27.8563   17.1707 N   0  3  0  0  0  0  0  0  0  0  0  0
  -29.4964  -14.3779   21.1823 N   0  0  0  0  0  0  0  0  0  0  0  0
  -19.4137  -26.4293   18.8053 N   0  0  0  0  0  0  0  0  0  0  0  0
  -16.6565  -29.3230   22.4375 N   0  0  0  0  0  0  0  0  0  0  0  0
  -19.2245  -31.4049   25.5143 N   0  0  0  0  0  0  0  0  0  0  0  0
  -32.9952  -13.8023   21.5784 N   0  0  0  0  0  0  0  0  0  0  0  0
  -26.5799  -12.7175   20.7403 N   0  0  0  0  0  0  0  0  0  0  0  0
  -23.7117  -14.1178   22.4374 N   0  3  0  0  0  0  0  0  0  0  0  0
  -17.0833  -31.1690   24.7281 O   0  0  0  0  0  0  0  0  0  0  0  0
  -31.7701  -14.8971   19.9283 O   0  0  0  0  0  0  0  0  0  0  0  0
  -29.2363  -12.1026   21.6201 O   0  0  0  0  0  0  0  0  0  0  0  0
  -20.4534  -24.9774   17.3124 O   0  0  0  0  0  0  0  0  0  0  0  0
  -25.4937  -14.7282   20.3473 O   0  0  0  0  0  0  0  0  0  0  0  0
  -24.7224  -30.7934   26.1734 O   0  0  0  0  0  0  0  0  0  0  0  0
  -29.1725  -20.4541   20.1685 O   0  0  0  0  0  0  0  0  0  1  0  0
  -29.2365  -31.8785   23.1986 F   0  0  0  0  0  0  0  0  0  0  0  0
  -25.9604  -33.2608   26.3229 F   0  0  0  0  0  0  0  0  0  0  0  0
  1  2  1  0  0  0  0
  1  5  2  0  0  0  0
  2  6  2  0  0  0  0
  3  8  2  0  0  0  0
  3 15  1  0  0  0  0
  4  9  1  0  0  0  0
  4 15  2  0  0  0  0
  5 17  1  0  0  0  0
  6 19  1  0  0  0  0
  7 10  2  0  0  0  0
  7 18  1  0  0  0  0
  8 21  1  0  0  0  0
  9 21  2  0  0  0  0
 10 22  1  0  0  0  0
 11 12  2  0  0  0  0
 11 23  1  0  0  0  0
 12 24  1  0  0  0  0
 13 20  1  0  0  0  0
 13 22  2  0  0  0  0
 14 24  2  0  0  0  0
 14 25  1  0  0  0  0
 15 26  1  0  0  0  0
 16 26  1  0  0  0  0
 16 29  2  0  0  0  0
 16 31  1  0  0  0  0
 17 19  2  0  0  0  0
 17 36  1  0  0  0  0
 18 20  2  0  0  0  0
 18 37  1  0  0  0  0
 19 45  1  0  0  0  0
 20 38  1  0  0  0  0
 21 89  1  0  0  0  0
 22 90  1  0  0  0  0
 23 25  2  0  0  0  0
 23 89  1  0  0  0  0
 24 91  1  0  0  0  0
 25 92  1  0  0  0  0
 26 73  2  0  0  0  0
 27 28  2  0  0  0  0
 27 61  1  0  0  0  0
 27 74  1  0  0  0  0
 28 62  1  0  0  0  0
 28 76  1  0  0  0  0
 29 75  1  0  0  0  0
 29 79  1  0  0  0  0
 30 69  1  0  0  0  0
 30 74  1  0  0  0  0
 30 76  2  0  0  0  0
 31 80  1  0  0  0  0
 31 84  2  0  0  0  0
 32 46  1  0  0  0  0
 32 81  1  0  0  0  0
 32 85  2  0  0  0  0
 33 67  1  0  0  0  0
 33 77  1  0  0  0  0
 33 86  2  0  0  0  0
 34 70  1  0  0  0  0
 34 78  1  0  0  0  0
 34 87  2  0  0  0  0
 35 68  1  0  0  0  0
 35 82  1  0  0  0  0
 35 88  2  0  0  0  0
 36 39  1  0  0  0  0
 37 46  1  0  0  0  0
 38 77  1  0  0  0  0
 39 41  1  0  0  0  0
 40 42  1  0  0  0  0
 40 43  1  0  0  0  0
 41 45  1  0  0  0  0
 42 47  1  0  0  0  0
 43 78  1  0  0  0  0
 44 47  1  0  0  0  0
 44 78  1  0  0  0  0
 45 81  1  0  0  0  0
 46 77  1  0  0  0  0
 47 75  1  0  0  0  0
 48 62  1  0  0  0  0
 49 68  1  0  0  0  0
 50 69  1  0  0  0  0
 51 69  1  0  0  0  0
 52 70  1  0  0  0  0
 53 70  1  0  0  0  0
 54 71  1  0  0  0  0
 55 71  1  0  0  0  0
 56 71  1  0  0  0  0
 57 72  1  0  0  0  0
 58 72  1  0  0  0  0
 59 74  1  0  0  0  0
 60 83  1  0  0  0  0
 61 72  1  0  0  0  0
 63 64  1  0  0  0  0
 63 66  1  0  0  0  0
 64 72  1  0  0  0  0
 65 69  1  0  0  0  0
 65 70  1  0  0  0  0
 66 90  1  0  0  0  0
 67 71  1  0  0  0  0
 67 82  1  0  0  0  0
 68 83  1  0  0  0  0
 73 75  1  0  0  0  0
M  CHG  2  76   1  83   1
M  ISO  4  34 100  66 101  70 100  90 101
M  END
> <Batch ID>
0065

> <Smiles>
CCc1nc(C(C)(C)C[100C:0](C)(C)[100C:0](=O)N2CCCC(n3nc(-c4ccc(Oc5ccc(F)cc5F)cc4)c(C(N)=O)c3N)C2)n(C)c1CC(C)(C)CC[101CH2:1][101O:1]c1ccc2c(c1)CN(C(=O)C(NC(=O)C(C)NC)C(C)(C)C)C(C(=O)NC1CCCc3ccccc31)C2

> <Shape>
0.288

> <Color>
0.050

> <Negative vol penalty>
0.000

$$$$

  -OEChem-04052318073D

 90 98  0     1  0  0  0  0  0999 V2000
  -18.8525  -30.0461   25.5828 C   0  0  0  0  0  0  0  0  0  0  0  0
  -20.1728  -29.6417   25.7527 C   0  0  0  0  0  0  0  0  0  0  0  0
  -25.9615  -13.3346   20.4991 C   0  0  0  0  0  0  0  0  0  0  0  0
  -24.0407  -14.7866   20.3021 C   0  0  0  0  0  0  0  0  0  0  0  0
  -18.1278  -29.6087   24.4749 C   0  0  0  0  0  0  0  0  0  0  0  0
  -20.7687  -28.7987   24.8153 C   0  0  0  0  0  0  0  0  0  0  0  0
  -25.4430  -30.2871   23.5582 C   0  0  0  0  0  0  0  0  0  0  0  0
  -25.1732  -12.3786   21.1396 C   0  0  0  0  0  0  0  0  0  0  0  0
  -23.2523  -13.8306   20.9425 C   0  0  0  0  0  0  0  0  0  0  0  0
  -26.4671  -29.9977   24.4588 C   0  0  0  0  0  0  0  0  0  0  0  0
  -23.5864   -9.4060   22.5038 C   0  0  0  0  0  0  0  0  0  0  0  0
  -23.7231   -8.0775   22.1014 C   0  0  0  0  0  0  0  0  0  0  0  0
  -27.1078  -28.1018   23.1118 C   0  0  0  0  0  0  0  0  0  0  0  0
  -23.0540   -8.6872   19.8614 C   0  0  0  0  0  0  0  0  0  0  0  0
  -30.5058  -22.4495   25.2672 C   0  0  0  0  0  0  0  0  0  0  0  0
  -25.3953  -14.5386   20.0804 C   0  0  0  0  0  0  0  0  0  0  0  0
  -26.4430  -15.6487   18.0365 C   0  0  0  0  0  0  0  0  0  0  0  0
  -18.7181  -28.7677   23.5185 C   0  0  0  0  0  0  0  0  0  0  0  0
  -25.2363  -29.4782   22.4315 C   0  0  0  0  0  0  0  0  0  0  0  0
  -20.0507  -28.3485   23.6944 C   0  0  0  0  0  0  0  0  0  0  0  0
  -26.0819  -28.3845   22.1971 C   0  0  0  0  0  0  0  0  0  0  0  0
  -30.5355  -23.1754   26.4328 C   0  0  0  0  0  0  0  0  0  0  0  0
  -23.8186  -12.6266   21.3613 C   0  0  0  0  0  0  0  0  0  0  0  0
  -27.2979  -28.9033   24.2372 C   0  0  0  0  0  0  0  0  0  0  0  0
  -23.1835  -10.3752   21.5851 C   0  0  0  0  0  0  0  0  0  0  0  0
  -23.4569   -7.7181   20.7802 C   0  0  0  0  0  0  0  0  0  0  0  0
  -22.9173  -10.0158   20.2638 C   0  0  0  0  0  0  0  0  0  0  0  0
  -26.2093  -15.5268   19.4193 C   0  0  0  0  0  0  0  0  0  0  0  0
  -29.1806  -23.3526   26.7716 C   0  0  0  0  0  0  0  0  0  0  0  0
  -27.2751  -16.7355   17.9233 C   0  0  0  0  0  0  0  0  0  0  0  0
  -25.9517  -14.8508   16.9512 C   0  0  0  0  0  0  0  0  0  0  0  0
  -22.8510  -27.6563   21.3852 C   0  0  0  0  0  0  0  0  0  0  0  0
  -24.7390  -27.3674   18.7634 C   0  0  0  0  0  0  0  0  0  0  0  0
  -28.0432  -21.4364   21.4711 C   0  0  0  0  0  0  0  0  0  0  0  0
  -27.8750  -27.4948   17.4231 C   0  0  0  0  0  0  0  0  0  0  0  0
  -17.8800  -28.2827   22.3622 C   0  0  0  0  0  0  0  0  0  0  0  0
  -24.1440  -29.8194   21.4554 C   0  0  0  0  0  0  0  0  0  0  0  0
  -25.9147  -27.4968   20.9919 C   0  0  0  0  0  0  0  0  0  0  0  0
  -18.7021  -27.6928   21.2192 C   0  0  0  0  0  0  0  0  0  0  0  0
  -30.6297  -19.1577   20.3115 C   0  0  0  0  0  0  0  0  0  0  0  0
  -19.7550  -26.7307   21.7601 C   0  0  0  0  0  0  0  0  0  0  0  0
  -29.7985  -17.9616   19.8494 C   0  0  0  0  0  0  0  0  0  0  0  0
  -30.0129  -19.8307   21.5349 C   0  0  0  0  0  0  0  0  0  0  0  0
  -27.7575  -19.0512   20.8790 C   0  0  0  0  0  0  0  0  0  0  0  0
  -20.7398  -27.4545   22.6864 C   0  0  1  0  0  0  0  0  0  0  0  0
  -23.7003  -28.6266   20.6141 C   0  0  1  0  0  0  0  0  0  0  0  0
  -28.3295  -18.3627   19.6285 C   0  0  2  0  0  0  0  0  0  0  0  0
  -29.1075  -27.1751   15.2607 C   0  0  0  0  0  0  0  0  0  0  0  0
  -32.9235  -23.9385   26.1867 C   0  0  0  0  0  0  0  0  0  0  0  0
  -32.2300  -22.6102   28.2092 C   0  0  0  0  0  0  0  0  0  0  0  0
  -31.5465  -24.9887   27.9707 C   0  0  0  0  0  0  0  0  0  0  0  0
  -27.0551  -24.0932   28.0464 C   0  0  0  0  0  0  0  0  0  0  0  0
  -29.0855  -23.3764   29.2736 C   0  0  0  0  0  0  0  0  0  0  0  0
  -27.9283  -23.6451   22.5900 C   0  0  0  0  0  0  0  0  0  0  0  0
  -24.4899  -24.3420   19.0715 C   0  0  0  0  0  0  0  0  0  0  0  0
  -26.4481  -24.0939   17.5313 C   0  0  0  0  0  0  0  0  0  0  0  0
  -24.3488  -25.1657   16.7144 C   0  0  0  0  0  0  0  0  0  0  0  0
  -28.8258  -30.2974   17.4165 C   0  0  0  0  0  0  0  0  0  0  0  0
  -28.3197  -26.5635   27.1718 C   0  0  0  0  0  0  0  0  0  0  0  0
  -28.8272  -27.9921   27.3702 C   0  0  0  0  0  0  0  0  0  0  0  0
  -29.1049  -25.5733   28.0447 C   0  0  0  0  0  0  0  0  0  0  0  0
  -28.6512  -21.5271   23.8568 C   0  0  0  0  0  0  0  0  0  0  0  0
  -28.0874  -28.9801   26.4793 C   0  0  0  0  0  0  0  0  0  1  0  0
  -25.8324  -26.4199   18.3324 C   0  0  1  0  0  0  0  0  0  0  0  0
  -28.4097  -28.1712   16.1737 C   0  0  2  0  0  0  0  0  0  0  0  0
  -31.7252  -23.6551   27.1560 C   0  0  0  0  0  0  0  0  0  0  0  0
  -28.6018  -24.0960   27.9893 C   0  0  0  0  0  0  0  0  0  0  0  0
  -28.6628  -22.3094   22.5332 C   0  0  1  0  0  0  0  0  0  0  0  0
  -25.2820  -25.0208   17.9362 C   0  0  0  0  0  0  0  0  0  0  0  0
  -26.8420  -16.4615   20.1335 N   0  0  0  0  0  0  0  0  0  0  0  0
  -28.3507  -22.7852   25.8922 N   0  0  0  0  0  0  0  0  0  0  0  0
  -29.1864  -22.2444   24.9892 N   0  0  0  0  0  0  0  0  0  0  0  0
  -27.4815  -17.1810   19.1958 N   0  0  0  0  0  0  0  0  0  0  0  0
  -24.8284  -27.8679   20.0700 N   0  0  0  0  0  0  0  0  0  0  0  0
  -28.6059  -20.1722   21.2938 N   0  0  0  0  0  0  0  0  0  0  0  0
  -27.8432  -17.3440   16.8605 N   0  0  0  0  0  0  0  0  0  0  0  0
  -25.1068  -13.7717   17.2443 N   0  0  0  0  0  0  0  0  0  0  0  0
  -21.6999  -28.2109   21.9114 N   0  0  0  0  0  0  0  0  0  0  0  0
  -26.5637  -27.0978   17.2675 N   0  0  0  0  0  0  0  0  0  0  0  0
  -29.3850  -29.2372   16.5389 N   0  3  0  0  0  0  0  0  0  0  0  0
  -26.2662  -15.0779   15.7583 O   0  0  0  0  0  0  0  0  0  0  0  0
  -23.2124  -26.4904   21.4936 O   0  0  0  0  0  0  0  0  0  0  0  0
  -23.8426  -27.6585   17.9675 O   0  0  0  0  0  0  0  0  0  0  0  0
  -27.0897  -21.8679   20.8180 O   0  0  0  0  0  0  0  0  0  0  0  0
  -28.5538  -27.3314   18.4345 O   0  0  0  0  0  0  0  0  0  0  0  0
  -30.0042  -22.5108   22.1041 O   0  0  0  0  0  0  0  0  0  0  0  0
  -23.0490  -11.6938   21.9859 O   0  0  0  0  0  0  0  0  0  0  0  0
  -28.2979  -28.6182   25.1151 O   0  0  0  0  0  0  0  0  0  1  0  0
  -23.5897   -6.4426   20.3935 F   0  0  0  0  0  0  0  0  0  0  0  0
  -22.5310  -10.9426   19.3764 F   0  0  0  0  0  0  0  0  0  0  0  0
  1  2  1  0  0  0  0
  1  5  2  0  0  0  0
  2  6  2  0  0  0  0
  3  8  2  0  0  0  0
  3 16  1  0  0  0  0
  4  9  1  0  0  0  0
  4 16  2  0  0  0  0
  5 18  1  0  0  0  0
  6 20  1  0  0  0  0
  7 10  2  0  0  0  0
  7 19  1  0  0  0  0
  8 23  1  0  0  0  0
  9 23  2  0  0  0  0
 10 24  1  0  0  0  0
 11 12  2  0  0  0  0
 11 25  1  0  0  0  0
 12 26  1  0  0  0  0
 13 21  1  0  0  0  0
 13 24  2  0  0  0  0
 14 26  2  0  0  0  0
 14 27  1  0  0  0  0
 15 22  2  0  0  0  0
 15 72  1  0  0  0  0
 16 28  1  0  0  0  0
 17 28  1  0  0  0  0
 17 30  2  0  0  0  0
 17 31  1  0  0  0  0
 18 20  2  0  0  0  0
 18 36  1  0  0  0  0
 19 21  2  0  0  0  0
 19 37  1  0  0  0  0
 20 45  1  0  0  0  0
 21 38  1  0  0  0  0
 22 29  1  0  0  0  0
 22 66  1  0  0  0  0
 23 87  1  0  0  0  0
 24 88  1  0  0  0  0
 25 27  2  0  0  0  0
 25 87  1  0  0  0  0
 26 89  1  0  0  0  0
 27 90  1  0  0  0  0
 28 70  2  0  0  0  0
 29 67  1  0  0  0  0
 29 71  2  0  0  0  0
 30 73  1  0  0  0  0
 30 76  1  0  0  0  0
 31 77  1  0  0  0  0
 31 81  2  0  0  0  0
 32 46  1  0  0  0  0
 32 78  1  0  0  0  0
 32 82  2  0  0  0  0
 33 64  1  0  0  0  0
 33 74  1  0  0  0  0
 33 83  2  0  0  0  0
 34 68  1  0  0  0  0
 34 75  1  0  0  0  0
 34 84  2  0  0  0  0
 35 65  1  0  0  0  0
 35 79  1  0  0  0  0
 35 85  2  0  0  0  0
 36 39  1  0  0  0  0
 37 46  1  0  0  0  0
 38 74  1  0  0  0  0
 39 41  1  0  0  0  0
 40 42  1  0  0  0  0
 40 43  1  0  0  0  0
 41 45  1  0  0  0  0
 42 47  1  0  0  0  0
 43 75  1  0  0  0  0
 44 47  1  0  0  0  0
 44 75  1  0  0  0  0
 45 78  1  0  0  0  0
 46 74  1  0  0  0  0
 47 73  1  0  0  0  0
 48 65  1  0  0  0  0
 49 66  1  0  0  0  0
 50 66  1  0  0  0  0
 51 66  1  0  0  0  0
 52 67  1  0  0  0  0
 53 67  1  0  0  0  0
 54 68  1  0  0  0  0
 55 69  1  0  0  0  0
 56 69  1  0  0  0  0
 57 69  1  0  0  0  0
 58 80  1  0  0  0  0
 59 60  1  0  0  0  0
 59 61  1  0  0  0  0
 60 63  1  0  0  0  0
 61 67  1  0  0  0  0
 62 68  1  0  0  0  0
 62 72  1  0  0  0  0
 63 88  1  0  0  0  0
 64 69  1  0  0  0  0
 64 79  1  0  0  0  0
 65 80  1  0  0  0  0
 68 86  1  0  0  0  0
 70 73  1  0  0  0  0
 71 72  1  0  0  0  0
M  CHG  1  80   1
M  ISO  4  34 100  63 101  68 100  88 101
M  END
> <Batch ID>
0065

> <Smiles>
CNC(C)C(=O)NC(C(=O)N1Cc2cc([101O:1][101CH2:1]CCCC(C)(C)c3nn(C[100C:0](C)(O)[100C:0](=O)N4CCCC(n5nc(-c6ccc(Oc7ccc(F)cc7F)cc6)c(C(N)=O)c5N)C4)cc3C(C)(C)C)ccc2CC1C(=O)NC1CCCc2ccccc21)C(C)(C)C

> <Shape>
0.226

> <Color>
0.047

> <Negative vol penalty>
0.000

$$$$

  -OEChem-04052318073D

 85 93  0     1  0  0  0  0  0999 V2000
  -18.3775  -27.9679   23.5843 C   0  0  0  0  0  0  0  0  0  0  0  0
  -18.5494  -26.6727   23.1064 C   0  0  0  0  0  0  0  0  0  0  0  0
  -21.5570  -14.5905   21.3841 C   0  0  0  0  0  0  0  0  0  0  0  0
  -21.8992  -14.9202   19.0153 C   0  0  0  0  0  0  0  0  0  0  0  0
  -19.1398  -29.0104   23.0591 C   0  0  0  0  0  0  0  0  0  0  0  0
  -19.4831  -26.4196   22.1021 C   0  0  0  0  0  0  0  0  0  0  0  0
  -22.9132  -21.3885   21.4477 C   0  0  0  0  0  0  0  0  0  0  0  0
  -20.2484  -15.0569   21.2600 C   0  0  0  0  0  0  0  0  0  0  0  0
  -20.5905  -15.3866   18.8912 C   0  0  0  0  0  0  0  0  0  0  0  0
  -22.7724  -20.2546   20.6487 C   0  0  0  0  0  0  0  0  0  0  0  0
  -16.9310  -16.5000   21.6294 C   0  0  0  0  0  0  0  0  0  0  0  0
  -16.4727  -17.4111   22.5809 C   0  0  0  0  0  0  0  0  0  0  0  0
  -24.2303  -21.2425   19.0002 C   0  0  0  0  0  0  0  0  0  0  0  0
  -18.2215  -18.9528   21.9469 C   0  0  0  0  0  0  0  0  0  0  0  0
  -26.9009  -17.8686   14.5172 C   0  0  0  0  0  0  0  0  0  0  0  0
  -22.3825  -14.5222   20.2618 C   0  0  0  0  0  0  0  0  0  0  0  0
  -24.1786  -12.7106   20.2682 C   0  0  0  0  0  0  0  0  0  0  0  0
  -20.0901  -28.7683   22.0546 C   0  0  0  0  0  0  0  0  0  0  0  0
  -23.7062  -22.4643   21.0232 C   0  0  0  0  0  0  0  0  0  0  0  0
  -20.2579  -27.4601   21.5620 C   0  0  0  0  0  0  0  0  0  0  0  0
  -24.3816  -22.3878   19.7967 C   0  0  0  0  0  0  0  0  0  0  0  0
  -19.7651  -15.4549   20.0136 C   0  0  0  0  0  0  0  0  0  0  0  0
  -23.4286  -20.1827   19.4235 C   0  0  0  0  0  0  0  0  0  0  0  0
  -18.0347  -16.8152   20.8367 C   0  0  0  0  0  0  0  0  0  0  0  0
  -17.1178  -18.6376   22.7396 C   0  0  0  0  0  0  0  0  0  0  0  0
  -18.6798  -18.0416   20.9954 C   0  0  0  0  0  0  0  0  0  0  0  0
  -23.7347  -14.0411   20.3895 C   0  0  0  0  0  0  0  0  0  0  0  0
  -25.9204  -17.5156   15.4638 C   0  0  0  0  0  0  0  0  0  0  0  0
  -28.0943  -17.6343   15.1553 C   0  0  0  0  0  0  0  0  0  0  0  0
  -25.5349  -12.7812   20.4731 C   0  0  0  0  0  0  0  0  0  0  0  0
  -23.4317  -11.5177   19.9947 C   0  0  0  0  0  0  0  0  0  0  0  0
  -23.1638  -25.5239   20.3538 C   0  0  0  0  0  0  0  0  0  0  0  0
  -26.3930  -25.6298   20.0650 C   0  0  0  0  0  0  0  0  0  0  0  0
  -29.4687  -17.2716   19.7851 C   0  0  0  0  0  0  0  0  0  0  0  0
  -29.3050  -23.9532   19.4683 C   0  0  0  0  0  0  0  0  0  0  0  0
  -20.8572  -29.9351   21.4846 C   0  0  0  0  0  0  0  0  0  0  0  0
  -23.8693  -23.6691   21.9088 C   0  0  0  0  0  0  0  0  0  0  0  0
  -25.2610  -23.5072   19.3046 C   0  0  0  0  0  0  0  0  0  0  0  0
  -22.0903  -29.5213   20.6855 C   0  0  0  0  0  0  0  0  0  0  0  0
  -28.8574  -15.3511   22.7479 C   0  0  0  0  0  0  0  0  0  0  0  0
  -21.7486  -28.3851   19.7269 C   0  0  0  0  0  0  0  0  0  0  0  0
  -27.5015  -14.6992   22.4797 C   0  0  0  0  0  0  0  0  0  0  0  0
  -28.9343  -16.7491   22.1421 C   0  0  0  0  0  0  0  0  0  0  0  0
  -27.2755  -16.1437   20.4091 C   0  0  0  0  0  0  0  0  0  0  0  0
  -21.2782  -27.1414   20.4907 C   0  0  1  0  0  0  0  0  0  0  0  0
  -24.2902  -24.9202   21.1440 C   0  0  1  0  0  0  0  0  0  0  0  0
  -27.1666  -14.7178   20.9777 C   0  0  2  0  0  0  0  0  0  0  0  0
  -29.4860  -17.8062   14.7001 C   0  0  0  0  0  0  0  0  0  0  0  0
  -31.7794  -24.3152   19.2601 C   0  0  0  0  0  0  0  0  0  0  0  0
  -23.9107  -18.6903   14.3364 C   0  0  0  0  0  0  0  0  0  0  0  0
  -23.9127  -16.2363   14.6865 C   0  0  0  0  0  0  0  0  0  0  0  0
  -29.7529  -18.9838   18.0497 C   0  0  0  0  0  0  0  0  0  0  0  0
  -25.9803  -26.8410   17.2951 C   0  0  0  0  0  0  0  0  0  0  0  0
  -28.3696  -26.2995   16.7788 C   0  0  0  0  0  0  0  0  0  0  0  0
  -27.8228  -27.8844   18.6259 C   0  0  0  0  0  0  0  0  0  0  0  0
  -29.8780  -22.1436   21.7390 C   0  0  0  0  0  0  0  0  0  0  0  0
  -23.6815  -17.7627   16.6728 C   0  0  0  0  0  0  0  0  0  0  0  0
  -28.6831  -16.7848   17.4458 C   0  0  0  0  0  0  0  0  0  0  0  0
  -23.9931  -19.0710   17.3983 C   0  0  0  0  0  0  0  0  0  1  0  0
  -27.3731  -25.4160   18.9369 C   0  0  1  0  0  0  0  0  0  0  0  0
  -30.6366  -23.9563   20.1971 C   0  0  2  0  0  0  0  0  0  0  0  0
  -24.3912  -17.5769   15.2978 C   0  0  0  0  0  0  0  0  0  0  0  0
  -28.8556  -17.8516   18.5354 C   0  0  1  0  0  0  0  0  0  0  0  0
  -27.3684  -26.5898   17.9173 C   0  0  0  0  0  0  0  0  0  0  0  0
  -24.7283  -14.8943   20.6513 N   0  0  0  0  0  0  0  0  0  0  0  0
  -26.4455  -17.0892   16.6155 N   0  0  0  0  0  0  0  0  0  0  0  0
  -27.7689  -17.1728   16.3968 N   0  0  0  0  0  0  0  0  0  0  0  0
  -25.8101  -14.0982   20.6963 N   0  0  0  0  0  0  0  0  0  0  0  0
  -25.3836  -24.6666   20.2036 N   0  0  0  0  0  0  0  0  0  0  0  0
  -28.5877  -16.7276   20.7199 N   0  0  0  0  0  0  0  0  0  0  0  0
  -26.5069  -11.8445   20.4824 N   0  0  0  0  0  0  0  0  0  0  0  0
  -22.0465  -11.6242   19.8102 N   0  0  0  0  0  0  0  0  0  0  0  0
  -22.4088  -26.4405   21.0605 N   0  0  0  0  0  0  0  0  0  0  0  0
  -28.6685  -25.1728   19.5621 N   0  0  0  0  0  0  0  0  0  0  0  0
  -30.9112  -22.6125   20.7800 N   0  3  0  0  0  0  0  0  0  0  0  0
  -23.9743  -10.3884   19.9326 O   0  0  0  0  0  0  0  0  0  0  0  0
  -22.9932  -25.1845   19.1888 O   0  0  0  0  0  0  0  0  0  0  0  0
  -26.5227  -26.6114   20.8008 O   0  0  0  0  0  0  0  0  0  0  0  0
  -30.6944  -17.2994   19.9230 O   0  0  0  0  0  0  0  0  0  0  0  0
  -28.8743  -22.9686   18.8720 O   0  0  0  0  0  0  0  0  0  0  0  0
  -18.4880  -15.9098   19.8920 O   0  0  0  0  0  0  0  0  0  0  0  0
  -23.2924  -19.0774   18.6414 O   0  0  0  0  0  0  0  0  0  1  0  0
  -16.6766  -19.5131   23.6522 F   0  0  0  0  0  0  0  0  0  0  0  0
  -19.7399  -18.3506   20.2360 F   0  0  0  0  0  0  0  0  0  0  0  0
  -27.6373  -18.3950   18.8184 F   0  0  0  0  0  0  0  0  0  0  0  0
  1  2  1  0  0  0  0
  1  5  2  0  0  0  0
  2  6  2  0  0  0  0
  3  8  2  0  0  0  0
  3 16  1  0  0  0  0
  4  9  1  0  0  0  0
  4 16  2  0  0  0  0
  5 18  1  0  0  0  0
  6 20  1  0  0  0  0
  7 10  2  0  0  0  0
  7 19  1  0  0  0  0
  8 22  1  0  0  0  0
  9 22  2  0  0  0  0
 10 23  1  0  0  0  0
 11 12  2  0  0  0  0
 11 24  1  0  0  0  0
 12 25  1  0  0  0  0
 13 21  1  0  0  0  0
 13 23  2  0  0  0  0
 14 25  2  0  0  0  0
 14 26  1  0  0  0  0
 15 28  1  0  0  0  0
 15 29  2  0  0  0  0
 16 27  1  0  0  0  0
 17 27  1  0  0  0  0
 17 30  2  0  0  0  0
 17 31  1  0  0  0  0
 18 20  2  0  0  0  0
 18 36  1  0  0  0  0
 19 21  2  0  0  0  0
 19 37  1  0  0  0  0
 20 45  1  0  0  0  0
 21 38  1  0  0  0  0
 22 81  1  0  0  0  0
 23 82  1  0  0  0  0
 24 26  2  0  0  0  0
 24 81  1  0  0  0  0
 25 83  1  0  0  0  0
 26 84  1  0  0  0  0
 27 65  2  0  0  0  0
 28 62  1  0  0  0  0
 28 66  2  0  0  0  0
 29 48  1  0  0  0  0
 29 67  1  0  0  0  0
 30 68  1  0  0  0  0
 30 71  1  0  0  0  0
 31 72  1  0  0  0  0
 31 76  2  0  0  0  0
 32 46  1  0  0  0  0
 32 73  1  0  0  0  0
 32 77  2  0  0  0  0
 33 60  1  0  0  0  0
 33 69  1  0  0  0  0
 33 78  2  0  0  0  0
 34 63  1  0  0  0  0
 34 70  1  0  0  0  0
 34 79  2  0  0  0  0
 35 61  1  0  0  0  0
 35 74  1  0  0  0  0
 35 80  2  0  0  0  0
 36 39  1  0  0  0  0
 37 46  1  0  0  0  0
 38 69  1  0  0  0  0
 39 41  1  0  0  0  0
 40 42  1  0  0  0  0
 40 43  1  0  0  0  0
 41 45  1  0  0  0  0
 42 47  1  0  0  0  0
 43 70  1  0  0  0  0
 44 47  1  0  0  0  0
 44 70  1  0  0  0  0
 45 73  1  0  0  0  0
 46 69  1  0  0  0  0
 47 68  1  0  0  0  0
 49 61  1  0  0  0  0
 50 62  1  0  0  0  0
 51 62  1  0  0  0  0
 52 63  1  0  0  0  0
 53 64  1  0  0  0  0
 54 64  1  0  0  0  0
 55 64  1  0  0  0  0
 56 75  1  0  0  0  0
 57 59  1  0  0  0  0
 57 62  1  0  0  0  0
 58 63  1  0  0  0  0
 58 67  1  0  0  0  0
 59 82  1  0  0  0  0
 60 64  1  0  0  0  0
 60 74  1  0  0  0  0
 61 75  1  0  0  0  0
 63 85  1  0  0  0  0
 65 68  1  0  0  0  0
 66 67  1  0  0  0  0
M  CHG  1  75   1
M  ISO  4  34 100  59 101  63 100  82 101
M  END
> <Batch ID>
0065

> <Smiles>
CNC(C)C(=O)NC(C(=O)N1Cc2cc([101O:1][101CH2:1]CC(C)(C)c3cc(C)n(C[100C:0](C)(F)[100C:0](=O)N4CCCC(n5nc(-c6ccc(Oc7ccc(F)cc7F)cc6)c(C(N)=O)c5N)C4)n3)ccc2CC1C(=O)NC1CCCc2ccccc21)C(C)(C)C

> <Shape>
0.174

> <Color>
0.084

> <Negative vol penalty>
0.000

$$$$

  -OEChem-04052318073D

 91 99  0     1  0  0  0  0  0999 V2000
  -20.7505   -9.2387   17.1939 C   0  0  0  0  0  0  0  0  0  0  0  0
  -20.4473  -10.5806   16.9870 C   0  0  0  0  0  0  0  0  0  0  0  0
  -27.6896  -28.4548   20.9914 C   0  0  0  0  0  0  0  0  0  0  0  0
  -26.0914  -26.9862   19.9303 C   0  0  0  0  0  0  0  0  0  0  0  0
  -21.4080   -8.8454   18.3587 C   0  0  0  0  0  0  0  0  0  0  0  0
  -20.8005  -11.5299   17.9455 C   0  0  0  0  0  0  0  0  0  0  0  0
  -22.8728  -18.3615   18.5381 C   0  0  0  0  0  0  0  0  0  0  0  0
  -28.6923  -27.5050   20.7959 C   0  0  0  0  0  0  0  0  0  0  0  0
  -27.0941  -26.0364   19.7347 C   0  0  0  0  0  0  0  0  0  0  0  0
  -22.5392  -19.5333   19.2159 C   0  0  0  0  0  0  0  0  0  0  0  0
  -28.7014  -23.6963   21.5709 C   0  0  0  0  0  0  0  0  0  0  0  0
  -28.4033  -22.3676   21.8731 C   0  0  0  0  0  0  0  0  0  0  0  0
  -23.7429  -18.7481   21.1534 C   0  0  0  0  0  0  0  0  0  0  0  0
  -28.8552  -21.7453   19.5827 C   0  0  0  0  0  0  0  0  0  0  0  0
  -20.9735  -26.0939   21.7454 C   0  0  0  0  0  0  0  0  0  0  0  0
  -26.3892  -28.1953   20.5587 C   0  0  0  0  0  0  0  0  0  0  0  0
  -24.9813  -30.2130   19.8847 C   0  0  0  0  0  0  0  0  0  0  0  0
  -21.7781   -9.7915   19.3275 C   0  0  0  0  0  0  0  0  0  0  0  0
  -23.6361  -17.3678   19.1677 C   0  0  0  0  0  0  0  0  0  0  0  0
  -21.4624  -11.1486   19.1250 C   0  0  0  0  0  0  0  0  0  0  0  0
  -24.0870  -17.5658   20.4805 C   0  0  0  0  0  0  0  0  0  0  0  0
  -28.3945  -26.2958   20.1675 C   0  0  0  0  0  0  0  0  0  0  0  0
  -22.9718  -19.7255   20.5247 C   0  0  0  0  0  0  0  0  0  0  0  0
  -29.0763  -24.0495   20.2746 C   0  0  0  0  0  0  0  0  0  0  0  0
  -28.4802  -21.3921   20.8790 C   0  0  0  0  0  0  0  0  0  0  0  0
  -29.1532  -23.0740   19.2805 C   0  0  0  0  0  0  0  0  0  0  0  0
  -25.3529  -29.1758   20.7609 C   0  0  0  0  0  0  0  0  0  0  0  0
  -19.7381  -27.4773   22.7896 C   0  0  0  0  0  0  0  0  0  0  0  0
  -20.1258  -26.5499   23.7278 C   0  0  0  0  0  0  0  0  0  0  0  0
  -23.9565  -30.8589   20.5322 C   0  0  0  0  0  0  0  0  0  0  0  0
  -25.5146  -30.5614   18.6002 C   0  0  0  0  0  0  0  0  0  0  0  0
  -23.1459  -14.3294   19.9625 C   0  0  0  0  0  0  0  0  0  0  0  0
  -26.2793  -14.4473   20.7932 C   0  0  0  0  0  0  0  0  0  0  0  0
  -19.4449  -29.6239   23.9770 C   0  0  0  0  0  0  0  0  0  0  0  0
  -28.9559  -16.3403   21.7414 C   0  0  0  0  0  0  0  0  0  0  0  0
  -22.4453   -9.3124   20.5924 C   0  0  0  0  0  0  0  0  0  0  0  0
  -24.0100  -16.1211   18.4137 C   0  0  0  0  0  0  0  0  0  0  0  0
  -24.9260  -16.5386   21.1943 C   0  0  0  0  0  0  0  0  0  0  0  0
  -23.1186  -10.4289   21.3863 C   0  0  0  0  0  0  0  0  0  0  0  0
  -22.4301  -31.1715   25.2154 C   0  0  0  0  0  0  0  0  0  0  0  0
  -22.1892  -11.6322   21.5090 C   0  0  0  0  0  0  0  0  0  0  0  0
  -23.4608  -30.8885   24.1232 C   0  0  0  0  0  0  0  0  0  0  0  0
  -21.4495  -30.0134   25.3713 C   0  0  0  0  0  0  0  0  0  0  0  0
  -21.7823  -29.3484   23.0115 C   0  0  0  0  0  0  0  0  0  0  0  0
  -21.8513  -12.2112   20.1299 C   0  0  1  0  0  0  0  0  0  0  0  0
  -24.3581  -14.9511   19.3288 C   0  0  1  0  0  0  0  0  0  0  0  0
  -22.7736  -30.5065   22.8002 C   0  0  2  0  0  0  0  0  0  0  0  0
  -23.9656  -25.5379   23.1226 C   0  0  0  0  0  0  0  0  0  0  0  0
  -31.3358  -16.8800   22.3265 C   0  0  0  0  0  0  0  0  0  0  0  0
  -17.4582  -28.2602   23.4836 C   0  0  0  0  0  0  0  0  0  0  0  0
  -18.6443  -29.5571   21.7102 C   0  0  0  0  0  0  0  0  0  0  0  0
  -25.4623  -13.3935   23.5377 C   0  0  0  0  0  0  0  0  0  0  0  0
  -27.6970  -14.1177   24.4038 C   0  0  0  0  0  0  0  0  0  0  0  0
  -27.5565  -12.3855   22.6142 C   0  0  0  0  0  0  0  0  0  0  0  0
  -19.5084  -22.9236   21.5467 C   0  0  0  0  0  0  0  0  0  0  0  0
  -20.5078  -21.2814   23.1553 C   0  0  0  0  0  0  0  0  0  0  0  0
  -20.8787  -23.7688   24.7979 C   0  0  0  0  0  0  0  0  0  0  0  0
  -29.6510  -16.8768   18.9151 C   0  0  0  0  0  0  0  0  0  0  0  0
  -23.0463  -24.8606   24.1373 C   0  0  0  0  0  0  0  0  0  0  0  0
  -21.8963  -23.3396   22.4966 C   0  0  0  0  0  0  0  0  0  0  0  0
  -21.4154  -21.4963   20.8370 C   0  0  0  0  0  0  0  0  0  1  0  0
  -27.0397  -14.7952   22.0501 C   0  0  1  0  0  0  0  0  0  0  0  0
  -30.3909  -16.3747   21.2473 C   0  0  2  0  0  0  0  0  0  0  0  0
  -18.8765  -28.6565   22.9696 C   0  0  0  0  0  0  0  0  0  0  0  0
  -19.8288  -26.4227   25.1657 C   0  0  0  0  0  0  0  0  0  0  0  0
  -26.9215  -13.6917   23.1389 C   0  0  0  0  0  0  0  0  0  0  0  0
  -20.8209  -22.2955   22.0338 C   0  0  0  0  0  0  0  0  0  0  0  0
  -21.6253  -24.4237   23.6147 C   0  0  1  0  0  0  0  0  0  0  0  0
  -20.2688  -27.1876   21.5576 N   0  0  0  0  0  0  0  0  0  0  0  0
  -24.6237  -29.1600   21.8799 N   0  0  0  0  0  0  0  0  0  0  0  0
  -20.9164  -25.6699   23.0440 N   0  0  0  0  0  0  0  0  0  0  0  0
  -23.7837  -30.1954   21.7112 N   0  0  0  0  0  0  0  0  0  0  0  0
  -25.2601  -15.3336   20.4170 N   0  0  0  0  0  0  0  0  0  0  0  0
  -20.8348  -29.6663   24.0889 N   0  0  0  0  0  0  0  0  0  0  0  0
  -23.1956  -31.9241   20.2024 N   0  0  0  0  0  0  0  0  0  0  0  0
  -26.5659  -29.7927   18.0824 N   0  0  0  0  0  0  0  0  0  0  0  0
  -22.9552  -13.0019   19.6295 N   0  0  0  0  0  0  0  0  0  0  0  0
  -28.4087  -15.0793   21.6334 N   0  0  0  0  0  0  0  0  0  0  0  0
  -30.5093  -17.2703   20.0620 N   0  3  0  0  0  0  0  0  0  0  0  0
  -25.0829  -31.5360   17.9387 O   0  0  0  0  0  0  0  0  0  0  0  0
  -22.4368  -15.0037   20.7003 O   0  0  0  0  0  0  0  0  0  0  0  0
  -26.5833  -13.4306   20.1644 O   0  0  0  0  0  0  0  0  0  0  0  0
  -18.6752  -30.3224   24.6418 O   0  0  0  0  0  0  0  0  0  0  0  0
  -28.3794  -17.3320   22.1826 O   0  0  0  0  0  0  0  0  0  0  0  0
  -29.3727  -25.3689   19.9763 O   0  0  0  0  0  0  0  0  0  0  0  0
  -22.6448  -20.8758   21.1933 O   0  0  0  0  0  0  0  0  0  1  0  0
  -28.1954  -20.1159   21.1697 F   0  0  0  0  0  0  0  0  0  0  0  0
  -29.5140  -23.4071   18.0336 F   0  0  0  0  0  0  0  0  0  0  0  0
  -19.0153  -27.4103   25.6643 F   0  0  0  0  0  0  0  0  0  0  0  0
  -19.1949  -25.2544   25.5099 F   0  0  0  0  0  0  0  0  0  0  0  0
  -20.9490  -26.4595   25.9567 F   0  0  0  0  0  0  0  0  0  0  0  0
  1  2  1  0  0  0  0
  1  5  2  0  0  0  0
  2  6  2  0  0  0  0
  3  8  2  0  0  0  0
  3 16  1  0  0  0  0
  4  9  1  0  0  0  0
  4 16  2  0  0  0  0
  5 18  1  0  0  0  0
  6 20  1  0  0  0  0
  7 10  2  0  0  0  0
  7 19  1  0  0  0  0
  8 22  1  0  0  0  0
  9 22  2  0  0  0  0
 10 23  1  0  0  0  0
 11 12  2  0  0  0  0
 11 24  1  0  0  0  0
 12 25  1  0  0  0  0
 13 21  1  0  0  0  0
 13 23  2  0  0  0  0
 14 25  2  0  0  0  0
 14 26  1  0  0  0  0
 15 69  2  0  0  0  0
 15 71  1  0  0  0  0
 16 27  1  0  0  0  0
 17 27  1  0  0  0  0
 17 30  2  0  0  0  0
 17 31  1  0  0  0  0
 18 20  2  0  0  0  0
 18 36  1  0  0  0  0
 19 21  2  0  0  0  0
 19 37  1  0  0  0  0
 20 45  1  0  0  0  0
 21 38  1  0  0  0  0
 22 85  1  0  0  0  0
 23 86  1  0  0  0  0
 24 26  2  0  0  0  0
 24 85  1  0  0  0  0
 25 87  1  0  0  0  0
 26 88  1  0  0  0  0
 27 70  2  0  0  0  0
 28 29  2  0  0  0  0
 28 64  1  0  0  0  0
 28 69  1  0  0  0  0
 29 65  1  0  0  0  0
 29 71  1  0  0  0  0
 30 72  1  0  0  0  0
 30 75  1  0  0  0  0
 31 76  1  0  0  0  0
 31 80  2  0  0  0  0
 32 46  1  0  0  0  0
 32 77  1  0  0  0  0
 32 81  2  0  0  0  0
 33 62  1  0  0  0  0
 33 73  1  0  0  0  0
 33 82  2  0  0  0  0
 34 64  1  0  0  0  0
 34 74  1  0  0  0  0
 34 83  2  0  0  0  0
 35 63  1  0  0  0  0
 35 78  1  0  0  0  0
 35 84  2  0  0  0  0
 36 39  1  0  0  0  0
 37 46  1  0  0  0  0
 38 73  1  0  0  0  0
 39 41  1  0  0  0  0
 40 42  1  0  0  0  0
 40 43  1  0  0  0  0
 41 45  1  0  0  0  0
 42 47  1  0  0  0  0
 43 74  1  0  0  0  0
 44 47  1  0  0  0  0
 44 74  1  0  0  0  0
 45 77  1  0  0  0  0
 46 73  1  0  0  0  0
 47 72  1  0  0  0  0
 48 59  1  0  0  0  0
 49 63  1  0  0  0  0
 50 64  1  0  0  0  0
 51 64  1  0  0  0  0
 52 66  1  0  0  0  0
 53 66  1  0  0  0  0
 54 66  1  0  0  0  0
 55 67  1  0  0  0  0
 56 67  1  0  0  0  0
 57 68  1  0  0  0  0
 58 79  1  0  0  0  0
 59 68  1  0  0  0  0
 60 67  1  0  0  0  0
 60 68  1  0  0  0  0
 61 67  1  0  0  0  0
 61 86  1  0  0  0  0
 62 66  1  0  0  0  0
 62 78  1  0  0  0  0
 63 79  1  0  0  0  0
 65 89  1  0  0  0  0
 65 90  1  0  0  0  0
 65 91  1  0  0  0  0
 68 71  1  0  0  0  0
 70 72  1  0  0  0  0
M  CHG  1  79   1
M  ISO  4  34 100  61 101  64 100  86 101
M  END
> <Batch ID>
0065

> <Smiles>
CCC(C)(CC(C)(C)[101CH2:1][101O:1]c1ccc2c(c1)CN(C(=O)C(NC(=O)C(C)NC)C(C)(C)C)C(C(=O)NC1CCCc3ccccc31)C2)n1cnc([100C:0](C)(C)[100C:0](=O)N2CCCC(n3nc(-c4ccc(Oc5ccc(F)cc5F)cc4)c(C(N)=O)c3N)C2)c1C(F)(F)F

> <Shape>
0.272

> <Color>
0.039

> <Negative vol penalty>
0.000

$$$$

  -OEChem-04052318072D

  0  0  0     0  0  0  0  0  0999 V2000
M  END
$$$$

  -OEChem-04052318073D

 85 93  0     1  0  0  0  0  0999 V2000
  -32.2560  -14.4627   21.1558 C   0  0  0  0  0  0  0  0  0  0  0  0
  -31.3487  -15.4558   21.5107 C   0  0  0  0  0  0  0  0  0  0  0  0
  -26.0105  -24.3434   18.8005 C   0  0  0  0  0  0  0  0  0  0  0  0
  -27.8389  -25.9000   18.5339 C   0  0  0  0  0  0  0  0  0  0  0  0
  -31.8331  -13.3732   20.3955 C   0  0  0  0  0  0  0  0  0  0  0  0
  -30.0181  -15.3605   21.1045 C   0  0  0  0  0  0  0  0  0  0  0  0
  -26.7666  -16.4512   24.8305 C   0  0  0  0  0  0  0  0  0  0  0  0
  -26.9193  -23.2873   18.8667 C   0  0  0  0  0  0  0  0  0  0  0  0
  -28.7477  -24.8439   18.6001 C   0  0  0  0  0  0  0  0  0  0  0  0
  -26.5709  -17.7985   25.1307 C   0  0  0  0  0  0  0  0  0  0  0  0
  -29.0000  -21.9316   21.1613 C   0  0  0  0  0  0  0  0  0  0  0  0
  -28.8090  -20.9734   22.1568 C   0  0  0  0  0  0  0  0  0  0  0  0
  -24.5255  -17.7802   23.8518 C   0  0  0  0  0  0  0  0  0  0  0  0
  -28.5865  -19.2616   20.4664 C   0  0  0  0  0  0  0  0  0  0  0  0
  -25.4637  -27.5278   24.6613 C   0  0  0  0  0  0  0  0  0  0  0  0
  -26.4703  -25.6498   18.6341 C   0  0  0  0  0  0  0  0  0  0  0  0
  -24.5026  -26.9187   17.6214 C   0  0  0  0  0  0  0  0  0  0  0  0
  -30.4946  -13.2596   19.9880 C   0  0  0  0  0  0  0  0  0  0  0  0
  -25.8473  -15.7599   24.0283 C   0  0  0  0  0  0  0  0  0  0  0  0
  -29.5773  -14.2692   20.3369 C   0  0  0  0  0  0  0  0  0  0  0  0
  -24.7105  -16.4234   23.5450 C   0  0  0  0  0  0  0  0  0  0  0  0
  -28.2878  -23.5375   18.7665 C   0  0  0  0  0  0  0  0  0  0  0  0
  -25.4517  -18.4640   24.6390 C   0  0  0  0  0  0  0  0  0  0  0  0
  -28.9843  -21.5548   19.8184 C   0  0  0  0  0  0  0  0  0  0  0  0
  -28.6022  -19.6384   21.8093 C   0  0  0  0  0  0  0  0  0  0  0  0
  -28.7775  -20.2199   19.4709 C   0  0  0  0  0  0  0  0  0  0  0  0
  -25.5321  -26.7411   18.5651 C   0  0  0  0  0  0  0  0  0  0  0  0
  -23.9018  -28.0985   17.9868 C   0  0  0  0  0  0  0  0  0  0  0  0
  -23.8254  -28.6683   24.0510 C   0  0  0  0  0  0  0  0  0  0  0  0
  -24.1234  -26.0912   16.5137 C   0  0  0  0  0  0  0  0  0  0  0  0
  -25.9883  -14.2859   21.2156 C   0  0  0  0  0  0  0  0  0  0  0  0
  -22.9492  -13.4247   21.9533 C   0  0  0  0  0  0  0  0  0  0  0  0
  -23.6054  -30.9900   23.2464 C   0  0  0  0  0  0  0  0  0  0  0  0
  -20.0979  -14.0795   23.7105 C   0  0  0  0  0  0  0  0  0  0  0  0
  -30.0948  -12.0875   19.1272 C   0  0  0  0  0  0  0  0  0  0  0  0
  -26.0589  -14.2997   23.7357 C   0  0  0  0  0  0  0  0  0  0  0  0
  -23.6833  -15.7213   22.6964 C   0  0  0  0  0  0  0  0  0  0  0  0
  -28.5853  -11.8721   19.0543 C   0  0  0  0  0  0  0  0  0  0  0  0
  -24.8168  -32.2702   20.1266 C   0  0  0  0  0  0  0  0  0  0  0  0
  -27.8693  -13.1941   18.7965 C   0  0  0  0  0  0  0  0  0  0  0  0
  -25.0709  -31.0123   19.2968 C   0  0  0  0  0  0  0  0  0  0  0  0
  -25.1262  -32.0377   21.6021 C   0  0  0  0  0  0  0  0  0  0  0  0
  -24.6480  -29.6209   21.3729 C   0  0  0  0  0  0  0  0  0  0  0  0
  -28.1202  -14.1888   19.9363 C   0  0  1  0  0  0  0  0  0  0  0  0
  -25.3250  -13.8287   22.4840 C   0  0  1  0  0  0  0  0  0  0  0  0
  -24.3185  -29.8035   19.8808 C   0  0  2  0  0  0  0  0  0  0  0  0
  -17.7692  -13.2195   24.0783 C   0  0  0  0  0  0  0  0  0  0  0  0
  -22.0193  -30.1691   24.9331 C   0  0  0  0  0  0  0  0  0  0  0  0
  -21.8857  -29.4693   22.5402 C   0  0  0  0  0  0  0  0  0  0  0  0
  -22.1028  -14.5695   19.2546 C   0  0  0  0  0  0  0  0  0  0  0  0
  -19.7356  -14.5562   20.0698 C   0  0  0  0  0  0  0  0  0  0  0  0
  -20.9950  -12.4125   19.8665 C   0  0  0  0  0  0  0  0  0  0  0  0
  -24.0127  -25.0583   21.8279 C   0  0  0  0  0  0  0  0  0  0  0  0
  -26.3195  -24.4173   22.5445 C   0  0  0  0  0  0  0  0  0  0  0  0
  -20.5958  -13.6262   26.5925 C   0  0  0  0  0  0  0  0  0  0  0  0
  -25.0723  -21.9969   24.0279 C   0  0  0  0  0  0  0  0  0  0  0  0
  -24.3458  -22.8931   23.0201 C   0  0  0  0  0  0  0  0  0  0  0  0
  -24.5971  -25.0755   24.3156 C   0  0  0  0  0  0  0  0  0  0  0  0
  -24.5603  -20.5626   23.9631 C   0  0  0  0  0  0  0  0  0  1  0  0
  -21.5827  -14.0239   21.7239 C   0  0  1  0  0  0  0  0  0  0  0  0
  -19.2112  -13.1874   24.5605 C   0  0  2  0  0  0  0  0  0  0  0  0
  -22.8966  -29.7425   23.7107 C   0  0  0  0  0  0  0  0  0  0  0  0
  -21.1242  -13.9045   20.2430 C   0  0  0  0  0  0  0  0  0  0  0  0
  -24.8325  -24.3743   22.9441 C   0  0  0  0  0  0  0  0  0  0  0  0
  -25.0446  -28.8190   24.5138 N   0  0  0  0  0  0  0  0  0  0  0  0
  -25.5852  -27.7290   19.4624 N   0  0  0  0  0  0  0  0  0  0  0  0
  -23.5416  -27.3435   23.9320 N   0  0  0  0  0  0  0  0  0  0  0  0
  -24.5804  -26.5876   24.3188 N   0  0  0  0  0  0  0  0  0  0  0  0
  -24.5816  -28.5389   19.0841 N   0  0  0  0  0  0  0  0  0  0  0  0
  -23.9380  -14.2954   22.4326 N   0  0  0  0  0  0  0  0  0  0  0  0
  -24.4099  -30.8677   22.1134 N   0  0  0  0  0  0  0  0  0  0  0  0
  -22.8636  -28.7919   17.4732 N   0  0  0  0  0  0  0  0  0  0  0  0
  -24.7220  -26.3262   15.2684 N   0  0  0  0  0  0  0  0  0  0  0  0
  -27.2972  -13.8635   21.0814 N   0  0  0  0  0  0  0  0  0  0  0  0
  -20.6887  -13.3795   22.6800 N   0  0  0  0  0  0  0  0  0  0  0  0
  -19.2411  -13.6313   25.9828 N   0  3  0  0  0  0  0  0  0  0  0  0
  -23.2665  -25.1814   16.6210 O   0  0  0  0  0  0  0  0  0  0  0  0
  -25.3588  -14.9699   20.4172 O   0  0  0  0  0  0  0  0  0  0  0  0
  -23.1306  -12.2266   21.7226 O   0  0  0  0  0  0  0  0  0  0  0  0
  -23.4451  -32.0415   23.8717 O   0  0  0  0  0  0  0  0  0  0  0  0
  -20.2482  -15.2783   23.9359 O   0  0  0  0  0  0  0  0  0  0  0  0
  -29.1749  -22.5072   18.8313 O   0  0  0  0  0  0  0  0  0  0  0  0
  -25.2586  -19.7793   24.9300 O   0  0  0  0  0  0  0  0  0  1  0  0
  -28.4203  -18.7181   22.7654 F   0  0  0  0  0  0  0  0  0  0  0  0
  -28.7625  -19.8517   18.1825 F   0  0  0  0  0  0  0  0  0  0  0  0
  1  2  1  0  0  0  0
  1  5  2  0  0  0  0
  2  6  2  0  0  0  0
  3  8  2  0  0  0  0
  3 16  1  0  0  0  0
  4  9  1  0  0  0  0
  4 16  2  0  0  0  0
  5 18  1  0  0  0  0
  6 20  1  0  0  0  0
  7 10  2  0  0  0  0
  7 19  1  0  0  0  0
  8 22  1  0  0  0  0
  9 22  2  0  0  0  0
 10 23  1  0  0  0  0
 11 12  2  0  0  0  0
 11 24  1  0  0  0  0
 12 25  1  0  0  0  0
 13 21  1  0  0  0  0
 13 23  2  0  0  0  0
 14 25  2  0  0  0  0
 14 26  1  0  0  0  0
 15 65  2  0  0  0  0
 15 68  1  0  0  0  0
 16 27  1  0  0  0  0
 17 27  1  0  0  0  0
 17 28  2  0  0  0  0
 17 30  1  0  0  0  0
 18 20  2  0  0  0  0
 18 35  1  0  0  0  0
 19 21  2  0  0  0  0
 19 36  1  0  0  0  0
 20 44  1  0  0  0  0
 21 37  1  0  0  0  0
 22 82  1  0  0  0  0
 23 83  1  0  0  0  0
 24 26  2  0  0  0  0
 24 82  1  0  0  0  0
 25 84  1  0  0  0  0
 26 85  1  0  0  0  0
 27 66  2  0  0  0  0
 28 69  1  0  0  0  0
 28 72  1  0  0  0  0
 29 62  1  0  0  0  0
 29 65  1  0  0  0  0
 29 67  2  0  0  0  0
 30 73  1  0  0  0  0
 30 77  2  0  0  0  0
 31 45  1  0  0  0  0
 31 74  1  0  0  0  0
 31 78  2  0  0  0  0
 32 60  1  0  0  0  0
 32 70  1  0  0  0  0
 32 79  2  0  0  0  0
 33 62  1  0  0  0  0
 33 71  1  0  0  0  0
 33 80  2  0  0  0  0
 34 61  1  0  0  0  0
 34 75  1  0  0  0  0
 34 81  2  0  0  0  0
 35 38  1  0  0  0  0
 36 45  1  0  0  0  0
 37 70  1  0  0  0  0
 38 40  1  0  0  0  0
 39 41  1  0  0  0  0
 39 42  1  0  0  0  0
 40 44  1  0  0  0  0
 41 46  1  0  0  0  0
 42 71  1  0  0  0  0
 43 46  1  0  0  0  0
 43 71  1  0  0  0  0
 44 74  1  0  0  0  0
 45 70  1  0  0  0  0
 46 69  1  0  0  0  0
 47 61  1  0  0  0  0
 48 62  1  0  0  0  0
 49 62  1  0  0  0  0
 50 63  1  0  0  0  0
 51 63  1  0  0  0  0
 52 63  1  0  0  0  0
 53 64  1  0  0  0  0
 54 64  1  0  0  0  0
 55 76  1  0  0  0  0
 56 57  1  0  0  0  0
 56 59  1  0  0  0  0
 57 64  1  0  0  0  0
 58 64  1  0  0  0  0
 58 68  1  0  0  0  0
 59 83  1  0  0  0  0
 60 63  1  0  0  0  0
 60 75  1  0  0  0  0
 61 76  1  0  0  0  0
 66 69  1  0  0  0  0
 67 68  1  0  0  0  0
M  CHG  1  76   1
M  ISO  4  33 100  59 101  62 100  83 101
M  END
> <Batch ID>
0065

> <Smiles>
CNC(C)C(=O)NC(C(=O)N1Cc2cc([101O:1][101CH2:1]CCC(C)(C)Cn3cnc([100C:0](C)(C)[100C:0](=O)N4CCCC(n5nc(-c6ccc(Oc7ccc(F)cc7F)cc6)c(C(N)=O)c5N)C4)n3)ccc2CC1C(=O)NC1CCCc2ccccc21)C(C)(C)C

> <Shape>
0.215

> <Color>
0.080

> <Negative vol penalty>
0.000

$$$$

  -OEChem-04052318073D

 88 96  0     1  0  0  0  0  0999 V2000
  -23.4531  -23.5853   18.1854 C   0  0  0  0  0  0  0  0  0  0  0  0
  -24.5534  -22.8614   18.6335 C   0  0  0  0  0  0  0  0  0  0  0  0
  -23.2648  -29.5260   19.4157 C   0  0  0  0  0  0  0  0  0  0  0  0
  -23.6855  -28.9853   21.7325 C   0  0  0  0  0  0  0  0  0  0  0  0
  -22.1664  -23.1962   18.5554 C   0  0  0  0  0  0  0  0  0  0  0  0
  -24.3675  -21.7485   19.4529 C   0  0  0  0  0  0  0  0  0  0  0  0
  -27.2125  -17.8027   18.0449 C   0  0  0  0  0  0  0  0  0  0  0  0
  -21.9068  -29.6753   19.6971 C   0  0  0  0  0  0  0  0  0  0  0  0
  -22.3276  -29.1346   22.0140 C   0  0  0  0  0  0  0  0  0  0  0  0
  -28.5603  -17.8304   18.4005 C   0  0  0  0  0  0  0  0  0  0  0  0
  -19.4930  -27.3299   21.6413 C   0  0  0  0  0  0  0  0  0  0  0  0
  -18.8847  -26.3568   22.4341 C   0  0  0  0  0  0  0  0  0  0  0  0
  -28.0949  -16.3601   20.2554 C   0  0  0  0  0  0  0  0  0  0  0  0
  -18.3094  -28.0446   24.0643 C   0  0  0  0  0  0  0  0  0  0  0  0
  -32.8363  -18.8719   20.4924 C   0  0  0  0  0  0  0  0  0  0  0  0
  -24.1542  -29.1810   20.4333 C   0  0  0  0  0  0  0  0  0  0  0  0
  -26.5508  -30.0217   20.1952 C   0  0  0  0  0  0  0  0  0  0  0  0
  -21.9642  -22.0723   19.3718 C   0  0  0  0  0  0  0  0  0  0  0  0
  -26.2923  -17.0610   18.7997 C   0  0  0  0  0  0  0  0  0  0  0  0
  -23.0770  -21.3447   19.8352 C   0  0  0  0  0  0  0  0  0  0  0  0
  -26.7364  -16.3226   19.9059 C   0  0  0  0  0  0  0  0  0  0  0  0
  -32.6729  -17.8842   21.4328 C   0  0  0  0  0  0  0  0  0  0  0  0
  -21.4382  -29.4796   20.9962 C   0  0  0  0  0  0  0  0  0  0  0  0
  -29.0012  -17.1114   19.5076 C   0  0  0  0  0  0  0  0  0  0  0  0
  -19.5095  -28.6603   22.0599 C   0  0  0  0  0  0  0  0  0  0  0  0
  -18.2928  -26.7141   23.6456 C   0  0  0  0  0  0  0  0  0  0  0  0
  -18.9177  -29.0177   23.2714 C   0  0  0  0  0  0  0  0  0  0  0  0
  -25.5570  -29.0261   20.1431 C   0  0  0  0  0  0  0  0  0  0  0  0
  -33.0359  -18.4929   22.6492 C   0  0  0  0  0  0  0  0  0  0  0  0
  -27.7063  -29.3726   19.8347 C   0  0  0  0  0  0  0  0  0  0  0  0
  -26.4395  -31.4093   20.5388 C   0  0  0  0  0  0  0  0  0  0  0  0
  -23.7065  -17.7665   20.5083 C   0  0  0  0  0  0  0  0  0  0  0  0
  -23.4565  -14.5407   20.7398 C   0  0  0  0  0  0  0  0  0  0  0  0
  -25.0042  -11.5006   20.6444 C   0  0  0  0  0  0  0  0  0  0  0  0
  -29.4916  -23.8722   20.2421 C   0  0  0  0  0  0  0  0  0  0  0  0
  -20.5573  -21.7182   19.7840 C   0  0  0  0  0  0  0  0  0  0  0  0
  -24.8464  -17.0199   18.3872 C   0  0  0  0  0  0  0  0  0  0  0  0
  -25.7924  -15.4942   20.7371 C   0  0  0  0  0  0  0  0  0  0  0  0
  -20.4251  -20.3059   20.3483 C   0  0  0  0  0  0  0  0  0  0  0  0
  -29.2909  -25.6988   17.2263 C   0  0  0  0  0  0  0  0  0  0  0  0
  -21.5316  -20.0301   21.3614 C   0  0  0  0  0  0  0  0  0  0  0  0
  -28.3917  -26.8638   17.6374 C   0  0  0  0  0  0  0  0  0  0  0  0
  -28.8344  -24.3753   17.8428 C   0  0  0  0  0  0  0  0  0  0  0  0
  -27.7818  -25.5876   19.7257 C   0  0  0  0  0  0  0  0  0  0  0  0
  -22.9148  -20.1171   20.7051 C   0  0  1  0  0  0  0  0  0  0  0  0
  -23.9093  -16.6437   19.5307 C   0  0  1  0  0  0  0  0  0  0  0  0
  -28.2540  -26.9391   19.1679 C   0  0  2  0  0  0  0  0  0  0  0  0
  -24.5456   -9.0475   20.9076 C   0  0  0  0  0  0  0  0  0  0  0  0
  -34.0138  -16.6572   24.0703 C   0  0  0  0  0  0  0  0  0  0  0  0
  -31.6282  -17.3812   24.4182 C   0  0  0  0  0  0  0  0  0  0  0  0
  -33.5049  -18.8295   25.1676 C   0  0  0  0  0  0  0  0  0  0  0  0
  -23.3167  -14.8941   23.7672 C   0  0  0  0  0  0  0  0  0  0  0  0
  -23.8161  -12.4523   24.0054 C   0  0  0  0  0  0  0  0  0  0  0  0
  -21.7368  -13.1906   22.8417 C   0  0  0  0  0  0  0  0  0  0  0  0
  -32.9318  -23.2221   19.1956 C   0  0  0  0  0  0  0  0  0  0  0  0
  -29.4339  -21.6931   18.9565 C   0  0  0  0  0  0  0  0  0  0  0  0
  -25.8640  -10.9241   17.8718 C   0  0  0  0  0  0  0  0  0  0  0  0
  -32.2079  -16.4672   21.2005 C   0  0  0  0  0  0  0  0  0  0  0  0
  -33.5821  -21.2612   20.6129 C   0  0  0  0  0  0  0  0  0  0  0  0
  -31.1724  -22.1164   20.6549 C   0  0  0  0  0  0  0  0  0  0  0  0
  -30.6986  -16.3773   21.0029 C   0  0  0  0  0  0  0  0  0  1  0  0
  -23.9713  -13.4945   21.6987 C   0  0  1  0  0  0  0  0  0  0  0  0
  -24.6451  -10.2094   19.9314 C   0  0  2  0  0  0  0  0  0  0  0  0
  -33.0483  -17.8888   23.9930 C   0  0  0  0  0  0  0  0  0  0  0  0
  -23.2280  -13.5249   23.0639 C   0  0  0  0  0  0  0  0  0  0  0  0
  -32.4358  -21.9103   19.8096 C   0  0  1  0  0  0  0  0  0  0  0  0
  -26.0389  -27.8351   19.7781 N   0  0  0  0  0  0  0  0  0  0  0  0
  -33.4024  -19.7684   22.4983 N   0  0  0  0  0  0  0  0  0  0  0  0
  -33.2706  -19.9693   21.1761 N   0  0  0  0  0  0  0  0  0  0  0  0
  -27.3482  -28.0781   19.5975 N   0  0  0  0  0  0  0  0  0  0  0  0
  -24.3874  -15.4912   20.2973 N   0  0  0  0  0  0  0  0  0  0  0  0
  -28.6699  -24.5042   19.2972 N   0  0  0  0  0  0  0  0  0  0  0  0
  -28.9836  -29.7886   19.7005 N   0  0  0  0  0  0  0  0  0  0  0  0
  -25.1781  -31.9128   20.8846 N   0  0  0  0  0  0  0  0  0  0  0  0
  -23.1895  -18.9171   19.9442 N   0  0  0  0  0  0  0  0  0  0  0  0
  -23.8812  -12.2184   20.9975 N   0  0  0  0  0  0  0  0  0  0  0  0
  -30.0556  -22.6395   19.8807 N   0  0  0  0  0  0  0  0  0  0  0  0
  -25.6778   -9.8774   18.9095 N   0  3  0  0  0  0  0  0  0  0  0  0
  -27.4264  -32.1834   20.5232 O   0  0  0  0  0  0  0  0  0  0  0  0
  -23.9962  -17.6008   21.6874 O   0  0  0  0  0  0  0  0  0  0  0  0
  -22.2738  -14.5111   20.3904 O   0  0  0  0  0  0  0  0  0  0  0  0
  -26.1648  -11.8368   20.8691 O   0  0  0  0  0  0  0  0  0  0  0  0
  -29.7042  -24.3770   21.3522 O   0  0  0  0  0  0  0  0  0  0  0  0
  -20.1132  -29.6254   21.2713 O   0  0  0  0  0  0  0  0  0  0  0  0
  -30.3161  -17.1372   19.8572 O   0  0  0  0  0  0  0  0  0  1  0  0
  -17.7074  -25.7798   24.4061 F   0  0  0  0  0  0  0  0  0  0  0  0
  -18.9294  -30.2944   23.6783 F   0  0  0  0  0  0  0  0  0  0  0  0
  -32.1198  -21.0786   18.7718 F   0  0  0  0  0  0  0  0  0  0  0  0
  1  2  1  0  0  0  0
  1  5  2  0  0  0  0
  2  6  2  0  0  0  0
  3  8  2  0  0  0  0
  3 16  1  0  0  0  0
  4  9  1  0  0  0  0
  4 16  2  0  0  0  0
  5 18  1  0  0  0  0
  6 20  1  0  0  0  0
  7 10  2  0  0  0  0
  7 19  1  0  0  0  0
  8 23  1  0  0  0  0
  9 23  2  0  0  0  0
 10 24  1  0  0  0  0
 11 12  2  0  0  0  0
 11 25  1  0  0  0  0
 12 26  1  0  0  0  0
 13 21  1  0  0  0  0
 13 24  2  0  0  0  0
 14 26  2  0  0  0  0
 14 27  1  0  0  0  0
 15 22  2  0  0  0  0
 15 69  1  0  0  0  0
 16 28  1  0  0  0  0
 17 28  1  0  0  0  0
 17 30  2  0  0  0  0
 17 31  1  0  0  0  0
 18 20  2  0  0  0  0
 18 36  1  0  0  0  0
 19 21  2  0  0  0  0
 19 37  1  0  0  0  0
 20 45  1  0  0  0  0
 21 38  1  0  0  0  0
 22 29  1  0  0  0  0
 22 58  1  0  0  0  0
 23 84  1  0  0  0  0
 24 85  1  0  0  0  0
 25 27  2  0  0  0  0
 25 84  1  0  0  0  0
 26 86  1  0  0  0  0
 27 87  1  0  0  0  0
 28 67  2  0  0  0  0
 29 64  1  0  0  0  0
 29 68  2  0  0  0  0
 30 70  1  0  0  0  0
 30 73  1  0  0  0  0
 31 74  1  0  0  0  0
 31 79  2  0  0  0  0
 32 46  1  0  0  0  0
 32 75  1  0  0  0  0
 32 80  2  0  0  0  0
 33 62  1  0  0  0  0
 33 71  1  0  0  0  0
 33 81  2  0  0  0  0
 34 63  1  0  0  0  0
 34 76  1  0  0  0  0
 34 82  2  0  0  0  0
 35 72  1  0  0  0  0
 35 77  1  0  0  0  0
 35 83  2  0  0  0  0
 36 39  1  0  0  0  0
 37 46  1  0  0  0  0
 38 71  1  0  0  0  0
 39 41  1  0  0  0  0
 40 42  1  0  0  0  0
 40 43  1  0  0  0  0
 41 45  1  0  0  0  0
 42 47  1  0  0  0  0
 43 72  1  0  0  0  0
 44 47  1  0  0  0  0
 44 72  1  0  0  0  0
 45 75  1  0  0  0  0
 46 71  1  0  0  0  0
 47 70  1  0  0  0  0
 48 63  1  0  0  0  0
 49 64  1  0  0  0  0
 50 64  1  0  0  0  0
 51 64  1  0  0  0  0
 52 65  1  0  0  0  0
 53 65  1  0  0  0  0
 54 65  1  0  0  0  0
 55 66  1  0  0  0  0
 56 77  1  0  0  0  0
 57 78  1  0  0  0  0
 58 61  1  0  0  0  0
 59 66  1  0  0  0  0
 59 69  1  0  0  0  0
 60 66  1  0  0  0  0
 60 77  1  0  0  0  0
 61 85  1  0  0  0  0
 62 65  1  0  0  0  0
 62 76  1  0  0  0  0
 63 78  1  0  0  0  0
 66 88  1  0  0  0  0
 67 70  1  0  0  0  0
 68 69  1  0  0  0  0
M  CHG  1  78   1
M  ISO  4  35 100  61 101  77 100  85 101
M  END
> <Batch ID>
0065

> <Smiles>
CNC(C)C(=O)NC(C(=O)N1Cc2cc([101O:1][101CH2:1]Cc3cn(CC(C)(F)C[100N:0](C)[100C:0](=O)N4CCCC(n5nc(-c6ccc(Oc7ccc(F)cc7F)cc6)c(C(N)=O)c5N)C4)nc3C(C)(C)C)ccc2CC1C(=O)NC1CCCc2ccccc21)C(C)(C)C

> <Shape>
0.230

> <Color>
0.073

> <Negative vol penalty>
0.000

$$$$

  -OEChem-04052318073D

 91 99  0     1  0  0  0  0  0999 V2000
  -30.0232  -36.3297   24.0071 C   0  0  0  0  0  0  0  0  0  0  0  0
  -29.9882  -34.9932   23.6222 C   0  0  0  0  0  0  0  0  0  0  0  0
  -24.9735  -16.9085   23.3397 C   0  0  0  0  0  0  0  0  0  0  0  0
  -24.8416  -18.1234   21.2556 C   0  0  0  0  0  0  0  0  0  0  0  0
  -28.9916  -36.8580   24.7820 C   0  0  0  0  0  0  0  0  0  0  0  0
  -28.9218  -34.1841   24.0129 C   0  0  0  0  0  0  0  0  0  0  0  0
  -27.1721  -31.3134   20.2258 C   0  0  0  0  0  0  0  0  0  0  0  0
  -24.7858  -18.0974   24.0446 C   0  0  0  0  0  0  0  0  0  0  0  0
  -24.6538  -19.3123   21.9605 C   0  0  0  0  0  0  0  0  0  0  0  0
  -27.9067  -30.1746   19.8981 C   0  0  0  0  0  0  0  0  0  0  0  0
  -22.1251  -20.8877   23.5556 C   0  0  0  0  0  0  0  0  0  0  0  0
  -21.1251  -21.7522   23.1105 C   0  0  0  0  0  0  0  0  0  0  0  0
  -26.3531  -28.8193   21.1506 C   0  0  0  0  0  0  0  0  0  0  0  0
  -22.7763  -23.4801   22.7567 C   0  0  0  0  0  0  0  0  0  0  0  0
  -25.0014  -16.9215   21.9451 C   0  0  0  0  0  0  0  0  0  0  0  0
  -24.2004  -14.8078   20.7627 C   0  0  0  0  0  0  0  0  0  0  0  0
  -27.9073  -36.0574   25.1743 C   0  0  0  0  0  0  0  0  0  0  0  0
  -26.0266  -31.2148   21.0287 C   0  0  0  0  0  0  0  0  0  0  0  0
  -27.8754  -34.7019   24.7949 C   0  0  0  0  0  0  0  0  0  0  0  0
  -25.6043  -29.9580   21.4849 C   0  0  0  0  0  0  0  0  0  0  0  0
  -24.6259  -19.2993   23.3551 C   0  0  0  0  0  0  0  0  0  0  0  0
  -27.4989  -28.9277   20.3629 C   0  0  0  0  0  0  0  0  0  0  0  0
  -23.4507  -21.3193   23.6013 C   0  0  0  0  0  0  0  0  0  0  0  0
  -21.4507  -23.0484   22.7111 C   0  0  0  0  0  0  0  0  0  0  0  0
  -23.7763  -22.6155   23.2018 C   0  0  0  0  0  0  0  0  0  0  0  0
  -25.1958  -15.6939   21.2164 C   0  0  0  0  0  0  0  0  0  0  0  0
  -24.8951  -13.8043   20.1327 C   0  0  0  0  0  0  0  0  0  0  0  0
  -29.7133  -17.7034   19.2620 C   0  0  0  0  0  0  0  0  0  0  0  0
  -30.2144  -16.1115   18.0083 C   0  0  0  0  0  0  0  0  0  0  0  0
  -22.7752  -14.8850   20.8984 C   0  0  0  0  0  0  0  0  0  0  0  0
  -25.1738  -32.3569   23.8698 C   0  0  0  0  0  0  0  0  0  0  0  0
  -22.3123  -31.0319   23.1092 C   0  0  0  0  0  0  0  0  0  0  0  0
  -30.3330  -13.6807   17.5781 C   0  0  0  0  0  0  0  0  0  0  0  0
  -20.5840  -28.7083   21.3035 C   0  0  0  0  0  0  0  0  0  0  0  0
  -26.8391  -36.6610   26.0514 C   0  0  0  0  0  0  0  0  0  0  0  0
  -25.2301  -32.4493   21.3510 C   0  0  0  0  0  0  0  0  0  0  0  0
  -24.3703  -29.7958   22.3332 C   0  0  0  0  0  0  0  0  0  0  0  0
  -25.5582  -35.8327   26.1088 C   0  0  0  0  0  0  0  0  0  0  0  0
  -29.1068  -11.5510   20.1859 C   0  0  0  0  0  0  0  0  0  0  0  0
  -25.8846  -34.3596   26.3328 C   0  0  0  0  0  0  0  0  0  0  0  0
  -27.8912  -12.3051   20.7235 C   0  0  0  0  0  0  0  0  0  0  0  0
  -30.2116  -12.5094   19.7524 C   0  0  0  0  0  0  0  0  0  0  0  0
  -28.5558  -14.2896   19.2933 C   0  0  0  0  0  0  0  0  0  0  0  0
  -26.7233  -33.7986   25.1781 C   0  0  1  0  0  0  0  0  0  0  0  0
  -24.3701  -32.2959   22.6018 C   0  0  1  0  0  0  0  0  0  0  0  0
  -27.4040  -13.3596   19.7139 C   0  0  2  0  0  0  0  0  0  0  0  0
  -33.6162  -16.2866   18.6100 C   0  0  0  0  0  0  0  0  0  0  0  0
  -18.2608  -27.8398   20.9218 C   0  0  0  0  0  0  0  0  0  0  0  0
  -31.5409  -15.2124   16.0784 C   0  0  0  0  0  0  0  0  0  0  0  0
  -29.0572  -14.9696   15.9974 C   0  0  0  0  0  0  0  0  0  0  0  0
  -22.4301  -29.5523   25.7751 C   0  0  0  0  0  0  0  0  0  0  0  0
  -20.6317  -28.0293   24.9298 C   0  0  0  0  0  0  0  0  0  0  0  0
  -20.1781  -30.4685   25.1891 C   0  0  0  0  0  0  0  0  0  0  0  0
  -29.0991  -22.9961   18.1827 C   0  0  0  0  0  0  0  0  0  0  0  0
  -30.6154  -23.0476   20.1533 C   0  0  0  0  0  0  0  0  0  0  0  0
  -28.1990  -23.8126   21.9755 C   0  0  0  0  0  0  0  0  0  0  0  0
  -26.6930  -23.7306   20.0014 C   0  0  0  0  0  0  0  0  0  0  0  0
  -20.6559  -29.4416   18.4371 C   0  0  0  0  0  0  0  0  0  0  0  0
  -28.9386  -18.8561   19.8499 C   0  0  0  0  0  0  0  0  0  0  0  0
  -29.5080  -20.2370   19.4905 C   0  0  0  0  0  0  0  0  0  0  0  0
  -28.6891  -21.3919   20.0969 C   0  0  0  0  0  0  0  0  0  0  0  0
  -28.5868  -25.4075   20.0203 C   0  0  0  0  0  0  0  0  0  0  0  0
  -32.4004  -15.5383   19.1291 C   0  0  0  0  0  0  0  0  0  0  0  0
  -27.7429  -26.5697   20.5530 C   0  0  0  0  0  0  0  0  0  1  0  0
  -21.6737  -29.6788   23.3098 C   0  0  1  0  0  0  0  0  0  0  0  0
  -19.3275  -28.8198   20.4589 C   0  0  2  0  0  0  0  0  0  0  0  0
  -30.2748  -15.0618   16.9754 C   0  0  0  0  0  0  0  0  0  0  0  0
  -21.2528  -29.4352   24.7866 C   0  0  0  0  0  0  0  0  0  0  0  0
  -29.1380  -22.8509   19.7269 C   0  0  0  0  0  0  0  0  0  0  0  0
  -28.1685  -23.9479   20.4326 C   0  0  0  0  0  0  0  0  0  0  0  0
  -26.4291  -15.2888   20.9016 N   0  0  0  0  0  0  0  0  0  0  0  0
  -29.2639  -17.0003   18.1812 N   0  0  0  0  0  0  0  0  0  0  0  0
  -30.8822  -17.3056   19.7688 N   0  0  0  0  0  0  0  0  0  0  0  0
  -26.2131  -14.1371   20.2434 N   0  0  0  0  0  0  0  0  0  0  0  0
  -31.1811  -16.2864   18.9489 N   0  0  0  0  0  0  0  0  0  0  0  0
  -23.6287  -31.0333   22.6265 N   0  0  0  0  0  0  0  0  0  0  0  0
  -29.7036  -13.5090   18.8111 N   0  0  0  0  0  0  0  0  0  0  0  0
  -24.5011  -12.6785   19.5006 N   0  0  0  0  0  0  0  0  0  0  0  0
  -22.2269  -15.9836   21.5744 N   0  0  0  0  0  0  0  0  0  0  0  0
  -25.8857  -33.5306   24.0288 N   0  0  0  0  0  0  0  0  0  0  0  0
  -20.5738  -29.6009   22.3544 N   0  0  0  0  0  0  0  0  0  0  0  0
  -19.6376  -28.5362   19.0291 N   0  3  0  0  0  0  0  0  0  0  0  0
  -22.0114  -13.9976   20.4483 O   0  0  0  0  0  0  0  0  0  0  0  0
  -25.1487  -31.4100   24.6473 O   0  0  0  0  0  0  0  0  0  0  0  0
  -21.6646  -32.0502   23.3644 O   0  0  0  0  0  0  0  0  0  0  0  0
  -30.9183  -12.7819   16.9683 O   0  0  0  0  0  0  0  0  0  0  0  0
  -21.4827  -27.9068   21.0579 O   0  0  0  0  0  0  0  0  0  0  0  0
  -24.4425  -20.4595   24.0426 O   0  0  0  0  0  0  0  0  0  0  0  0
  -28.2200  -27.8063   20.0427 O   0  0  0  0  0  0  0  0  0  1  0  0
  -20.4904  -23.8780   22.2822 F   0  0  0  0  0  0  0  0  0  0  0  0
  -25.0483  -23.0354   23.2424 F   0  0  0  0  0  0  0  0  0  0  0  0
  1  2  1  0  0  0  0
  1  5  2  0  0  0  0
  2  6  2  0  0  0  0
  3  8  2  0  0  0  0
  3 15  1  0  0  0  0
  4  9  1  0  0  0  0
  4 15  2  0  0  0  0
  5 17  1  0  0  0  0
  6 19  1  0  0  0  0
  7 10  2  0  0  0  0
  7 18  1  0  0  0  0
  8 21  1  0  0  0  0
  9 21  2  0  0  0  0
 10 22  1  0  0  0  0
 11 12  2  0  0  0  0
 11 23  1  0  0  0  0
 12 24  1  0  0  0  0
 13 20  1  0  0  0  0
 13 22  2  0  0  0  0
 14 24  2  0  0  0  0
 14 25  1  0  0  0  0
 15 26  1  0  0  0  0
 16 26  1  0  0  0  0
 16 27  2  0  0  0  0
 16 30  1  0  0  0  0
 17 19  2  0  0  0  0
 17 35  1  0  0  0  0
 18 20  2  0  0  0  0
 18 36  1  0  0  0  0
 19 44  1  0  0  0  0
 20 37  1  0  0  0  0
 21 88  1  0  0  0  0
 22 89  1  0  0  0  0
 23 25  2  0  0  0  0
 23 88  1  0  0  0  0
 24 90  1  0  0  0  0
 25 91  1  0  0  0  0
 26 71  2  0  0  0  0
 27 74  1  0  0  0  0
 27 78  1  0  0  0  0
 28 59  1  0  0  0  0
 28 72  1  0  0  0  0
 28 73  2  0  0  0  0
 29 67  1  0  0  0  0
 29 72  2  0  0  0  0
 29 75  1  0  0  0  0
 30 79  1  0  0  0  0
 30 83  2  0  0  0  0
 31 45  1  0  0  0  0
 31 80  1  0  0  0  0
 31 84  2  0  0  0  0
 32 65  1  0  0  0  0
 32 76  1  0  0  0  0
 32 85  2  0  0  0  0
 33 67  1  0  0  0  0
 33 77  1  0  0  0  0
 33 86  2  0  0  0  0
 34 66  1  0  0  0  0
 34 81  1  0  0  0  0
 34 87  2  0  0  0  0
 35 38  1  0  0  0  0
 36 45  1  0  0  0  0
 37 76  1  0  0  0  0
 38 40  1  0  0  0  0
 39 41  1  0  0  0  0
 39 42  1  0  0  0  0
 40 44  1  0  0  0  0
 41 46  1  0  0  0  0
 42 77  1  0  0  0  0
 43 46  1  0  0  0  0
 43 77  1  0  0  0  0
 44 80  1  0  0  0  0
 45 76  1  0  0  0  0
 46 74  1  0  0  0  0
 47 63  1  0  0  0  0
 48 66  1  0  0  0  0
 49 67  1  0  0  0  0
 50 67  1  0  0  0  0
 51 68  1  0  0  0  0
 52 68  1  0  0  0  0
 53 68  1  0  0  0  0
 54 69  1  0  0  0  0
 55 69  1  0  0  0  0
 56 70  1  0  0  0  0
 57 70  1  0  0  0  0
 58 82  1  0  0  0  0
 59 60  1  0  0  0  0
 60 61  1  0  0  0  0
 61 69  1  0  0  0  0
 62 64  1  0  0  0  0
 62 70  1  0  0  0  0
 63 75  1  0  0  0  0
 64 89  1  0  0  0  0
 65 68  1  0  0  0  0
 65 81  1  0  0  0  0
 66 82  1  0  0  0  0
 69 70  1  0  0  0  0
 71 74  1  0  0  0  0
 73 75  1  0  0  0  0
M  CHG  1  82   1
M  ISO  4  33 100  64 101  67 100  89 101
M  END
> <Batch ID>
0065

> <Smiles>
CCn1nc(CCCC(C)(C)C(C)(C)C[101CH2:1][101O:1]c2ccc3c(c2)CN(C(=O)C(NC(=O)C(C)NC)C(C)(C)C)C(C(=O)NC2CCCc4ccccc42)C3)nc1[100C:0](C)(C)[100C:0](=O)N1CCCC(n2nc(-c3ccc(Oc4ccc(F)cc4F)cc3)c(C(N)=O)c2N)C1

> <Shape>
0.275

> <Color>
0.075

> <Negative vol penalty>
0.000

$$$$

  -OEChem-04052318073D

 88 96  0     1  0  0  0  0  0999 V2000
  -28.4166  -32.4265   26.7880 C   0  0  0  0  0  0  0  0  0  0  0  0
  -28.4002  -31.2668   26.0197 C   0  0  0  0  0  0  0  0  0  0  0  0
  -24.3367  -13.9287   24.0298 C   0  0  0  0  0  0  0  0  0  0  0  0
  -23.3319  -15.5371   22.5330 C   0  0  0  0  0  0  0  0  0  0  0  0
  -27.2236  -33.0895   27.0728 C   0  0  0  0  0  0  0  0  0  0  0  0
  -27.1906  -30.7689   25.5365 C   0  0  0  0  0  0  0  0  0  0  0  0
  -27.4690  -29.3653   20.6788 C   0  0  0  0  0  0  0  0  0  0  0  0
  -23.7521  -14.5762   25.1181 C   0  0  0  0  0  0  0  0  0  0  0  0
  -22.7472  -16.1846   23.6213 C   0  0  0  0  0  0  0  0  0  0  0  0
  -28.0749  -28.1402   20.4038 C   0  0  0  0  0  0  0  0  0  0  0  0
  -23.6978  -18.3530   26.0349 C   0  0  0  0  0  0  0  0  0  0  0  0
  -23.7693  -19.7454   26.0755 C   0  0  0  0  0  0  0  0  0  0  0  0
  -25.8997  -27.1193   20.1900 C   0  0  0  0  0  0  0  0  0  0  0  0
  -21.3564  -19.8692   26.0765 C   0  0  0  0  0  0  0  0  0  0  0  0
  -28.6379  -18.0755   19.1825 C   0  0  0  0  0  0  0  0  0  0  0  0
  -26.5301  -18.7180   19.2125 C   0  0  0  0  0  0  0  0  0  0  0  0
  -24.1267  -14.4092   22.7372 C   0  0  0  0  0  0  0  0  0  0  0  0
  -24.1820  -12.6910   20.8524 C   0  0  0  0  0  0  0  0  0  0  0  0
  -25.9998  -32.6048   26.5848 C   0  0  0  0  0  0  0  0  0  0  0  0
  -26.0717  -29.4744   20.7224 C   0  0  0  0  0  0  0  0  0  0  0  0
  -25.9800  -31.4253   25.8162 C   0  0  0  0  0  0  0  0  0  0  0  0
  -25.2786  -28.3475   20.4633 C   0  0  0  0  0  0  0  0  0  0  0  0
  -22.9573  -15.7042   24.9139 C   0  0  0  0  0  0  0  0  0  0  0  0
  -27.2903  -27.0163   20.1622 C   0  0  0  0  0  0  0  0  0  0  0  0
  -22.4557  -17.7186   26.0151 C   0  0  0  0  0  0  0  0  0  0  0  0
  -22.5986  -20.5035   26.0963 C   0  0  0  0  0  0  0  0  0  0  0  0
  -21.2850  -18.4767   26.0359 C   0  0  0  0  0  0  0  0  0  0  0  0
  -24.7309  -13.7411   21.6126 C   0  0  0  0  0  0  0  0  0  0  0  0
  -27.9308  -17.5295   18.1373 C   0  0  0  0  0  0  0  0  0  0  0  0
  -25.1405  -12.4129   19.9087 C   0  0  0  0  0  0  0  0  0  0  0  0
  -22.9187  -12.0265   20.9871 C   0  0  0  0  0  0  0  0  0  0  0  0
  -23.9513  -30.2569   22.9575 C   0  0  0  0  0  0  0  0  0  0  0  0
  -21.8568  -30.0561   20.4887 C   0  0  0  0  0  0  0  0  0  0  0  0
  -29.5495  -15.7542   17.5619 C   0  0  0  0  0  0  0  0  0  0  0  0
  -21.1179  -28.7750   17.4131 C   0  0  0  0  0  0  0  0  0  0  0  0
  -24.7310  -33.3296   26.9585 C   0  0  0  0  0  0  0  0  0  0  0  0
  -25.4333  -30.8090   20.9941 C   0  0  0  0  0  0  0  0  0  0  0  0
  -23.7741  -28.4162   20.4782 C   0  0  0  0  0  0  0  0  0  0  0  0
  -23.5326  -32.9444   26.0950 C   0  0  0  0  0  0  0  0  0  0  0  0
  -29.8604  -12.5786   19.1925 C   0  0  0  0  0  0  0  0  0  0  0  0
  -23.4447  -31.4285   25.9496 C   0  0  0  0  0  0  0  0  0  0  0  0
  -28.5421  -12.4343   19.9517 C   0  0  0  0  0  0  0  0  0  0  0  0
  -30.3272  -14.0304   19.1551 C   0  0  0  0  0  0  0  0  0  0  0  0
  -27.9968  -14.8370   19.3561 C   0  0  0  0  0  0  0  0  0  0  0  0
  -24.6906  -30.8678   25.2534 C   0  0  1  0  0  0  0  0  0  0  0  0
  -24.0062  -30.6926   21.5205 C   0  0  1  0  0  0  0  0  0  0  0  0
  -27.4739  -13.3900   19.3912 C   0  0  2  0  0  0  0  0  0  0  0  0
  -19.3160  -28.7596   15.6666 C   0  0  0  0  0  0  0  0  0  0  0  0
  -28.9547  -17.4171   15.8500 C   0  0  0  0  0  0  0  0  0  0  0  0
  -27.3904  -15.5887   16.5162 C   0  0  0  0  0  0  0  0  0  0  0  0
  -20.2199  -28.1301   22.1978 C   0  0  0  0  0  0  0  0  0  0  0  0
  -19.0049  -27.4317   20.1232 C   0  0  0  0  0  0  0  0  0  0  0  0
  -18.8652  -29.7938   20.9128 C   0  0  0  0  0  0  0  0  0  0  0  0
  -29.7772  -21.6712   22.6504 C   0  0  0  0  0  0  0  0  0  0  0  0
  -22.9072  -29.9858   15.3904 C   0  0  0  0  0  0  0  0  0  0  0  0
  -28.1181  -21.1421   20.7849 C   0  0  0  0  0  0  0  0  0  0  0  0
  -29.3472  -24.0839   20.7390 C   0  0  0  0  0  0  0  0  0  0  0  0
  -27.9920  -19.6470   21.1056 C   0  0  0  0  0  0  0  0  0  0  0  0
  -29.1569  -25.5776   20.4819 C   0  0  0  0  0  0  0  0  0  1  0  0
  -21.0178  -28.9557   19.8853 C   0  0  1  0  0  0  0  0  0  0  0  0
  -20.5929  -29.4304   16.1485 C   0  0  2  0  0  0  0  0  0  0  0  0
  -28.4167  -16.6266   17.0828 C   0  0  0  0  0  0  0  0  0  0  0  0
  -19.8053  -28.5758   20.7813 C   0  0  0  0  0  0  0  0  0  0  0  0
  -28.4299  -22.0136   22.0160 C   0  0  2  0  0  0  0  0  0  0  0  0
  -28.3059  -23.5140   21.7054 C   0  0  0  0  0  0  0  0  0  0  0  0
  -26.6194  -17.9335   18.1615 N   0  0  0  0  0  0  0  0  0  0  0  0
  -25.9440  -14.1052   21.1886 N   0  0  0  0  0  0  0  0  0  0  0  0
  -27.7275  -18.8347   19.8621 N   0  0  0  0  0  0  0  0  0  0  0  0
  -26.1654  -13.2793   20.1518 N   0  0  0  0  0  0  0  0  0  0  0  0
  -23.1971  -29.7421   20.7550 N   0  0  0  0  0  0  0  0  0  0  0  0
  -29.2767  -14.9091   18.6378 N   0  0  0  0  0  0  0  0  0  0  0  0
  -25.1981  -11.5142   18.9031 N   0  0  0  0  0  0  0  0  0  0  0  0
  -22.0535  -12.4372   22.0104 N   0  0  0  0  0  0  0  0  0  0  0  0
  -24.6191  -31.0986   23.8265 N   0  0  0  0  0  0  0  0  0  0  0  0
  -20.6534  -29.4075   18.5468 N   0  0  0  0  0  0  0  0  0  0  0  0
  -21.6082  -29.3447   15.0608 N   0  3  0  0  0  0  0  0  0  0  0  0
  -22.5744  -11.0851   20.2330 O   0  0  0  0  0  0  0  0  0  0  0  0
  -23.3466  -29.2337   23.2559 O   0  0  0  0  0  0  0  0  0  0  0  0
  -21.3438  -31.1561   20.7088 O   0  0  0  0  0  0  0  0  0  0  0  0
  -30.6427  -15.8210   16.9938 O   0  0  0  0  0  0  0  0  0  0  0  0
  -21.8623  -27.7972   17.3969 O   0  0  0  0  0  0  0  0  0  0  0  0
  -22.3864  -16.3361   25.9756 O   0  0  0  0  0  0  0  0  0  0  0  0
  -27.8792  -25.8191   19.8941 O   0  0  0  0  0  0  0  0  0  1  0  0
  -22.6674  -21.8406   26.1368 F   0  0  0  0  0  0  0  0  0  0  0  0
  -20.0888  -17.8729   26.0182 F   0  0  0  0  0  0  0  0  0  0  0  0
  -27.4686  -21.7421   22.9572 F   0  0  0  0  0  0  0  0  0  0  0  0
  -28.3786  -24.2021   22.8787 F   0  0  0  0  0  0  0  0  0  0  0  0
  -27.0604  -23.7462   21.2083 F   0  0  0  0  0  0  0  0  0  0  0  0
  1  2  1  0  0  0  0
  1  5  2  0  0  0  0
  2  6  2  0  0  0  0
  3  8  2  0  0  0  0
  3 17  1  0  0  0  0
  4  9  1  0  0  0  0
  4 17  2  0  0  0  0
  5 19  1  0  0  0  0
  6 21  1  0  0  0  0
  7 10  2  0  0  0  0
  7 20  1  0  0  0  0
  8 23  1  0  0  0  0
  9 23  2  0  0  0  0
 10 24  1  0  0  0  0
 11 12  2  0  0  0  0
 11 25  1  0  0  0  0
 12 26  1  0  0  0  0
 13 22  1  0  0  0  0
 13 24  2  0  0  0  0
 14 26  2  0  0  0  0
 14 27  1  0  0  0  0
 15 29  2  0  0  0  0
 15 68  1  0  0  0  0
 16 66  2  0  0  0  0
 16 68  1  0  0  0  0
 17 28  1  0  0  0  0
 18 28  1  0  0  0  0
 18 30  2  0  0  0  0
 18 31  1  0  0  0  0
 19 21  2  0  0  0  0
 19 36  1  0  0  0  0
 20 22  2  0  0  0  0
 20 37  1  0  0  0  0
 21 45  1  0  0  0  0
 22 38  1  0  0  0  0
 23 82  1  0  0  0  0
 24 83  1  0  0  0  0
 25 27  2  0  0  0  0
 25 82  1  0  0  0  0
 26 84  1  0  0  0  0
 27 85  1  0  0  0  0
 28 67  2  0  0  0  0
 29 62  1  0  0  0  0
 29 66  1  0  0  0  0
 30 69  1  0  0  0  0
 30 72  1  0  0  0  0
 31 73  1  0  0  0  0
 31 77  2  0  0  0  0
 32 46  1  0  0  0  0
 32 74  1  0  0  0  0
 32 78  2  0  0  0  0
 33 60  1  0  0  0  0
 33 70  1  0  0  0  0
 33 79  2  0  0  0  0
 34 62  1  0  0  0  0
 34 71  1  0  0  0  0
 34 80  2  0  0  0  0
 35 61  1  0  0  0  0
 35 75  1  0  0  0  0
 35 81  2  0  0  0  0
 36 39  1  0  0  0  0
 37 46  1  0  0  0  0
 38 70  1  0  0  0  0
 39 41  1  0  0  0  0
 40 42  1  0  0  0  0
 40 43  1  0  0  0  0
 41 45  1  0  0  0  0
 42 47  1  0  0  0  0
 43 71  1  0  0  0  0
 44 47  1  0  0  0  0
 44 71  1  0  0  0  0
 45 74  1  0  0  0  0
 46 70  1  0  0  0  0
 47 69  1  0  0  0  0
 48 61  1  0  0  0  0
 49 62  1  0  0  0  0
 50 62  1  0  0  0  0
 51 63  1  0  0  0  0
 52 63  1  0  0  0  0
 53 63  1  0  0  0  0
 54 64  1  0  0  0  0
 55 76  1  0  0  0  0
 56 58  1  0  0  0  0
 56 64  1  0  0  0  0
 57 59  1  0  0  0  0
 57 65  1  0  0  0  0
 58 68  1  0  0  0  0
 59 83  1  0  0  0  0
 60 63  1  0  0  0  0
 60 75  1  0  0  0  0
 61 76  1  0  0  0  0
 64 65  1  0  0  0  0
 64 86  1  0  0  0  0
 65 87  1  0  0  0  0
 65 88  1  0  0  0  0
 67 69  1  0  0  0  0
M  CHG  1  76   1
M  ISO  4  34 100  59 101  62 100  83 101
M  END
> <Batch ID>
0065

> <Smiles>
CNC(C)C(=O)NC(C(=O)N1Cc2cc([101O:1][101CH2:1]CC(F)(F)C(C)(F)CCn3cnc([100C:0](C)(C)[100C:0](=O)N4CCCC(n5nc(-c6ccc(Oc7ccc(F)cc7F)cc6)c(C(N)=O)c5N)C4)c3)ccc2CC1C(=O)NC1CCCc2ccccc21)C(C)(C)C

> <Shape>
0.259

> <Color>
0.090

> <Negative vol penalty>
0.000

$$$$

  -OEChem-04052318073D

 88 96  0     1  0  0  0  0  0999 V2000
  -27.4408  -29.5530   22.2211 C   0  0  0  0  0  0  0  0  0  0  0  0
  -27.7344  -28.2465   21.8438 C   0  0  0  0  0  0  0  0  0  0  0  0
  -23.1877   -9.8195   19.9338 C   0  0  0  0  0  0  0  0  0  0  0  0
  -23.5639  -10.0022   22.3134 C   0  0  0  0  0  0  0  0  0  0  0  0
  -26.5710  -29.7916   23.2843 C   0  0  0  0  0  0  0  0  0  0  0  0
  -27.1590  -27.1778   22.5303 C   0  0  0  0  0  0  0  0  0  0  0  0
  -25.4366  -21.7915   20.1794 C   0  0  0  0  0  0  0  0  0  0  0  0
  -22.4198   -8.6741   20.1432 C   0  0  0  0  0  0  0  0  0  0  0  0
  -22.7960   -8.8567   22.5227 C   0  0  0  0  0  0  0  0  0  0  0  0
  -26.0540  -20.5419   20.1468 C   0  0  0  0  0  0  0  0  0  0  0  0
  -23.1932   -5.5093   22.2629 C   0  0  0  0  0  0  0  0  0  0  0  0
  -23.6895   -4.5483   23.1437 C   0  0  0  0  0  0  0  0  0  0  0  0
  -24.8063  -19.8812   22.1028 C   0  0  0  0  0  0  0  0  0  0  0  0
  -21.7319   -4.8124   24.5349 C   0  0  0  0  0  0  0  0  0  0  0  0
  -30.4851  -15.3966   24.9550 C   0  0  0  0  0  0  0  0  0  0  0  0
  -23.7598  -10.4836   21.0190 C   0  0  0  0  0  0  0  0  0  0  0  0
  -24.1019  -12.9995   20.7726 C   0  0  0  0  0  0  0  0  0  0  0  0
  -25.9772  -28.7254   23.9780 C   0  0  0  0  0  0  0  0  0  0  0  0
  -24.5060  -22.0997   21.1821 C   0  0  0  0  0  0  0  0  0  0  0  0
  -26.2815  -27.4024   23.6046 C   0  0  0  0  0  0  0  0  0  0  0  0
  -24.1767  -21.1345   22.1444 C   0  0  0  0  0  0  0  0  0  0  0  0
  -22.2239   -8.1927   21.4376 C   0  0  0  0  0  0  0  0  0  0  0  0
  -25.7410  -19.5875   21.1102 C   0  0  0  0  0  0  0  0  0  0  0  0
  -21.9662   -6.1218   22.5181 C   0  0  0  0  0  0  0  0  0  0  0  0
  -22.9589   -4.1998   24.2797 C   0  0  0  0  0  0  0  0  0  0  0  0
  -21.2356   -5.7733   23.6540 C   0  0  0  0  0  0  0  0  0  0  0  0
  -24.5537  -11.6666   20.8033 C   0  0  0  0  0  0  0  0  0  0  0  0
  -31.0903  -16.6192   24.8777 C   0  0  0  0  0  0  0  0  0  0  0  0
  -25.2342  -13.7405   20.5376 C   0  0  0  0  0  0  0  0  0  0  0  0
  -30.6865  -15.9250   22.8148 C   0  0  0  0  0  0  0  0  0  0  0  0
  -22.7772  -13.5213   20.9416 C   0  0  0  0  0  0  0  0  0  0  0  0
  -24.3544  -24.2509   23.5172 C   0  0  0  0  0  0  0  0  0  0  0  0
  -21.3700  -23.0417   23.9090 C   0  0  0  0  0  0  0  0  0  0  0  0
  -31.0469  -12.6252   21.5771 C   0  0  0  0  0  0  0  0  0  0  0  0
  -19.2275  -20.4197   23.4832 C   0  0  0  0  0  0  0  0  0  0  0  0
  -25.0802  -29.0323   25.1509 C   0  0  0  0  0  0  0  0  0  0  0  0
  -23.8291  -23.4429   21.1876 C   0  0  0  0  0  0  0  0  0  0  0  0
  -23.1692  -21.4086   23.2299 C   0  0  0  0  0  0  0  0  0  0  0  0
  -24.2201  -27.8487   25.5860 C   0  0  0  0  0  0  0  0  0  0  0  0
  -29.5224  -13.4802   18.4490 C   0  0  0  0  0  0  0  0  0  0  0  0
  -25.0628  -26.5803   25.6746 C   0  0  0  0  0  0  0  0  0  0  0  0
  -28.0379  -13.2060   18.6864 C   0  0  0  0  0  0  0  0  0  0  0  0
  -30.4010  -12.4806   19.1946 C   0  0  0  0  0  0  0  0  0  0  0  0
  -28.6440  -12.1339   20.9018 C   0  0  0  0  0  0  0  0  0  0  0  0
  -25.6579  -26.2169   24.3089 C   0  0  1  0  0  0  0  0  0  0  0  0
  -23.2785  -23.8288   22.5571 C   0  0  1  0  0  0  0  0  0  0  0  0
  -27.7216  -13.1401   20.1910 C   0  0  2  0  0  0  0  0  0  0  0  0
  -16.8629  -19.7139   23.9391 C   0  0  0  0  0  0  0  0  0  0  0  0
  -28.4855  -13.3799   24.2712 C   0  0  0  0  0  0  0  0  0  0  0  0
  -32.6751  -16.8666   26.8201 C   0  0  0  0  0  0  0  0  0  0  0  0
  -30.4209  -17.9849   26.8860 C   0  0  0  0  0  0  0  0  0  0  0  0
  -32.2251  -18.8749   25.4251 C   0  0  0  0  0  0  0  0  0  0  0  0
  -30.0230  -11.1679   23.2680 C   0  0  0  0  0  0  0  0  0  0  0  0
  -31.9070  -12.7147   23.8396 C   0  0  0  0  0  0  0  0  0  0  0  0
  -22.0724  -22.5936   26.8442 C   0  0  0  0  0  0  0  0  0  0  0  0
  -20.0988  -21.0621   27.0105 C   0  0  0  0  0  0  0  0  0  0  0  0
  -19.7637  -23.4686   26.4458 C   0  0  0  0  0  0  0  0  0  0  0  0
  -18.6492  -20.0837   20.6002 C   0  0  0  0  0  0  0  0  0  0  0  0
  -30.6224  -15.8829   21.3088 C   0  0  0  0  0  0  0  0  0  0  0  0
  -29.8471  -17.0510   20.6892 C   0  0  0  0  0  0  0  0  0  0  0  0
  -28.4135  -17.1615   21.2103 C   0  0  0  0  0  0  0  0  0  0  0  0
  -27.6633  -18.3068   20.5440 C   0  0  0  0  0  0  0  0  0  1  0  0
  -20.7694  -21.9189   24.7198 C   0  0  1  0  0  0  0  0  0  0  0  0
  -17.8122  -20.3536   22.9380 C   0  0  2  0  0  0  0  0  0  0  0  0
  -29.6138  -13.7427   23.2862 C   0  0  2  0  0  0  0  0  0  0  0  0
  -31.5718  -17.5286   25.9206 C   0  0  0  0  0  0  0  0  0  0  0  0
  -30.6128  -12.5638   23.0199 C   0  0  0  0  0  0  0  0  0  0  0  0
  -20.6965  -22.2560   26.2359 C   0  0  0  0  0  0  0  0  0  0  0  0
  -25.8703  -11.5636   20.6036 N   0  0  0  0  0  0  0  0  0  0  0  0
  -30.2462  -14.9910   23.6641 N   0  0  0  0  0  0  0  0  0  0  0  0
  -26.2556  -12.8413   20.4450 N   0  0  0  0  0  0  0  0  0  0  0  0
  -31.2025  -16.9212   23.5419 N   0  3  0  0  0  0  0  0  0  0  0  0
  -22.5391  -22.7387   23.1967 N   0  0  0  0  0  0  0  0  0  0  0  0
  -30.0545  -12.4312   20.6161 N   0  0  0  0  0  0  0  0  0  0  0  0
  -25.4459  -15.0670   20.4030 N   0  0  0  0  0  0  0  0  0  0  0  0
  -21.7292  -12.6206   21.1756 N   0  0  0  0  0  0  0  0  0  0  0  0
  -24.6547  -25.5989   23.4687 N   0  0  0  0  0  0  0  0  0  0  0  0
  -19.4773  -21.6216   24.1110 N   0  0  0  0  0  0  0  0  0  0  0  0
  -17.7782  -19.5540   21.6809 N   0  3  0  0  0  0  0  0  0  0  0  0
  -22.5275  -14.7485   20.8702 O   0  0  0  0  0  0  0  0  0  0  0  0
  -24.8728  -23.4158   24.2491 O   0  0  0  0  0  0  0  0  0  0  0  0
  -20.8182  -24.1449   23.9019 O   0  0  0  0  0  0  0  0  0  0  0  0
  -32.2326  -12.8423   21.3139 O   0  0  0  0  0  0  0  0  0  0  0  0
  -20.0298  -19.4960   23.3672 O   0  0  0  0  0  0  0  0  0  0  0  0
  -21.4745   -7.0751   21.6422 O   0  0  0  0  0  0  0  0  0  0  0  0
  -26.3426  -18.3672   21.0811 O   0  0  0  0  0  0  0  0  0  1  0  0
  -23.4349   -3.2759   25.1246 F   0  0  0  0  0  0  0  0  0  0  0  0
  -20.0557   -6.3575   23.9039 F   0  0  0  0  0  0  0  0  0  0  0  0
  1  2  1  0  0  0  0
  1  5  2  0  0  0  0
  2  6  2  0  0  0  0
  3  8  2  0  0  0  0
  3 16  1  0  0  0  0
  4  9  1  0  0  0  0
  4 16  2  0  0  0  0
  5 18  1  0  0  0  0
  6 20  1  0  0  0  0
  7 10  2  0  0  0  0
  7 19  1  0  0  0  0
  8 22  1  0  0  0  0
  9 22  2  0  0  0  0
 10 23  1  0  0  0  0
 11 12  2  0  0  0  0
 11 24  1  0  0  0  0
 12 25  1  0  0  0  0
 13 21  1  0  0  0  0
 13 23  2  0  0  0  0
 14 25  2  0  0  0  0
 14 26  1  0  0  0  0
 15 28  2  0  0  0  0
 15 70  1  0  0  0  0
 16 27  1  0  0  0  0
 17 27  1  0  0  0  0
 17 29  2  0  0  0  0
 17 31  1  0  0  0  0
 18 20  2  0  0  0  0
 18 36  1  0  0  0  0
 19 21  2  0  0  0  0
 19 37  1  0  0  0  0
 20 45  1  0  0  0  0
 21 38  1  0  0  0  0
 22 85  1  0  0  0  0
 23 86  1  0  0  0  0
 24 26  2  0  0  0  0
 24 85  1  0  0  0  0
 25 87  1  0  0  0  0
 26 88  1  0  0  0  0
 27 69  2  0  0  0  0
 28 66  1  0  0  0  0
 28 72  1  0  0  0  0
 29 71  1  0  0  0  0
 29 75  1  0  0  0  0
 30 59  1  0  0  0  0
 30 70  1  0  0  0  0
 30 72  2  0  0  0  0
 31 76  1  0  0  0  0
 31 80  2  0  0  0  0
 32 46  1  0  0  0  0
 32 77  1  0  0  0  0
 32 81  2  0  0  0  0
 33 63  1  0  0  0  0
 33 73  1  0  0  0  0
 33 82  2  0  0  0  0
 34 67  1  0  0  0  0
 34 74  1  0  0  0  0
 34 83  2  0  0  0  0
 35 64  1  0  0  0  0
 35 78  1  0  0  0  0
 35 84  2  0  0  0  0
 36 39  1  0  0  0  0
 37 46  1  0  0  0  0
 38 73  1  0  0  0  0
 39 41  1  0  0  0  0
 40 42  1  0  0  0  0
 40 43  1  0  0  0  0
 41 45  1  0  0  0  0
 42 47  1  0  0  0  0
 43 74  1  0  0  0  0
 44 47  1  0  0  0  0
 44 74  1  0  0  0  0
 45 77  1  0  0  0  0
 46 73  1  0  0  0  0
 47 71  1  0  0  0  0
 48 64  1  0  0  0  0
 49 65  1  0  0  0  0
 50 66  1  0  0  0  0
 51 66  1  0  0  0  0
 52 66  1  0  0  0  0
 53 67  1  0  0  0  0
 54 67  1  0  0  0  0
 55 68  1  0  0  0  0
 56 68  1  0  0  0  0
 57 68  1  0  0  0  0
 58 79  1  0  0  0  0
 59 60  1  0  0  0  0
 60 61  1  0  0  0  0
 61 62  1  0  0  0  0
 62 86  1  0  0  0  0
 63 68  1  0  0  0  0
 63 78  1  0  0  0  0
 64 79  1  0  0  0  0
 65 67  1  0  0  0  0
 65 70  1  0  0  0  0
 69 71  1  0  0  0  0
M  CHG  2  72   1  79   1
M  ISO  4  34 100  62 101  67 100  86 101
M  END
> <Batch ID>
0065

> <Smiles>
CNC(C)C(=O)NC(C(=O)N1Cc2cc([101O:1][101CH2:1]CCCc3nc(C(C)(C)C)cn3C(C)[100C:0](C)(C)[100C:0](=O)N3CCCC(n4nc(-c5ccc(Oc6ccc(F)cc6F)cc5)c(C(N)=O)c4N)C3)ccc2CC1C(=O)NC1CCCc2ccccc21)C(C)(C)C

> <Shape>
0.194

> <Color>
0.178

> <Negative vol penalty>
0.000

$$$$

  -OEChem-04052318073D

 90 98  0     1  0  0  0  0  0999 V2000
  -16.9183  -26.5352   21.3954 C   0  0  0  0  0  0  0  0  0  0  0  0
  -18.1657  -26.4167   20.7909 C   0  0  0  0  0  0  0  0  0  0  0  0
  -23.4618  -15.2945   20.7352 C   0  0  0  0  0  0  0  0  0  0  0  0
  -25.1774  -14.1142   21.9602 C   0  0  0  0  0  0  0  0  0  0  0  0
  -16.7485  -27.3978   22.4775 C   0  0  0  0  0  0  0  0  0  0  0  0
  -19.2438  -27.1617   21.2676 C   0  0  0  0  0  0  0  0  0  0  0  0
  -23.4754  -24.4105   21.6793 C   0  0  0  0  0  0  0  0  0  0  0  0
  -22.5983  -14.2117   20.9012 C   0  0  0  0  0  0  0  0  0  0  0  0
  -24.3140  -13.0314   22.1263 C   0  0  0  0  0  0  0  0  0  0  0  0
  -24.1828  -24.1509   20.5063 C   0  0  0  0  0  0  0  0  0  0  0  0
  -22.6852   -9.8117   22.5630 C   0  0  0  0  0  0  0  0  0  0  0  0
  -23.1974   -8.5338   22.3393 C   0  0  0  0  0  0  0  0  0  0  0  0
  -25.7242  -25.9250   21.0502 C   0  0  0  0  0  0  0  0  0  0  0  0
  -23.7200   -9.1421   20.0603 C   0  0  0  0  0  0  0  0  0  0  0  0
  -29.6996  -23.4817   23.6013 C   0  0  0  0  0  0  0  0  0  0  0  0
  -24.7514  -15.2458   21.2647 C   0  0  0  0  0  0  0  0  0  0  0  0
  -25.7943  -17.4708   21.9496 C   0  0  0  0  0  0  0  0  0  0  0  0
  -17.8273  -28.1465   22.9738 C   0  0  0  0  0  0  0  0  0  0  0  0
  -23.8815  -25.4382   22.5427 C   0  0  0  0  0  0  0  0  0  0  0  0
  -19.0879  -28.0361   22.3565 C   0  0  0  0  0  0  0  0  0  0  0  0
  -25.0218  -26.1940   22.2349 C   0  0  0  0  0  0  0  0  0  0  0  0
  -31.1946  -21.7798   22.1596 C   0  0  0  0  0  0  0  0  0  0  0  0
  -23.0244  -13.0801   21.5968 C   0  0  0  0  0  0  0  0  0  0  0  0
  -25.3056  -24.9101   20.1901 C   0  0  0  0  0  0  0  0  0  0  0  0
  -22.6902  -10.7549   21.5353 C   0  0  0  0  0  0  0  0  0  0  0  0
  -23.7149   -8.1990   21.0880 C   0  0  0  0  0  0  0  0  0  0  0  0
  -23.2077  -10.4201   20.2840 C   0  0  0  0  0  0  0  0  0  0  0  0
  -25.6440  -16.3637   21.0931 C   0  0  0  0  0  0  0  0  0  0  0  0
  -31.3000  -21.8689   23.5327 C   0  0  0  0  0  0  0  0  0  0  0  0
  -30.2706  -22.6223   21.5759 C   0  0  0  0  0  0  0  0  0  0  0  0
  -26.7570  -18.2430   21.3469 C   0  0  0  0  0  0  0  0  0  0  0  0
  -25.1237  -17.7740   23.1800 C   0  0  0  0  0  0  0  0  0  0  0  0
  -22.5693  -28.1371   23.5906 C   0  0  0  0  0  0  0  0  0  0  0  0
  -25.2193  -28.2430   25.4583 C   0  0  0  0  0  0  0  0  0  0  0  0
  -28.4603  -27.2915   25.9457 C   0  0  0  0  0  0  0  0  0  0  0  0
  -31.8628  -18.2561   18.8472 C   0  0  0  0  0  0  0  0  0  0  0  0
  -17.5841  -29.1012   24.1157 C   0  0  0  0  0  0  0  0  0  0  0  0
  -23.1233  -25.6881   23.8175 C   0  0  0  0  0  0  0  0  0  0  0  0
  -25.5109  -27.2952   23.1384 C   0  0  0  0  0  0  0  0  0  0  0  0
  -18.8653  -29.5740   24.7978 C   0  0  0  0  0  0  0  0  0  0  0  0
  -28.8269  -17.9618   16.7500 C   0  0  0  0  0  0  0  0  0  0  0  0
  -19.9011  -29.9904   23.7584 C   0  0  0  0  0  0  0  0  0  0  0  0
  -27.7625  -17.5410   17.7619 C   0  0  0  0  0  0  0  0  0  0  0  0
  -30.2201  -17.5007   17.1673 C   0  0  0  0  0  0  0  0  0  0  0  0
  -29.5493  -17.5140   19.5472 C   0  0  0  0  0  0  0  0  0  0  0  0
  -20.2875  -28.8089   22.8605 C   0  0  1  0  0  0  0  0  0  0  0  0
  -23.3260  -27.0968   24.3669 C   0  0  1  0  0  0  0  0  0  0  0  0
  -28.1404  -18.0034   19.1799 C   0  0  2  0  0  0  0  0  0  0  0  0
  -32.0162  -21.0179   25.7798 C   0  0  0  0  0  0  0  0  0  0  0  0
  -30.6587  -27.0339   27.1280 C   0  0  0  0  0  0  0  0  0  0  0  0
  -31.8725  -24.2127   19.3200 C   0  0  0  0  0  0  0  0  0  0  0  0
  -25.7193  -31.0506   24.3731 C   0  0  0  0  0  0  0  0  0  0  0  0
  -28.0647  -30.8904   25.2345 C   0  0  0  0  0  0  0  0  0  0  0  0
  -26.1445  -30.7883   26.8236 C   0  0  0  0  0  0  0  0  0  0  0  0
  -30.1220  -23.0401   16.9889 C   0  0  0  0  0  0  0  0  0  0  0  0
  -29.9648  -25.5001   17.3593 C   0  0  0  0  0  0  0  0  0  0  0  0
  -33.4409  -18.4084   20.7356 C   0  0  0  0  0  0  0  0  0  0  0  0
  -27.5881  -24.7915   27.2679 C   0  0  0  0  0  0  0  0  0  0  0  0
  -32.0229  -20.8371   21.3609 C   0  0  0  0  0  0  0  0  0  0  0  0
  -32.2667  -21.0058   24.2748 C   0  0  0  0  0  0  0  0  0  0  0  0
  -30.0662  -22.6144   20.0771 C   0  0  0  0  0  0  0  0  0  0  0  0
  -28.0875  -23.9893   18.0814 C   0  0  0  0  0  0  0  0  0  0  0  0
  -31.2730  -19.5698   20.9278 C   0  0  0  0  0  0  0  0  0  0  0  0
  -27.3971  -24.9369   19.0584 C   0  0  0  0  0  0  0  0  0  1  0  0
  -26.6084  -28.8157   25.3118 C   0  0  1  0  0  0  0  0  0  0  0  0
  -29.1708  -26.7208   27.1597 C   0  0  2  0  0  0  0  0  0  0  0  0
  -30.3499  -23.9769   19.3875 C   0  0  2  0  0  0  0  0  0  0  0  0
  -26.6241  -30.3668   25.4176 C   0  0  0  0  0  0  0  0  0  0  0  0
  -29.6390  -24.1212   17.9826 C   0  0  0  0  0  0  0  0  0  0  0  0
  -30.5654  -22.7119   24.2877 N   0  0  0  0  0  0  0  0  0  0  0  0
  -29.5033  -23.4889   22.2690 N   0  0  0  0  0  0  0  0  0  0  0  0
  -26.4468  -16.4236   20.0273 N   0  0  0  0  0  0  0  0  0  0  0  0
  -27.1108  -17.5776   20.2101 N   0  0  0  0  0  0  0  0  0  0  0  0
  -24.7322  -27.5053   24.3701 N   0  0  0  0  0  0  0  0  0  0  0  0
  -30.5364  -17.9164   18.5341 N   0  0  0  0  0  0  0  0  0  0  0  0
  -27.3270  -19.4195   21.6836 N   0  0  0  0  0  0  0  0  0  0  0  0
  -24.1622  -16.8725   23.6567 N   0  0  0  0  0  0  0  0  0  0  0  0
  -21.2040  -27.9275   23.5516 N   0  0  0  0  0  0  0  0  0  0  0  0
  -27.4353  -28.1405   26.3061 N   0  0  0  0  0  0  0  0  0  0  0  0
  -32.1254  -18.6606   20.1648 N   0  0  0  0  0  0  0  0  0  0  0  0
  -29.0029  -25.2408   27.2099 N   0  3  0  0  0  0  0  0  0  0  0  0
  -25.3580  -18.8216   23.8290 O   0  0  0  0  0  0  0  0  0  0  0  0
  -23.1788  -29.0623   23.0669 O   0  0  0  0  0  0  0  0  0  0  0  0
  -24.5924  -28.4369   26.5029 O   0  0  0  0  0  0  0  0  0  0  0  0
  -28.7846  -27.0151   24.7929 O   0  0  0  0  0  0  0  0  0  0  0  0
  -32.7593  -18.2100   17.9951 O   0  0  0  0  0  0  0  0  0  0  0  0
  -22.1820  -12.0235   21.7591 O   0  0  0  0  0  0  0  0  0  0  0  0
  -25.9975  -24.6592   19.0455 O   0  0  0  0  0  0  0  0  0  1  0  0
  -24.2082   -6.9722   20.8739 F   0  0  0  0  0  0  0  0  0  0  0  0
  -23.2164  -11.3223   19.2931 F   0  0  0  0  0  0  0  0  0  0  0  0
  1  2  1  0  0  0  0
  1  5  2  0  0  0  0
  2  6  2  0  0  0  0
  3  8  2  0  0  0  0
  3 16  1  0  0  0  0
  4  9  1  0  0  0  0
  4 16  2  0  0  0  0
  5 18  1  0  0  0  0
  6 20  1  0  0  0  0
  7 10  2  0  0  0  0
  7 19  1  0  0  0  0
  8 23  1  0  0  0  0
  9 23  2  0  0  0  0
 10 24  1  0  0  0  0
 11 12  2  0  0  0  0
 11 25  1  0  0  0  0
 12 26  1  0  0  0  0
 13 21  1  0  0  0  0
 13 24  2  0  0  0  0
 14 26  2  0  0  0  0
 14 27  1  0  0  0  0
 15 70  2  0  0  0  0
 15 71  1  0  0  0  0
 16 28  1  0  0  0  0
 17 28  1  0  0  0  0
 17 31  2  0  0  0  0
 17 32  1  0  0  0  0
 18 20  2  0  0  0  0
 18 37  1  0  0  0  0
 19 21  2  0  0  0  0
 19 38  1  0  0  0  0
 20 46  1  0  0  0  0
 21 39  1  0  0  0  0
 22 29  2  0  0  0  0
 22 30  1  0  0  0  0
 22 59  1  0  0  0  0
 23 87  1  0  0  0  0
 24 88  1  0  0  0  0
 25 27  2  0  0  0  0
 25 87  1  0  0  0  0
 26 89  1  0  0  0  0
 27 90  1  0  0  0  0
 28 72  2  0  0  0  0
 29 60  1  0  0  0  0
 29 70  1  0  0  0  0
 30 61  1  0  0  0  0
 30 71  2  0  0  0  0
 31 73  1  0  0  0  0
 31 76  1  0  0  0  0
 32 77  1  0  0  0  0
 32 82  2  0  0  0  0
 33 47  1  0  0  0  0
 33 78  1  0  0  0  0
 33 83  2  0  0  0  0
 34 65  1  0  0  0  0
 34 74  1  0  0  0  0
 34 84  2  0  0  0  0
 35 66  1  0  0  0  0
 35 79  1  0  0  0  0
 35 85  2  0  0  0  0
 36 75  1  0  0  0  0
 36 80  1  0  0  0  0
 36 86  2  0  0  0  0
 37 40  1  0  0  0  0
 38 47  1  0  0  0  0
 39 74  1  0  0  0  0
 40 42  1  0  0  0  0
 41 43  1  0  0  0  0
 41 44  1  0  0  0  0
 42 46  1  0  0  0  0
 43 48  1  0  0  0  0
 44 75  1  0  0  0  0
 45 48  1  0  0  0  0
 45 75  1  0  0  0  0
 46 78  1  0  0  0  0
 47 74  1  0  0  0  0
 48 73  1  0  0  0  0
 49 60  1  0  0  0  0
 50 66  1  0  0  0  0
 51 67  1  0  0  0  0
 52 68  1  0  0  0  0
 53 68  1  0  0  0  0
 54 68  1  0  0  0  0
 55 69  1  0  0  0  0
 56 69  1  0  0  0  0
 57 80  1  0  0  0  0
 58 81  1  0  0  0  0
 59 63  1  0  0  0  0
 61 67  1  0  0  0  0
 62 64  1  0  0  0  0
 62 69  1  0  0  0  0
 63 80  1  0  0  0  0
 64 88  1  0  0  0  0
 65 68  1  0  0  0  0
 65 79  1  0  0  0  0
 66 81  1  0  0  0  0
 67 69  1  0  0  0  0
 72 73  1  0  0  0  0
M  CHG  1  81   1
M  ISO  4  36 100  64 101  80 100  88 101
M  END
> <Batch ID>
0065

> <Smiles>
CCc1ncnc(CC(C)C(C)(C)C[101CH2:1][101O:1]c2ccc3c(c2)CN(C(=O)C(NC(=O)C(C)NC)C(C)(C)C)C(C(=O)NC2CCCc4ccccc42)C3)c1CC[100N:0](C)[100C:0](=O)N1CCCC(n2nc(-c3ccc(Oc4ccc(F)cc4F)cc3)c(C(N)=O)c2N)C1

> <Shape>
0.224

> <Color>
0.052

> <Negative vol penalty>
0.000

$$$$

  -OEChem-04052318073D

 93101  0     1  0  0  0  0  0999 V2000
  -28.0999  -27.5281   29.0295 C   0  0  0  0  0  0  0  0  0  0  0  0
  -28.0481  -28.2385   27.8356 C   0  0  0  0  0  0  0  0  0  0  0  0
  -24.7947  -13.5893   21.4852 C   0  0  0  0  0  0  0  0  0  0  0  0
  -26.2479  -13.2990   19.5771 C   0  0  0  0  0  0  0  0  0  0  0  0
  -27.0523  -26.6773   29.3759 C   0  0  0  0  0  0  0  0  0  0  0  0
  -26.9435  -28.1076   26.9933 C   0  0  0  0  0  0  0  0  0  0  0  0
  -25.8685  -30.4586   21.4756 C   0  0  0  0  0  0  0  0  0  0  0  0
  -24.0556  -12.4736   21.0921 C   0  0  0  0  0  0  0  0  0  0  0  0
  -25.5088  -12.1833   19.1839 C   0  0  0  0  0  0  0  0  0  0  0  0
  -26.0570  -30.0884   20.1448 C   0  0  0  0  0  0  0  0  0  0  0  0
  -24.3456   -9.1089   21.2575 C   0  0  0  0  0  0  0  0  0  0  0  0
  -24.0008   -8.1807   22.2399 C   0  0  0  0  0  0  0  0  0  0  0  0
  -23.7818  -29.2925   20.0502 C   0  0  0  0  0  0  0  0  0  0  0  0
  -21.6602   -8.5567   21.7736 C   0  0  0  0  0  0  0  0  0  0  0  0
  -25.8908  -14.0020   20.7277 C   0  0  0  0  0  0  0  0  0  0  0  0
  -27.7759  -15.1754   21.9837 C   0  0  0  0  0  0  0  0  0  0  0  0
  -25.9403  -26.5270   28.5309 C   0  0  0  0  0  0  0  0  0  0  0  0
  -24.6365  -30.2381   22.1081 C   0  0  0  0  0  0  0  0  0  0  0  0
  -25.8651  -27.2722   27.3366 C   0  0  0  0  0  0  0  0  0  0  0  0
  -23.5794  -29.6631   21.3884 C   0  0  0  0  0  0  0  0  0  0  0  0
  -24.4126  -11.7706   19.9415 C   0  0  0  0  0  0  0  0  0  0  0  0
  -25.0145  -29.5026   19.4327 C   0  0  0  0  0  0  0  0  0  0  0  0
  -23.3478   -9.7611   20.5332 C   0  0  0  0  0  0  0  0  0  0  0  0
  -22.6581   -7.9046   22.4979 C   0  0  0  0  0  0  0  0  0  0  0  0
  -22.0051   -9.4850   20.7912 C   0  0  0  0  0  0  0  0  0  0  0  0
  -27.8540  -25.0617   20.5881 C   0  0  0  0  0  0  0  0  0  0  0  0
  -26.6544  -15.1548   21.1330 C   0  0  0  0  0  0  0  0  0  0  0  0
  -28.2247  -24.6774   19.3156 C   0  0  0  0  0  0  0  0  0  0  0  0
  -28.5310  -24.4436   21.6194 C   0  0  0  0  0  0  0  0  0  0  0  0
  -28.1310  -16.5004   22.0516 C   0  0  0  0  0  0  0  0  0  0  0  0
  -29.7680  -23.2308   20.1477 C   0  0  0  0  0  0  0  0  0  0  0  0
  -28.4375  -14.0935   22.6527 C   0  0  0  0  0  0  0  0  0  0  0  0
  -23.6700  -28.5149   24.5980 C   0  0  0  0  0  0  0  0  0  0  0  0
  -20.8457  -30.0099   24.0407 C   0  0  0  0  0  0  0  0  0  0  0  0
  -18.8054  -31.6163   21.8263 C   0  0  0  0  0  0  0  0  0  0  0  0
  -28.1025  -21.0742   18.2882 C   0  0  0  0  0  0  0  0  0  0  0  0
  -24.8310  -25.5986   28.9585 C   0  0  0  0  0  0  0  0  0  0  0  0
  -24.4410  -30.6676   23.5363 C   0  0  0  0  0  0  0  0  0  0  0  0
  -22.2311  -29.4235   22.0153 C   0  0  0  0  0  0  0  0  0  0  0  0
  -23.9213  -25.1885   27.8051 C   0  0  0  0  0  0  0  0  0  0  0  0
  -25.8372  -20.7872   21.2015 C   0  0  0  0  0  0  0  0  0  0  0  0
  -23.4819  -26.4195   27.0266 C   0  0  0  0  0  0  0  0  0  0  0  0
  -25.8736  -19.2904   21.5056 C   0  0  0  0  0  0  0  0  0  0  0  0
  -26.0959  -21.0725   19.7253 C   0  0  0  0  0  0  0  0  0  0  0  0
  -27.3937  -18.9786   19.5124 C   0  0  0  0  0  0  0  0  0  0  0  0
  -24.6878  -27.1224   26.3902 C   0  0  1  0  0  0  0  0  0  0  0  0
  -23.3044  -29.9258   24.2330 C   0  0  1  0  0  0  0  0  0  0  0  0
  -27.1828  -18.6597   21.0002 C   0  0  2  0  0  0  0  0  0  0  0  0
  -16.5436  -32.6894   21.6528 C   0  0  0  0  0  0  0  0  0  0  0  0
  -25.7612  -28.4226   15.3737 C   0  0  0  0  0  0  0  0  0  0  0  0
  -26.7397  -24.4532   23.3905 C   0  0  0  0  0  0  0  0  0  0  0  0
  -28.4725  -26.2784   23.3447 C   0  0  0  0  0  0  0  0  0  0  0  0
  -29.0758  -23.9891   24.1039 C   0  0  0  0  0  0  0  0  0  0  0  0
  -19.5463  -27.2507   23.9495 C   0  0  0  0  0  0  0  0  0  0  0  0
  -17.5541  -28.3018   22.8565 C   0  0  0  0  0  0  0  0  0  0  0  0
  -18.2182  -28.9897   25.1605 C   0  0  0  0  0  0  0  0  0  0  0  0
  -28.8297  -28.1812   15.7612 C   0  0  0  0  0  0  0  0  0  0  0  0
  -27.6983  -26.0695   15.0743 C   0  0  0  0  0  0  0  0  0  0  0  0
  -30.2462  -20.9089   17.0813 C   0  0  0  0  0  0  0  0  0  0  0  0
  -19.9775  -34.2465   21.1427 C   0  0  0  0  0  0  0  0  0  0  0  0
  -27.5643  -25.2749   18.0967 C   0  0  0  0  0  0  0  0  0  0  0  0
  -30.8309  -22.2141   19.9031 C   0  0  0  0  0  0  0  0  0  0  0  0
  -28.4606  -26.3334   17.4388 C   0  0  0  0  0  0  0  0  0  0  0  0
  -30.2837  -20.8266   19.5465 C   0  0  0  0  0  0  0  0  0  0  0  0
  -26.5145  -28.7571   17.7444 C   0  0  0  0  0  0  0  0  0  1  0  0
  -19.6304  -29.7181   23.1940 C   0  0  1  0  0  0  0  0  0  0  0  0
  -18.0212  -32.9115   21.9360 C   0  0  2  0  0  0  0  0  0  0  0  0
  -26.4447  -27.7489   16.5784 C   0  0  2  0  0  0  0  0  0  0  0  0
  -28.2275  -24.7678   23.0461 C   0  0  0  0  0  0  0  0  0  0  0  0
  -18.7631  -28.5677   23.7786 C   0  0  0  0  0  0  0  0  0  0  0  0
  -27.8330  -27.0927   16.2257 C   0  0  0  0  0  0  0  0  0  0  0  0
  -26.3192  -16.3702   20.6922 N   0  0  0  0  0  0  0  0  0  0  0  0
  -29.1813  -23.7615   19.0580 N   0  0  0  0  0  0  0  0  0  0  0  0
  -29.4972  -23.5201   21.4348 N   0  0  0  0  0  0  0  0  0  0  0  0
  -27.2354  -17.1670   21.2682 N   0  0  0  0  0  0  0  0  0  0  0  0
  -22.0913  -29.8549   23.4160 N   0  0  0  0  0  0  0  0  0  0  0  0
  -27.3234  -20.4257   19.2604 N   0  0  0  0  0  0  0  0  0  0  0  0
  -29.1189  -17.1488   22.7044 N   0  0  0  0  0  0  0  0  0  0  0  0
  -27.9422  -12.7947   22.4740 N   0  0  0  0  0  0  0  0  0  0  0  0
  -24.2597  -28.3902   25.8415 N   0  0  0  0  0  0  0  0  0  0  0  0
  -18.9219  -30.9849   23.0465 N   0  0  0  0  0  0  0  0  0  0  0  0
  -29.4867  -20.8472   18.3219 N   0  0  0  0  0  0  0  0  0  0  0  0
  -18.5403  -33.9153   20.9645 N   0  3  0  0  0  0  0  0  0  0  0  0
  -29.4282  -14.2753   23.4003 O   0  0  0  0  0  0  0  0  0  0  0  0
  -23.4331  -27.6063   23.8105 O   0  0  0  0  0  0  0  0  0  0  0  0
  -20.6951  -30.3693   25.2111 O   0  0  0  0  0  0  0  0  0  0  0  0
  -19.2653  -31.2041   20.7637 O   0  0  0  0  0  0  0  0  0  0  0  0
  -27.5911  -21.8216   17.4444 O   0  0  0  0  0  0  0  0  0  0  0  0
  -23.6918  -10.6818   19.5576 O   0  0  0  0  0  0  0  0  0  0  0  0
  -25.1960  -29.1398   18.1337 O   0  0  0  0  0  0  0  0  0  1  0  0
  -22.3272   -7.0120   23.4403 F   0  0  0  0  0  0  0  0  0  0  0  0
  -21.0420  -10.1075   20.0978 F   0  0  0  0  0  0  0  0  0  0  0  0
  -26.6283  -26.2340   20.8700 Cl  0  0  0  0  0  0  0  0  0  0  0  0
  1  2  1  0  0  0  0
  1  5  2  0  0  0  0
  2  6  2  0  0  0  0
  3  8  2  0  0  0  0
  3 15  1  0  0  0  0
  4  9  1  0  0  0  0
  4 15  2  0  0  0  0
  5 17  1  0  0  0  0
  6 19  1  0  0  0  0
  7 10  2  0  0  0  0
  7 18  1  0  0  0  0
  8 21  1  0  0  0  0
  9 21  2  0  0  0  0
 10 22  1  0  0  0  0
 11 12  2  0  0  0  0
 11 23  1  0  0  0  0
 12 24  1  0  0  0  0
 13 20  1  0  0  0  0
 13 22  2  0  0  0  0
 14 24  2  0  0  0  0
 14 25  1  0  0  0  0
 15 27  1  0  0  0  0
 16 27  1  0  0  0  0
 16 30  2  0  0  0  0
 16 32  1  0  0  0  0
 17 19  2  0  0  0  0
 17 37  1  0  0  0  0
 18 20  2  0  0  0  0
 18 38  1  0  0  0  0
 19 46  1  0  0  0  0
 20 39  1  0  0  0  0
 21 89  1  0  0  0  0
 22 90  1  0  0  0  0
 23 25  2  0  0  0  0
 23 89  1  0  0  0  0
 24 91  1  0  0  0  0
 25 92  1  0  0  0  0
 26 28  2  0  0  0  0
 26 29  1  0  0  0  0
 26 93  1  0  0  0  0
 27 72  2  0  0  0  0
 28 61  1  0  0  0  0
 28 73  1  0  0  0  0
 29 69  1  0  0  0  0
 29 74  2  0  0  0  0
 30 75  1  0  0  0  0
 30 78  1  0  0  0  0
 31 62  1  0  0  0  0
 31 73  2  0  0  0  0
 31 74  1  0  0  0  0
 32 79  1  0  0  0  0
 32 84  2  0  0  0  0
 33 47  1  0  0  0  0
 33 80  1  0  0  0  0
 33 85  2  0  0  0  0
 34 66  1  0  0  0  0
 34 76  1  0  0  0  0
 34 86  2  0  0  0  0
 35 67  1  0  0  0  0
 35 81  1  0  0  0  0
 35 87  2  0  0  0  0
 36 77  1  0  0  0  0
 36 82  1  0  0  0  0
 36 88  2  0  0  0  0
 37 40  1  0  0  0  0
 38 47  1  0  0  0  0
 39 76  1  0  0  0  0
 40 42  1  0  0  0  0
 41 43  1  0  0  0  0
 41 44  1  0  0  0  0
 42 46  1  0  0  0  0
 43 48  1  0  0  0  0
 44 77  1  0  0  0  0
 45 48  1  0  0  0  0
 45 77  1  0  0  0  0
 46 80  1  0  0  0  0
 47 76  1  0  0  0  0
 48 75  1  0  0  0  0
 49 67  1  0  0  0  0
 50 68  1  0  0  0  0
 51 69  1  0  0  0  0
 52 69  1  0  0  0  0
 53 69  1  0  0  0  0
 54 70  1  0  0  0  0
 55 70  1  0  0  0  0
 56 70  1  0  0  0  0
 57 71  1  0  0  0  0
 58 71  1  0  0  0  0
 59 82  1  0  0  0  0
 60 83  1  0  0  0  0
 61 63  1  0  0  0  0
 62 64  1  0  0  0  0
 63 71  1  0  0  0  0
 64 82  1  0  0  0  0
 65 68  1  0  0  0  0
 65 90  1  0  0  0  0
 66 70  1  0  0  0  0
 66 81  1  0  0  0  0
 67 83  1  0  0  0  0
 68 71  1  0  0  0  0
 72 75  1  0  0  0  0
M  CHG  1  83   1
M  ISO  4  36 100  65 101  82 100  90 101
M  END
> <Batch ID>
0065

> <Smiles>
CNC(C)C(=O)NC(C(=O)N1Cc2cc([101O:1][101CH2:1]C(C)C(C)(C)CCc3nc(CC[100N:0](C)[100C:0](=O)N4CCCC(n5nc(-c6ccc(Oc7ccc(F)cc7F)cc6)c(C(N)=O)c5N)C4)nc(C(C)(C)C)c3Cl)ccc2CC1C(=O)NC1CCCc2ccccc21)C(C)(C)C

> <Shape>
0.226

> <Color>
0.059

> <Negative vol penalty>
0.000

$$$$

  -OEChem-04052318073D

 86 94  0     1  0  0  0  0  0999 V2000
  -29.9587  -25.8480   16.7845 C   0  0  0  0  0  0  0  0  0  0  0  0
  -28.5730  -25.9104   16.8911 C   0  0  0  0  0  0  0  0  0  0  0  0
  -25.1233  -15.8424   19.3207 C   0  0  0  0  0  0  0  0  0  0  0  0
  -24.3199  -15.5146   21.5755 C   0  0  0  0  0  0  0  0  0  0  0  0
  -30.7568  -26.1893   17.8755 C   0  0  0  0  0  0  0  0  0  0  0  0
  -27.9846  -26.3132   18.0894 C   0  0  0  0  0  0  0  0  0  0  0  0
  -22.8279  -29.5495   18.7533 C   0  0  0  0  0  0  0  0  0  0  0  0
  -25.7859  -14.6163   19.3786 C   0  0  0  0  0  0  0  0  0  0  0  0
  -24.9825  -14.2885   21.6334 C   0  0  0  0  0  0  0  0  0  0  0  0
  -21.5147  -29.1746   19.0339 C   0  0  0  0  0  0  0  0  0  0  0  0
  -27.9852  -11.7376   19.0632 C   0  0  0  0  0  0  0  0  0  0  0  0
  -29.2948  -11.6833   18.5861 C   0  0  0  0  0  0  0  0  0  0  0  0
  -21.8894  -29.6347   21.3721 C   0  0  0  0  0  0  0  0  0  0  0  0
  -29.9584  -13.3351   20.2196 C   0  0  0  0  0  0  0  0  0  0  0  0
  -19.8537  -26.2272   24.7599 C   0  0  0  0  0  0  0  0  0  0  0  0
  -24.3903  -16.2915   20.4192 C   0  0  0  0  0  0  0  0  0  0  0  0
  -22.3880  -17.7930   19.9250 C   0  0  0  0  0  0  0  0  0  0  0  0
  -30.1780  -26.6057   19.0848 C   0  0  0  0  0  0  0  0  0  0  0  0
  -23.6864  -29.9602   19.7832 C   0  0  0  0  0  0  0  0  0  0  0  0
  -28.7756  -26.6591   19.1981 C   0  0  0  0  0  0  0  0  0  0  0  0
  -23.2122  -30.0168   21.1016 C   0  0  0  0  0  0  0  0  0  0  0  0
  -19.0894  -25.7808   23.7012 C   0  0  0  0  0  0  0  0  0  0  0  0
  -25.7155  -13.8394   20.5349 C   0  0  0  0  0  0  0  0  0  0  0  0
  -21.0461  -29.2144   20.3439 C   0  0  0  0  0  0  0  0  0  0  0  0
  -27.6622  -12.5907   20.1185 C   0  0  0  0  0  0  0  0  0  0  0  0
  -30.2814  -12.4820   19.1643 C   0  0  0  0  0  0  0  0  0  0  0  0
  -28.6488  -13.3894   20.6967 C   0  0  0  0  0  0  0  0  0  0  0  0
  -23.7061  -17.5582   20.3603 C   0  0  0  0  0  0  0  0  0  0  0  0
  -19.4023  -24.5230   23.2275 C   0  0  0  0  0  0  0  0  0  0  0  0
  -22.2175  -19.1489   20.0623 C   0  0  0  0  0  0  0  0  0  0  0  0
  -21.0568  -24.2986   24.7700 C   0  0  0  0  0  0  0  0  0  0  0  0
  -21.4057  -16.8681   19.4400 C   0  0  0  0  0  0  0  0  0  0  0  0
  -26.4264  -28.8841   20.9824 C   0  0  0  0  0  0  0  0  0  0  0  0
  -26.2827  -31.6129   22.7303 C   0  0  0  0  0  0  0  0  0  0  0  0
  -24.3640  -34.0928   24.0777 C   0  0  0  0  0  0  0  0  0  0  0  0
  -23.8196  -23.4145   23.6717 C   0  0  0  0  0  0  0  0  0  0  0  0
  -31.0807  -26.9193   20.2516 C   0  0  0  0  0  0  0  0  0  0  0  0
  -25.0921  -30.3870   19.4603 C   0  0  0  0  0  0  0  0  0  0  0  0
  -24.0877  -30.4697   22.2404 C   0  0  0  0  0  0  0  0  0  0  0  0
  -30.3863  -27.6956   21.3675 C   0  0  0  0  0  0  0  0  0  0  0  0
  -25.2367  -23.0394   20.3776 C   0  0  0  0  0  0  0  0  0  0  0  0
  -29.0327  -27.0707   21.6902 C   0  0  0  0  0  0  0  0  0  0  0  0
  -24.8939  -21.5951   20.0145 C   0  0  0  0  0  0  0  0  0  0  0  0
  -25.5115  -23.1903   21.8704 C   0  0  0  0  0  0  0  0  0  0  0  0
  -24.0494  -21.2512   22.3794 C   0  0  0  0  0  0  0  0  0  0  0  0
  -28.1005  -27.1151   20.4734 C   0  0  1  0  0  0  0  0  0  0  0  0
  -26.0336  -30.2975   20.6574 C   0  0  1  0  0  0  0  0  0  0  0  0
  -23.7394  -21.0663   20.8840 C   0  0  2  0  0  0  0  0  0  0  0  0
  -18.6415  -23.9363   22.0845 C   0  0  0  0  0  0  0  0  0  0  0  0
  -24.5255  -36.1628   25.4872 C   0  0  0  0  0  0  0  0  0  0  0  0
  -21.1836  -23.2329   27.7500 C   0  0  0  0  0  0  0  0  0  0  0  0
  -22.9561  -21.6433   26.9649 C   0  0  0  0  0  0  0  0  0  0  0  0
  -20.6485  -21.5131   26.0322 C   0  0  0  0  0  0  0  0  0  0  0  0
  -26.6247  -29.8863   25.2227 C   0  0  0  0  0  0  0  0  0  0  0  0
  -25.8370  -31.8290   26.5916 C   0  0  0  0  0  0  0  0  0  0  0  0
  -27.9282  -32.0205   25.2452 C   0  0  0  0  0  0  0  0  0  0  0  0
  -23.2943  -35.7951   21.9059 C   0  0  0  0  0  0  0  0  0  0  0  0
  -17.9900  -26.6323   23.1181 C   0  0  0  0  0  0  0  0  0  0  0  0
  -18.3614  -27.2916   21.7881 C   0  0  0  0  0  0  0  0  0  0  0  0
  -19.5149  -28.2810   21.9059 C   0  0  0  0  0  0  0  0  0  1  0  0
  -22.1490  -23.4750   25.3640 C   0  0  1  0  0  0  0  0  0  0  0  0
  -25.6923  -31.9975   24.0654 C   0  0  1  0  0  0  0  0  0  0  0  0
  -24.5208  -35.6027   24.0733 C   0  0  2  0  0  0  0  0  0  0  0  0
  -21.7440  -22.4869   26.5241 C   0  0  0  0  0  0  0  0  0  0  0  0
  -26.5044  -31.4229   25.2602 C   0  0  0  0  0  0  0  0  0  0  0  0
  -20.8490  -25.5097   25.3210 N   0  0  0  0  0  0  0  0  0  0  0  0
  -24.3287  -18.6754   20.7451 N   0  0  0  0  0  0  0  0  0  0  0  0
  -20.3835  -23.7516   23.7399 N   0  0  0  0  0  0  0  0  0  0  0  0
  -23.3979  -19.6254   20.5520 N   0  0  0  0  0  0  0  0  0  0  0  0
  -25.4562  -30.8709   21.8747 N   0  0  0  0  0  0  0  0  0  0  0  0
  -24.4144  -22.6437   22.6679 N   0  0  0  0  0  0  0  0  0  0  0  0
  -21.1745  -19.9682   19.8105 N   0  0  0  0  0  0  0  0  0  0  0  0
  -21.7464  -15.5107   19.3633 N   0  0  0  0  0  0  0  0  0  0  0  0
  -27.5486  -28.4427   20.3077 N   0  0  0  0  0  0  0  0  0  0  0  0
  -25.5851  -33.4525   24.0604 N   0  0  0  0  0  0  0  0  0  0  0  0
  -23.4024  -36.2374   23.3200 N   0  3  0  0  0  0  0  0  0  0  0  0
  -20.2653  -17.2367   19.0698 O   0  0  0  0  0  0  0  0  0  0  0  0
  -25.7614  -28.2420   21.7870 O   0  0  0  0  0  0  0  0  0  0  0  0
  -27.4324  -31.9642   22.4538 O   0  0  0  0  0  0  0  0  0  0  0  0
  -23.2681  -33.5369   24.0986 O   0  0  0  0  0  0  0  0  0  0  0  0
  -24.1553  -24.5635   23.9534 O   0  0  0  0  0  0  0  0  0  0  0  0
  -26.3618  -12.6429   20.5916 O   0  0  0  0  0  0  0  0  0  0  0  0
  -19.7650  -28.8483   20.6206 O   0  0  0  0  0  0  0  0  0  1  0  0
  -22.8108  -22.7521   24.3194 O   0  0  0  0  0  0  0  0  0  0  0  0
  -31.5392  -12.4286   18.7070 F   0  0  0  0  0  0  0  0  0  0  0  0
  -28.3448  -14.2100   21.7115 F   0  0  0  0  0  0  0  0  0  0  0  0
  1  2  1  0  0  0  0
  1  5  2  0  0  0  0
  2  6  2  0  0  0  0
  3  8  2  0  0  0  0
  3 16  1  0  0  0  0
  4  9  1  0  0  0  0
  4 16  2  0  0  0  0
  5 18  1  0  0  0  0
  6 20  1  0  0  0  0
  7 10  2  0  0  0  0
  7 19  1  0  0  0  0
  8 23  1  0  0  0  0
  9 23  2  0  0  0  0
 10 24  1  0  0  0  0
 11 12  2  0  0  0  0
 11 25  1  0  0  0  0
 12 26  1  0  0  0  0
 13 21  1  0  0  0  0
 13 24  2  0  0  0  0
 14 26  2  0  0  0  0
 14 27  1  0  0  0  0
 15 22  1  0  0  0  0
 15 66  2  0  0  0  0
 16 28  1  0  0  0  0
 17 28  1  0  0  0  0
 17 30  2  0  0  0  0
 17 32  1  0  0  0  0
 18 20  2  0  0  0  0
 18 37  1  0  0  0  0
 19 21  2  0  0  0  0
 19 38  1  0  0  0  0
 20 46  1  0  0  0  0
 21 39  1  0  0  0  0
 22 29  2  0  0  0  0
 22 58  1  0  0  0  0
 23 82  1  0  0  0  0
 24 83  1  0  0  0  0
 25 27  2  0  0  0  0
 25 82  1  0  0  0  0
 26 85  1  0  0  0  0
 27 86  1  0  0  0  0
 28 67  2  0  0  0  0
 29 49  1  0  0  0  0
 29 68  1  0  0  0  0
 30 69  1  0  0  0  0
 30 72  1  0  0  0  0
 31 61  1  0  0  0  0
 31 66  1  0  0  0  0
 31 68  2  0  0  0  0
 32 73  1  0  0  0  0
 32 77  2  0  0  0  0
 33 47  1  0  0  0  0
 33 74  1  0  0  0  0
 33 78  2  0  0  0  0
 34 62  1  0  0  0  0
 34 70  1  0  0  0  0
 34 79  2  0  0  0  0
 35 63  1  0  0  0  0
 35 75  1  0  0  0  0
 35 80  2  0  0  0  0
 36 71  1  0  0  0  0
 36 81  2  0  0  0  0
 36 84  1  0  0  0  0
 37 40  1  0  0  0  0
 38 47  1  0  0  0  0
 39 70  1  0  0  0  0
 40 42  1  0  0  0  0
 41 43  1  0  0  0  0
 41 44  1  0  0  0  0
 42 46  1  0  0  0  0
 43 48  1  0  0  0  0
 44 71  1  0  0  0  0
 45 48  1  0  0  0  0
 45 71  1  0  0  0  0
 46 74  1  0  0  0  0
 47 70  1  0  0  0  0
 48 69  1  0  0  0  0
 50 63  1  0  0  0  0
 51 64  1  0  0  0  0
 52 64  1  0  0  0  0
 53 64  1  0  0  0  0
 54 65  1  0  0  0  0
 55 65  1  0  0  0  0
 56 65  1  0  0  0  0
 57 76  1  0  0  0  0
 58 59  1  0  0  0  0
 59 60  1  0  0  0  0
 60 83  1  0  0  0  0
 61 64  1  0  0  0  0
 61 84  1  0  0  0  0
 62 65  1  0  0  0  0
 62 75  1  0  0  0  0
 63 76  1  0  0  0  0
 67 69  1  0  0  0  0
M  CHG  1  76   1
M  ISO  4  36 100  60 101  83 101  84 100
M  END
> <Batch ID>
0065

> <Smiles>
CNC(C)C(=O)NC(C(=O)N1Cc2cc([101O:1][101CH2:1]CCc3cnc(C([100O:0][100C:0](=O)N4CCCC(n5nc(-c6ccc(Oc7ccc(F)cc7F)cc6)c(C(N)=O)c5N)C4)C(C)(C)C)nc3C)ccc2CC1C(=O)NC1CCCc2ccccc21)C(C)(C)C

> <Shape>
0.286

> <Color>
0.078

> <Negative vol penalty>
0.000

$$$$

  -OEChem-04052318072D

  0  0  0     0  0  0  0  0  0999 V2000
M  END
$$$$

  -OEChem-04052318073D

 85 93  0     1  0  0  0  0  0999 V2000
  -32.0365  -25.8503   14.5850 C   0  0  0  0  0  0  0  0  0  0  0  0
  -30.6538  -25.8662   14.7376 C   0  0  0  0  0  0  0  0  0  0  0  0
  -27.8101  -14.0697   21.8002 C   0  0  0  0  0  0  0  0  0  0  0  0
  -26.9651  -14.5756   19.5941 C   0  0  0  0  0  0  0  0  0  0  0  0
  -32.8608  -25.8448   15.7094 C   0  0  0  0  0  0  0  0  0  0  0  0
  -30.0946  -25.8757   16.0150 C   0  0  0  0  0  0  0  0  0  0  0  0
  -24.9550  -28.7104   17.7629 C   0  0  0  0  0  0  0  0  0  0  0  0
  -27.1361  -12.8487   21.7784 C   0  0  0  0  0  0  0  0  0  0  0  0
  -26.2911  -13.3545   19.5722 C   0  0  0  0  0  0  0  0  0  0  0  0
  -23.6491  -28.2572   17.9445 C   0  0  0  0  0  0  0  0  0  0  0  0
  -23.4447  -12.0568   20.8546 C   0  0  0  0  0  0  0  0  0  0  0  0
  -22.1245  -12.0532   20.4044 C   0  0  0  0  0  0  0  0  0  0  0  0
  -24.0805  -27.9773   20.3014 C   0  0  0  0  0  0  0  0  0  0  0  0
  -22.7329  -10.5271   18.6329 C   0  0  0  0  0  0  0  0  0  0  0  0
  -27.7246  -14.9332   20.7080 C   0  0  0  0  0  0  0  0  0  0  0  0
  -29.7314  -16.4506   20.2864 C   0  0  0  0  0  0  0  0  0  0  0  0
  -32.3115  -25.8640   17.0011 C   0  0  0  0  0  0  0  0  0  0  0  0
  -25.8383  -28.7903   18.8492 C   0  0  0  0  0  0  0  0  0  0  0  0
  -30.9123  -25.8691   17.1578 C   0  0  0  0  0  0  0  0  0  0  0  0
  -25.3963  -28.4343   20.1314 C   0  0  0  0  0  0  0  0  0  0  0  0
  -26.3767  -12.4911   20.6645 C   0  0  0  0  0  0  0  0  0  0  0  0
  -23.2125  -27.8878   19.2134 C   0  0  0  0  0  0  0  0  0  0  0  0
  -24.4090  -11.2956   20.1940 C   0  0  0  0  0  0  0  0  0  0  0  0
  -21.7686  -11.2883   19.2935 C   0  0  0  0  0  0  0  0  0  0  0  0
  -24.0531  -10.5307   19.0832 C   0  0  0  0  0  0  0  0  0  0  0  0
  -28.4201  -16.1949   20.7302 C   0  0  0  0  0  0  0  0  0  0  0  0
  -29.9181  -17.7909   20.5213 C   0  0  0  0  0  0  0  0  0  0  0  0
  -23.8248  -23.1195   18.8246 C   0  0  0  0  0  0  0  0  0  0  0  0
  -21.8367  -22.5066   18.9949 C   0  0  0  0  0  0  0  0  0  0  0  0
  -30.6945  -15.5566   19.7130 C   0  0  0  0  0  0  0  0  0  0  0  0
  -28.6068  -27.4179   19.5947 C   0  0  0  0  0  0  0  0  0  0  0  0
  -28.5052  -29.4742   22.1015 C   0  0  0  0  0  0  0  0  0  0  0  0
  -26.6195  -31.4035   24.1916 C   0  0  0  0  0  0  0  0  0  0  0  0
  -26.1402  -22.4113   21.0016 C   0  0  0  0  0  0  0  0  0  0  0  0
  -33.2423  -25.8096   18.1866 C   0  0  0  0  0  0  0  0  0  0  0  0
  -27.2356  -29.3065   18.6412 C   0  0  0  0  0  0  0  0  0  0  0  0
  -26.2991  -28.5208   21.3338 C   0  0  0  0  0  0  0  0  0  0  0  0
  -32.5751  -26.1989   19.5032 C   0  0  0  0  0  0  0  0  0  0  0  0
  -28.5018  -21.3155   23.4303 C   0  0  0  0  0  0  0  0  0  0  0  0
  -31.2298  -25.4947   19.6487 C   0  0  0  0  0  0  0  0  0  0  0  0
  -28.8670  -19.9020   22.9736 C   0  0  0  0  0  0  0  0  0  0  0  0
  -27.0285  -21.6274   23.1771 C   0  0  0  0  0  0  0  0  0  0  0  0
  -26.9437  -19.9946   21.3331 C   0  0  0  0  0  0  0  0  0  0  0  0
  -30.2683  -25.9048   18.5268 C   0  0  1  0  0  0  0  0  0  0  0  0
  -28.2060  -28.8597   19.7303 C   0  0  1  0  0  0  0  0  0  0  0  0
  -28.4325  -19.6536   21.5167 C   0  0  2  0  0  0  0  0  0  0  0  0
  -20.5700  -21.7673   19.1416 C   0  0  0  0  0  0  0  0  0  0  0  0
  -26.8148  -32.9396   26.1663 C   0  0  0  0  0  0  0  0  0  0  0  0
  -27.4909  -22.7869   17.4704 C   0  0  0  0  0  0  0  0  0  0  0  0
  -25.6230  -24.0413   16.3763 C   0  0  0  0  0  0  0  0  0  0  0  0
  -25.4839  -21.5636   16.6492 C   0  0  0  0  0  0  0  0  0  0  0  0
  -28.9079  -27.0663   23.9317 C   0  0  0  0  0  0  0  0  0  0  0  0
  -28.1534  -28.4865   25.8505 C   0  0  0  0  0  0  0  0  0  0  0  0
  -30.2113  -29.0996   24.5808 C   0  0  0  0  0  0  0  0  0  0  0  0
  -25.4970  -33.6839   22.6756 C   0  0  0  0  0  0  0  0  0  0  0  0
  -20.5421  -25.6151   20.0712 C   0  0  0  0  0  0  0  0  0  0  0  0
  -20.7579  -24.8420   18.7683 C   0  0  0  0  0  0  0  0  0  0  0  0
  -21.7198  -26.5069   20.4466 C   0  0  0  0  0  0  0  0  0  1  0  0
  -25.2893  -23.0508   18.7596 C   0  0  2  0  0  0  0  0  0  0  0  0
  -27.9473  -29.4242   23.5033 C   0  0  1  0  0  0  0  0  0  0  0  0
  -26.7759  -32.8424   24.6492 C   0  0  2  0  0  0  0  0  0  0  0  0
  -25.9569  -22.8731   17.3233 C   0  0  0  0  0  0  0  0  0  0  0  0
  -28.7883  -28.5156   24.4438 C   0  0  0  0  0  0  0  0  0  0  0  0
  -27.8165  -17.2852   21.2108 N   0  0  0  0  0  0  0  0  0  0  0  0
  -23.0509  -22.0075   18.9960 N   0  0  0  0  0  0  0  0  0  0  0  0
  -23.1657  -24.2751   18.7174 N   0  0  0  0  0  0  0  0  0  0  0  0
  -28.7528  -18.2390   21.0704 N   0  0  0  0  0  0  0  0  0  0  0  0
  -21.8963  -23.8553   18.8296 N   0  0  0  0  0  0  0  0  0  0  0  0
  -27.6582  -29.0256   21.0782 N   0  0  0  0  0  0  0  0  0  0  0  0
  -26.6816  -21.3727   21.7768 N   0  0  0  0  0  0  0  0  0  0  0  0
  -30.9637  -18.6181   20.3097 N   0  0  0  0  0  0  0  0  0  0  0  0
  -30.3388  -14.2118   19.5417 N   0  0  0  0  0  0  0  0  0  0  0  0
  -29.7124  -27.2146   18.7911 N   0  0  0  0  0  0  0  0  0  0  0  0
  -27.8398  -30.8090   23.9495 N   0  0  0  0  0  0  0  0  0  0  0  0
  -25.8455  -22.0870   19.6829 N   0  0  0  0  0  0  0  0  0  0  0  0
  -25.6394  -33.6698   24.1543 N   0  3  0  0  0  0  0  0  0  0  0  0
  -31.8424  -15.9355   19.3780 O   0  0  0  0  0  0  0  0  0  0  0  0
  -27.9617  -26.5541   20.1773 O   0  0  0  0  0  0  0  0  0  0  0  0
  -29.6478  -29.9024   21.9202 O   0  0  0  0  0  0  0  0  0  0  0  0
  -25.5244  -30.8599   24.0654 O   0  0  0  0  0  0  0  0  0  0  0  0
  -25.9395  -23.5453   21.4497 O   0  0  0  0  0  0  0  0  0  0  0  0
  -25.7191  -11.2996   20.6427 O   0  0  0  0  0  0  0  0  0  0  0  0
  -21.9386  -27.4445   19.3933 O   0  0  0  0  0  0  0  0  0  1  0  0
  -20.5005  -11.2838   18.8622 F   0  0  0  0  0  0  0  0  0  0  0  0
  -24.9748   -9.7965   18.4452 F   0  0  0  0  0  0  0  0  0  0  0  0
  1  2  1  0  0  0  0
  1  5  2  0  0  0  0
  2  6  2  0  0  0  0
  3  8  2  0  0  0  0
  3 15  1  0  0  0  0
  4  9  1  0  0  0  0
  4 15  2  0  0  0  0
  5 17  1  0  0  0  0
  6 19  1  0  0  0  0
  7 10  2  0  0  0  0
  7 18  1  0  0  0  0
  8 21  1  0  0  0  0
  9 21  2  0  0  0  0
 10 22  1  0  0  0  0
 11 12  2  0  0  0  0
 11 23  1  0  0  0  0
 12 24  1  0  0  0  0
 13 20  1  0  0  0  0
 13 22  2  0  0  0  0
 14 24  2  0  0  0  0
 14 25  1  0  0  0  0
 15 26  1  0  0  0  0
 16 26  1  0  0  0  0
 16 27  2  0  0  0  0
 16 30  1  0  0  0  0
 17 19  2  0  0  0  0
 17 35  1  0  0  0  0
 18 20  2  0  0  0  0
 18 36  1  0  0  0  0
 19 44  1  0  0  0  0
 20 37  1  0  0  0  0
 21 82  1  0  0  0  0
 22 83  1  0  0  0  0
 23 25  2  0  0  0  0
 23 82  1  0  0  0  0
 24 84  1  0  0  0  0
 25 85  1  0  0  0  0
 26 64  2  0  0  0  0
 27 67  1  0  0  0  0
 27 71  1  0  0  0  0
 28 59  1  0  0  0  0
 28 65  1  0  0  0  0
 28 66  2  0  0  0  0
 29 47  1  0  0  0  0
 29 65  2  0  0  0  0
 29 68  1  0  0  0  0
 30 72  1  0  0  0  0
 30 77  2  0  0  0  0
 31 45  1  0  0  0  0
 31 73  1  0  0  0  0
 31 78  2  0  0  0  0
 32 60  1  0  0  0  0
 32 69  1  0  0  0  0
 32 79  2  0  0  0  0
 33 61  1  0  0  0  0
 33 74  1  0  0  0  0
 33 80  2  0  0  0  0
 34 70  1  0  0  0  0
 34 75  1  0  0  0  0
 34 81  2  0  0  0  0
 35 38  1  0  0  0  0
 36 45  1  0  0  0  0
 37 69  1  0  0  0  0
 38 40  1  0  0  0  0
 39 41  1  0  0  0  0
 39 42  1  0  0  0  0
 40 44  1  0  0  0  0
 41 46  1  0  0  0  0
 42 70  1  0  0  0  0
 43 46  1  0  0  0  0
 43 70  1  0  0  0  0
 44 73  1  0  0  0  0
 45 69  1  0  0  0  0
 46 67  1  0  0  0  0
 48 61  1  0  0  0  0
 49 62  1  0  0  0  0
 50 62  1  0  0  0  0
 51 62  1  0  0  0  0
 52 63  1  0  0  0  0
 53 63  1  0  0  0  0
 54 63  1  0  0  0  0
 55 76  1  0  0  0  0
 56 57  1  0  0  0  0
 56 58  1  0  0  0  0
 57 68  1  0  0  0  0
 58 83  1  0  0  0  0
 59 62  1  0  0  0  0
 59 75  1  0  0  0  0
 60 63  1  0  0  0  0
 60 74  1  0  0  0  0
 61 76  1  0  0  0  0
 64 67  1  0  0  0  0
 66 68  1  0  0  0  0
M  CHG  1  76   1
M  ISO  4  34 100  58 101  75 100  83 101
M  END
> <Batch ID>
0065

> <Smiles>
CNC(C)C(=O)NC(C(=O)N1Cc2cc([101O:1][101CH2:1]CCn3nc(C([100NH:0][100C:0](=O)N4CCCC(n5nc(-c6ccc(Oc7ccc(F)cc7F)cc6)c(C(N)=O)c5N)C4)C(C)(C)C)nc3C)ccc2CC1C(=O)NC1CCCc2ccccc21)C(C)(C)C

> <Shape>
0.213

> <Color>
0.064

> <Negative vol penalty>
0.000

$$$$

  -OEChem-04052318073D

 89 97  0     1  0  0  0  0  0999 V2000
  -16.6406  -30.4555   23.3326 C   0  0  0  0  0  0  0  0  0  0  0  0
  -17.7804  -31.1611   23.7047 C   0  0  0  0  0  0  0  0  0  0  0  0
  -27.0557  -14.2761   19.5786 C   0  0  0  0  0  0  0  0  0  0  0  0
  -25.8616  -14.4114   21.6745 C   0  0  0  0  0  0  0  0  0  0  0  0
  -16.7429  -29.1172   22.9552 C   0  0  0  0  0  0  0  0  0  0  0  0
  -19.0230  -30.5285   23.7007 C   0  0  0  0  0  0  0  0  0  0  0  0
  -25.9633  -31.8628   22.5308 C   0  0  0  0  0  0  0  0  0  0  0  0
  -26.8395  -12.8986   19.5443 C   0  0  0  0  0  0  0  0  0  0  0  0
  -25.6453  -13.0339   21.6402 C   0  0  0  0  0  0  0  0  0  0  0  0
  -27.2079  -31.7048   23.1389 C   0  0  0  0  0  0  0  0  0  0  0  0
  -24.4670   -9.6061   21.9239 C   0  0  0  0  0  0  0  0  0  0  0  0
  -23.1885   -9.1418   22.2327 C   0  0  0  0  0  0  0  0  0  0  0  0
  -27.2749  -29.4119   22.3923 C   0  0  0  0  0  0  0  0  0  0  0  0
  -22.2816  -10.4124   20.3888 C   0  0  0  0  0  0  0  0  0  0  0  0
  -32.9736  -27.2409   24.5514 C   0  0  0  0  0  0  0  0  0  0  0  0
  -26.5668  -15.0326   20.6437 C   0  0  0  0  0  0  0  0  0  0  0  0
  -25.9626  -17.4600   20.1438 C   0  0  0  0  0  0  0  0  0  0  0  0
  -17.9887  -28.4706   22.9373 C   0  0  0  0  0  0  0  0  0  0  0  0
  -25.3592  -30.7915   21.8570 C   0  0  0  0  0  0  0  0  0  0  0  0
  -19.1419  -29.1799   23.3240 C   0  0  0  0  0  0  0  0  0  0  0  0
  -26.0237  -29.5596   21.7743 C   0  0  0  0  0  0  0  0  0  0  0  0
  -32.4409  -27.5084   23.3068 C   0  0  0  0  0  0  0  0  0  0  0  0
  -26.1343  -12.2774   20.5751 C   0  0  0  0  0  0  0  0  0  0  0  0
  -27.8626  -30.4784   23.0722 C   0  0  0  0  0  0  0  0  0  0  0  0
  -24.6528  -10.4737   20.8476 C   0  0  0  0  0  0  0  0  0  0  0  0
  -22.0958   -9.5449   21.4651 C   0  0  0  0  0  0  0  0  0  0  0  0
  -23.5601  -10.8768   20.0800 C   0  0  0  0  0  0  0  0  0  0  0  0
  -26.7904  -16.4555   20.6800 C   0  0  0  0  0  0  0  0  0  0  0  0
  -31.9050  -26.4247   22.6413 C   0  0  0  0  0  0  0  0  0  0  0  0
  -26.6119  -18.6338   20.4389 C   0  0  0  0  0  0  0  0  0  0  0  0
  -32.4350  -25.0404   24.3647 C   0  0  0  0  0  0  0  0  0  0  0  0
  -24.7180  -17.3426   19.4418 C   0  0  0  0  0  0  0  0  0  0  0  0
  -22.6708  -29.1370   22.2295 C   0  0  0  0  0  0  0  0  0  0  0  0
  -23.5858  -27.7671   19.4352 C   0  0  0  0  0  0  0  0  0  0  0  0
  -26.1177  -26.9829   17.2855 C   0  0  0  0  0  0  0  0  0  0  0  0
  -30.2673  -20.2279   24.6465 C   0  0  0  0  0  0  0  0  0  0  0  0
  -18.0429  -27.0094   22.5674 C   0  0  0  0  0  0  0  0  0  0  0  0
  -24.0284  -30.9859   21.1834 C   0  0  0  0  0  0  0  0  0  0  0  0
  -25.4272  -28.3842   21.0456 C   0  0  0  0  0  0  0  0  0  0  0  0
  -19.4484  -26.5182   22.2301 C   0  0  0  0  0  0  0  0  0  0  0  0
  -30.9756  -20.4232   21.1922 C   0  0  0  0  0  0  0  0  0  0  0  0
  -20.4485  -27.0036   23.2746 C   0  0  0  0  0  0  0  0  0  0  0  0
  -29.8973  -19.5102   20.6101 C   0  0  0  0  0  0  0  0  0  0  0  0
  -31.5594  -19.8666   22.4921 C   0  0  0  0  0  0  0  0  0  0  0  0
  -29.4614  -18.6312   22.9337 C   0  0  0  0  0  0  0  0  0  0  0  0
  -20.5110  -28.5355   23.3086 C   0  0  1  0  0  0  0  0  0  0  0  0
  -23.2732  -29.6787   20.9641 C   0  0  1  0  0  0  0  0  0  0  0  0
  -28.8164  -19.1972   21.6593 C   0  0  2  0  0  0  0  0  0  0  0  0
  -30.4903  -25.3751   20.8572 C   0  0  0  0  0  0  0  0  0  0  0  0
  -33.7361  -23.3775   25.7432 C   0  0  0  0  0  0  0  0  0  0  0  0
  -26.5616  -25.8277   15.1024 C   0  0  0  0  0  0  0  0  0  0  0  0
  -23.2913  -25.0595   20.8108 C   0  0  0  0  0  0  0  0  0  0  0  0
  -24.6263  -24.0473   18.9504 C   0  0  0  0  0  0  0  0  0  0  0  0
  -22.4351  -25.1350   18.4623 C   0  0  0  0  0  0  0  0  0  0  0  0
  -30.8925  -24.1817   26.9913 C   0  0  0  0  0  0  0  0  0  0  0  0
  -29.8756  -23.3931   24.8550 C   0  0  0  0  0  0  0  0  0  0  0  0
  -32.7404  -20.2683   25.1824 C   0  0  0  0  0  0  0  0  0  0  0  0
  -27.1611  -29.4628   16.0525 C   0  0  0  0  0  0  0  0  0  0  0  0
  -32.4566  -28.9032   22.7343 C   0  0  0  0  0  0  0  0  0  0  0  0
  -31.3001  -26.5948   21.2868 C   0  0  0  0  0  0  0  0  0  0  0  0
  -31.4037  -29.8312   23.3441 C   0  0  0  0  0  0  0  0  0  0  0  0
  -31.1748  -21.8069   26.3083 C   0  0  0  0  0  0  0  0  0  0  0  0
  -29.9728  -29.3816   23.0729 C   0  0  0  0  0  0  0  0  0  1  0  0
  -32.4309  -23.6697   24.9524 C   0  0  1  0  0  0  0  0  0  0  0  0
  -24.4281  -26.5733   19.0552 C   0  0  1  0  0  0  0  0  0  0  0  0
  -26.2520  -27.1520   15.7829 C   0  0  2  0  0  0  0  0  0  0  0  0
  -23.7058  -25.2252   19.3351 C   0  0  0  0  0  0  0  0  0  0  0  0
  -31.1189  -23.2653   25.7684 C   0  0  0  0  0  0  0  0  0  0  0  0
  -32.9875  -26.0142   25.1129 N   0  0  0  0  0  0  0  0  0  0  0  0
  -27.8823  -16.9481   21.2709 N   0  0  0  0  0  0  0  0  0  0  0  0
  -31.8853  -25.1722   23.1423 N   0  0  0  0  0  0  0  0  0  0  0  0
  -27.7451  -18.2750   21.1076 N   0  0  0  0  0  0  0  0  0  0  0  0
  -24.1214  -28.6222   20.4087 N   0  0  0  0  0  0  0  0  0  0  0  0
  -30.4922  -19.5371   23.4466 N   0  0  0  0  0  0  0  0  0  0  0  0
  -26.3183  -19.9276   20.1890 N   0  0  0  0  0  0  0  0  0  0  0  0
  -24.1920  -16.0619   19.2239 N   0  0  0  0  0  0  0  0  0  0  0  0
  -21.2932  -29.0341   22.1977 N   0  0  0  0  0  0  0  0  0  0  0  0
  -24.8081  -26.7692   17.6603 N   0  0  0  0  0  0  0  0  0  0  0  0
  -31.3824  -20.8006   25.2765 N   0  0  0  0  0  0  0  0  0  0  0  0
  -27.3478  -28.1109   15.4655 N   0  3  0  0  0  0  0  0  0  0  0  0
  -24.0990  -18.3428   19.0058 O   0  0  0  0  0  0  0  0  0  0  0  0
  -23.4018  -28.8335   23.1650 O   0  0  0  0  0  0  0  0  0  0  0  0
  -22.4960  -27.9386   18.8833 O   0  0  0  0  0  0  0  0  0  0  0  0
  -27.0789  -27.0314   18.0498 O   0  0  0  0  0  0  0  0  0  0  0  0
  -29.1334  -20.3218   25.1339 O   0  0  0  0  0  0  0  0  0  0  0  0
  -25.9229  -10.9333   20.5418 O   0  0  0  0  0  0  0  0  0  0  0  0
  -29.0772  -30.3213   23.6654 O   0  0  0  0  0  0  0  0  0  1  0  0
  -20.8683   -9.0976   21.7609 F   0  0  0  0  0  0  0  0  0  0  0  0
  -23.7326  -11.7092   19.0440 F   0  0  0  0  0  0  0  0  0  0  0  0
  1  2  1  0  0  0  0
  1  5  2  0  0  0  0
  2  6  2  0  0  0  0
  3  8  2  0  0  0  0
  3 16  1  0  0  0  0
  4  9  1  0  0  0  0
  4 16  2  0  0  0  0
  5 18  1  0  0  0  0
  6 20  1  0  0  0  0
  7 10  2  0  0  0  0
  7 19  1  0  0  0  0
  8 23  1  0  0  0  0
  9 23  2  0  0  0  0
 10 24  1  0  0  0  0
 11 12  2  0  0  0  0
 11 25  1  0  0  0  0
 12 26  1  0  0  0  0
 13 21  1  0  0  0  0
 13 24  2  0  0  0  0
 14 26  2  0  0  0  0
 14 27  1  0  0  0  0
 15 22  1  0  0  0  0
 15 69  2  0  0  0  0
 16 28  1  0  0  0  0
 17 28  1  0  0  0  0
 17 30  2  0  0  0  0
 17 32  1  0  0  0  0
 18 20  2  0  0  0  0
 18 37  1  0  0  0  0
 19 21  2  0  0  0  0
 19 38  1  0  0  0  0
 20 46  1  0  0  0  0
 21 39  1  0  0  0  0
 22 29  2  0  0  0  0
 22 59  1  0  0  0  0
 23 86  1  0  0  0  0
 24 87  1  0  0  0  0
 25 27  2  0  0  0  0
 25 86  1  0  0  0  0
 26 88  1  0  0  0  0
 27 89  1  0  0  0  0
 28 70  2  0  0  0  0
 29 60  1  0  0  0  0
 29 71  1  0  0  0  0
 30 72  1  0  0  0  0
 30 75  1  0  0  0  0
 31 64  1  0  0  0  0
 31 69  1  0  0  0  0
 31 71  2  0  0  0  0
 32 76  1  0  0  0  0
 32 81  2  0  0  0  0
 33 47  1  0  0  0  0
 33 77  1  0  0  0  0
 33 82  2  0  0  0  0
 34 65  1  0  0  0  0
 34 73  1  0  0  0  0
 34 83  2  0  0  0  0
 35 66  1  0  0  0  0
 35 78  1  0  0  0  0
 35 84  2  0  0  0  0
 36 74  1  0  0  0  0
 36 79  1  0  0  0  0
 36 85  2  0  0  0  0
 37 40  1  0  0  0  0
 38 47  1  0  0  0  0
 39 73  1  0  0  0  0
 40 42  1  0  0  0  0
 41 43  1  0  0  0  0
 41 44  1  0  0  0  0
 42 46  1  0  0  0  0
 43 48  1  0  0  0  0
 44 74  1  0  0  0  0
 45 48  1  0  0  0  0
 45 74  1  0  0  0  0
 46 77  1  0  0  0  0
 47 73  1  0  0  0  0
 48 72  1  0  0  0  0
 49 60  1  0  0  0  0
 50 64  1  0  0  0  0
 51 66  1  0  0  0  0
 52 67  1  0  0  0  0
 53 67  1  0  0  0  0
 54 67  1  0  0  0  0
 55 68  1  0  0  0  0
 56 68  1  0  0  0  0
 57 79  1  0  0  0  0
 58 80  1  0  0  0  0
 59 61  1  0  0  0  0
 61 63  1  0  0  0  0
 62 68  1  0  0  0  0
 62 79  1  0  0  0  0
 63 87  1  0  0  0  0
 64 68  1  0  0  0  0
 65 67  1  0  0  0  0
 65 78  1  0  0  0  0
 66 80  1  0  0  0  0
 70 72  1  0  0  0  0
M  CHG  1  80   1
M  ISO  4  36 100  63 101  79 100  87 101
M  END
> <Batch ID>
0065

> <Smiles>
CCc1nc(C(C)C(C)(C)C[100N:0](C)[100C:0](=O)N2CCCC(n3nc(-c4ccc(Oc5ccc(F)cc5F)cc4)c(C(N)=O)c3N)C2)ncc1CC[101CH2:1][101O:1]c1ccc2c(c1)CN(C(=O)C(NC(=O)C(C)NC)C(C)(C)C)C(C(=O)NC1CCCc3ccccc31)C2

> <Shape>
0.243

> <Color>
0.106

> <Negative vol penalty>
0.000

$$$$

  -OEChem-04052318073D

 88 96  0     1  0  0  0  0  0999 V2000
  -25.9300  -29.3459   19.4626 C   0  0  0  0  0  0  0  0  0  0  0  0
  -25.4756  -28.0953   19.0564 C   0  0  0  0  0  0  0  0  0  0  0  0
  -23.1070   -9.8276   21.0125 C   0  0  0  0  0  0  0  0  0  0  0  0
  -23.8220  -10.5536   23.2031 C   0  0  0  0  0  0  0  0  0  0  0  0
  -26.3808  -29.5321   20.7687 C   0  0  0  0  0  0  0  0  0  0  0  0
  -25.4728  -27.0298   19.9560 C   0  0  0  0  0  0  0  0  0  0  0  0
  -21.7826  -21.1107   21.5877 C   0  0  0  0  0  0  0  0  0  0  0  0
  -22.3675   -8.7983   21.5949 C   0  0  0  0  0  0  0  0  0  0  0  0
  -23.0825   -9.5243   23.7856 C   0  0  0  0  0  0  0  0  0  0  0  0
  -21.9742  -19.7461   21.7997 C   0  0  0  0  0  0  0  0  0  0  0  0
  -19.8496   -8.9084   24.5533 C   0  0  0  0  0  0  0  0  0  0  0  0
  -19.0703   -9.2222   25.6668 C   0  0  0  0  0  0  0  0  0  0  0  0
  -22.7018  -20.2046   24.0535 C   0  0  0  0  0  0  0  0  0  0  0  0
  -20.3123   -7.6244   26.9864 C   0  0  0  0  0  0  0  0  0  0  0  0
  -27.3716  -16.9083   23.5691 C   0  0  0  0  0  0  0  0  0  0  0  0
  -23.8343  -10.7052   21.8165 C   0  0  0  0  0  0  0  0  0  0  0  0
  -24.1586  -13.0739   20.9266 C   0  0  0  0  0  0  0  0  0  0  0  0
  -26.3745  -28.4707   21.6875 C   0  0  0  0  0  0  0  0  0  0  0  0
  -22.0599  -22.0350   22.6052 C   0  0  0  0  0  0  0  0  0  0  0  0
  -25.9253  -27.2017   21.2752 C   0  0  0  0  0  0  0  0  0  0  0  0
  -22.5104  -21.5801   23.8527 C   0  0  0  0  0  0  0  0  0  0  0  0
  -22.3552   -8.6467   22.9815 C   0  0  0  0  0  0  0  0  0  0  0  0
  -22.4367  -19.2931   23.0317 C   0  0  0  0  0  0  0  0  0  0  0  0
  -20.8602   -7.9525   24.6564 C   0  0  0  0  0  0  0  0  0  0  0  0
  -19.3017   -8.5803   26.8833 C   0  0  0  0  0  0  0  0  0  0  0  0
  -21.0916   -7.3105   25.8729 C   0  0  0  0  0  0  0  0  0  0  0  0
  -24.5989  -11.7683   21.2154 C   0  0  0  0  0  0  0  0  0  0  0  0
  -26.5616  -16.6074   24.6352 C   0  0  0  0  0  0  0  0  0  0  0  0
  -25.2517  -13.6890   20.3669 C   0  0  0  0  0  0  0  0  0  0  0  0
  -22.8761  -13.6768   21.1449 C   0  0  0  0  0  0  0  0  0  0  0  0
  -24.0816  -24.4651   22.9381 C   0  0  0  0  0  0  0  0  0  0  0  0
  -22.4656  -24.9214   25.7135 C   0  0  0  0  0  0  0  0  0  0  0  0
  -20.5330  -23.5929   28.1928 C   0  0  0  0  0  0  0  0  0  0  0  0
  -30.7225  -14.7904   20.3190 C   0  0  0  0  0  0  0  0  0  0  0  0
  -26.9157  -28.7085   23.0750 C   0  0  0  0  0  0  0  0  0  0  0  0
  -21.8224  -23.5014   22.3694 C   0  0  0  0  0  0  0  0  0  0  0  0
  -22.8035  -22.5298   24.9844 C   0  0  0  0  0  0  0  0  0  0  0  0
  -26.5293  -27.6210   24.0742 C   0  0  0  0  0  0  0  0  0  0  0  0
  -29.6504  -11.7696   18.7691 C   0  0  0  0  0  0  0  0  0  0  0  0
  -26.7563  -26.2379   23.4721 C   0  0  0  0  0  0  0  0  0  0  0  0
  -28.2072  -11.6047   19.2485 C   0  0  0  0  0  0  0  0  0  0  0  0
  -30.5422  -12.3633   19.8574 C   0  0  0  0  0  0  0  0  0  0  0  0
  -28.6081  -13.4615   20.9189 C   0  0  0  0  0  0  0  0  0  0  0  0
  -25.8836  -26.0274   22.2289 C   0  0  1  0  0  0  0  0  0  0  0  0
  -22.6269  -24.3954   23.3079 C   0  0  1  0  0  0  0  0  0  0  0  0
  -27.6585  -12.9182   19.8376 C   0  0  2  0  0  0  0  0  0  0  0  0
  -25.6921  -14.2739   24.3372 C   0  0  0  0  0  0  0  0  0  0  0  0
  -19.3986  -24.2024   30.3467 C   0  0  0  0  0  0  0  0  0  0  0  0
  -31.5008  -17.5180   24.7268 C   0  0  0  0  0  0  0  0  0  0  0  0
  -29.6780  -19.7764   23.9601 C   0  0  0  0  0  0  0  0  0  0  0  0
  -25.1593  -24.8643   27.1456 C   0  0  0  0  0  0  0  0  0  0  0  0
  -23.9288  -24.5202   29.2986 C   0  0  0  0  0  0  0  0  0  0  0  0
  -23.5712  -26.6070   27.9795 C   0  0  0  0  0  0  0  0  0  0  0  0
  -32.1817  -18.9230   21.9571 C   0  0  0  0  0  0  0  0  0  0  0  0
  -32.7465  -16.5092   22.1750 C   0  0  0  0  0  0  0  0  0  0  0  0
  -17.8602  -22.9337   27.1064 C   0  0  0  0  0  0  0  0  0  0  0  0
  -24.1947  -16.2213   23.7599 C   0  0  0  0  0  0  0  0  0  0  0  0
  -30.7473  -17.2187   20.8307 C   0  0  0  0  0  0  0  0  0  0  0  0
  -23.6484  -17.5878   24.1629 C   0  0  0  0  0  0  0  0  0  1  0  0
  -25.3271  -15.7236   24.6788 C   0  0  2  0  0  0  0  0  0  0  0  0
  -22.6150  -24.4255   27.1315 C   0  0  1  0  0  0  0  0  0  0  0  0
  -19.2481  -24.0794   28.8384 C   0  0  2  0  0  0  0  0  0  0  0  0
  -30.6784  -17.4035   23.4283 C   0  0  1  0  0  0  0  0  0  0  0  0
  -29.4251  -18.3540   23.4337 C   0  0  1  0  0  0  0  0  0  0  0  0
  -23.8150  -25.0863   27.8671 C   0  0  0  0  0  0  0  0  0  0  0  0
  -31.5699  -17.5154   22.1196 C   0  0  0  0  0  0  0  0  0  0  0  0
  -25.8724  -11.5650   20.8677 N   0  0  0  0  0  0  0  0  0  0  0  0
  -27.0239  -17.2393   25.7562 N   0  0  0  0  0  0  0  0  0  0  0  0
  -28.1062  -17.9315   25.4176 N   0  0  0  0  0  0  0  0  0  0  0  0
  -28.3128  -17.7318   24.1058 N   0  0  0  0  0  0  0  0  0  0  0  0
  -26.2416  -12.7509   20.3546 N   0  0  0  0  0  0  0  0  0  0  0  0
  -22.5616  -23.9545   24.7027 N   0  0  0  0  0  0  0  0  0  0  0  0
  -29.9664  -13.6078   20.3727 N   0  0  0  0  0  0  0  0  0  0  0  0
  -25.4530  -14.9354   19.8890 N   0  0  0  0  0  0  0  0  0  0  0  0
  -21.8650  -12.9029   21.7306 N   0  0  0  0  0  0  0  0  0  0  0  0
  -24.5192  -25.7348   22.6129 N   0  0  0  0  0  0  0  0  0  0  0  0
  -21.3252  -24.6424   27.7779 N   0  0  0  0  0  0  0  0  0  0  0  0
  -30.0998  -15.9258   20.8226 N   0  0  0  0  0  0  0  0  0  0  0  0
  -18.1339  -23.1316   28.5530 N   0  3  0  0  0  0  0  0  0  0  0  0
  -22.6291  -14.8615   20.8149 O   0  0  0  0  0  0  0  0  0  0  0  0
  -24.7573  -23.4429   22.9486 O   0  0  0  0  0  0  0  0  0  0  0  0
  -22.2639  -26.1213   25.5105 O   0  0  0  0  0  0  0  0  0  0  0  0
  -20.8083  -22.4012   28.0724 O   0  0  0  0  0  0  0  0  0  0  0  0
  -31.8657  -14.8323   19.8517 O   0  0  0  0  0  0  0  0  0  0  0  0
  -21.6335   -7.6426   23.5502 O   0  0  0  0  0  0  0  0  0  0  0  0
  -22.6253  -17.9618   23.2411 O   0  0  0  0  0  0  0  0  0  1  0  0
  -18.5542   -8.8829   27.9529 F   0  0  0  0  0  0  0  0  0  0  0  0
  -22.0618   -6.3922   25.9783 F   0  0  0  0  0  0  0  0  0  0  0  0
  1  2  1  0  0  0  0
  1  5  2  0  0  0  0
  2  6  2  0  0  0  0
  3  8  2  0  0  0  0
  3 16  1  0  0  0  0
  4  9  1  0  0  0  0
  4 16  2  0  0  0  0
  5 18  1  0  0  0  0
  6 20  1  0  0  0  0
  7 10  2  0  0  0  0
  7 19  1  0  0  0  0
  8 22  1  0  0  0  0
  9 22  2  0  0  0  0
 10 23  1  0  0  0  0
 11 12  2  0  0  0  0
 11 24  1  0  0  0  0
 12 25  1  0  0  0  0
 13 21  1  0  0  0  0
 13 23  2  0  0  0  0
 14 25  2  0  0  0  0
 14 26  1  0  0  0  0
 15 28  2  0  0  0  0
 15 70  1  0  0  0  0
 16 27  1  0  0  0  0
 17 27  1  0  0  0  0
 17 29  2  0  0  0  0
 17 30  1  0  0  0  0
 18 20  2  0  0  0  0
 18 35  1  0  0  0  0
 19 21  2  0  0  0  0
 19 36  1  0  0  0  0
 20 44  1  0  0  0  0
 21 37  1  0  0  0  0
 22 85  1  0  0  0  0
 23 86  1  0  0  0  0
 24 26  2  0  0  0  0
 24 85  1  0  0  0  0
 25 87  1  0  0  0  0
 26 88  1  0  0  0  0
 27 67  2  0  0  0  0
 28 60  1  0  0  0  0
 28 68  1  0  0  0  0
 29 71  1  0  0  0  0
 29 74  1  0  0  0  0
 30 75  1  0  0  0  0
 30 80  2  0  0  0  0
 31 45  1  0  0  0  0
 31 76  1  0  0  0  0
 31 81  2  0  0  0  0
 32 61  1  0  0  0  0
 32 72  1  0  0  0  0
 32 82  2  0  0  0  0
 33 62  1  0  0  0  0
 33 77  1  0  0  0  0
 33 83  2  0  0  0  0
 34 73  1  0  0  0  0
 34 78  1  0  0  0  0
 34 84  2  0  0  0  0
 35 38  1  0  0  0  0
 36 45  1  0  0  0  0
 37 72  1  0  0  0  0
 38 40  1  0  0  0  0
 39 41  1  0  0  0  0
 39 42  1  0  0  0  0
 40 44  1  0  0  0  0
 41 46  1  0  0  0  0
 42 73  1  0  0  0  0
 43 46  1  0  0  0  0
 43 73  1  0  0  0  0
 44 76  1  0  0  0  0
 45 72  1  0  0  0  0
 46 71  1  0  0  0  0
 47 60  1  0  0  0  0
 48 62  1  0  0  0  0
 49 63  1  0  0  0  0
 50 64  1  0  0  0  0
 51 65  1  0  0  0  0
 52 65  1  0  0  0  0
 53 65  1  0  0  0  0
 54 66  1  0  0  0  0
 55 66  1  0  0  0  0
 56 79  1  0  0  0  0
 57 59  1  0  0  0  0
 57 60  1  0  0  0  0
 58 66  1  0  0  0  0
 58 78  1  0  0  0  0
 59 86  1  0  0  0  0
 61 65  1  0  0  0  0
 61 77  1  0  0  0  0
 62 79  1  0  0  0  0
 63 64  1  0  0  0  0
 63 66  1  0  0  0  0
 64 70  1  0  0  0  0
 67 71  1  0  0  0  0
 68 69  2  0  0  0  0
 69 70  1  0  0  0  0
M  CHG  1  79   1
M  ISO  4  34 100  59 101  78 100  86 101
M  END
> <Batch ID>
0065

> <Smiles>
CNC(C)C(=O)NC(C(=O)N1Cc2cc([101O:1][101CH2:1]CC(C)c3cn(C(C)C(C)C(C)(C)C[100NH:0][100C:0](=O)N4CCCC(n5nc(-c6ccc(Oc7ccc(F)cc7F)cc6)c(C(N)=O)c5N)C4)nn3)ccc2CC1C(=O)NC1CCCc2ccccc21)C(C)(C)C

> <Shape>
0.169

> <Color>
0.157

> <Negative vol penalty>
0.000

$$$$

  -OEChem-04052318073D

 87 95  0     1  0  0  0  0  0999 V2000
  -28.9804  -26.1968   15.7544 C   0  0  0  0  0  0  0  0  0  0  0  0
  -27.8517  -26.0548   16.5552 C   0  0  0  0  0  0  0  0  0  0  0  0
  -25.7379  -13.2910   19.4942 C   0  0  0  0  0  0  0  0  0  0  0  0
  -24.4833  -13.2350   21.5582 C   0  0  0  0  0  0  0  0  0  0  0  0
  -30.0834  -26.9073   16.2261 C   0  0  0  0  0  0  0  0  0  0  0  0
  -27.8259  -26.6222   17.8287 C   0  0  0  0  0  0  0  0  0  0  0  0
  -23.4699  -29.0148   18.8015 C   0  0  0  0  0  0  0  0  0  0  0  0
  -25.8352  -11.8998   19.5155 C   0  0  0  0  0  0  0  0  0  0  0  0
  -24.5806  -11.8436   21.5795 C   0  0  0  0  0  0  0  0  0  0  0  0
  -22.3714  -28.2253   19.1389 C   0  0  0  0  0  0  0  0  0  0  0  0
  -23.0761   -9.2198   20.0720 C   0  0  0  0  0  0  0  0  0  0  0  0
  -21.9228   -8.4956   20.3735 C   0  0  0  0  0  0  0  0  0  0  0  0
  -22.7373  -28.7233   21.4707 C   0  0  0  0  0  0  0  0  0  0  0  0
  -23.0314   -7.5281   22.2898 C   0  0  0  0  0  0  0  0  0  0  0  0
  -24.5709  -22.5260   22.2219 C   0  0  0  0  0  0  0  0  0  0  0  0
  -23.8720  -23.7174   24.1057 C   0  0  0  0  0  0  0  0  0  0  0  0
  -25.0620  -13.9587   20.5156 C   0  0  0  0  0  0  0  0  0  0  0  0
  -23.9467  -16.1685   19.8987 C   0  0  0  0  0  0  0  0  0  0  0  0
  -30.0674  -27.4919   17.5022 C   0  0  0  0  0  0  0  0  0  0  0  0
  -24.2182  -29.6567   19.7987 C   0  0  0  0  0  0  0  0  0  0  0  0
  -28.9303  -27.3400   18.3184 C   0  0  0  0  0  0  0  0  0  0  0  0
  -23.8433  -29.5224   21.1432 C   0  0  0  0  0  0  0  0  0  0  0  0
  -23.5625  -23.2239   22.8547 C   0  0  0  0  0  0  0  0  0  0  0  0
  -25.2566  -11.1761   20.5581 C   0  0  0  0  0  0  0  0  0  0  0  0
  -22.0067  -28.0771   20.4738 C   0  0  0  0  0  0  0  0  0  0  0  0
  -24.2071   -9.0981   20.8794 C   0  0  0  0  0  0  0  0  0  0  0  0
  -21.9004   -7.6497   21.4824 C   0  0  0  0  0  0  0  0  0  0  0  0
  -24.1847   -8.2523   21.9883 C   0  0  0  0  0  0  0  0  0  0  0  0
  -24.9616  -15.3959   20.4944 C   0  0  0  0  0  0  0  0  0  0  0  0
  -24.3092  -17.4682   20.1554 C   0  0  0  0  0  0  0  0  0  0  0  0
  -25.9699  -22.8508   23.9838 C   0  0  0  0  0  0  0  0  0  0  0  0
  -22.7805  -15.7488   19.1779 C   0  0  0  0  0  0  0  0  0  0  0  0
  -27.2348  -29.5025   20.7887 C   0  0  0  0  0  0  0  0  0  0  0  0
  -26.3367  -31.9905   22.6663 C   0  0  0  0  0  0  0  0  0  0  0  0
  -26.5092  -20.2215   24.8016 C   0  0  0  0  0  0  0  0  0  0  0  0
  -23.8165  -33.6747   24.2343 C   0  0  0  0  0  0  0  0  0  0  0  0
  -31.3017  -28.2104   17.9871 C   0  0  0  0  0  0  0  0  0  0  0  0
  -25.3843  -30.5264   19.4163 C   0  0  0  0  0  0  0  0  0  0  0  0
  -24.6015  -30.2070   22.2500 C   0  0  0  0  0  0  0  0  0  0  0  0
  -31.0509  -29.0997   19.2022 C   0  0  0  0  0  0  0  0  0  0  0  0
  -28.6165  -19.4595   21.9008 C   0  0  0  0  0  0  0  0  0  0  0  0
  -30.2301  -28.3537   20.2494 C   0  0  0  0  0  0  0  0  0  0  0  0
  -27.8002  -18.2505   21.4320 C   0  0  0  0  0  0  0  0  0  0  0  0
  -27.7890  -20.5178   22.6292 C   0  0  0  0  0  0  0  0  0  0  0  0
  -25.8162  -19.0008   22.7860 C   0  0  0  0  0  0  0  0  0  0  0  0
  -28.8547  -27.9621   19.6959 C   0  0  1  0  0  0  0  0  0  0  0  0
  -26.3843  -30.7184   20.5523 C   0  0  1  0  0  0  0  0  0  0  0  0
  -26.2965  -18.5569   21.3937 C   0  0  2  0  0  0  0  0  0  0  0  0
  -23.3961  -35.6480   25.7265 C   0  0  0  0  0  0  0  0  0  0  0  0
  -19.2416  -26.4019   19.3664 C   0  0  0  0  0  0  0  0  0  0  0  0
  -27.7104  -23.8210   25.5839 C   0  0  0  0  0  0  0  0  0  0  0  0
  -28.4667  -22.6912   23.5405 C   0  0  0  0  0  0  0  0  0  0  0  0
  -26.9486  -21.3952   26.8968 C   0  0  0  0  0  0  0  0  0  0  0  0
  -28.8209  -20.6149   25.4595 C   0  0  0  0  0  0  0  0  0  0  0  0
  -27.3900  -30.4073   25.0526 C   0  0  0  0  0  0  0  0  0  0  0  0
  -26.1124  -31.9519   26.5526 C   0  0  0  0  0  0  0  0  0  0  0  0
  -27.9310  -32.8485   25.0995 C   0  0  0  0  0  0  0  0  0  0  0  0
  -22.1063  -34.9896   22.2081 C   0  0  0  0  0  0  0  0  0  0  0  0
  -22.2098  -23.4312   22.2212 C   0  0  0  0  0  0  0  0  0  0  0  0
  -22.1103  -24.7081   21.3783 C   0  0  0  0  0  0  0  0  0  0  0  0
  -20.7235  -24.9048   20.7507 C   0  0  0  0  0  0  0  0  0  0  0  0
  -25.7471  -32.1278   24.0493 C   0  0  1  0  0  0  0  0  0  0  0  0
  -23.4755  -35.1529   24.2908 C   0  0  2  0  0  0  0  0  0  0  0  0
  -20.6355  -26.2066   19.9478 C   0  0  2  0  0  0  0  0  0  1  0  0
  -27.3055  -22.6412   24.6128 C   0  0  0  0  0  0  0  0  0  0  0  0
  -27.4137  -21.2496   25.4317 C   0  0  0  0  0  0  0  0  0  0  0  0
  -26.7818  -31.8193   25.1680 C   0  0  0  0  0  0  0  0  0  0  0  0
  -25.7911  -22.3198   22.7592 N   0  0  0  0  0  0  0  0  0  0  0  0
  -25.0701  -23.5487   24.7027 N   0  0  0  0  0  0  0  0  0  0  0  0
  -25.8986  -16.1425   21.0848 N   0  0  0  0  0  0  0  0  0  0  0  0
  -25.4740  -17.3978   20.8614 N   0  0  0  0  0  0  0  0  0  0  0  0
  -25.7378  -31.0414   21.8259 N   0  0  0  0  0  0  0  0  0  0  0  0
  -26.7428  -19.9163   23.4596 N   0  0  0  0  0  0  0  0  0  0  0  0
  -23.7421  -18.6529   19.8437 N   0  0  0  0  0  0  0  0  0  0  0  0
  -22.5597  -14.3755   19.0056 N   0  0  0  0  0  0  0  0  0  0  0  0
  -27.9689  -29.1066   19.6869 N   0  0  0  0  0  0  0  0  0  0  0  0
  -25.1748  -33.4680   24.1177 N   0  0  0  0  0  0  0  0  0  0  0  0
  -22.1628  -35.4072   23.6327 N   0  3  0  0  0  0  0  0  0  0  0  0
  -21.9671  -16.5678   18.6867 O   0  0  0  0  0  0  0  0  0  0  0  0
  -27.2268  -28.9643   21.8895 O   0  0  0  0  0  0  0  0  0  0  0  0
  -27.2889  -32.7042   22.3413 O   0  0  0  0  0  0  0  0  0  0  0  0
  -25.6196  -19.6989   25.4786 O   0  0  0  0  0  0  0  0  0  0  0  0
  -22.9636  -32.7917   24.2918 O   0  0  0  0  0  0  0  0  0  0  0  0
  -25.3511   -9.8184   20.5791 O   0  0  0  0  0  0  0  0  0  0  0  0
  -20.9353  -27.3066   20.8059 O   0  0  0  0  0  0  0  0  0  1  0  0
  -20.7923   -6.9555   21.7727 F   0  0  0  0  0  0  0  0  0  0  0  0
  -25.2678   -8.1322   22.7683 F   0  0  0  0  0  0  0  0  0  0  0  0
  1  2  1  0  0  0  0
  1  5  2  0  0  0  0
  2  6  2  0  0  0  0
  3  8  2  0  0  0  0
  3 17  1  0  0  0  0
  4  9  1  0  0  0  0
  4 17  2  0  0  0  0
  5 19  1  0  0  0  0
  6 21  1  0  0  0  0
  7 10  2  0  0  0  0
  7 20  1  0  0  0  0
  8 24  1  0  0  0  0
  9 24  2  0  0  0  0
 10 25  1  0  0  0  0
 11 12  2  0  0  0  0
 11 26  1  0  0  0  0
 12 27  1  0  0  0  0
 13 22  1  0  0  0  0
 13 25  2  0  0  0  0
 14 27  2  0  0  0  0
 14 28  1  0  0  0  0
 15 23  1  0  0  0  0
 15 68  2  0  0  0  0
 16 23  2  0  0  0  0
 16 69  1  0  0  0  0
 17 29  1  0  0  0  0
 18 29  1  0  0  0  0
 18 30  2  0  0  0  0
 18 32  1  0  0  0  0
 19 21  2  0  0  0  0
 19 37  1  0  0  0  0
 20 22  2  0  0  0  0
 20 38  1  0  0  0  0
 21 46  1  0  0  0  0
 22 39  1  0  0  0  0
 23 59  1  0  0  0  0
 24 84  1  0  0  0  0
 25 85  1  0  0  0  0
 26 28  2  0  0  0  0
 26 84  1  0  0  0  0
 27 86  1  0  0  0  0
 28 87  1  0  0  0  0
 29 70  2  0  0  0  0
 30 71  1  0  0  0  0
 30 74  1  0  0  0  0
 31 65  1  0  0  0  0
 31 68  1  0  0  0  0
 31 69  2  0  0  0  0
 32 75  1  0  0  0  0
 32 79  2  0  0  0  0
 33 47  1  0  0  0  0
 33 76  1  0  0  0  0
 33 80  2  0  0  0  0
 34 62  1  0  0  0  0
 34 72  1  0  0  0  0
 34 81  2  0  0  0  0
 35 66  1  0  0  0  0
 35 73  1  0  0  0  0
 35 82  2  0  0  0  0
 36 63  1  0  0  0  0
 36 77  1  0  0  0  0
 36 83  2  0  0  0  0
 37 40  1  0  0  0  0
 38 47  1  0  0  0  0
 39 72  1  0  0  0  0
 40 42  1  0  0  0  0
 41 43  1  0  0  0  0
 41 44  1  0  0  0  0
 42 46  1  0  0  0  0
 43 48  1  0  0  0  0
 44 73  1  0  0  0  0
 45 48  1  0  0  0  0
 45 73  1  0  0  0  0
 46 76  1  0  0  0  0
 47 72  1  0  0  0  0
 48 71  1  0  0  0  0
 49 63  1  0  0  0  0
 50 64  1  0  0  0  0
 51 65  1  0  0  0  0
 52 65  1  0  0  0  0
 53 66  1  0  0  0  0
 54 66  1  0  0  0  0
 55 67  1  0  0  0  0
 56 67  1  0  0  0  0
 57 67  1  0  0  0  0
 58 78  1  0  0  0  0
 59 60  1  0  0  0  0
 60 61  1  0  0  0  0
 61 64  1  0  0  0  0
 62 67  1  0  0  0  0
 62 77  1  0  0  0  0
 63 78  1  0  0  0  0
 64 85  1  0  0  0  0
 65 66  1  0  0  0  0
 70 71  1  0  0  0  0
M  CHG  1  78   1
M  ISO  4  35 100  64 101  66 100  85 101
M  END
> <Batch ID>
0065

> <Smiles>
CNC(C)C(=O)NC(C(=O)N1Cc2cc([101O:1][101CH:1](C)CCCc3cnc(C(C)(C)[100C:0](C)(C)[100C:0](=O)N4CCCC(n5nc(-c6ccc(Oc7ccc(F)cc7F)cc6)c(C(N)=O)c5N)C4)nc3)ccc2CC1C(=O)NC1CCCc2ccccc21)C(C)(C)C

> <Shape>
0.230

> <Color>
0.083

> <Negative vol penalty>
0.000

$$$$

  -OEChem-04052318073D

 89 97  0     1  0  0  0  0  0999 V2000
  -19.2737  -24.1953   22.5133 C   0  0  0  0  0  0  0  0  0  0  0  0
  -20.3117  -24.5026   21.6394 C   0  0  0  0  0  0  0  0  0  0  0  0
  -27.1369  -13.2532   21.1707 C   0  0  0  0  0  0  0  0  0  0  0  0
  -27.0203  -14.1209   18.9189 C   0  0  0  0  0  0  0  0  0  0  0  0
  -18.5588  -25.2198   23.1324 C   0  0  0  0  0  0  0  0  0  0  0  0
  -20.6346  -25.8348   21.3833 C   0  0  0  0  0  0  0  0  0  0  0  0
  -25.6272  -26.6768   21.4808 C   0  0  0  0  0  0  0  0  0  0  0  0
  -26.3875  -12.1429   20.7817 C   0  0  0  0  0  0  0  0  0  0  0  0
  -26.2709  -13.0106   18.5299 C   0  0  0  0  0  0  0  0  0  0  0  0
  -26.3600  -26.2910   20.3592 C   0  0  0  0  0  0  0  0  0  0  0  0
  -23.1408  -11.4132   20.1895 C   0  0  0  0  0  0  0  0  0  0  0  0
  -22.0989  -11.0105   21.0248 C   0  0  0  0  0  0  0  0  0  0  0  0
  -26.3637  -28.5752   19.5835 C   0  0  0  0  0  0  0  0  0  0  0  0
  -23.1541   -8.8549   21.3019 C   0  0  0  0  0  0  0  0  0  0  0  0
  -29.7471  -23.4284   17.9094 C   0  0  0  0  0  0  0  0  0  0  0  0
  -30.0157  -26.0811   18.0443 C   0  0  0  0  0  0  0  0  0  0  0  0
  -27.4533  -14.2422   20.2393 C   0  0  0  0  0  0  0  0  0  0  0  0
  -29.6284  -15.5200   20.6181 C   0  0  0  0  0  0  0  0  0  0  0  0
  -18.8795  -26.5650   22.8912 C   0  0  0  0  0  0  0  0  0  0  0  0
  -25.2471  -28.0150   21.6570 C   0  0  0  0  0  0  0  0  0  0  0  0
  -19.9224  -26.8782   21.9987 C   0  0  0  0  0  0  0  0  0  0  0  0
  -25.6283  -28.9758   20.7095 C   0  0  0  0  0  0  0  0  0  0  0  0
  -25.9545  -12.0216   19.4613 C   0  0  0  0  0  0  0  0  0  0  0  0
  -26.7259  -27.2398   19.4089 C   0  0  0  0  0  0  0  0  0  0  0  0
  -24.1893  -10.5367   19.9102 C   0  0  0  0  0  0  0  0  0  0  0  0
  -22.1056   -9.7314   21.5811 C   0  0  0  0  0  0  0  0  0  0  0  0
  -24.1960   -9.2576   20.4664 C   0  0  0  0  0  0  0  0  0  0  0  0
  -28.2269  -15.3896   20.6407 C   0  0  0  0  0  0  0  0  0  0  0  0
  -30.2781  -24.0332   19.0274 C   0  0  0  0  0  0  0  0  0  0  0  0
  -29.4855  -25.4764   16.9260 C   0  0  0  0  0  0  0  0  0  0  0  0
  -29.8630  -16.7872   21.0934 C   0  0  0  0  0  0  0  0  0  0  0  0
  -30.6288  -14.5799   20.2045 C   0  0  0  0  0  0  0  0  0  0  0  0
  -22.4713  -29.5499   21.8637 C   0  0  0  0  0  0  0  0  0  0  0  0
  -24.3713  -32.0912   22.5378 C   0  0  0  0  0  0  0  0  0  0  0  0
  -27.4395  -33.5634   22.2816 C   0  0  0  0  0  0  0  0  0  0  0  0
  -28.6745  -22.2387   21.2101 C   0  0  0  0  0  0  0  0  0  0  0  0
  -18.0475  -27.6384   23.5472 C   0  0  0  0  0  0  0  0  0  0  0  0
  -24.4798  -28.4196   22.8858 C   0  0  0  0  0  0  0  0  0  0  0  0
  -25.2625  -30.4289   20.8622 C   0  0  0  0  0  0  0  0  0  0  0  0
  -18.6970  -29.0195   23.5114 C   0  0  0  0  0  0  0  0  0  0  0  0
  -26.7493  -20.1015   23.3084 C   0  0  0  0  0  0  0  0  0  0  0  0
  -19.2363  -29.3198   22.1165 C   0  0  0  0  0  0  0  0  0  0  0  0
  -27.0728  -18.6971   22.7956 C   0  0  0  0  0  0  0  0  0  0  0  0
  -26.6851  -21.1172   22.1699 C   0  0  0  0  0  0  0  0  0  0  0  0
  -28.2022  -19.7491   20.7914 C   0  0  0  0  0  0  0  0  0  0  0  0
  -20.3188  -28.3108   21.7145 C   0  0  1  0  0  0  0  0  0  0  0  0
  -23.7047  -29.7211   22.7047 C   0  0  1  0  0  0  0  0  0  0  0  0
  -28.3329  -18.7004   21.9092 C   0  0  2  0  0  0  0  0  0  0  0  0
  -25.0781  -25.8123   15.9825 C   0  0  0  0  0  0  0  0  0  0  0  0
  -28.6774  -35.6572   22.8987 C   0  0  0  0  0  0  0  0  0  0  0  0
  -29.2292  -25.4394   14.4535 C   0  0  0  0  0  0  0  0  0  0  0  0
  -29.9043  -27.5860   15.4926 C   0  0  0  0  0  0  0  0  0  0  0  0
  -32.5052  -21.9016   21.4726 C   0  0  0  0  0  0  0  0  0  0  0  0
  -33.2176  -23.9194   20.1761 C   0  0  0  0  0  0  0  0  0  0  0  0
  -32.5192  -21.8401   18.9836 C   0  0  0  0  0  0  0  0  0  0  0  0
  -22.9495  -33.5906   20.2928 C   0  0  0  0  0  0  0  0  0  0  0  0
  -24.8145  -35.2607   20.3215 C   0  0  0  0  0  0  0  0  0  0  0  0
  -23.3867  -34.9532   22.3438 C   0  0  0  0  0  0  0  0  0  0  0  0
  -29.3875  -32.0643   23.9299 C   0  0  0  0  0  0  0  0  0  0  0  0
  -26.5646  -25.4937   15.8829 C   0  0  0  0  0  0  0  0  0  0  0  0
  -27.2409  -27.6210   17.1186 C   0  0  0  0  0  0  0  0  0  1  0  0
  -30.7159  -23.2165   20.1926 C   0  0  2  0  0  0  0  0  0  0  0  0
  -25.0567  -33.1600   21.7212 C   0  0  1  0  0  0  0  0  0  0  0  0
  -28.3223  -34.2385   23.3157 C   0  0  2  0  0  0  0  0  0  0  0  0
  -27.5013  -26.7392   15.8755 C   0  0  1  0  0  0  0  0  0  0  0  0
  -29.0294  -26.3263   15.7136 C   0  0  0  0  0  0  0  0  0  0  0  0
  -32.2267  -22.7403   20.2072 C   0  0  0  0  0  0  0  0  0  0  0  0
  -24.0572  -34.2135   21.1657 C   0  0  0  0  0  0  0  0  0  0  0  0
  -30.4216  -25.3704   19.1151 N   0  0  0  0  0  0  0  0  0  0  0  0
  -29.3416  -24.1392   16.8385 N   0  0  0  0  0  0  0  0  0  0  0  0
  -27.6142  -16.4863   21.0945 N   0  0  0  0  0  0  0  0  0  0  0  0
  -28.6356  -17.3179   21.3616 N   0  0  0  0  0  0  0  0  0  0  0  0
  -24.5064  -30.7737   22.0774 N   0  0  0  0  0  0  0  0  0  0  0  0
  -27.9106  -21.0706   21.3687 N   0  0  0  0  0  0  0  0  0  0  0  0
  -30.9974  -17.4880   21.3039 N   0  0  0  0  0  0  0  0  0  0  0  0
  -30.2144  -13.3233   19.7425 N   0  0  0  0  0  0  0  0  0  0  0  0
  -21.5721  -28.6281   22.3650 N   0  0  0  0  0  0  0  0  0  0  0  0
  -26.1008  -33.7182   22.5736 N   0  0  0  0  0  0  0  0  0  0  0  0
  -29.8241  -22.1058   20.4411 N   0  0  0  0  0  0  0  0  0  0  0  0
  -29.5871  -33.4714   23.4971 N   0  3  0  0  0  0  0  0  0  0  0  0
  -31.8546  -14.8404   20.2589 O   0  0  0  0  0  0  0  0  0  0  0  0
  -22.3442  -30.2066   20.8370 O   0  0  0  0  0  0  0  0  0  0  0  0
  -23.7453  -32.4125   23.5510 O   0  0  0  0  0  0  0  0  0  0  0  0
  -27.8920  -32.9622   21.3098 O   0  0  0  0  0  0  0  0  0  0  0  0
  -28.3583  -23.3186   21.7208 O   0  0  0  0  0  0  0  0  0  0  0  0
  -25.2234  -10.9383   19.0813 O   0  0  0  0  0  0  0  0  0  0  0  0
  -27.4406  -26.8658   18.3129 O   0  0  0  0  0  0  0  0  0  1  0  0
  -21.1057   -9.3453   22.3845 F   0  0  0  0  0  0  0  0  0  0  0  0
  -25.2013   -8.4115   20.2028 F   0  0  0  0  0  0  0  0  0  0  0  0
  1  2  1  0  0  0  0
  1  5  2  0  0  0  0
  2  6  2  0  0  0  0
  3  8  2  0  0  0  0
  3 17  1  0  0  0  0
  4  9  1  0  0  0  0
  4 17  2  0  0  0  0
  5 19  1  0  0  0  0
  6 21  1  0  0  0  0
  7 10  2  0  0  0  0
  7 20  1  0  0  0  0
  8 23  1  0  0  0  0
  9 23  2  0  0  0  0
 10 24  1  0  0  0  0
 11 12  2  0  0  0  0
 11 25  1  0  0  0  0
 12 26  1  0  0  0  0
 13 22  1  0  0  0  0
 13 24  2  0  0  0  0
 14 26  2  0  0  0  0
 14 27  1  0  0  0  0
 15 29  2  0  0  0  0
 15 70  1  0  0  0  0
 16 30  1  0  0  0  0
 16 69  2  0  0  0  0
 17 28  1  0  0  0  0
 18 28  1  0  0  0  0
 18 31  2  0  0  0  0
 18 32  1  0  0  0  0
 19 21  2  0  0  0  0
 19 37  1  0  0  0  0
 20 22  2  0  0  0  0
 20 38  1  0  0  0  0
 21 46  1  0  0  0  0
 22 39  1  0  0  0  0
 23 86  1  0  0  0  0
 24 87  1  0  0  0  0
 25 27  2  0  0  0  0
 25 86  1  0  0  0  0
 26 88  1  0  0  0  0
 27 89  1  0  0  0  0
 28 71  2  0  0  0  0
 29 62  1  0  0  0  0
 29 69  1  0  0  0  0
 30 66  1  0  0  0  0
 30 70  2  0  0  0  0
 31 72  1  0  0  0  0
 31 75  1  0  0  0  0
 32 76  1  0  0  0  0
 32 81  2  0  0  0  0
 33 47  1  0  0  0  0
 33 77  1  0  0  0  0
 33 82  2  0  0  0  0
 34 63  1  0  0  0  0
 34 73  1  0  0  0  0
 34 83  2  0  0  0  0
 35 64  1  0  0  0  0
 35 78  1  0  0  0  0
 35 84  2  0  0  0  0
 36 74  1  0  0  0  0
 36 79  1  0  0  0  0
 36 85  2  0  0  0  0
 37 40  1  0  0  0  0
 38 47  1  0  0  0  0
 39 73  1  0  0  0  0
 40 42  1  0  0  0  0
 41 43  1  0  0  0  0
 41 44  1  0  0  0  0
 42 46  1  0  0  0  0
 43 48  1  0  0  0  0
 44 74  1  0  0  0  0
 45 48  1  0  0  0  0
 45 74  1  0  0  0  0
 46 77  1  0  0  0  0
 47 73  1  0  0  0  0
 48 72  1  0  0  0  0
 49 60  1  0  0  0  0
 50 64  1  0  0  0  0
 51 66  1  0  0  0  0
 52 66  1  0  0  0  0
 53 67  1  0  0  0  0
 54 67  1  0  0  0  0
 55 67  1  0  0  0  0
 56 68  1  0  0  0  0
 57 68  1  0  0  0  0
 58 68  1  0  0  0  0
 59 80  1  0  0  0  0
 60 65  1  0  0  0  0
 61 65  1  0  0  0  0
 61 87  1  0  0  0  0
 62 67  1  0  0  0  0
 62 79  1  0  0  0  0
 63 68  1  0  0  0  0
 63 78  1  0  0  0  0
 64 80  1  0  0  0  0
 65 66  1  0  0  0  0
 71 72  1  0  0  0  0
M  CHG  1  80   1
M  ISO  4  36 100  61 101  79 100  87 101
M  END
> <Batch ID>
0065

> <Smiles>
CCC(C(C)(C)c1cnc(C([100NH:0][100C:0](=O)N2CCCC(n3nc(-c4ccc(Oc5ccc(F)cc5F)cc4)c(C(N)=O)c3N)C2)C(C)(C)C)cn1)[101CH2:1][101O:1]c1ccc2c(c1)CN(C(=O)C(NC(=O)C(C)NC)C(C)(C)C)C(C(=O)NC1CCCc3ccccc31)C2

> <Shape>
0.305

> <Color>
0.104

> <Negative vol penalty>
0.000

$$$$

  -OEChem-04052318073D

 96104  0     1  0  0  0  0  0999 V2000
  -16.9326  -29.1791   24.4944 C   0  0  0  0  0  0  0  0  0  0  0  0
  -17.3422  -28.0229   23.8381 C   0  0  0  0  0  0  0  0  0  0  0  0
  -25.2237  -13.9714   22.1202 C   0  0  0  0  0  0  0  0  0  0  0  0
  -27.0195  -13.6828   20.5299 C   0  0  0  0  0  0  0  0  0  0  0  0
  -17.5475  -30.3971   24.2077 C   0  0  0  0  0  0  0  0  0  0  0  0
  -18.3663  -28.0842   22.8938 C   0  0  0  0  0  0  0  0  0  0  0  0
  -22.6014  -23.8048   21.7727 C   0  0  0  0  0  0  0  0  0  0  0  0
  -24.4633  -13.0252   21.4332 C   0  0  0  0  0  0  0  0  0  0  0  0
  -26.2590  -12.7366   19.8429 C   0  0  0  0  0  0  0  0  0  0  0  0
  -22.6973  -22.8128   20.7978 C   0  0  0  0  0  0  0  0  0  0  0  0
  -24.3076   -9.6564   21.1879 C   0  0  0  0  0  0  0  0  0  0  0  0
  -23.6454   -8.6866   21.9406 C   0  0  0  0  0  0  0  0  0  0  0  0
  -24.0773  -24.2699   19.4593 C   0  0  0  0  0  0  0  0  0  0  0  0
  -21.5285   -9.4485   21.0599 C   0  0  0  0  0  0  0  0  0  0  0  0
  -26.5019  -14.3003   21.6685 C   0  0  0  0  0  0  0  0  0  0  0  0
  -28.1864  -15.0418   23.4349 C   0  0  0  0  0  0  0  0  0  0  0  0
  -18.5863  -30.4718   23.2664 C   0  0  0  0  0  0  0  0  0  0  0  0
  -23.2348  -25.0429   21.5929 C   0  0  0  0  0  0  0  0  0  0  0  0
  -18.9948  -29.3046   22.5932 C   0  0  0  0  0  0  0  0  0  0  0  0
  -23.9900  -25.2751   20.4345 C   0  0  0  0  0  0  0  0  0  0  0  0
  -24.9809  -12.4077   20.2946 C   0  0  0  0  0  0  0  0  0  0  0  0
  -23.4329  -23.0462   19.6396 C   0  0  0  0  0  0  0  0  0  0  0  0
  -23.5803  -10.5224   20.3713 C   0  0  0  0  0  0  0  0  0  0  0  0
  -22.2559   -8.5826   21.8766 C   0  0  0  0  0  0  0  0  0  0  0  0
  -22.1908  -10.4184   20.3073 C   0  0  0  0  0  0  0  0  0  0  0  0
  -27.2877  -15.2780   22.3774 C   0  0  0  0  0  0  0  0  0  0  0  0
  -28.8677  -17.6310   15.9561 C   0  0  0  0  0  0  0  0  0  0  0  0
  -28.4848  -18.6601   16.7878 C   0  0  0  0  0  0  0  0  0  0  0  0
  -26.6792  -17.2616   15.4053 C   0  0  0  0  0  0  0  0  0  0  0  0
  -26.2961  -18.2902   16.2376 C   0  0  0  0  0  0  0  0  0  0  0  0
  -28.6724  -16.2854   23.7568 C   0  0  0  0  0  0  0  0  0  0  0  0
  -28.5496  -13.8084   24.0694 C   0  0  0  0  0  0  0  0  0  0  0  0
  -22.2470  -28.0553   21.3620 C   0  0  0  0  0  0  0  0  0  0  0  0
  -25.4280  -28.6903   21.3816 C   0  0  0  0  0  0  0  0  0  0  0  0
  -28.6052  -27.5923   20.7928 C   0  0  0  0  0  0  0  0  0  0  0  0
  -29.3242  -21.3372   20.8019 C   0  0  0  0  0  0  0  0  0  0  0  0
  -19.1886  -31.8190   22.9553 C   0  0  0  0  0  0  0  0  0  0  0  0
  -23.1438  -26.0929   22.6660 C   0  0  0  0  0  0  0  0  0  0  0  0
  -24.7057  -26.5799   20.2027 C   0  0  0  0  0  0  0  0  0  0  0  0
  -20.5206  -31.7343   22.2145 C   0  0  0  0  0  0  0  0  0  0  0  0
  -27.4808  -20.9099   23.7080 C   0  0  0  0  0  0  0  0  0  0  0  0
  -20.4292  -30.7366   21.0642 C   0  0  0  0  0  0  0  0  0  0  0  0
  -27.2996  -19.3960   23.8089 C   0  0  0  0  0  0  0  0  0  0  0  0
  -27.3294  -21.3813   22.2666 C   0  0  0  0  0  0  0  0  0  0  0  0
  -28.1003  -19.1953   21.4016 C   0  0  0  0  0  0  0  0  0  0  0  0
  -20.1191  -29.3263   21.5804 C   0  0  1  0  0  0  0  0  0  0  0  0
  -23.4040  -27.5032   22.1457 C   0  0  1  0  0  0  0  0  0  0  0  0
  -28.2448  -18.6620   22.8418 C   0  0  2  0  0  0  0  0  0  0  0  0
  -30.3009  -17.2560   15.7922 C   0  0  0  0  0  0  0  0  0  0  0  0
  -27.9313  -22.9327   18.4221 C   0  0  0  0  0  0  0  0  0  0  0  0
  -30.9963  -28.3503   20.8645 C   0  0  0  0  0  0  0  0  0  0  0  0
  -25.0009  -30.2729   18.8081 C   0  0  0  0  0  0  0  0  0  0  0  0
  -27.4742  -30.1893   18.4285 C   0  0  0  0  0  0  0  0  0  0  0  0
  -26.5616  -31.3423   20.4436 C   0  0  0  0  0  0  0  0  0  0  0  0
  -25.3712  -11.9984   15.5798 C   0  0  0  0  0  0  0  0  0  0  0  0
  -23.6081  -13.1507   16.8949 C   0  0  0  0  0  0  0  0  0  0  0  0
  -23.0105  -11.9295   14.8094 C   0  0  0  0  0  0  0  0  0  0  0  0
  -24.7863  -13.8554   13.1595 C   0  0  0  0  0  0  0  0  0  0  0  0
  -22.9942  -14.9922   14.4598 C   0  0  0  0  0  0  0  0  0  0  0  0
  -31.1610  -21.0570   19.1816 C   0  0  0  0  0  0  0  0  0  0  0  0
  -29.3189  -25.5342   22.7963 C   0  0  0  0  0  0  0  0  0  0  0  0
  -25.6646  -16.4650   14.6191 C   0  0  0  0  0  0  0  0  0  0  0  0
  -24.8628  -18.6647   16.4016 C   0  0  0  0  0  0  0  0  0  0  0  0
  -29.4861  -19.4468   17.5625 C   0  0  0  0  0  0  0  0  0  0  0  0
  -28.5379  -21.8036   17.5983 C   0  0  0  0  0  0  0  0  0  0  0  0
  -24.5801  -19.5933   17.5970 C   0  0  0  0  0  0  0  0  0  0  0  0
  -25.3991  -15.0986   15.2745 C   0  0  0  0  0  0  0  0  0  0  0  0
  -23.0920  -19.9000   17.7710 C   0  0  0  0  0  0  0  0  0  0  0  0
  -22.8495  -20.8509   18.9352 C   0  0  0  0  0  0  0  0  0  1  0  0
  -26.4993  -28.8176   20.3256 C   0  0  1  0  0  0  0  0  0  0  0  0
  -29.8698  -27.6725   21.6288 C   0  0  2  0  0  0  0  0  0  0  0  0
  -28.8617  -20.5588   18.4387 C   0  0  2  0  0  0  0  0  0  0  0  0
  -26.3690  -30.1315   19.5047 C   0  0  0  0  0  0  0  0  0  0  0  0
  -24.0806  -12.8467   15.4521 C   0  0  0  0  0  0  0  0  0  0  0  0
  -24.3125  -14.1909   14.5970 C   0  0  0  0  0  0  0  0  0  0  0  0
  -27.2055  -16.5702   22.0495 N   0  0  0  0  0  0  0  0  0  0  0  0
  -27.9718  -16.9133   15.2498 N   0  0  0  0  0  0  0  0  0  0  0  0
  -27.1920  -19.0081   16.9436 N   0  0  0  0  0  0  0  0  0  0  0  0
  -28.0589  -17.1571   22.9059 N   0  0  0  0  0  0  0  0  0  0  0  0
  -24.5814  -27.5774   21.2783 N   0  0  0  0  0  0  0  0  0  0  0  0
  -28.2380  -20.6596   21.3752 N   0  0  0  0  0  0  0  0  0  0  0  0
  -29.5605  -16.7075   24.6818 N   0  0  0  0  0  0  0  0  0  0  0  0
  -27.9557  -12.6231   23.6149 N   0  0  0  0  0  0  0  0  0  0  0  0
  -21.3101  -28.7171   22.1326 N   0  0  0  0  0  0  0  0  0  0  0  0
  -27.7748  -28.6697   21.0182 N   0  0  0  0  0  0  0  0  0  0  0  0
  -29.7585  -20.9022   19.5407 N   0  0  0  0  0  0  0  0  0  0  0  0
  -30.3211  -26.3065   22.0177 N   0  3  0  0  0  0  0  0  0  0  0  0
  -29.3639  -13.7609   25.0223 O   0  0  0  0  0  0  0  0  0  0  0  0
  -22.2079  -27.8943   20.1478 O   0  0  0  0  0  0  0  0  0  0  0  0
  -25.3498  -29.5429   22.2696 O   0  0  0  0  0  0  0  0  0  0  0  0
  -28.3785  -26.6683   20.0147 O   0  0  0  0  0  0  0  0  0  0  0  0
  -29.8721  -22.2843   21.3807 O   0  0  0  0  0  0  0  0  0  0  0  0
  -24.2392  -11.4842   19.6241 O   0  0  0  0  0  0  0  0  0  0  0  0
  -23.5282  -22.0728   18.6792 O   0  0  0  0  0  0  0  0  0  1  0  0
  -21.6202   -7.6502   22.5982 F   0  0  0  0  0  0  0  0  0  0  0  0
  -21.4868  -11.2467   19.5237 F   0  0  0  0  0  0  0  0  0  0  0  0
  1  2  1  0  0  0  0
  1  5  2  0  0  0  0
  2  6  2  0  0  0  0
  3  8  2  0  0  0  0
  3 15  1  0  0  0  0
  4  9  1  0  0  0  0
  4 15  2  0  0  0  0
  5 17  1  0  0  0  0
  6 19  1  0  0  0  0
  7 10  2  0  0  0  0
  7 18  1  0  0  0  0
  8 21  1  0  0  0  0
  9 21  2  0  0  0  0
 10 22  1  0  0  0  0
 11 12  2  0  0  0  0
 11 23  1  0  0  0  0
 12 24  1  0  0  0  0
 13 20  1  0  0  0  0
 13 22  2  0  0  0  0
 14 24  2  0  0  0  0
 14 25  1  0  0  0  0
 15 26  1  0  0  0  0
 16 26  1  0  0  0  0
 16 31  2  0  0  0  0
 16 32  1  0  0  0  0
 17 19  2  0  0  0  0
 17 37  1  0  0  0  0
 18 20  2  0  0  0  0
 18 38  1  0  0  0  0
 19 46  1  0  0  0  0
 20 39  1  0  0  0  0
 21 93  1  0  0  0  0
 22 94  1  0  0  0  0
 23 25  2  0  0  0  0
 23 93  1  0  0  0  0
 24 95  1  0  0  0  0
 25 96  1  0  0  0  0
 26 76  2  0  0  0  0
 27 28  2  0  0  0  0
 27 49  1  0  0  0  0
 27 77  1  0  0  0  0
 28 64  1  0  0  0  0
 28 78  1  0  0  0  0
 29 30  1  0  0  0  0
 29 62  1  0  0  0  0
 29 77  2  0  0  0  0
 30 63  1  0  0  0  0
 30 78  2  0  0  0  0
 31 79  1  0  0  0  0
 31 82  1  0  0  0  0
 32 83  1  0  0  0  0
 32 88  2  0  0  0  0
 33 47  1  0  0  0  0
 33 84  1  0  0  0  0
 33 89  2  0  0  0  0
 34 70  1  0  0  0  0
 34 80  1  0  0  0  0
 34 90  2  0  0  0  0
 35 71  1  0  0  0  0
 35 85  1  0  0  0  0
 35 91  2  0  0  0  0
 36 81  1  0  0  0  0
 36 86  1  0  0  0  0
 36 92  2  0  0  0  0
 37 40  1  0  0  0  0
 38 47  1  0  0  0  0
 39 80  1  0  0  0  0
 40 42  1  0  0  0  0
 41 43  1  0  0  0  0
 41 44  1  0  0  0  0
 42 46  1  0  0  0  0
 43 48  1  0  0  0  0
 44 81  1  0  0  0  0
 45 48  1  0  0  0  0
 45 81  1  0  0  0  0
 46 84  1  0  0  0  0
 47 80  1  0  0  0  0
 48 79  1  0  0  0  0
 50 65  1  0  0  0  0
 51 71  1  0  0  0  0
 52 73  1  0  0  0  0
 53 73  1  0  0  0  0
 54 73  1  0  0  0  0
 55 74  1  0  0  0  0
 56 74  1  0  0  0  0
 57 74  1  0  0  0  0
 58 75  1  0  0  0  0
 59 75  1  0  0  0  0
 60 86  1  0  0  0  0
 61 87  1  0  0  0  0
 62 67  1  0  0  0  0
 63 66  1  0  0  0  0
 64 72  1  0  0  0  0
 65 72  1  0  0  0  0
 66 68  1  0  0  0  0
 67 75  1  0  0  0  0
 68 69  1  0  0  0  0
 69 94  1  0  0  0  0
 70 73  1  0  0  0  0
 70 85  1  0  0  0  0
 71 87  1  0  0  0  0
 72 86  1  0  0  0  0
 74 75  1  0  0  0  0
 76 79  1  0  0  0  0
M  CHG  1  87   1
M  ISO  4  36 100  69 101  86 100  94 101
M  END
> <Batch ID>
0065

> <Smiles>
CCC(Cc1nc(CCC[101CH2:1][101O:1]c2ccc3c(c2)CN(C(=O)C(NC(=O)C(C)NC)C(C)(C)C)C(C(=O)NC2CCCc4ccccc42)C3)c(CCC(C)(C)C(C)(C)C)nc1C)[100N:0](C)[100C:0](=O)N1CCCC(n2nc(-c3ccc(Oc4ccc(F)cc4F)cc3)c(C(N)=O)c2N)C1

> <Shape>
0.210

> <Color>
0.070

> <Negative vol penalty>
0.000

$$$$

  -OEChem-04052318072D

  0  0  0     0  0  0  0  0  0999 V2000
M  END
$$$$

  -OEChem-04052318073D

 89 97  0     1  0  0  0  0  0999 V2000
  -18.9363  -31.3672   17.8027 C   0  0  0  0  0  0  0  0  0  0  0  0
  -19.7852  -30.2663   17.8557 C   0  0  0  0  0  0  0  0  0  0  0  0
  -23.0593   -9.8842   19.9493 C   0  0  0  0  0  0  0  0  0  0  0  0
  -23.8587   -9.8743   22.2292 C   0  0  0  0  0  0  0  0  0  0  0  0
  -18.3918  -31.8833   18.9778 C   0  0  0  0  0  0  0  0  0  0  0  0
  -20.0909  -29.6815   19.0841 C   0  0  0  0  0  0  0  0  0  0  0  0
  -19.8510  -24.6251   18.9419 C   0  0  0  0  0  0  0  0  0  0  0  0
  -22.3198   -8.7293   20.2035 C   0  0  0  0  0  0  0  0  0  0  0  0
  -23.1191   -8.7194   22.4835 C   0  0  0  0  0  0  0  0  0  0  0  0
  -20.9261  -23.9527   18.3624 C   0  0  0  0  0  0  0  0  0  0  0  0
  -19.3970   -7.9219   21.6996 C   0  0  0  0  0  0  0  0  0  0  0  0
  -18.0819   -7.8793   21.2367 C   0  0  0  0  0  0  0  0  0  0  0  0
  -21.8063  -23.4802   20.5582 C   0  0  0  0  0  0  0  0  0  0  0  0
  -18.6185   -5.9460   19.8907 C   0  0  0  0  0  0  0  0  0  0  0  0
  -26.0500  -18.4225   22.3449 C   0  0  0  0  0  0  0  0  0  0  0  0
  -23.8289  -10.4568   20.9621 C   0  0  0  0  0  0  0  0  0  0  0  0
  -24.1688  -12.9827   20.8548 C   0  0  0  0  0  0  0  0  0  0  0  0
  -18.6832  -31.2986   20.2203 C   0  0  0  0  0  0  0  0  0  0  0  0
  -19.7510  -24.7397   20.3359 C   0  0  0  0  0  0  0  0  0  0  0  0
  -19.5508  -30.1911   20.2771 C   0  0  0  0  0  0  0  0  0  0  0  0
  -20.7276  -24.1523   21.1529 C   0  0  0  0  0  0  0  0  0  0  0  0
  -22.3496   -8.1468   21.4706 C   0  0  0  0  0  0  0  0  0  0  0  0
  -21.9055  -23.3826   19.1705 C   0  0  0  0  0  0  0  0  0  0  0  0
  -20.3228   -6.9767   21.2580 C   0  0  0  0  0  0  0  0  0  0  0  0
  -17.6926   -6.8913   20.3323 C   0  0  0  0  0  0  0  0  0  0  0  0
  -19.9336   -5.9887   20.3536 C   0  0  0  0  0  0  0  0  0  0  0  0
  -24.5935  -11.6495   20.6999 C   0  0  0  0  0  0  0  0  0  0  0  0
  -26.7442  -17.4563   23.0442 C   0  0  0  0  0  0  0  0  0  0  0  0
  -26.5722  -18.7582   21.1124 C   0  0  0  0  0  0  0  0  0  0  0  0
  -25.2546  -13.7349   20.4782 C   0  0  0  0  0  0  0  0  0  0  0  0
  -28.2715  -17.2708   21.3710 C   0  0  0  0  0  0  0  0  0  0  0  0
  -22.9058  -13.4954   21.2994 C   0  0  0  0  0  0  0  0  0  0  0  0
  -19.7167  -27.1648   22.3905 C   0  0  0  0  0  0  0  0  0  0  0  0
  -19.0925  -24.8216   24.5451 C   0  0  0  0  0  0  0  0  0  0  0  0
  -30.7635  -14.6855   20.6754 C   0  0  0  0  0  0  0  0  0  0  0  0
  -19.3050  -21.5185   25.3763 C   0  0  0  0  0  0  0  0  0  0  0  0
  -18.1084  -31.9208   21.4681 C   0  0  0  0  0  0  0  0  0  0  0  0
  -18.5710  -25.4451   20.9462 C   0  0  0  0  0  0  0  0  0  0  0  0
  -20.6558  -24.2297   22.6554 C   0  0  0  0  0  0  0  0  0  0  0  0
  -18.1846  -31.0123   22.6925 C   0  0  0  0  0  0  0  0  0  0  0  0
  -29.5555  -12.4073   18.1873 C   0  0  0  0  0  0  0  0  0  0  0  0
  -19.5714  -30.3876   22.8082 C   0  0  0  0  0  0  0  0  0  0  0  0
  -28.1329  -12.0933   18.6485 C   0  0  0  0  0  0  0  0  0  0  0  0
  -30.4966  -12.6011   19.3722 C   0  0  0  0  0  0  0  0  0  0  0  0
  -28.6178  -13.3255   20.8099 C   0  0  0  0  0  0  0  0  0  0  0  0
  -19.8865  -29.5138   21.5881 C   0  0  1  0  0  0  0  0  0  0  0  0
  -18.8403  -25.9446   22.3623 C   0  0  1  0  0  0  0  0  0  0  0  0
  -27.6281  -13.1526   19.6442 C   0  0  2  0  0  0  0  0  0  0  0  0
  -26.2559  -17.0275   24.3871 C   0  0  0  0  0  0  0  0  0  0  0  0
  -31.2276  -16.3407   22.4742 C   0  0  0  0  0  0  0  0  0  0  0  0
  -18.7410  -19.9105   27.2185 C   0  0  0  0  0  0  0  0  0  0  0  0
  -21.4549  -25.8612   26.1725 C   0  0  0  0  0  0  0  0  0  0  0  0
  -21.4358  -23.7062   27.4468 C   0  0  0  0  0  0  0  0  0  0  0  0
  -19.4547  -25.2199   27.5298 C   0  0  0  0  0  0  0  0  0  0  0  0
  -23.6397  -18.6360   20.0611 C   0  0  0  0  0  0  0  0  0  0  0  0
  -25.3604  -18.2727   18.3012 C   0  0  0  0  0  0  0  0  0  0  0  0
  -25.2972  -21.3071   17.6150 C   0  0  0  0  0  0  0  0  0  0  0  0
  -23.1112  -20.1410   17.3971 C   0  0  0  0  0  0  0  0  0  0  0  0
  -29.9533  -17.0475   19.5595 C   0  0  0  0  0  0  0  0  0  0  0  0
  -17.5192  -19.9470   23.6155 C   0  0  0  0  0  0  0  0  0  0  0  0
  -25.8799  -19.8098   20.2695 C   0  0  0  0  0  0  0  0  0  0  0  0
  -23.5309  -21.6567   19.3571 C   0  0  0  0  0  0  0  0  0  1  0  0
  -19.9323  -23.9183   25.4156 C   0  0  1  0  0  0  0  0  0  0  0  0
  -30.1519  -15.6726   21.6376 C   0  0  1  0  0  0  0  0  0  0  0  0
  -18.2719  -20.5481   25.9200 C   0  0  2  0  0  0  0  0  0  0  0  0
  -20.5721  -24.6765   26.6129 C   0  0  0  0  0  0  0  0  0  0  0  0
  -24.7681  -19.3362   19.2608 C   0  0  0  0  0  0  0  0  0  0  0  0
  -24.1840  -20.5911   18.4239 C   0  0  0  0  0  0  0  0  0  0  0  0
  -25.8509  -11.5568   20.2591 N   0  0  0  0  0  0  0  0  0  0  0  0
  -27.8627  -16.8573   22.5856 N   0  0  0  0  0  0  0  0  0  0  0  0
  -27.6854  -18.2005   20.5927 N   0  0  0  0  0  0  0  0  0  0  0  0
  -26.2257  -12.8413   20.1338 N   0  0  0  0  0  0  0  0  0  0  0  0
  -19.4861  -24.9355   23.2043 N   0  0  0  0  0  0  0  0  0  0  0  0
  -29.9709  -13.5987   20.3058 N   0  0  0  0  0  0  0  0  0  0  0  0
  -25.4639  -15.0669   20.4114 N   0  0  0  0  0  0  0  0  0  0  0  0
  -21.8998  -12.5838   21.6474 N   0  0  0  0  0  0  0  0  0  0  0  0
  -19.2063  -28.2404   21.6891 N   0  0  0  0  0  0  0  0  0  0  0  0
  -19.0693  -22.8080   25.8039 N   0  0  0  0  0  0  0  0  0  0  0  0
  -29.4395  -16.6650   20.8588 N   0  0  3  0  0  0  0  0  0  0  0  0
  -18.0093  -19.4638   24.9320 N   0  3  0  0  0  0  0  0  0  0  0  0
  -22.6707  -14.7256   21.3699 O   0  0  0  0  0  0  0  0  0  0  0  0
  -20.7768  -27.1332   23.0045 O   0  0  0  0  0  0  0  0  0  0  0  0
  -18.1188  -25.3991   25.0350 O   0  0  0  0  0  0  0  0  0  0  0  0
  -31.9104  -14.8779   20.2635 O   0  0  0  0  0  0  0  0  0  0  0  0
  -20.2308  -21.1670   24.6483 O   0  0  0  0  0  0  0  0  0  0  0  0
  -21.6279   -7.0199   21.7192 O   0  0  0  0  0  0  0  0  0  0  0  0
  -22.9562  -22.7263   18.6075 O   0  0  0  0  0  0  0  0  0  1  0  0
  -16.4293   -6.8495   19.8890 F   0  0  0  0  0  0  0  0  0  0  0  0
  -20.8183   -5.0772   19.9267 F   0  0  0  0  0  0  0  0  0  0  0  0
  1  2  1  0  0  0  0
  1  5  2  0  0  0  0
  2  6  2  0  0  0  0
  3  8  2  0  0  0  0
  3 16  1  0  0  0  0
  4  9  1  0  0  0  0
  4 16  2  0  0  0  0
  5 18  1  0  0  0  0
  6 20  1  0  0  0  0
  7 10  2  0  0  0  0
  7 19  1  0  0  0  0
  8 22  1  0  0  0  0
  9 22  2  0  0  0  0
 10 23  1  0  0  0  0
 11 12  2  0  0  0  0
 11 24  1  0  0  0  0
 12 25  1  0  0  0  0
 13 21  1  0  0  0  0
 13 23  2  0  0  0  0
 14 25  2  0  0  0  0
 14 26  1  0  0  0  0
 15 28  2  0  0  0  0
 15 29  1  0  0  0  0
 16 27  1  0  0  0  0
 17 27  1  0  0  0  0
 17 30  2  0  0  0  0
 17 32  1  0  0  0  0
 18 20  2  0  0  0  0
 18 37  1  0  0  0  0
 19 21  2  0  0  0  0
 19 38  1  0  0  0  0
 20 46  1  0  0  0  0
 21 39  1  0  0  0  0
 22 86  1  0  0  0  0
 23 87  1  0  0  0  0
 24 26  2  0  0  0  0
 24 86  1  0  0  0  0
 25 88  1  0  0  0  0
 26 89  1  0  0  0  0
 27 69  2  0  0  0  0
 28 49  1  0  0  0  0
 28 70  1  0  0  0  0
 29 61  1  0  0  0  0
 29 71  2  0  0  0  0
 30 72  1  0  0  0  0
 30 75  1  0  0  0  0
 31 70  2  0  0  0  0
 31 71  1  0  0  0  0
 31 79  1  0  0  0  0
 32 76  1  0  0  0  0
 32 81  2  0  0  0  0
 33 47  1  0  0  0  0
 33 77  1  0  0  0  0
 33 82  2  0  0  0  0
 34 63  1  0  0  0  0
 34 73  1  0  0  0  0
 34 83  2  0  0  0  0
 35 64  1  0  0  0  0
 35 74  1  0  0  0  0
 35 84  2  0  0  0  0
 36 65  1  0  0  0  0
 36 78  1  0  0  0  0
 36 85  2  0  0  0  0
 37 40  1  0  0  0  0
 38 47  1  0  0  0  0
 39 73  1  0  0  0  0
 40 42  1  0  0  0  0
 41 43  1  0  0  0  0
 41 44  1  0  0  0  0
 42 46  1  0  0  0  0
 43 48  1  0  0  0  0
 44 74  1  0  0  0  0
 45 48  1  0  0  0  0
 45 74  1  0  0  0  0
 46 77  1  0  0  0  0
 47 73  1  0  0  0  0
 48 72  1  0  0  0  0
 50 64  1  0  0  0  0
 51 65  1  0  0  0  0
 52 66  1  0  0  0  0
 53 66  1  0  0  0  0
 54 66  1  0  0  0  0
 55 67  1  0  0  0  0
 56 67  1  0  0  0  0
 57 68  1  0  0  0  0
 58 68  1  0  0  0  0
 59 79  1  0  0  0  0
 60 80  1  0  0  0  0
 61 67  1  0  0  0  0
 62 68  1  0  0  0  0
 62 87  1  0  0  0  0
 63 66  1  0  0  0  0
 63 78  1  0  0  0  0
 64 79  1  0  0  0  0
 65 80  1  0  0  0  0
 67 68  1  0  0  0  0
 69 72  1  0  0  0  0
M  CHG  1  80   1
M  ISO  4  35 100  62 101  64 100  87 101
M  END
> <Batch ID>
0065

> <Smiles>
CNC(C)C(=O)NC(C(=O)N1Cc2cc([101O:1][101CH2:1]C(C)(C)C(C)(C)Cc3cc(C)nc(N(C)[100CH:0](C)[100C:0](=O)N4CCCC(n5nc(-c6ccc(Oc7ccc(F)cc7F)cc6)c(C(N)=O)c5N)C4)n3)ccc2CC1C(=O)NC1CCCc2ccccc21)C(C)(C)C

> <Shape>
0.206

> <Color>
0.186

> <Negative vol penalty>
0.000

$$$$

  -OEChem-04052318073D

 89 97  0     1  0  0  0  0  0999 V2000
  -31.6587  -13.0929   22.1091 C   0  0  0  0  0  0  0  0  0  0  0  0
  -31.1799  -14.3966   22.1902 C   0  0  0  0  0  0  0  0  0  0  0  0
  -28.8885  -25.9036   18.1799 C   0  0  0  0  0  0  0  0  0  0  0  0
  -26.9167  -24.7055   18.8966 C   0  0  0  0  0  0  0  0  0  0  0  0
  -30.9867  -12.1519   21.3302 C   0  0  0  0  0  0  0  0  0  0  0  0
  -30.0293  -14.7603   21.4914 C   0  0  0  0  0  0  0  0  0  0  0  0
  -26.8452  -17.5245   24.2960 C   0  0  0  0  0  0  0  0  0  0  0  0
  -29.5698  -24.6952   18.0344 C   0  0  0  0  0  0  0  0  0  0  0  0
  -27.5980  -23.4971   18.7511 C   0  0  0  0  0  0  0  0  0  0  0  0
  -27.1564  -18.8722   24.4707 C   0  0  0  0  0  0  0  0  0  0  0  0
  -29.8718  -21.6945   20.4862 C   0  0  0  0  0  0  0  0  0  0  0  0
  -29.7466  -20.7528   21.5076 C   0  0  0  0  0  0  0  0  0  0  0  0
  -25.5652  -19.4559   22.7542 C   0  0  0  0  0  0  0  0  0  0  0  0
  -28.8045  -19.1759   19.9382 C   0  0  0  0  0  0  0  0  0  0  0  0
  -23.2349  -27.7802   21.2908 C   0  0  0  0  0  0  0  0  0  0  0  0
  -27.5619  -25.9088   18.6111 C   0  0  0  0  0  0  0  0  0  0  0  0
  -26.0958  -27.8265   17.7861 C   0  0  0  0  0  0  0  0  0  0  0  0
  -29.8218  -12.5017   20.6292 C   0  0  0  0  0  0  0  0  0  0  0  0
  -25.8980  -17.1308   23.3399 C   0  0  0  0  0  0  0  0  0  0  0  0
  -29.3418  -13.8234   20.7013 C   0  0  0  0  0  0  0  0  0  0  0  0
  -25.2419  -18.1027   22.5711 C   0  0  0  0  0  0  0  0  0  0  0  0
  -28.9246  -23.4920   18.3199 C   0  0  0  0  0  0  0  0  0  0  0  0
  -26.5185  -19.8380   23.6977 C   0  0  0  0  0  0  0  0  0  0  0  0
  -29.4633  -21.3769   19.1908 C   0  0  0  0  0  0  0  0  0  0  0  0
  -29.2130  -19.4935   21.2336 C   0  0  0  0  0  0  0  0  0  0  0  0
  -28.9297  -20.1176   18.9168 C   0  0  0  0  0  0  0  0  0  0  0  0
  -26.8577  -27.1567   18.7622 C   0  0  0  0  0  0  0  0  0  0  0  0
  -22.8184  -28.7010   22.2176 C   0  0  0  0  0  0  0  0  0  0  0  0
  -25.6398  -28.9555   18.4216 C   0  0  0  0  0  0  0  0  0  0  0  0
  -24.7323  -26.9969   22.7888 C   0  0  0  0  0  0  0  0  0  0  0  0
  -25.8244  -27.4607   16.4266 C   0  0  0  0  0  0  0  0  0  0  0  0
  -25.9695  -15.3333   20.7193 C   0  0  0  0  0  0  0  0  0  0  0  0
  -22.7616  -15.8116   20.7747 C   0  0  0  0  0  0  0  0  0  0  0  0
  -23.3563  -31.3643   22.9241 C   0  0  0  0  0  0  0  0  0  0  0  0
  -20.1378  -17.7468   21.7836 C   0  0  0  0  0  0  0  0  0  0  0  0
  -29.1564  -11.4622   19.7624 C   0  0  0  0  0  0  0  0  0  0  0  0
  -25.5540  -15.6750   23.1824 C   0  0  0  0  0  0  0  0  0  0  0  0
  -24.2026  -17.7338   21.5453 C   0  0  0  0  0  0  0  0  0  0  0  0
  -27.7332  -11.8317   19.3521 C   0  0  0  0  0  0  0  0  0  0  0  0
  -26.9191  -30.9871   22.8650 C   0  0  0  0  0  0  0  0  0  0  0  0
  -27.6760  -13.2761   18.8652 C   0  0  0  0  0  0  0  0  0  0  0  0
  -27.1557  -29.9890   21.7323 C   0  0  0  0  0  0  0  0  0  0  0  0
  -25.6288  -30.6807   23.6188 C   0  0  0  0  0  0  0  0  0  0  0  0
  -24.6521  -29.6115   21.6126 C   0  0  0  0  0  0  0  0  0  0  0  0
  -28.0830  -14.2499   19.9777 C   0  0  1  0  0  0  0  0  0  0  0  0
  -24.9479  -15.3482   21.8211 C   0  0  1  0  0  0  0  0  0  0  0  0
  -25.9297  -29.9034   20.8059 C   0  0  2  0  0  0  0  0  0  0  0  0
  -17.6371  -17.9025   21.6449 C   0  0  0  0  0  0  0  0  0  0  0  0
  -24.5860  -21.7351   24.4744 C   0  0  0  0  0  0  0  0  0  0  0  0
  -20.4939  -29.5331   22.8774 C   0  0  0  0  0  0  0  0  0  0  0  0
  -21.0750  -29.3786   20.4979 C   0  0  0  0  0  0  0  0  0  0  0  0
  -21.1127  -32.1742   22.4013 C   0  0  0  0  0  0  0  0  0  0  0  0
  -22.7670  -31.7569   20.5934 C   0  0  0  0  0  0  0  0  0  0  0  0
  -22.9851  -16.7991   17.8964 C   0  0  0  0  0  0  0  0  0  0  0  0
  -20.7058  -17.8061   18.1384 C   0  0  0  0  0  0  0  0  0  0  0  0
  -21.0058  -15.3385   18.3474 C   0  0  0  0  0  0  0  0  0  0  0  0
  -27.5719  -23.7353   22.8886 C   0  0  0  0  0  0  0  0  0  0  0  0
  -26.7999  -23.7662   25.2526 C   0  0  0  0  0  0  0  0  0  0  0  0
  -19.8466  -17.5497   24.7222 C   0  0  0  0  0  0  0  0  0  0  0  0
  -25.8348  -26.0298   23.1463 C   0  0  0  0  0  0  0  0  0  0  0  0
  -25.2740  -24.6382   23.4687 C   0  0  0  0  0  0  0  0  0  0  0  0
  -21.8252  -16.8483   20.2025 C   0  0  1  0  0  0  0  0  0  0  0  0
  -18.8213  -17.3906   22.4501 C   0  0  2  0  0  0  0  0  0  0  0  0
  -25.7840  -22.0978   23.5998 C   0  0  1  0  0  0  0  0  0  1  0  0
  -21.7356  -29.6713   21.9063 C   0  0  0  0  0  0  0  0  0  0  0  0
  -22.2282  -31.2142   21.9346 C   0  0  0  0  0  0  0  0  0  0  0  0
  -21.6514  -16.7051   18.6641 C   0  0  0  0  0  0  0  0  0  0  0  0
  -26.3332  -23.5449   23.7945 C   0  0  0  0  0  0  0  0  0  0  0  0
  -24.2104  -26.8985   21.5571 N   0  0  0  0  0  0  0  0  0  0  0  0
  -26.8866  -27.8062   19.9289 N   0  0  0  0  0  0  0  0  0  0  0  0
  -23.3802  -28.7525   23.4390 N   0  0  0  0  0  0  0  0  0  0  0  0
  -24.3644  -27.8794   23.7384 N   0  0  0  0  0  0  0  0  0  0  0  0
  -26.1372  -28.8959   19.6901 N   0  0  0  0  0  0  0  0  0  0  0  0
  -23.9055  -16.2969   21.4240 N   0  0  0  0  0  0  0  0  0  0  0  0
  -24.4919  -30.5853   22.7014 N   0  0  0  0  0  0  0  0  0  0  0  0
  -24.8659  -29.9836   18.0134 N   0  0  0  0  0  0  0  0  0  0  0  0
  -26.3709  -26.2679   15.9338 N   0  0  0  0  0  0  0  0  0  0  0  0
  -26.9954  -14.4287   20.9156 N   0  0  0  0  0  0  0  0  0  0  0  0
  -20.5817  -16.7361   20.9573 N   0  0  0  0  0  0  0  0  0  0  0  0
  -18.7540  -17.9856   23.8149 N   0  3  0  0  0  0  0  0  0  0  0  0
  -25.1317  -28.1788   15.6663 O   0  0  0  0  0  0  0  0  0  0  0  0
  -25.8359  -16.0857   19.7613 O   0  0  0  0  0  0  0  0  0  0  0  0
  -22.4845  -14.6154   20.6564 O   0  0  0  0  0  0  0  0  0  0  0  0
  -23.2312  -32.1531   23.8645 O   0  0  0  0  0  0  0  0  0  0  0  0
  -20.7130  -18.8161   21.9739 O   0  0  0  0  0  0  0  0  0  0  0  0
  -29.5890  -22.3126   18.1778 O   0  0  0  0  0  0  0  0  0  0  0  0
  -26.8209  -21.1541   23.8657 O   0  0  0  0  0  0  0  0  0  1  0  0
  -29.0942  -18.5888   22.2141 F   0  0  0  0  0  0  0  0  0  0  0  0
  -28.5366  -19.8064   17.6741 F   0  0  0  0  0  0  0  0  0  0  0  0
  1  2  1  0  0  0  0
  1  5  2  0  0  0  0
  2  6  2  0  0  0  0
  3  8  2  0  0  0  0
  3 16  1  0  0  0  0
  4  9  1  0  0  0  0
  4 16  2  0  0  0  0
  5 18  1  0  0  0  0
  6 20  1  0  0  0  0
  7 10  2  0  0  0  0
  7 19  1  0  0  0  0
  8 22  1  0  0  0  0
  9 22  2  0  0  0  0
 10 23  1  0  0  0  0
 11 12  2  0  0  0  0
 11 24  1  0  0  0  0
 12 25  1  0  0  0  0
 13 21  1  0  0  0  0
 13 23  2  0  0  0  0
 14 25  2  0  0  0  0
 14 26  1  0  0  0  0
 15 28  1  0  0  0  0
 15 69  2  0  0  0  0
 16 27  1  0  0  0  0
 17 27  1  0  0  0  0
 17 29  2  0  0  0  0
 17 31  1  0  0  0  0
 18 20  2  0  0  0  0
 18 36  1  0  0  0  0
 19 21  2  0  0  0  0
 19 37  1  0  0  0  0
 20 45  1  0  0  0  0
 21 38  1  0  0  0  0
 22 86  1  0  0  0  0
 23 87  1  0  0  0  0
 24 26  2  0  0  0  0
 24 86  1  0  0  0  0
 25 88  1  0  0  0  0
 26 89  1  0  0  0  0
 27 70  2  0  0  0  0
 28 65  1  0  0  0  0
 28 71  2  0  0  0  0
 29 73  1  0  0  0  0
 29 76  1  0  0  0  0
 30 60  1  0  0  0  0
 30 69  1  0  0  0  0
 30 72  2  0  0  0  0
 31 77  1  0  0  0  0
 31 81  2  0  0  0  0
 32 46  1  0  0  0  0
 32 78  1  0  0  0  0
 32 82  2  0  0  0  0
 33 62  1  0  0  0  0
 33 74  1  0  0  0  0
 33 83  2  0  0  0  0
 34 66  1  0  0  0  0
 34 75  1  0  0  0  0
 34 84  2  0  0  0  0
 35 63  1  0  0  0  0
 35 79  1  0  0  0  0
 35 85  2  0  0  0  0
 36 39  1  0  0  0  0
 37 46  1  0  0  0  0
 38 74  1  0  0  0  0
 39 41  1  0  0  0  0
 40 42  1  0  0  0  0
 40 43  1  0  0  0  0
 41 45  1  0  0  0  0
 42 47  1  0  0  0  0
 43 75  1  0  0  0  0
 44 47  1  0  0  0  0
 44 75  1  0  0  0  0
 45 78  1  0  0  0  0
 46 74  1  0  0  0  0
 47 73  1  0  0  0  0
 48 63  1  0  0  0  0
 49 64  1  0  0  0  0
 50 65  1  0  0  0  0
 51 65  1  0  0  0  0
 52 66  1  0  0  0  0
 53 66  1  0  0  0  0
 54 67  1  0  0  0  0
 55 67  1  0  0  0  0
 56 67  1  0  0  0  0
 57 68  1  0  0  0  0
 58 68  1  0  0  0  0
 59 80  1  0  0  0  0
 60 61  1  0  0  0  0
 61 68  1  0  0  0  0
 62 67  1  0  0  0  0
 62 79  1  0  0  0  0
 63 80  1  0  0  0  0
 64 68  1  0  0  0  0
 64 87  1  0  0  0  0
 65 66  1  0  0  0  0
 70 73  1  0  0  0  0
 71 72  1  0  0  0  0
M  CHG  1  80   1
M  ISO  4  34 100  64 101  66 100  87 101
M  END
> <Batch ID>
0065

> <Smiles>
CNC(C)C(=O)NC(C(=O)N1Cc2cc([101O:1][101CH:1](C)C(C)(C)CCc3ncc(C(C)(C)[100C:0](C)(C)[100C:0](=O)N4CCCC(n5nc(-c6ccc(Oc7ccc(F)cc7F)cc6)c(C(N)=O)c5N)C4)nn3)ccc2CC1C(=O)NC1CCCc2ccccc21)C(C)(C)C

> <Shape>
0.219

> <Color>
0.085

> <Negative vol penalty>
0.000

$$$$

  -OEChem-04052318073D

 84 92  0     1  0  0  0  0  0999 V2000
  -22.8215  -23.6465   19.3660 C   0  0  0  0  0  0  0  0  0  0  0  0
  -23.9839  -22.9500   19.6809 C   0  0  0  0  0  0  0  0  0  0  0  0
  -24.2064  -27.7445   19.2959 C   0  0  0  0  0  0  0  0  0  0  0  0
  -24.1916  -26.7532   21.4991 C   0  0  0  0  0  0  0  0  0  0  0  0
  -21.5804  -23.1366   19.7447 C   0  0  0  0  0  0  0  0  0  0  0  0
  -23.9058  -21.7435   20.3758 C   0  0  0  0  0  0  0  0  0  0  0  0
  -26.9052  -18.1698   18.4069 C   0  0  0  0  0  0  0  0  0  0  0  0
  -22.8123  -27.7095   19.2707 C   0  0  0  0  0  0  0  0  0  0  0  0
  -22.7974  -26.7182   21.4740 C   0  0  0  0  0  0  0  0  0  0  0  0
  -28.2652  -18.2449   18.7046 C   0  0  0  0  0  0  0  0  0  0  0  0
  -20.2443  -28.8823   21.9417 C   0  0  0  0  0  0  0  0  0  0  0  0
  -19.5662  -29.3051   23.0850 C   0  0  0  0  0  0  0  0  0  0  0  0
  -27.9816  -16.5514   20.3989 C   0  0  0  0  0  0  0  0  0  0  0  0
  -18.5452  -27.1246   23.2857 C   0  0  0  0  0  0  0  0  0  0  0  0
  -32.9142  -21.4582   23.8983 C   0  0  0  0  0  0  0  0  0  0  0  0
  -34.6568  -21.7910   22.5910 C   0  0  0  0  0  0  0  0  0  0  0  0
  -24.8962  -27.2663   20.4101 C   0  0  0  0  0  0  0  0  0  0  0  0
  -27.1525  -28.3456   20.9118 C   0  0  0  0  0  0  0  0  0  0  0  0
  -21.4864  -21.9185   20.4361 C   0  0  0  0  0  0  0  0  0  0  0  0
  -26.0698  -17.2912   19.1116 C   0  0  0  0  0  0  0  0  0  0  0  0
  -22.6623  -21.2175   20.7653 C   0  0  0  0  0  0  0  0  0  0  0  0
  -26.6119  -16.4652   20.1065 C   0  0  0  0  0  0  0  0  0  0  0  0
  -22.1078  -27.1964   20.3598 C   0  0  0  0  0  0  0  0  0  0  0  0
  -28.8030  -17.4377   19.7027 C   0  0  0  0  0  0  0  0  0  0  0  0
  -20.0728  -27.5807   21.4704 C   0  0  0  0  0  0  0  0  0  0  0  0
  -18.7167  -28.4262   23.7570 C   0  0  0  0  0  0  0  0  0  0  0  0
  -19.2233  -26.7019   22.1424 C   0  0  0  0  0  0  0  0  0  0  0  0
  -26.3363  -27.3017   20.4364 C   0  0  0  0  0  0  0  0  0  0  0  0
  -33.2437  -20.3204   23.2001 C   0  0  0  0  0  0  0  0  0  0  0  0
  -28.4351  -27.8940   20.7181 C   0  0  0  0  0  0  0  0  0  0  0  0
  -26.7842  -29.6104   21.4778 C   0  0  0  0  0  0  0  0  0  0  0  0
  -23.5359  -17.6350   20.9997 C   0  0  0  0  0  0  0  0  0  0  0  0
  -23.4895  -14.3939   20.8737 C   0  0  0  0  0  0  0  0  0  0  0  0
  -25.2079  -11.4893   20.3667 C   0  0  0  0  0  0  0  0  0  0  0  0
  -32.2665  -23.8470   21.0137 C   0  0  0  0  0  0  0  0  0  0  0  0
  -20.1255  -21.4309   20.8660 C   0  0  0  0  0  0  0  0  0  0  0  0
  -24.6100  -17.2029   18.7601 C   0  0  0  0  0  0  0  0  0  0  0  0
  -25.7616  -15.4907   20.8783 C   0  0  0  0  0  0  0  0  0  0  0  0
  -20.1058  -19.9593   21.2714 C   0  0  0  0  0  0  0  0  0  0  0  0
  -30.1656  -23.9012   18.1396 C   0  0  0  0  0  0  0  0  0  0  0  0
  -21.2762  -19.6451   22.1978 C   0  0  0  0  0  0  0  0  0  0  0  0
  -29.0468  -24.8715   18.5226 C   0  0  0  0  0  0  0  0  0  0  0  0
  -30.6217  -23.0660   19.3340 C   0  0  0  0  0  0  0  0  0  0  0  0
  -29.8908  -24.8171   20.9066 C   0  0  0  0  0  0  0  0  0  0  0  0
  -22.6171  -19.8933   21.4963 C   0  0  1  0  0  0  0  0  0  0  0  0
  -23.7555  -16.6426   19.8930 C   0  0  1  0  0  0  0  0  0  0  0  0
  -29.4359  -25.7206   19.7477 C   0  0  2  0  0  0  0  0  0  0  0  0
  -24.9093   -8.9977   20.3691 C   0  0  0  0  0  0  0  0  0  0  0  0
  -23.4813  -14.4002   23.9250 C   0  0  0  0  0  0  0  0  0  0  0  0
  -24.1359  -11.9845   23.8623 C   0  0  0  0  0  0  0  0  0  0  0  0
  -21.9606  -12.7113   22.8812 C   0  0  0  0  0  0  0  0  0  0  0  0
  -32.8121  -24.1437   24.9749 C   0  0  0  0  0  0  0  0  0  0  0  0
  -35.2657  -23.9839   24.6425 C   0  0  0  0  0  0  0  0  0  0  0  0
  -25.9599  -11.2800   17.5119 C   0  0  0  0  0  0  0  0  0  0  0  0
  -32.5733  -18.9705   23.2457 C   0  0  0  0  0  0  0  0  0  0  0  0
  -31.4431  -18.8057   22.2236 C   0  0  0  0  0  0  0  0  0  0  0  0
  -31.9276  -18.8951   20.7758 C   0  0  0  0  0  0  0  0  0  0  0  0
  -33.8049  -24.7415   22.7435 C   0  0  0  0  0  0  0  0  0  0  0  0
  -30.7732  -18.7668   19.7911 C   0  0  0  0  0  0  0  0  0  1  0  0
  -24.1129  -13.2835   21.6844 C   0  0  1  0  0  0  0  0  0  0  0  0
  -24.8906  -10.2645   19.5279 C   0  0  2  0  0  0  0  0  0  0  0  0
  -23.4386  -13.1145   23.0752 C   0  0  0  0  0  0  0  0  0  0  0  0
  -33.9026  -23.7612   23.9442 C   0  0  0  0  0  0  0  0  0  0  0  0
  -34.3295  -20.5341   22.3883 N   0  0  0  0  0  0  0  0  0  0  0  0
  -27.0413  -26.2652   19.9753 N   0  0  0  0  0  0  0  0  0  0  0  0
  -33.8285  -22.3915   23.4980 N   0  0  0  0  0  0  0  0  0  0  0  0
  -28.3139  -26.6555   20.1600 N   0  0  0  0  0  0  0  0  0  0  0  0
  -24.3389  -15.4457   20.5022 N   0  0  0  0  0  0  0  0  0  0  0  0
  -30.9778  -23.9312   20.4612 N   0  0  0  0  0  0  0  0  0  0  0  0
  -29.6434  -28.4396   20.9725 N   0  0  0  0  0  0  0  0  0  0  0  0
  -25.4219  -29.9143   21.6046 N   0  0  0  0  0  0  0  0  0  0  0  0
  -22.9238  -18.8051   20.5928 N   0  0  0  0  0  0  0  0  0  0  0  0
  -24.0634  -12.0896   20.8474 N   0  0  0  0  0  0  0  0  0  0  0  0
  -32.5233  -24.7064   22.0749 N   0  0  0  0  0  0  0  0  0  0  0  0
  -25.8885  -10.1151   18.4311 N   0  3  0  0  0  0  0  0  0  0  0  0
  -27.6379  -30.4530   21.8448 O   0  0  0  0  0  0  0  0  0  0  0  0
  -23.8938  -17.3587   22.1386 O   0  0  0  0  0  0  0  0  0  0  0  0
  -22.2946  -14.3269   20.5749 O   0  0  0  0  0  0  0  0  0  0  0  0
  -26.3564  -11.8729   20.5777 O   0  0  0  0  0  0  0  0  0  0  0  0
  -33.1263  -23.0677   20.5890 O   0  0  0  0  0  0  0  0  0  0  0  0
  -20.7473  -27.1622   20.3357 O   0  0  0  0  0  0  0  0  0  0  0  0
  -30.1300  -17.5095   19.9958 O   0  0  0  0  0  0  0  0  0  1  0  0
  -18.0668  -28.8319   24.8557 F   0  0  0  0  0  0  0  0  0  0  0  0
  -19.0554  -25.4499   21.6950 F   0  0  0  0  0  0  0  0  0  0  0  0
  1  2  1  0  0  0  0
  1  5  2  0  0  0  0
  2  6  2  0  0  0  0
  3  8  2  0  0  0  0
  3 17  1  0  0  0  0
  4  9  1  0  0  0  0
  4 17  2  0  0  0  0
  5 19  1  0  0  0  0
  6 21  1  0  0  0  0
  7 10  2  0  0  0  0
  7 20  1  0  0  0  0
  8 23  1  0  0  0  0
  9 23  2  0  0  0  0
 10 24  1  0  0  0  0
 11 12  2  0  0  0  0
 11 25  1  0  0  0  0
 12 26  1  0  0  0  0
 13 22  1  0  0  0  0
 13 24  2  0  0  0  0
 14 26  2  0  0  0  0
 14 27  1  0  0  0  0
 15 29  2  0  0  0  0
 15 66  1  0  0  0  0
 16 64  2  0  0  0  0
 16 66  1  0  0  0  0
 17 28  1  0  0  0  0
 18 28  1  0  0  0  0
 18 30  2  0  0  0  0
 18 31  1  0  0  0  0
 19 21  2  0  0  0  0
 19 36  1  0  0  0  0
 20 22  2  0  0  0  0
 20 37  1  0  0  0  0
 21 45  1  0  0  0  0
 22 38  1  0  0  0  0
 23 81  1  0  0  0  0
 24 82  1  0  0  0  0
 25 27  2  0  0  0  0
 25 81  1  0  0  0  0
 26 83  1  0  0  0  0
 27 84  1  0  0  0  0
 28 65  2  0  0  0  0
 29 55  1  0  0  0  0
 29 64  1  0  0  0  0
 30 67  1  0  0  0  0
 30 70  1  0  0  0  0
 31 71  1  0  0  0  0
 31 76  2  0  0  0  0
 32 46  1  0  0  0  0
 32 72  1  0  0  0  0
 32 77  2  0  0  0  0
 33 60  1  0  0  0  0
 33 68  1  0  0  0  0
 33 78  2  0  0  0  0
 34 61  1  0  0  0  0
 34 73  1  0  0  0  0
 34 79  2  0  0  0  0
 35 69  1  0  0  0  0
 35 74  1  0  0  0  0
 35 80  2  0  0  0  0
 36 39  1  0  0  0  0
 37 46  1  0  0  0  0
 38 68  1  0  0  0  0
 39 41  1  0  0  0  0
 40 42  1  0  0  0  0
 40 43  1  0  0  0  0
 41 45  1  0  0  0  0
 42 47  1  0  0  0  0
 43 69  1  0  0  0  0
 44 47  1  0  0  0  0
 44 69  1  0  0  0  0
 45 72  1  0  0  0  0
 46 68  1  0  0  0  0
 47 67  1  0  0  0  0
 48 61  1  0  0  0  0
 49 62  1  0  0  0  0
 50 62  1  0  0  0  0
 51 62  1  0  0  0  0
 52 63  1  0  0  0  0
 53 63  1  0  0  0  0
 54 75  1  0  0  0  0
 55 56  1  0  0  0  0
 56 57  1  0  0  0  0
 57 59  1  0  0  0  0
 58 63  1  0  0  0  0
 58 74  1  0  0  0  0
 59 82  1  0  0  0  0
 60 62  1  0  0  0  0
 60 73  1  0  0  0  0
 61 75  1  0  0  0  0
 63 66  1  0  0  0  0
 65 67  1  0  0  0  0
M  CHG  1  75   1
M  ISO  4  35 100  59 101  74 100  82 101
M  END
> <Batch ID>
0065

> <Smiles>
CNC(C)C(=O)NC(C(=O)N1Cc2cc([101O:1][101CH2:1]CCCc3cn(C(C)(C)C[100NH:0][100C:0](=O)N4CCCC(n5nc(-c6ccc(Oc7ccc(F)cc7F)cc6)c(C(N)=O)c5N)C4)cn3)ccc2CC1C(=O)NC1CCCc2ccccc21)C(C)(C)C

> <Shape>
0.211

> <Color>
0.070

> <Negative vol penalty>
0.000

$$$$

  -OEChem-04052318073D

 93101  0     1  0  0  0  0  0999 V2000
  -30.9290  -25.4283   18.9845 C   0  0  0  0  0  0  0  0  0  0  0  0
  -29.5910  -25.5350   19.3500 C   0  0  0  0  0  0  0  0  0  0  0  0
  -24.3388   -9.3636   21.8357 C   0  0  0  0  0  0  0  0  0  0  0  0
  -22.8058   -9.9478   20.0621 C   0  0  0  0  0  0  0  0  0  0  0  0
  -31.9063  -26.1011   19.7169 C   0  0  0  0  0  0  0  0  0  0  0  0
  -29.2295  -26.3137   20.4489 C   0  0  0  0  0  0  0  0  0  0  0  0
  -25.2054  -29.2428   19.5147 C   0  0  0  0  0  0  0  0  0  0  0  0
  -23.6734   -8.1504   22.0113 C   0  0  0  0  0  0  0  0  0  0  0  0
  -22.1403   -8.7345   20.2377 C   0  0  0  0  0  0  0  0  0  0  0  0
  -23.9526  -28.6319   19.5446 C   0  0  0  0  0  0  0  0  0  0  0  0
  -20.8391   -7.0562   23.4925 C   0  0  0  0  0  0  0  0  0  0  0  0
  -20.5525   -6.6582   24.7982 C   0  0  0  0  0  0  0  0  0  0  0  0
  -23.5950  -29.4878   21.7714 C   0  0  0  0  0  0  0  0  0  0  0  0
  -21.8687   -4.6578   24.4774 C   0  0  0  0  0  0  0  0  0  0  0  0
  -19.9645  -21.0570   24.3890 C   0  0  0  0  0  0  0  0  0  0  0  0
  -23.9050  -10.2624   20.8611 C   0  0  0  0  0  0  0  0  0  0  0  0
  -25.6794  -11.7734   19.8239 C   0  0  0  0  0  0  0  0  0  0  0  0
  -31.5556  -26.8961   20.8194 C   0  0  0  0  0  0  0  0  0  0  0  0
  -25.6678  -29.9729   20.6190 C   0  0  0  0  0  0  0  0  0  0  0  0
  -30.2031  -26.9966   21.1975 C   0  0  0  0  0  0  0  0  0  0  0  0
  -24.8530  -30.1092   21.7520 C   0  0  0  0  0  0  0  0  0  0  0  0
  -22.5742   -7.8358   21.2123 C   0  0  0  0  0  0  0  0  0  0  0  0
  -23.1483  -28.7519   20.6741 C   0  0  0  0  0  0  0  0  0  0  0  0
  -21.6404   -6.2550   22.6791 C   0  0  0  0  0  0  0  0  0  0  0  0
  -21.0673   -5.4590   25.2907 C   0  0  0  0  0  0  0  0  0  0  0  0
  -22.1553   -5.0558   23.1716 C   0  0  0  0  0  0  0  0  0  0  0  0
  -24.5916  -11.5160   20.6796 C   0  0  0  0  0  0  0  0  0  0  0  0
  -19.1835  -22.1523   24.0811 C   0  0  0  0  0  0  0  0  0  0  0  0
  -19.6839  -19.9059   23.6816 C   0  0  0  0  0  0  0  0  0  0  0  0
  -25.9612  -13.1037   20.0173 C   0  0  0  0  0  0  0  0  0  0  0  0
  -18.0255  -20.9549   22.5343 C   0  0  0  0  0  0  0  0  0  0  0  0
  -26.3731  -10.8891   18.9337 C   0  0  0  0  0  0  0  0  0  0  0  0
  -28.1273  -29.7049   22.6148 C   0  0  0  0  0  0  0  0  0  0  0  0
  -27.0391  -32.5539   23.7199 C   0  0  0  0  0  0  0  0  0  0  0  0
  -24.4225  -34.7163   24.0731 C   0  0  0  0  0  0  0  0  0  0  0  0
  -22.7753  -17.6666   21.6413 C   0  0  0  0  0  0  0  0  0  0  0  0
  -32.6520  -27.5665   21.6090 C   0  0  0  0  0  0  0  0  0  0  0  0
  -27.0106  -30.6482   20.5607 C   0  0  0  0  0  0  0  0  0  0  0  0
  -25.2946  -30.8991   22.9560 C   0  0  0  0  0  0  0  0  0  0  0  0
  -32.1482  -28.6720   22.5332 C   0  0  0  0  0  0  0  0  0  0  0  0
  -25.6884  -16.5596   23.3027 C   0  0  0  0  0  0  0  0  0  0  0  0
  -30.9253  -28.1999   23.3132 C   0  0  0  0  0  0  0  0  0  0  0  0
  -25.8417  -15.1484   22.7370 C   0  0  0  0  0  0  0  0  0  0  0  0
  -24.2259  -16.9110   23.5820 C   0  0  0  0  0  0  0  0  0  0  0  0
  -23.4844  -15.3034   21.8533 C   0  0  0  0  0  0  0  0  0  0  0  0
  -29.7689  -27.8516   22.3682 C   0  0  1  0  0  0  0  0  0  0  0  0
  -27.5944  -30.9373   21.9402 C   0  0  1  0  0  0  0  0  0  0  0  0
  -24.9385  -14.9474   21.5077 C   0  0  2  0  0  0  0  0  0  0  0  0
  -16.9512  -20.8986   21.5016 C   0  0  0  0  0  0  0  0  0  0  0  0
  -23.8305  -36.9486   25.0547 C   0  0  0  0  0  0  0  0  0  0  0  0
  -20.0785  -17.4183   23.0875 C   0  0  0  0  0  0  0  0  0  0  0  0
  -20.2970  -18.2115   25.4283 C   0  0  0  0  0  0  0  0  0  0  0  0
  -23.9064  -21.4536   22.5927 C   0  0  0  0  0  0  0  0  0  0  0  0
  -24.3663  -20.1300   20.5206 C   0  0  0  0  0  0  0  0  0  0  0  0
  -22.9010  -22.1507   20.4005 C   0  0  0  0  0  0  0  0  0  0  0  0
  -26.9938  -31.3135   26.5073 C   0  0  0  0  0  0  0  0  0  0  0  0
  -25.5366  -33.2087   27.2510 C   0  0  0  0  0  0  0  0  0  0  0  0
  -27.8461  -33.6632   26.4249 C   0  0  0  0  0  0  0  0  0  0  0  0
  -23.6966  -35.8186   21.4241 C   0  0  0  0  0  0  0  0  0  0  0  0
  -19.4157  -23.4566   24.8014 C   0  0  0  0  0  0  0  0  0  0  0  0
  -20.4336  -24.3723   24.1119 C   0  0  0  0  0  0  0  0  0  0  0  0
  -20.0127  -24.7768   22.6946 C   0  0  0  0  0  0  0  0  0  0  0  0
  -21.0434  -25.7132   22.0587 C   0  0  0  0  0  0  0  0  0  0  0  0
  -20.7065  -26.0933   20.6165 C   0  0  0  0  0  0  0  0  0  0  0  0
  -22.0181  -18.8854   23.7260 C   0  0  0  0  0  0  0  0  0  0  0  0
  -22.0864  -20.0317   21.5426 C   0  0  0  0  0  0  0  0  0  0  0  0
  -21.7664  -26.9581   19.9473 C   0  0  0  0  0  0  0  0  0  1  0  0
  -26.0520  -32.9836   24.7782 C   0  0  1  0  0  0  0  0  0  0  0  0
  -24.3064  -36.2077   23.8148 C   0  0  2  0  0  0  0  0  0  0  0  0
  -20.4775  -18.6699   23.9443 C   0  0  0  0  0  0  0  0  0  0  0  0
  -23.3004  -20.9484   21.2725 C   0  0  0  0  0  0  0  0  0  0  0  0
  -26.5993  -32.7757   26.2186 C   0  0  0  0  0  0  0  0  0  0  0  0
  -24.2086  -12.5961   21.3658 N   0  0  0  0  0  0  0  0  0  0  0  0
  -18.2017  -22.1365   23.1559 N   0  0  0  0  0  0  0  0  0  0  0  0
  -18.7178  -19.8190   22.7439 N   0  0  0  0  0  0  0  0  0  0  0  0
  -25.0604  -13.5450   20.9415 N   0  0  0  0  0  0  0  0  0  0  0  0
  -26.6182  -31.5355   22.8531 N   0  0  0  0  0  0  0  0  0  0  0  0
  -23.3919  -16.6598   22.3988 N   0  0  0  0  0  0  0  0  0  0  0  0
  -26.8893  -13.9272   19.4855 N   0  0  0  0  0  0  0  0  0  0  0  0
  -25.9538   -9.5539   18.8573 N   0  0  0  0  0  0  0  0  0  0  0  0
  -29.1173  -29.0565   21.9014 N   0  0  0  0  0  0  0  0  0  0  0  0
  -25.6958  -34.3639   24.4678 N   0  0  0  0  0  0  0  0  0  0  0  0
  -22.3983  -18.8378   22.3155 N   0  0  0  0  0  0  0  0  0  0  0  0
  -23.3393  -36.4685   22.7113 N   0  3  0  0  0  0  0  0  0  0  0  0
  -27.3466  -11.2675   18.2391 O   0  0  0  0  0  0  0  0  0  0  0  0
  -27.6748  -29.3682   23.7027 O   0  0  0  0  0  0  0  0  0  0  0  0
  -28.1402  -33.1067   23.6600 O   0  0  0  0  0  0  0  0  0  0  0  0
  -23.4772  -33.9419   23.9416 O   0  0  0  0  0  0  0  0  0  0  0  0
  -22.5651  -17.5249   20.4298 O   0  0  0  0  0  0  0  0  0  0  0  0
  -21.9247   -6.6519   21.3832 O   0  0  0  0  0  0  0  0  0  0  0  0
  -21.9253  -28.1561   20.7062 O   0  0  0  0  0  0  0  0  0  1  0  0
  -20.7933   -5.0776   26.5451 F   0  0  0  0  0  0  0  0  0  0  0  0
  -22.9268   -4.2825   22.3953 F   0  0  0  0  0  0  0  0  0  0  0  0
  1  2  1  0  0  0  0
  1  5  2  0  0  0  0
  2  6  2  0  0  0  0
  3  8  2  0  0  0  0
  3 16  1  0  0  0  0
  4  9  1  0  0  0  0
  4 16  2  0  0  0  0
  5 18  1  0  0  0  0
  6 20  1  0  0  0  0
  7 10  2  0  0  0  0
  7 19  1  0  0  0  0
  8 22  1  0  0  0  0
  9 22  2  0  0  0  0
 10 23  1  0  0  0  0
 11 12  2  0  0  0  0
 11 24  1  0  0  0  0
 12 25  1  0  0  0  0
 13 21  1  0  0  0  0
 13 23  2  0  0  0  0
 14 25  2  0  0  0  0
 14 26  1  0  0  0  0
 15 28  1  0  0  0  0
 15 29  2  0  0  0  0
 16 27  1  0  0  0  0
 17 27  1  0  0  0  0
 17 30  2  0  0  0  0
 17 32  1  0  0  0  0
 18 20  2  0  0  0  0
 18 37  1  0  0  0  0
 19 21  2  0  0  0  0
 19 38  1  0  0  0  0
 20 46  1  0  0  0  0
 21 39  1  0  0  0  0
 22 90  1  0  0  0  0
 23 91  1  0  0  0  0
 24 26  2  0  0  0  0
 24 90  1  0  0  0  0
 25 92  1  0  0  0  0
 26 93  1  0  0  0  0
 27 73  2  0  0  0  0
 28 60  1  0  0  0  0
 28 74  2  0  0  0  0
 29 70  1  0  0  0  0
 29 75  1  0  0  0  0
 30 76  1  0  0  0  0
 30 79  1  0  0  0  0
 31 49  1  0  0  0  0
 31 74  1  0  0  0  0
 31 75  2  0  0  0  0
 32 80  1  0  0  0  0
 32 85  2  0  0  0  0
 33 47  1  0  0  0  0
 33 81  1  0  0  0  0
 33 86  2  0  0  0  0
 34 68  1  0  0  0  0
 34 77  1  0  0  0  0
 34 87  2  0  0  0  0
 35 69  1  0  0  0  0
 35 82  1  0  0  0  0
 35 88  2  0  0  0  0
 36 78  1  0  0  0  0
 36 83  1  0  0  0  0
 36 89  2  0  0  0  0
 37 40  1  0  0  0  0
 38 47  1  0  0  0  0
 39 77  1  0  0  0  0
 40 42  1  0  0  0  0
 41 43  1  0  0  0  0
 41 44  1  0  0  0  0
 42 46  1  0  0  0  0
 43 48  1  0  0  0  0
 44 78  1  0  0  0  0
 45 48  1  0  0  0  0
 45 78  1  0  0  0  0
 46 81  1  0  0  0  0
 47 77  1  0  0  0  0
 48 76  1  0  0  0  0
 50 69  1  0  0  0  0
 51 70  1  0  0  0  0
 52 70  1  0  0  0  0
 53 71  1  0  0  0  0
 54 71  1  0  0  0  0
 55 71  1  0  0  0  0
 56 72  1  0  0  0  0
 57 72  1  0  0  0  0
 58 72  1  0  0  0  0
 59 84  1  0  0  0  0
 60 61  1  0  0  0  0
 61 62  1  0  0  0  0
 62 63  1  0  0  0  0
 63 64  1  0  0  0  0
 64 67  1  0  0  0  0
 65 70  1  0  0  0  0
 65 83  1  0  0  0  0
 66 71  1  0  0  0  0
 66 83  1  0  0  0  0
 67 91  1  0  0  0  0
 68 72  1  0  0  0  0
 68 82  1  0  0  0  0
 69 84  1  0  0  0  0
 73 76  1  0  0  0  0
M  CHG  1  84   1
M  ISO  4  36 100  67 101  83 100  91 101
M  END
> <Batch ID>
0065

> <Smiles>
CNC(C)C(=O)NC(C(=O)N1Cc2cc([101O:1][101CH2:1]CCCCCc3cc(C(C)(C)C[100N:0](CC(C)(C)C)[100C:0](=O)N4CCCC(n5nc(-c6ccc(Oc7ccc(F)cc7F)cc6)c(C(N)=O)c5N)C4)nc(C)n3)ccc2CC1C(=O)NC1CCCc2ccccc21)C(C)(C)C

> <Shape>
0.292

> <Color>
0.087

> <Negative vol penalty>
0.000

$$$$

  -OEChem-04052318073D

 86 94  0     1  0  0  0  0  0999 V2000
  -25.6969  -34.8223   27.0359 C   0  0  0  0  0  0  0  0  0  0  0  0
  -26.4018  -33.8103   26.3921 C   0  0  0  0  0  0  0  0  0  0  0  0
  -26.0523  -12.4847   21.6025 C   0  0  0  0  0  0  0  0  0  0  0  0
  -25.6667  -12.3495   19.2213 C   0  0  0  0  0  0  0  0  0  0  0  0
  -24.3059  -34.7626   27.1107 C   0  0  0  0  0  0  0  0  0  0  0  0
  -25.7161  -32.7374   25.8237 C   0  0  0  0  0  0  0  0  0  0  0  0
  -27.2165  -29.6957   20.7243 C   0  0  0  0  0  0  0  0  0  0  0  0
  -24.7162  -12.1604   21.8373 C   0  0  0  0  0  0  0  0  0  0  0  0
  -24.3305  -12.0252   19.4561 C   0  0  0  0  0  0  0  0  0  0  0  0
  -27.8823  -28.4891   20.5135 C   0  0  0  0  0  0  0  0  0  0  0  0
  -20.9047  -10.8081   19.4342 C   0  0  0  0  0  0  0  0  0  0  0  0
  -20.3513   -9.7615   18.6967 C   0  0  0  0  0  0  0  0  0  0  0  0
  -25.7601  -27.3539   20.3487 C   0  0  0  0  0  0  0  0  0  0  0  0
  -21.9957   -8.2467   19.6124 C   0  0  0  0  0  0  0  0  0  0  0  0
  -30.0251  -21.1215   20.3593 C   0  0  0  0  0  0  0  0  0  0  0  0
  -26.5276  -12.5792   20.2944 C   0  0  0  0  0  0  0  0  0  0  0  0
  -28.9899  -12.0232   19.9263 C   0  0  0  0  0  0  0  0  0  0  0  0
  -23.6022  -33.6933   26.5344 C   0  0  0  0  0  0  0  0  0  0  0  0
  -25.8153  -29.7388   20.7599 C   0  0  0  0  0  0  0  0  0  0  0  0
  -24.3145  -32.6627   25.8919 C   0  0  0  0  0  0  0  0  0  0  0  0
  -25.0789  -28.5628   20.5576 C   0  0  0  0  0  0  0  0  0  0  0  0
  -31.0591  -21.9585   20.7261 C   0  0  0  0  0  0  0  0  0  0  0  0
  -23.8553  -11.9307   20.7642 C   0  0  0  0  0  0  0  0  0  0  0  0
  -27.1542  -27.3174   20.3285 C   0  0  0  0  0  0  0  0  0  0  0  0
  -22.0037  -10.5741   20.2608 C   0  0  0  0  0  0  0  0  0  0  0  0
  -20.8967   -8.4808   18.7859 C   0  0  0  0  0  0  0  0  0  0  0  0
  -22.5491   -9.2934   20.3499 C   0  0  0  0  0  0  0  0  0  0  0  0
  -27.9076  -12.9147   20.0512 C   0  0  0  0  0  0  0  0  0  0  0  0
  -32.1548  -21.9568   19.8873 C   0  0  0  0  0  0  0  0  0  0  0  0
  -30.0772  -12.8322   19.7034 C   0  0  0  0  0  0  0  0  0  0  0  0
  -31.1717  -20.4267   18.5237 C   0  0  0  0  0  0  0  0  0  0  0  0
  -29.0105  -10.5917   20.0047 C   0  0  0  0  0  0  0  0  0  0  0  0
  -23.6502  -30.5303   22.9484 C   0  0  0  0  0  0  0  0  0  0  0  0
  -21.5782  -30.1018   20.4896 C   0  0  0  0  0  0  0  0  0  0  0  0
  -30.4617  -18.2839   17.3781 C   0  0  0  0  0  0  0  0  0  0  0  0
  -20.9152  -28.6306   17.4825 C   0  0  0  0  0  0  0  0  0  0  0  0
  -22.1019  -33.6482   26.6819 C   0  0  0  0  0  0  0  0  0  0  0  0
  -25.1117  -31.0528   20.9617 C   0  0  0  0  0  0  0  0  0  0  0  0
  -23.5728  -28.5588   20.5665 C   0  0  0  0  0  0  0  0  0  0  0  0
  -21.4253  -32.6676   25.7274 C   0  0  0  0  0  0  0  0  0  0  0  0
  -31.7402  -17.2178   20.6117 C   0  0  0  0  0  0  0  0  0  0  0  0
  -22.1595  -31.3306   25.7268 C   0  0  0  0  0  0  0  0  0  0  0  0
  -30.9699  -15.9164   20.8310 C   0  0  0  0  0  0  0  0  0  0  0  0
  -30.8914  -18.2566   19.8834 C   0  0  0  0  0  0  0  0  0  0  0  0
  -29.5602  -16.4725   18.8020 C   0  0  0  0  0  0  0  0  0  0  0  0
  -23.6048  -31.4951   25.2414 C   0  0  1  0  0  0  0  0  0  0  0  0
  -23.6898  -30.8941   21.4911 C   0  0  1  0  0  0  0  0  0  0  0  0
  -30.3916  -15.3875   19.5068 C   0  0  2  0  0  0  0  0  0  0  0  0
  -33.3337  -22.8237   20.1841 C   0  0  0  0  0  0  0  0  0  0  0  0
  -33.3953  -18.2820   17.9978 C   0  0  0  0  0  0  0  0  0  0  0  0
  -29.2238  -20.7874   16.1609 C   0  0  0  0  0  0  0  0  0  0  0  0
  -19.1234  -28.4383   15.7360 C   0  0  0  0  0  0  0  0  0  0  0  0
  -20.0296  -28.1883   22.2924 C   0  0  0  0  0  0  0  0  0  0  0  0
  -18.8586  -27.3264   20.2543 C   0  0  0  0  0  0  0  0  0  0  0  0
  -18.6011  -29.7162   20.9216 C   0  0  0  0  0  0  0  0  0  0  0  0
  -22.6520  -29.8222   15.4034 C   0  0  0  0  0  0  0  0  0  0  0  0
  -30.9720  -22.8090   21.9683 C   0  0  0  0  0  0  0  0  0  0  0  0
  -32.6947  -19.1116   16.9228 C   0  0  0  0  0  0  0  0  0  0  0  0
  -30.6795  -20.3398   16.0394 C   0  0  0  0  0  0  0  0  0  0  0  0
  -30.6818  -24.2875   21.6873 C   0  0  0  0  0  0  0  0  0  0  0  0
  -29.3227  -24.5154   21.0242 C   0  0  0  0  0  0  0  0  0  0  0  0
  -29.0870  -25.9896   20.7247 C   0  0  0  0  0  0  0  0  0  1  0  0
  -20.7961  -28.9324   19.9420 C   0  0  1  0  0  0  0  0  0  0  0  0
  -20.3643  -29.1943   16.1850 C   0  0  2  0  0  0  0  0  0  0  0  0
  -31.2341  -19.5766   17.3000 C   0  0  0  0  0  0  0  0  0  0  0  0
  -19.5998  -28.5403   20.8543 C   0  0  0  0  0  0  0  0  0  0  0  0
  -30.0480  -20.3389   19.2605 N   0  0  0  0  0  0  0  0  0  0  0  0
  -28.2740  -14.1923   19.9188 N   0  0  0  0  0  0  0  0  0  0  0  0
  -32.2452  -21.2005   18.7736 N   0  0  0  0  0  0  0  0  0  0  0  0
  -29.5988  -14.1094   19.7085 N   0  0  0  0  0  0  0  0  0  0  0  0
  -22.9310  -29.8674   20.7739 N   0  0  0  0  0  0  0  0  0  0  0  0
  -30.3366  -17.7052   18.6414 N   0  0  0  0  0  0  0  0  0  0  0  0
  -31.3863  -12.5686   19.5056 N   0  0  0  0  0  0  0  0  0  0  0  0
  -27.8041   -9.9179   20.2391 N   0  0  0  0  0  0  0  0  0  0  0  0
  -23.6429  -31.6185   23.7999 N   0  0  0  0  0  0  0  0  0  0  0  0
  -20.4158  -29.2970   18.5815 N   0  0  0  0  0  0  0  0  0  0  0  0
  -21.3870  -29.1026   15.1049 N   0  3  0  0  0  0  0  0  0  0  0  0
  -30.0701   -9.9306   19.8871 O   0  0  0  0  0  0  0  0  0  0  0  0
  -23.6264  -29.3497   23.2759 O   0  0  0  0  0  0  0  0  0  0  0  0
  -21.0115  -31.1854   20.6522 O   0  0  0  0  0  0  0  0  0  0  0  0
  -29.9869  -17.8029   16.3459 O   0  0  0  0  0  0  0  0  0  0  0  0
  -21.7063  -27.6907   17.5176 O   0  0  0  0  0  0  0  0  0  0  0  0
  -22.5515  -11.6140   20.9929 O   0  0  0  0  0  0  0  0  0  0  0  0
  -27.8015  -26.1382   20.1232 O   0  0  0  0  0  0  0  0  0  1  0  0
  -20.3642   -7.4755   18.0788 F   0  0  0  0  0  0  0  0  0  0  0  0
  -23.6042   -9.0622   21.1432 F   0  0  0  0  0  0  0  0  0  0  0  0
  1  2  1  0  0  0  0
  1  5  2  0  0  0  0
  2  6  2  0  0  0  0
  3  8  2  0  0  0  0
  3 16  1  0  0  0  0
  4  9  1  0  0  0  0
  4 16  2  0  0  0  0
  5 18  1  0  0  0  0
  6 20  1  0  0  0  0
  7 10  2  0  0  0  0
  7 19  1  0  0  0  0
  8 23  1  0  0  0  0
  9 23  2  0  0  0  0
 10 24  1  0  0  0  0
 11 12  2  0  0  0  0
 11 25  1  0  0  0  0
 12 26  1  0  0  0  0
 13 21  1  0  0  0  0
 13 24  2  0  0  0  0
 14 26  2  0  0  0  0
 14 27  1  0  0  0  0
 15 22  1  0  0  0  0
 15 67  2  0  0  0  0
 16 28  1  0  0  0  0
 17 28  1  0  0  0  0
 17 30  2  0  0  0  0
 17 32  1  0  0  0  0
 18 20  2  0  0  0  0
 18 37  1  0  0  0  0
 19 21  2  0  0  0  0
 19 38  1  0  0  0  0
 20 46  1  0  0  0  0
 21 39  1  0  0  0  0
 22 29  2  0  0  0  0
 22 57  1  0  0  0  0
 23 83  1  0  0  0  0
 24 84  1  0  0  0  0
 25 27  2  0  0  0  0
 25 83  1  0  0  0  0
 26 85  1  0  0  0  0
 27 86  1  0  0  0  0
 28 68  2  0  0  0  0
 29 49  1  0  0  0  0
 29 69  1  0  0  0  0
 30 70  1  0  0  0  0
 30 73  1  0  0  0  0
 31 65  1  0  0  0  0
 31 67  1  0  0  0  0
 31 69  2  0  0  0  0
 32 74  1  0  0  0  0
 32 78  2  0  0  0  0
 33 47  1  0  0  0  0
 33 75  1  0  0  0  0
 33 79  2  0  0  0  0
 34 63  1  0  0  0  0
 34 71  1  0  0  0  0
 34 80  2  0  0  0  0
 35 65  1  0  0  0  0
 35 72  1  0  0  0  0
 35 81  2  0  0  0  0
 36 64  1  0  0  0  0
 36 76  1  0  0  0  0
 36 82  2  0  0  0  0
 37 40  1  0  0  0  0
 38 47  1  0  0  0  0
 39 71  1  0  0  0  0
 40 42  1  0  0  0  0
 41 43  1  0  0  0  0
 41 44  1  0  0  0  0
 42 46  1  0  0  0  0
 43 48  1  0  0  0  0
 44 72  1  0  0  0  0
 45 48  1  0  0  0  0
 45 72  1  0  0  0  0
 46 75  1  0  0  0  0
 47 71  1  0  0  0  0
 48 70  1  0  0  0  0
 50 58  1  0  0  0  0
 51 59  1  0  0  0  0
 52 64  1  0  0  0  0
 53 66  1  0  0  0  0
 54 66  1  0  0  0  0
 55 66  1  0  0  0  0
 56 77  1  0  0  0  0
 57 60  1  0  0  0  0
 58 65  1  0  0  0  0
 59 65  1  0  0  0  0
 60 61  1  0  0  0  0
 61 62  1  0  0  0  0
 62 84  1  0  0  0  0
 63 66  1  0  0  0  0
 63 76  1  0  0  0  0
 64 77  1  0  0  0  0
 68 70  1  0  0  0  0
M  CHG  1  77   1
M  ISO  4  35 100  62 101  65 100  84 101
M  END
> <Batch ID>
0065

> <Smiles>
CC[100C:0](CC)(c1ncc(CCC[101CH2:1][101O:1]c2ccc3c(c2)CN(C(=O)C(NC(=O)C(C)NC)C(C)(C)C)C(C(=O)NC2CCCc4ccccc42)C3)c(C)n1)[100C:0](=O)N1CCCC(n2nc(-c3ccc(Oc4ccc(F)cc4F)cc3)c(C(N)=O)c2N)C1

> <Shape>
0.255

> <Color>
0.088

> <Negative vol penalty>
0.000

$$$$

  -OEChem-04052318073D

 87 95  0     1  0  0  0  0  0999 V2000
  -17.3311  -26.9592   24.3637 C   0  0  0  0  0  0  0  0  0  0  0  0
  -18.5243  -26.2504   24.2670 C   0  0  0  0  0  0  0  0  0  0  0  0
  -27.6292  -15.1040   21.3772 C   0  0  0  0  0  0  0  0  0  0  0  0
  -26.4194  -15.3771   19.3038 C   0  0  0  0  0  0  0  0  0  0  0  0
  -17.1799  -28.1641   23.6788 C   0  0  0  0  0  0  0  0  0  0  0  0
  -19.5667  -26.7458   23.4845 C   0  0  0  0  0  0  0  0  0  0  0  0
  -26.7215  -26.9550   23.1997 C   0  0  0  0  0  0  0  0  0  0  0  0
  -27.1405  -13.8026   21.4910 C   0  0  0  0  0  0  0  0  0  0  0  0
  -25.9307  -14.0756   19.4176 C   0  0  0  0  0  0  0  0  0  0  0  0
  -27.7731  -26.6812   22.3263 C   0  0  0  0  0  0  0  0  0  0  0  0
  -24.0765  -10.9504   19.3449 C   0  0  0  0  0  0  0  0  0  0  0  0
  -22.7212  -10.7421   19.0891 C   0  0  0  0  0  0  0  0  0  0  0  0
  -27.4275  -28.8129   21.2513 C   0  0  0  0  0  0  0  0  0  0  0  0
  -22.1499  -12.2570   20.8823 C   0  0  0  0  0  0  0  0  0  0  0  0
  -25.5155  -25.6980   17.9042 C   0  0  0  0  0  0  0  0  0  0  0  0
  -27.2686  -15.8913   20.2836 C   0  0  0  0  0  0  0  0  0  0  0  0
  -28.9585  -17.6465   19.5277 C   0  0  0  0  0  0  0  0  0  0  0  0
  -18.2244  -28.6793   22.8952 C   0  0  0  0  0  0  0  0  0  0  0  0
  -26.0067  -28.1572   23.0983 C   0  0  0  0  0  0  0  0  0  0  0  0
  -19.4288  -27.9581   22.7874 C   0  0  0  0  0  0  0  0  0  0  0  0
  -26.3688  -29.1007   22.1262 C   0  0  0  0  0  0  0  0  0  0  0  0
  -26.2912  -13.2883   20.5112 C   0  0  0  0  0  0  0  0  0  0  0  0
  -28.1244  -27.6089   21.3500 C   0  0  0  0  0  0  0  0  0  0  0  0
  -24.4685  -11.8120   20.3696 C   0  0  0  0  0  0  0  0  0  0  0  0
  -21.7579  -11.3954   19.8577 C   0  0  0  0  0  0  0  0  0  0  0  0
  -23.5051  -12.4652   21.1382 C   0  0  0  0  0  0  0  0  0  0  0  0
  -27.7726  -17.2360   20.1658 C   0  0  0  0  0  0  0  0  0  0  0  0
  -25.4453  -24.4916   17.2431 C   0  0  0  0  0  0  0  0  0  0  0  0
  -27.7706  -25.7710   17.5319 C   0  0  0  0  0  0  0  0  0  0  0  0
  -27.7007  -24.5642   16.8714 C   0  0  0  0  0  0  0  0  0  0  0  0
  -28.9826  -19.0099   19.6922 C   0  0  0  0  0  0  0  0  0  0  0  0
  -29.9495  -16.8652   18.8471 C   0  0  0  0  0  0  0  0  0  0  0  0
  -22.9828  -28.9243   22.4891 C   0  0  0  0  0  0  0  0  0  0  0  0
  -24.0117  -31.9216   23.1820 C   0  0  0  0  0  0  0  0  0  0  0  0
  -26.6164  -34.1180   23.3765 C   0  0  0  0  0  0  0  0  0  0  0  0
  -24.6879  -23.0866   20.5792 C   0  0  0  0  0  0  0  0  0  0  0  0
  -17.9973  -29.9622   22.1354 C   0  0  0  0  0  0  0  0  0  0  0  0
  -24.8922  -28.4491   24.0652 C   0  0  0  0  0  0  0  0  0  0  0  0
  -25.6462  -30.4150   21.9888 C   0  0  0  0  0  0  0  0  0  0  0  0
  -19.2851  -30.6055   21.6275 C   0  0  0  0  0  0  0  0  0  0  0  0
  -27.4991  -22.4492   22.6690 C   0  0  0  0  0  0  0  0  0  0  0  0
  -20.1792  -29.5609   20.9670 C   0  0  0  0  0  0  0  0  0  0  0  0
  -27.9950  -21.0779   22.2068 C   0  0  0  0  0  0  0  0  0  0  0  0
  -25.9756  -22.5429   22.6243 C   0  0  0  0  0  0  0  0  0  0  0  0
  -25.8673  -20.8227   20.8627 C   0  0  0  0  0  0  0  0  0  0  0  0
  -20.5916  -28.4752   21.9683 C   0  0  1  0  0  0  0  0  0  0  0  0
  -23.9005  -29.4825   23.5397 C   0  0  1  0  0  0  0  0  0  0  0  0
  -27.4004  -20.6990   20.8371 C   0  0  2  0  0  0  0  0  0  0  0  0
  -29.9890  -22.2705   15.1530 C   0  0  0  0  0  0  0  0  0  0  0  0
  -27.1409  -36.5071   23.9374 C   0  0  0  0  0  0  0  0  0  0  0  0
  -24.1959  -22.4238   16.3159 C   0  0  0  0  0  0  0  0  0  0  0  0
  -23.1390  -24.6680   16.2697 C   0  0  0  0  0  0  0  0  0  0  0  0
  -22.8635  -32.8019   20.4956 C   0  0  0  0  0  0  0  0  0  0  0  0
  -24.2200  -34.8980   20.6815 C   0  0  0  0  0  0  0  0  0  0  0  0
  -22.4592  -34.3995   22.3768 C   0  0  0  0  0  0  0  0  0  0  0  0
  -28.4042  -33.3253   25.5978 C   0  0  0  0  0  0  0  0  0  0  0  0
  -29.0817  -26.4971   17.6968 C   0  0  0  0  0  0  0  0  0  0  0  0
  -29.9870  -25.8969   18.7747 C   0  0  0  0  0  0  0  0  0  0  0  0
  -23.4482  -23.4892   18.4672 C   0  0  0  0  0  0  0  0  0  0  0  0
  -28.6486  -22.7384   15.6782 C   0  0  0  0  0  0  0  0  0  0  0  0
  -29.3910  -25.9742   20.1755 C   0  0  0  0  0  0  0  0  0  1  0  0
  -24.6032  -33.0596   22.3858 C   0  0  1  0  0  0  0  0  0  0  0  0
  -27.0391  -35.0853   24.4674 C   0  0  2  0  0  0  0  0  0  0  0  0
  -24.1417  -23.7891   17.0886 C   0  0  0  0  0  0  0  0  0  0  0  0
  -23.5490  -33.7642   21.4860 C   0  0  0  0  0  0  0  0  0  0  0  0
  -26.6794  -26.3594   18.0605 N   0  0  0  0  0  0  0  0  0  0  0  0
  -27.0928  -18.2560   20.6963 N   0  0  0  0  0  0  0  0  0  0  0  0
  -26.5367  -23.9030   16.7148 N   0  0  0  0  0  0  0  0  0  0  0  0
  -27.8539  -19.3210   20.3919 N   0  0  0  0  0  0  0  0  0  0  0  0
  -24.5596  -30.6514   22.9536 N   0  0  0  0  0  0  0  0  0  0  0  0
  -25.4757  -22.1725   21.2981 N   0  0  0  0  0  0  0  0  0  0  0  0
  -29.8590  -19.9610   19.3052 N   0  0  0  0  0  0  0  0  0  0  0  0
  -29.7693  -15.4774   18.7703 N   0  0  0  0  0  0  0  0  0  0  0  0
  -21.6452  -28.9599   22.8340 N   0  0  0  0  0  0  0  0  0  0  0  0
  -25.2491  -33.9414   23.3521 N   0  0  0  0  0  0  0  0  0  0  0  0
  -24.2605  -22.6587   19.3282 N   0  0  0  0  0  0  0  0  0  0  0  0
  -28.3662  -34.6939   25.0210 N   0  3  0  0  0  0  0  0  0  0  0  0
  -30.9729  -17.3806   18.3368 O   0  0  0  0  0  0  0  0  0  0  0  0
  -23.4533  -28.4946   21.4423 O   0  0  0  0  0  0  0  0  0  0  0  0
  -23.1019  -32.1523   23.9825 O   0  0  0  0  0  0  0  0  0  0  0  0
  -27.4186  -33.5764   22.6190 O   0  0  0  0  0  0  0  0  0  0  0  0
  -24.3920  -24.2035   21.0173 O   0  0  0  0  0  0  0  0  0  0  0  0
  -25.8144  -12.0183   20.6218 O   0  0  0  0  0  0  0  0  0  0  0  0
  -29.1500  -27.3438   20.4958 O   0  0  0  0  0  0  0  0  0  1  0  0
  -28.8207  -23.9862   16.3428 O   0  0  0  0  0  0  0  0  0  0  0  0
  -20.4565  -11.1964   19.6109 F   0  0  0  0  0  0  0  0  0  0  0  0
  -23.8756  -13.2950   22.1231 F   0  0  0  0  0  0  0  0  0  0  0  0
  1  2  1  0  0  0  0
  1  5  2  0  0  0  0
  2  6  2  0  0  0  0
  3  8  2  0  0  0  0
  3 16  1  0  0  0  0
  4  9  1  0  0  0  0
  4 16  2  0  0  0  0
  5 18  1  0  0  0  0
  6 20  1  0  0  0  0
  7 10  2  0  0  0  0
  7 19  1  0  0  0  0
  8 22  1  0  0  0  0
  9 22  2  0  0  0  0
 10 23  1  0  0  0  0
 11 12  2  0  0  0  0
 11 24  1  0  0  0  0
 12 25  1  0  0  0  0
 13 21  1  0  0  0  0
 13 23  2  0  0  0  0
 14 25  2  0  0  0  0
 14 26  1  0  0  0  0
 15 28  1  0  0  0  0
 15 66  2  0  0  0  0
 16 27  1  0  0  0  0
 17 27  1  0  0  0  0
 17 31  2  0  0  0  0
 17 32  1  0  0  0  0
 18 20  2  0  0  0  0
 18 37  1  0  0  0  0
 19 21  2  0  0  0  0
 19 38  1  0  0  0  0
 20 46  1  0  0  0  0
 21 39  1  0  0  0  0
 22 83  1  0  0  0  0
 23 84  1  0  0  0  0
 24 26  2  0  0  0  0
 24 83  1  0  0  0  0
 25 86  1  0  0  0  0
 26 87  1  0  0  0  0
 27 67  2  0  0  0  0
 28 64  1  0  0  0  0
 28 68  2  0  0  0  0
 29 30  2  0  0  0  0
 29 57  1  0  0  0  0
 29 66  1  0  0  0  0
 30 68  1  0  0  0  0
 30 85  1  0  0  0  0
 31 69  1  0  0  0  0
 31 72  1  0  0  0  0
 32 73  1  0  0  0  0
 32 78  2  0  0  0  0
 33 47  1  0  0  0  0
 33 74  1  0  0  0  0
 33 79  2  0  0  0  0
 34 62  1  0  0  0  0
 34 70  1  0  0  0  0
 34 80  2  0  0  0  0
 35 63  1  0  0  0  0
 35 75  1  0  0  0  0
 35 81  2  0  0  0  0
 36 71  1  0  0  0  0
 36 76  1  0  0  0  0
 36 82  2  0  0  0  0
 37 40  1  0  0  0  0
 38 47  1  0  0  0  0
 39 70  1  0  0  0  0
 40 42  1  0  0  0  0
 41 43  1  0  0  0  0
 41 44  1  0  0  0  0
 42 46  1  0  0  0  0
 43 48  1  0  0  0  0
 44 71  1  0  0  0  0
 45 48  1  0  0  0  0
 45 71  1  0  0  0  0
 46 74  1  0  0  0  0
 47 70  1  0  0  0  0
 48 69  1  0  0  0  0
 49 60  1  0  0  0  0
 50 63  1  0  0  0  0
 51 64  1  0  0  0  0
 52 64  1  0  0  0  0
 53 65  1  0  0  0  0
 54 65  1  0  0  0  0
 55 65  1  0  0  0  0
 56 77  1  0  0  0  0
 57 58  1  0  0  0  0
 58 61  1  0  0  0  0
 59 64  1  0  0  0  0
 59 76  1  0  0  0  0
 60 85  1  0  0  0  0
 61 84  1  0  0  0  0
 62 65  1  0  0  0  0
 62 75  1  0  0  0  0
 63 77  1  0  0  0  0
 67 69  1  0  0  0  0
M  CHG  1  77   1
M  ISO  4  36 100  61 101  76 100  84 101
M  END
> <Batch ID>
0065

> <Smiles>
CCOc1nc(C(C)(C)C[100NH:0][100C:0](=O)N2CCCC(n3nc(-c4ccc(Oc5ccc(F)cc5F)cc4)c(C(N)=O)c3N)C2)cnc1CC[101CH2:1][101O:1]c1ccc2c(c1)CN(C(=O)C(NC(=O)C(C)NC)C(C)(C)C)C(C(=O)NC1CCCc3ccccc31)C2

> <Shape>
0.257

> <Color>
0.072

> <Negative vol penalty>
0.000

$$$$

  -OEChem-04052318073D

 90 98  0     1  0  0  0  0  0999 V2000
  -16.6150  -29.9395   23.3191 C   0  0  0  0  0  0  0  0  0  0  0  0
  -17.6657  -30.2683   22.4686 C   0  0  0  0  0  0  0  0  0  0  0  0
  -26.6493  -14.5805   21.5093 C   0  0  0  0  0  0  0  0  0  0  0  0
  -26.6368  -14.6153   19.0936 C   0  0  0  0  0  0  0  0  0  0  0  0
  -16.8303  -29.0695   24.3871 C   0  0  0  0  0  0  0  0  0  0  0  0
  -18.9327  -29.7281   22.6863 C   0  0  0  0  0  0  0  0  0  0  0  0
  -24.7524  -27.5342   19.1318 C   0  0  0  0  0  0  0  0  0  0  0  0
  -25.5372  -13.7386   21.5030 C   0  0  0  0  0  0  0  0  0  0  0  0
  -25.5246  -13.7734   19.0873 C   0  0  0  0  0  0  0  0  0  0  0  0
  -26.1338  -27.7209   19.1077 C   0  0  0  0  0  0  0  0  0  0  0  0
  -22.4812  -11.8692   22.1271 C   0  0  0  0  0  0  0  0  0  0  0  0
  -21.4412  -12.1593   23.0102 C   0  0  0  0  0  0  0  0  0  0  0  0
  -26.3697  -26.1666   20.9374 C   0  0  0  0  0  0  0  0  0  0  0  0
  -21.1541  -14.3176   21.9630 C   0  0  0  0  0  0  0  0  0  0  0  0
  -29.4591  -27.3208   15.4745 C   0  0  0  0  0  0  0  0  0  0  0  0
  -27.1991  -15.0189   20.3046 C   0  0  0  0  0  0  0  0  0  0  0  0
  -29.7027  -15.5081   20.2978 C   0  0  0  0  0  0  0  0  0  0  0  0
  -18.0982  -28.5107   24.6123 C   0  0  0  0  0  0  0  0  0  0  0  0
  -24.1672  -26.6691   20.0677 C   0  0  0  0  0  0  0  0  0  0  0  0
  -19.1654  -28.8507   23.7591 C   0  0  0  0  0  0  0  0  0  0  0  0
  -24.9808  -25.9687   20.9697 C   0  0  0  0  0  0  0  0  0  0  0  0
  -24.9749  -13.3351   20.2920 C   0  0  0  0  0  0  0  0  0  0  0  0
  -26.9424  -27.0392   20.0125 C   0  0  0  0  0  0  0  0  0  0  0  0
  -22.8577  -12.8033   21.1620 C   0  0  0  0  0  0  0  0  0  0  0  0
  -20.7777  -13.3835   22.9282 C   0  0  0  0  0  0  0  0  0  0  0  0
  -22.1941  -14.0274   21.0799 C   0  0  0  0  0  0  0  0  0  0  0  0
  -28.3476  -15.8890   20.3105 C   0  0  0  0  0  0  0  0  0  0  0  0
  -30.4180  -26.6289   16.1860 C   0  0  0  0  0  0  0  0  0  0  0  0
  -28.9388  -26.6635   14.3784 C   0  0  0  0  0  0  0  0  0  0  0  0
  -30.3933  -16.6953   20.3105 C   0  0  0  0  0  0  0  0  0  0  0  0
  -30.2599  -24.8560   14.7720 C   0  0  0  0  0  0  0  0  0  0  0  0
  -30.2853  -14.1982   20.2763 C   0  0  0  0  0  0  0  0  0  0  0  0
  -22.0932  -27.0147   22.4515 C   0  0  0  0  0  0  0  0  0  0  0  0
  -22.2835  -23.7786   22.5685 C   0  0  0  0  0  0  0  0  0  0  0  0
  -24.0777  -20.9555   21.8917 C   0  0  0  0  0  0  0  0  0  0  0  0
  -28.9957  -22.2441   18.5474 C   0  0  0  0  0  0  0  0  0  0  0  0
  -18.2936  -27.6121   25.8077 C   0  0  0  0  0  0  0  0  0  0  0  0
  -22.6780  -26.4583   20.0631 C   0  0  0  0  0  0  0  0  0  0  0  0
  -24.4039  -25.0132   21.9809 C   0  0  0  0  0  0  0  0  0  0  0  0
  -19.5778  -26.7889   25.7475 C   0  0  0  0  0  0  0  0  0  0  0  0
  -30.0231  -21.2265   21.8010 C   0  0  0  0  0  0  0  0  0  0  0  0
  -20.7572  -27.6684   25.3446 C   0  0  0  0  0  0  0  0  0  0  0  0
  -29.8325  -19.7088   21.7868 C   0  0  0  0  0  0  0  0  0  0  0  0
  -28.9323  -21.9398   21.0051 C   0  0  0  0  0  0  0  0  0  0  0  0
  -28.5716  -19.9430   19.6064 C   0  0  0  0  0  0  0  0  0  0  0  0
  -20.5482  -28.2657   23.9478 C   0  0  1  0  0  0  0  0  0  0  0  0
  -22.1430  -25.9458   21.3967 C   0  0  1  0  0  0  0  0  0  0  0  0
  -29.6792  -19.1764   20.3493 C   0  0  2  0  0  0  0  0  0  0  0  0
  -23.9903  -18.4597   22.1375 C   0  0  0  0  0  0  0  0  0  0  0  0
  -31.0058  -21.0070   15.3053 C   0  0  0  0  0  0  0  0  0  0  0  0
  -28.4245  -28.6677   12.9416 C   0  0  0  0  0  0  0  0  0  0  0  0
  -26.6288  -27.6686   14.3954 C   0  0  0  0  0  0  0  0  0  0  0  0
  -27.3718  -26.4996   12.3307 C   0  0  0  0  0  0  0  0  0  0  0  0
  -29.9933  -22.9021   13.1054 C   0  0  0  0  0  0  0  0  0  0  0  0
  -32.2210  -23.5250   13.9880 C   0  0  0  0  0  0  0  0  0  0  0  0
  -22.9485  -24.0498   25.5340 C   0  0  0  0  0  0  0  0  0  0  0  0
  -23.7671  -21.6841   25.4953 C   0  0  0  0  0  0  0  0  0  0  0  0
  -21.3773  -22.1836   24.9836 C   0  0  0  0  0  0  0  0  0  0  0  0
  -24.1955  -20.5467   18.9629 C   0  0  0  0  0  0  0  0  0  0  0  0
  -31.0450  -27.2649   17.4008 C   0  0  0  0  0  0  0  0  0  0  0  0
  -30.3002  -26.9694   18.7045 C   0  0  0  0  0  0  0  0  0  0  0  0
  -29.0442  -22.3869   16.0703 C   0  0  0  0  0  0  0  0  0  0  0  0
  -28.8847  -27.5342   18.7325 C   0  0  0  0  0  0  0  0  0  1  0  0
  -23.1586  -22.7846   23.2932 C   0  0  1  0  0  0  0  0  0  0  0  0
  -23.6836  -19.6448   21.2351 C   0  0  2  0  0  0  0  0  0  0  0  0
  -30.5106  -22.4388   15.5852 C   0  0  2  0  0  0  0  0  0  0  0  0
  -27.8946  -27.3317   13.5481 C   0  0  0  0  0  0  0  0  0  0  0  0
  -30.7015  -23.4857   14.3835 C   0  0  0  0  0  0  0  0  0  0  0  0
  -22.8239  -22.6949   24.8089 C   0  0  0  0  0  0  0  0  0  0  0  0
  -28.1847  -17.2145   20.3300 N   0  0  0  0  0  0  0  0  0  0  0  0
  -30.8435  -25.3903   15.8617 N   0  0  0  0  0  0  0  0  0  0  0  0
  -29.3177  -25.4261   13.9969 N   0  0  0  0  0  0  0  0  0  0  0  0
  -29.4466  -17.6769   20.3297 N   0  0  0  0  0  0  0  0  0  0  0  0
  -22.9417  -24.8457   21.9409 N   0  0  0  0  0  0  0  0  0  0  0  0
  -28.8396  -21.3890   19.6508 N   0  0  0  0  0  0  0  0  0  0  0  0
  -31.7118  -16.9849   20.3071 N   0  0  0  0  0  0  0  0  0  0  0  0
  -29.4311  -13.0871   20.2655 N   0  0  0  0  0  0  0  0  0  0  0  0
  -20.8229  -27.2757   22.9285 N   0  0  0  0  0  0  0  0  0  0  0  0
  -23.0227  -21.5217   22.5755 N   0  0  0  0  0  0  0  0  0  0  0  0
  -28.8996  -21.6399   17.2999 N   0  0  0  0  0  0  0  0  0  0  0  0
  -24.4235  -19.4640   19.9542 N   0  3  0  0  0  0  0  0  0  0  0  0
  -31.5267  -14.0181   20.2836 O   0  0  0  0  0  0  0  0  0  0  0  0
  -23.1308  -27.5611   22.8074 O   0  0  0  0  0  0  0  0  0  0  0  0
  -21.0616  -23.6103   22.5535 O   0  0  0  0  0  0  0  0  0  0  0  0
  -25.2094  -21.4279   21.8095 O   0  0  0  0  0  0  0  0  0  0  0  0
  -29.2103  -23.4553   18.6655 O   0  0  0  0  0  0  0  0  0  0  0  0
  -23.8898  -12.5134   20.2854 O   0  0  0  0  0  0  0  0  0  0  0  0
  -28.2910  -27.2201   19.9916 O   0  0  0  0  0  0  0  0  0  1  0  0
  -19.7780  -13.6613   23.7753 F   0  0  0  0  0  0  0  0  0  0  0  0
  -22.5505  -14.9283   20.1540 F   0  0  0  0  0  0  0  0  0  0  0  0
  1  2  1  0  0  0  0
  1  5  2  0  0  0  0
  2  6  2  0  0  0  0
  3  8  2  0  0  0  0
  3 16  1  0  0  0  0
  4  9  1  0  0  0  0
  4 16  2  0  0  0  0
  5 18  1  0  0  0  0
  6 20  1  0  0  0  0
  7 10  2  0  0  0  0
  7 19  1  0  0  0  0
  8 22  1  0  0  0  0
  9 22  2  0  0  0  0
 10 23  1  0  0  0  0
 11 12  2  0  0  0  0
 11 24  1  0  0  0  0
 12 25  1  0  0  0  0
 13 21  1  0  0  0  0
 13 23  2  0  0  0  0
 14 25  2  0  0  0  0
 14 26  1  0  0  0  0
 15 28  1  0  0  0  0
 15 29  2  0  0  0  0
 16 27  1  0  0  0  0
 17 27  1  0  0  0  0
 17 30  2  0  0  0  0
 17 32  1  0  0  0  0
 18 20  2  0  0  0  0
 18 37  1  0  0  0  0
 19 21  2  0  0  0  0
 19 38  1  0  0  0  0
 20 46  1  0  0  0  0
 21 39  1  0  0  0  0
 22 87  1  0  0  0  0
 23 88  1  0  0  0  0
 24 26  2  0  0  0  0
 24 87  1  0  0  0  0
 25 89  1  0  0  0  0
 26 90  1  0  0  0  0
 27 70  2  0  0  0  0
 28 60  1  0  0  0  0
 28 71  2  0  0  0  0
 29 67  1  0  0  0  0
 29 72  1  0  0  0  0
 30 73  1  0  0  0  0
 30 76  1  0  0  0  0
 31 68  1  0  0  0  0
 31 71  1  0  0  0  0
 31 72  2  0  0  0  0
 32 77  1  0  0  0  0
 32 82  2  0  0  0  0
 33 47  1  0  0  0  0
 33 78  1  0  0  0  0
 33 83  2  0  0  0  0
 34 64  1  0  0  0  0
 34 74  1  0  0  0  0
 34 84  2  0  0  0  0
 35 65  1  0  0  0  0
 35 79  1  0  0  0  0
 35 85  2  0  0  0  0
 36 75  1  0  0  0  0
 36 80  1  0  0  0  0
 36 86  2  0  0  0  0
 37 40  1  0  0  0  0
 38 47  1  0  0  0  0
 39 74  1  0  0  0  0
 40 42  1  0  0  0  0
 41 43  1  0  0  0  0
 41 44  1  0  0  0  0
 42 46  1  0  0  0  0
 43 48  1  0  0  0  0
 44 75  1  0  0  0  0
 45 48  1  0  0  0  0
 45 75  1  0  0  0  0
 46 78  1  0  0  0  0
 47 74  1  0  0  0  0
 48 73  1  0  0  0  0
 49 65  1  0  0  0  0
 50 66  1  0  0  0  0
 51 67  1  0  0  0  0
 52 67  1  0  0  0  0
 53 67  1  0  0  0  0
 54 68  1  0  0  0  0
 55 68  1  0  0  0  0
 56 69  1  0  0  0  0
 57 69  1  0  0  0  0
 58 69  1  0  0  0  0
 59 81  1  0  0  0  0
 60 61  1  0  0  0  0
 61 63  1  0  0  0  0
 62 66  1  0  0  0  0
 62 80  1  0  0  0  0
 63 88  1  0  0  0  0
 64 69  1  0  0  0  0
 64 79  1  0  0  0  0
 65 81  1  0  0  0  0
 66 68  1  0  0  0  0
 70 73  1  0  0  0  0
M  CHG  1  81   1
M  ISO  4  36 100  63 101  80 100  88 101
M  END
> <Batch ID>
0065

> <Smiles>
CNC(C)C(=O)NC(C(=O)N1Cc2cc([101O:1][101CH2:1]CCc3cc(C(C)(C)C)nc(C(C)(C)C(C)C[100NH:0][100C:0](=O)N4CCCC(n5nc(-c6ccc(Oc7ccc(F)cc7F)cc6)c(C(N)=O)c5N)C4)n3)ccc2CC1C(=O)NC1CCCc2ccccc21)C(C)(C)C

> <Shape>
0.219

> <Color>
0.063

> <Negative vol penalty>
0.000

$$$$

  -OEChem-04052318073D

 86 94  0     1  0  0  0  0  0999 V2000
  -19.6610   -7.6885   21.8608 C   0  0  0  0  0  0  0  0  0  0  0  0
  -19.7243   -9.0775   21.9070 C   0  0  0  0  0  0  0  0  0  0  0  0
  -24.1871  -30.1890   20.4404 C   0  0  0  0  0  0  0  0  0  0  0  0
  -26.0784  -30.1460   21.9432 C   0  0  0  0  0  0  0  0  0  0  0  0
  -20.7853   -6.9295   22.1831 C   0  0  0  0  0  0  0  0  0  0  0  0
  -20.9117   -9.7083   22.2766 C   0  0  0  0  0  0  0  0  0  0  0  0
  -23.0783  -15.0218   20.1368 C   0  0  0  0  0  0  0  0  0  0  0  0
  -23.4322  -30.8499   21.4094 C   0  0  0  0  0  0  0  0  0  0  0  0
  -25.3235  -30.8069   22.9122 C   0  0  0  0  0  0  0  0  0  0  0  0
  -23.0382  -16.3216   20.6393 C   0  0  0  0  0  0  0  0  0  0  0  0
  -21.7457  -30.0486   24.2269 C   0  0  0  0  0  0  0  0  0  0  0  0
  -20.4435  -29.6010   24.4494 C   0  0  0  0  0  0  0  0  0  0  0  0
  -25.2352  -16.0164   21.5876 C   0  0  0  0  0  0  0  0  0  0  0  0
  -19.5913  -31.7787   23.8427 C   0  0  0  0  0  0  0  0  0  0  0  0
  -27.2297  -20.8714   19.5372 C   0  0  0  0  0  0  0  0  0  0  0  0
  -28.6971  -20.4253   21.1197 C   0  0  0  0  0  0  0  0  0  0  0  0
  -25.5102  -29.8370   20.7074 C   0  0  0  0  0  0  0  0  0  0  0  0
  -27.0954  -29.7385   18.7110 C   0  0  0  0  0  0  0  0  0  0  0  0
  -21.9899   -7.5515   22.5474 C   0  0  0  0  0  0  0  0  0  0  0  0
  -24.1946  -14.2044   20.3656 C   0  0  0  0  0  0  0  0  0  0  0  0
  -22.0528   -8.9569   22.6053 C   0  0  0  0  0  0  0  0  0  0  0  0
  -25.2881  -14.7075   21.0848 C   0  0  0  0  0  0  0  0  0  0  0  0
  -24.0004  -31.1588   22.6453 C   0  0  0  0  0  0  0  0  0  0  0  0
  -24.1155  -16.8182   21.3673 C   0  0  0  0  0  0  0  0  0  0  0  0
  -21.9707  -31.3613   23.8123 C   0  0  0  0  0  0  0  0  0  0  0  0
  -19.3663  -30.4660   24.2573 C   0  0  0  0  0  0  0  0  0  0  0  0
  -20.8935  -32.2263   23.6202 C   0  0  0  0  0  0  0  0  0  0  0  0
  -26.2904  -29.1538   19.7070 C   0  0  0  0  0  0  0  0  0  0  0  0
  -28.4500  -20.5232   19.0079 C   0  0  0  0  0  0  0  0  0  0  0  0
  -27.6191  -28.6716   18.0227 C   0  0  0  0  0  0  0  0  0  0  0  0
  -27.3472  -31.1223   18.4330 C   0  0  0  0  0  0  0  0  0  0  0  0
  -24.6835  -11.4425   21.8612 C   0  0  0  0  0  0  0  0  0  0  0  0
  -27.6669  -11.7480   20.6248 C   0  0  0  0  0  0  0  0  0  0  0  0
  -30.1031  -13.8066   19.4107 C   0  0  0  0  0  0  0  0  0  0  0  0
  -30.1844  -23.6911   18.4904 C   0  0  0  0  0  0  0  0  0  0  0  0
  -23.1650   -6.6883   22.9329 C   0  0  0  0  0  0  0  0  0  0  0  0
  -24.2336  -12.8136   19.7940 C   0  0  0  0  0  0  0  0  0  0  0  0
  -26.5185  -13.8773   21.3407 C   0  0  0  0  0  0  0  0  0  0  0  0
  -24.4931   -7.4405   22.9518 C   0  0  0  0  0  0  0  0  0  0  0  0
  -26.4593  -23.7603   18.1576 C   0  0  0  0  0  0  0  0  0  0  0  0
  -24.3433   -8.7700   23.6844 C   0  0  0  0  0  0  0  0  0  0  0  0
  -26.1613  -25.2146   18.5194 C   0  0  0  0  0  0  0  0  0  0  0  0
  -27.7212  -23.2658   18.8544 C   0  0  0  0  0  0  0  0  0  0  0  0
  -28.6377  -25.5610   18.9462 C   0  0  0  0  0  0  0  0  0  0  0  0
  -23.3299   -9.6783   22.9775 C   0  0  1  0  0  0  0  0  0  0  0  0
  -25.2054  -11.8936   20.5264 C   0  0  1  0  0  0  0  0  0  0  0  0
  -27.3821  -26.1102   18.2486 C   0  0  2  0  0  0  0  0  0  0  0  0
  -32.4463  -13.7699   18.5134 C   0  0  0  0  0  0  0  0  0  0  0  0
  -32.7584  -22.5222   17.4686 C   0  0  0  0  0  0  0  0  0  0  0  0
  -31.9444  -21.5493   19.6398 C   0  0  0  0  0  0  0  0  0  0  0  0
  -27.6844  -20.0357   16.5845 C   0  0  0  0  0  0  0  0  0  0  0  0
  -29.9245  -19.3180   17.3736 C   0  0  0  0  0  0  0  0  0  0  0  0
  -28.7426  -11.3774   23.4560 C   0  0  0  0  0  0  0  0  0  0  0  0
  -30.9390  -12.2820   22.6650 C   0  0  0  0  0  0  0  0  0  0  0  0
  -30.0338  -10.1748   21.6837 C   0  0  0  0  0  0  0  0  0  0  0  0
  -29.2451  -14.9094   16.8018 C   0  0  0  0  0  0  0  0  0  0  0  0
  -25.0896  -20.2613   21.7992 C   0  0  0  0  0  0  0  0  0  0  0  0
  -26.3622  -21.0994   21.9407 C   0  0  0  0  0  0  0  0  0  0  0  0
  -29.4587  -21.7623   17.0232 C   0  0  0  0  0  0  0  0  0  0  0  0
  -25.3252  -18.7679   21.9927 C   0  0  0  0  0  0  0  0  0  1  0  0
  -28.9560  -12.3828   21.0875 C   0  0  1  0  0  0  0  0  0  0  0  0
  -30.9668  -13.7198   18.1653 C   0  0  2  0  0  0  0  0  0  0  0  0
  -31.6496  -21.7362   18.1571 C   0  0  0  0  0  0  0  0  0  0  0  0
  -28.8339  -20.4279   17.5913 C   0  0  0  0  0  0  0  0  0  0  0  0
  -29.6440  -11.5695   22.2200 C   0  0  0  0  0  0  0  0  0  0  0  0
  -29.3590  -20.2464   19.9982 N   0  0  0  0  0  0  0  0  0  0  0  0
  -26.2988  -27.8190   19.6590 N   0  0  0  0  0  0  0  0  0  0  0  0
  -27.4033  -20.8037   20.8909 N   0  0  0  0  0  0  0  0  0  0  0  0
  -27.1154  -27.5561   18.6245 N   0  0  0  0  0  0  0  0  0  0  0  0
  -26.5062  -12.5217   20.7666 N   0  0  0  0  0  0  0  0  0  0  0  0
  -28.8633  -24.1549   18.6035 N   0  0  0  0  0  0  0  0  0  0  0  0
  -28.4567  -28.5881   16.9673 N   0  0  0  0  0  0  0  0  0  0  0  0
  -26.7288  -32.0888   19.2378 N   0  0  0  0  0  0  0  0  0  0  0  0
  -23.9268  -10.2875   21.8083 N   0  0  0  0  0  0  0  0  0  0  0  0
  -29.7766  -12.5571   19.8939 N   0  0  0  0  0  0  0  0  0  0  0  0
  -30.3656  -22.3984   17.9760 N   0  0  0  0  0  0  0  0  0  0  0  0
  -30.6621  -14.8508   17.2439 N   0  3  0  0  0  0  0  0  0  0  0  0
  -28.0855  -31.4911   17.4883 O   0  0  0  0  0  0  0  0  0  0  0  0
  -24.9490  -12.0933   22.8651 O   0  0  0  0  0  0  0  0  0  0  0  0
  -27.6898  -10.6104   20.1484 O   0  0  0  0  0  0  0  0  0  0  0  0
  -29.7560  -14.8758   19.9075 O   0  0  0  0  0  0  0  0  0  0  0  0
  -31.1468  -24.3961   18.8202 O   0  0  0  0  0  0  0  0  0  0  0  0
  -23.2641  -31.8039   23.5910 O   0  0  0  0  0  0  0  0  0  0  0  0
  -24.0786  -18.0863   21.8595 O   0  0  0  0  0  0  0  0  0  1  0  0
  -18.1158  -30.0356   24.4696 F   0  0  0  0  0  0  0  0  0  0  0  0
  -21.1033  -33.4882   23.2208 F   0  0  0  0  0  0  0  0  0  0  0  0
  1  2  1  0  0  0  0
  1  5  2  0  0  0  0
  2  6  2  0  0  0  0
  3  8  2  0  0  0  0
  3 17  1  0  0  0  0
  4  9  1  0  0  0  0
  4 17  2  0  0  0  0
  5 19  1  0  0  0  0
  6 21  1  0  0  0  0
  7 10  2  0  0  0  0
  7 20  1  0  0  0  0
  8 23  1  0  0  0  0
  9 23  2  0  0  0  0
 10 24  1  0  0  0  0
 11 12  2  0  0  0  0
 11 25  1  0  0  0  0
 12 26  1  0  0  0  0
 13 22  1  0  0  0  0
 13 24  2  0  0  0  0
 14 26  2  0  0  0  0
 14 27  1  0  0  0  0
 15 29  2  0  0  0  0
 15 68  1  0  0  0  0
 16 66  2  0  0  0  0
 16 68  1  0  0  0  0
 17 28  1  0  0  0  0
 18 28  1  0  0  0  0
 18 30  2  0  0  0  0
 18 31  1  0  0  0  0
 19 21  2  0  0  0  0
 19 36  1  0  0  0  0
 20 22  2  0  0  0  0
 20 37  1  0  0  0  0
 21 45  1  0  0  0  0
 22 38  1  0  0  0  0
 23 83  1  0  0  0  0
 24 84  1  0  0  0  0
 25 27  2  0  0  0  0
 25 83  1  0  0  0  0
 26 85  1  0  0  0  0
 27 86  1  0  0  0  0
 28 67  2  0  0  0  0
 29 64  1  0  0  0  0
 29 66  1  0  0  0  0
 30 69  1  0  0  0  0
 30 72  1  0  0  0  0
 31 73  1  0  0  0  0
 31 78  2  0  0  0  0
 32 46  1  0  0  0  0
 32 74  1  0  0  0  0
 32 79  2  0  0  0  0
 33 61  1  0  0  0  0
 33 70  1  0  0  0  0
 33 80  2  0  0  0  0
 34 62  1  0  0  0  0
 34 75  1  0  0  0  0
 34 81  2  0  0  0  0
 35 71  1  0  0  0  0
 35 76  1  0  0  0  0
 35 82  2  0  0  0  0
 36 39  1  0  0  0  0
 37 46  1  0  0  0  0
 38 70  1  0  0  0  0
 39 41  1  0  0  0  0
 40 42  1  0  0  0  0
 40 43  1  0  0  0  0
 41 45  1  0  0  0  0
 42 47  1  0  0  0  0
 43 71  1  0  0  0  0
 44 47  1  0  0  0  0
 44 71  1  0  0  0  0
 45 74  1  0  0  0  0
 46 70  1  0  0  0  0
 47 69  1  0  0  0  0
 48 62  1  0  0  0  0
 49 63  1  0  0  0  0
 50 63  1  0  0  0  0
 51 64  1  0  0  0  0
 52 64  1  0  0  0  0
 53 65  1  0  0  0  0
 54 65  1  0  0  0  0
 55 65  1  0  0  0  0
 56 77  1  0  0  0  0
 57 58  1  0  0  0  0
 57 60  1  0  0  0  0
 58 68  1  0  0  0  0
 59 64  1  0  0  0  0
 59 76  1  0  0  0  0
 60 84  1  0  0  0  0
 61 65  1  0  0  0  0
 61 75  1  0  0  0  0
 62 77  1  0  0  0  0
 63 76  1  0  0  0  0
 67 69  1  0  0  0  0
M  CHG  1  77   1
M  ISO  4  35 100  60 101  76 100  84 101
M  END
> <Batch ID>
0065

> <Smiles>
CNC(C)C(=O)NC(C(=O)N1Cc2cc([101O:1][101CH2:1]CCn3cnc(C(C)(C)C[100N:0](C(C)C)[100C:0](=O)N4CCCC(n5nc(-c6ccc(Oc7ccc(F)cc7F)cc6)c(C(N)=O)c5N)C4)c3)ccc2CC1C(=O)NC1CCCc2ccccc21)C(C)(C)C

> <Shape>
0.251

> <Color>
0.062

> <Negative vol penalty>
0.000

$$$$

  -OEChem-04052318073D

 86 94  0     1  0  0  0  0  0999 V2000
  -29.4062  -31.0734   26.5908 C   0  0  0  0  0  0  0  0  0  0  0  0
  -29.3582  -30.2463   25.4733 C   0  0  0  0  0  0  0  0  0  0  0  0
  -26.8472  -12.8769   21.0802 C   0  0  0  0  0  0  0  0  0  0  0  0
  -26.6503  -13.3154   18.7125 C   0  0  0  0  0  0  0  0  0  0  0  0
  -28.2992  -31.1707   27.4328 C   0  0  0  0  0  0  0  0  0  0  0  0
  -28.2033  -29.5150   25.1977 C   0  0  0  0  0  0  0  0  0  0  0  0
  -26.8945  -29.7198   20.3100 C   0  0  0  0  0  0  0  0  0  0  0  0
  -26.2609  -11.6246   20.8970 C   0  0  0  0  0  0  0  0  0  0  0  0
  -26.0641  -12.0630   18.5293 C   0  0  0  0  0  0  0  0  0  0  0  0
  -27.6082  -28.9124   19.4253 C   0  0  0  0  0  0  0  0  0  0  0  0
  -23.1525  -10.3688   20.4672 C   0  0  0  0  0  0  0  0  0  0  0  0
  -22.1613   -9.9800   21.3684 C   0  0  0  0  0  0  0  0  0  0  0  0
  -26.5992  -24.3461   22.0391 C   0  0  0  0  0  0  0  0  0  0  0  0
  -25.8130  -27.3013   19.4568 C   0  0  0  0  0  0  0  0  0  0  0  0
  -23.4936   -8.0691   22.0092 C   0  0  0  0  0  0  0  0  0  0  0  0
  -25.3458  -23.9426   21.6487 C   0  0  0  0  0  0  0  0  0  0  0  0
  -27.0418  -13.7224   19.9879 C   0  0  0  0  0  0  0  0  0  0  0  0
  -29.0180  -15.3301   20.1205 C   0  0  0  0  0  0  0  0  0  0  0  0
  -27.1267  -30.4477   27.1620 C   0  0  0  0  0  0  0  0  0  0  0  0
  -25.6373  -29.3182   20.7840 C   0  0  0  0  0  0  0  0  0  0  0  0
  -27.0800  -29.6016   26.0376 C   0  0  0  0  0  0  0  0  0  0  0  0
  -25.0842  -28.1066   20.3454 C   0  0  0  0  0  0  0  0  0  0  0  0
  -25.8694  -11.2176   19.6216 C   0  0  0  0  0  0  0  0  0  0  0  0
  -27.0687  -27.7016   19.0009 C   0  0  0  0  0  0  0  0  0  0  0  0
  -24.3142   -9.6077   20.3370 C   0  0  0  0  0  0  0  0  0  0  0  0
  -22.3319   -8.8301   22.1393 C   0  0  0  0  0  0  0  0  0  0  0  0
  -24.4848   -8.4579   21.1080 C   0  0  0  0  0  0  0  0  0  0  0  0
  -27.6468  -15.0164   20.1766 C   0  0  0  0  0  0  0  0  0  0  0  0
  -27.4770  -23.6033   21.2270 C   0  0  0  0  0  0  0  0  0  0  0  0
  -29.0717  -16.6805   20.3652 C   0  0  0  0  0  0  0  0  0  0  0  0
  -30.1427  -14.4770   19.8694 C   0  0  0  0  0  0  0  0  0  0  0  0
  -24.4276  -28.6518   23.6469 C   0  0  0  0  0  0  0  0  0  0  0  0
  -21.6470  -28.4351   21.9904 C   0  0  0  0  0  0  0  0  0  0  0  0
  -25.0310  -20.9521   19.5276 C   0  0  0  0  0  0  0  0  0  0  0  0
  -20.0893  -27.8948   19.0024 C   0  0  0  0  0  0  0  0  0  0  0  0
  -25.9722  -30.5488   28.1272 C   0  0  0  0  0  0  0  0  0  0  0  0
  -24.8684  -30.2130   21.7170 C   0  0  0  0  0  0  0  0  0  0  0  0
  -23.7294  -27.6395   20.8089 C   0  0  0  0  0  0  0  0  0  0  0  0
  -24.6548  -30.0290   27.5576 C   0  0  0  0  0  0  0  0  0  0  0  0
  -26.7435  -20.1769   22.6410 C   0  0  0  0  0  0  0  0  0  0  0  0
  -24.8644  -28.6834   26.8703 C   0  0  0  0  0  0  0  0  0  0  0  0
  -27.2716  -18.7712   22.3576 C   0  0  0  0  0  0  0  0  0  0  0  0
  -25.3846  -20.4087   21.9855 C   0  0  0  0  0  0  0  0  0  0  0  0
  -25.9011  -18.7445   20.2282 C   0  0  0  0  0  0  0  0  0  0  0  0
  -25.8366  -28.8116   25.6914 C   0  0  1  0  0  0  0  0  0  0  0  0
  -23.8225  -29.4638   22.5368 C   0  0  1  0  0  0  0  0  0  0  0  0
  -27.2842  -18.4807   20.8466 C   0  0  2  0  0  0  0  0  0  0  0  0
  -17.8073  -27.7432   17.9696 C   0  0  0  0  0  0  0  0  0  0  0  0
  -29.8132  -23.0566   18.3364 C   0  0  0  0  0  0  0  0  0  0  0  0
  -24.1285  -23.0932   18.6769 C   0  0  0  0  0  0  0  0  0  0  0  0
  -23.2310  -22.0346   20.7502 C   0  0  0  0  0  0  0  0  0  0  0  0
  -21.2815  -25.6626   23.2109 C   0  0  0  0  0  0  0  0  0  0  0  0
  -19.5525  -25.1966   21.4612 C   0  0  0  0  0  0  0  0  0  0  0  0
  -19.1961  -27.0389   23.1049 C   0  0  0  0  0  0  0  0  0  0  0  0
  -31.3556  -25.7667   17.9141 C   0  0  0  0  0  0  0  0  0  0  0  0
  -29.4557  -25.3210   16.3521 C   0  0  0  0  0  0  0  0  0  0  0  0
  -20.6324  -30.1687   17.1877 C   0  0  0  0  0  0  0  0  0  0  0  0
  -28.9848  -23.6443   21.2272 C   0  0  0  0  0  0  0  0  0  0  0  0
  -29.5816  -24.6827   20.2617 C   0  0  0  0  0  0  0  0  0  0  0  0
  -29.1877  -26.9758   18.2014 C   0  0  0  0  0  0  0  0  0  1  0  0
  -20.9139  -27.3278   21.2724 C   0  0  1  0  0  0  0  0  0  0  0  0
  -18.9826  -28.6529   18.2918 C   0  0  2  0  0  0  0  0  0  0  0  0
  -29.2900  -24.4432   18.7541 C   0  0  1  0  0  0  0  0  0  0  0  0
  -24.5144  -22.3067   19.9424 C   0  0  0  0  0  0  0  0  0  0  0  0
  -20.2624  -26.3141   22.2549 C   0  0  0  0  0  0  0  0  0  0  0  0
  -29.8247  -25.6099   17.8278 C   0  0  0  0  0  0  0  0  0  0  0  0
  -26.8844  -16.0818   20.4368 N   0  0  0  0  0  0  0  0  0  0  0  0
  -26.8355  -22.7894   20.3844 N   0  0  0  0  0  0  0  0  0  0  0  0
  -25.5413  -23.0183   20.6649 N   0  0  0  0  0  0  0  0  0  0  0  0
  -27.7796  -17.0781   20.5464 N   0  0  0  0  0  0  0  0  0  0  0  0
  -23.0194  -28.5466   21.7257 N   0  0  0  0  0  0  0  0  0  0  0  0
  -25.4315  -20.0946   20.5525 N   0  0  0  0  0  0  0  0  0  0  0  0
  -30.0975  -17.5548   20.4411 N   0  0  0  0  0  0  0  0  0  0  0  0
  -29.9094  -13.1147   19.6373 N   0  0  0  0  0  0  0  0  0  0  0  0
  -25.1690  -29.3934   24.5467 N   0  0  0  0  0  0  0  0  0  0  0  0
  -19.9684  -27.9805   20.3732 N   0  0  0  0  0  0  0  0  0  0  0  0
  -19.4895  -29.2352   17.0171 N   0  3  0  0  0  0  0  0  0  0  0  0
  -31.3211  -14.9070   19.8678 O   0  0  0  0  0  0  0  0  0  0  0  0
  -24.2347  -27.4423   23.6851 O   0  0  0  0  0  0  0  0  0  0  0  0
  -21.0236  -29.1783   22.7524 O   0  0  0  0  0  0  0  0  0  0  0  0
  -25.0789  -20.6676   18.3281 O   0  0  0  0  0  0  0  0  0  0  0  0
  -20.9707  -27.2843   18.4015 O   0  0  0  0  0  0  0  0  0  0  0  0
  -25.2976   -9.9955   19.4425 O   0  0  0  0  0  0  0  0  0  0  0  0
  -27.7635  -26.9114   18.1380 O   0  0  0  0  0  0  0  0  0  1  0  0
  -21.3807   -8.4577   23.0058 F   0  0  0  0  0  0  0  0  0  0  0  0
  -25.5992   -7.7234   20.9881 F   0  0  0  0  0  0  0  0  0  0  0  0
  1  2  1  0  0  0  0
  1  5  2  0  0  0  0
  2  6  2  0  0  0  0
  3  8  2  0  0  0  0
  3 17  1  0  0  0  0
  4  9  1  0  0  0  0
  4 17  2  0  0  0  0
  5 19  1  0  0  0  0
  6 21  1  0  0  0  0
  7 10  2  0  0  0  0
  7 20  1  0  0  0  0
  8 23  1  0  0  0  0
  9 23  2  0  0  0  0
 10 24  1  0  0  0  0
 11 12  2  0  0  0  0
 11 25  1  0  0  0  0
 12 26  1  0  0  0  0
 13 16  2  0  0  0  0
 13 29  1  0  0  0  0
 14 22  1  0  0  0  0
 14 24  2  0  0  0  0
 15 26  2  0  0  0  0
 15 27  1  0  0  0  0
 16 69  1  0  0  0  0
 17 28  1  0  0  0  0
 18 28  1  0  0  0  0
 18 30  2  0  0  0  0
 18 31  1  0  0  0  0
 19 21  2  0  0  0  0
 19 36  1  0  0  0  0
 20 22  2  0  0  0  0
 20 37  1  0  0  0  0
 21 45  1  0  0  0  0
 22 38  1  0  0  0  0
 23 83  1  0  0  0  0
 24 84  1  0  0  0  0
 25 27  2  0  0  0  0
 25 83  1  0  0  0  0
 26 85  1  0  0  0  0
 27 86  1  0  0  0  0
 28 67  2  0  0  0  0
 29 58  1  0  0  0  0
 29 68  2  0  0  0  0
 30 70  1  0  0  0  0
 30 73  1  0  0  0  0
 31 74  1  0  0  0  0
 31 78  2  0  0  0  0
 32 46  1  0  0  0  0
 32 75  1  0  0  0  0
 32 79  2  0  0  0  0
 33 61  1  0  0  0  0
 33 71  1  0  0  0  0
 33 80  2  0  0  0  0
 34 64  1  0  0  0  0
 34 72  1  0  0  0  0
 34 81  2  0  0  0  0
 35 62  1  0  0  0  0
 35 76  1  0  0  0  0
 35 82  2  0  0  0  0
 36 39  1  0  0  0  0
 37 46  1  0  0  0  0
 38 71  1  0  0  0  0
 39 41  1  0  0  0  0
 40 42  1  0  0  0  0
 40 43  1  0  0  0  0
 41 45  1  0  0  0  0
 42 47  1  0  0  0  0
 43 72  1  0  0  0  0
 44 47  1  0  0  0  0
 44 72  1  0  0  0  0
 45 75  1  0  0  0  0
 46 71  1  0  0  0  0
 47 70  1  0  0  0  0
 48 62  1  0  0  0  0
 49 63  1  0  0  0  0
 50 64  1  0  0  0  0
 51 64  1  0  0  0  0
 52 65  1  0  0  0  0
 53 65  1  0  0  0  0
 54 65  1  0  0  0  0
 55 66  1  0  0  0  0
 56 66  1  0  0  0  0
 57 77  1  0  0  0  0
 58 59  1  0  0  0  0
 59 63  1  0  0  0  0
 60 66  1  0  0  0  0
 60 84  1  0  0  0  0
 61 65  1  0  0  0  0
 61 76  1  0  0  0  0
 62 77  1  0  0  0  0
 63 66  1  0  0  0  0
 64 69  1  0  0  0  0
 67 70  1  0  0  0  0
 68 69  1  0  0  0  0
M  CHG  1  77   1
M  ISO  4  34 100  60 101  64 100  84 101
M  END
> <Batch ID>
0065

> <Smiles>
CNC(C)C(=O)NC(C(=O)N1Cc2cc([101O:1][101CH2:1]C(C)(C)C(C)CCc3ccn([100C:0](C)(C)[100C:0](=O)N4CCCC(n5nc(-c6ccc(Oc7ccc(F)cc7F)cc6)c(C(N)=O)c5N)C4)n3)ccc2CC1C(=O)NC1CCCc2ccccc21)C(C)(C)C

> <Shape>
0.253

> <Color>
0.068

> <Negative vol penalty>
0.000

$$$$

  -OEChem-04052318073D

 87 95  0     1  0  0  0  0  0999 V2000
  -33.6602  -28.9921   23.9761 C   0  0  0  0  0  0  0  0  0  0  0  0
  -33.9569  -27.9669   23.0838 C   0  0  0  0  0  0  0  0  0  0  0  0
  -23.0489   -9.8941   19.9668 C   0  0  0  0  0  0  0  0  0  0  0  0
  -23.6646   -9.9951   22.3009 C   0  0  0  0  0  0  0  0  0  0  0  0
  -32.3408  -29.2121   24.3696 C   0  0  0  0  0  0  0  0  0  0  0  0
  -32.9345  -27.1603   22.5853 C   0  0  0  0  0  0  0  0  0  0  0  0
  -31.0557  -23.5243   16.7060 C   0  0  0  0  0  0  0  0  0  0  0  0
  -22.2706   -8.7649   20.2210 C   0  0  0  0  0  0  0  0  0  0  0  0
  -22.8862   -8.8659   22.5551 C   0  0  0  0  0  0  0  0  0  0  0  0
  -30.6433  -22.2520   16.3123 C   0  0  0  0  0  0  0  0  0  0  0  0
  -23.1523   -5.5178   22.1670 C   0  0  0  0  0  0  0  0  0  0  0  0
  -23.7036   -4.5176   22.9676 C   0  0  0  0  0  0  0  0  0  0  0  0
  -28.3914  -22.7754   17.0010 C   0  0  0  0  0  0  0  0  0  0  0  0
  -21.9026   -4.7947   24.5541 C   0  0  0  0  0  0  0  0  0  0  0  0
  -23.7460  -10.5092   21.0068 C   0  0  0  0  0  0  0  0  0  0  0  0
  -24.1394  -13.0208   20.7952 C   0  0  0  0  0  0  0  0  0  0  0  0
  -31.3006  -28.4140   23.8681 C   0  0  0  0  0  0  0  0  0  0  0  0
  -30.1397  -24.4293   17.2612 C   0  0  0  0  0  0  0  0  0  0  0  0
  -31.6002  -27.3690   22.9734 C   0  0  0  0  0  0  0  0  0  0  0  0
  -28.7942  -24.0594   17.3986 C   0  0  0  0  0  0  0  0  0  0  0  0
  -22.1892   -8.2508   21.5151 C   0  0  0  0  0  0  0  0  0  0  0  0
  -29.3116  -21.8763   16.4624 C   0  0  0  0  0  0  0  0  0  0  0  0
  -21.9761   -6.1567   22.5599 C   0  0  0  0  0  0  0  0  0  0  0  0
  -23.0787   -4.1560   24.1611 C   0  0  0  0  0  0  0  0  0  0  0  0
  -21.3513   -5.7951   23.7534 C   0  0  0  0  0  0  0  0  0  0  0  0
  -24.5506  -11.6754   20.7447 C   0  0  0  0  0  0  0  0  0  0  0  0
  -29.8216  -16.8777   16.9246 C   0  0  0  0  0  0  0  0  0  0  0  0
  -30.8273  -18.2801   18.9616 C   0  0  0  0  0  0  0  0  0  0  0  0
  -29.1980  -18.0191   17.3783 C   0  0  0  0  0  0  0  0  0  0  0  0
  -31.4506  -17.1383   18.5085 C   0  0  0  0  0  0  0  0  0  0  0  0
  -25.2652  -13.7365   20.4681 C   0  0  0  0  0  0  0  0  0  0  0  0
  -22.8547  -13.5742   21.1096 C   0  0  0  0  0  0  0  0  0  0  0  0
  -29.8578  -25.8994   20.0653 C   0  0  0  0  0  0  0  0  0  0  0  0
  -27.4091  -27.4230   18.5803 C   0  0  0  0  0  0  0  0  0  0  0  0
  -25.0608  -27.4037   16.1041 C   0  0  0  0  0  0  0  0  0  0  0  0
  -30.5220  -14.8144   20.8738 C   0  0  0  0  0  0  0  0  0  0  0  0
  -29.8958  -28.6597   24.3591 C   0  0  0  0  0  0  0  0  0  0  0  0
  -30.5949  -25.8074   17.6562 C   0  0  0  0  0  0  0  0  0  0  0  0
  -27.7672  -25.0012   17.9703 C   0  0  0  0  0  0  0  0  0  0  0  0
  -28.8244  -27.9997   23.4950 C   0  0  0  0  0  0  0  0  0  0  0  0
  -29.7101  -12.2339   18.6037 C   0  0  0  0  0  0  0  0  0  0  0  0
  -29.2044  -26.5556   23.1838 C   0  0  0  0  0  0  0  0  0  0  0  0
  -28.2524  -11.9572   18.9687 C   0  0  0  0  0  0  0  0  0  0  0  0
  -30.5721  -12.4971   19.8398 C   0  0  0  0  0  0  0  0  0  0  0  0
  -28.5856  -13.2856   21.0868 C   0  0  0  0  0  0  0  0  0  0  0  0
  -30.5156  -26.4886   22.3915 C   0  0  1  0  0  0  0  0  0  0  0  0
  -29.6815  -26.4664   18.6851 C   0  0  1  0  0  0  0  0  0  0  0  0
  -27.6861  -13.0772   19.8588 C   0  0  2  0  0  0  0  0  0  0  0  0
  -29.2678  -16.0888   15.7878 C   0  0  0  0  0  0  0  0  0  0  0  0
  -31.3810  -19.0694   20.0982 C   0  0  0  0  0  0  0  0  0  0  0  0
  -26.6855  -17.8823   17.3865 C   0  0  0  0  0  0  0  0  0  0  0  0
  -23.1778  -28.7706   15.1643 C   0  0  0  0  0  0  0  0  0  0  0  0
  -33.9255  -17.6270   19.0854 C   0  0  0  0  0  0  0  0  0  0  0  0
  -33.2102  -15.3524   18.3996 C   0  0  0  0  0  0  0  0  0  0  0  0
  -25.6320  -26.5723   20.9102 C   0  0  0  0  0  0  0  0  0  0  0  0
  -23.6381  -27.1138   19.4961 C   0  0  0  0  0  0  0  0  0  0  0  0
  -25.2547  -28.9116   20.1103 C   0  0  0  0  0  0  0  0  0  0  0  0
  -32.8463  -13.8579   21.1702 C   0  0  0  0  0  0  0  0  0  0  0  0
  -26.4021  -27.6582   13.4782 C   0  0  0  0  0  0  0  0  0  0  0  0
  -32.5164  -16.2454   20.6436 C   0  0  0  0  0  0  0  0  0  0  0  0
  -27.8144  -20.0587   16.7947 C   0  0  0  0  0  0  0  0  0  1  0  0
  -27.9147  -18.5281   16.7410 C   0  0  1  0  0  0  0  0  0  0  0  0
  -25.9314  -27.1627   18.4146 C   0  0  1  0  0  0  0  0  0  0  0  0
  -24.6635  -28.4558   15.0845 C   0  0  2  0  0  0  0  0  0  0  0  0
  -32.7078  -16.6387   19.1342 C   0  0  0  0  0  0  0  0  0  0  0  0
  -25.1336  -27.4214   19.7238 C   0  0  0  0  0  0  0  0  0  0  0  0
  -25.8372  -11.5416   20.4117 N   0  0  0  0  0  0  0  0  0  0  0  0
  -29.6898  -18.7410   18.4047 N   0  0  0  0  0  0  0  0  0  0  0  0
  -30.9589  -16.4166   17.4818 N   0  0  0  0  0  0  0  0  0  0  0  0
  -26.2441  -12.8122   20.2498 N   0  0  0  0  0  0  0  0  0  0  0  0
  -28.2627  -26.3352   18.3476 N   0  0  0  0  0  0  0  0  0  0  0  0
  -29.9715  -13.5382   20.6850 N   0  0  0  0  0  0  0  0  0  0  0  0
  -25.5033  -15.0599   20.3487 N   0  0  0  0  0  0  0  0  0  0  0  0
  -21.8077  -12.6967   21.4230 N   0  0  0  0  0  0  0  0  0  0  0  0
  -30.2842  -26.8213   21.0021 N   0  0  0  0  0  0  0  0  0  0  0  0
  -25.4988  -27.9729   17.2811 N   0  0  0  0  0  0  0  0  0  0  0  0
  -31.9188  -14.9276   20.8071 N   0  0  0  0  0  0  0  0  0  0  0  0
  -24.9701  -27.9822   13.7051 N   0  3  0  0  0  0  0  0  0  0  0  0
  -22.6372  -14.8095   21.0966 O   0  0  0  0  0  0  0  0  0  0  0  0
  -29.6228  -24.7135   20.2659 O   0  0  0  0  0  0  0  0  0  0  0  0
  -27.7925  -28.5517   18.8975 O   0  0  0  0  0  0  0  0  0  0  0  0
  -24.9863  -26.1975   15.8803 O   0  0  0  0  0  0  0  0  0  0  0  0
  -29.8061  -15.7989   21.0981 O   0  0  0  0  0  0  0  0  0  0  0  0
  -21.4296   -7.1490   21.7635 O   0  0  0  0  0  0  0  0  0  0  0  0
  -28.9066  -20.6349   16.0795 O   0  0  0  0  0  0  0  0  0  1  0  0
  -23.6074   -3.1943   24.9292 F   0  0  0  0  0  0  0  0  0  0  0  0
  -20.2205   -6.4044   24.1355 F   0  0  0  0  0  0  0  0  0  0  0  0
  1  2  1  0  0  0  0
  1  5  2  0  0  0  0
  2  6  2  0  0  0  0
  3  8  2  0  0  0  0
  3 15  1  0  0  0  0
  4  9  1  0  0  0  0
  4 15  2  0  0  0  0
  5 17  1  0  0  0  0
  6 19  1  0  0  0  0
  7 10  2  0  0  0  0
  7 18  1  0  0  0  0
  8 21  1  0  0  0  0
  9 21  2  0  0  0  0
 10 22  1  0  0  0  0
 11 12  2  0  0  0  0
 11 23  1  0  0  0  0
 12 24  1  0  0  0  0
 13 20  1  0  0  0  0
 13 22  2  0  0  0  0
 14 24  2  0  0  0  0
 14 25  1  0  0  0  0
 15 26  1  0  0  0  0
 16 26  1  0  0  0  0
 16 31  2  0  0  0  0
 16 32  1  0  0  0  0
 17 19  2  0  0  0  0
 17 37  1  0  0  0  0
 18 20  2  0  0  0  0
 18 38  1  0  0  0  0
 19 46  1  0  0  0  0
 20 39  1  0  0  0  0
 21 84  1  0  0  0  0
 22 85  1  0  0  0  0
 23 25  2  0  0  0  0
 23 84  1  0  0  0  0
 24 86  1  0  0  0  0
 25 87  1  0  0  0  0
 26 67  2  0  0  0  0
 27 29  2  0  0  0  0
 27 49  1  0  0  0  0
 27 69  1  0  0  0  0
 28 30  1  0  0  0  0
 28 50  1  0  0  0  0
 28 68  2  0  0  0  0
 29 62  1  0  0  0  0
 29 68  1  0  0  0  0
 30 65  1  0  0  0  0
 30 69  2  0  0  0  0
 31 70  1  0  0  0  0
 31 73  1  0  0  0  0
 32 74  1  0  0  0  0
 32 79  2  0  0  0  0
 33 47  1  0  0  0  0
 33 75  1  0  0  0  0
 33 80  2  0  0  0  0
 34 63  1  0  0  0  0
 34 71  1  0  0  0  0
 34 81  2  0  0  0  0
 35 64  1  0  0  0  0
 35 76  1  0  0  0  0
 35 82  2  0  0  0  0
 36 72  1  0  0  0  0
 36 77  1  0  0  0  0
 36 83  2  0  0  0  0
 37 40  1  0  0  0  0
 38 47  1  0  0  0  0
 39 71  1  0  0  0  0
 40 42  1  0  0  0  0
 41 43  1  0  0  0  0
 41 44  1  0  0  0  0
 42 46  1  0  0  0  0
 43 48  1  0  0  0  0
 44 72  1  0  0  0  0
 45 48  1  0  0  0  0
 45 72  1  0  0  0  0
 46 75  1  0  0  0  0
 47 71  1  0  0  0  0
 48 70  1  0  0  0  0
 51 62  1  0  0  0  0
 52 64  1  0  0  0  0
 53 65  1  0  0  0  0
 54 65  1  0  0  0  0
 55 66  1  0  0  0  0
 56 66  1  0  0  0  0
 57 66  1  0  0  0  0
 58 77  1  0  0  0  0
 59 78  1  0  0  0  0
 60 65  1  0  0  0  0
 60 77  1  0  0  0  0
 61 62  1  0  0  0  0
 61 85  1  0  0  0  0
 63 66  1  0  0  0  0
 63 76  1  0  0  0  0
 64 78  1  0  0  0  0
 67 70  1  0  0  0  0
M  CHG  1  78   1
M  ISO  4  36 100  61 101  77 100  85 101
M  END
> <Batch ID>
0065

> <Smiles>
CNC(C)C(=O)NC(C(=O)N1Cc2cc([101O:1][101CH2:1]C(C)c3nc(C)c(C(C)(C)C[100N:0](C)[100C:0](=O)N4CCCC(n5nc(-c6ccc(Oc7ccc(F)cc7F)cc6)c(C(N)=O)c5N)C4)nc3C)ccc2CC1C(=O)NC1CCCc2ccccc21)C(C)(C)C

> <Shape>
0.266

> <Color>
0.175

> <Negative vol penalty>
0.000

$$$$

  -OEChem-04052318073D

 86 94  0     1  0  0  0  0  0999 V2000
  -24.8641  -31.8418   21.0417 C   0  0  0  0  0  0  0  0  0  0  0  0
  -25.9770  -31.0224   21.2018 C   0  0  0  0  0  0  0  0  0  0  0  0
  -25.5880  -18.0766   17.9933 C   0  0  0  0  0  0  0  0  0  0  0  0
  -26.5158  -16.0512   17.0584 C   0  0  0  0  0  0  0  0  0  0  0  0
  -23.6084  -31.2757   20.8257 C   0  0  0  0  0  0  0  0  0  0  0  0
  -25.8346  -29.6364   21.1472 C   0  0  0  0  0  0  0  0  0  0  0  0
  -29.3501  -23.7393   19.1022 C   0  0  0  0  0  0  0  0  0  0  0  0
  -26.2638  -18.8294   17.0330 C   0  0  0  0  0  0  0  0  0  0  0  0
  -27.1916  -16.8040   16.0981 C   0  0  0  0  0  0  0  0  0  0  0  0
  -29.7404  -22.4937   19.5921 C   0  0  0  0  0  0  0  0  0  0  0  0
  -29.4467  -18.2185   13.6236 C   0  0  0  0  0  0  0  0  0  0  0  0
  -30.7820  -17.9022   13.3736 C   0  0  0  0  0  0  0  0  0  0  0  0
  -27.5352  -21.6295   19.1346 C   0  0  0  0  0  0  0  0  0  0  0  0
  -31.3262  -18.3776   15.6791 C   0  0  0  0  0  0  0  0  0  0  0  0
  -28.5100  -17.5071   21.9389 C   0  0  0  0  0  0  0  0  0  0  0  0
  -29.7242  -17.1589   19.9740 C   0  0  0  0  0  0  0  0  0  0  0  0
  -25.7140  -16.6874   18.0060 C   0  0  0  0  0  0  0  0  0  0  0  0
  -23.6256  -15.8456   19.2050 C   0  0  0  0  0  0  0  0  0  0  0  0
  -23.4521  -29.8822   20.7588 C   0  0  0  0  0  0  0  0  0  0  0  0
  -28.0440  -23.9426   18.6342 C   0  0  0  0  0  0  0  0  0  0  0  0
  -24.5754  -29.0511   20.9314 C   0  0  0  0  0  0  0  0  0  0  0  0
  -27.1315  -22.8779   18.6370 C   0  0  0  0  0  0  0  0  0  0  0  0
  -28.8244  -17.9422   20.6676 C   0  0  0  0  0  0  0  0  0  0  0  0
  -27.0656  -18.1931   16.0854 C   0  0  0  0  0  0  0  0  0  0  0  0
  -28.8321  -21.4394   19.6110 C   0  0  0  0  0  0  0  0  0  0  0  0
  -29.0512  -18.6145   14.9013 C   0  0  0  0  0  0  0  0  0  0  0  0
  -31.7218  -17.9817   14.4013 C   0  0  0  0  0  0  0  0  0  0  0  0
  -29.9909  -18.6939   15.9290 C   0  0  0  0  0  0  0  0  0  0  0  0
  -25.0166  -15.9093   18.9981 C   0  0  0  0  0  0  0  0  0  0  0  0
  -23.4743  -14.9745   20.2560 C   0  0  0  0  0  0  0  0  0  0  0  0
  -29.8935  -15.7165   21.7228 C   0  0  0  0  0  0  0  0  0  0  0  0
  -22.5651  -16.5141   18.5092 C   0  0  0  0  0  0  0  0  0  0  0  0
  -25.6209  -25.8140   19.4888 C   0  0  0  0  0  0  0  0  0  0  0  0
  -24.2520  -24.6067   16.8072 C   0  0  0  0  0  0  0  0  0  0  0  0
  -28.7344  -13.2485   20.8696 C   0  0  0  0  0  0  0  0  0  0  0  0
  -24.0970  -22.0786   14.5198 C   0  0  0  0  0  0  0  0  0  0  0  0
  -22.0672  -29.3153   20.5705 C   0  0  0  0  0  0  0  0  0  0  0  0
  -27.6465  -25.2850   18.0841 C   0  0  0  0  0  0  0  0  0  0  0  0
  -25.7235  -23.0388   18.1270 C   0  0  0  0  0  0  0  0  0  0  0  0
  -22.0617  -27.8471   20.1525 C   0  0  0  0  0  0  0  0  0  0  0  0
  -26.5499  -15.0636   23.2527 C   0  0  0  0  0  0  0  0  0  0  0  0
  -23.0256  -27.0420   21.0181 C   0  0  0  0  0  0  0  0  0  0  0  0
  -25.2242  -14.3323   23.0719 C   0  0  0  0  0  0  0  0  0  0  0  0
  -27.7337  -14.1317   23.0244 C   0  0  0  0  0  0  0  0  0  0  0  0
  -26.3827  -12.7662   21.4415 C   0  0  0  0  0  0  0  0  0  0  0  0
  -24.4653  -27.5437   20.8539 C   0  0  1  0  0  0  0  0  0  0  0  0
  -26.1391  -25.5186   18.1097 C   0  0  1  0  0  0  0  0  0  0  0  0
  -25.1291  -13.6202   21.7126 C   0  0  2  0  0  0  0  0  0  0  0  0
  -22.8530  -21.3560   12.4638 C   0  0  0  0  0  0  0  0  0  0  0  0
  -32.0685  -14.5827   22.3888 C   0  0  0  0  0  0  0  0  0  0  0  0
  -30.1182  -14.3053   23.8382 C   0  0  0  0  0  0  0  0  0  0  0  0
  -30.0074  -11.8947   22.4428 C   0  0  0  0  0  0  0  0  0  0  0  0
  -21.8633  -23.8162   18.5332 C   0  0  0  0  0  0  0  0  0  0  0  0
  -21.1175  -22.3014   16.6846 C   0  0  0  0  0  0  0  0  0  0  0  0
  -21.2665  -24.7609   16.2959 C   0  0  0  0  0  0  0  0  0  0  0  0
  -26.5639  -22.0826   12.8848 C   0  0  0  0  0  0  0  0  0  0  0  0
  -28.2285  -19.1872   20.0793 C   0  0  0  0  0  0  0  0  0  1  0  0
  -23.3921  -23.4062   16.4934 C   0  0  1  0  0  0  0  0  0  0  0  0
  -24.0690  -22.0938   13.0021 C   0  0  2  0  0  0  0  0  0  0  0  0
  -30.4902  -14.4823   22.3093 C   0  0  0  0  0  0  0  0  0  0  0  0
  -30.0939  -13.1248   21.5103 C   0  0  2  0  0  0  0  0  0  0  0  0
  -21.9357  -23.5683   17.0133 C   0  0  0  0  0  0  0  0  0  0  0  0
  -31.0725  -12.7593   20.3742 C   0  0  0  0  0  0  0  0  0  0  0  0
  -29.0278  -16.3947   22.4999 N   0  0  0  0  0  0  0  0  0  0  0  0
  -30.2806  -16.0355   20.4730 N   0  0  0  0  0  0  0  0  0  0  0  0
  -25.7003  -15.1400   19.8495 N   0  0  0  0  0  0  0  0  0  0  0  0
  -24.7348  -14.5848   20.6016 N   0  0  0  0  0  0  0  0  0  0  0  0
  -25.3808  -24.3721   17.6051 N   0  0  0  0  0  0  0  0  0  0  0  0
  -27.6498  -13.4463   21.7301 N   0  0  0  0  0  0  0  0  0  0  0  0
  -22.3873  -14.5115   20.9091 N   0  0  0  0  0  0  0  0  0  0  0  0
  -21.9963  -15.8839   17.3939 N   0  0  0  0  0  0  0  0  0  0  0  0
  -25.0316  -27.0576   19.6139 N   0  0  0  0  0  0  0  0  0  0  0  0
  -23.4926  -23.1974   15.0530 N   0  0  0  0  0  0  0  0  0  0  0  0
  -25.2934  -21.4439   12.4549 N   0  3  0  0  0  0  0  0  0  0  0  0
  -22.1456  -17.6442   18.8561 O   0  0  0  0  0  0  0  0  0  0  0  0
  -25.7450  -24.9751   20.3734 O   0  0  0  0  0  0  0  0  0  0  0  0
  -23.9378  -25.7105   16.3549 O   0  0  0  0  0  0  0  0  0  0  0  0
  -28.6396  -13.1806   19.6413 O   0  0  0  0  0  0  0  0  0  0  0  0
  -24.6012  -21.1639   15.1677 O   0  0  0  0  0  0  0  0  0  0  0  0
  -27.7250  -18.9274   15.1481 O   0  0  0  0  0  0  0  0  0  0  0  0
  -29.2103  -20.2228   20.0893 O   0  0  0  0  0  0  0  0  0  1  0  0
  -33.0038  -17.6765   14.1615 F   0  0  0  0  0  0  0  0  0  0  0  0
  -29.6166  -19.0725   17.1588 F   0  0  0  0  0  0  0  0  0  0  0  0
  -31.1172  -13.6902   19.3996 F   0  0  0  0  0  0  0  0  0  0  0  0
  -30.7127  -11.5925   19.7832 F   0  0  0  0  0  0  0  0  0  0  0  0
  -32.3325  -12.5852   20.8310 F   0  0  0  0  0  0  0  0  0  0  0  0
  1  2  1  0  0  0  0
  1  5  2  0  0  0  0
  2  6  2  0  0  0  0
  3  8  2  0  0  0  0
  3 17  1  0  0  0  0
  4  9  1  0  0  0  0
  4 17  2  0  0  0  0
  5 19  1  0  0  0  0
  6 21  1  0  0  0  0
  7 10  2  0  0  0  0
  7 20  1  0  0  0  0
  8 24  1  0  0  0  0
  9 24  2  0  0  0  0
 10 25  1  0  0  0  0
 11 12  2  0  0  0  0
 11 26  1  0  0  0  0
 12 27  1  0  0  0  0
 13 22  1  0  0  0  0
 13 25  2  0  0  0  0
 14 27  2  0  0  0  0
 14 28  1  0  0  0  0
 15 23  1  0  0  0  0
 15 64  2  0  0  0  0
 16 23  2  0  0  0  0
 16 65  1  0  0  0  0
 17 29  1  0  0  0  0
 18 29  1  0  0  0  0
 18 30  2  0  0  0  0
 18 32  1  0  0  0  0
 19 21  2  0  0  0  0
 19 37  1  0  0  0  0
 20 22  2  0  0  0  0
 20 38  1  0  0  0  0
 21 46  1  0  0  0  0
 22 39  1  0  0  0  0
 23 57  1  0  0  0  0
 24 80  1  0  0  0  0
 25 81  1  0  0  0  0
 26 28  2  0  0  0  0
 26 80  1  0  0  0  0
 27 82  1  0  0  0  0
 28 83  1  0  0  0  0
 29 66  2  0  0  0  0
 30 67  1  0  0  0  0
 30 70  1  0  0  0  0
 31 60  1  0  0  0  0
 31 64  1  0  0  0  0
 31 65  2  0  0  0  0
 32 71  1  0  0  0  0
 32 75  2  0  0  0  0
 33 47  1  0  0  0  0
 33 72  1  0  0  0  0
 33 76  2  0  0  0  0
 34 58  1  0  0  0  0
 34 68  1  0  0  0  0
 34 77  2  0  0  0  0
 35 61  1  0  0  0  0
 35 69  1  0  0  0  0
 35 78  2  0  0  0  0
 36 59  1  0  0  0  0
 36 73  1  0  0  0  0
 36 79  2  0  0  0  0
 37 40  1  0  0  0  0
 38 47  1  0  0  0  0
 39 68  1  0  0  0  0
 40 42  1  0  0  0  0
 41 43  1  0  0  0  0
 41 44  1  0  0  0  0
 42 46  1  0  0  0  0
 43 48  1  0  0  0  0
 44 69  1  0  0  0  0
 45 48  1  0  0  0  0
 45 69  1  0  0  0  0
 46 72  1  0  0  0  0
 47 68  1  0  0  0  0
 48 67  1  0  0  0  0
 49 59  1  0  0  0  0
 50 60  1  0  0  0  0
 51 60  1  0  0  0  0
 52 61  1  0  0  0  0
 53 62  1  0  0  0  0
 54 62  1  0  0  0  0
 55 62  1  0  0  0  0
 56 74  1  0  0  0  0
 57 81  1  0  0  0  0
 58 62  1  0  0  0  0
 58 73  1  0  0  0  0
 59 74  1  0  0  0  0
 60 61  1  0  0  0  0
 61 63  1  0  0  0  0
 63 84  1  0  0  0  0
 63 85  1  0  0  0  0
 63 86  1  0  0  0  0
 66 67  1  0  0  0  0
M  CHG  1  74   1
M  ISO  4  35 100  57 101  61 100  81 101
M  END
> <Batch ID>
0065

> <Smiles>
CNC(C)C(=O)NC(C(=O)N1Cc2cc([101O:1][101CH2:1]c3cnc(C(C)(C)[100C:0](C)([100C:0](=O)N4CCCC(n5nc(-c6ccc(Oc7ccc(F)cc7F)cc6)c(C(N)=O)c5N)C4)C(F)(F)F)nc3)ccc2CC1C(=O)NC1CCCc2ccccc21)C(C)(C)C

> <Shape>
0.194

> <Color>
0.066

> <Negative vol penalty>
0.000

$$$$

  -OEChem-04052318073D

 88 96  0     1  0  0  0  0  0999 V2000
  -30.4573  -12.3155   19.6777 C   0  0  0  0  0  0  0  0  0  0  0  0
  -30.1536  -13.6727   19.6450 C   0  0  0  0  0  0  0  0  0  0  0  0
  -30.2838  -26.9056   19.0029 C   0  0  0  0  0  0  0  0  0  0  0  0
  -29.7306  -25.5443   20.9207 C   0  0  0  0  0  0  0  0  0  0  0  0
  -29.4321  -11.3716   19.6314 C   0  0  0  0  0  0  0  0  0  0  0  0
  -28.8245  -14.0869   19.5649 C   0  0  0  0  0  0  0  0  0  0  0  0
  -26.3571  -19.0628   22.1453 C   0  0  0  0  0  0  0  0  0  0  0  0
  -31.6354  -26.6133   19.1853 C   0  0  0  0  0  0  0  0  0  0  0  0
  -31.0823  -25.2520   21.1031 C   0  0  0  0  0  0  0  0  0  0  0  0
  -26.0614  -20.3301   21.6450 C   0  0  0  0  0  0  0  0  0  0  0  0
  -33.3886  -23.1899   19.7432 C   0  0  0  0  0  0  0  0  0  0  0  0
  -33.7342  -21.8635   20.0015 C   0  0  0  0  0  0  0  0  0  0  0  0
  -23.7871  -19.6339   21.2426 C   0  0  0  0  0  0  0  0  0  0  0  0
  -34.6981  -22.5262   22.1154 C   0  0  0  0  0  0  0  0  0  0  0  0
  -20.3531  -29.0561   20.7512 C   0  0  0  0  0  0  0  0  0  0  0  0
  -29.3314  -26.3711   19.8707 C   0  0  0  0  0  0  0  0  0  0  0  0
  -27.0069  -25.9547   18.9057 C   0  0  0  0  0  0  0  0  0  0  0  0
  -28.0893  -11.7746   19.5604 C   0  0  0  0  0  0  0  0  0  0  0  0
  -25.3712  -18.0666   22.1880 C   0  0  0  0  0  0  0  0  0  0  0  0
  -27.7805  -13.1476   19.5162 C   0  0  0  0  0  0  0  0  0  0  0  0
  -24.0721  -18.3556   21.7463 C   0  0  0  0  0  0  0  0  0  0  0  0
  -32.0347  -25.7865   20.2354 C   0  0  0  0  0  0  0  0  0  0  0  0
  -24.7770  -20.6150   21.1908 C   0  0  0  0  0  0  0  0  0  0  0  0
  -33.6979  -24.1846   20.6710 C   0  0  0  0  0  0  0  0  0  0  0  0
  -34.3889  -21.5316   21.1876 C   0  0  0  0  0  0  0  0  0  0  0  0
  -34.3526  -23.8527   21.8571 C   0  0  0  0  0  0  0  0  0  0  0  0
  -27.9351  -26.6731   19.6831 C   0  0  0  0  0  0  0  0  0  0  0  0
  -20.4027  -28.0345   21.6571 C   0  0  0  0  0  0  0  0  0  0  0  0
  -25.8279  -26.6432   19.0554 C   0  0  0  0  0  0  0  0  0  0  0  0
  -20.4672  -29.9434   22.7762 C   0  0  0  0  0  0  0  0  0  0  0  0
  -27.1938  -24.7709   18.1187 C   0  0  0  0  0  0  0  0  0  0  0  0
  -25.0171  -15.2026   20.8554 C   0  0  0  0  0  0  0  0  0  0  0  0
  -22.3948  -15.0713   22.7603 C   0  0  0  0  0  0  0  0  0  0  0  0
  -19.9984  -16.7562   24.5112 C   0  0  0  0  0  0  0  0  0  0  0  0
  -23.6722  -30.0070   23.2561 C   0  0  0  0  0  0  0  0  0  0  0  0
  -27.0182  -10.7171   19.4648 C   0  0  0  0  0  0  0  0  0  0  0  0
  -25.6992  -16.7127   22.7554 C   0  0  0  0  0  0  0  0  0  0  0  0
  -22.9726  -17.3272   21.7895 C   0  0  0  0  0  0  0  0  0  0  0  0
  -25.6154  -11.2427   19.7584 C   0  0  0  0  0  0  0  0  0  0  0  0
  -24.1194  -31.0220   19.9032 C   0  0  0  0  0  0  0  0  0  0  0  0
  -25.3664  -12.5475   19.0085 C   0  0  0  0  0  0  0  0  0  0  0  0
  -25.0744  -29.9469   19.3864 C   0  0  0  0  0  0  0  0  0  0  0  0
  -24.4621  -31.4576   21.3291 C   0  0  0  0  0  0  0  0  0  0  0  0
  -25.5105  -29.2609   21.7741 C   0  0  0  0  0  0  0  0  0  0  0  0
  -26.3497  -13.6364   19.4546 C   0  0  1  0  0  0  0  0  0  0  0  0
  -24.7517  -15.6179   22.2748 C   0  0  1  0  0  0  0  0  0  0  0  0
  -25.1516  -28.7628   20.3656 C   0  0  2  0  0  0  0  0  0  0  0  0
  -19.1940  -27.3441   24.5858 C   0  0  0  0  0  0  0  0  0  0  0  0
  -17.9679  -16.3774   25.9362 C   0  0  0  0  0  0  0  0  0  0  0  0
  -19.3597  -30.8790   24.9197 C   0  0  0  0  0  0  0  0  0  0  0  0
  -20.4613  -32.3983   23.2967 C   0  0  0  0  0  0  0  0  0  0  0  0
  -20.7682  -14.4146   20.2638 C   0  0  0  0  0  0  0  0  0  0  0  0
  -18.6962  -14.9831   21.5491 C   0  0  0  0  0  0  0  0  0  0  0  0
  -20.1441  -13.0929   22.2931 C   0  0  0  0  0  0  0  0  0  0  0  0
  -23.6422  -32.4224   24.0106 C   0  0  0  0  0  0  0  0  0  0  0  0
  -21.2423  -18.0904   26.8417 C   0  0  0  0  0  0  0  0  0  0  0  0
  -20.3895  -26.5410   21.4482 C   0  0  0  0  0  0  0  0  0  0  0  0
  -21.7840  -25.9262   21.2834 C   0  0  0  0  0  0  0  0  0  0  0  0
  -21.7544  -24.4004   21.1494 C   0  0  0  0  0  0  0  0  0  0  0  0
  -23.1603  -23.8345   20.9570 C   0  0  0  0  0  0  0  0  0  0  0  0
  -20.5439  -27.8974   24.1625 C   0  0  0  0  0  0  0  0  0  0  0  0
  -21.8645  -30.8574   24.7008 C   0  0  0  0  0  0  0  0  0  0  0  0
  -23.1465  -22.3153   20.8649 C   0  0  0  0  0  0  0  0  0  1  0  0
  -20.9459  -15.4691   22.6138 C   0  0  1  0  0  0  0  0  0  0  0  0
  -19.4748  -16.5821   25.9254 C   0  0  2  0  0  0  0  0  0  0  0  0
  -20.5293  -30.9427   23.8716 C   0  0  0  0  0  0  0  0  0  0  0  0
  -20.1596  -14.5089   21.6772 C   0  0  0  0  0  0  0  0  0  0  0  0
  -27.3925  -27.7365   20.2821 N   0  0  0  0  0  0  0  0  0  0  0  0
  -20.4734  -28.6123   22.9018 N   0  0  0  0  0  0  0  0  0  0  0  0
  -26.1106  -27.6915   19.8809 N   0  0  0  0  0  0  0  0  0  0  0  0
  -20.3942  -30.2256   21.4714 N   0  3  0  0  0  0  0  0  0  0  0  0
  -23.3445  -16.0164   22.3471 N   0  0  0  0  0  0  0  0  0  0  0  0
  -24.5727  -30.2943   22.2198 N   0  0  0  0  0  0  0  0  0  0  0  0
  -24.5874  -26.4482   18.5600 N   0  0  0  0  0  0  0  0  0  0  0  0
  -28.4695  -24.1922   18.0750 N   0  0  0  0  0  0  0  0  0  0  0  0
  -25.9476  -14.1887   20.7304 N   0  0  0  0  0  0  0  0  0  0  0  0
  -20.4079  -15.5573   23.9670 N   0  0  0  0  0  0  0  0  0  0  0  0
  -23.0449  -31.0947   23.8818 N   0  0  0  0  0  0  0  0  0  0  0  0
  -19.7916  -17.7846   26.7467 N   0  3  0  0  0  0  0  0  0  0  0  0
  -26.2610  -24.2513   17.4603 O   0  0  0  0  0  0  0  0  0  0  0  0
  -24.4206  -15.7597   19.9413 O   0  0  0  0  0  0  0  0  0  0  0  0
  -22.6738  -13.9657   23.2310 O   0  0  0  0  0  0  0  0  0  0  0  0
  -20.0367  -17.8461   23.9444 O   0  0  0  0  0  0  0  0  0  0  0  0
  -23.4460  -28.8425   23.6096 O   0  0  0  0  0  0  0  0  0  0  0  0
  -33.3535  -25.5009   20.4135 O   0  0  0  0  0  0  0  0  0  0  0  0
  -24.4859  -21.8509   20.7014 O   0  0  0  0  0  0  0  0  0  1  0  0
  -34.7192  -20.2575   21.4361 F   0  0  0  0  0  0  0  0  0  0  0  0
  -34.6513  -24.8036   22.7528 F   0  0  0  0  0  0  0  0  0  0  0  0
  1  2  1  0  0  0  0
  1  5  2  0  0  0  0
  2  6  2  0  0  0  0
  3  8  2  0  0  0  0
  3 16  1  0  0  0  0
  4  9  1  0  0  0  0
  4 16  2  0  0  0  0
  5 18  1  0  0  0  0
  6 20  1  0  0  0  0
  7 10  2  0  0  0  0
  7 19  1  0  0  0  0
  8 22  1  0  0  0  0
  9 22  2  0  0  0  0
 10 23  1  0  0  0  0
 11 12  2  0  0  0  0
 11 24  1  0  0  0  0
 12 25  1  0  0  0  0
 13 21  1  0  0  0  0
 13 23  2  0  0  0  0
 14 25  2  0  0  0  0
 14 26  1  0  0  0  0
 15 28  2  0  0  0  0
 15 71  1  0  0  0  0
 16 27  1  0  0  0  0
 17 27  1  0  0  0  0
 17 29  2  0  0  0  0
 17 31  1  0  0  0  0
 18 20  2  0  0  0  0
 18 36  1  0  0  0  0
 19 21  2  0  0  0  0
 19 37  1  0  0  0  0
 20 45  1  0  0  0  0
 21 38  1  0  0  0  0
 22 85  1  0  0  0  0
 23 86  1  0  0  0  0
 24 26  2  0  0  0  0
 24 85  1  0  0  0  0
 25 87  1  0  0  0  0
 26 88  1  0  0  0  0
 27 68  2  0  0  0  0
 28 57  1  0  0  0  0
 28 69  1  0  0  0  0
 29 70  1  0  0  0  0
 29 74  1  0  0  0  0
 30 66  1  0  0  0  0
 30 69  1  0  0  0  0
 30 71  2  0  0  0  0
 31 75  1  0  0  0  0
 31 80  2  0  0  0  0
 32 46  1  0  0  0  0
 32 76  1  0  0  0  0
 32 81  2  0  0  0  0
 33 64  1  0  0  0  0
 33 72  1  0  0  0  0
 33 82  2  0  0  0  0
 34 65  1  0  0  0  0
 34 77  1  0  0  0  0
 34 83  2  0  0  0  0
 35 73  1  0  0  0  0
 35 78  1  0  0  0  0
 35 84  2  0  0  0  0
 36 39  1  0  0  0  0
 37 46  1  0  0  0  0
 38 72  1  0  0  0  0
 39 41  1  0  0  0  0
 40 42  1  0  0  0  0
 40 43  1  0  0  0  0
 41 45  1  0  0  0  0
 42 47  1  0  0  0  0
 43 73  1  0  0  0  0
 44 47  1  0  0  0  0
 44 73  1  0  0  0  0
 45 76  1  0  0  0  0
 46 72  1  0  0  0  0
 47 70  1  0  0  0  0
 48 61  1  0  0  0  0
 49 65  1  0  0  0  0
 50 66  1  0  0  0  0
 51 66  1  0  0  0  0
 52 67  1  0  0  0  0
 53 67  1  0  0  0  0
 54 67  1  0  0  0  0
 55 78  1  0  0  0  0
 56 79  1  0  0  0  0
 57 58  1  0  0  0  0
 58 59  1  0  0  0  0
 59 60  1  0  0  0  0
 60 63  1  0  0  0  0
 61 69  1  0  0  0  0
 62 66  1  0  0  0  0
 62 78  1  0  0  0  0
 63 86  1  0  0  0  0
 64 67  1  0  0  0  0
 64 77  1  0  0  0  0
 65 79  1  0  0  0  0
 68 70  1  0  0  0  0
M  CHG  2  71   1  79   1
M  ISO  4  35 100  63 101  78 100  86 101
M  END
> <Batch ID>
0065

> <Smiles>
CCn1c(CCCC[101CH2:1][101O:1]c2ccc3c(c2)CN(C(=O)C(NC(=O)C(C)NC)C(C)(C)C)C(C(=O)NC2CCCc4ccccc42)C3)cnc1C(C)(C)C[100N:0](C)[100C:0](=O)N1CCCC(n2nc(-c3ccc(Oc4ccc(F)cc4F)cc3)c(C(N)=O)c2N)C1

> <Shape>
0.215

> <Color>
0.068

> <Negative vol penalty>
0.000

$$$$

  -OEChem-04052318073D

 79 87  0     1  0  0  0  0  0999 V2000
  -30.0303  -19.5737   26.3740 C   0  0  0  0  0  0  0  0  0  0  0  0
  -29.8570  -20.7861   25.7160 C   0  0  0  0  0  0  0  0  0  0  0  0
  -24.7826  -13.9240   21.3455 C   0  0  0  0  0  0  0  0  0  0  0  0
  -26.5040  -12.4102   20.5826 C   0  0  0  0  0  0  0  0  0  0  0  0
  -28.9963  -18.6400   26.3905 C   0  0  0  0  0  0  0  0  0  0  0  0
  -28.6456  -21.0701   25.0844 C   0  0  0  0  0  0  0  0  0  0  0  0
  -28.0766  -25.6113   23.2798 C   0  0  0  0  0  0  0  0  0  0  0  0
  -23.8054  -13.0031   20.9679 C   0  0  0  0  0  0  0  0  0  0  0  0
  -25.5268  -11.4893   20.2050 C   0  0  0  0  0  0  0  0  0  0  0  0
  -28.7502  -26.0614   22.1452 C   0  0  0  0  0  0  0  0  0  0  0  0
  -23.4999   -8.5885   19.3712 C   0  0  0  0  0  0  0  0  0  0  0  0
  -23.7015   -7.2512   19.7125 C   0  0  0  0  0  0  0  0  0  0  0  0
  -26.7320  -25.7986   20.8502 C   0  0  0  0  0  0  0  0  0  0  0  0
  -23.7537   -7.8560   22.0510 C   0  0  0  0  0  0  0  0  0  0  0  0
  -26.1319  -13.6276   21.1528 C   0  0  0  0  0  0  0  0  0  0  0  0
  -27.7814  -14.6756   22.7925 C   0  0  0  0  0  0  0  0  0  0  0  0
  -27.7764  -18.9083   25.7480 C   0  0  0  0  0  0  0  0  0  0  0  0
  -26.7262  -25.2406   23.2057 C   0  0  0  0  0  0  0  0  0  0  0  0
  -27.5816  -20.1504   25.1103 C   0  0  0  0  0  0  0  0  0  0  0  0
  -26.0428  -25.3466   21.9859 C   0  0  0  0  0  0  0  0  0  0  0  0
  -24.1775  -11.7857   20.3976 C   0  0  0  0  0  0  0  0  0  0  0  0
  -28.0787  -26.1523   20.9295 C   0  0  0  0  0  0  0  0  0  0  0  0
  -23.4252   -9.5596   20.3697 C   0  0  0  0  0  0  0  0  0  0  0  0
  -23.8284   -6.8849   21.0524 C   0  0  0  0  0  0  0  0  0  0  0  0
  -23.5521   -9.1933   21.7096 C   0  0  0  0  0  0  0  0  0  0  0  0
  -27.1418  -14.5787   21.5422 C   0  0  0  0  0  0  0  0  0  0  0  0
  -28.6491  -15.7311   22.6535 C   0  0  0  0  0  0  0  0  0  0  0  0
  -29.5465  -21.9318   19.4241 C   0  0  0  0  0  0  0  0  0  0  0  0
  -27.6068  -13.8823   23.9740 C   0  0  0  0  0  0  0  0  0  0  0  0
  -28.8383  -20.8588   20.1328 C   0  0  0  0  0  0  0  0  0  0  0  0
  -25.1090  -22.5485   23.6967 C   0  0  0  0  0  0  0  0  0  0  0  0
  -22.5357  -24.4684   23.2337 C   0  0  0  0  0  0  0  0  0  0  0  0
  -21.2624  -27.3301   21.8786 C   0  0  0  0  0  0  0  0  0  0  0  0
  -26.6883  -17.8652   25.8037 C   0  0  0  0  0  0  0  0  0  0  0  0
  -26.0068  -24.7825   24.4446 C   0  0  0  0  0  0  0  0  0  0  0  0
  -24.5876  -24.9802   21.8578 C   0  0  0  0  0  0  0  0  0  0  0  0
  -25.6148  -18.0686   24.7395 C   0  0  0  0  0  0  0  0  0  0  0  0
  -30.7357  -18.0555   18.8258 C   0  0  0  0  0  0  0  0  0  0  0  0
  -25.1387  -19.5135   24.7509 C   0  0  0  0  0  0  0  0  0  0  0  0
  -30.0425  -16.8752   19.5076 C   0  0  0  0  0  0  0  0  0  0  0  0
  -29.7394  -19.1540   18.4677 C   0  0  0  0  0  0  0  0  0  0  0  0
  -28.2385  -18.4669   20.3085 C   0  0  0  0  0  0  0  0  0  0  0  0
  -26.2835  -20.4686   24.3904 C   0  0  1  0  0  0  0  0  0  0  0  0
  -24.7695  -23.9431   24.1412 C   0  0  1  0  0  0  0  0  0  0  0  0
  -29.2062  -17.3413   20.7135 C   0  0  1  0  0  0  0  0  0  0  0  0
  -19.1174  -28.6096   21.6349 C   0  0  0  0  0  0  0  0  0  0  0  0
  -30.2798  -24.7749   16.1666 C   0  0  0  0  0  0  0  0  0  0  0  0
  -21.6018  -22.4926   21.1044 C   0  0  0  0  0  0  0  0  0  0  0  0
  -20.0314  -24.2507   20.2613 C   0  0  0  0  0  0  0  0  0  0  0  0
  -19.7848  -23.3700   22.5821 C   0  0  0  0  0  0  0  0  0  0  0  0
  -22.3596  -29.6706   23.3198 C   0  0  0  0  0  0  0  0  0  0  0  0
  -30.5400  -26.1159   18.2884 C   0  0  0  0  0  0  0  0  0  0  0  0
  -30.1339  -26.3245   19.7453 C   0  0  0  0  0  0  0  0  0  1  0  0
  -21.7238  -24.8976   22.0355 C   0  0  1  0  0  0  0  0  0  0  0  0
  -20.3769  -28.4149   22.4647 C   0  0  2  0  0  0  0  0  0  0  0  0
  -29.8094  -24.9370   17.6170 C   0  0  2  0  0  0  0  0  0  0  0  0
  -20.8134  -23.7579   21.4975 C   0  0  0  0  0  0  0  0  0  0  0  0
  -27.5668  -15.4994   20.6729 N   0  0  0  0  0  0  0  0  0  0  0  0
  -30.9003  -21.9623   19.2662 N   0  0  0  0  0  0  0  0  0  0  0  0
  -28.9104  -22.9698   18.8752 N   0  0  0  0  0  0  0  0  0  0  0  0
  -31.1640  -23.0695   18.5833 N   0  0  0  0  0  0  0  0  0  0  0  0
  -28.4828  -16.1849   21.3781 N   0  0  0  0  0  0  0  0  0  0  0  0
  -29.9645  -23.6299   18.3751 N   0  0  0  0  0  0  0  0  0  0  0  0
  -28.9626  -19.5546   19.6477 N   0  0  0  0  0  0  0  0  0  0  0  0
  -23.9295  -24.5317   23.0961 N   0  0  0  0  0  0  0  0  0  0  0  0
  -29.5305  -16.3062   23.4990 N   0  0  0  0  0  0  0  0  0  0  0  0
  -26.6737  -12.8369   23.9450 N   0  0  0  0  0  0  0  0  0  0  0  0
  -25.8508  -21.8303   24.6150 N   0  0  0  0  0  0  0  0  0  0  0  0
  -21.0013  -26.0985   22.4409 N   0  0  0  0  0  0  0  0  0  0  0  0
  -21.1108  -29.7110   22.5161 N   0  3  0  0  0  0  0  0  0  0  0  0
  -28.2471  -14.1045   25.0295 O   0  0  0  0  0  0  0  0  0  0  0  0
  -28.1886  -21.1980   21.1207 O   0  0  0  0  0  0  0  0  0  0  0  0
  -24.7250  -22.1529   22.6023 O   0  0  0  0  0  0  0  0  0  0  0  0
  -21.9545  -24.0976   24.2566 O   0  0  0  0  0  0  0  0  0  0  0  0
  -22.0992  -27.5523   21.0063 O   0  0  0  0  0  0  0  0  0  0  0  0
  -23.2242  -10.8868   20.0292 O   0  0  0  0  0  0  0  0  0  0  0  0
  -28.7340  -26.5906   19.8203 O   0  0  0  0  0  0  0  0  0  1  0  0
  -24.0205   -5.6005   21.3802 F   0  0  0  0  0  0  0  0  0  0  0  0
  -23.4800  -10.1216   22.6734 F   0  0  0  0  0  0  0  0  0  0  0  0
  1  2  1  0  0  0  0
  1  5  2  0  0  0  0
  2  6  2  0  0  0  0
  3  8  2  0  0  0  0
  3 15  1  0  0  0  0
  4  9  1  0  0  0  0
  4 15  2  0  0  0  0
  5 17  1  0  0  0  0
  6 19  1  0  0  0  0
  7 10  2  0  0  0  0
  7 18  1  0  0  0  0
  8 21  1  0  0  0  0
  9 21  2  0  0  0  0
 10 22  1  0  0  0  0
 11 12  2  0  0  0  0
 11 23  1  0  0  0  0
 12 24  1  0  0  0  0
 13 20  1  0  0  0  0
 13 22  2  0  0  0  0
 14 24  2  0  0  0  0
 14 25  1  0  0  0  0
 15 26  1  0  0  0  0
 16 26  1  0  0  0  0
 16 27  2  0  0  0  0
 16 29  1  0  0  0  0
 17 19  2  0  0  0  0
 17 34  1  0  0  0  0
 18 20  2  0  0  0  0
 18 35  1  0  0  0  0
 19 43  1  0  0  0  0
 20 36  1  0  0  0  0
 21 76  1  0  0  0  0
 22 77  1  0  0  0  0
 23 25  2  0  0  0  0
 23 76  1  0  0  0  0
 24 78  1  0  0  0  0
 25 79  1  0  0  0  0
 26 58  2  0  0  0  0
 27 62  1  0  0  0  0
 27 66  1  0  0  0  0
 28 30  1  0  0  0  0
 28 59  1  0  0  0  0
 28 60  2  0  0  0  0
 29 67  1  0  0  0  0
 29 71  2  0  0  0  0
 30 64  1  0  0  0  0
 30 72  2  0  0  0  0
 31 44  1  0  0  0  0
 31 68  1  0  0  0  0
 31 73  2  0  0  0  0
 32 54  1  0  0  0  0
 32 65  1  0  0  0  0
 32 74  2  0  0  0  0
 33 55  1  0  0  0  0
 33 69  1  0  0  0  0
 33 75  2  0  0  0  0
 34 37  1  0  0  0  0
 35 44  1  0  0  0  0
 36 65  1  0  0  0  0
 37 39  1  0  0  0  0
 38 40  1  0  0  0  0
 38 41  1  0  0  0  0
 39 43  1  0  0  0  0
 40 45  1  0  0  0  0
 41 64  1  0  0  0  0
 42 45  1  0  0  0  0
 42 64  1  0  0  0  0
 43 68  1  0  0  0  0
 44 65  1  0  0  0  0
 45 62  1  0  0  0  0
 46 55  1  0  0  0  0
 47 56  1  0  0  0  0
 48 57  1  0  0  0  0
 49 57  1  0  0  0  0
 50 57  1  0  0  0  0
 51 70  1  0  0  0  0
 52 53  1  0  0  0  0
 52 56  1  0  0  0  0
 53 77  1  0  0  0  0
 54 57  1  0  0  0  0
 54 69  1  0  0  0  0
 55 70  1  0  0  0  0
 56 63  1  0  0  0  0
 58 62  1  0  0  0  0
 59 61  2  0  0  0  0
 60 63  1  0  0  0  0
 61 63  1  0  0  0  0
M  CHG  1  70   1
M  ISO  4  28 100  30 100  53 101  77 101
M  END
> <Batch ID>
0065

> <Smiles>
CNC(C)C(=O)NC(C(=O)N1Cc2cc([101O:1][101CH2:1]CC(C)n3nn[100c:0]([100C:0](=O)N4CCCC(n5nc(-c6ccc(Oc7ccc(F)cc7F)cc6)c(C(N)=O)c5N)C4)n3)ccc2CC1C(=O)NC1CCCc2ccccc21)C(C)(C)C

> <Shape>
0.211

> <Color>
0.074

> <Negative vol penalty>
0.000

$$$$

  -OEChem-04052318073D

 96104  0     1  0  0  0  0  0999 V2000
  -27.1505  -31.6983   23.2418 C   0  0  0  0  0  0  0  0  0  0  0  0
  -27.6837  -30.4134   23.2580 C   0  0  0  0  0  0  0  0  0  0  0  0
  -19.8950  -18.9533   15.2010 C   0  0  0  0  0  0  0  0  0  0  0  0
  -20.9860  -20.2693   16.9083 C   0  0  0  0  0  0  0  0  0  0  0  0
  -26.0064  -31.9677   22.4919 C   0  0  0  0  0  0  0  0  0  0  0  0
  -27.0723  -29.3968   22.5250 C   0  0  0  0  0  0  0  0  0  0  0  0
  -29.8412  -24.7362   19.6758 C   0  0  0  0  0  0  0  0  0  0  0  0
  -18.7217  -19.6841   15.3874 C   0  0  0  0  0  0  0  0  0  0  0  0
  -19.8126  -21.0002   17.0947 C   0  0  0  0  0  0  0  0  0  0  0  0
  -30.0507  -23.4064   20.0385 C   0  0  0  0  0  0  0  0  0  0  0  0
  -16.8482  -20.5942   18.6690 C   0  0  0  0  0  0  0  0  0  0  0  0
  -16.4367  -20.8362   19.9796 C   0  0  0  0  0  0  0  0  0  0  0  0
  -28.0875  -22.7637   18.7926 C   0  0  0  0  0  0  0  0  0  0  0  0
  -16.5847  -23.2155   19.5868 C   0  0  0  0  0  0  0  0  0  0  0  0
  -28.0995  -18.2096   21.0067 C   0  0  0  0  0  0  0  0  0  0  0  0
  -21.0272  -19.2458   15.9615 C   0  0  0  0  0  0  0  0  0  0  0  0
  -23.2886  -18.7798   14.8768 C   0  0  0  0  0  0  0  0  0  0  0  0
  -25.3863  -30.9561   21.7417 C   0  0  0  0  0  0  0  0  0  0  0  0
  -28.7453  -25.0918   18.8765 C   0  0  0  0  0  0  0  0  0  0  0  0
  -25.9181  -29.6526   21.7654 C   0  0  0  0  0  0  0  0  0  0  0  0
  -27.8678  -24.0984   18.4191 C   0  0  0  0  0  0  0  0  0  0  0  0
  -28.8093  -18.8055   19.9842 C   0  0  0  0  0  0  0  0  0  0  0  0
  -18.6804  -20.7075   16.3342 C   0  0  0  0  0  0  0  0  0  0  0  0
  -29.1721  -22.4203   19.5992 C   0  0  0  0  0  0  0  0  0  0  0  0
  -17.1281  -21.6629   17.8173 C   0  0  0  0  0  0  0  0  0  0  0  0
  -16.3049  -22.1468   20.4385 C   0  0  0  0  0  0  0  0  0  0  0  0
  -16.9963  -22.9735   18.2762 C   0  0  0  0  0  0  0  0  0  0  0  0
  -22.2393  -18.4909   15.7698 C   0  0  0  0  0  0  0  0  0  0  0  0
  -29.8669  -18.0727   19.4857 C   0  0  0  0  0  0  0  0  0  0  0  0
  -24.1973  -17.7694   15.0763 C   0  0  0  0  0  0  0  0  0  0  0  0
  -29.4446  -16.3784   20.9411 C   0  0  0  0  0  0  0  0  0  0  0  0
  -23.4293  -19.8647   13.9500 C   0  0  0  0  0  0  0  0  0  0  0  0
  -26.1924  -26.9452   19.2659 C   0  0  0  0  0  0  0  0  0  0  0  0
  -25.7090  -26.2725   16.1297 C   0  0  0  0  0  0  0  0  0  0  0  0
  -25.2130  -14.3248   19.8069 C   0  0  0  0  0  0  0  0  0  0  0  0
  -26.2473  -24.1611   13.5030 C   0  0  0  0  0  0  0  0  0  0  0  0
  -24.1242  -31.2843   20.9841 C   0  0  0  0  0  0  0  0  0  0  0  0
  -28.5484  -26.5271   18.4719 C   0  0  0  0  0  0  0  0  0  0  0  0
  -26.6876  -24.4252   17.5422 C   0  0  0  0  0  0  0  0  0  0  0  0
  -23.7530  -30.2378   19.9365 C   0  0  0  0  0  0  0  0  0  0  0  0
  -24.4871  -13.1960   16.4267 C   0  0  0  0  0  0  0  0  0  0  0  0
  -23.8610  -28.8338   20.5229 C   0  0  0  0  0  0  0  0  0  0  0  0
  -23.8939  -14.4588   15.8035 C   0  0  0  0  0  0  0  0  0  0  0  0
  -24.1045  -13.0635   17.8985 C   0  0  0  0  0  0  0  0  0  0  0  0
  -23.8740  -15.5189   18.1032 C   0  0  0  0  0  0  0  0  0  0  0  0
  -25.2978  -28.5290   20.9636 C   0  0  1  0  0  0  0  0  0  0  0  0
  -27.1089  -26.8452   18.0795 C   0  0  1  0  0  0  0  0  0  0  0  0
  -24.2617  -15.7057   16.6268 C   0  0  2  0  0  0  0  0  0  0  0  0
  -25.6934  -23.8572   11.0744 C   0  0  0  0  0  0  0  0  0  0  0  0
  -22.8974  -25.3611   16.8874 C   0  0  0  0  0  0  0  0  0  0  0  0
  -22.7466  -24.2130   14.6676 C   0  0  0  0  0  0  0  0  0  0  0  0
  -23.0290  -26.6893   14.7725 C   0  0  0  0  0  0  0  0  0  0  0  0
  -27.5694  -11.2821   20.3239 C   0  0  0  0  0  0  0  0  0  0  0  0
  -29.0986  -24.2783   12.7186 C   0  0  0  0  0  0  0  0  0  0  0  0
  -28.4347  -20.1632   19.4669 C   0  0  0  0  0  0  0  0  0  1  0  0
  -24.9781  -25.1932   15.3680 C   0  0  1  0  0  0  0  0  0  0  0  0
  -26.6896  -24.4228   12.0746 C   0  0  2  0  0  0  0  0  0  0  0  0
  -30.7063  -18.6172   18.3773 C   0  0  0  0  0  0  0  0  0  0  0  0
  -29.7971  -15.0300   21.4719 C   0  0  0  0  0  0  0  0  0  0  0  0
  -25.7268  -13.0061   20.3273 C   0  0  0  0  0  0  0  0  0  0  0  0
  -23.4338  -25.3579   15.4420 C   0  0  0  0  0  0  0  0  0  0  0  0
  -27.1006  -12.6290   19.7597 C   0  0  1  0  0  0  0  0  0  0  0  0
  -28.6825  -13.9753   21.3448 C   0  0  0  0  0  0  0  0  0  0  0  0
  -28.2155  -13.6803   19.9215 C   0  0  0  0  0  0  0  0  0  0  0  0
  -28.3906  -16.9927   21.5114 N   0  0  0  0  0  0  0  0  0  0  0  0
  -22.4597  -17.3834   16.4833 N   0  0  0  0  0  0  0  0  0  0  0  0
  -30.2141  -16.8515   19.9423 N   0  0  0  0  0  0  0  0  0  0  0  0
  -23.6579  -16.9676   16.0388 N   0  0  0  0  0  0  0  0  0  0  0  0
  -26.5341  -25.8437   17.1791 N   0  0  0  0  0  0  0  0  0  0  0  0
  -24.4460  -14.2819   18.6423 N   0  0  0  0  0  0  0  0  0  0  0  0
  -25.3970  -17.4973   14.5203 N   0  0  0  0  0  0  0  0  0  0  0  0
  -22.4021  -20.8150   13.8729 N   0  0  0  0  0  0  0  0  0  0  0  0
  -26.1213  -28.2104   19.8170 N   0  0  0  0  0  0  0  0  0  0  0  0
  -25.5170  -25.2139   14.0125 N   0  0  0  0  0  0  0  0  0  0  0  0
  -28.0177  -23.7962   11.8206 N   0  3  0  0  0  0  0  0  0  0  0  0
  -24.4287  -19.9787   13.2005 O   0  0  0  0  0  0  0  0  0  0  0  0
  -25.5929  -25.9485   19.6519 O   0  0  0  0  0  0  0  0  0  0  0  0
  -25.5591  -27.4519   15.8009 O   0  0  0  0  0  0  0  0  0  0  0  0
  -25.4885  -15.3612   20.4169 O   0  0  0  0  0  0  0  0  0  0  0  0
  -26.5190  -23.1248   14.1052 O   0  0  0  0  0  0  0  0  0  0  0  0
  -17.5357  -21.4210   16.5161 O   0  0  0  0  0  0  0  0  0  0  0  0
  -29.3739  -21.1217   19.9523 O   0  0  0  0  0  0  0  0  0  1  0  0
  -15.9083  -22.3790   21.6966 F   0  0  0  0  0  0  0  0  0  0  0  0
  -17.2625  -24.0042   17.4622 F   0  0  0  0  0  0  0  0  0  0  0  0
  -30.3134  -19.8537   17.9521 F   0  0  0  0  0  0  0  0  0  0  0  0
  -32.0236  -18.7548   18.7082 F   0  0  0  0  0  0  0  0  0  0  0  0
  -30.6869  -17.8238   17.2677 F   0  0  0  0  0  0  0  0  0  0  0  0
  -30.8930  -14.5049   20.8264 F   0  0  0  0  0  0  0  0  0  0  0  0
  -30.1750  -15.0549   22.7927 F   0  0  0  0  0  0  0  0  0  0  0  0
  -24.8374  -12.0139   20.0558 F   0  0  0  0  0  0  0  0  0  0  0  0
  -25.8138  -13.0471   21.6869 F   0  0  0  0  0  0  0  0  0  0  0  0
  -26.9212  -12.4369   18.4124 F   0  0  0  0  0  0  0  0  0  0  0  0
  -27.6115  -14.4104   22.0676 F   0  0  0  0  0  0  0  0  0  0  0  0
  -29.1036  -12.8317   21.9418 F   0  0  0  0  0  0  0  0  0  0  0  0
  -27.7566  -14.8486   19.3831 F   0  0  0  0  0  0  0  0  0  0  0  0
  -29.2839  -13.3155   19.1645 F   0  0  0  0  0  0  0  0  0  0  0  0
  1  2  1  0  0  0  0
  1  5  2  0  0  0  0
  2  6  2  0  0  0  0
  3  8  2  0  0  0  0
  3 16  1  0  0  0  0
  4  9  1  0  0  0  0
  4 16  2  0  0  0  0
  5 18  1  0  0  0  0
  6 20  1  0  0  0  0
  7 10  2  0  0  0  0
  7 19  1  0  0  0  0
  8 23  1  0  0  0  0
  9 23  2  0  0  0  0
 10 24  1  0  0  0  0
 11 12  2  0  0  0  0
 11 25  1  0  0  0  0
 12 26  1  0  0  0  0
 13 21  1  0  0  0  0
 13 24  2  0  0  0  0
 14 26  2  0  0  0  0
 14 27  1  0  0  0  0
 15 22  1  0  0  0  0
 15 65  2  0  0  0  0
 16 28  1  0  0  0  0
 17 28  1  0  0  0  0
 17 30  2  0  0  0  0
 17 32  1  0  0  0  0
 18 20  2  0  0  0  0
 18 37  1  0  0  0  0
 19 21  2  0  0  0  0
 19 38  1  0  0  0  0
 20 46  1  0  0  0  0
 21 39  1  0  0  0  0
 22 29  2  0  0  0  0
 22 55  1  0  0  0  0
 23 81  1  0  0  0  0
 24 82  1  0  0  0  0
 25 27  2  0  0  0  0
 25 81  1  0  0  0  0
 26 83  1  0  0  0  0
 27 84  1  0  0  0  0
 28 66  2  0  0  0  0
 29 58  1  0  0  0  0
 29 67  1  0  0  0  0
 30 68  1  0  0  0  0
 30 71  1  0  0  0  0
 31 59  1  0  0  0  0
 31 65  1  0  0  0  0
 31 67  2  0  0  0  0
 32 72  1  0  0  0  0
 32 76  2  0  0  0  0
 33 47  1  0  0  0  0
 33 73  1  0  0  0  0
 33 77  2  0  0  0  0
 34 56  1  0  0  0  0
 34 69  1  0  0  0  0
 34 78  2  0  0  0  0
 35 60  1  0  0  0  0
 35 70  1  0  0  0  0
 35 79  2  0  0  0  0
 36 57  1  0  0  0  0
 36 74  1  0  0  0  0
 36 80  2  0  0  0  0
 37 40  1  0  0  0  0
 38 47  1  0  0  0  0
 39 69  1  0  0  0  0
 40 42  1  0  0  0  0
 41 43  1  0  0  0  0
 41 44  1  0  0  0  0
 42 46  1  0  0  0  0
 43 48  1  0  0  0  0
 44 70  1  0  0  0  0
 45 48  1  0  0  0  0
 45 70  1  0  0  0  0
 46 73  1  0  0  0  0
 47 69  1  0  0  0  0
 48 68  1  0  0  0  0
 49 57  1  0  0  0  0
 50 61  1  0  0  0  0
 51 61  1  0  0  0  0
 52 61  1  0  0  0  0
 53 62  1  0  0  0  0
 54 75  1  0  0  0  0
 55 82  1  0  0  0  0
 56 61  1  0  0  0  0
 56 74  1  0  0  0  0
 57 75  1  0  0  0  0
 58 85  1  0  0  0  0
 58 86  1  0  0  0  0
 58 87  1  0  0  0  0
 59 63  1  0  0  0  0
 59 88  1  0  0  0  0
 59 89  1  0  0  0  0
 60 62  1  0  0  0  0
 60 90  1  0  0  0  0
 60 91  1  0  0  0  0
 62 64  1  0  0  0  0
 62 92  1  0  0  0  0
 63 64  1  0  0  0  0
 63 93  1  0  0  0  0
 63 94  1  0  0  0  0
 64 95  1  0  0  0  0
 64 96  1  0  0  0  0
 66 68  1  0  0  0  0
M  CHG  1  75   1
M  ISO  4  35 100  55 101  60 100  82 101
M  END
> <Batch ID>
0065

> <Smiles>
CNC(C)C(=O)NC(C(=O)N1Cc2cc([101O:1][101CH2:1]c3cnc(C(F)(F)C(F)(F)C(F)(F)C(C)(F)[100C:0](F)(F)[100C:0](=O)N4CCCC(n5nc(-c6ccc(Oc7ccc(F)cc7F)cc6)c(C(N)=O)c5N)C4)nc3C(F)(F)F)ccc2CC1C(=O)NC1CCCc2ccccc21)C(C)(C)C

> <Shape>
0.217

> <Color>
0.059

> <Negative vol penalty>
0.000

$$$$

  -OEChem-04052318073D

 83 91  0     1  0  0  0  0  0999 V2000
  -16.5097  -30.2227   23.8467 C   0  0  0  0  0  0  0  0  0  0  0  0
  -17.5052  -30.9486   23.2026 C   0  0  0  0  0  0  0  0  0  0  0  0
  -29.3758  -16.7433   20.1553 C   0  0  0  0  0  0  0  0  0  0  0  0
  -29.3389  -17.9084   22.2714 C   0  0  0  0  0  0  0  0  0  0  0  0
  -16.7531  -28.9074   24.2367 C   0  0  0  0  0  0  0  0  0  0  0  0
  -18.7402  -30.3558   22.9376 C   0  0  0  0  0  0  0  0  0  0  0  0
  -26.2196  -29.8052   20.2957 C   0  0  0  0  0  0  0  0  0  0  0  0
  -29.8339  -15.5926   20.7968 C   0  0  0  0  0  0  0  0  0  0  0  0
  -29.7969  -16.7577   22.9130 C   0  0  0  0  0  0  0  0  0  0  0  0
  -27.3926  -29.0625   20.4229 C   0  0  0  0  0  0  0  0  0  0  0  0
  -32.7387  -15.1472   23.3406 C   0  0  0  0  0  0  0  0  0  0  0  0
  -33.7642  -15.2909   24.2752 C   0  0  0  0  0  0  0  0  0  0  0  0
  -31.8800  -26.5053   19.8542 C   0  0  0  0  0  0  0  0  0  0  0  0
  -32.6993  -25.4764   20.3808 C   0  0  0  0  0  0  0  0  0  0  0  0
  -26.1729  -27.0540   19.8777 C   0  0  0  0  0  0  0  0  0  0  0  0
  -32.3282  -14.3793   25.9910 C   0  0  0  0  0  0  0  0  0  0  0  0
  -29.1284  -17.9013   20.8926 C   0  0  0  0  0  0  0  0  0  0  0  0
  -27.3170  -19.4617   20.0028 C   0  0  0  0  0  0  0  0  0  0  0  0
  -17.9963  -28.3030   23.9871 C   0  0  0  0  0  0  0  0  0  0  0  0
  -25.0102  -29.1752   19.9687 C   0  0  0  0  0  0  0  0  0  0  0  0
  -18.9970  -29.0217   23.3019 C   0  0  0  0  0  0  0  0  0  0  0  0
  -24.9864  -27.7913   19.7445 C   0  0  0  0  0  0  0  0  0  0  0  0
  -30.0444  -15.5997   22.1757 C   0  0  0  0  0  0  0  0  0  0  0  0
  -27.3688  -27.6863   20.2167 C   0  0  0  0  0  0  0  0  0  0  0  0
  -31.5079  -14.6197   23.7312 C   0  0  0  0  0  0  0  0  0  0  0  0
  -33.5589  -14.9069   25.6003 C   0  0  0  0  0  0  0  0  0  0  0  0
  -31.3027  -14.2357   25.0564 C   0  0  0  0  0  0  0  0  0  0  0  0
  -28.6558  -19.0905   20.2303 C   0  0  0  0  0  0  0  0  0  0  0  0
  -30.8484  -26.7059   20.7446 C   0  0  0  0  0  0  0  0  0  0  0  0
  -32.1433  -25.0795   21.5769 C   0  0  0  0  0  0  0  0  0  0  0  0
  -27.4013  -20.6636   19.3435 C   0  0  0  0  0  0  0  0  0  0  0  0
  -26.1056  -18.7810   20.3559 C   0  0  0  0  0  0  0  0  0  0  0  0
  -22.1989  -28.8302   21.4114 C   0  0  0  0  0  0  0  0  0  0  0  0
  -21.3547  -27.4764   18.5871 C   0  0  0  0  0  0  0  0  0  0  0  0
  -30.3406  -23.0624   21.8288 C   0  0  0  0  0  0  0  0  0  0  0  0
  -22.8403  -25.2105   16.2047 C   0  0  0  0  0  0  0  0  0  0  0  0
  -18.2031  -26.8741   24.4238 C   0  0  0  0  0  0  0  0  0  0  0  0
  -23.7588  -29.9943   19.8091 C   0  0  0  0  0  0  0  0  0  0  0  0
  -23.7179  -27.0700   19.3716 C   0  0  0  0  0  0  0  0  0  0  0  0
  -19.6754  -26.4828   24.4992 C   0  0  0  0  0  0  0  0  0  0  0  0
  -31.9374  -21.9238   18.8488 C   0  0  0  0  0  0  0  0  0  0  0  0
  -20.3866  -26.8852   23.2160 C   0  0  0  0  0  0  0  0  0  0  0  0
  -30.7484  -21.9356   17.8788 C   0  0  0  0  0  0  0  0  0  0  0  0
  -31.8996  -23.0976   19.8212 C   0  0  0  0  0  0  0  0  0  0  0  0
  -29.4707  -23.3468   19.5294 C   0  0  0  0  0  0  0  0  0  0  0  0
  -20.3585  -28.4077   23.0304 C   0  0  1  0  0  0  0  0  0  0  0  0
  -22.4829  -29.1750   19.9768 C   0  0  1  0  0  0  0  0  0  0  0  0
  -29.3758  -22.1469   18.5620 C   0  0  2  0  0  0  0  0  0  0  0  0
  -22.4556  -24.9537   13.7382 C   0  0  0  0  0  0  0  0  0  0  0  0
  -32.9053  -24.6279   23.9741 C   0  0  0  0  0  0  0  0  0  0  0  0
  -33.9997  -23.4350   22.1293 C   0  0  0  0  0  0  0  0  0  0  0  0
  -31.0030  -22.7251   24.1545 C   0  0  0  0  0  0  0  0  0  0  0  0
  -32.0739  -21.4251   22.3261 C   0  0  0  0  0  0  0  0  0  0  0  0
  -19.3496  -25.3313   19.4168 C   0  0  0  0  0  0  0  0  0  0  0  0
  -20.0921  -23.9745   17.4480 C   0  0  0  0  0  0  0  0  0  0  0  0
  -19.0385  -26.2080   17.0954 C   0  0  0  0  0  0  0  0  0  0  0  0
  -30.1441  -25.7251   22.9366 C   0  0  0  0  0  0  0  0  0  0  0  0
  -25.7157  -25.5670   15.6015 C   0  0  0  0  0  0  0  0  0  0  0  0
  -29.7005  -27.6704   20.6846 C   0  0  0  0  0  0  0  0  0  1  0  0
  -21.3883  -26.0779   18.0195 C   0  0  1  0  0  0  0  0  0  0  0  0
  -23.3450  -25.5553   14.8152 C   0  0  2  0  0  0  0  0  0  0  0  0
  -32.5921  -24.0458   22.5323 C   0  0  0  0  0  0  0  0  0  0  0  0
  -31.5399  -22.8220   22.7101 C   0  0  0  0  0  0  0  0  0  0  0  0
  -19.9859  -25.4065   18.0145 C   0  0  0  0  0  0  0  0  0  0  0  0
  -29.5267  -19.9841   19.7541 N   0  0  0  0  0  0  0  0  0  0  0  0
  -31.0185  -25.8335   21.7878 N   0  0  0  0  0  0  0  0  0  0  0  0
  -28.7335  -20.9288   19.2206 N   0  0  0  0  0  0  0  0  0  0  0  0
  -22.5193  -27.9138   19.2337 N   0  0  0  0  0  0  0  0  0  0  0  0
  -30.5857  -23.1824   20.4619 N   0  0  0  0  0  0  0  0  0  0  0  0
  -26.4651  -21.5090   18.8625 N   0  0  0  0  0  0  0  0  0  0  0  0
  -26.1997  -17.5563   21.0310 N   0  0  0  0  0  0  0  0  0  0  0  0
  -20.8534  -28.7316   21.7106 N   0  0  0  0  0  0  0  0  0  0  0  0
  -22.0031  -26.1872   16.7010 N   0  0  0  0  0  0  0  0  0  0  0  0
  -24.7297  -25.0386   14.6239 N   0  3  0  0  0  0  0  0  0  0  0  0
  -24.9734  -19.2370   20.0664 O   0  0  0  0  0  0  0  0  0  0  0  0
  -23.1314  -28.6643   22.1890 O   0  0  0  0  0  0  0  0  0  0  0  0
  -20.3352  -28.1582   18.4552 O   0  0  0  0  0  0  0  0  0  0  0  0
  -29.2207  -23.1385   22.3404 O   0  0  0  0  0  0  0  0  0  0  0  0
  -23.1542  -24.1762   16.7897 O   0  0  0  0  0  0  0  0  0  0  0  0
  -30.4911  -14.4770   22.8021 O   0  0  0  0  0  0  0  0  0  0  0  0
  -28.5122  -26.9589   20.3409 O   0  0  0  0  0  0  0  0  0  1  0  0
  -34.5443  -15.0435   26.4973 F   0  0  0  0  0  0  0  0  0  0  0  0
  -30.1228  -13.7272   25.4374 F   0  0  0  0  0  0  0  0  0  0  0  0
  1  2  1  0  0  0  0
  1  5  2  0  0  0  0
  2  6  2  0  0  0  0
  3  8  2  0  0  0  0
  3 17  1  0  0  0  0
  4  9  1  0  0  0  0
  4 17  2  0  0  0  0
  5 19  1  0  0  0  0
  6 21  1  0  0  0  0
  7 10  2  0  0  0  0
  7 20  1  0  0  0  0
  8 23  1  0  0  0  0
  9 23  2  0  0  0  0
 10 24  1  0  0  0  0
 11 12  2  0  0  0  0
 11 25  1  0  0  0  0
 12 26  1  0  0  0  0
 13 14  1  0  0  0  0
 13 29  2  0  0  0  0
 14 30  2  0  0  0  0
 15 22  1  0  0  0  0
 15 24  2  0  0  0  0
 16 26  2  0  0  0  0
 16 27  1  0  0  0  0
 17 28  1  0  0  0  0
 18 28  1  0  0  0  0
 18 31  2  0  0  0  0
 18 32  1  0  0  0  0
 19 21  2  0  0  0  0
 19 37  1  0  0  0  0
 20 22  2  0  0  0  0
 20 38  1  0  0  0  0
 21 46  1  0  0  0  0
 22 39  1  0  0  0  0
 23 80  1  0  0  0  0
 24 81  1  0  0  0  0
 25 27  2  0  0  0  0
 25 80  1  0  0  0  0
 26 82  1  0  0  0  0
 27 83  1  0  0  0  0
 28 65  2  0  0  0  0
 29 59  1  0  0  0  0
 29 66  1  0  0  0  0
 30 62  1  0  0  0  0
 30 66  1  0  0  0  0
 31 67  1  0  0  0  0
 31 70  1  0  0  0  0
 32 71  1  0  0  0  0
 32 75  2  0  0  0  0
 33 47  1  0  0  0  0
 33 72  1  0  0  0  0
 33 76  2  0  0  0  0
 34 60  1  0  0  0  0
 34 68  1  0  0  0  0
 34 77  2  0  0  0  0
 35 63  1  0  0  0  0
 35 69  1  0  0  0  0
 35 78  2  0  0  0  0
 36 61  1  0  0  0  0
 36 73  1  0  0  0  0
 36 79  2  0  0  0  0
 37 40  1  0  0  0  0
 38 47  1  0  0  0  0
 39 68  1  0  0  0  0
 40 42  1  0  0  0  0
 41 43  1  0  0  0  0
 41 44  1  0  0  0  0
 42 46  1  0  0  0  0
 43 48  1  0  0  0  0
 44 69  1  0  0  0  0
 45 48  1  0  0  0  0
 45 69  1  0  0  0  0
 46 72  1  0  0  0  0
 47 68  1  0  0  0  0
 48 67  1  0  0  0  0
 49 61  1  0  0  0  0
 50 62  1  0  0  0  0
 51 62  1  0  0  0  0
 52 63  1  0  0  0  0
 53 63  1  0  0  0  0
 54 64  1  0  0  0  0
 55 64  1  0  0  0  0
 56 64  1  0  0  0  0
 57 66  1  0  0  0  0
 58 74  1  0  0  0  0
 59 81  1  0  0  0  0
 60 64  1  0  0  0  0
 60 73  1  0  0  0  0
 61 74  1  0  0  0  0
 62 63  1  0  0  0  0
 65 67  1  0  0  0  0
M  CHG  1  74   1
M  ISO  4  35 100  59 101  63 100  81 101
M  END
> <Batch ID>
0065

> <Smiles>
CNC(C)C(=O)NC(C(=O)N1Cc2cc([101O:1][101CH2:1]c3ccc(C(C)(C)[100C:0](C)(C)[100C:0](=O)N4CCCC(n5nc(-c6ccc(Oc7ccc(F)cc7F)cc6)c(C(N)=O)c5N)C4)n3C)ccc2CC1C(=O)NC1CCCc2ccccc21)C(C)(C)C

> <Shape>
0.219

> <Color>
0.086

> <Negative vol penalty>
0.000

$$$$

  -OEChem-04052318073D

 83 91  0     1  0  0  0  0  0999 V2000
  -16.5955  -28.4327   23.4098 C   0  0  0  0  0  0  0  0  0  0  0  0
  -17.6448  -27.6178   22.9968 C   0  0  0  0  0  0  0  0  0  0  0  0
  -26.5702  -13.0156   22.4879 C   0  0  0  0  0  0  0  0  0  0  0  0
  -25.9591  -12.7399   20.1668 C   0  0  0  0  0  0  0  0  0  0  0  0
  -16.8436  -29.7551   23.7752 C   0  0  0  0  0  0  0  0  0  0  0  0
  -18.9426  -28.1254   22.9480 C   0  0  0  0  0  0  0  0  0  0  0  0
  -24.1283  -25.0938   24.1413 C   0  0  0  0  0  0  0  0  0  0  0  0
  -25.4448  -12.2859   22.8709 C   0  0  0  0  0  0  0  0  0  0  0  0
  -24.8337  -12.0102   20.5498 C   0  0  0  0  0  0  0  0  0  0  0  0
  -25.0723  -24.4878   23.3134 C   0  0  0  0  0  0  0  0  0  0  0  0
  -24.1350   -8.8655   21.5712 C   0  0  0  0  0  0  0  0  0  0  0  0
  -23.8594   -7.6890   20.8745 C   0  0  0  0  0  0  0  0  0  0  0  0
  -26.4285  -26.4804   23.4114 C   0  0  0  0  0  0  0  0  0  0  0  0
  -21.7198   -8.5879   20.2029 C   0  0  0  0  0  0  0  0  0  0  0  0
  -28.9433  -21.8777   21.3160 C   0  0  0  0  0  0  0  0  0  0  0  0
  -28.1933  -23.2166   19.5550 C   0  0  0  0  0  0  0  0  0  0  0  0
  -26.8273  -13.2426   21.1359 C   0  0  0  0  0  0  0  0  0  0  0  0
  -29.2745  -13.4942   20.4607 C   0  0  0  0  0  0  0  0  0  0  0  0
  -18.1465  -30.2763   23.7401 C   0  0  0  0  0  0  0  0  0  0  0  0
  -24.3225  -26.4038   24.6024 C   0  0  0  0  0  0  0  0  0  0  0  0
  -19.2081  -29.4564   23.3121 C   0  0  0  0  0  0  0  0  0  0  0  0
  -25.4867  -27.0998   24.2471 C   0  0  0  0  0  0  0  0  0  0  0  0
  -28.0096  -22.7816   20.8517 C   0  0  0  0  0  0  0  0  0  0  0  0
  -24.5766  -11.7833   21.9019 C   0  0  0  0  0  0  0  0  0  0  0  0
  -26.2212  -25.1821   22.9460 C   0  0  0  0  0  0  0  0  0  0  0  0
  -23.2030   -9.9033   21.5838 C   0  0  0  0  0  0  0  0  0  0  0  0
  -22.6518   -7.5502   20.1903 C   0  0  0  0  0  0  0  0  0  0  0  0
  -21.9954   -9.7645   20.8996 C   0  0  0  0  0  0  0  0  0  0  0  0
  -27.9894  -13.9967   20.7396 C   0  0  0  0  0  0  0  0  0  0  0  0
  -30.0138  -14.6045   20.1334 C   0  0  0  0  0  0  0  0  0  0  0  0
  -30.0503  -21.9249   19.3312 C   0  0  0  0  0  0  0  0  0  0  0  0
  -29.7568  -12.1444   20.4945 C   0  0  0  0  0  0  0  0  0  0  0  0
  -22.7652  -29.1543   24.2656 C   0  0  0  0  0  0  0  0  0  0  0  0
  -24.9587  -30.2101   26.4094 C   0  0  0  0  0  0  0  0  0  0  0  0
  -30.5032  -19.2956   17.2994 C   0  0  0  0  0  0  0  0  0  0  0  0
  -28.0422  -29.8349   27.8229 C   0  0  0  0  0  0  0  0  0  0  0  0
  -18.3586  -31.7257   24.0993 C   0  0  0  0  0  0  0  0  0  0  0  0
  -23.3075  -27.0337   25.5165 C   0  0  0  0  0  0  0  0  0  0  0  0
  -25.7522  -28.5009   24.7317 C   0  0  0  0  0  0  0  0  0  0  0  0
  -19.8178  -32.0770   24.3778 C   0  0  0  0  0  0  0  0  0  0  0  0
  -28.9623  -19.5234   20.5858 C   0  0  0  0  0  0  0  0  0  0  0  0
  -20.7229  -31.4939   23.2972 C   0  0  0  0  0  0  0  0  0  0  0  0
  -28.6507  -18.0565   20.8796 C   0  0  0  0  0  0  0  0  0  0  0  0
  -28.7984  -19.8459   19.1028 C   0  0  0  0  0  0  0  0  0  0  0  0
  -29.2931  -17.4987   18.4944 C   0  0  0  0  0  0  0  0  0  0  0  0
  -20.6334  -29.9633   23.2695 C   0  0  1  0  0  0  0  0  0  0  0  0
  -23.3616  -28.5583   25.5092 C   0  0  1  0  0  0  0  0  0  0  0  0
  -29.4762  -17.1250   19.9749 C   0  0  2  0  0  0  0  0  0  0  0  0
  -29.5704  -30.8735   29.5209 C   0  0  0  0  0  0  0  0  0  0  0  0
  -32.1170  -20.4242   19.2447 C   0  0  0  0  0  0  0  0  0  0  0  0
  -32.1944  -22.6252   18.1614 C   0  0  0  0  0  0  0  0  0  0  0  0
  -31.7673  -20.9180   15.9830 C   0  0  0  0  0  0  0  0  0  0  0  0
  -29.3752  -21.3135   16.5318 C   0  0  0  0  0  0  0  0  0  0  0  0
  -25.6204  -32.4467   24.4422 C   0  0  0  0  0  0  0  0  0  0  0  0
  -27.7339  -32.8521   25.7217 C   0  0  0  0  0  0  0  0  0  0  0  0
  -25.5241  -33.1589   26.8376 C   0  0  0  0  0  0  0  0  0  0  0  0
  -28.0739  -27.3759   29.4694 C   0  0  0  0  0  0  0  0  0  0  0  0
  -26.8708  -23.2618   21.7025 C   0  0  0  0  0  0  0  0  0  1  0  0
  -26.3358  -30.8218   26.3168 C   0  0  1  0  0  0  0  0  0  0  0  0
  -28.4919  -29.8305   29.2728 C   0  0  2  0  0  0  0  0  0  0  0  0
  -31.1851  -21.4522   18.4874 C   0  0  0  0  0  0  0  0  0  0  0  0
  -30.7077  -20.7759   17.0969 C   0  0  0  0  0  0  0  0  0  0  0  0
  -26.2979  -32.2942   25.8187 C   0  0  0  0  0  0  0  0  0  0  0  0
  -29.9801  -21.4262   20.5802 N   0  0  0  0  0  0  0  0  0  0  0  0
  -29.2065  -22.8076   18.7635 N   0  0  0  0  0  0  0  0  0  0  0  0
  -27.9133  -15.3231   20.6016 N   0  0  0  0  0  0  0  0  0  0  0  0
  -29.1599  -15.6634   20.2325 N   0  0  0  0  0  0  0  0  0  0  0  0
  -24.7271  -29.0759   25.6183 N   0  0  0  0  0  0  0  0  0  0  0  0
  -29.5785  -18.9193   18.2738 N   0  0  0  0  0  0  0  0  0  0  0  0
  -31.3044  -14.7685   19.7733 N   0  0  0  0  0  0  0  0  0  0  0  0
  -28.8641  -11.1246   20.8515 N   0  0  0  0  0  0  0  0  0  0  0  0
  -21.4067  -29.3921   24.3514 N   0  0  0  0  0  0  0  0  0  0  0  0
  -26.9475  -30.6508   27.6301 N   0  0  0  0  0  0  0  0  0  0  0  0
  -29.0371  -28.4936   29.6420 N   0  3  0  0  0  0  0  0  0  0  0  0
  -30.9484  -11.8532   20.2323 O   0  0  0  0  0  0  0  0  0  0  0  0
  -23.4845  -29.3829   23.3002 O   0  0  0  0  0  0  0  0  0  0  0  0
  -24.1218  -30.7156   27.1615 O   0  0  0  0  0  0  0  0  0  0  0  0
  -31.1489  -18.4993   16.6130 O   0  0  0  0  0  0  0  0  0  0  0  0
  -28.6080  -29.1829   26.9481 O   0  0  0  0  0  0  0  0  0  0  0  0
  -23.4784  -11.0710   22.2753 O   0  0  0  0  0  0  0  0  0  0  0  0
  -27.1439  -24.5932   22.1374 O   0  0  0  0  0  0  0  0  0  1  0  0
  -22.3879   -6.4209   19.5201 F   0  0  0  0  0  0  0  0  0  0  0  0
  -21.0966  -10.7584   20.9071 F   0  0  0  0  0  0  0  0  0  0  0  0
  1  2  1  0  0  0  0
  1  5  2  0  0  0  0
  2  6  2  0  0  0  0
  3  8  2  0  0  0  0
  3 17  1  0  0  0  0
  4  9  1  0  0  0  0
  4 17  2  0  0  0  0
  5 19  1  0  0  0  0
  6 21  1  0  0  0  0
  7 10  2  0  0  0  0
  7 20  1  0  0  0  0
  8 24  1  0  0  0  0
  9 24  2  0  0  0  0
 10 25  1  0  0  0  0
 11 12  2  0  0  0  0
 11 26  1  0  0  0  0
 12 27  1  0  0  0  0
 13 22  1  0  0  0  0
 13 25  2  0  0  0  0
 14 27  2  0  0  0  0
 14 28  1  0  0  0  0
 15 23  1  0  0  0  0
 15 64  2  0  0  0  0
 16 23  2  0  0  0  0
 16 65  1  0  0  0  0
 17 29  1  0  0  0  0
 18 29  1  0  0  0  0
 18 30  2  0  0  0  0
 18 32  1  0  0  0  0
 19 21  2  0  0  0  0
 19 37  1  0  0  0  0
 20 22  2  0  0  0  0
 20 38  1  0  0  0  0
 21 46  1  0  0  0  0
 22 39  1  0  0  0  0
 23 58  1  0  0  0  0
 24 80  1  0  0  0  0
 25 81  1  0  0  0  0
 26 28  2  0  0  0  0
 26 80  1  0  0  0  0
 27 82  1  0  0  0  0
 28 83  1  0  0  0  0
 29 66  2  0  0  0  0
 30 67  1  0  0  0  0
 30 70  1  0  0  0  0
 31 61  1  0  0  0  0
 31 64  1  0  0  0  0
 31 65  2  0  0  0  0
 32 71  1  0  0  0  0
 32 75  2  0  0  0  0
 33 47  1  0  0  0  0
 33 72  1  0  0  0  0
 33 76  2  0  0  0  0
 34 59  1  0  0  0  0
 34 68  1  0  0  0  0
 34 77  2  0  0  0  0
 35 62  1  0  0  0  0
 35 69  1  0  0  0  0
 35 78  2  0  0  0  0
 36 60  1  0  0  0  0
 36 73  1  0  0  0  0
 36 79  2  0  0  0  0
 37 40  1  0  0  0  0
 38 47  1  0  0  0  0
 39 68  1  0  0  0  0
 40 42  1  0  0  0  0
 41 43  1  0  0  0  0
 41 44  1  0  0  0  0
 42 46  1  0  0  0  0
 43 48  1  0  0  0  0
 44 69  1  0  0  0  0
 45 48  1  0  0  0  0
 45 69  1  0  0  0  0
 46 72  1  0  0  0  0
 47 68  1  0  0  0  0
 48 67  1  0  0  0  0
 49 60  1  0  0  0  0
 50 61  1  0  0  0  0
 51 61  1  0  0  0  0
 52 62  1  0  0  0  0
 53 62  1  0  0  0  0
 54 63  1  0  0  0  0
 55 63  1  0  0  0  0
 56 63  1  0  0  0  0
 57 74  1  0  0  0  0
 58 81  1  0  0  0  0
 59 63  1  0  0  0  0
 59 73  1  0  0  0  0
 60 74  1  0  0  0  0
 61 62  1  0  0  0  0
 66 67  1  0  0  0  0
M  CHG  1  74   1
M  ISO  4  35 100  58 101  62 100  81 101
M  END
> <Batch ID>
0065

> <Smiles>
CNC(C)C(=O)NC(C(=O)N1Cc2cc([101O:1][101CH2:1]c3cnc(C(C)(C)[100C:0](C)(C)[100C:0](=O)N4CCCC(n5nc(-c6ccc(Oc7ccc(F)cc7F)cc6)c(C(N)=O)c5N)C4)nc3)ccc2CC1C(=O)NC1CCCc2ccccc21)C(C)(C)C

> <Shape>
0.271

> <Color>
0.088

> <Negative vol penalty>
0.000

$$$$

  -OEChem-04052318073D

 90 98  0     1  0  0  0  0  0999 V2000
  -26.2206  -13.5080   15.2862 C   0  0  0  0  0  0  0  0  0  0  0  0
  -25.7141  -14.1905   16.3876 C   0  0  0  0  0  0  0  0  0  0  0  0
  -23.0530   -9.8900   19.9751 C   0  0  0  0  0  0  0  0  0  0  0  0
  -23.9218   -9.8837   22.2295 C   0  0  0  0  0  0  0  0  0  0  0  0
  -27.0252  -14.1754   14.3636 C   0  0  0  0  0  0  0  0  0  0  0  0
  -26.0128  -15.5406   16.5676 C   0  0  0  0  0  0  0  0  0  0  0  0
  -22.3591  -19.8318   18.9638 C   0  0  0  0  0  0  0  0  0  0  0  0
  -22.3318   -8.7281   20.2498 C   0  0  0  0  0  0  0  0  0  0  0  0
  -23.2006   -8.7217   22.5042 C   0  0  0  0  0  0  0  0  0  0  0  0
  -22.2780  -20.3892   20.2391 C   0  0  0  0  0  0  0  0  0  0  0  0
  -20.5439   -5.5615   20.2493 C   0  0  0  0  0  0  0  0  0  0  0  0
  -20.5710   -4.5400   19.3000 C   0  0  0  0  0  0  0  0  0  0  0  0
  -23.6609  -22.2289   19.5164 C   0  0  0  0  0  0  0  0  0  0  0  0
  -22.9711   -4.3882   19.5317 C   0  0  0  0  0  0  0  0  0  0  0  0
  -28.1069  -17.6910   22.5686 C   0  0  0  0  0  0  0  0  0  0  0  0
  -23.8480  -10.4678   20.9650 C   0  0  0  0  0  0  0  0  0  0  0  0
  -24.1622  -12.9968   20.8519 C   0  0  0  0  0  0  0  0  0  0  0  0
  -27.3260  -15.5368   14.5272 C   0  0  0  0  0  0  0  0  0  0  0  0
  -23.1019  -20.4642   17.9565 C   0  0  0  0  0  0  0  0  0  0  0  0
  -26.8232  -16.2265   15.6470 C   0  0  0  0  0  0  0  0  0  0  0  0
  -23.7477  -21.6787   18.2284 C   0  0  0  0  0  0  0  0  0  0  0  0
  -22.4056   -8.1440   21.5143 C   0  0  0  0  0  0  0  0  0  0  0  0
  -22.9313  -21.5865   20.5164 C   0  0  0  0  0  0  0  0  0  0  0  0
  -21.7304   -5.9965   20.8398 C   0  0  0  0  0  0  0  0  0  0  0  0
  -21.7845   -3.9533   18.9412 C   0  0  0  0  0  0  0  0  0  0  0  0
  -22.9440   -5.4098   20.4811 C   0  0  0  0  0  0  0  0  0  0  0  0
  -24.5937  -11.6677   20.6817 C   0  0  0  0  0  0  0  0  0  0  0  0
  -29.4785  -17.7015   22.6948 C   0  0  0  0  0  0  0  0  0  0  0  0
  -29.3926  -19.8585   23.4497 C   0  0  0  0  0  0  0  0  0  0  0  0
  -28.0210  -19.8482   23.3227 C   0  0  0  0  0  0  0  0  0  0  0  0
  -25.2292  -13.7592   20.4437 C   0  0  0  0  0  0  0  0  0  0  0  0
  -22.9088  -13.4975   21.3359 C   0  0  0  0  0  0  0  0  0  0  0  0
  -25.6462  -19.6820   16.2192 C   0  0  0  0  0  0  0  0  0  0  0  0
  -30.7328  -14.7586   20.4741 C   0  0  0  0  0  0  0  0  0  0  0  0
  -24.9725  -22.4628   14.6910 C   0  0  0  0  0  0  0  0  0  0  0  0
  -23.5102  -25.5447   14.7939 C   0  0  0  0  0  0  0  0  0  0  0  0
  -28.2387  -16.2037   13.5288 C   0  0  0  0  0  0  0  0  0  0  0  0
  -23.1575  -19.8636   16.5786 C   0  0  0  0  0  0  0  0  0  0  0  0
  -24.5414  -22.4077   17.1762 C   0  0  0  0  0  0  0  0  0  0  0  0
  -28.2005  -17.7284   13.5922 C   0  0  0  0  0  0  0  0  0  0  0  0
  -29.4696  -12.4736   18.0200 C   0  0  0  0  0  0  0  0  0  0  0  0
  -28.2932  -18.2050   15.0383 C   0  0  0  0  0  0  0  0  0  0  0  0
  -28.0646  -12.1462   18.5239 C   0  0  0  0  0  0  0  0  0  0  0  0
  -30.4447  -12.6740   19.1759 C   0  0  0  0  0  0  0  0  0  0  0  0
  -28.6045  -13.3793   20.6717 C   0  0  0  0  0  0  0  0  0  0  0  0
  -27.1045  -17.6976   15.8636 C   0  0  1  0  0  0  0  0  0  0  0  0
  -24.3660  -20.3292   15.7722 C   0  0  1  0  0  0  0  0  0  0  0  0
  -27.5811  -13.1995   19.5365 C   0  0  2  0  0  0  0  0  0  0  0  0
  -30.1185  -21.0639   23.9415 C   0  0  0  0  0  0  0  0  0  0  0  0
  -30.0952  -16.6508   18.3653 C   0  0  0  0  0  0  0  0  0  0  0  0
  -23.1586  -27.6056   13.4060 C   0  0  0  0  0  0  0  0  0  0  0  0
  -31.8334  -16.6548   22.5348 C   0  0  0  0  0  0  0  0  0  0  0  0
  -29.8920  -15.3098   23.2948 C   0  0  0  0  0  0  0  0  0  0  0  0
  -27.8594  -23.3028   15.2114 C   0  0  0  0  0  0  0  0  0  0  0  0
  -27.1964  -25.6580   14.6808 C   0  0  0  0  0  0  0  0  0  0  0  0
  -26.9972  -23.8852   12.9372 C   0  0  0  0  0  0  0  0  0  0  0  0
  -22.6008  -23.1401   24.4788 C   0  0  0  0  0  0  0  0  0  0  0  0
  -23.0865  -20.8362   25.3114 C   0  0  0  0  0  0  0  0  0  0  0  0
  -20.5680  -25.2324   14.8664 C   0  0  0  0  0  0  0  0  0  0  0  0
  -27.1894  -21.0560   23.6751 C   0  0  0  0  0  0  0  0  0  0  0  0
  -30.3651  -17.1116   19.7942 C   0  0  0  0  0  0  0  0  0  0  0  0
  -25.6810  -20.7766   23.7329 C   0  0  0  0  0  0  0  0  0  0  0  0
  -24.8536  -22.0399   24.0149 C   0  0  0  0  0  0  0  0  0  0  0  0
  -22.7034  -21.2316   22.8569 C   0  0  0  0  0  0  0  0  0  1  0  0
  -30.0101  -16.0314   20.8370 C   0  0  2  0  0  0  0  0  0  0  0  0
  -25.3720  -23.9071   14.8738 C   0  0  1  0  0  0  0  0  0  0  0  0
  -22.5907  -26.2564   13.8180 C   0  0  2  0  0  0  0  0  0  0  0  0
  -30.2789  -16.4975   22.3402 C   0  0  0  0  0  0  0  0  0  0  0  0
  -26.8430  -24.1738   14.4464 C   0  0  0  0  0  0  0  0  0  0  0  0
  -23.3191  -21.8206   24.1446 C   0  0  0  0  0  0  0  0  0  0  0  0
  -27.3535  -18.7642   22.8802 N   0  0  0  0  0  0  0  0  0  0  0  0
  -25.8378  -11.5869   20.2025 N   0  0  0  0  0  0  0  0  0  0  0  0
  -30.1460  -18.7854   23.1378 N   0  0  0  0  0  0  0  0  0  0  0  0
  -26.1972  -12.8749   20.0681 N   0  0  0  0  0  0  0  0  0  0  0  0
  -24.5710  -21.7772   15.8462 N   0  0  0  0  0  0  0  0  0  0  0  0
  -29.9390  -13.6653   20.1270 N   0  0  0  0  0  0  0  0  0  0  0  0
  -25.4245  -15.0931   20.3730 N   0  0  0  0  0  0  0  0  0  0  0  0
  -21.9221  -12.5764   21.7128 N   0  0  0  0  0  0  0  0  0  0  0  0
  -25.9230  -18.4856   15.5855 N   0  0  0  0  0  0  0  0  0  0  0  0
  -24.3856  -24.6987   14.1465 N   0  0  0  0  0  0  0  0  0  0  0  0
  -21.2524  -26.4784   14.4351 N   0  3  0  0  0  0  0  0  0  0  0  0
  -22.6651  -14.7254   21.4158 O   0  0  0  0  0  0  0  0  0  0  0  0
  -26.3329  -20.2283   17.0745 O   0  0  0  0  0  0  0  0  0  0  0  0
  -31.9663  -14.7395   20.4963 O   0  0  0  0  0  0  0  0  0  0  0  0
  -25.0084  -21.9635   13.5636 O   0  0  0  0  0  0  0  0  0  0  0  0
  -23.4596  -25.7243   16.0087 O   0  0  0  0  0  0  0  0  0  0  0  0
  -21.7018   -7.0103   21.7828 O   0  0  0  0  0  0  0  0  0  0  0  0
  -22.8543  -22.1324   21.7605 O   0  0  0  0  0  0  0  0  0  1  0  0
  -21.8102   -2.9712   18.0307 F   0  0  0  0  0  0  0  0  0  0  0  0
  -24.0870   -5.8227   21.0458 F   0  0  0  0  0  0  0  0  0  0  0  0
  1  2  1  0  0  0  0
  1  5  2  0  0  0  0
  2  6  2  0  0  0  0
  3  8  2  0  0  0  0
  3 16  1  0  0  0  0
  4  9  1  0  0  0  0
  4 16  2  0  0  0  0
  5 18  1  0  0  0  0
  6 20  1  0  0  0  0
  7 10  2  0  0  0  0
  7 19  1  0  0  0  0
  8 22  1  0  0  0  0
  9 22  2  0  0  0  0
 10 23  1  0  0  0  0
 11 12  2  0  0  0  0
 11 24  1  0  0  0  0
 12 25  1  0  0  0  0
 13 21  1  0  0  0  0
 13 23  2  0  0  0  0
 14 25  2  0  0  0  0
 14 26  1  0  0  0  0
 15 28  1  0  0  0  0
 15 71  2  0  0  0  0
 16 27  1  0  0  0  0
 17 27  1  0  0  0  0
 17 31  2  0  0  0  0
 17 32  1  0  0  0  0
 18 20  2  0  0  0  0
 18 37  1  0  0  0  0
 19 21  2  0  0  0  0
 19 38  1  0  0  0  0
 20 46  1  0  0  0  0
 21 39  1  0  0  0  0
 22 87  1  0  0  0  0
 23 88  1  0  0  0  0
 24 26  2  0  0  0  0
 24 87  1  0  0  0  0
 25 89  1  0  0  0  0
 26 90  1  0  0  0  0
 27 72  2  0  0  0  0
 28 68  1  0  0  0  0
 28 73  2  0  0  0  0
 29 30  2  0  0  0  0
 29 49  1  0  0  0  0
 29 73  1  0  0  0  0
 30 60  1  0  0  0  0
 30 71  1  0  0  0  0
 31 74  1  0  0  0  0
 31 77  1  0  0  0  0
 32 78  1  0  0  0  0
 32 82  2  0  0  0  0
 33 47  1  0  0  0  0
 33 79  1  0  0  0  0
 33 83  2  0  0  0  0
 34 65  1  0  0  0  0
 34 76  1  0  0  0  0
 34 84  2  0  0  0  0
 35 66  1  0  0  0  0
 35 75  1  0  0  0  0
 35 85  2  0  0  0  0
 36 67  1  0  0  0  0
 36 80  1  0  0  0  0
 36 86  2  0  0  0  0
 37 40  1  0  0  0  0
 38 47  1  0  0  0  0
 39 75  1  0  0  0  0
 40 42  1  0  0  0  0
 41 43  1  0  0  0  0
 41 44  1  0  0  0  0
 42 46  1  0  0  0  0
 43 48  1  0  0  0  0
 44 76  1  0  0  0  0
 45 48  1  0  0  0  0
 45 76  1  0  0  0  0
 46 79  1  0  0  0  0
 47 75  1  0  0  0  0
 48 74  1  0  0  0  0
 50 61  1  0  0  0  0
 51 67  1  0  0  0  0
 52 68  1  0  0  0  0
 53 68  1  0  0  0  0
 54 69  1  0  0  0  0
 55 69  1  0  0  0  0
 56 69  1  0  0  0  0
 57 70  1  0  0  0  0
 58 70  1  0  0  0  0
 59 81  1  0  0  0  0
 60 62  1  0  0  0  0
 61 65  1  0  0  0  0
 62 63  1  0  0  0  0
 63 70  1  0  0  0  0
 64 70  1  0  0  0  0
 64 88  1  0  0  0  0
 65 68  1  0  0  0  0
 66 69  1  0  0  0  0
 66 80  1  0  0  0  0
 67 81  1  0  0  0  0
 72 74  1  0  0  0  0
M  CHG  1  81   1
M  ISO  4  34 100  64 101  65 100  88 101
M  END
> <Batch ID>
0065

> <Smiles>
CC[100CH:0]([100C:0](=O)N1CCCC(n2nc(-c3ccc(Oc4ccc(F)cc4F)cc3)c(C(N)=O)c2N)C1)C(C)(C)c1cnc(CCCC(C)(C)[101CH2:1][101O:1]c2ccc3c(c2)CN(C(=O)C(NC(=O)C(C)NC)C(C)(C)C)C(C(=O)NC2CCCc4ccccc42)C3)c(C)n1

> <Shape>
0.161

> <Color>
0.174

> <Negative vol penalty>
0.000

$$$$

  -OEChem-04052318073D

 88 96  0     1  0  0  0  0  0999 V2000
  -28.8831  -31.4765   26.2216 C   0  0  0  0  0  0  0  0  0  0  0  0
  -28.7942  -30.4278   25.3117 C   0  0  0  0  0  0  0  0  0  0  0  0
  -23.2835  -10.5954   22.2106 C   0  0  0  0  0  0  0  0  0  0  0  0
  -23.9210   -9.3742   20.2259 C   0  0  0  0  0  0  0  0  0  0  0  0
  -27.7393  -31.9245   26.8811 C   0  0  0  0  0  0  0  0  0  0  0  0
  -27.5616  -29.8257   25.0617 C   0  0  0  0  0  0  0  0  0  0  0  0
  -26.7328  -29.0740   20.1228 C   0  0  0  0  0  0  0  0  0  0  0  0
  -22.0224  -10.0007   22.1715 C   0  0  0  0  0  0  0  0  0  0  0  0
  -22.6599   -8.7794   20.1868 C   0  0  0  0  0  0  0  0  0  0  0  0
  -27.3752  -27.9894   19.5272 C   0  0  0  0  0  0  0  0  0  0  0  0
  -18.7580   -8.5306   22.8019 C   0  0  0  0  0  0  0  0  0  0  0  0
  -18.2341   -8.0419   23.9987 C   0  0  0  0  0  0  0  0  0  0  0  0
  -25.3400  -26.7042   19.6866 C   0  0  0  0  0  0  0  0  0  0  0  0
  -20.1164   -6.5421   24.2101 C   0  0  0  0  0  0  0  0  0  0  0  0
  -24.2328  -10.2822   21.2378 C   0  0  0  0  0  0  0  0  0  0  0  0
  -26.6816  -10.4178   21.9399 C   0  0  0  0  0  0  0  0  0  0  0  0
  -26.4904  -31.3340   26.6319 C   0  0  0  0  0  0  0  0  0  0  0  0
  -25.3900  -28.9780   20.5153 C   0  0  0  0  0  0  0  0  0  0  0  0
  -26.4002  -30.2654   25.7195 C   0  0  0  0  0  0  0  0  0  0  0  0
  -24.6821  -27.7898   20.2846 C   0  0  0  0  0  0  0  0  0  0  0  0
  -21.7106   -9.0927   21.1596 C   0  0  0  0  0  0  0  0  0  0  0  0
  -26.6797  -26.8033   19.3117 C   0  0  0  0  0  0  0  0  0  0  0  0
  -19.9611   -8.0251   22.3092 C   0  0  0  0  0  0  0  0  0  0  0  0
  -18.9133   -7.0476   24.7028 C   0  0  0  0  0  0  0  0  0  0  0  0
  -20.6403   -7.0308   23.0133 C   0  0  0  0  0  0  0  0  0  0  0  0
  -25.5355  -10.8967   21.2773 C   0  0  0  0  0  0  0  0  0  0  0  0
  -27.6493  -11.3552   21.6729 C   0  0  0  0  0  0  0  0  0  0  0  0
  -29.7488  -17.8401   20.8058 C   0  0  0  0  0  0  0  0  0  0  0  0
  -30.1260  -19.8992   20.2343 C   0  0  0  0  0  0  0  0  0  0  0  0
  -26.8558   -9.2317   22.7262 C   0  0  0  0  0  0  0  0  0  0  0  0
  -29.2020  -16.6171   21.4064 C   0  0  0  0  0  0  0  0  0  0  0  0
  -23.8430  -29.1760   23.2850 C   0  0  0  0  0  0  0  0  0  0  0  0
  -21.2191  -28.9808   21.3879 C   0  0  0  0  0  0  0  0  0  0  0  0
  -19.8572  -27.9896   18.4198 C   0  0  0  0  0  0  0  0  0  0  0  0
  -25.2900  -31.8211   27.4042 C   0  0  0  0  0  0  0  0  0  0  0  0
  -24.7038  -30.1659   21.1322 C   0  0  0  0  0  0  0  0  0  0  0  0
  -23.2334  -27.6424   20.6691 C   0  0  0  0  0  0  0  0  0  0  0  0
  -23.9584  -31.3774   26.8039 C   0  0  0  0  0  0  0  0  0  0  0  0
  -27.6894  -15.2222   18.4176 C   0  0  0  0  0  0  0  0  0  0  0  0
  -23.9987  -29.8932   26.4542 C   0  0  0  0  0  0  0  0  0  0  0  0
  -27.0701  -13.9349   18.9630 C   0  0  0  0  0  0  0  0  0  0  0  0
  -27.6070  -16.3541   19.4372 C   0  0  0  0  0  0  0  0  0  0  0  0
  -27.5975  -14.7389   21.3092 C   0  0  0  0  0  0  0  0  0  0  0  0
  -25.0769  -29.6030   25.4031 C   0  0  1  0  0  0  0  0  0  0  0  0
  -23.4804  -29.7857   21.9605 C   0  0  1  0  0  0  0  0  0  0  0  0
  -27.6788  -13.5580   20.3263 C   0  0  1  0  0  0  0  0  0  0  0  0
  -17.6798  -27.9307   17.1735 C   0  0  0  0  0  0  0  0  0  0  0  0
  -20.2910  -26.6498   23.1243 C   0  0  0  0  0  0  0  0  0  0  0  0
  -18.6663  -26.0426   21.3189 C   0  0  0  0  0  0  0  0  0  0  0  0
  -18.4822  -28.2480   22.4699 C   0  0  0  0  0  0  0  0  0  0  0  0
  -30.4155  -21.6410   17.6511 C   0  0  0  0  0  0  0  0  0  0  0  0
  -32.3216  -21.8207   19.2368 C   0  0  0  0  0  0  0  0  0  0  0  0
  -30.9860  -24.3052   20.5660 C   0  0  0  0  0  0  0  0  0  0  0  0
  -31.4571  -24.5323   18.1356 C   0  0  0  0  0  0  0  0  0  0  0  0
  -28.0478  -18.5772   23.0139 C   0  0  0  0  0  0  0  0  0  0  0  0
  -26.9059  -19.5632   20.9882 C   0  0  0  0  0  0  0  0  0  0  0  0
  -28.3823  -20.9642   22.4117 C   0  0  0  0  0  0  0  0  0  0  0  0
  -20.9276  -29.6774   16.2371 C   0  0  0  0  0  0  0  0  0  0  0  0
  -29.9863  -21.4054   20.1508 C   0  0  0  0  0  0  0  0  0  0  0  0
  -29.0830  -24.1346   18.9015 C   0  0  0  0  0  0  0  0  0  0  0  0
  -28.7098  -25.6173   18.9539 C   0  0  0  0  0  0  0  0  0  1  0  0
  -20.3760  -27.8538   20.8419 C   0  0  1  0  0  0  0  0  0  0  0  0
  -18.9584  -28.7123   17.4327 C   0  0  2  0  0  0  0  0  0  0  0  0
  -19.4817  -27.2004   21.9332 C   0  0  0  0  0  0  0  0  0  0  0  0
  -30.8204  -22.1662   19.0539 C   0  0  0  0  0  0  0  0  0  0  0  0
  -30.5839  -23.7706   19.1667 C   0  0  0  0  0  0  0  0  0  0  0  0
  -28.2080  -19.5438   21.8195 C   0  0  0  0  0  0  0  0  0  0  0  0
  -25.7533  -12.0489   20.6377 N   0  0  0  0  0  0  0  0  0  0  0  0
  -30.7745  -17.8402   19.9847 N   0  0  0  0  0  0  0  0  0  0  0  0
  -31.0145  -19.1502   19.6211 N   0  0  0  0  0  0  0  0  0  0  0  0
  -27.0474  -12.3019   20.8972 N   0  0  0  0  0  0  0  0  0  0  0  0
  -29.3088  -19.1155   20.9911 N   0  0  0  0  0  0  0  0  0  0  0  0
  -28.1909  -15.9406   20.7195 N   0  0  0  0  0  0  0  0  0  0  0  0
  -22.6084  -28.8299   21.2748 N   0  0  0  0  0  0  0  0  0  0  0  0
  -28.9479  -11.4539   22.0285 N   0  0  0  0  0  0  0  0  0  0  0  0
  -25.7580   -8.3779   22.8998 N   0  0  0  0  0  0  0  0  0  0  0  0
  -24.6175  -29.9923   24.0871 N   0  0  0  0  0  0  0  0  0  0  0  0
  -19.6342  -28.4081   19.7146 N   0  0  0  0  0  0  0  0  0  0  0  0
  -19.6637  -28.9035   16.1339 N   0  3  0  0  0  0  0  0  0  0  0  0
  -27.9482   -8.9460   23.2727 O   0  0  0  0  0  0  0  0  0  0  0  0
  -29.6935  -16.2737   22.4805 O   0  0  0  0  0  0  0  0  0  0  0  0
  -23.4481  -28.0489   23.5597 O   0  0  0  0  0  0  0  0  0  0  0  0
  -20.6652  -29.9622   21.8895 O   0  0  0  0  0  0  0  0  0  0  0  0
  -20.6726  -27.1364   18.0770 O   0  0  0  0  0  0  0  0  0  0  0  0
  -20.4803   -8.5119   21.1213 O   0  0  0  0  0  0  0  0  0  0  0  0
  -27.3083  -25.7364   18.7276 O   0  0  0  0  0  0  0  0  0  1  0  0
  -18.4108   -6.5795   25.8528 F   0  0  0  0  0  0  0  0  0  0  0  0
  -21.7971   -6.5421   22.5456 F   0  0  0  0  0  0  0  0  0  0  0  0
  1  2  1  0  0  0  0
  1  5  2  0  0  0  0
  2  6  2  0  0  0  0
  3  8  2  0  0  0  0
  3 15  1  0  0  0  0
  4  9  1  0  0  0  0
  4 15  2  0  0  0  0
  5 17  1  0  0  0  0
  6 19  1  0  0  0  0
  7 10  2  0  0  0  0
  7 18  1  0  0  0  0
  8 21  1  0  0  0  0
  9 21  2  0  0  0  0
 10 22  1  0  0  0  0
 11 12  2  0  0  0  0
 11 23  1  0  0  0  0
 12 24  1  0  0  0  0
 13 20  1  0  0  0  0
 13 22  2  0  0  0  0
 14 24  2  0  0  0  0
 14 25  1  0  0  0  0
 15 26  1  0  0  0  0
 16 26  1  0  0  0  0
 16 27  2  0  0  0  0
 16 30  1  0  0  0  0
 17 19  2  0  0  0  0
 17 35  1  0  0  0  0
 18 20  2  0  0  0  0
 18 36  1  0  0  0  0
 19 44  1  0  0  0  0
 20 37  1  0  0  0  0
 21 85  1  0  0  0  0
 22 86  1  0  0  0  0
 23 25  2  0  0  0  0
 23 85  1  0  0  0  0
 24 87  1  0  0  0  0
 25 88  1  0  0  0  0
 26 68  2  0  0  0  0
 27 71  1  0  0  0  0
 27 75  1  0  0  0  0
 28 31  1  0  0  0  0
 28 69  2  0  0  0  0
 28 72  1  0  0  0  0
 29 59  1  0  0  0  0
 29 70  2  0  0  0  0
 29 72  1  0  0  0  0
 30 76  1  0  0  0  0
 30 80  2  0  0  0  0
 31 73  1  0  0  0  0
 31 81  2  0  0  0  0
 32 45  1  0  0  0  0
 32 77  1  0  0  0  0
 32 82  2  0  0  0  0
 33 62  1  0  0  0  0
 33 74  1  0  0  0  0
 33 83  2  0  0  0  0
 34 63  1  0  0  0  0
 34 78  1  0  0  0  0
 34 84  2  0  0  0  0
 35 38  1  0  0  0  0
 36 45  1  0  0  0  0
 37 74  1  0  0  0  0
 38 40  1  0  0  0  0
 39 41  1  0  0  0  0
 39 42  1  0  0  0  0
 40 44  1  0  0  0  0
 41 46  1  0  0  0  0
 42 73  1  0  0  0  0
 43 46  1  0  0  0  0
 43 73  1  0  0  0  0
 44 77  1  0  0  0  0
 45 74  1  0  0  0  0
 46 71  1  0  0  0  0
 47 63  1  0  0  0  0
 48 64  1  0  0  0  0
 49 64  1  0  0  0  0
 50 64  1  0  0  0  0
 51 65  1  0  0  0  0
 52 65  1  0  0  0  0
 53 66  1  0  0  0  0
 54 66  1  0  0  0  0
 55 67  1  0  0  0  0
 56 67  1  0  0  0  0
 57 67  1  0  0  0  0
 58 79  1  0  0  0  0
 59 65  1  0  0  0  0
 60 61  1  0  0  0  0
 60 66  1  0  0  0  0
 61 86  1  0  0  0  0
 62 64  1  0  0  0  0
 62 78  1  0  0  0  0
 63 79  1  0  0  0  0
 65 66  1  0  0  0  0
 67 72  1  0  0  0  0
 68 71  1  0  0  0  0
 69 70  1  0  0  0  0
M  CHG  1  79   1
M  ISO  4  28 100  31 100  61 101  86 101
M  END
> <Batch ID>
0065

> <Smiles>
CNC(C)C(=O)NC(C(=O)N1Cc2cc([101O:1][101CH2:1]CC(C)(C)C(C)(C)Cc3nn[100c:0]([100C:0](=O)N4CCCC(n5nc(-c6ccc(Oc7ccc(F)cc7F)cc6)c(C(N)=O)c5N)C4)n3C(C)(C)C)ccc2CC1C(=O)NC1CCCc2ccccc21)C(C)(C)C

> <Shape>
0.311

> <Color>
0.073

> <Negative vol penalty>
0.000

$$$$

  -OEChem-04052318073D

 90 98  0     1  0  0  0  0  0999 V2000
  -22.4561  -11.7074   19.9901 C   0  0  0  0  0  0  0  0  0  0  0  0
  -22.2586  -12.6631   20.9816 C   0  0  0  0  0  0  0  0  0  0  0  0
  -21.7862  -24.2442   16.8424 C   0  0  0  0  0  0  0  0  0  0  0  0
  -20.7037  -26.3346   17.3861 C   0  0  0  0  0  0  0  0  0  0  0  0
  -23.7008  -11.5924   19.3725 C   0  0  0  0  0  0  0  0  0  0  0  0
  -23.3060  -13.5037   21.3567 C   0  0  0  0  0  0  0  0  0  0  0  0
  -22.6835  -20.6616   20.8390 C   0  0  0  0  0  0  0  0  0  0  0  0
  -20.5873  -23.5661   17.0624 C   0  0  0  0  0  0  0  0  0  0  0  0
  -19.5047  -25.6565   17.6060 C   0  0  0  0  0  0  0  0  0  0  0  0
  -22.5651  -22.0456   20.9681 C   0  0  0  0  0  0  0  0  0  0  0  0
  -18.7975  -22.4667   19.7105 C   0  0  0  0  0  0  0  0  0  0  0  0
  -18.8471  -21.2894   20.4568 C   0  0  0  0  0  0  0  0  0  0  0  0
  -24.8603  -22.1828   21.7172 C   0  0  0  0  0  0  0  0  0  0  0  0
  -17.9506  -20.0613   18.5793 C   0  0  0  0  0  0  0  0  0  0  0  0
  -24.5698  -29.2663   22.7822 C   0  0  0  0  0  0  0  0  0  0  0  0
  -22.4870  -29.1446   21.1165 C   0  0  0  0  0  0  0  0  0  0  0  0
  -21.8444  -25.6284   17.0043 C   0  0  0  0  0  0  0  0  0  0  0  0
  -23.5380  -26.8807   15.5652 C   0  0  0  0  0  0  0  0  0  0  0  0
  -24.7612  -12.4385   19.7334 C   0  0  0  0  0  0  0  0  0  0  0  0
  -23.8969  -20.0340   21.1342 C   0  0  0  0  0  0  0  0  0  0  0  0
  -24.5664  -13.3991   20.7442 C   0  0  0  0  0  0  0  0  0  0  0  0
  -24.9886  -20.7983   21.5778 C   0  0  0  0  0  0  0  0  0  0  0  0
  -19.4465  -24.2723   17.4441 C   0  0  0  0  0  0  0  0  0  0  0  0
  -23.6508  -22.8043   21.4064 C   0  0  0  0  0  0  0  0  0  0  0  0
  -18.3243  -22.4414   18.3985 C   0  0  0  0  0  0  0  0  0  0  0  0
  -18.4237  -20.0867   19.8912 C   0  0  0  0  0  0  0  0  0  0  0  0
  -17.9009  -21.2387   17.8329 C   0  0  0  0  0  0  0  0  0  0  0  0
  -23.0828  -26.3294   16.7779 C   0  0  0  0  0  0  0  0  0  0  0  0
  -24.6543  -29.7649   21.5008 C   0  0  0  0  0  0  0  0  0  0  0  0
  -22.4027  -28.6453   22.3975 C   0  0  0  0  0  0  0  0  0  0  0  0
  -24.7571  -27.4324   15.8751 C   0  0  0  0  0  0  0  0  0  0  0  0
  -22.9147  -26.8932   14.2741 C   0  0  0  0  0  0  0  0  0  0  0  0
  -25.8315  -16.8243   21.3101 C   0  0  0  0  0  0  0  0  0  0  0  0
  -27.7311  -18.9485   20.1746 C   0  0  0  0  0  0  0  0  0  0  0  0
  -27.0648  -29.4113   21.0588 C   0  0  0  0  0  0  0  0  0  0  0  0
  -29.3690  -21.4718   18.5659 C   0  0  0  0  0  0  0  0  0  0  0  0
  -26.1021  -12.2450   19.0708 C   0  0  0  0  0  0  0  0  0  0  0  0
  -24.0514  -18.5388   21.0684 C   0  0  0  0  0  0  0  0  0  0  0  0
  -26.2640  -20.0762   21.9170 C   0  0  0  0  0  0  0  0  0  0  0  0
  -27.0523  -13.4242   19.2630 C   0  0  0  0  0  0  0  0  0  0  0  0
  -28.4482  -26.9374   18.8665 C   0  0  0  0  0  0  0  0  0  0  0  0
  -27.0609  -13.8706   20.7216 C   0  0  0  0  0  0  0  0  0  0  0  0
  -27.2636  -26.5307   17.9911 C   0  0  0  0  0  0  0  0  0  0  0  0
  -28.0061  -27.2575   20.2910 C   0  0  0  0  0  0  0  0  0  0  0  0
  -25.7484  -27.8907   19.5010 C   0  0  0  0  0  0  0  0  0  0  0  0
  -25.6708  -14.3458   21.1613 C   0  0  1  0  0  0  0  0  0  0  0  0
  -25.4528  -18.0965   20.6105 C   0  0  1  0  0  0  0  0  0  0  0  0
  -26.1471  -27.5884   18.0457 C   0  0  2  0  0  0  0  0  0  0  0  0
  -20.0428  -25.1673   25.6965 C   0  0  0  0  0  0  0  0  0  0  0  0
  -21.2542  -28.6373   26.1553 C   0  0  0  0  0  0  0  0  0  0  0  0
  -31.5644  -22.0172   17.4796 C   0  0  0  0  0  0  0  0  0  0  0  0
  -26.3127  -31.6061   21.8909 C   0  0  0  0  0  0  0  0  0  0  0  0
  -25.9117  -30.8804   19.5358 C   0  0  0  0  0  0  0  0  0  0  0  0
  -20.3054  -27.3354   21.7241 C   0  0  0  0  0  0  0  0  0  0  0  0
  -20.1402  -29.1695   23.3275 C   0  0  0  0  0  0  0  0  0  0  0  0
  -29.0159  -19.2393   22.9257 C   0  0  0  0  0  0  0  0  0  0  0  0
  -30.7951  -20.6476   21.8675 C   0  0  0  0  0  0  0  0  0  0  0  0
  -30.5121  -18.2686   21.1725 C   0  0  0  0  0  0  0  0  0  0  0  0
  -28.0826  -21.9643   15.9465 C   0  0  0  0  0  0  0  0  0  0  0  0
  -19.9823  -26.2586   24.6345 C   0  0  0  0  0  0  0  0  0  0  0  0
  -22.0117  -27.5529   25.3980 C   0  0  0  0  0  0  0  0  0  0  0  0
  -23.6154  -26.0520   23.0295 C   0  0  0  0  0  0  0  0  0  0  0  0
  -22.2350  -25.7133   23.6177 C   0  0  0  0  0  0  0  0  0  0  0  0
  -24.3204  -24.7947   22.5255 C   0  0  0  0  0  0  0  0  0  1  0  0
  -28.7921  -19.9803   20.4626 C   0  0  1  0  0  0  0  0  0  0  0  0
  -30.1516  -21.4968   17.2654 C   0  0  2  0  0  0  0  0  0  0  0  0
  -25.9159  -30.3870   21.0135 C   0  0  0  0  0  0  0  0  0  0  0  0
  -21.0790  -27.9930   22.9090 C   0  0  0  0  0  0  0  0  0  0  0  0
  -29.7514  -19.5411   21.6047 C   0  0  0  0  0  0  0  0  0  0  0  0
  -21.3341  -26.9103   24.1279 C   0  0  0  0  0  0  0  0  0  0  0  0
  -23.6144  -29.7133   20.6451 N   0  0  0  0  0  0  0  0  0  0  0  0
  -23.4426  -28.6972   23.2534 N   0  0  0  0  0  0  0  0  0  0  0  0
  -23.9427  -26.5138   17.7831 N   0  0  0  0  0  0  0  0  0  0  0  0
  -24.9506  -27.1872   17.2027 N   0  0  0  0  0  0  0  0  0  0  0  0
  -26.5410  -19.0439   20.9060 N   0  0  0  0  0  0  0  0  0  0  0  0
  -26.9293  -28.2493   20.2988 N   0  0  0  0  0  0  0  0  0  0  0  0
  -25.6717  -28.0984   15.1387 N   0  0  0  0  0  0  0  0  0  0  0  0
  -21.6621  -26.2809   14.1310 N   0  0  0  0  0  0  0  0  0  0  0  0
  -25.4109  -15.6789   20.6615 N   0  0  0  0  0  0  0  0  0  0  0  0
  -29.4581  -20.2465   19.1921 N   0  0  0  0  0  0  0  0  0  0  0  0
  -29.4735  -22.3741   16.2696 N   0  3  0  0  0  0  0  0  0  0  0  0
  -23.4599  -27.4170   13.2732 O   0  0  0  0  0  0  0  0  0  0  0  0
  -26.4604  -16.8765   22.3605 O   0  0  0  0  0  0  0  0  0  0  0  0
  -27.9510  -18.0771   19.3287 O   0  0  0  0  0  0  0  0  0  0  0  0
  -28.0535  -29.6770   21.7473 O   0  0  0  0  0  0  0  0  0  0  0  0
  -28.7444  -22.4432   18.9863 O   0  0  0  0  0  0  0  0  0  0  0  0
  -18.2764  -23.6109   17.6586 O   0  0  0  0  0  0  0  0  0  0  0  0
  -23.5289  -24.1652   21.5268 O   0  0  0  0  0  0  0  0  0  1  0  0
  -18.4729  -18.9560   20.6076 F   0  0  0  0  0  0  0  0  0  0  0  0
  -17.4465  -21.2079   16.5726 F   0  0  0  0  0  0  0  0  0  0  0  0
  1  2  1  0  0  0  0
  1  5  2  0  0  0  0
  2  6  2  0  0  0  0
  3  8  2  0  0  0  0
  3 17  1  0  0  0  0
  4  9  1  0  0  0  0
  4 17  2  0  0  0  0
  5 19  1  0  0  0  0
  6 21  1  0  0  0  0
  7 10  2  0  0  0  0
  7 20  1  0  0  0  0
  8 23  1  0  0  0  0
  9 23  2  0  0  0  0
 10 24  1  0  0  0  0
 11 12  2  0  0  0  0
 11 25  1  0  0  0  0
 12 26  1  0  0  0  0
 13 22  1  0  0  0  0
 13 24  2  0  0  0  0
 14 26  2  0  0  0  0
 14 27  1  0  0  0  0
 15 29  2  0  0  0  0
 15 72  1  0  0  0  0
 16 30  1  0  0  0  0
 16 71  2  0  0  0  0
 17 28  1  0  0  0  0
 18 28  1  0  0  0  0
 18 31  2  0  0  0  0
 18 32  1  0  0  0  0
 19 21  2  0  0  0  0
 19 37  1  0  0  0  0
 20 22  2  0  0  0  0
 20 38  1  0  0  0  0
 21 46  1  0  0  0  0
 22 39  1  0  0  0  0
 23 87  1  0  0  0  0
 24 88  1  0  0  0  0
 25 27  2  0  0  0  0
 25 87  1  0  0  0  0
 26 89  1  0  0  0  0
 27 90  1  0  0  0  0
 28 73  2  0  0  0  0
 29 67  1  0  0  0  0
 29 71  1  0  0  0  0
 30 68  1  0  0  0  0
 30 72  2  0  0  0  0
 31 74  1  0  0  0  0
 31 77  1  0  0  0  0
 32 78  1  0  0  0  0
 32 82  2  0  0  0  0
 33 47  1  0  0  0  0
 33 79  1  0  0  0  0
 33 83  2  0  0  0  0
 34 65  1  0  0  0  0
 34 75  1  0  0  0  0
 34 84  2  0  0  0  0
 35 67  1  0  0  0  0
 35 76  1  0  0  0  0
 35 85  2  0  0  0  0
 36 66  1  0  0  0  0
 36 80  1  0  0  0  0
 36 86  2  0  0  0  0
 37 40  1  0  0  0  0
 38 47  1  0  0  0  0
 39 75  1  0  0  0  0
 40 42  1  0  0  0  0
 41 43  1  0  0  0  0
 41 44  1  0  0  0  0
 42 46  1  0  0  0  0
 43 48  1  0  0  0  0
 44 76  1  0  0  0  0
 45 48  1  0  0  0  0
 45 76  1  0  0  0  0
 46 79  1  0  0  0  0
 47 75  1  0  0  0  0
 48 74  1  0  0  0  0
 49 60  1  0  0  0  0
 50 61  1  0  0  0  0
 51 66  1  0  0  0  0
 52 67  1  0  0  0  0
 53 67  1  0  0  0  0
 54 68  1  0  0  0  0
 55 68  1  0  0  0  0
 56 69  1  0  0  0  0
 57 69  1  0  0  0  0
 58 69  1  0  0  0  0
 59 81  1  0  0  0  0
 60 70  1  0  0  0  0
 61 70  1  0  0  0  0
 62 63  1  0  0  0  0
 62 64  1  0  0  0  0
 63 70  1  0  0  0  0
 64 88  1  0  0  0  0
 65 69  1  0  0  0  0
 65 80  1  0  0  0  0
 66 81  1  0  0  0  0
 68 70  1  0  0  0  0
 73 74  1  0  0  0  0
M  CHG  1  81   1
M  ISO  4  35 100  64 101  67 100  88 101
M  END
> <Batch ID>
0065

> <Smiles>
CCC(CC)(CC[101CH2:1][101O:1]c1ccc2c(c1)CN(C(=O)C(NC(=O)C(C)NC)C(C)(C)C)C(C(=O)NC1CCCc3ccccc31)C2)C(C)(C)c1cnc([100C:0](C)(C)[100C:0](=O)N2CCCC(n3nc(-c4ccc(Oc5ccc(F)cc5F)cc4)c(C(N)=O)c3N)C2)cn1

> <Shape>
0.200

> <Color>
0.037

> <Negative vol penalty>
0.000

$$$$

  -OEChem-04052318072D

  0  0  0     0  0  0  0  0  0999 V2000
M  END
$$$$

  -OEChem-04052318073D

 90 98  0     1  0  0  0  0  0999 V2000
  -26.6521  -37.8576   19.8118 C   0  0  0  0  0  0  0  0  0  0  0  0
  -27.2133  -36.6146   19.5372 C   0  0  0  0  0  0  0  0  0  0  0  0
  -25.4652  -13.9699   20.3691 C   0  0  0  0  0  0  0  0  0  0  0  0
  -26.4638  -13.3869   18.2478 C   0  0  0  0  0  0  0  0  0  0  0  0
  -25.8585  -38.0278   20.9455 C   0  0  0  0  0  0  0  0  0  0  0  0
  -26.9820  -35.5412   20.3967 C   0  0  0  0  0  0  0  0  0  0  0  0
  -26.3862  -29.6463   18.8473 C   0  0  0  0  0  0  0  0  0  0  0  0
  -32.5054  -20.8999   16.4917 C   0  0  0  0  0  0  0  0  0  0  0  0
  -24.5697  -12.9085   20.2393 C   0  0  0  0  0  0  0  0  0  0  0  0
  -25.5682  -12.3254   18.1180 C   0  0  0  0  0  0  0  0  0  0  0  0
  -27.2800  -28.5765   18.8663 C   0  0  0  0  0  0  0  0  0  0  0  0
  -24.6033   -9.5545   20.6667 C   0  0  0  0  0  0  0  0  0  0  0  0
  -24.3917   -8.7448   21.7826 C   0  0  0  0  0  0  0  0  0  0  0  0
  -32.1823  -20.8842   15.1395 C   0  0  0  0  0  0  0  0  0  0  0  0
  -26.4252  -27.9084   21.0209 C   0  0  0  0  0  0  0  0  0  0  0  0
  -22.0454   -9.3204   21.7553 C   0  0  0  0  0  0  0  0  0  0  0  0
  -26.4123  -14.2092   19.3733 C   0  0  0  0  0  0  0  0  0  0  0  0
  -28.6078  -15.2775   20.1122 C   0  0  0  0  0  0  0  0  0  0  0  0
  -25.6095  -36.9535   21.8142 C   0  0  0  0  0  0  0  0  0  0  0  0
  -25.5112  -29.8619   19.9217 C   0  0  0  0  0  0  0  0  0  0  0  0
  -26.1855  -35.6975   21.5438 C   0  0  0  0  0  0  0  0  0  0  0  0
  -25.5195  -28.9802   21.0119 C   0  0  0  0  0  0  0  0  0  0  0  0
  -31.6291  -21.4779   17.4036 C   0  0  0  0  0  0  0  0  0  0  0  0
  -24.6212  -12.0862   19.1138 C   0  0  0  0  0  0  0  0  0  0  0  0
  -27.3017  -27.7090   19.9545 C   0  0  0  0  0  0  0  0  0  0  0  0
  -23.5360  -10.2473   20.0952 C   0  0  0  0  0  0  0  0  0  0  0  0
  -23.1127   -8.6277   22.3269 C   0  0  0  0  0  0  0  0  0  0  0  0
  -22.2571  -10.1302   20.6394 C   0  0  0  0  0  0  0  0  0  0  0  0
  -27.3373  -15.3059   19.5066 C   0  0  0  0  0  0  0  0  0  0  0  0
  -30.9803  -21.4552   14.7532 C   0  0  0  0  0  0  0  0  0  0  0  0
  -30.4521  -22.0225   16.9159 C   0  0  0  0  0  0  0  0  0  0  0  0
  -29.0796  -16.5607   19.9807 C   0  0  0  0  0  0  0  0  0  0  0  0
  -29.2997  -14.1886   20.7377 C   0  0  0  0  0  0  0  0  0  0  0  0
  -25.0748  -32.2062   22.0235 C   0  0  0  0  0  0  0  0  0  0  0  0
  -22.5223  -30.4109   22.9088 C   0  0  0  0  0  0  0  0  0  0  0  0
  -21.0431  -27.3376   23.0272 C   0  0  0  0  0  0  0  0  0  0  0  0
  -27.3841  -20.7510   15.9205 C   0  0  0  0  0  0  0  0  0  0  0  0
  -24.7839  -37.1976   23.0525 C   0  0  0  0  0  0  0  0  0  0  0  0
  -24.5346  -31.0049   19.8739 C   0  0  0  0  0  0  0  0  0  0  0  0
  -24.5866  -29.1561   22.1812 C   0  0  0  0  0  0  0  0  0  0  0  0
  -24.2808  -35.9159   23.7115 C   0  0  0  0  0  0  0  0  0  0  0  0
  -27.6033  -21.0886   19.6393 C   0  0  0  0  0  0  0  0  0  0  0  0
  -25.4086  -34.8950   23.8238 C   0  0  0  0  0  0  0  0  0  0  0  0
  -27.5989  -19.6214   20.0660 C   0  0  0  0  0  0  0  0  0  0  0  0
  -26.8478  -21.2849   18.3305 C   0  0  0  0  0  0  0  0  0  0  0  0
  -27.3501  -18.9675   17.6277 C   0  0  0  0  0  0  0  0  0  0  0  0
  -25.9375  -34.5027   22.4389 C   0  0  1  0  0  0  0  0  0  0  0  0
  -24.0438  -31.4296   21.2545 C   0  0  1  0  0  0  0  0  0  0  0  0
  -28.1200  -18.7181   18.9353 C   0  0  2  0  0  0  0  0  0  0  0  0
  -31.9655  -21.5005   18.8543 C   0  0  0  0  0  0  0  0  0  0  0  0
  -18.9741  -26.1775   23.8463 C   0  0  0  0  0  0  0  0  0  0  0  0
  -31.2069  -20.2031   12.5570 C   0  0  0  0  0  0  0  0  0  0  0  0
  -31.2768  -22.6492   12.5186 C   0  0  0  0  0  0  0  0  0  0  0  0
  -23.5950  -30.5185   25.7632 C   0  0  0  0  0  0  0  0  0  0  0  0
  -22.0742  -28.6129   26.3324 C   0  0  0  0  0  0  0  0  0  0  0  0
  -21.1160  -30.7861   25.5696 C   0  0  0  0  0  0  0  0  0  0  0  0
  -28.3183  -22.7830   13.6575 C   0  0  0  0  0  0  0  0  0  0  0  0
  -28.6564  -21.5252   11.5376 C   0  0  0  0  0  0  0  0  0  0  0  0
  -29.3857  -19.2295   15.6414 C   0  0  0  0  0  0  0  0  0  0  0  0
  -20.2841  -26.5082   20.2895 C   0  0  0  0  0  0  0  0  0  0  0  0
  -28.8799  -24.6290   18.8897 C   0  0  0  0  0  0  0  0  0  0  0  0
  -28.2928  -20.2563   13.6824 C   0  0  0  0  0  0  0  0  0  0  0  0
  -28.5444  -26.1021   18.7178 C   0  0  0  0  0  0  0  0  0  1  0  0
  -29.2635  -23.9753   17.5714 C   0  0  0  0  0  0  0  0  0  0  0  0
  -22.2918  -29.2956   23.8998 C   0  0  1  0  0  0  0  0  0  0  0  0
  -19.6391  -26.8812   22.6736 C   0  0  2  0  0  0  0  0  0  0  0  0
  -30.6010  -21.4562   13.3101 C   0  0  0  0  0  0  0  0  0  0  0  0
  -22.2883  -29.8008   25.3703 C   0  0  0  0  0  0  0  0  0  0  0  0
  -28.9783  -21.5134   13.0553 C   0  0  0  0  0  0  0  0  0  0  0  0
  -27.0218  -16.5116   19.0262 N   0  0  0  0  0  0  0  0  0  0  0  0
  -30.1038  -22.0259   15.6097 N   0  0  0  0  0  0  0  0  0  0  0  0
  -28.1009  -17.2528   19.3299 N   0  0  0  0  0  0  0  0  0  0  0  0
  -23.6546  -30.2921   22.0905 N   0  0  0  0  0  0  0  0  0  0  0  0
  -27.3454  -20.3897   17.2773 N   0  0  0  0  0  0  0  0  0  0  0  0
  -30.2319  -17.1534   20.3594 N   0  0  0  0  0  0  0  0  0  0  0  0
  -28.6706  -12.9372   20.7864 N   0  0  0  0  0  0  0  0  0  0  0  0
  -25.0355  -33.5691   21.7992 N   0  0  0  0  0  0  0  0  0  0  0  0
  -21.0563  -28.6358   23.4917 N   0  0  0  0  0  0  0  0  0  0  0  0
  -28.3878  -20.1677   15.1326 N   0  0  0  0  0  0  0  0  0  0  0  0
  -19.6761  -25.9388   21.5197 N   0  3  0  0  0  0  0  0  0  0  0  0
  -30.4351  -14.3255   21.2532 O   0  0  0  0  0  0  0  0  0  0  0  0
  -25.8479  -31.6129   22.7666 O   0  0  0  0  0  0  0  0  0  0  0  0
  -21.7231  -31.3491   22.8575 O   0  0  0  0  0  0  0  0  0  0  0  0
  -22.0290  -26.6136   22.9072 O   0  0  0  0  0  0  0  0  0  0  0  0
  -26.5620  -21.5411   15.4389 O   0  0  0  0  0  0  0  0  0  0  0  0
  -23.7476  -11.0502   18.9869 O   0  0  0  0  0  0  0  0  0  0  0  0
  -28.1735  -26.6644   19.9758 O   0  0  0  0  0  0  0  0  0  1  0  0
  -29.5627  -22.6021   17.7830 O   0  0  0  0  0  0  0  0  0  0  0  0
  -22.9094   -7.8489   23.3975 F   0  0  0  0  0  0  0  0  0  0  0  0
  -21.2276  -10.7924   20.0940 F   0  0  0  0  0  0  0  0  0  0  0  0
  1  2  1  0  0  0  0
  1  5  2  0  0  0  0
  2  6  2  0  0  0  0
  3  9  2  0  0  0  0
  3 17  1  0  0  0  0
  4 10  1  0  0  0  0
  4 17  2  0  0  0  0
  5 19  1  0  0  0  0
  6 21  1  0  0  0  0
  7 11  2  0  0  0  0
  7 20  1  0  0  0  0
  8 14  2  0  0  0  0
  8 23  1  0  0  0  0
  9 24  1  0  0  0  0
 10 24  2  0  0  0  0
 11 25  1  0  0  0  0
 12 13  2  0  0  0  0
 12 26  1  0  0  0  0
 13 27  1  0  0  0  0
 14 30  1  0  0  0  0
 15 22  1  0  0  0  0
 15 25  2  0  0  0  0
 16 27  2  0  0  0  0
 16 28  1  0  0  0  0
 17 29  1  0  0  0  0
 18 29  1  0  0  0  0
 18 32  2  0  0  0  0
 18 33  1  0  0  0  0
 19 21  2  0  0  0  0
 19 38  1  0  0  0  0
 20 22  2  0  0  0  0
 20 39  1  0  0  0  0
 21 47  1  0  0  0  0
 22 40  1  0  0  0  0
 23 31  2  0  0  0  0
 23 50  1  0  0  0  0
 24 86  1  0  0  0  0
 25 87  1  0  0  0  0
 26 28  2  0  0  0  0
 26 86  1  0  0  0  0
 27 89  1  0  0  0  0
 28 90  1  0  0  0  0
 29 70  2  0  0  0  0
 30 67  1  0  0  0  0
 30 71  2  0  0  0  0
 31 71  1  0  0  0  0
 31 88  1  0  0  0  0
 32 72  1  0  0  0  0
 32 75  1  0  0  0  0
 33 76  1  0  0  0  0
 33 81  2  0  0  0  0
 34 48  1  0  0  0  0
 34 77  1  0  0  0  0
 34 82  2  0  0  0  0
 35 65  1  0  0  0  0
 35 73  1  0  0  0  0
 35 83  2  0  0  0  0
 36 66  1  0  0  0  0
 36 78  1  0  0  0  0
 36 84  2  0  0  0  0
 37 74  1  0  0  0  0
 37 79  1  0  0  0  0
 37 85  2  0  0  0  0
 38 41  1  0  0  0  0
 39 48  1  0  0  0  0
 40 73  1  0  0  0  0
 41 43  1  0  0  0  0
 42 44  1  0  0  0  0
 42 45  1  0  0  0  0
 43 47  1  0  0  0  0
 44 49  1  0  0  0  0
 45 74  1  0  0  0  0
 46 49  1  0  0  0  0
 46 74  1  0  0  0  0
 47 77  1  0  0  0  0
 48 73  1  0  0  0  0
 49 72  1  0  0  0  0
 51 66  1  0  0  0  0
 52 67  1  0  0  0  0
 53 67  1  0  0  0  0
 54 68  1  0  0  0  0
 55 68  1  0  0  0  0
 56 68  1  0  0  0  0
 57 69  1  0  0  0  0
 58 69  1  0  0  0  0
 59 79  1  0  0  0  0
 60 80  1  0  0  0  0
 61 63  1  0  0  0  0
 61 64  1  0  0  0  0
 62 69  1  0  0  0  0
 62 79  1  0  0  0  0
 63 87  1  0  0  0  0
 64 88  1  0  0  0  0
 65 68  1  0  0  0  0
 65 78  1  0  0  0  0
 66 80  1  0  0  0  0
 67 69  1  0  0  0  0
 70 72  1  0  0  0  0
M  CHG  1  80   1
M  ISO  4  37 100  63 101  79 100  87 101
M  END
> <Batch ID>
0065

> <Smiles>
CNC(C)C(=O)NC(C(=O)N1Cc2cc([101O:1][101CH2:1]CCOc3nc(C(C)(C)C(C)(C)C[100N:0](C)[100C:0](=O)N4CCCC(n5nc(-c6ccc(Oc7ccc(F)cc7F)cc6)c(C(N)=O)c5N)C4)ccc3C)ccc2CC1C(=O)NC1CCCc2ccccc21)C(C)(C)C

> <Shape>
0.280

> <Color>
0.088

> <Negative vol penalty>
0.000

$$$$

  -OEChem-04052318073D

 93101  0     1  0  0  0  0  0999 V2000
  -19.8031  -10.2052   21.5973 C   0  0  0  0  0  0  0  0  0  0  0  0
  -20.3192  -11.3340   22.2257 C   0  0  0  0  0  0  0  0  0  0  0  0
  -23.7872  -29.5669   20.3345 C   0  0  0  0  0  0  0  0  0  0  0  0
  -25.9508  -29.3774   21.3927 C   0  0  0  0  0  0  0  0  0  0  0  0
  -20.6650   -9.2824   21.0062 C   0  0  0  0  0  0  0  0  0  0  0  0
  -21.6977  -11.5402   22.2641 C   0  0  0  0  0  0  0  0  0  0  0  0
  -22.9799  -16.3131   21.1597 C   0  0  0  0  0  0  0  0  0  0  0  0
  -23.3872  -30.4748   21.3150 C   0  0  0  0  0  0  0  0  0  0  0  0
  -25.5509  -30.2854   22.3731 C   0  0  0  0  0  0  0  0  0  0  0  0
  -22.8167  -17.2651   22.1651 C   0  0  0  0  0  0  0  0  0  0  0  0
  -25.2007  -33.6334   22.6712 C   0  0  0  0  0  0  0  0  0  0  0  0
  -26.0949  -34.6461   23.0179 C   0  0  0  0  0  0  0  0  0  0  0  0
  -25.1742  -17.1374   22.6603 C   0  0  0  0  0  0  0  0  0  0  0  0
  -26.1206  -33.8432   25.2965 C   0  0  0  0  0  0  0  0  0  0  0  0
  -25.0690  -29.0182   20.3734 C   0  0  0  0  0  0  0  0  0  0  0  0
  -26.1083  -28.3732   18.1347 C   0  0  0  0  0  0  0  0  0  0  0  0
  -22.0543   -9.4823   21.0290 C   0  0  0  0  0  0  0  0  0  0  0  0
  -24.2416  -15.7571   20.9039 C   0  0  0  0  0  0  0  0  0  0  0  0
  -22.5792  -10.6185   21.6739 C   0  0  0  0  0  0  0  0  0  0  0  0
  -25.3512  -16.1804   21.6494 C   0  0  0  0  0  0  0  0  0  0  0  0
  -26.9014  -24.3107   23.9501 C   0  0  0  0  0  0  0  0  0  0  0  0
  -24.2690  -30.8341   22.3343 C   0  0  0  0  0  0  0  0  0  0  0  0
  -23.9134  -17.6753   22.9175 C   0  0  0  0  0  0  0  0  0  0  0  0
  -24.7663  -32.7255   23.6371 C   0  0  0  0  0  0  0  0  0  0  0  0
  -26.5549  -34.7510   24.3306 C   0  0  0  0  0  0  0  0  0  0  0  0
  -25.2263  -32.8305   24.9497 C   0  0  0  0  0  0  0  0  0  0  0  0
  -25.4826  -28.0798   19.3612 C   0  0  0  0  0  0  0  0  0  0  0  0
  -28.0205  -24.6231   23.2056 C   0  0  0  0  0  0  0  0  0  0  0  0
  -26.1553  -23.2456   23.4885 C   0  0  0  0  0  0  0  0  0  0  0  0
  -26.2921  -27.1482   17.5414 C   0  0  0  0  0  0  0  0  0  0  0  0
  -27.5829  -22.9355   21.7469 C   0  0  0  0  0  0  0  0  0  0  0  0
  -26.4893  -29.6398   17.5814 C   0  0  0  0  0  0  0  0  0  0  0  0
  -25.4704  -12.8285   21.0338 C   0  0  0  0  0  0  0  0  0  0  0  0
  -28.0648  -14.2810   19.7371 C   0  0  0  0  0  0  0  0  0  0  0  0
  -26.7484  -21.6099   19.8284 C   0  0  0  0  0  0  0  0  0  0  0  0
  -29.8369  -17.1580   19.2578 C   0  0  0  0  0  0  0  0  0  0  0  0
  -22.9488   -8.4331   20.4176 C   0  0  0  0  0  0  0  0  0  0  0  0
  -24.4058  -14.7509   19.7980 C   0  0  0  0  0  0  0  0  0  0  0  0
  -26.7306  -15.6291   21.4008 C   0  0  0  0  0  0  0  0  0  0  0  0
  -24.3766   -8.9158   20.1757 C   0  0  0  0  0  0  0  0  0  0  0  0
  -24.4279  -22.7544   17.3493 C   0  0  0  0  0  0  0  0  0  0  0  0
  -24.9088   -9.6459   21.4047 C   0  0  0  0  0  0  0  0  0  0  0  0
  -24.4710  -24.2752   17.4922 C   0  0  0  0  0  0  0  0  0  0  0  0
  -24.5960  -22.0618   18.6981 C   0  0  0  0  0  0  0  0  0  0  0  0
  -25.8745  -23.9864   19.5831 C   0  0  0  0  0  0  0  0  0  0  0  0
  -24.0674  -10.8898   21.7149 C   0  0  1  0  0  0  0  0  0  0  0  0
  -25.6420  -13.8732   19.9675 C   0  0  1  0  0  0  0  0  0  0  0  0
  -25.7392  -24.7245   18.2395 C   0  0  2  0  0  0  0  0  0  0  0  0
  -30.3655  -25.5095   23.2440 C   0  0  0  0  0  0  0  0  0  0  0  0
  -31.6253  -18.6676   18.3522 C   0  0  0  0  0  0  0  0  0  0  0  0
  -28.0840  -26.9565   26.2353 C   0  0  0  0  0  0  0  0  0  0  0  0
  -25.9592  -27.6179   25.1133 C   0  0  0  0  0  0  0  0  0  0  0  0
  -24.9793  -25.1281   25.4663 C   0  0  0  0  0  0  0  0  0  0  0  0
  -27.1187  -24.3591   26.4413 C   0  0  0  0  0  0  0  0  0  0  0  0
  -28.8837  -20.9723   20.8831 C   0  0  0  0  0  0  0  0  0  0  0  0
  -28.6881  -22.9784   19.4095 C   0  0  0  0  0  0  0  0  0  0  0  0
  -29.7111  -13.0980   22.0175 C   0  0  0  0  0  0  0  0  0  0  0  0
  -31.5286  -14.7260   21.4572 C   0  0  0  0  0  0  0  0  0  0  0  0
  -30.8232  -13.0207   19.7789 C   0  0  0  0  0  0  0  0  0  0  0  0
  -21.9589  -21.9313   24.1490 C   0  0  0  0  0  0  0  0  0  0  0  0
  -23.2799  -20.6904   25.8818 C   0  0  0  0  0  0  0  0  0  0  0  0
  -28.2294  -17.8172   16.8619 C   0  0  0  0  0  0  0  0  0  0  0  0
  -28.9050  -25.7567   23.6093 C   0  0  0  0  0  0  0  0  0  0  0  0
  -24.9080  -22.8110   24.2196 C   0  0  0  0  0  0  0  0  0  0  0  0
  -24.4196  -21.4417   23.7267 C   0  0  0  0  0  0  0  0  0  0  0  0
  -22.7218  -19.5699   23.7214 C   0  0  0  0  0  0  0  0  0  1  0  0
  -29.2919  -14.9674   20.2868 C   0  0  1  0  0  0  0  0  0  0  0  0
  -30.4475  -17.7688   18.0093 C   0  0  2  0  0  0  0  0  0  0  0  0
  -27.0866  -26.5720   25.1312 C   0  0  0  0  0  0  0  0  0  0  0  0
  -26.5252  -25.0717   25.1717 C   0  0  0  0  0  0  0  0  0  0  0  0
  -27.9628  -22.1700   20.5250 C   0  0  0  0  0  0  0  0  0  0  0  0
  -30.3125  -13.9622   20.8913 C   0  0  0  0  0  0  0  0  0  0  0  0
  -23.1020  -20.9234   24.3709 C   0  0  0  0  0  0  0  0  0  0  0  0
  -25.2822  -26.7711   19.5377 N   0  0  0  0  0  0  0  0  0  0  0  0
  -28.3923  -23.9541   22.0945 N   0  0  0  0  0  0  0  0  0  0  0  0
  -26.4680  -22.5332   22.3862 N   0  0  0  0  0  0  0  0  0  0  0  0
  -25.7848  -26.2313   18.4143 N   0  0  0  0  0  0  0  0  0  0  0  0
  -26.8388  -14.6431   20.3128 N   0  0  0  0  0  0  0  0  0  0  0  0
  -25.7996  -22.5320   19.3862 N   0  0  0  0  0  0  0  0  0  0  0  0
  -26.8366  -26.7767   16.3632 N   0  0  0  0  0  0  0  0  0  0  0  0
  -26.2271  -30.7993   18.3237 N   0  0  0  0  0  0  0  0  0  0  0  0
  -24.4105  -11.9695   20.8143 N   0  0  0  0  0  0  0  0  0  0  0  0
  -29.8264  -15.7804   19.1996 N   0  0  0  0  0  0  0  0  0  0  0  0
  -29.4326  -18.5813   17.2807 N   0  3  0  0  0  0  0  0  0  0  0  0
  -27.0311  -29.7416   16.4546 O   0  0  0  0  0  0  0  0  0  0  0  0
  -26.2433  -12.8027   21.9844 O   0  0  0  0  0  0  0  0  0  0  0  0
  -28.1888  -13.4593   18.8255 O   0  0  0  0  0  0  0  0  0  0  0  0
  -26.6491  -20.3891   19.6800 O   0  0  0  0  0  0  0  0  0  0  0  0
  -29.4152  -17.8351   20.1928 O   0  0  0  0  0  0  0  0  0  0  0  0
  -23.8791  -31.7202   23.2910 O   0  0  0  0  0  0  0  0  0  0  0  0
  -23.7568  -18.6039   23.8999 O   0  0  0  0  0  0  0  0  0  1  0  0
  -27.4148  -35.7227   24.6631 F   0  0  0  0  0  0  0  0  0  0  0  0
  -24.8135  -31.9606   25.8817 F   0  0  0  0  0  0  0  0  0  0  0  0
  1  2  1  0  0  0  0
  1  5  2  0  0  0  0
  2  6  2  0  0  0  0
  3  8  2  0  0  0  0
  3 15  1  0  0  0  0
  4  9  1  0  0  0  0
  4 15  2  0  0  0  0
  5 17  1  0  0  0  0
  6 19  1  0  0  0  0
  7 10  2  0  0  0  0
  7 18  1  0  0  0  0
  8 22  1  0  0  0  0
  9 22  2  0  0  0  0
 10 23  1  0  0  0  0
 11 12  2  0  0  0  0
 11 24  1  0  0  0  0
 12 25  1  0  0  0  0
 13 20  1  0  0  0  0
 13 23  2  0  0  0  0
 14 25  2  0  0  0  0
 14 26  1  0  0  0  0
 15 27  1  0  0  0  0
 16 27  1  0  0  0  0
 16 30  2  0  0  0  0
 16 32  1  0  0  0  0
 17 19  2  0  0  0  0
 17 37  1  0  0  0  0
 18 20  2  0  0  0  0
 18 38  1  0  0  0  0
 19 46  1  0  0  0  0
 20 39  1  0  0  0  0
 21 28  2  0  0  0  0
 21 29  1  0  0  0  0
 21 70  1  0  0  0  0
 22 90  1  0  0  0  0
 23 91  1  0  0  0  0
 24 26  2  0  0  0  0
 24 90  1  0  0  0  0
 25 92  1  0  0  0  0
 26 93  1  0  0  0  0
 27 74  2  0  0  0  0
 28 63  1  0  0  0  0
 28 75  1  0  0  0  0
 29 64  1  0  0  0  0
 29 76  2  0  0  0  0
 30 77  1  0  0  0  0
 30 80  1  0  0  0  0
 31 71  1  0  0  0  0
 31 75  2  0  0  0  0
 31 76  1  0  0  0  0
 32 81  1  0  0  0  0
 32 85  2  0  0  0  0
 33 47  1  0  0  0  0
 33 82  1  0  0  0  0
 33 86  2  0  0  0  0
 34 67  1  0  0  0  0
 34 78  1  0  0  0  0
 34 87  2  0  0  0  0
 35 71  1  0  0  0  0
 35 79  1  0  0  0  0
 35 88  2  0  0  0  0
 36 68  1  0  0  0  0
 36 83  1  0  0  0  0
 36 89  2  0  0  0  0
 37 40  1  0  0  0  0
 38 47  1  0  0  0  0
 39 78  1  0  0  0  0
 40 42  1  0  0  0  0
 41 43  1  0  0  0  0
 41 44  1  0  0  0  0
 42 46  1  0  0  0  0
 43 48  1  0  0  0  0
 44 79  1  0  0  0  0
 45 48  1  0  0  0  0
 45 79  1  0  0  0  0
 46 82  1  0  0  0  0
 47 78  1  0  0  0  0
 48 77  1  0  0  0  0
 49 63  1  0  0  0  0
 50 68  1  0  0  0  0
 51 69  1  0  0  0  0
 52 69  1  0  0  0  0
 53 70  1  0  0  0  0
 54 70  1  0  0  0  0
 55 71  1  0  0  0  0
 56 71  1  0  0  0  0
 57 72  1  0  0  0  0
 58 72  1  0  0  0  0
 59 72  1  0  0  0  0
 60 73  1  0  0  0  0
 61 73  1  0  0  0  0
 62 84  1  0  0  0  0
 64 65  1  0  0  0  0
 65 73  1  0  0  0  0
 66 73  1  0  0  0  0
 66 91  1  0  0  0  0
 67 72  1  0  0  0  0
 67 83  1  0  0  0  0
 68 84  1  0  0  0  0
 69 70  1  0  0  0  0
 74 77  1  0  0  0  0
M  CHG  1  84   1
M  ISO  4  35 100  66 101  71 100  91 101
M  END
> <Batch ID>
0065

> <Smiles>
CCc1nc([100C:0](C)(C)[100C:0](=O)N2CCCC(n3nc(-c4ccc(Oc5ccc(F)cc5F)cc4)c(C(N)=O)c3N)C2)nc(CCC(C)(C)[101CH2:1][101O:1]c2ccc3c(c2)CN(C(=O)C(NC(=O)C(C)NC)C(C)(C)C)C(C(=O)NC2CCCc4ccccc42)C3)c1C(C)(C)C(C)C

> <Shape>
0.248

> <Color>
0.046

> <Negative vol penalty>
0.000

$$$$

  -OEChem-04052318073D

 89 97  0     1  0  0  0  0  0999 V2000
  -20.9091  -32.2318   17.8574 C   0  0  0  0  0  0  0  0  0  0  0  0
  -22.1175  -31.6076   18.1497 C   0  0  0  0  0  0  0  0  0  0  0  0
  -26.6405  -12.0672   21.6807 C   0  0  0  0  0  0  0  0  0  0  0  0
  -25.7280  -13.6570   20.1069 C   0  0  0  0  0  0  0  0  0  0  0  0
  -19.9920  -32.4849   18.8766 C   0  0  0  0  0  0  0  0  0  0  0  0
  -22.4099  -31.2369   19.4618 C   0  0  0  0  0  0  0  0  0  0  0  0
  -24.3564  -26.5724   19.7749 C   0  0  0  0  0  0  0  0  0  0  0  0
  -25.4274  -11.3788   21.6888 C   0  0  0  0  0  0  0  0  0  0  0  0
  -24.5149  -12.9686   20.1149 C   0  0  0  0  0  0  0  0  0  0  0  0
  -25.7011  -26.4197   19.4397 C   0  0  0  0  0  0  0  0  0  0  0  0
  -23.8039   -9.1692   19.7102 C   0  0  0  0  0  0  0  0  0  0  0  0
  -23.8473   -7.7781   19.6181 C   0  0  0  0  0  0  0  0  0  0  0  0
  -26.2785  -26.4179   21.7819 C   0  0  0  0  0  0  0  0  0  0  0  0
  -22.7301   -7.6019   21.7530 C   0  0  0  0  0  0  0  0  0  0  0  0
  -31.7759  -20.7114   20.5735 C   0  0  0  0  0  0  0  0  0  0  0  0
  -26.7908  -13.2063   20.8898 C   0  0  0  0  0  0  0  0  0  0  0  0
  -29.1396  -13.7000   20.0254 C   0  0  0  0  0  0  0  0  0  0  0  0
  -20.2692  -32.1084   20.2003 C   0  0  0  0  0  0  0  0  0  0  0  0
  -23.9632  -26.6600   21.1181 C   0  0  0  0  0  0  0  0  0  0  0  0
  -21.4963  -31.4864   20.4999 C   0  0  0  0  0  0  0  0  0  0  0  0
  -24.9280  -26.5691   22.1315 C   0  0  0  0  0  0  0  0  0  0  0  0
  -32.3347  -21.6969   19.7970 C   0  0  0  0  0  0  0  0  0  0  0  0
  -24.3645  -11.8295   20.9059 C   0  0  0  0  0  0  0  0  0  0  0  0
  -26.6627  -26.3454   20.4431 C   0  0  0  0  0  0  0  0  0  0  0  0
  -23.2237   -9.7767   20.8237 C   0  0  0  0  0  0  0  0  0  0  0  0
  -23.3104   -6.9944   20.6395 C   0  0  0  0  0  0  0  0  0  0  0  0
  -22.6868   -8.9931   21.8451 C   0  0  0  0  0  0  0  0  0  0  0  0
  -28.0436  -13.9181   20.8815 C   0  0  0  0  0  0  0  0  0  0  0  0
  -31.2730  -22.1581   18.9958 C   0  0  0  0  0  0  0  0  0  0  0  0
  -30.0730  -14.6272   20.4196 C   0  0  0  0  0  0  0  0  0  0  0  0
  -29.2996  -12.7447   18.9683 C   0  0  0  0  0  0  0  0  0  0  0  0
  -22.5322  -28.8720   22.8967 C   0  0  0  0  0  0  0  0  0  0  0  0
  -22.5709  -26.5325   25.1434 C   0  0  0  0  0  0  0  0  0  0  0  0
  -29.5410  -19.9104   23.2332 C   0  0  0  0  0  0  0  0  0  0  0  0
  -24.0005  -23.6632   26.3141 C   0  0  0  0  0  0  0  0  0  0  0  0
  -19.2672  -32.4455   21.2759 C   0  0  0  0  0  0  0  0  0  0  0  0
  -22.5059  -26.7978   21.4639 C   0  0  0  0  0  0  0  0  0  0  0  0
  -24.5556  -26.6376   23.5893 C   0  0  0  0  0  0  0  0  0  0  0  0
  -19.4932  -31.6836   22.5792 C   0  0  0  0  0  0  0  0  0  0  0  0
  -31.5239  -17.1007   24.2399 C   0  0  0  0  0  0  0  0  0  0  0  0
  -20.9667  -31.7225   22.9717 C   0  0  0  0  0  0  0  0  0  0  0  0
  -30.9372  -15.9409   23.4363 C   0  0  0  0  0  0  0  0  0  0  0  0
  -30.4447  -18.0974   24.6511 C   0  0  0  0  0  0  0  0  0  0  0  0
  -29.0534  -17.4705   22.7035 C   0  0  0  0  0  0  0  0  0  0  0  0
  -21.8393  -31.0470   21.9068 C   0  0  1  0  0  0  0  0  0  0  0  0
  -22.2741  -27.3925   22.8495 C   0  0  1  0  0  0  0  0  0  0  0  0
  -30.1148  -16.4562   22.2419 C   0  0  2  0  0  0  0  0  0  0  0  0
  -33.3764  -23.9742   21.6528 C   0  0  0  0  0  0  0  0  0  0  0  0
  -23.8398  -22.0063   28.1919 C   0  0  0  0  0  0  0  0  0  0  0  0
  -28.5055  -19.2723   19.6402 C   0  0  0  0  0  0  0  0  0  0  0  0
  -34.5220  -22.0114   18.4528 C   0  0  0  0  0  0  0  0  0  0  0  0
  -34.5841  -21.3224   20.8329 C   0  0  0  0  0  0  0  0  0  0  0  0
  -27.3132  -19.7431   22.2131 C   0  0  0  0  0  0  0  0  0  0  0  0
  -28.6806  -21.8331   22.0375 C   0  0  0  0  0  0  0  0  0  0  0  0
  -23.9308  -28.5235   27.0133 C   0  0  0  0  0  0  0  0  0  0  0  0
  -24.5889  -26.5979   28.4717 C   0  0  0  0  0  0  0  0  0  0  0  0
  -22.1762  -27.1072   28.0950 C   0  0  0  0  0  0  0  0  0  0  0  0
  -23.4014  -21.4396   24.4553 C   0  0  0  0  0  0  0  0  0  0  0  0
  -31.3086  -23.2430   17.9491 C   0  0  0  0  0  0  0  0  0  0  0  0
  -33.8973  -23.6722   20.2506 C   0  0  0  0  0  0  0  0  0  0  0  0
  -29.9899  -24.0115   17.8089 C   0  0  0  0  0  0  0  0  0  0  0  0
  -29.6045  -24.7756   19.0764 C   0  0  0  0  0  0  0  0  0  0  0  0
  -28.2716  -25.4932   18.9130 C   0  0  0  0  0  0  0  0  0  1  0  0
  -23.5377  -26.0986   26.2186 C   0  0  1  0  0  0  0  0  0  0  0  0
  -23.3928  -22.3525   26.7802 C   0  0  2  0  0  0  0  0  0  0  0  0
  -29.4673  -19.7519   20.7446 C   0  0  2  0  0  0  0  0  0  0  0  0
  -33.7332  -22.1581   19.8093 C   0  0  0  0  0  0  0  0  0  0  0  0
  -28.7330  -20.2947   22.0193 C   0  0  0  0  0  0  0  0  0  0  0  0
  -23.5659  -27.0824   27.4222 C   0  0  0  0  0  0  0  0  0  0  0  0
  -28.2593  -14.9063   21.7538 N   0  0  0  0  0  0  0  0  0  0  0  0
  -30.1265  -21.5181   19.2407 N   0  0  0  0  0  0  0  0  0  0  0  0
  -30.4646  -20.6446   20.2044 N   0  0  0  0  0  0  0  0  0  0  0  0
  -29.5018  -15.3173   21.4480 N   0  0  0  0  0  0  0  0  0  0  0  0
  -23.1186  -26.7788   23.8764 N   0  0  0  0  0  0  0  0  0  0  0  0
  -29.6714  -18.5458   23.4918 N   0  0  0  0  0  0  0  0  0  0  0  0
  -31.3186  -14.9114   19.9834 N   0  0  0  0  0  0  0  0  0  0  0  0
  -28.2418  -11.8665   18.6956 N   0  0  0  0  0  0  0  0  0  0  0  0
  -21.7541  -29.6070   22.0228 N   0  0  0  0  0  0  0  0  0  0  0  0
  -23.1686  -24.7322   26.5722 N   0  0  0  0  0  0  0  0  0  0  0  0
  -23.7986  -21.2419   25.8731 N   0  3  0  0  0  0  0  0  0  0  0  0
  -30.3556  -12.6610   18.2965 O   0  0  0  0  0  0  0  0  0  0  0  0
  -23.3739  -29.3141   23.6698 O   0  0  0  0  0  0  0  0  0  0  0  0
  -21.3727  -26.6417   25.4157 O   0  0  0  0  0  0  0  0  0  0  0  0
  -30.0429  -20.7979   23.9280 O   0  0  0  0  0  0  0  0  0  0  0  0
  -25.1044  -23.7324   25.7783 O   0  0  0  0  0  0  0  0  0  0  0  0
  -23.1807  -11.1579   20.9133 O   0  0  0  0  0  0  0  0  0  0  0  0
  -27.9759  -26.1970   20.1187 O   0  0  0  0  0  0  0  0  0  1  0  0
  -23.3508   -5.6586   20.5502 F   0  0  0  0  0  0  0  0  0  0  0  0
  -22.1270   -9.5710   22.9168 F   0  0  0  0  0  0  0  0  0  0  0  0
  1  2  1  0  0  0  0
  1  5  2  0  0  0  0
  2  6  2  0  0  0  0
  3  8  2  0  0  0  0
  3 16  1  0  0  0  0
  4  9  1  0  0  0  0
  4 16  2  0  0  0  0
  5 18  1  0  0  0  0
  6 20  1  0  0  0  0
  7 10  2  0  0  0  0
  7 19  1  0  0  0  0
  8 23  1  0  0  0  0
  9 23  2  0  0  0  0
 10 24  1  0  0  0  0
 11 12  2  0  0  0  0
 11 25  1  0  0  0  0
 12 26  1  0  0  0  0
 13 21  1  0  0  0  0
 13 24  2  0  0  0  0
 14 26  2  0  0  0  0
 14 27  1  0  0  0  0
 15 22  2  0  0  0  0
 15 72  1  0  0  0  0
 16 28  1  0  0  0  0
 17 28  1  0  0  0  0
 17 30  2  0  0  0  0
 17 31  1  0  0  0  0
 18 20  2  0  0  0  0
 18 36  1  0  0  0  0
 19 21  2  0  0  0  0
 19 37  1  0  0  0  0
 20 45  1  0  0  0  0
 21 38  1  0  0  0  0
 22 29  1  0  0  0  0
 22 67  1  0  0  0  0
 23 86  1  0  0  0  0
 24 87  1  0  0  0  0
 25 27  2  0  0  0  0
 25 86  1  0  0  0  0
 26 88  1  0  0  0  0
 27 89  1  0  0  0  0
 28 70  2  0  0  0  0
 29 59  1  0  0  0  0
 29 71  2  0  0  0  0
 30 73  1  0  0  0  0
 30 76  1  0  0  0  0
 31 77  1  0  0  0  0
 31 81  2  0  0  0  0
 32 46  1  0  0  0  0
 32 78  1  0  0  0  0
 32 82  2  0  0  0  0
 33 64  1  0  0  0  0
 33 74  1  0  0  0  0
 33 83  2  0  0  0  0
 34 68  1  0  0  0  0
 34 75  1  0  0  0  0
 34 84  2  0  0  0  0
 35 65  1  0  0  0  0
 35 79  1  0  0  0  0
 35 85  2  0  0  0  0
 36 39  1  0  0  0  0
 37 46  1  0  0  0  0
 38 74  1  0  0  0  0
 39 41  1  0  0  0  0
 40 42  1  0  0  0  0
 40 43  1  0  0  0  0
 41 45  1  0  0  0  0
 42 47  1  0  0  0  0
 43 75  1  0  0  0  0
 44 47  1  0  0  0  0
 44 75  1  0  0  0  0
 45 78  1  0  0  0  0
 46 74  1  0  0  0  0
 47 73  1  0  0  0  0
 48 60  1  0  0  0  0
 49 65  1  0  0  0  0
 50 66  1  0  0  0  0
 51 67  1  0  0  0  0
 52 67  1  0  0  0  0
 53 68  1  0  0  0  0
 54 68  1  0  0  0  0
 55 69  1  0  0  0  0
 56 69  1  0  0  0  0
 57 69  1  0  0  0  0
 58 80  1  0  0  0  0
 59 61  1  0  0  0  0
 60 67  1  0  0  0  0
 61 62  1  0  0  0  0
 62 63  1  0  0  0  0
 63 87  1  0  0  0  0
 64 69  1  0  0  0  0
 64 79  1  0  0  0  0
 65 80  1  0  0  0  0
 66 68  1  0  0  0  0
 66 72  1  0  0  0  0
 70 73  1  0  0  0  0
 71 72  1  0  0  0  0
M  CHG  1  80   1
M  ISO  4  34 100  63 101  68 100  87 101
M  END
> <Batch ID>
0065

> <Smiles>
CCC(C)(C)c1cn(C(C)[100C:0](C)(C)[100C:0](=O)N2CCCC(n3nc(-c4ccc(Oc5ccc(F)cc5F)cc4)c(C(N)=O)c3N)C2)nc1CCC[101CH2:1][101O:1]c1ccc2c(c1)CN(C(=O)C(NC(=O)C(C)NC)C(C)(C)C)C(C(=O)NC1CCCc3ccccc31)C2

> <Shape>
0.218

> <Color>
0.079

> <Negative vol penalty>
0.000

$$$$

  -OEChem-04052318073D

 85 93  0     1  0  0  0  0  0999 V2000
  -23.7027  -23.6240   17.6102 C   0  0  0  0  0  0  0  0  0  0  0  0
  -24.7699  -22.9204   18.1594 C   0  0  0  0  0  0  0  0  0  0  0  0
  -25.6431  -27.8944   19.7508 C   0  0  0  0  0  0  0  0  0  0  0  0
  -27.0166  -28.9038   21.4631 C   0  0  0  0  0  0  0  0  0  0  0  0
  -22.3940  -23.2589   17.9229 C   0  0  0  0  0  0  0  0  0  0  0  0
  -24.5289  -21.8521   19.0225 C   0  0  0  0  0  0  0  0  0  0  0  0
  -27.4263  -17.8290   17.9905 C   0  0  0  0  0  0  0  0  0  0  0  0
  -24.6761  -28.8808   19.9450 C   0  0  0  0  0  0  0  0  0  0  0  0
  -26.0496  -29.8902   21.6572 C   0  0  0  0  0  0  0  0  0  0  0  0
  -28.7509  -17.8705   18.4234 C   0  0  0  0  0  0  0  0  0  0  0  0
  -23.7835  -32.4666   22.8560 C   0  0  0  0  0  0  0  0  0  0  0  0
  -23.4450  -32.7931   24.1691 C   0  0  0  0  0  0  0  0  0  0  0  0
  -28.1675  -16.4999   20.3208 C   0  0  0  0  0  0  0  0  0  0  0  0
  -22.7376  -30.5152   24.5533 C   0  0  0  0  0  0  0  0  0  0  0  0
  -33.1481  -19.6291   23.8936 C   0  0  0  0  0  0  0  0  0  0  0  0
  -26.8133  -27.9059   20.5099 C   0  0  0  0  0  0  0  0  0  0  0  0
  -28.8990  -26.9254   19.4162 C   0  0  0  0  0  0  0  0  0  0  0  0
  -22.1367  -22.1795   18.7827 C   0  0  0  0  0  0  0  0  0  0  0  0
  -26.4585  -17.1305   18.7267 C   0  0  0  0  0  0  0  0  0  0  0  0
  -23.2155  -21.4732   19.3481 C   0  0  0  0  0  0  0  0  0  0  0  0
  -26.8318  -16.4489   19.8938 C   0  0  0  0  0  0  0  0  0  0  0  0
  -24.8794  -29.8787   20.8982 C   0  0  0  0  0  0  0  0  0  0  0  0
  -29.1212  -17.2083   19.5902 C   0  0  0  0  0  0  0  0  0  0  0  0
  -23.5989  -31.1643   22.3914 C   0  0  0  0  0  0  0  0  0  0  0  0
  -22.9221  -31.8175   25.0178 C   0  0  0  0  0  0  0  0  0  0  0  0
  -23.0760  -30.1886   23.2401 C   0  0  0  0  0  0  0  0  0  0  0  0
  -27.8123  -26.8869   20.3103 C   0  0  0  0  0  0  0  0  0  0  0  0
  -29.5431  -25.7275   19.6069 C   0  0  0  0  0  0  0  0  0  0  0  0
  -33.0285  -21.5399   24.7254 C   0  0  0  0  0  0  0  0  0  0  0  0
  -29.2911  -27.9523   18.4956 C   0  0  0  0  0  0  0  0  0  0  0  0
  -23.7811  -17.9325   20.2406 C   0  0  0  0  0  0  0  0  0  0  0  0
  -23.4970  -14.7238   20.6227 C   0  0  0  0  0  0  0  0  0  0  0  0
  -25.0279  -11.6776   20.7758 C   0  0  0  0  0  0  0  0  0  0  0  0
  -29.8165  -21.9361   24.2331 C   0  0  0  0  0  0  0  0  0  0  0  0
  -20.7057  -21.8520   19.1286 C   0  0  0  0  0  0  0  0  0  0  0  0
  -25.0392  -17.0731   18.2320 C   0  0  0  0  0  0  0  0  0  0  0  0
  -25.8350  -15.6680   20.7093 C   0  0  0  0  0  0  0  0  0  0  0  0
  -20.5313  -20.4714   19.7560 C   0  0  0  0  0  0  0  0  0  0  0  0
  -28.7211  -21.2025   20.9258 C   0  0  0  0  0  0  0  0  0  0  0  0
  -21.5743  -20.2447   20.8458 C   0  0  0  0  0  0  0  0  0  0  0  0
  -28.4620  -22.5796   20.3123 C   0  0  0  0  0  0  0  0  0  0  0  0
  -28.3372  -21.1615   22.4033 C   0  0  0  0  0  0  0  0  0  0  0  0
  -28.6956  -23.5902   22.6194 C   0  0  0  0  0  0  0  0  0  0  0  0
  -22.9943  -20.2928   20.2689 C   0  0  1  0  0  0  0  0  0  0  0  0
  -24.0339  -16.7598   19.3359 C   0  0  1  0  0  0  0  0  0  0  0  0
  -29.1195  -23.6969   21.1446 C   0  0  2  0  0  0  0  0  0  0  0  0
  -35.1012  -22.4858   26.8424 C   0  0  0  0  0  0  0  0  0  0  0  0
  -24.5386   -9.2430   21.1374 C   0  0  0  0  0  0  0  0  0  0  0  0
  -33.2098  -24.1103   24.9968 C   0  0  0  0  0  0  0  0  0  0  0  0
  -23.1812  -15.2340   23.6144 C   0  0  0  0  0  0  0  0  0  0  0  0
  -23.6499  -12.8062   24.0071 C   0  0  0  0  0  0  0  0  0  0  0  0
  -21.6476  -13.4903   22.6859 C   0  0  0  0  0  0  0  0  0  0  0  0
  -26.0459  -10.9553   18.0924 C   0  0  0  0  0  0  0  0  0  0  0  0
  -33.5847  -22.5936   26.9787 C   0  0  0  0  0  0  0  0  0  0  0  0
  -33.0629  -19.8805   20.4818 C   0  0  0  0  0  0  0  0  0  0  0  0
  -32.2243  -18.6331   20.7643 C   0  0  0  0  0  0  0  0  0  0  0  0
  -34.1600  -20.1152   21.5264 C   0  0  0  0  0  0  0  0  0  0  0  0
  -31.2829  -22.8638   26.0074 C   0  0  0  0  0  0  0  0  0  0  0  0
  -31.1693  -18.4131   19.6885 C   0  0  0  0  0  0  0  0  0  1  0  0
  -23.9476  -13.7270   21.6631 C   0  0  1  0  0  0  0  0  0  0  0  0
  -24.7031  -10.3524   20.1103 C   0  0  2  0  0  0  0  0  0  0  0  0
  -32.8078  -22.6960   25.5896 C   0  0  2  0  0  0  0  0  0  0  0  0
  -23.1252  -13.8306   22.9785 C   0  0  0  0  0  0  0  0  0  0  0  0
  -32.7643  -20.2895   25.0255 N   0  0  0  0  0  0  0  0  0  0  0  0
  -27.7654  -25.7541   21.0164 N   0  0  0  0  0  0  0  0  0  0  0  0
  -33.5459  -21.6096   23.4695 N   0  0  0  0  0  0  0  0  0  0  0  0
  -33.6333  -20.3923   22.9119 N   0  0  0  0  0  0  0  0  0  0  0  0
  -28.8306  -25.0697   20.5660 N   0  0  0  0  0  0  0  0  0  0  0  0
  -24.4584  -15.6470   20.1877 N   0  0  0  0  0  0  0  0  0  0  0  0
  -28.9953  -22.2457   23.1363 N   0  0  0  0  0  0  0  0  0  0  0  0
  -30.6437  -25.1830   19.0459 N   0  0  0  0  0  0  0  0  0  0  0  0
  -28.5177  -29.1192   18.4271 N   0  0  0  0  0  0  0  0  0  0  0  0
  -23.3056  -19.0541   19.5884 N   0  0  0  0  0  0  0  0  0  0  0  0
  -23.8906  -12.4165   21.0244 N   0  0  0  0  0  0  0  0  0  0  0  0
  -30.4070  -23.0220   24.8679 N   0  0  0  0  0  0  0  0  0  0  0  0
  -25.7920   -9.9645   19.1698 N   0  3  0  0  0  0  0  0  0  0  0  0
  -30.2881  -27.8317   17.7440 O   0  0  0  0  0  0  0  0  0  0  0  0
  -23.9997  -17.8270   21.4418 O   0  0  0  0  0  0  0  0  0  0  0  0
  -22.3368  -14.6802   20.2060 O   0  0  0  0  0  0  0  0  0  0  0  0
  -26.1754  -12.0210   21.0513 O   0  0  0  0  0  0  0  0  0  0  0  0
  -30.0133  -20.7775   24.6148 O   0  0  0  0  0  0  0  0  0  0  0  0
  -23.9362  -30.8415   21.0877 O   0  0  0  0  0  0  0  0  0  0  0  0
  -30.4133  -17.2477   20.0153 O   0  0  0  0  0  0  0  0  0  1  0  0
  -22.5986  -32.1308   26.2793 F   0  0  0  0  0  0  0  0  0  0  0  0
  -22.8975  -28.9356   22.7998 F   0  0  0  0  0  0  0  0  0  0  0  0
  1  2  1  0  0  0  0
  1  5  2  0  0  0  0
  2  6  2  0  0  0  0
  3  8  2  0  0  0  0
  3 16  1  0  0  0  0
  4  9  1  0  0  0  0
  4 16  2  0  0  0  0
  5 18  1  0  0  0  0
  6 20  1  0  0  0  0
  7 10  2  0  0  0  0
  7 19  1  0  0  0  0
  8 22  1  0  0  0  0
  9 22  2  0  0  0  0
 10 23  1  0  0  0  0
 11 12  2  0  0  0  0
 11 24  1  0  0  0  0
 12 25  1  0  0  0  0
 13 21  1  0  0  0  0
 13 23  2  0  0  0  0
 14 25  2  0  0  0  0
 14 26  1  0  0  0  0
 15 64  2  0  0  0  0
 15 67  1  0  0  0  0
 16 27  1  0  0  0  0
 17 27  1  0  0  0  0
 17 28  2  0  0  0  0
 17 30  1  0  0  0  0
 18 20  2  0  0  0  0
 18 35  1  0  0  0  0
 19 21  2  0  0  0  0
 19 36  1  0  0  0  0
 20 44  1  0  0  0  0
 21 37  1  0  0  0  0
 22 82  1  0  0  0  0
 23 83  1  0  0  0  0
 24 26  2  0  0  0  0
 24 82  1  0  0  0  0
 25 84  1  0  0  0  0
 26 85  1  0  0  0  0
 27 65  2  0  0  0  0
 28 68  1  0  0  0  0
 28 71  1  0  0  0  0
 29 62  1  0  0  0  0
 29 64  1  0  0  0  0
 29 66  2  0  0  0  0
 30 72  1  0  0  0  0
 30 77  2  0  0  0  0
 31 45  1  0  0  0  0
 31 73  1  0  0  0  0
 31 78  2  0  0  0  0
 32 60  1  0  0  0  0
 32 69  1  0  0  0  0
 32 79  2  0  0  0  0
 33 61  1  0  0  0  0
 33 74  1  0  0  0  0
 33 80  2  0  0  0  0
 34 70  1  0  0  0  0
 34 75  1  0  0  0  0
 34 81  2  0  0  0  0
 35 38  1  0  0  0  0
 36 45  1  0  0  0  0
 37 69  1  0  0  0  0
 38 40  1  0  0  0  0
 39 41  1  0  0  0  0
 39 42  1  0  0  0  0
 40 44  1  0  0  0  0
 41 46  1  0  0  0  0
 42 70  1  0  0  0  0
 43 46  1  0  0  0  0
 43 70  1  0  0  0  0
 44 73  1  0  0  0  0
 45 69  1  0  0  0  0
 46 68  1  0  0  0  0
 47 54  1  0  0  0  0
 48 61  1  0  0  0  0
 49 62  1  0  0  0  0
 50 63  1  0  0  0  0
 51 63  1  0  0  0  0
 52 63  1  0  0  0  0
 53 76  1  0  0  0  0
 54 62  1  0  0  0  0
 55 56  1  0  0  0  0
 55 57  1  0  0  0  0
 56 59  1  0  0  0  0
 57 67  1  0  0  0  0
 58 62  1  0  0  0  0
 58 75  1  0  0  0  0
 59 83  1  0  0  0  0
 60 63  1  0  0  0  0
 60 74  1  0  0  0  0
 61 76  1  0  0  0  0
 65 68  1  0  0  0  0
 66 67  1  0  0  0  0
M  CHG  1  76   1
M  ISO  4  34 100  59 101  75 100  83 101
M  END
> <Batch ID>
0065

> <Smiles>
CCC(C)(C[100NH:0][100C:0](=O)N1CCCC(n2nc(-c3ccc(Oc4ccc(F)cc4F)cc3)c(C(N)=O)c2N)C1)c1ncn(CCC[101CH2:1][101O:1]c2ccc3c(c2)CN(C(=O)C(NC(=O)C(C)NC)C(C)(C)C)C(C(=O)NC2CCCc4ccccc42)C3)n1

> <Shape>
0.191

> <Color>
0.069

> <Negative vol penalty>
0.000

$$$$

  -OEChem-04052318073D

 93102  0     1  0  0  0  0  0999 V2000
  -16.9368  -28.4444   23.9243 C   0  0  0  0  0  0  0  0  0  0  0  0
  -17.9078  -27.4706   23.7138 C   0  0  0  0  0  0  0  0  0  0  0  0
  -23.4499  -10.8336   23.2057 C   0  0  0  0  0  0  0  0  0  0  0  0
  -24.5699   -9.1227   21.9189 C   0  0  0  0  0  0  0  0  0  0  0  0
  -17.1110  -29.7253   23.4019 C   0  0  0  0  0  0  0  0  0  0  0  0
  -19.0531  -27.7768   22.9798 C   0  0  0  0  0  0  0  0  0  0  0  0
  -23.2785  -26.0213   25.1499 C   0  0  0  0  0  0  0  0  0  0  0  0
  -23.0097   -9.8662   24.1089 C   0  0  0  0  0  0  0  0  0  0  0  0
  -24.1297   -8.1553   22.8222 C   0  0  0  0  0  0  0  0  0  0  0  0
  -23.5543  -24.6629   24.9999 C   0  0  0  0  0  0  0  0  0  0  0  0
  -21.2803   -6.4478   23.4519 C   0  0  0  0  0  0  0  0  0  0  0  0
  -20.7559   -5.2652   22.9304 C   0  0  0  0  0  0  0  0  0  0  0  0
  -25.8321  -20.2711   24.5993 C   0  0  0  0  0  0  0  0  0  0  0  0
  -26.2009  -18.9687   24.3120 C   0  0  0  0  0  0  0  0  0  0  0  0
  -25.1168  -25.1811   23.2366 C   0  0  0  0  0  0  0  0  0  0  0  0
  -22.4737   -4.0024   24.0669 C   0  0  0  0  0  0  0  0  0  0  0  0
  -26.3116  -17.0760   21.1681 C   0  0  0  0  0  0  0  0  0  0  0  0
  -24.2300  -10.4619   22.1107 C   0  0  0  0  0  0  0  0  0  0  0  0
  -23.8880  -12.3188   20.3952 C   0  0  0  0  0  0  0  0  0  0  0  0
  -18.2636  -30.0501   22.6693 C   0  0  0  0  0  0  0  0  0  0  0  0
  -23.9127  -26.9706   24.3357 C   0  0  0  0  0  0  0  0  0  0  0  0
  -19.2423  -29.0629   22.4460 C   0  0  0  0  0  0  0  0  0  0  0  0
  -24.8492  -26.5511   23.3800 C   0  0  0  0  0  0  0  0  0  0  0  0
  -23.3496   -8.5270   23.9172 C   0  0  0  0  0  0  0  0  0  0  0  0
  -24.4714  -24.2424   24.0411 C   0  0  0  0  0  0  0  0  0  0  0  0
  -22.4014   -6.4078   24.2809 C   0  0  0  0  0  0  0  0  0  0  0  0
  -21.3526   -4.0425   23.2379 C   0  0  0  0  0  0  0  0  0  0  0  0
  -22.9981   -5.1851   24.5884 C   0  0  0  0  0  0  0  0  0  0  0  0
  -24.6845  -11.4607   21.1770 C   0  0  0  0  0  0  0  0  0  0  0  0
  -24.5024  -20.6127   24.4553 C   0  0  0  0  0  0  0  0  0  0  0  0
  -25.2156  -18.0940   23.9001 C   0  0  0  0  0  0  0  0  0  0  0  0
  -27.2904  -16.9305   20.2063 C   0  0  0  0  0  0  0  0  0  0  0  0
  -26.6154  -16.5610   22.4117 C   0  0  0  0  0  0  0  0  0  0  0  0
  -24.7902  -13.0706   19.6830 C   0  0  0  0  0  0  0  0  0  0  0  0
  -28.6545  -15.8696   21.6831 C   0  0  0  0  0  0  0  0  0  0  0  0
  -22.4603  -12.4265   20.3196 C   0  0  0  0  0  0  0  0  0  0  0  0
  -22.9289  -29.1106   22.2012 C   0  0  0  0  0  0  0  0  0  0  0  0
  -26.0498  -29.9947   22.2273 C   0  0  0  0  0  0  0  0  0  0  0  0
  -30.5221  -14.5295   20.7455 C   0  0  0  0  0  0  0  0  0  0  0  0
  -29.2984  -29.1392   22.8284 C   0  0  0  0  0  0  0  0  0  0  0  0
  -18.3855  -31.4348   22.0841 C   0  0  0  0  0  0  0  0  0  0  0  0
  -23.6242  -28.4341   24.5282 C   0  0  0  0  0  0  0  0  0  0  0  0
  -25.5723  -27.5318   22.4946 C   0  0  0  0  0  0  0  0  0  0  0  0
  -19.8024  -31.7842   21.6363 C   0  0  0  0  0  0  0  0  0  0  0  0
  -29.1956  -12.8975   17.8443 C   0  0  0  0  0  0  0  0  0  0  0  0
  -20.4053  -30.6383   20.8300 C   0  0  0  0  0  0  0  0  0  0  0  0
  -27.8280  -12.3973   18.3076 C   0  0  0  0  0  0  0  0  0  0  0  0
  -30.2236  -12.8349   18.9696 C   0  0  0  0  0  0  0  0  0  0  0  0
  -28.4450  -13.0625   20.6744 C   0  0  0  0  0  0  0  0  0  0  0  0
  -20.5100  -29.3636   21.6761 C   0  0  1  0  0  0  0  0  0  0  0  0
  -23.9454  -29.2737   23.2956 C   0  0  1  0  0  0  0  0  0  0  0  0
  -27.3693  -13.1378   19.5763 C   0  0  2  0  0  0  0  0  0  0  0  0
  -27.0533  -17.4567   18.8304 C   0  0  0  0  0  0  0  0  0  0  0  0
  -31.7763  -29.4409   23.0856 C   0  0  0  0  0  0  0  0  0  0  0  0
  -24.3510  -15.7717   23.1244 C   0  0  0  0  0  0  0  0  0  0  0  0
  -26.0828  -15.9626   24.8816 C   0  0  0  0  0  0  0  0  0  0  0  0
  -29.8978  -14.0575   23.0269 C   0  0  0  0  0  0  0  0  0  0  0  0
  -26.0385  -29.6666   19.1938 C   0  0  0  0  0  0  0  0  0  0  0  0
  -28.5414  -29.6600   19.2550 C   0  0  0  0  0  0  0  0  0  0  0  0
  -27.2821  -31.6723   20.0215 C   0  0  0  0  0  0  0  0  0  0  0  0
  -29.0285  -29.8876   25.6790 C   0  0  0  0  0  0  0  0  0  0  0  0
  -24.0500  -22.0123   24.7517 C   0  0  0  0  0  0  0  0  0  1  0  0
  -27.2821  -29.5898   21.4550 C   0  0  1  0  0  0  0  0  0  0  0  0
  -30.4017  -29.8480   23.5930 C   0  0  2  0  0  0  0  0  0  0  0  0
  -25.5605  -16.6794   23.5820 C   0  0  0  0  0  0  0  0  0  0  0  0
  -29.9570  -15.2027   21.9708 C   0  0  2  0  0  0  0  0  0  0  0  0
  -27.2711  -30.1283   19.9965 C   0  0  0  0  0  0  0  0  0  0  0  0
  -31.0120  -16.2250   22.4603 C   0  0  0  0  0  0  0  0  0  0  0  0
  -25.9921  -11.6491   20.9800 N   0  0  0  0  0  0  0  0  0  0  0  0
  -28.4779  -16.3304   20.4301 N   0  0  0  0  0  0  0  0  0  0  0  0
  -27.7814  -15.9491   22.7053 N   0  0  0  0  0  0  0  0  0  0  0  0
  -23.5594  -19.7359   24.0502 N   0  0  0  0  0  0  0  0  0  0  0  0
  -23.9219  -18.4558   23.7682 N   0  0  0  0  0  0  0  0  0  0  0  0
  -26.0241  -12.6340   20.0662 N   0  0  0  0  0  0  0  0  0  0  0  0
  -25.2513  -28.9513   22.7169 N   0  0  0  0  0  0  0  0  0  0  0  0
  -29.7412  -13.5304   20.1641 N   0  0  0  0  0  0  0  0  0  0  0  0
  -24.6404  -14.0560   18.7724 N   0  0  0  0  0  0  0  0  0  0  0  0
  -21.8104  -13.3143   21.1879 N   0  0  0  0  0  0  0  0  0  0  0  0
  -21.6413  -29.4451   22.5750 N   0  0  0  0  0  0  0  0  0  0  0  0
  -28.4242  -30.0332   22.2471 N   0  0  0  0  0  0  0  0  0  0  0  0
  -30.3201  -29.5190   25.0442 N   0  3  0  0  0  0  0  0  0  0  0  0
  -21.7795  -11.7434   19.5175 O   0  0  0  0  0  0  0  0  0  0  0  0
  -23.2865  -28.7123   21.0989 O   0  0  0  0  0  0  0  0  0  0  0  0
  -25.8084  -31.1926   22.3962 O   0  0  0  0  0  0  0  0  0  0  0  0
  -31.6235  -14.8844   20.3175 O   0  0  0  0  0  0  0  0  0  0  0  0
  -29.2220  -27.9150   22.7511 O   0  0  0  0  0  0  0  0  0  0  0  0
  -22.9204   -7.5827   24.7985 O   0  0  0  0  0  0  0  0  0  0  0  0
  -24.7419  -22.9171   23.8921 O   0  0  0  0  0  0  0  0  0  1  0  0
  -20.8480   -2.9067   22.7383 F   0  0  0  0  0  0  0  0  0  0  0  0
  -24.0747   -5.1402   25.3852 F   0  0  0  0  0  0  0  0  0  0  0  0
  -30.5947  -16.8349   23.5938 F   0  0  0  0  0  0  0  0  0  0  0  0
  -32.2076  -15.6517   22.7326 F   0  0  0  0  0  0  0  0  0  0  0  0
  -31.2319  -17.1899   21.5398 F   0  0  0  0  0  0  0  0  0  0  0  0
  1  2  1  0  0  0  0
  1  5  2  0  0  0  0
  2  6  2  0  0  0  0
  3  8  2  0  0  0  0
  3 18  1  0  0  0  0
  4  9  1  0  0  0  0
  4 18  2  0  0  0  0
  5 20  1  0  0  0  0
  6 22  1  0  0  0  0
  7 10  2  0  0  0  0
  7 21  1  0  0  0  0
  8 24  1  0  0  0  0
  9 24  2  0  0  0  0
 10 25  1  0  0  0  0
 11 12  2  0  0  0  0
 11 26  1  0  0  0  0
 12 27  1  0  0  0  0
 13 14  2  0  0  0  0
 13 30  1  0  0  0  0
 14 31  1  0  0  0  0
 15 23  1  0  0  0  0
 15 25  2  0  0  0  0
 16 27  2  0  0  0  0
 16 28  1  0  0  0  0
 17 32  2  0  0  0  0
 17 33  1  0  0  0  0
 18 29  1  0  0  0  0
 19 29  1  0  0  0  0
 19 34  2  0  0  0  0
 19 36  1  0  0  0  0
 20 22  2  0  0  0  0
 20 41  1  0  0  0  0
 21 23  2  0  0  0  0
 21 42  1  0  0  0  0
 22 50  1  0  0  0  0
 23 43  1  0  0  0  0
 24 87  1  0  0  0  0
 25 88  1  0  0  0  0
 26 28  2  0  0  0  0
 26 87  1  0  0  0  0
 27 89  1  0  0  0  0
 28 90  1  0  0  0  0
 29 69  2  0  0  0  0
 30 62  1  0  0  0  0
 30 72  2  0  0  0  0
 31 65  1  0  0  0  0
 31 73  2  0  0  0  0
 32 53  1  0  0  0  0
 32 70  1  0  0  0  0
 33 65  1  0  0  0  0
 33 71  2  0  0  0  0
 34 74  1  0  0  0  0
 34 77  1  0  0  0  0
 35 66  1  0  0  0  0
 35 70  2  0  0  0  0
 35 71  1  0  0  0  0
 36 78  1  0  0  0  0
 36 82  2  0  0  0  0
 37 51  1  0  0  0  0
 37 79  1  0  0  0  0
 37 83  2  0  0  0  0
 38 63  1  0  0  0  0
 38 75  1  0  0  0  0
 38 84  2  0  0  0  0
 39 66  1  0  0  0  0
 39 76  1  0  0  0  0
 39 85  2  0  0  0  0
 40 64  1  0  0  0  0
 40 80  1  0  0  0  0
 40 86  2  0  0  0  0
 41 44  1  0  0  0  0
 42 51  1  0  0  0  0
 43 75  1  0  0  0  0
 44 46  1  0  0  0  0
 45 47  1  0  0  0  0
 45 48  1  0  0  0  0
 46 50  1  0  0  0  0
 47 52  1  0  0  0  0
 48 76  1  0  0  0  0
 49 52  1  0  0  0  0
 49 76  1  0  0  0  0
 50 79  1  0  0  0  0
 51 75  1  0  0  0  0
 52 74  1  0  0  0  0
 54 64  1  0  0  0  0
 55 65  1  0  0  0  0
 56 65  1  0  0  0  0
 57 66  1  0  0  0  0
 58 67  1  0  0  0  0
 59 67  1  0  0  0  0
 60 67  1  0  0  0  0
 61 81  1  0  0  0  0
 62 88  1  0  0  0  0
 63 67  1  0  0  0  0
 63 80  1  0  0  0  0
 64 81  1  0  0  0  0
 66 68  1  0  0  0  0
 68 91  1  0  0  0  0
 68 92  1  0  0  0  0
 68 93  1  0  0  0  0
 69 74  1  0  0  0  0
 72 73  1  0  0  0  0
M  CHG  1  81   1
M  ISO  4  39 100  62 101  66 100  88 101
M  END
> <Batch ID>
0065

> <Smiles>
CNC(C)C(=O)NC(C(=O)N1Cc2cc([101O:1][101CH2:1]c3ccc(C(C)(C)c4cc(C)nc([100C:0](C)([100C:0](=O)N5CCCC(n6nc(-c7ccc(Oc8ccc(F)cc8F)cc7)c(C(N)=O)c6N)C5)C(F)(F)F)n4)nn3)ccc2CC1C(=O)NC1CCCc2ccccc21)C(C)(C)C

> <Shape>
0.260

> <Color>
0.114

> <Negative vol penalty>
0.000

$$$$

  -OEChem-04052318073D

 91 99  0     1  0  0  0  0  0999 V2000
  -15.6050  -25.9857   25.6268 C   0  0  0  0  0  0  0  0  0  0  0  0
  -16.3169  -24.9768   24.9859 C   0  0  0  0  0  0  0  0  0  0  0  0
  -31.1503  -21.7306   19.3542 C   0  0  0  0  0  0  0  0  0  0  0  0
  -30.1702  -22.5060   21.4219 C   0  0  0  0  0  0  0  0  0  0  0  0
  -15.8412  -27.3202   25.2991 C   0  0  0  0  0  0  0  0  0  0  0  0
  -17.2647  -25.3017   24.0161 C   0  0  0  0  0  0  0  0  0  0  0  0
  -22.5267  -22.3793   22.8863 C   0  0  0  0  0  0  0  0  0  0  0  0
  -31.2484  -23.0480   18.9066 C   0  0  0  0  0  0  0  0  0  0  0  0
  -30.2683  -23.8235   20.9743 C   0  0  0  0  0  0  0  0  0  0  0  0
  -22.8856  -21.4293   21.9310 C   0  0  0  0  0  0  0  0  0  0  0  0
  -31.4255  -26.1832   17.0728 C   0  0  0  0  0  0  0  0  0  0  0  0
  -31.0310  -26.4558   15.7630 C   0  0  0  0  0  0  0  0  0  0  0  0
  -23.7688  -23.1821   20.5286 C   0  0  0  0  0  0  0  0  0  0  0  0
  -28.8059  -25.6614   16.2678 C   0  0  0  0  0  0  0  0  0  0  0  0
  -22.0658  -16.3485   20.0191 C   0  0  0  0  0  0  0  0  0  0  0  0
  -30.6111  -21.4596   20.6118 C   0  0  0  0  0  0  0  0  0  0  0  0
  -31.4713  -19.3740   21.8027 C   0  0  0  0  0  0  0  0  0  0  0  0
  -16.7993  -27.6621   24.3317 C   0  0  0  0  0  0  0  0  0  0  0  0
  -22.7767  -23.7412   22.6647 C   0  0  0  0  0  0  0  0  0  0  0  0
  -17.5130  -26.6419   23.6742 C   0  0  0  0  0  0  0  0  0  0  0  0
  -23.4144  -24.1471   21.4837 C   0  0  0  0  0  0  0  0  0  0  0  0
  -22.7185  -16.7611   18.8754 C   0  0  0  0  0  0  0  0  0  0  0  0
  -30.8074  -24.0945   19.7167 C   0  0  0  0  0  0  0  0  0  0  0  0
  -23.5042  -21.8309   20.7507 C   0  0  0  0  0  0  0  0  0  0  0  0
  -30.5102  -25.6496   17.9801 C   0  0  0  0  0  0  0  0  0  0  0  0
  -29.7212  -26.1950   15.3605 C   0  0  0  0  0  0  0  0  0  0  0  0
  -29.2004  -25.3887   17.5776 C   0  0  0  0  0  0  0  0  0  0  0  0
  -30.5090  -20.0988   21.0745 C   0  0  0  0  0  0  0  0  0  0  0  0
  -23.8204  -16.0132   18.5140 C   0  0  0  0  0  0  0  0  0  0  0  0
  -30.8990  -18.1404   21.9950 C   0  0  0  0  0  0  0  0  0  0  0  0
  -23.5390  -14.6411   20.3044 C   0  0  0  0  0  0  0  0  0  0  0  0
  -32.7668  -19.7797   22.2641 C   0  0  0  0  0  0  0  0  0  0  0  0
  -20.9653  -26.3390   22.3925 C   0  0  0  0  0  0  0  0  0  0  0  0
  -23.8320  -27.8554   22.3220 C   0  0  0  0  0  0  0  0  0  0  0  0
  -27.1801  -27.6937   21.6809 C   0  0  0  0  0  0  0  0  0  0  0  0
  -25.4483  -16.2147   22.9941 C   0  0  0  0  0  0  0  0  0  0  0  0
  -16.9861  -29.1161   23.9772 C   0  0  0  0  0  0  0  0  0  0  0  0
  -22.4075  -24.7508   23.7167 C   0  0  0  0  0  0  0  0  0  0  0  0
  -23.7233  -25.5950   21.2066 C   0  0  0  0  0  0  0  0  0  0  0  0
  -18.2741  -29.3945   23.2066 C   0  0  0  0  0  0  0  0  0  0  0  0
  -27.2982  -15.5754   19.8064 C   0  0  0  0  0  0  0  0  0  0  0  0
  -18.4523  -28.3809   22.0807 C   0  0  0  0  0  0  0  0  0  0  0  0
  -28.3638  -16.6689   19.8635 C   0  0  0  0  0  0  0  0  0  0  0  0
  -26.0346  -15.9971   20.5467 C   0  0  0  0  0  0  0  0  0  0  0  0
  -27.3348  -17.4856   22.0335 C   0  0  0  0  0  0  0  0  0  0  0  0
  -18.5670  -26.9556   22.6346 C   0  0  1  0  0  0  0  0  0  0  0  0
  -22.2449  -26.1618   23.1599 C   0  0  1  0  0  0  0  0  0  0  0  0
  -28.6376  -17.0952   21.3158 C   0  0  2  0  0  0  0  0  0  0  0  0
  -24.6049  -16.3664   17.2937 C   0  0  0  0  0  0  0  0  0  0  0  0
  -29.5711  -28.4492   21.5820 C   0  0  0  0  0  0  0  0  0  0  0  0
  -23.9133  -14.9976   25.2740 C   0  0  0  0  0  0  0  0  0  0  0  0
  -22.4960  -16.1162   23.5237 C   0  0  0  0  0  0  0  0  0  0  0  0
  -24.7068  -12.3386   20.2626 C   0  0  0  0  0  0  0  0  0  0  0  0
  -22.9270  -29.1788   19.7259 C   0  0  0  0  0  0  0  0  0  0  0  0
  -25.3143  -29.7939   19.2889 C   0  0  0  0  0  0  0  0  0  0  0  0
  -24.1444  -30.6937   21.2999 C   0  0  0  0  0  0  0  0  0  0  0  0
  -27.7184  -26.7335   24.4281 C   0  0  0  0  0  0  0  0  0  0  0  0
  -22.2382  -17.9555   18.0902 C   0  0  0  0  0  0  0  0  0  0  0  0
  -23.0851  -19.2124   18.3012 C   0  0  0  0  0  0  0  0  0  0  0  0
  -24.9986  -13.8390   22.2503 C   0  0  0  0  0  0  0  0  0  0  0  0
  -23.0530  -19.7283   19.7351 C   0  0  0  0  0  0  0  0  0  1  0  0
  -24.8043  -28.2539   21.2381 C   0  0  1  0  0  0  0  0  0  0  0  0
  -28.3829  -28.1544   22.4843 C   0  0  2  0  0  0  0  0  0  0  0  0
  -23.4746  -14.9858   23.8150 C   0  0  0  0  0  0  0  0  0  0  0  0
  -23.9945  -13.4631   21.0975 C   0  0  1  0  0  0  0  0  0  0  0  0
  -24.2901  -29.4529   20.3923 C   0  0  0  0  0  0  0  0  0  0  0  0
  -22.7774  -12.7592   21.7750 C   0  0  0  0  0  0  0  0  0  0  0  0
  -22.4502  -15.2890   20.7607 N   0  0  0  0  0  0  0  0  0  0  0  0
  -29.4088  -19.3851   20.8212 N   0  0  0  0  0  0  0  0  0  0  0  0
  -24.2605  -14.9431   19.2080 N   0  0  0  0  0  0  0  0  0  0  0  0
  -29.6763  -18.1989   21.3934 N   0  0  0  0  0  0  0  0  0  0  0  0
  -23.3372  -26.5448   22.2631 N   0  0  0  0  0  0  0  0  0  0  0  0
  -26.3285  -16.4272   21.9202 N   0  0  0  0  0  0  0  0  0  0  0  0
  -31.3273  -17.0221   22.6182 N   0  0  0  0  0  0  0  0  0  0  0  0
  -33.1997  -21.0821   21.9800 N   0  0  0  0  0  0  0  0  0  0  0  0
  -19.8915  -26.7269   23.1709 N   0  0  0  0  0  0  0  0  0  0  0  0
  -26.0803  -28.4952   21.9028 N   0  0  0  0  0  0  0  0  0  0  0  0
  -24.6298  -15.0768   22.9334 N   0  0  0  0  0  0  0  0  0  0  0  0
  -28.7850  -27.1048   23.4629 N   0  3  0  0  0  0  0  0  0  0  0  0
  -33.5250  -19.0047   22.8950 O   0  0  0  0  0  0  0  0  0  0  0  0
  -20.9535  -26.1401   21.1834 O   0  0  0  0  0  0  0  0  0  0  0  0
  -23.5284  -28.6744   23.1930 O   0  0  0  0  0  0  0  0  0  0  0  0
  -27.2139  -26.7224   20.9286 O   0  0  0  0  0  0  0  0  0  0  0  0
  -25.4044  -16.9916   23.9565 O   0  0  0  0  0  0  0  0  0  0  0  0
  -30.9032  -25.3802   19.2804 O   0  0  0  0  0  0  0  0  0  0  0  0
  -23.8550  -20.9058   19.8163 O   0  0  0  0  0  0  0  0  0  1  0  0
  -29.3421  -26.4583   14.1031 F   0  0  0  0  0  0  0  0  0  0  0  0
  -28.3163  -24.8772   18.4451 F   0  0  0  0  0  0  0  0  0  0  0  0
  -21.8963  -12.3320   20.8416 F   0  0  0  0  0  0  0  0  0  0  0  0
  -22.1169  -13.5984   22.6028 F   0  0  0  0  0  0  0  0  0  0  0  0
  -23.1348  -11.6802   22.5108 F   0  0  0  0  0  0  0  0  0  0  0  0
  1  2  1  0  0  0  0
  1  5  2  0  0  0  0
  2  6  2  0  0  0  0
  3  8  2  0  0  0  0
  3 16  1  0  0  0  0
  4  9  1  0  0  0  0
  4 16  2  0  0  0  0
  5 18  1  0  0  0  0
  6 20  1  0  0  0  0
  7 10  2  0  0  0  0
  7 19  1  0  0  0  0
  8 23  1  0  0  0  0
  9 23  2  0  0  0  0
 10 24  1  0  0  0  0
 11 12  2  0  0  0  0
 11 25  1  0  0  0  0
 12 26  1  0  0  0  0
 13 21  1  0  0  0  0
 13 24  2  0  0  0  0
 14 26  2  0  0  0  0
 14 27  1  0  0  0  0
 15 22  1  0  0  0  0
 15 68  2  0  0  0  0
 16 28  1  0  0  0  0
 17 28  1  0  0  0  0
 17 30  2  0  0  0  0
 17 32  1  0  0  0  0
 18 20  2  0  0  0  0
 18 37  1  0  0  0  0
 19 21  2  0  0  0  0
 19 38  1  0  0  0  0
 20 46  1  0  0  0  0
 21 39  1  0  0  0  0
 22 29  2  0  0  0  0
 22 58  1  0  0  0  0
 23 85  1  0  0  0  0
 24 86  1  0  0  0  0
 25 27  2  0  0  0  0
 25 85  1  0  0  0  0
 26 87  1  0  0  0  0
 27 88  1  0  0  0  0
 28 69  2  0  0  0  0
 29 49  1  0  0  0  0
 29 70  1  0  0  0  0
 30 71  1  0  0  0  0
 30 74  1  0  0  0  0
 31 65  1  0  0  0  0
 31 68  1  0  0  0  0
 31 70  2  0  0  0  0
 32 75  1  0  0  0  0
 32 80  2  0  0  0  0
 33 47  1  0  0  0  0
 33 76  1  0  0  0  0
 33 81  2  0  0  0  0
 34 62  1  0  0  0  0
 34 72  1  0  0  0  0
 34 82  2  0  0  0  0
 35 63  1  0  0  0  0
 35 77  1  0  0  0  0
 35 83  2  0  0  0  0
 36 73  1  0  0  0  0
 36 78  1  0  0  0  0
 36 84  2  0  0  0  0
 37 40  1  0  0  0  0
 38 47  1  0  0  0  0
 39 72  1  0  0  0  0
 40 42  1  0  0  0  0
 41 43  1  0  0  0  0
 41 44  1  0  0  0  0
 42 46  1  0  0  0  0
 43 48  1  0  0  0  0
 44 73  1  0  0  0  0
 45 48  1  0  0  0  0
 45 73  1  0  0  0  0
 46 76  1  0  0  0  0
 47 72  1  0  0  0  0
 48 71  1  0  0  0  0
 50 63  1  0  0  0  0
 51 64  1  0  0  0  0
 52 64  1  0  0  0  0
 53 65  1  0  0  0  0
 54 66  1  0  0  0  0
 55 66  1  0  0  0  0
 56 66  1  0  0  0  0
 57 79  1  0  0  0  0
 58 59  1  0  0  0  0
 59 61  1  0  0  0  0
 60 65  1  0  0  0  0
 60 78  1  0  0  0  0
 61 86  1  0  0  0  0
 62 66  1  0  0  0  0
 62 77  1  0  0  0  0
 63 79  1  0  0  0  0
 64 78  1  0  0  0  0
 65 67  1  0  0  0  0
 67 89  1  0  0  0  0
 67 90  1  0  0  0  0
 67 91  1  0  0  0  0
 69 71  1  0  0  0  0
M  CHG  1  79   1
M  ISO  4  36 100  61 101  78 100  86 101
M  END
> <Batch ID>
0065

> <Smiles>
CNC(C)C(=O)NC(C(=O)N1Cc2cc([101O:1][101CH2:1]CCc3cnc(C(C)(C[100N:0](C(C)C)[100C:0](=O)N4CCCC(n5nc(-c6ccc(Oc7ccc(F)cc7F)cc6)c(C(N)=O)c5N)C4)C(F)(F)F)nc3C)ccc2CC1C(=O)NC1CCCc2ccccc21)C(C)(C)C

> <Shape>
0.210

> <Color>
0.056

> <Negative vol penalty>
0.000

$$$$

  -OEChem-04052318073D

 90 99  0     1  0  0  0  0  0999 V2000
  -21.8180  -11.8840   22.2594 C   0  0  0  0  0  0  0  0  0  0  0  0
  -22.3543  -12.9586   22.9615 C   0  0  0  0  0  0  0  0  0  0  0  0
  -27.9746  -27.1701   20.6713 C   0  0  0  0  0  0  0  0  0  0  0  0
  -27.9458  -26.8767   18.2734 C   0  0  0  0  0  0  0  0  0  0  0  0
  -22.5397  -11.3040   21.2169 C   0  0  0  0  0  0  0  0  0  0  0  0
  -23.6132  -13.4532   22.6223 C   0  0  0  0  0  0  0  0  0  0  0  0
  -23.7239  -18.5121   22.4226 C   0  0  0  0  0  0  0  0  0  0  0  0
  -29.3527  -26.9549   20.6811 C   0  0  0  0  0  0  0  0  0  0  0  0
  -29.3240  -26.6614   18.2831 C   0  0  0  0  0  0  0  0  0  0  0  0
  -23.7902  -19.1959   23.6357 C   0  0  0  0  0  0  0  0  0  0  0  0
  -32.1538  -28.7146   19.9807 C   0  0  0  0  0  0  0  0  0  0  0  0
  -32.9393  -29.5782   20.7440 C   0  0  0  0  0  0  0  0  0  0  0  0
  -26.1632  -19.5006   23.3275 C   0  0  0  0  0  0  0  0  0  0  0  0
  -33.7216  -27.7067   22.0565 C   0  0  0  0  0  0  0  0  0  0  0  0
  -22.4989  -25.8605   25.3401 C   0  0  0  0  0  0  0  0  0  0  0  0
  -20.1988  -24.6861   26.0166 C   0  0  0  0  0  0  0  0  0  0  0  0
  -19.4478  -29.0567   22.2874 C   0  0  0  0  0  0  0  0  0  0  0  0
  -27.2711  -27.1310   19.4674 C   0  0  0  0  0  0  0  0  0  0  0  0
  -25.1799  -28.5838   19.3138 C   0  0  0  0  0  0  0  0  0  0  0  0
  -23.8039  -11.7979   20.8585 C   0  0  0  0  0  0  0  0  0  0  0  0
  -24.8807  -18.3076   21.6567 C   0  0  0  0  0  0  0  0  0  0  0  0
  -24.3531  -12.8784   21.5750 C   0  0  0  0  0  0  0  0  0  0  0  0
  -26.1086  -18.8161   22.1038 C   0  0  0  0  0  0  0  0  0  0  0  0
  -30.0274  -26.7006   19.4871 C   0  0  0  0  0  0  0  0  0  0  0  0
  -25.0104  -19.6878   24.0898 C   0  0  0  0  0  0  0  0  0  0  0  0
  -32.1520  -27.3470   20.2554 C   0  0  0  0  0  0  0  0  0  0  0  0
  -33.7233  -29.0743   21.7818 C   0  0  0  0  0  0  0  0  0  0  0  0
  -32.9360  -26.8431   21.2932 C   0  0  0  0  0  0  0  0  0  0  0  0
  -25.8475  -27.3527   19.4567 C   0  0  0  0  0  0  0  0  0  0  0  0
  -22.4769  -24.7795   26.1936 C   0  0  0  0  0  0  0  0  0  0  0  0
  -20.2207  -25.7675   25.1637 C   0  0  0  0  0  0  0  0  0  0  0  0
  -19.1616  -28.5937   23.5406 C   0  0  0  0  0  0  0  0  0  0  0  0
  -23.8463  -28.2597   19.3687 C   0  0  0  0  0  0  0  0  0  0  0  0
  -19.5022  -26.8445   22.2272 C   0  0  0  0  0  0  0  0  0  0  0  0
  -25.7172  -29.9025   19.1465 C   0  0  0  0  0  0  0  0  0  0  0  0
  -19.6445  -25.4702   21.7291 C   0  0  0  0  0  0  0  0  0  0  0  0
  -26.4839  -15.7529   20.6533 C   0  0  0  0  0  0  0  0  0  0  0  0
  -28.2181  -17.9619   19.0299 C   0  0  0  0  0  0  0  0  0  0  0  0
  -29.2746  -21.1966   18.7710 C   0  0  0  0  0  0  0  0  0  0  0  0
  -24.5667  -11.1079   19.7554 C   0  0  0  0  0  0  0  0  0  0  0  0
  -24.7879  -17.5912   20.3374 C   0  0  0  0  0  0  0  0  0  0  0  0
  -27.3760  -18.6408   21.3092 C   0  0  0  0  0  0  0  0  0  0  0  0
  -25.7327  -11.9311   19.2140 C   0  0  0  0  0  0  0  0  0  0  0  0
  -21.5267  -23.7680   19.2189 C   0  0  0  0  0  0  0  0  0  0  0  0
  -26.5527  -12.5138   20.3607 C   0  0  0  0  0  0  0  0  0  0  0  0
  -22.7747  -24.6377   19.0569 C   0  0  0  0  0  0  0  0  0  0  0  0
  -21.0478  -23.7339   20.6680 C   0  0  0  0  0  0  0  0  0  0  0  0
  -22.0725  -25.9383   21.1102 C   0  0  0  0  0  0  0  0  0  0  0  0
  -25.7049  -13.4589   21.2206 C   0  0  1  0  0  0  0  0  0  0  0  0
  -26.1171  -16.9926   19.8877 C   0  0  1  0  0  0  0  0  0  0  0  0
  -22.5585  -26.0405   19.6551 C   0  0  1  0  0  0  0  0  0  0  0  0
  -17.3589  -29.5982   24.9646 C   0  0  0  0  0  0  0  0  0  0  0  0
  -30.7151  -22.6915   17.3612 C   0  0  0  0  0  0  0  0  0  0  0  0
  -30.7136  -16.7609   20.3106 C   0  0  0  0  0  0  0  0  0  0  0  0
  -31.9633  -18.8264   19.6470 C   0  0  0  0  0  0  0  0  0  0  0  0
  -30.9650  -17.3578   17.8950 C   0  0  0  0  0  0  0  0  0  0  0  0
  -25.4073  -21.8328   27.7758 C   0  0  0  0  0  0  0  0  0  0  0  0
  -26.8057  -23.4787   26.5018 C   0  0  0  0  0  0  0  0  0  0  0  0
  -26.9809  -22.9232   18.0524 C   0  0  0  0  0  0  0  0  0  0  0  0
  -23.7603  -24.2305   26.7687 C   0  0  0  0  0  0  0  0  0  0  0  0
  -18.9552  -26.3085   24.5963 C   0  0  0  0  0  0  0  0  0  0  0  0
  -18.8580  -29.3231   24.7780 C   0  0  0  0  0  0  0  0  0  0  0  0
  -24.3583  -23.1439   25.8643 C   0  0  0  0  0  0  0  0  0  0  0  0
  -26.0849  -21.3587   25.3973 C   0  0  0  0  0  0  0  0  0  1  0  0
  -29.4478  -18.7853   19.3277 C   0  0  1  0  0  0  0  0  0  0  0  0
  -29.3119  -22.1528   17.5926 C   0  0  2  0  0  0  0  0  0  0  0  0
  -30.7490  -17.9344   19.3112 C   0  0  0  0  0  0  0  0  0  0  0  0
  -25.6538  -22.4639   26.3927 C   0  0  0  0  0  0  0  0  0  0  0  0
  -21.3265  -24.1726   26.5469 N   0  0  0  0  0  0  0  0  0  0  0  0
  -21.3712  -26.3741   24.8101 N   0  0  0  0  0  0  0  0  0  0  0  0
  -25.0073  -26.3232   19.5923 N   0  0  0  0  0  0  0  0  0  0  0  0
  -19.2022  -27.2218   23.4742 N   0  0  0  0  0  0  0  0  0  0  0  0
  -23.7981  -26.9068   19.5349 N   0  0  0  0  0  0  0  0  0  0  0  0
  -19.6534  -27.9530   21.4953 N   0  3  0  0  0  0  0  0  0  0  0  0
  -20.8749  -25.0899   21.1878 N   0  0  0  0  0  0  0  0  0  0  0  0
  -27.2348  -17.9280   20.0288 N   0  0  0  0  0  0  0  0  0  0  0  0
  -22.7220  -29.0028   19.2905 N   0  0  0  0  0  0  0  0  0  0  0  0
  -27.1098  -30.0571   19.1116 N   0  0  0  0  0  0  0  0  0  0  0  0
  -25.5499  -14.7386   20.5625 N   0  0  0  0  0  0  0  0  0  0  0  0
  -29.4424  -19.8874   18.3719 N   0  0  0  0  0  0  0  0  0  0  0  0
  -28.3993  -23.3063   17.8324 N   0  3  0  0  0  0  0  0  0  0  0  0
  -24.9844  -30.9158   19.0477 O   0  0  0  0  0  0  0  0  0  0  0  0
  -18.6485  -24.7540   21.8184 O   0  0  0  0  0  0  0  0  0  0  0  0
  -27.5371  -15.7185   21.2788 O   0  0  0  0  0  0  0  0  0  0  0  0
  -28.1299  -17.3763   17.9478 O   0  0  0  0  0  0  0  0  0  0  0  0
  -29.1165  -21.5736   19.9300 O   0  0  0  0  0  0  0  0  0  0  0  0
  -31.3722  -26.4907   19.4962 O   0  0  0  0  0  0  0  0  0  0  0  0
  -25.0780  -20.3550   25.2739 O   0  0  0  0  0  0  0  0  0  1  0  0
  -34.4788  -29.9036   22.5137 F   0  0  0  0  0  0  0  0  0  0  0  0
  -32.9394  -25.5300   21.5611 F   0  0  0  0  0  0  0  0  0  0  0  0
  1  2  1  0  0  0  0
  1  5  2  0  0  0  0
  2  6  2  0  0  0  0
  3  8  2  0  0  0  0
  3 18  1  0  0  0  0
  4  9  1  0  0  0  0
  4 18  2  0  0  0  0
  5 20  1  0  0  0  0
  6 22  1  0  0  0  0
  7 10  2  0  0  0  0
  7 21  1  0  0  0  0
  8 24  1  0  0  0  0
  9 24  2  0  0  0  0
 10 25  1  0  0  0  0
 11 12  2  0  0  0  0
 11 26  1  0  0  0  0
 12 27  1  0  0  0  0
 13 23  1  0  0  0  0
 13 25  2  0  0  0  0
 14 27  2  0  0  0  0
 14 28  1  0  0  0  0
 15 30  2  0  0  0  0
 15 70  1  0  0  0  0
 16 31  1  0  0  0  0
 16 69  2  0  0  0  0
 17 32  2  0  0  0  0
 17 74  1  0  0  0  0
 18 29  1  0  0  0  0
 19 29  1  0  0  0  0
 19 33  2  0  0  0  0
 19 35  1  0  0  0  0
 20 22  2  0  0  0  0
 20 40  1  0  0  0  0
 21 23  2  0  0  0  0
 21 41  1  0  0  0  0
 22 49  1  0  0  0  0
 23 42  1  0  0  0  0
 24 87  1  0  0  0  0
 25 88  1  0  0  0  0
 26 28  2  0  0  0  0
 26 87  1  0  0  0  0
 27 89  1  0  0  0  0
 28 90  1  0  0  0  0
 29 71  2  0  0  0  0
 30 60  1  0  0  0  0
 30 69  1  0  0  0  0
 31 61  1  0  0  0  0
 31 70  2  0  0  0  0
 32 62  1  0  0  0  0
 32 72  1  0  0  0  0
 33 73  1  0  0  0  0
 33 77  1  0  0  0  0
 34 36  1  0  0  0  0
 34 72  1  0  0  0  0
 34 74  2  0  0  0  0
 35 78  1  0  0  0  0
 35 82  2  0  0  0  0
 36 75  1  0  0  0  0
 36 83  2  0  0  0  0
 37 50  1  0  0  0  0
 37 79  1  0  0  0  0
 37 84  2  0  0  0  0
 38 65  1  0  0  0  0
 38 76  1  0  0  0  0
 38 85  2  0  0  0  0
 39 66  1  0  0  0  0
 39 80  1  0  0  0  0
 39 86  2  0  0  0  0
 40 43  1  0  0  0  0
 41 50  1  0  0  0  0
 42 76  1  0  0  0  0
 43 45  1  0  0  0  0
 44 46  1  0  0  0  0
 44 47  1  0  0  0  0
 45 49  1  0  0  0  0
 46 51  1  0  0  0  0
 47 75  1  0  0  0  0
 48 51  1  0  0  0  0
 48 75  1  0  0  0  0
 49 79  1  0  0  0  0
 50 76  1  0  0  0  0
 51 73  1  0  0  0  0
 52 62  1  0  0  0  0
 53 66  1  0  0  0  0
 54 67  1  0  0  0  0
 55 67  1  0  0  0  0
 56 67  1  0  0  0  0
 57 68  1  0  0  0  0
 58 68  1  0  0  0  0
 59 81  1  0  0  0  0
 60 63  1  0  0  0  0
 61 72  1  0  0  0  0
 63 68  1  0  0  0  0
 64 68  1  0  0  0  0
 64 88  1  0  0  0  0
 65 67  1  0  0  0  0
 65 80  1  0  0  0  0
 66 81  1  0  0  0  0
 71 73  1  0  0  0  0
M  CHG  2  74   1  81   1
M  ISO  4  34 100  36 100  64 101  88 101
M  END
> <Batch ID>
0065

> <Smiles>
CCc1cn[100c:0]([100C:0](=O)N2CCCC(n3nc(-c4ccc(Oc5ccc(F)cc5F)cc4)c(C(N)=O)c3N)C2)n1Cc1cnc(CCC(C)(C)[101CH2:1][101O:1]c2ccc3c(c2)CN(C(=O)C(NC(=O)C(C)NC)C(C)(C)C)C(C(=O)NC2CCCc4ccccc42)C3)cn1

> <Shape>
0.227

> <Color>
0.054

> <Negative vol penalty>
0.000

$$$$

  -OEChem-04052318073D

 92101  0     1  0  0  0  0  0999 V2000
  -21.4932   -6.5518   24.6194 C   0  0  0  0  0  0  0  0  0  0  0  0
  -21.4176   -7.9397   24.5609 C   0  0  0  0  0  0  0  0  0  0  0  0
  -21.9180  -29.2026   21.5459 C   0  0  0  0  0  0  0  0  0  0  0  0
  -23.1741  -29.9202   23.4809 C   0  0  0  0  0  0  0  0  0  0  0  0
  -22.7106   -5.9110   24.3932 C   0  0  0  0  0  0  0  0  0  0  0  0
  -22.5597   -8.6877   24.2772 C   0  0  0  0  0  0  0  0  0  0  0  0
  -22.8418  -13.9141   21.0974 C   0  0  0  0  0  0  0  0  0  0  0  0
  -20.8584  -28.8288   22.3723 C   0  0  0  0  0  0  0  0  0  0  0  0
  -22.1144  -29.5465   24.3074 C   0  0  0  0  0  0  0  0  0  0  0  0
  -22.9037  -15.2499   21.4919 C   0  0  0  0  0  0  0  0  0  0  0  0
  -17.6804  -28.0197   23.9409 C   0  0  0  0  0  0  0  0  0  0  0  0
  -16.3925  -28.3855   23.5496 C   0  0  0  0  0  0  0  0  0  0  0  0
  -25.3052  -15.1977   21.2703 C   0  0  0  0  0  0  0  0  0  0  0  0
  -17.0324  -30.7142   23.6203 C   0  0  0  0  0  0  0  0  0  0  0  0
  -23.0759  -29.7482   22.1002 C   0  0  0  0  0  0  0  0  0  0  0  0
  -24.3792  -31.3901   20.6464 C   0  0  0  0  0  0  0  0  0  0  0  0
  -23.8661   -6.6510   24.0970 C   0  0  0  0  0  0  0  0  0  0  0  0
  -24.0140  -13.2058   20.7964 C   0  0  0  0  0  0  0  0  0  0  0  0
  -23.7940   -8.0562   24.0481 C   0  0  0  0  0  0  0  0  0  0  0  0
  -25.2553  -13.8538   20.8697 C   0  0  0  0  0  0  0  0  0  0  0  0
  -20.9566  -29.0008   23.7531 C   0  0  0  0  0  0  0  0  0  0  0  0
  -24.1358  -15.8911   21.5812 C   0  0  0  0  0  0  0  0  0  0  0  0
  -18.6443  -29.0012   24.1721 C   0  0  0  0  0  0  0  0  0  0  0  0
  -16.0685  -29.7327   23.3893 C   0  0  0  0  0  0  0  0  0  0  0  0
  -18.3203  -30.3484   24.0117 C   0  0  0  0  0  0  0  0  0  0  0  0
  -24.1711  -30.1340   21.2470 C   0  0  0  0  0  0  0  0  0  0  0  0
  -25.5493  -31.2442   19.9420 C   0  0  0  0  0  0  0  0  0  0  0  0
  -28.7988  -23.5285   20.4070 C   0  0  0  0  0  0  0  0  0  0  0  0
  -30.2380  -25.1418   20.2207 C   0  0  0  0  0  0  0  0  0  0  0  0
  -23.5858  -32.5821   20.7187 C   0  0  0  0  0  0  0  0  0  0  0  0
  -25.4583  -10.6433   22.0012 C   0  0  0  0  0  0  0  0  0  0  0  0
  -27.4347  -11.0444   19.4605 C   0  0  0  0  0  0  0  0  0  0  0  0
  -30.1371  -27.5568   20.7355 C   0  0  0  0  0  0  0  0  0  0  0  0
  -28.7520  -13.1482   17.1183 C   0  0  0  0  0  0  0  0  0  0  0  0
  -25.1695   -5.9164   23.9066 C   0  0  0  0  0  0  0  0  0  0  0  0
  -23.9280  -11.7731   20.3466 C   0  0  0  0  0  0  0  0  0  0  0  0
  -26.5413  -13.1437   20.5377 C   0  0  0  0  0  0  0  0  0  0  0  0
  -26.2535   -6.7615   23.2424 C   0  0  0  0  0  0  0  0  0  0  0  0
  -28.1894  -27.9601   17.6907 C   0  0  0  0  0  0  0  0  0  0  0  0
  -26.3265   -8.1409   23.8896 C   0  0  0  0  0  0  0  0  0  0  0  0
  -28.2514  -21.2337   21.1778 C   0  0  0  0  0  0  0  0  0  0  0  0
  -26.4964  -22.6732   20.0527 C   0  0  0  0  0  0  0  0  0  0  0  0
  -27.1528  -20.3092   21.7018 C   0  0  0  0  0  0  0  0  0  0  0  0
  -25.4019  -21.7454   20.5795 C   0  0  0  0  0  0  0  0  0  0  0  0
  -26.9371  -28.6584   18.2192 C   0  0  0  0  0  0  0  0  0  0  0  0
  -28.7395  -26.9550   18.6993 C   0  0  0  0  0  0  0  0  0  0  0  0
  -27.7647  -28.2407   20.5758 C   0  0  0  0  0  0  0  0  0  0  0  0
  -25.0057   -8.9009   23.7187 C   0  0  1  0  0  0  0  0  0  0  0  0
  -27.7302  -22.6656   20.9706 C   0  0  0  0  0  0  0  0  0  0  0  0
  -25.2261  -11.0008   20.5603 C   0  0  1  0  0  0  0  0  0  0  0  0
  -25.9210  -20.3166   20.7872 C   0  0  0  0  0  0  0  0  0  0  0  0
  -27.1960  -29.2849   19.6006 C   0  0  2  0  0  0  0  0  0  0  0  0
  -30.3700  -13.1959   15.2008 C   0  0  0  0  0  0  0  0  0  0  0  0
  -32.0214  -26.7047   19.4025 C   0  0  0  0  0  0  0  0  0  0  0  0
  -31.8584  -26.3103   21.8626 C   0  0  0  0  0  0  0  0  0  0  0  0
  -29.6745  -26.2046   25.1765 C   0  0  0  0  0  0  0  0  0  0  0  0
  -29.6864  -23.8278   25.9741 C   0  0  0  0  0  0  0  0  0  0  0  0
  -27.5944  -24.8268   25.0429 C   0  0  0  0  0  0  0  0  0  0  0  0
  -29.7653  -11.0269   21.4298 C   0  0  0  0  0  0  0  0  0  0  0  0
  -31.2026  -12.0083   19.6300 C   0  0  0  0  0  0  0  0  0  0  0  0
  -30.1767   -9.7564   19.3152 C   0  0  0  0  0  0  0  0  0  0  0  0
  -26.6368  -13.9300   15.2016 C   0  0  0  0  0  0  0  0  0  0  0  0
  -24.8287  -19.4258   21.3510 C   0  0  0  0  0  0  0  0  0  0  0  0
  -29.4821  -24.3111   23.4793 C   0  0  0  0  0  0  0  0  0  0  0  0
  -28.8801  -25.1374   22.3349 C   0  0  0  0  0  0  0  0  0  0  0  0
  -25.2744  -17.9746   21.4453 C   0  0  0  0  0  0  0  0  0  1  0  0
  -28.7096  -11.8127   19.2085 C   0  0  1  0  0  0  0  0  0  0  0  0
  -28.9196  -13.0051   15.6164 C   0  0  2  0  0  0  0  0  0  0  0  0
  -31.0193  -26.3492   20.5426 C   0  0  0  0  0  0  0  0  0  0  0  0
  -29.1299  -24.7911   24.9127 C   0  0  0  0  0  0  0  0  0  0  0  0
  -29.9396  -11.1642   19.9041 C   0  0  0  0  0  0  0  0  0  0  0  0
  -25.1319  -29.2549   20.9500 N   0  0  0  0  0  0  0  0  0  0  0  0
  -29.4134  -23.3781   19.2555 N   0  0  0  0  0  0  0  0  0  0  0  0
  -30.3291  -24.4045   19.1369 N   0  0  0  0  0  0  0  0  0  0  0  0
  -25.9549  -29.9596   20.1550 N   0  0  0  0  0  0  0  0  0  0  0  0
  -29.2867  -24.6266   21.0479 N   0  0  0  0  0  0  0  0  0  0  0  0
  -26.4056  -11.7418   20.1088 N   0  0  0  0  0  0  0  0  0  0  0  0
  -28.9463  -27.5840   20.0092 N   0  0  0  0  0  0  0  0  0  0  0  0
  -26.2603  -32.0908   19.1673 N   0  0  0  0  0  0  0  0  0  0  0  0
  -22.4138  -32.5591   21.4870 N   0  0  0  0  0  0  0  0  0  0  0  0
  -24.9005   -9.4367   22.3785 N   0  0  0  0  0  0  0  0  0  0  0  0
  -28.8356  -11.9306   17.7599 N   0  0  0  0  0  0  0  0  0  0  0  0
  -28.0896  -14.0172   14.9037 N   0  3  0  0  0  0  0  0  0  0  0  0
  -23.8979  -33.6315   20.1065 O   0  0  0  0  0  0  0  0  0  0  0  0
  -26.0975  -11.4052   22.7172 O   0  0  0  0  0  0  0  0  0  0  0  0
  -27.3524   -9.8710   19.0891 O   0  0  0  0  0  0  0  0  0  0  0  0
  -30.4985  -28.4493   21.5068 O   0  0  0  0  0  0  0  0  0  0  0  0
  -28.5691  -14.2323   17.6679 O   0  0  0  0  0  0  0  0  0  0  0  0
  -19.9226  -28.6364   24.5598 O   0  0  0  0  0  0  0  0  0  0  0  0
  -24.1992  -17.1946   21.9667 O   0  0  0  0  0  0  0  0  0  1  0  0
  -14.8321  -30.0837   23.0119 F   0  0  0  0  0  0  0  0  0  0  0  0
  -19.2424  -31.2957   24.2311 F   0  0  0  0  0  0  0  0  0  0  0  0
  1  2  1  0  0  0  0
  1  5  2  0  0  0  0
  2  6  2  0  0  0  0
  3  8  2  0  0  0  0
  3 15  1  0  0  0  0
  4  9  1  0  0  0  0
  4 15  2  0  0  0  0
  5 17  1  0  0  0  0
  6 19  1  0  0  0  0
  7 10  2  0  0  0  0
  7 18  1  0  0  0  0
  8 21  1  0  0  0  0
  9 21  2  0  0  0  0
 10 22  1  0  0  0  0
 11 12  2  0  0  0  0
 11 23  1  0  0  0  0
 12 24  1  0  0  0  0
 13 20  1  0  0  0  0
 13 22  2  0  0  0  0
 14 24  2  0  0  0  0
 14 25  1  0  0  0  0
 15 26  1  0  0  0  0
 16 26  1  0  0  0  0
 16 27  2  0  0  0  0
 16 30  1  0  0  0  0
 17 19  2  0  0  0  0
 17 35  1  0  0  0  0
 18 20  2  0  0  0  0
 18 36  1  0  0  0  0
 19 48  1  0  0  0  0
 20 37  1  0  0  0  0
 21 89  1  0  0  0  0
 22 90  1  0  0  0  0
 23 25  2  0  0  0  0
 23 89  1  0  0  0  0
 24 91  1  0  0  0  0
 25 92  1  0  0  0  0
 26 72  2  0  0  0  0
 27 75  1  0  0  0  0
 27 79  1  0  0  0  0
 28 49  1  0  0  0  0
 28 73  2  0  0  0  0
 28 76  1  0  0  0  0
 29 69  1  0  0  0  0
 29 74  2  0  0  0  0
 29 76  1  0  0  0  0
 30 80  1  0  0  0  0
 30 84  2  0  0  0  0
 31 50  1  0  0  0  0
 31 81  1  0  0  0  0
 31 85  2  0  0  0  0
 32 67  1  0  0  0  0
 32 77  1  0  0  0  0
 32 86  2  0  0  0  0
 33 69  1  0  0  0  0
 33 78  1  0  0  0  0
 33 87  2  0  0  0  0
 34 68  1  0  0  0  0
 34 82  1  0  0  0  0
 34 88  2  0  0  0  0
 35 38  1  0  0  0  0
 36 50  1  0  0  0  0
 37 77  1  0  0  0  0
 38 40  1  0  0  0  0
 39 45  1  0  0  0  0
 39 46  1  0  0  0  0
 40 48  1  0  0  0  0
 41 43  1  0  0  0  0
 41 49  1  0  0  0  0
 42 44  1  0  0  0  0
 42 49  1  0  0  0  0
 43 51  1  0  0  0  0
 44 51  1  0  0  0  0
 45 52  1  0  0  0  0
 46 78  1  0  0  0  0
 47 52  1  0  0  0  0
 47 78  1  0  0  0  0
 48 81  1  0  0  0  0
 50 77  1  0  0  0  0
 51 63  1  0  0  0  0
 52 75  1  0  0  0  0
 53 68  1  0  0  0  0
 54 69  1  0  0  0  0
 55 69  1  0  0  0  0
 56 70  1  0  0  0  0
 57 70  1  0  0  0  0
 58 70  1  0  0  0  0
 59 71  1  0  0  0  0
 60 71  1  0  0  0  0
 61 71  1  0  0  0  0
 62 83  1  0  0  0  0
 63 66  1  0  0  0  0
 64 65  1  0  0  0  0
 64 70  1  0  0  0  0
 65 76  1  0  0  0  0
 66 90  1  0  0  0  0
 67 71  1  0  0  0  0
 67 82  1  0  0  0  0
 68 83  1  0  0  0  0
 72 75  1  0  0  0  0
 73 74  1  0  0  0  0
M  CHG  1  83   1
M  ISO  4  33 100  66 101  69 100  90 101
M  END
> <Batch ID>
0065

> <Smiles>
CNC(C)C(=O)NC(C(=O)N1Cc2cc([101O:1][101CH2:1]CC3CCC(c4nnc([100C:0](C)(C)[100C:0](=O)N5CCCC(n6nc(-c7ccc(Oc8ccc(F)cc8F)cc7)c(C(N)=O)c6N)C5)n4CCC(C)(C)C)CC3)ccc2CC1C(=O)NC1CCCc2ccccc21)C(C)(C)C

> <Shape>
0.293

> <Color>
0.061

> <Negative vol penalty>
0.000

$$$$

  -OEChem-04052318073D

 94103  0     1  0  0  0  0  0999 V2000
  -27.5270  -37.4726   22.0869 C   0  0  0  0  0  0  0  0  0  0  0  0
  -28.0338  -36.2697   21.6055 C   0  0  0  0  0  0  0  0  0  0  0  0
  -23.5307  -20.8670   19.7904 C   0  0  0  0  0  0  0  0  0  0  0  0
  -25.7706  -21.0603   18.9057 C   0  0  0  0  0  0  0  0  0  0  0  0
  -26.5775  -37.4688   23.1078 C   0  0  0  0  0  0  0  0  0  0  0  0
  -27.5922  -35.0624   22.1456 C   0  0  0  0  0  0  0  0  0  0  0  0
  -26.8278  -29.7614   19.1755 C   0  0  0  0  0  0  0  0  0  0  0  0
  -23.2193  -22.1260   19.2772 C   0  0  0  0  0  0  0  0  0  0  0  0
  -25.4592  -22.3193   18.3924 C   0  0  0  0  0  0  0  0  0  0  0  0
  -27.6279  -28.6252   19.0635 C   0  0  0  0  0  0  0  0  0  0  0  0
  -25.1448  -25.4304   16.5377 C   0  0  0  0  0  0  0  0  0  0  0  0
  -25.5473  -25.7176   15.2334 C   0  0  0  0  0  0  0  0  0  0  0  0
  -26.3954  -27.5876   20.8589 C   0  0  0  0  0  0  0  0  0  0  0  0
  -24.2189  -23.8721   14.4171 C   0  0  0  0  0  0  0  0  0  0  0  0
  -31.1151  -18.2580   21.7020 C   0  0  0  0  0  0  0  0  0  0  0  0
  -29.0231  -21.6865   20.0885 C   0  0  0  0  0  0  0  0  0  0  0  0
  -30.8210  -21.8515   18.6064 C   0  0  0  0  0  0  0  0  0  0  0  0
  -24.8064  -20.3341   19.6047 C   0  0  0  0  0  0  0  0  0  0  0  0
  -24.9811  -17.7917   19.4893 C   0  0  0  0  0  0  0  0  0  0  0  0
  -26.1168  -36.2605   23.6540 C   0  0  0  0  0  0  0  0  0  0  0  0
  -25.8109  -29.8237   20.1390 C   0  0  0  0  0  0  0  0  0  0  0  0
  -26.6366  -35.0425   23.1757 C   0  0  0  0  0  0  0  0  0  0  0  0
  -25.5821  -28.7248   20.9794 C   0  0  0  0  0  0  0  0  0  0  0  0
  -29.8791  -22.5022   19.3769 C   0  0  0  0  0  0  0  0  0  0  0  0
  -24.1836  -22.8522   18.5782 C   0  0  0  0  0  0  0  0  0  0  0  0
  -27.4137  -27.5392   19.9072 C   0  0  0  0  0  0  0  0  0  0  0  0
  -24.2793  -24.3640   16.7817 C   0  0  0  0  0  0  0  0  0  0  0  0
  -25.0844  -24.9385   14.1731 C   0  0  0  0  0  0  0  0  0  0  0  0
  -23.8164  -23.5849   15.7214 C   0  0  0  0  0  0  0  0  0  0  0  0
  -25.1288  -19.0338   20.1352 C   0  0  0  0  0  0  0  0  0  0  0  0
  -30.4059  -17.6914   20.6259 C   0  0  0  0  0  0  0  0  0  0  0  0
  -31.0679  -17.3011   22.6861 C   0  0  0  0  0  0  0  0  0  0  0  0
  -25.4243  -16.8720   20.4081 C   0  0  0  0  0  0  0  0  0  0  0  0
  -30.0361  -19.8238   19.2692 C   0  0  0  0  0  0  0  0  0  0  0  0
  -24.4875  -17.4957   18.1761 C   0  0  0  0  0  0  0  0  0  0  0  0
  -25.2155  -31.6716   22.6558 C   0  0  0  0  0  0  0  0  0  0  0  0
  -22.4321  -30.0073   22.7289 C   0  0  0  0  0  0  0  0  0  0  0  0
  -29.2271  -15.2800   24.0526 C   0  0  0  0  0  0  0  0  0  0  0  0
  -20.7356  -27.1616   21.9098 C   0  0  0  0  0  0  0  0  0  0  0  0
  -25.1244  -36.3084   24.7888 C   0  0  0  0  0  0  0  0  0  0  0  0
  -24.9392  -31.0461   20.2292 C   0  0  0  0  0  0  0  0  0  0  0  0
  -24.4902  -28.7336   22.0167 C   0  0  0  0  0  0  0  0  0  0  0  0
  -24.4319  -34.9731   25.0491 C   0  0  0  0  0  0  0  0  0  0  0  0
  -26.5303  -17.3710   25.3106 C   0  0  0  0  0  0  0  0  0  0  0  0
  -25.4512  -33.8384   25.0706 C   0  0  0  0  0  0  0  0  0  0  0  0
  -25.9321  -17.9119   24.0126 C   0  0  0  0  0  0  0  0  0  0  0  0
  -28.0449  -17.2118   25.2070 C   0  0  0  0  0  0  0  0  0  0  0  0
  -27.8875  -16.9067   22.7561 C   0  0  0  0  0  0  0  0  0  0  0  0
  -26.1640  -33.7114   23.7189 C   0  0  1  0  0  0  0  0  0  0  0  0
  -24.2667  -31.2014   21.5897 C   0  0  1  0  0  0  0  0  0  0  0  0
  -26.3576  -17.0531   22.8088 C   0  0  2  0  0  0  0  0  0  0  0  0
  -18.4847  -26.0758   22.1367 C   0  0  0  0  0  0  0  0  0  0  0  0
  -28.8061  -17.7567   18.5817 C   0  0  0  0  0  0  0  0  0  0  0  0
  -31.2617  -17.7613   18.2762 C   0  0  0  0  0  0  0  0  0  0  0  0
  -31.6955  -18.7285   24.6647 C   0  0  0  0  0  0  0  0  0  0  0  0
  -33.0759  -16.7047   24.0858 C   0  0  0  0  0  0  0  0  0  0  0  0
  -30.8260  -16.4423   25.1109 C   0  0  0  0  0  0  0  0  0  0  0  0
  -31.3373  -14.2905   23.2218 C   0  0  0  0  0  0  0  0  0  0  0  0
  -29.1981  -14.0405   21.9624 C   0  0  0  0  0  0  0  0  0  0  0  0
  -23.0419  -29.3587   25.6474 C   0  0  0  0  0  0  0  0  0  0  0  0
  -21.3167  -27.5479   25.5329 C   0  0  0  0  0  0  0  0  0  0  0  0
  -20.6510  -29.9263   25.1824 C   0  0  0  0  0  0  0  0  0  0  0  0
  -20.3642  -27.0512   18.9757 C   0  0  0  0  0  0  0  0  0  0  0  0
  -29.7920  -24.0062   19.4396 C   0  0  0  0  0  0  0  0  0  0  0  0
  -28.8669  -24.6141   18.3831 C   0  0  0  0  0  0  0  0  0  0  0  0
  -28.7185  -26.1260   18.5085 C   0  0  0  0  0  0  0  0  0  1  0  0
  -21.9672  -28.7299   23.3856 C   0  0  1  0  0  0  0  0  0  0  0  0
  -19.3767  -26.9486   21.2677 C   0  0  2  0  0  0  0  0  0  0  0  0
  -30.1261  -18.3366   19.2114 C   0  0  0  0  0  0  0  0  0  0  0  0
  -31.6226  -17.2886   24.0521 C   0  0  0  0  0  0  0  0  0  0  0  0
  -30.0406  -15.0113   22.8118 C   0  0  0  0  0  0  0  0  0  0  0  0
  -21.7661  -28.8910   24.9189 C   0  0  0  0  0  0  0  0  0  0  0  0
  -29.0736  -20.3386   20.0578 N   0  0  0  0  0  0  0  0  0  0  0  0
  -30.9285  -20.5089   18.5290 N   0  0  0  0  0  0  0  0  0  0  0  0
  -25.6268  -18.9174   21.3691 N   0  0  0  0  0  0  0  0  0  0  0  0
  -29.9424  -16.4692   20.9004 N   0  0  0  0  0  0  0  0  0  0  0  0
  -30.3612  -16.2600   22.1601 N   0  0  0  0  0  0  0  0  0  0  0  0
  -25.7957  -17.5911   21.5059 N   0  0  0  0  0  0  0  0  0  0  0  0
  -23.6687  -29.9541   22.0703 N   0  0  0  0  0  0  0  0  0  0  0  0
  -28.4104  -16.4109   24.0325 N   0  0  0  0  0  0  0  0  0  0  0  0
  -25.5285  -15.5265   20.3761 N   0  0  0  0  0  0  0  0  0  0  0  0
  -24.0736  -18.5592   17.3625 N   0  0  0  0  0  0  0  0  0  0  0  0
  -25.3104  -33.0464   22.7579 N   0  0  0  0  0  0  0  0  0  0  0  0
  -20.7681  -28.3140   22.6662 N   0  0  0  0  0  0  0  0  0  0  0  0
  -19.5289  -26.2896   19.9397 N   0  3  0  0  0  0  0  0  0  0  0  0
  -24.4002  -16.3216   17.7433 O   0  0  0  0  0  0  0  0  0  0  0  0
  -25.8157  -30.8481   23.3364 O   0  0  0  0  0  0  0  0  0  0  0  0
  -21.7208  -31.0132   22.7918 O   0  0  0  0  0  0  0  0  0  0  0  0
  -29.3181  -14.5084   25.0110 O   0  0  0  0  0  0  0  0  0  0  0  0
  -21.6734  -26.3816   21.7588 O   0  0  0  0  0  0  0  0  0  0  0  0
  -23.8800  -24.0807   18.0770 O   0  0  0  0  0  0  0  0  0  0  0  0
  -28.1936  -26.4292   19.8004 O   0  0  0  0  0  0  0  0  0  1  0  0
  -25.4698  -25.2153   12.9206 F   0  0  0  0  0  0  0  0  0  0  0  0
  -22.9839  -22.5598   15.9494 F   0  0  0  0  0  0  0  0  0  0  0  0
  1  2  1  0  0  0  0
  1  5  2  0  0  0  0
  2  6  2  0  0  0  0
  3  8  2  0  0  0  0
  3 18  1  0  0  0  0
  4  9  1  0  0  0  0
  4 18  2  0  0  0  0
  5 20  1  0  0  0  0
  6 22  1  0  0  0  0
  7 10  2  0  0  0  0
  7 21  1  0  0  0  0
  8 25  1  0  0  0  0
  9 25  2  0  0  0  0
 10 26  1  0  0  0  0
 11 12  2  0  0  0  0
 11 27  1  0  0  0  0
 12 28  1  0  0  0  0
 13 23  1  0  0  0  0
 13 26  2  0  0  0  0
 14 28  2  0  0  0  0
 14 29  1  0  0  0  0
 15 31  1  0  0  0  0
 15 32  2  0  0  0  0
 16 24  1  0  0  0  0
 16 73  2  0  0  0  0
 17 24  2  0  0  0  0
 17 74  1  0  0  0  0
 18 30  1  0  0  0  0
 19 30  1  0  0  0  0
 19 33  2  0  0  0  0
 19 35  1  0  0  0  0
 20 22  2  0  0  0  0
 20 40  1  0  0  0  0
 21 23  2  0  0  0  0
 21 41  1  0  0  0  0
 22 49  1  0  0  0  0
 23 42  1  0  0  0  0
 24 64  1  0  0  0  0
 25 91  1  0  0  0  0
 26 92  1  0  0  0  0
 27 29  2  0  0  0  0
 27 91  1  0  0  0  0
 28 93  1  0  0  0  0
 29 94  1  0  0  0  0
 30 75  2  0  0  0  0
 31 69  1  0  0  0  0
 31 76  2  0  0  0  0
 32 70  1  0  0  0  0
 32 77  1  0  0  0  0
 33 78  1  0  0  0  0
 33 81  1  0  0  0  0
 34 69  1  0  0  0  0
 34 73  1  0  0  0  0
 34 74  2  0  0  0  0
 35 82  1  0  0  0  0
 35 86  2  0  0  0  0
 36 50  1  0  0  0  0
 36 83  1  0  0  0  0
 36 87  2  0  0  0  0
 37 67  1  0  0  0  0
 37 79  1  0  0  0  0
 37 88  2  0  0  0  0
 38 71  1  0  0  0  0
 38 80  1  0  0  0  0
 38 89  2  0  0  0  0
 39 68  1  0  0  0  0
 39 84  1  0  0  0  0
 39 90  2  0  0  0  0
 40 43  1  0  0  0  0
 41 50  1  0  0  0  0
 42 79  1  0  0  0  0
 43 45  1  0  0  0  0
 44 46  1  0  0  0  0
 44 47  1  0  0  0  0
 45 49  1  0  0  0  0
 46 51  1  0  0  0  0
 47 80  1  0  0  0  0
 48 51  1  0  0  0  0
 48 80  1  0  0  0  0
 49 83  1  0  0  0  0
 50 79  1  0  0  0  0
 51 78  1  0  0  0  0
 52 68  1  0  0  0  0
 53 69  1  0  0  0  0
 54 69  1  0  0  0  0
 55 70  1  0  0  0  0
 56 70  1  0  0  0  0
 57 70  1  0  0  0  0
 58 71  1  0  0  0  0
 59 71  1  0  0  0  0
 60 72  1  0  0  0  0
 61 72  1  0  0  0  0
 62 72  1  0  0  0  0
 63 85  1  0  0  0  0
 64 65  1  0  0  0  0
 65 66  1  0  0  0  0
 66 92  1  0  0  0  0
 67 72  1  0  0  0  0
 67 84  1  0  0  0  0
 68 85  1  0  0  0  0
 71 77  1  0  0  0  0
 75 78  1  0  0  0  0
 76 77  1  0  0  0  0
M  CHG  1  85   1
M  ISO  4  38 100  66 101  71 100  92 101
M  END
> <Batch ID>
0065

> <Smiles>
CNC(C)C(=O)NC(C(=O)N1Cc2cc([101O:1][101CH2:1]CCc3cnc(C(C)(C)c4cc(C(C)(C)C)n([100C:0](C)(C)[100C:0](=O)N5CCCC(n6nc(-c7ccc(Oc8ccc(F)cc8F)cc7)c(C(N)=O)c6N)C5)n4)nc3)ccc2CC1C(=O)NC1CCCc2ccccc21)C(C)(C)C

> <Shape>
0.256

> <Color>
0.098

> <Negative vol penalty>
0.000

$$$$

  -OEChem-04052318073D

 91 99  0     1  0  0  0  0  0999 V2000
  -24.8638  -37.8294   18.2350 C   0  0  0  0  0  0  0  0  0  0  0  0
  -24.6284  -36.6183   17.5921 C   0  0  0  0  0  0  0  0  0  0  0  0
  -26.3444  -11.4256   21.0609 C   0  0  0  0  0  0  0  0  0  0  0  0
  -25.8354  -12.6392   19.0348 C   0  0  0  0  0  0  0  0  0  0  0  0
  -25.6163  -37.8598   19.4083 C   0  0  0  0  0  0  0  0  0  0  0  0
  -25.1464  -35.4369   18.1217 C   0  0  0  0  0  0  0  0  0  0  0  0
  -23.6432  -28.4590   18.7256 C   0  0  0  0  0  0  0  0  0  0  0  0
  -25.0192  -10.9973   21.1373 C   0  0  0  0  0  0  0  0  0  0  0  0
  -24.5101  -12.2109   19.1112 C   0  0  0  0  0  0  0  0  0  0  0  0
  -24.2134  -27.2096   18.4853 C   0  0  0  0  0  0  0  0  0  0  0  0
  -23.0738   -8.6451   19.6829 C   0  0  0  0  0  0  0  0  0  0  0  0
  -22.8428   -7.3010   19.9754 C   0  0  0  0  0  0  0  0  0  0  0  0
  -25.4321  -27.3734   20.5606 C   0  0  0  0  0  0  0  0  0  0  0  0
  -21.6227   -7.9424   21.9596 C   0  0  0  0  0  0  0  0  0  0  0  0
  -29.6602  -21.3618   18.5777 C   0  0  0  0  0  0  0  0  0  0  0  0
  -26.7525  -12.2466   20.0096 C   0  0  0  0  0  0  0  0  0  0  0  0
  -29.1873  -12.0444   19.2758 C   0  0  0  0  0  0  0  0  0  0  0  0
  -26.1357  -36.6770   19.9577 C   0  0  0  0  0  0  0  0  0  0  0  0
  -23.9721  -29.1809   19.8819 C   0  0  0  0  0  0  0  0  0  0  0  0
  -25.9077  -35.4517   19.3027 C   0  0  0  0  0  0  0  0  0  0  0  0
  -24.8628  -28.6305   20.8146 C   0  0  0  0  0  0  0  0  0  0  0  0
  -24.1020  -11.3899   20.1625 C   0  0  0  0  0  0  0  0  0  0  0  0
  -25.1102  -26.6679   19.4014 C   0  0  0  0  0  0  0  0  0  0  0  0
  -22.5793   -9.6379   20.5288 C   0  0  0  0  0  0  0  0  0  0  0  0
  -22.1173   -6.9496   21.1137 C   0  0  0  0  0  0  0  0  0  0  0  0
  -21.8538   -9.2866   21.6671 C   0  0  0  0  0  0  0  0  0  0  0  0
  -28.1213  -12.6899   19.9305 C   0  0  0  0  0  0  0  0  0  0  0  0
  -29.5612  -22.6764   18.9370 C   0  0  0  0  0  0  0  0  0  0  0  0
  -30.2692  -12.8623   19.4928 C   0  0  0  0  0  0  0  0  0  0  0  0
  -29.3361  -21.4494   20.7658 C   0  0  0  0  0  0  0  0  0  0  0  0
  -29.1986  -10.8155   18.5373 C   0  0  0  0  0  0  0  0  0  0  0  0
  -25.3502  -31.9867   20.4584 C   0  0  0  0  0  0  0  0  0  0  0  0
  -24.5529  -31.3076   23.5285 C   0  0  0  0  0  0  0  0  0  0  0  0
  -30.6816  -18.7333   20.7063 C   0  0  0  0  0  0  0  0  0  0  0  0
  -23.8093  -28.9420   25.8733 C   0  0  0  0  0  0  0  0  0  0  0  0
  -26.9831  -36.7656   21.2022 C   0  0  0  0  0  0  0  0  0  0  0  0
  -23.3279  -30.5155   20.1396 C   0  0  0  0  0  0  0  0  0  0  0  0
  -25.2333  -29.3562   22.0813 C   0  0  0  0  0  0  0  0  0  0  0  0
  -27.1805  -35.4231   21.9015 C   0  0  0  0  0  0  0  0  0  0  0  0
  -32.0196  -16.0175   22.6231 C   0  0  0  0  0  0  0  0  0  0  0  0
  -27.5507  -34.3434   20.8896 C   0  0  0  0  0  0  0  0  0  0  0  0
  -31.2482  -14.8020   22.1105 C   0  0  0  0  0  0  0  0  0  0  0  0
  -31.1443  -17.2667   22.6426 C   0  0  0  0  0  0  0  0  0  0  0  0
  -29.7404  -16.3723   20.8121 C   0  0  0  0  0  0  0  0  0  0  0  0
  -26.4319  -34.1458   19.8596 C   0  0  1  0  0  0  0  0  0  0  0  0
  -24.1288  -31.3903   21.0990 C   0  0  1  0  0  0  0  0  0  0  0  0
  -30.5969  -15.0953   20.7473 C   0  0  2  0  0  0  0  0  0  0  0  0
  -23.2393  -28.6886   28.3040 C   0  0  0  0  0  0  0  0  0  0  0  0
  -30.8191  -24.8198   18.6321 C   0  0  0  0  0  0  0  0  0  0  0  0
  -29.9181  -23.7251   16.5994 C   0  0  0  0  0  0  0  0  0  0  0  0
  -29.8750  -19.7282   22.5244 C   0  0  0  0  0  0  0  0  0  0  0  0
  -27.6287  -20.8641   22.5233 C   0  0  0  0  0  0  0  0  0  0  0  0
  -29.6627  -22.0982   23.2453 C   0  0  0  0  0  0  0  0  0  0  0  0
  -28.2850  -18.5469   20.3998 C   0  0  0  0  0  0  0  0  0  0  0  0
  -27.4766  -31.7824   24.2612 C   0  0  0  0  0  0  0  0  0  0  0  0
  -27.0487  -30.6166   26.4351 C   0  0  0  0  0  0  0  0  0  0  0  0
  -25.8272  -32.7220   25.8894 C   0  0  0  0  0  0  0  0  0  0  0  0
  -21.1795  -27.7359   25.2502 C   0  0  0  0  0  0  0  0  0  0  0  0
  -27.0594  -24.1361   17.7169 C   0  0  0  0  0  0  0  0  0  0  0  0
  -28.3322  -24.8122   18.2406 C   0  0  0  0  0  0  0  0  0  0  0  0
  -25.8590  -25.0709   17.8062 C   0  0  0  0  0  0  0  0  0  1  0  0
  -25.2246  -30.5888   24.6736 C   0  0  1  0  0  0  0  0  0  0  0  0
  -22.6904  -28.8537   26.8954 C   0  0  2  0  0  0  0  0  0  0  0  0
  -29.6383  -23.9676   18.1022 C   0  0  0  0  0  0  0  0  0  0  0  0
  -29.1414  -21.0661   22.1864 C   0  0  0  0  0  0  0  0  0  0  0  0
  -29.5592  -19.1782   19.8029 C   0  0  2  0  0  0  0  0  0  0  0  0
  -26.3890  -31.4144   25.2901 C   0  0  0  0  0  0  0  0  0  0  0  0
  -29.7925  -18.5942   18.4032 C   0  0  0  0  0  0  0  0  0  0  0  0
  -28.4923  -13.8298   20.5195 N   0  0  0  0  0  0  0  0  0  0  0  0
  -29.5177  -20.6252   19.7289 N   0  0  0  0  0  0  0  0  0  0  0  0
  -29.8036  -13.9070   20.2357 N   0  0  0  0  0  0  0  0  0  0  0  0
  -29.3606  -22.7009   20.2962 N   0  3  0  0  0  0  0  0  0  0  0  0
  -24.5818  -30.6606   22.2850 N   0  0  0  0  0  0  0  0  0  0  0  0
  -30.5261  -17.4982   21.3359 N   0  0  0  0  0  0  0  0  0  0  0  0
  -31.5639  -12.7824   19.1189 N   0  0  0  0  0  0  0  0  0  0  0  0
  -27.9996  -10.1007   18.4113 N   0  0  0  0  0  0  0  0  0  0  0  0
  -25.3523  -33.3682   20.4289 N   0  0  0  0  0  0  0  0  0  0  0  0
  -24.1668  -30.2492   25.6192 N   0  0  0  0  0  0  0  0  0  0  0  0
  -21.8062  -27.6918   26.5964 N   0  3  0  0  0  0  0  0  0  0  0  0
  -30.2445  -10.3563   18.0189 O   0  0  0  0  0  0  0  0  0  0  0  0
  -26.2265  -31.2481   20.0246 O   0  0  0  0  0  0  0  0  0  0  0  0
  -24.0159  -32.3994   23.7316 O   0  0  0  0  0  0  0  0  0  0  0  0
  -31.6677  -19.4618   20.8447 O   0  0  0  0  0  0  0  0  0  0  0  0
  -24.3180  -27.9504   25.3552 O   0  0  0  0  0  0  0  0  0  0  0  0
  -22.8088  -10.9719   20.2366 O   0  0  0  0  0  0  0  0  0  0  0  0
  -25.6688  -25.4489   19.1690 O   0  0  0  0  0  0  0  0  0  1  0  0
  -21.8942   -5.6589   21.3936 F   0  0  0  0  0  0  0  0  0  0  0  0
  -21.3752  -10.2360   22.4829 F   0  0  0  0  0  0  0  0  0  0  0  0
  -29.8221  -17.2418   18.4337 F   0  0  0  0  0  0  0  0  0  0  0  0
  -28.8275  -18.9578   17.5294 F   0  0  0  0  0  0  0  0  0  0  0  0
  -30.9744  -19.0077   17.8890 F   0  0  0  0  0  0  0  0  0  0  0  0
  1  2  1  0  0  0  0
  1  5  2  0  0  0  0
  2  6  2  0  0  0  0
  3  8  2  0  0  0  0
  3 16  1  0  0  0  0
  4  9  1  0  0  0  0
  4 16  2  0  0  0  0
  5 18  1  0  0  0  0
  6 20  1  0  0  0  0
  7 10  2  0  0  0  0
  7 19  1  0  0  0  0
  8 22  1  0  0  0  0
  9 22  2  0  0  0  0
 10 23  1  0  0  0  0
 11 12  2  0  0  0  0
 11 24  1  0  0  0  0
 12 25  1  0  0  0  0
 13 21  1  0  0  0  0
 13 23  2  0  0  0  0
 14 25  2  0  0  0  0
 14 26  1  0  0  0  0
 15 28  2  0  0  0  0
 15 70  1  0  0  0  0
 16 27  1  0  0  0  0
 17 27  1  0  0  0  0
 17 29  2  0  0  0  0
 17 31  1  0  0  0  0
 18 20  2  0  0  0  0
 18 36  1  0  0  0  0
 19 21  2  0  0  0  0
 19 37  1  0  0  0  0
 20 45  1  0  0  0  0
 21 38  1  0  0  0  0
 22 85  1  0  0  0  0
 23 86  1  0  0  0  0
 24 26  2  0  0  0  0
 24 85  1  0  0  0  0
 25 87  1  0  0  0  0
 26 88  1  0  0  0  0
 27 69  2  0  0  0  0
 28 64  1  0  0  0  0
 28 72  1  0  0  0  0
 29 71  1  0  0  0  0
 29 75  1  0  0  0  0
 30 65  1  0  0  0  0
 30 70  1  0  0  0  0
 30 72  2  0  0  0  0
 31 76  1  0  0  0  0
 31 80  2  0  0  0  0
 32 46  1  0  0  0  0
 32 77  1  0  0  0  0
 32 81  2  0  0  0  0
 33 62  1  0  0  0  0
 33 73  1  0  0  0  0
 33 82  2  0  0  0  0
 34 66  1  0  0  0  0
 34 74  1  0  0  0  0
 34 83  2  0  0  0  0
 35 63  1  0  0  0  0
 35 78  1  0  0  0  0
 35 84  2  0  0  0  0
 36 39  1  0  0  0  0
 37 46  1  0  0  0  0
 38 73  1  0  0  0  0
 39 41  1  0  0  0  0
 40 42  1  0  0  0  0
 40 43  1  0  0  0  0
 41 45  1  0  0  0  0
 42 47  1  0  0  0  0
 43 74  1  0  0  0  0
 44 47  1  0  0  0  0
 44 74  1  0  0  0  0
 45 77  1  0  0  0  0
 46 73  1  0  0  0  0
 47 71  1  0  0  0  0
 48 63  1  0  0  0  0
 49 64  1  0  0  0  0
 50 64  1  0  0  0  0
 51 65  1  0  0  0  0
 52 65  1  0  0  0  0
 53 65  1  0  0  0  0
 54 66  1  0  0  0  0
 55 67  1  0  0  0  0
 56 67  1  0  0  0  0
 57 67  1  0  0  0  0
 58 79  1  0  0  0  0
 59 60  1  0  0  0  0
 59 61  1  0  0  0  0
 60 64  1  0  0  0  0
 61 86  1  0  0  0  0
 62 67  1  0  0  0  0
 62 78  1  0  0  0  0
 63 79  1  0  0  0  0
 66 68  1  0  0  0  0
 66 70  1  0  0  0  0
 68 89  1  0  0  0  0
 68 90  1  0  0  0  0
 68 91  1  0  0  0  0
 69 71  1  0  0  0  0
M  CHG  2  72   1  79   1
M  ISO  4  34 100  61 101  66 100  86 101
M  END
> <Batch ID>
0065

> <Smiles>
CNC(C)C(=O)NC(C(=O)N1Cc2cc([101O:1][101CH2:1]CCC(C)(C)c3cn([100C:0](C)([100C:0](=O)N4CCCC(n5nc(-c6ccc(Oc7ccc(F)cc7F)cc6)c(C(N)=O)c5N)C4)C(F)(F)F)c(C(C)(C)C)n3)ccc2CC1C(=O)NC1CCCc2ccccc21)C(C)(C)C

> <Shape>
0.340

> <Color>
0.075

> <Negative vol penalty>
0.000

$$$$
