
  -OEChem-04052318093D

 91 99  0     1  0  0  0  0  0999 V2000
  -17.3913  -25.2344   22.2276 C   0  0  0  0  0  0  0  0  0  0  0  0
  -18.7017  -24.7712   22.2882 C   0  0  0  0  0  0  0  0  0  0  0  0
  -26.1362  -14.3458   21.7888 C   0  0  0  0  0  0  0  0  0  0  0  0
  -26.1281  -15.6255   19.7395 C   0  0  0  0  0  0  0  0  0  0  0  0
  -17.1298  -26.5994   22.3382 C   0  0  0  0  0  0  0  0  0  0  0  0
  -19.7515  -25.6730   22.4583 C   0  0  0  0  0  0  0  0  0  0  0  0
  -23.1244  -24.1024   25.8937 C   0  0  0  0  0  0  0  0  0  0  0  0
  -24.7440  -14.2706   21.7474 C   0  0  0  0  0  0  0  0  0  0  0  0
  -24.7358  -15.5503   19.6981 C   0  0  0  0  0  0  0  0  0  0  0  0
  -24.0364  -23.1277   25.4913 C   0  0  0  0  0  0  0  0  0  0  0  0
  -21.2019  -15.3871   18.8597 C   0  0  0  0  0  0  0  0  0  0  0  0
  -20.6045  -15.0767   17.6381 C   0  0  0  0  0  0  0  0  0  0  0  0
  -25.7105  -24.8349   25.1713 C   0  0  0  0  0  0  0  0  0  0  0  0
  -21.7905  -12.9723   17.5929 C   0  0  0  0  0  0  0  0  0  0  0  0
  -26.8282  -15.0233   20.7849 C   0  0  0  0  0  0  0  0  0  0  0  0
  -29.1842  -14.1982   20.2593 C   0  0  0  0  0  0  0  0  0  0  0  0
  -18.1762  -27.5175   22.5194 C   0  0  0  0  0  0  0  0  0  0  0  0
  -23.4959  -25.4542   25.9276 C   0  0  0  0  0  0  0  0  0  0  0  0
  -19.5039  -27.0518   22.5701 C   0  0  0  0  0  0  0  0  0  0  0  0
  -24.8021  -25.8245   25.5770 C   0  0  0  0  0  0  0  0  0  0  0  0
  -24.0438  -14.8728   20.7020 C   0  0  0  0  0  0  0  0  0  0  0  0
  -25.3288  -23.4942   25.1272 C   0  0  0  0  0  0  0  0  0  0  0  0
  -22.0937  -14.4902   19.4479 C   0  0  0  0  0  0  0  0  0  0  0  0
  -20.8988  -13.8693   17.0047 C   0  0  0  0  0  0  0  0  0  0  0  0
  -22.3879  -13.2827   18.8145 C   0  0  0  0  0  0  0  0  0  0  0  0
  -28.2663  -15.1018   20.8274 C   0  0  0  0  0  0  0  0  0  0  0  0
  -28.2199  -20.8815   19.8467 C   0  0  0  0  0  0  0  0  0  0  0  0
  -28.2442  -21.3539   21.1377 C   0  0  0  0  0  0  0  0  0  0  0  0
  -30.4164  -14.7155   20.5764 C   0  0  0  0  0  0  0  0  0  0  0  0
  -30.2617  -20.8032   20.4428 C   0  0  0  0  0  0  0  0  0  0  0  0
  -28.9444  -12.9985   19.5116 C   0  0  0  0  0  0  0  0  0  0  0  0
  -22.5189  -28.0870   24.4386 C   0  0  0  0  0  0  0  0  0  0  0  0
  -24.5885  -29.5367   26.4726 C   0  0  0  0  0  0  0  0  0  0  0  0
  -32.2081  -20.3008   21.8824 C   0  0  0  0  0  0  0  0  0  0  0  0
  -27.3552  -29.2880   28.4551 C   0  0  0  0  0  0  0  0  0  0  0  0
  -17.8482  -28.9881   22.5864 C   0  0  0  0  0  0  0  0  0  0  0  0
  -22.5084  -26.4904   26.3897 C   0  0  0  0  0  0  0  0  0  0  0  0
  -25.2568  -27.2598   25.6156 C   0  0  0  0  0  0  0  0  0  0  0  0
  -18.9863  -29.8413   23.1404 C   0  0  0  0  0  0  0  0  0  0  0  0
  -32.6406  -17.3560   23.8777 C   0  0  0  0  0  0  0  0  0  0  0  0
  -20.3090  -29.4581   22.4844 C   0  0  0  0  0  0  0  0  0  0  0  0
  -31.6313  -16.3716   23.2883 C   0  0  0  0  0  0  0  0  0  0  0  0
  -32.1147  -18.7873   23.8356 C   0  0  0  0  0  0  0  0  0  0  0  0
  -30.6903  -18.2593   21.8826 C   0  0  0  0  0  0  0  0  0  0  0  0
  -20.6676  -27.9964   22.7786 C   0  0  1  0  0  0  0  0  0  0  0  0
  -22.8398  -27.8946   25.8938 C   0  0  1  0  0  0  0  0  0  0  0  0
  -31.1949  -16.8055   21.8777 C   0  0  2  0  0  0  0  0  0  0  0  0
  -28.8272  -30.6508   29.9628 C   0  0  0  0  0  0  0  0  0  0  0  0
  -25.5885  -20.2318   16.1487 C   0  0  0  0  0  0  0  0  0  0  0  0
  -24.2181  -21.5031   17.7945 C   0  0  0  0  0  0  0  0  0  0  0  0
  -31.0812  -22.8621   22.6543 C   0  0  0  0  0  0  0  0  0  0  0  0
  -30.7357  -20.5114   23.5265 C   0  0  0  0  0  0  0  0  0  0  0  0
  -32.4832  -21.8899   20.0227 C   0  0  0  0  0  0  0  0  0  0  0  0
  -32.3003  -19.4292   19.6409 C   0  0  0  0  0  0  0  0  0  0  0  0
  -25.8825  -30.8338   24.0327 C   0  0  0  0  0  0  0  0  0  0  0  0
  -27.8615  -31.3869   25.4631 C   0  0  0  0  0  0  0  0  0  0  0  0
  -25.6247  -32.3486   26.0059 C   0  0  0  0  0  0  0  0  0  0  0  0
  -28.0395  -21.8717   16.8881 C   0  0  0  0  0  0  0  0  0  0  0  0
  -26.6836  -23.2080   18.4899 C   0  0  0  0  0  0  0  0  0  0  0  0
  -26.7364  -27.5825   30.7933 C   0  0  0  0  0  0  0  0  0  0  0  0
  -27.0619  -20.7204   18.9530 C   0  0  0  0  0  0  0  0  0  0  0  0
  -27.1494  -21.8501   22.0481 C   0  0  0  0  0  0  0  0  0  0  0  0
  -26.7392  -20.8425   23.1242 C   0  0  0  0  0  0  0  0  0  0  0  0
  -25.6934  -21.3845   24.0917 C   0  0  0  0  0  0  0  0  0  1  0  0
  -26.0547  -29.8938   26.4312 C   0  0  1  0  0  0  0  0  0  0  0  0
  -27.6154  -29.7356   29.8821 C   0  0  2  0  0  0  0  0  0  0  0  0
  -25.5199  -21.5232   16.9784 C   0  0  0  0  0  0  0  0  0  0  0  0
  -30.1048  -21.6916   22.7851 C   0  0  0  0  0  0  0  0  0  0  0  0
  -31.7259  -20.6106   20.4876 C   0  0  0  0  0  0  0  0  0  0  0  0
  -26.3470  -31.0889   25.4806 C   0  0  0  0  0  0  0  0  0  0  0  0
  -26.8172  -21.8124   17.8352 C   0  0  0  0  0  0  0  0  0  0  0  0
  -28.8644  -16.1161   21.4579 N   0  0  0  0  0  0  0  0  0  0  0  0
  -29.4788  -20.5401   19.4201 N   0  0  0  0  0  0  0  0  0  0  0  0
  -29.5587  -21.2974   21.5063 N   0  0  0  0  0  0  0  0  0  0  0  0
  -30.1712  -15.8530   21.2878 N   0  0  0  0  0  0  0  0  0  0  0  0
  -24.2528  -28.2368   26.0683 N   0  0  0  0  0  0  0  0  0  0  0  0
  -31.6896  -19.1536   22.4834 N   0  0  0  0  0  0  0  0  0  0  0  0
  -31.6748  -14.3037   20.3134 N   0  0  0  0  0  0  0  0  0  0  0  0
  -27.6180  -12.6118   19.2762 N   0  0  0  0  0  0  0  0  0  0  0  0
  -21.1925  -27.8651   24.1209 N   0  0  0  0  0  0  0  0  0  0  0  0
  -26.4594  -30.1180   27.8148 N   0  0  0  0  0  0  0  0  0  0  0  0
  -27.8586  -28.5554   30.7590 N   0  3  0  0  0  0  0  0  0  0  0  0
  -29.8788  -12.2817   19.0795 O   0  0  0  0  0  0  0  0  0  0  0  0
  -23.4084  -28.4141   23.6618 O   0  0  0  0  0  0  0  0  0  0  0  0
  -23.7719  -30.3777   26.8566 O   0  0  0  0  0  0  0  0  0  0  0  0
  -33.0235  -21.0554   22.4190 O   0  0  0  0  0  0  0  0  0  0  0  0
  -27.8956  -28.3029   27.9570 O   0  0  0  0  0  0  0  0  0  0  0  0
  -22.6853  -14.7994   20.6611 O   0  0  0  0  0  0  0  0  0  0  0  0
  -26.2208  -22.5449   24.7334 O   0  0  0  0  0  0  0  0  0  1  0  0
  -20.3239  -13.5707   15.8323 F   0  0  0  0  0  0  0  0  0  0  0  0
  -23.2429  -12.4165   19.3753 F   0  0  0  0  0  0  0  0  0  0  0  0
  1  2  1  0  0  0  0
  1  5  2  0  0  0  0
  2  6  2  0  0  0  0
  3  8  2  0  0  0  0
  3 15  1  0  0  0  0
  4  9  1  0  0  0  0
  4 15  2  0  0  0  0
  5 17  1  0  0  0  0
  6 19  1  0  0  0  0
  7 10  2  0  0  0  0
  7 18  1  0  0  0  0
  8 21  1  0  0  0  0
  9 21  2  0  0  0  0
 10 22  1  0  0  0  0
 11 12  2  0  0  0  0
 11 23  1  0  0  0  0
 12 24  1  0  0  0  0
 13 20  1  0  0  0  0
 13 22  2  0  0  0  0
 14 24  2  0  0  0  0
 14 25  1  0  0  0  0
 15 26  1  0  0  0  0
 16 26  1  0  0  0  0
 16 29  2  0  0  0  0
 16 31  1  0  0  0  0
 17 19  2  0  0  0  0
 17 36  1  0  0  0  0
 18 20  2  0  0  0  0
 18 37  1  0  0  0  0
 19 45  1  0  0  0  0
 20 38  1  0  0  0  0
 21 88  1  0  0  0  0
 22 89  1  0  0  0  0
 23 25  2  0  0  0  0
 23 88  1  0  0  0  0
 24 90  1  0  0  0  0
 25 91  1  0  0  0  0
 26 72  2  0  0  0  0
 27 28  2  0  0  0  0
 27 61  1  0  0  0  0
 27 73  1  0  0  0  0
 28 62  1  0  0  0  0
 28 74  1  0  0  0  0
 29 75  1  0  0  0  0
 29 78  1  0  0  0  0
 30 69  1  0  0  0  0
 30 73  2  0  0  0  0
 30 74  1  0  0  0  0
 31 79  1  0  0  0  0
 31 83  2  0  0  0  0
 32 46  1  0  0  0  0
 32 80  1  0  0  0  0
 32 84  2  0  0  0  0
 33 65  1  0  0  0  0
 33 76  1  0  0  0  0
 33 85  2  0  0  0  0
 34 69  1  0  0  0  0
 34 77  1  0  0  0  0
 34 86  2  0  0  0  0
 35 66  1  0  0  0  0
 35 81  1  0  0  0  0
 35 87  2  0  0  0  0
 36 39  1  0  0  0  0
 37 46  1  0  0  0  0
 38 76  1  0  0  0  0
 39 41  1  0  0  0  0
 40 42  1  0  0  0  0
 40 43  1  0  0  0  0
 41 45  1  0  0  0  0
 42 47  1  0  0  0  0
 43 77  1  0  0  0  0
 44 47  1  0  0  0  0
 44 77  1  0  0  0  0
 45 80  1  0  0  0  0
 46 76  1  0  0  0  0
 47 75  1  0  0  0  0
 48 66  1  0  0  0  0
 49 67  1  0  0  0  0
 50 67  1  0  0  0  0
 51 68  1  0  0  0  0
 52 68  1  0  0  0  0
 53 69  1  0  0  0  0
 54 69  1  0  0  0  0
 55 70  1  0  0  0  0
 56 70  1  0  0  0  0
 57 70  1  0  0  0  0
 58 71  1  0  0  0  0
 59 71  1  0  0  0  0
 60 82  1  0  0  0  0
 61 71  1  0  0  0  0
 62 63  1  0  0  0  0
 63 64  1  0  0  0  0
 64 89  1  0  0  0  0
 65 70  1  0  0  0  0
 65 81  1  0  0  0  0
 66 82  1  0  0  0  0
 67 71  1  0  0  0  0
 68 74  1  0  0  0  0
 72 75  1  0  0  0  0
M  CHG  1  82   1
M  ISO  4  34 100  64 101  69 100  89 101
M  END
> <Batch ID>
0066

> <Smiles>
CNC(C)C(=O)NC(C(=O)N1Cc2cc([101O:1][101CH2:1]CCc3c(CC(C)(C)C(C)C)nc([100C:0](C)(C)[100C:0](=O)N4CCCC(n5nc(-c6ccc(Oc7ccc(F)cc7F)cc6)c(C(N)=O)c5N)C4)n3C(C)C)ccc2CC1C(=O)NC1CCCc2ccccc21)C(C)(C)C

> <Shape>
0.214

> <Color>
0.086

> <Negative vol penalty>
0.000

$$$$

  -OEChem-04052318093D

 91 99  0     1  0  0  0  0  0999 V2000
  -17.9003  -26.5754   22.2427 C   0  0  0  0  0  0  0  0  0  0  0  0
  -19.0695  -26.1336   21.6318 C   0  0  0  0  0  0  0  0  0  0  0  0
  -23.3836  -10.0076   22.3070 C   0  0  0  0  0  0  0  0  0  0  0  0
  -24.8126   -8.7685   20.8037 C   0  0  0  0  0  0  0  0  0  0  0  0
  -17.9048  -27.7583   22.9807 C   0  0  0  0  0  0  0  0  0  0  0  0
  -20.2438  -26.8750   21.7578 C   0  0  0  0  0  0  0  0  0  0  0  0
  -25.9544  -24.6928   22.1221 C   0  0  0  0  0  0  0  0  0  0  0  0
  -22.3962   -9.0317   22.1728 C   0  0  0  0  0  0  0  0  0  0  0  0
  -23.8251   -7.7925   20.6696 C   0  0  0  0  0  0  0  0  0  0  0  0
  -26.9648  -24.5460   21.1727 C   0  0  0  0  0  0  0  0  0  0  0  0
  -19.6399   -6.6854   22.5094 C   0  0  0  0  0  0  0  0  0  0  0  0
  -19.0004   -6.2463   23.6686 C   0  0  0  0  0  0  0  0  0  0  0  0
  -27.9181  -26.6491   21.8709 C   0  0  0  0  0  0  0  0  0  0  0  0
  -21.1210   -5.5051   24.5578 C   0  0  0  0  0  0  0  0  0  0  0  0
  -29.6409  -16.9250   18.6260 C   0  0  0  0  0  0  0  0  0  0  0  0
  -24.5919   -9.8761   21.6224 C   0  0  0  0  0  0  0  0  0  0  0  0
  -26.6474  -10.9212   22.7133 C   0  0  0  0  0  0  0  0  0  0  0  0
  -19.0820  -28.5095   23.1239 C   0  0  0  0  0  0  0  0  0  0  0  0
  -25.9120  -25.8260   22.9470 C   0  0  0  0  0  0  0  0  0  0  0  0
  -20.2637  -28.0697   22.4974 C   0  0  0  0  0  0  0  0  0  0  0  0
  -26.9076  -26.8066   22.8317 C   0  0  0  0  0  0  0  0  0  0  0  0
  -22.6169   -7.9241   21.3542 C   0  0  0  0  0  0  0  0  0  0  0  0
  -27.9452  -25.5256   21.0450 C   0  0  0  0  0  0  0  0  0  0  0  0
  -21.0200   -6.5343   22.3744 C   0  0  0  0  0  0  0  0  0  0  0  0
  -19.7409   -5.6562   24.6928 C   0  0  0  0  0  0  0  0  0  0  0  0
  -21.7606   -5.9442   23.3986 C   0  0  0  0  0  0  0  0  0  0  0  0
  -25.6121  -10.8842   21.7601 C   0  0  0  0  0  0  0  0  0  0  0  0
  -28.8123  -17.3893   17.6284 C   0  0  0  0  0  0  0  0  0  0  0  0
  -30.0048  -19.0723   19.3233 C   0  0  0  0  0  0  0  0  0  0  0  0
  -29.1769  -19.5368   18.3252 C   0  0  0  0  0  0  0  0  0  0  0  0
  -27.3404  -12.0710   22.4230 C   0  0  0  0  0  0  0  0  0  0  0  0
  -26.9551   -9.9988   23.7669 C   0  0  0  0  0  0  0  0  0  0  0  0
  -23.8464  -28.2007   23.3919 C   0  0  0  0  0  0  0  0  0  0  0  0
  -25.8773  -28.9978   25.7923 C   0  0  0  0  0  0  0  0  0  0  0  0
  -27.8913  -15.1081   17.3488 C   0  0  0  0  0  0  0  0  0  0  0  0
  -29.0268  -28.8359   27.0965 C   0  0  0  0  0  0  0  0  0  0  0  0
  -19.0267  -29.8063   23.8920 C   0  0  0  0  0  0  0  0  0  0  0  0
  -24.8307  -25.9566   23.9844 C   0  0  0  0  0  0  0  0  0  0  0  0
  -26.9186  -28.0323   23.7070 C   0  0  0  0  0  0  0  0  0  0  0  0
  -20.4014  -30.3382   24.2890 C   0  0  0  0  0  0  0  0  0  0  0  0
  -26.7651  -16.4263   20.5458 C   0  0  0  0  0  0  0  0  0  0  0  0
  -21.3597  -30.2781   23.1038 C   0  0  0  0  0  0  0  0  0  0  0  0
  -26.4086  -15.1440   21.2966 C   0  0  0  0  0  0  0  0  0  0  0  0
  -26.4453  -16.3127   19.0575 C   0  0  0  0  0  0  0  0  0  0  0  0
  -26.7322  -13.8560   19.1404 C   0  0  0  0  0  0  0  0  0  0  0  0
  -21.5633  -28.8334   22.6316 C   0  0  1  0  0  0  0  0  0  0  0  0
  -24.5923  -27.3989   24.4206 C   0  0  1  0  0  0  0  0  0  0  0  0
  -27.0678  -13.9186   20.6399 C   0  0  2  0  0  0  0  0  0  0  0  0
  -30.6750  -20.0045   20.2740 C   0  0  0  0  0  0  0  0  0  0  0  0
  -29.1541  -26.2882   16.9735 C   0  0  0  0  0  0  0  0  0  0  0  0
  -30.3916  -29.6165   29.0524 C   0  0  0  0  0  0  0  0  0  0  0  0
  -30.1471  -21.0601   15.9063 C   0  0  0  0  0  0  0  0  0  0  0  0
  -29.0461  -16.1708   15.4482 C   0  0  0  0  0  0  0  0  0  0  0  0
  -26.7538  -16.8647   16.1539 C   0  0  0  0  0  0  0  0  0  0  0  0
  -27.4963  -21.1978   17.5576 C   0  0  0  0  0  0  0  0  0  0  0  0
  -26.0248  -31.7904   24.5718 C   0  0  0  0  0  0  0  0  0  0  0  0
  -28.0687  -32.2112   25.9551 C   0  0  0  0  0  0  0  0  0  0  0  0
  -25.8847  -31.7492   27.0684 C   0  0  0  0  0  0  0  0  0  0  0  0
  -31.3558  -23.7680   18.9859 C   0  0  0  0  0  0  0  0  0  0  0  0
  -29.5898  -26.0615   27.9593 C   0  0  0  0  0  0  0  0  0  0  0  0
  -30.3135  -25.6410   17.7229 C   0  0  0  0  0  0  0  0  0  0  0  0
  -29.7067  -23.2453   17.0930 C   0  0  0  0  0  0  0  0  0  0  0  0
  -28.9020  -24.2089   19.3110 C   0  0  0  0  0  0  0  0  0  1  0  0
  -27.1076  -29.8649   25.9082 C   0  0  1  0  0  0  0  0  0  0  0  0
  -29.5235  -28.5010   28.4914 C   0  0  2  0  0  0  0  0  0  0  0  0
  -30.0160  -21.7289   17.2869 C   0  0  1  0  0  0  0  0  0  0  0  0
  -28.1531  -16.4395   16.6908 C   0  0  0  0  0  0  0  0  0  0  0  0
  -28.9062  -21.0293   18.1453 C   0  0  2  0  0  0  0  0  0  0  0  0
  -26.7704  -31.3819   25.8579 C   0  0  0  0  0  0  0  0  0  0  0  0
  -30.0549  -24.2033   18.2778 C   0  0  1  0  0  0  0  0  0  0  0  0
  -30.2520  -17.7581   19.4915 N   0  0  0  0  0  0  0  0  0  0  0  0
  -25.6409  -11.9275   20.9267 N   0  0  0  0  0  0  0  0  0  0  0  0
  -28.5655  -18.7036   17.4601 N   0  0  0  0  0  0  0  0  0  0  0  0
  -26.7027  -12.6310   21.3553 N   0  0  0  0  0  0  0  0  0  0  0  0
  -25.8368  -28.1174   24.7019 N   0  0  0  0  0  0  0  0  0  0  0  0
  -27.0687  -15.1181   18.4755 N   0  0  0  0  0  0  0  0  0  0  0  0
  -28.4269  -12.6475   22.9794 N   0  0  0  0  0  0  0  0  0  0  0  0
  -26.1407   -8.8692   23.9251 N   0  0  0  0  0  0  0  0  0  0  0  0
  -22.4717  -28.1358   23.5163 N   0  0  0  0  0  0  0  0  0  0  0  0
  -27.7900  -29.4446   27.1272 N   0  0  0  0  0  0  0  0  0  0  0  0
  -30.3277  -27.2465   28.4675 N   0  3  0  0  0  0  0  0  0  0  0  0
  -27.9138  -10.1797   24.5554 O   0  0  0  0  0  0  0  0  0  0  0  0
  -24.4718  -28.8327   22.5486 O   0  0  0  0  0  0  0  0  0  0  0  0
  -24.9882  -29.0930   26.6421 O   0  0  0  0  0  0  0  0  0  0  0  0
  -28.4056  -14.0914   16.8757 O   0  0  0  0  0  0  0  0  0  0  0  0
  -29.6733  -28.5862   26.0815 O   0  0  0  0  0  0  0  0  0  0  0  0
  -21.6536   -6.9714   21.2232 O   0  0  0  0  0  0  0  0  0  0  0  0
  -28.9387  -25.3842   20.1125 O   0  0  0  0  0  0  0  0  0  1  0  0
  -19.1268   -5.2360   25.8066 F   0  0  0  0  0  0  0  0  0  0  0  0
  -23.0868   -5.7974   23.2751 F   0  0  0  0  0  0  0  0  0  0  0  0
  -28.8775  -21.6874   19.3526 F   0  0  0  0  0  0  0  0  0  0  0  0
  1  2  1  0  0  0  0
  1  5  2  0  0  0  0
  2  6  2  0  0  0  0
  3  8  2  0  0  0  0
  3 16  1  0  0  0  0
  4  9  1  0  0  0  0
  4 16  2  0  0  0  0
  5 18  1  0  0  0  0
  6 20  1  0  0  0  0
  7 10  2  0  0  0  0
  7 19  1  0  0  0  0
  8 22  1  0  0  0  0
  9 22  2  0  0  0  0
 10 23  1  0  0  0  0
 11 12  2  0  0  0  0
 11 24  1  0  0  0  0
 12 25  1  0  0  0  0
 13 21  1  0  0  0  0
 13 23  2  0  0  0  0
 14 25  2  0  0  0  0
 14 26  1  0  0  0  0
 15 28  1  0  0  0  0
 15 71  2  0  0  0  0
 16 27  1  0  0  0  0
 17 27  1  0  0  0  0
 17 31  2  0  0  0  0
 17 32  1  0  0  0  0
 18 20  2  0  0  0  0
 18 37  1  0  0  0  0
 19 21  2  0  0  0  0
 19 38  1  0  0  0  0
 20 46  1  0  0  0  0
 21 39  1  0  0  0  0
 22 87  1  0  0  0  0
 23 88  1  0  0  0  0
 24 26  2  0  0  0  0
 24 87  1  0  0  0  0
 25 89  1  0  0  0  0
 26 90  1  0  0  0  0
 27 72  2  0  0  0  0
 28 67  1  0  0  0  0
 28 73  2  0  0  0  0
 29 30  2  0  0  0  0
 29 49  1  0  0  0  0
 29 71  1  0  0  0  0
 30 68  1  0  0  0  0
 30 73  1  0  0  0  0
 31 74  1  0  0  0  0
 31 77  1  0  0  0  0
 32 78  1  0  0  0  0
 32 82  2  0  0  0  0
 33 47  1  0  0  0  0
 33 79  1  0  0  0  0
 33 83  2  0  0  0  0
 34 64  1  0  0  0  0
 34 75  1  0  0  0  0
 34 84  2  0  0  0  0
 35 67  1  0  0  0  0
 35 76  1  0  0  0  0
 35 85  2  0  0  0  0
 36 65  1  0  0  0  0
 36 80  1  0  0  0  0
 36 86  2  0  0  0  0
 37 40  1  0  0  0  0
 38 47  1  0  0  0  0
 39 75  1  0  0  0  0
 40 42  1  0  0  0  0
 41 43  1  0  0  0  0
 41 44  1  0  0  0  0
 42 46  1  0  0  0  0
 43 48  1  0  0  0  0
 44 76  1  0  0  0  0
 45 48  1  0  0  0  0
 45 76  1  0  0  0  0
 46 79  1  0  0  0  0
 47 75  1  0  0  0  0
 48 74  1  0  0  0  0
 50 61  1  0  0  0  0
 51 65  1  0  0  0  0
 52 66  1  0  0  0  0
 53 67  1  0  0  0  0
 54 67  1  0  0  0  0
 55 68  1  0  0  0  0
 56 69  1  0  0  0  0
 57 69  1  0  0  0  0
 58 69  1  0  0  0  0
 59 70  1  0  0  0  0
 60 81  1  0  0  0  0
 61 70  1  0  0  0  0
 62 66  1  0  0  0  0
 62 70  1  0  0  0  0
 63 70  1  0  0  0  0
 63 88  1  0  0  0  0
 64 69  1  0  0  0  0
 64 80  1  0  0  0  0
 65 81  1  0  0  0  0
 66 68  1  0  0  0  0
 68 91  1  0  0  0  0
 72 74  1  0  0  0  0
M  CHG  1  81   1
M  ISO  4  35 100  63 101  67 100  88 101
M  END
> <Batch ID>
0066

> <Smiles>
CCC(C)(CC(C)C(C)(F)c1nc([100C:0](C)(C)[100C:0](=O)N2CCCC(n3nc(-c4ccc(Oc5ccc(F)cc5F)cc4)c(C(N)=O)c3N)C2)cnc1C)[101CH2:1][101O:1]c1ccc2c(c1)CN(C(=O)C(NC(=O)C(C)NC)C(C)(C)C)C(C(=O)NC1CCCc3ccccc31)C2

> <Shape>
0.270

> <Color>
0.095

> <Negative vol penalty>
0.000

$$$$

  -OEChem-04052318093D

 90 98  0     1  0  0  0  0  0999 V2000
  -26.6259  -18.3028   11.4911 C   0  0  0  0  0  0  0  0  0  0  0  0
  -26.7674  -17.9074   12.8174 C   0  0  0  0  0  0  0  0  0  0  0  0
  -26.1274  -27.8125   18.8011 C   0  0  0  0  0  0  0  0  0  0  0  0
  -26.3210  -27.8627   21.2088 C   0  0  0  0  0  0  0  0  0  0  0  0
  -26.1187  -19.5666   11.1919 C   0  0  0  0  0  0  0  0  0  0  0  0
  -26.4028  -18.7762   13.8454 C   0  0  0  0  0  0  0  0  0  0  0  0
  -23.7349  -16.4723   17.4812 C   0  0  0  0  0  0  0  0  0  0  0  0
  -25.0633  -28.7119   18.8679 C   0  0  0  0  0  0  0  0  0  0  0  0
  -25.2570  -28.7621   21.2756 C   0  0  0  0  0  0  0  0  0  0  0  0
  -24.4444  -15.6972   18.3976 C   0  0  0  0  0  0  0  0  0  0  0  0
  -21.8825  -28.6467   21.1008 C   0  0  0  0  0  0  0  0  0  0  0  0
  -20.8969  -28.4144   22.0600 C   0  0  0  0  0  0  0  0  0  0  0  0
  -24.3526  -17.5069   19.9900 C   0  0  0  0  0  0  0  0  0  0  0  0
  -21.3708  -30.5592   23.0662 C   0  0  0  0  0  0  0  0  0  0  0  0
  -29.7955  -16.5024   19.0722 C   0  0  0  0  0  0  0  0  0  0  0  0
  -30.7273  -15.6157   20.8556 C   0  0  0  0  0  0  0  0  0  0  0  0
  -26.7562  -27.3878   19.9716 C   0  0  0  0  0  0  0  0  0  0  0  0
  -29.2236  -26.7670   19.7869 C   0  0  0  0  0  0  0  0  0  0  0  0
  -25.7386  -20.4476   12.2166 C   0  0  0  0  0  0  0  0  0  0  0  0
  -23.3377  -17.7766   17.8090 C   0  0  0  0  0  0  0  0  0  0  0  0
  -25.8913  -20.0535   13.5597 C   0  0  0  0  0  0  0  0  0  0  0  0
  -23.6359  -18.2955   19.0770 C   0  0  0  0  0  0  0  0  0  0  0  0
  -30.0018  -15.2797   19.7388 C   0  0  0  0  0  0  0  0  0  0  0  0
  -24.6282  -29.1867   20.1052 C   0  0  0  0  0  0  0  0  0  0  0  0
  -24.7559  -16.2155   19.6511 C   0  0  0  0  0  0  0  0  0  0  0  0
  -22.6124  -29.8352   21.1242 C   0  0  0  0  0  0  0  0  0  0  0  0
  -20.6411  -29.3707   23.0427 C   0  0  0  0  0  0  0  0  0  0  0  0
  -22.3565  -30.7914   22.1069 C   0  0  0  0  0  0  0  0  0  0  0  0
  -27.8550  -26.4583   19.9032 C   0  0  0  0  0  0  0  0  0  0  0  0
  -29.8503  -25.5451   19.7628 C   0  0  0  0  0  0  0  0  0  0  0  0
  -29.8705  -28.0441   19.7078 C   0  0  0  0  0  0  0  0  0  0  0  0
  -23.9646  -20.6699   16.6517 C   0  0  0  0  0  0  0  0  0  0  0  0
  -21.7128  -21.5897   18.7977 C   0  0  0  0  0  0  0  0  0  0  0  0
  -20.0289  -20.9314   21.6922 C   0  0  0  0  0  0  0  0  0  0  0  0
  -29.6181  -20.4446   22.0365 C   0  0  0  0  0  0  0  0  0  0  0  0
  -25.2397  -21.8215   11.8449 C   0  0  0  0  0  0  0  0  0  0  0  0
  -22.5497  -18.5900   16.8191 C   0  0  0  0  0  0  0  0  0  0  0  0
  -23.2147  -19.6827   19.4853 C   0  0  0  0  0  0  0  0  0  0  0  0
  -24.5259  -22.5399   12.9870 C   0  0  0  0  0  0  0  0  0  0  0  0
  -28.4620  -20.9233   18.7340 C   0  0  0  0  0  0  0  0  0  0  0  0
  -25.3314  -22.4236   14.2771 C   0  0  0  0  0  0  0  0  0  0  0  0
  -28.3108  -22.4430   18.6836 C   0  0  0  0  0  0  0  0  0  0  0  0
  -28.0093  -20.3450   20.0760 C   0  0  0  0  0  0  0  0  0  0  0  0
  -28.5085  -22.4933   21.1976 C   0  0  0  0  0  0  0  0  0  0  0  0
  -25.4836  -20.9581   14.7022 C   0  0  1  0  0  0  0  0  0  0  0  0
  -22.6427  -20.0918   17.0712 C   0  0  1  0  0  0  0  0  0  0  0  0
  -29.0126  -23.1057   19.8817 C   0  0  2  0  0  0  0  0  0  0  0  0
  -18.2746  -21.8862   23.2114 C   0  0  0  0  0  0  0  0  0  0  0  0
  -30.4715  -11.4688   18.7970 C   0  0  0  0  0  0  0  0  0  0  0  0
  -31.8316  -13.4500   18.1535 C   0  0  0  0  0  0  0  0  0  0  0  0
  -26.9576  -13.7248   22.3332 C   0  0  0  0  0  0  0  0  0  0  0  0
  -28.7174  -13.8849   17.9838 C   0  0  0  0  0  0  0  0  0  0  0  0
  -23.7473  -23.5844   19.8893 C   0  0  0  0  0  0  0  0  0  0  0  0
  -22.3234  -23.8105   21.9362 C   0  0  0  0  0  0  0  0  0  0  0  0
  -21.4145  -24.4673   19.7079 C   0  0  0  0  0  0  0  0  0  0  0  0
  -32.7625  -17.0439   22.4745 C   0  0  0  0  0  0  0  0  0  0  0  0
  -32.2531  -18.9787   21.0072 C   0  0  0  0  0  0  0  0  0  0  0  0
  -28.2422  -18.3302   22.2394 C   0  0  0  0  0  0  0  0  0  0  0  0
  -18.2427  -18.6076   21.2812 C   0  0  0  0  0  0  0  0  0  0  0  0
  -28.5691  -13.2888   20.4305 C   0  0  0  0  0  0  0  0  0  0  0  0
  -30.6386  -18.3433   22.8248 C   0  0  0  0  0  0  0  0  0  0  0  0
  -26.3655  -14.5040   20.0195 C   0  0  0  0  0  0  0  0  0  1  0  0
  -21.7270  -22.0168   20.2456 C   0  0  1  0  0  0  0  0  0  0  0  0
  -18.5490  -20.9714   22.0280 C   0  0  2  0  0  0  0  0  0  0  0  0
  -30.7919  -12.9277   19.1623 C   0  0  0  0  0  0  0  0  0  0  0  0
  -27.5159  -14.2709   21.0111 C   0  0  1  0  0  0  0  0  0  0  0  0
  -29.5171  -13.8689   19.3118 C   0  0  2  0  0  0  0  0  0  0  0  0
  -22.3128  -23.4443   20.4367 C   0  0  0  0  0  0  0  0  0  0  0  0
  -31.6105  -17.7831   21.7506 C   0  0  0  0  0  0  0  0  0  0  0  0
  -30.3454  -17.5378   19.7123 N   0  0  0  0  0  0  0  0  0  0  0  0
  -27.6252  -25.1434   19.9496 N   0  0  0  0  0  0  0  0  0  0  0  0
  -30.9043  -16.9666   20.7927 N   0  0  0  0  0  0  0  0  0  0  0  0
  -28.8577  -24.6150   19.8619 N   0  0  0  0  0  0  0  0  0  0  0  0
  -22.4518  -20.4412   18.4804 N   0  0  0  0  0  0  0  0  0  0  0  0
  -28.6668  -21.0370   21.1930 N   0  0  0  0  0  0  0  0  0  0  0  0
  -31.1482  -25.1862   19.6666 N   0  0  0  0  0  0  0  0  0  0  0  0
  -29.0769  -29.1986   19.7468 N   0  0  0  0  0  0  0  0  0  0  0  0
  -24.2631  -20.4805   15.3159 N   0  0  0  0  0  0  0  0  0  0  0  0
  -20.3597  -21.8622   20.7303 N   0  0  0  0  0  0  0  0  0  0  0  0
  -29.5058  -19.0643   22.2617 N   0  0  0  0  0  0  0  0  0  0  0  0
  -18.0574  -19.6057   22.3659 N   0  3  0  0  0  0  0  0  0  0  0  0
  -31.1141  -28.1576   19.5890 O   0  0  0  0  0  0  0  0  0  0  0  0
  -24.6616  -21.2466   17.4785 O   0  0  0  0  0  0  0  0  0  0  0  0
  -21.0638  -22.2466   17.9798 O   0  0  0  0  0  0  0  0  0  0  0  0
  -20.8137  -20.1548   22.2321 O   0  0  0  0  0  0  0  0  0  0  0  0
  -30.5149  -21.1128   22.5668 O   0  0  0  0  0  0  0  0  0  0  0  0
  -23.5900  -30.0646   20.1707 O   0  0  0  0  0  0  0  0  0  0  0  0
  -25.4537  -15.4563   20.5533 O   0  0  0  0  0  0  0  0  0  1  0  0
  -19.6935  -29.1482   23.9629 F   0  0  0  0  0  0  0  0  0  0  0  0
  -23.0536  -31.9356   22.1339 F   0  0  0  0  0  0  0  0  0  0  0  0
  1  2  1  0  0  0  0
  1  5  2  0  0  0  0
  2  6  2  0  0  0  0
  3  8  2  0  0  0  0
  3 17  1  0  0  0  0
  4  9  1  0  0  0  0
  4 17  2  0  0  0  0
  5 19  1  0  0  0  0
  6 21  1  0  0  0  0
  7 10  2  0  0  0  0
  7 20  1  0  0  0  0
  8 24  1  0  0  0  0
  9 24  2  0  0  0  0
 10 25  1  0  0  0  0
 11 12  2  0  0  0  0
 11 26  1  0  0  0  0
 12 27  1  0  0  0  0
 13 22  1  0  0  0  0
 13 25  2  0  0  0  0
 14 27  2  0  0  0  0
 14 28  1  0  0  0  0
 15 23  1  0  0  0  0
 15 70  2  0  0  0  0
 16 23  2  0  0  0  0
 16 72  1  0  0  0  0
 17 29  1  0  0  0  0
 18 29  1  0  0  0  0
 18 30  2  0  0  0  0
 18 31  1  0  0  0  0
 19 21  2  0  0  0  0
 19 36  1  0  0  0  0
 20 22  2  0  0  0  0
 20 37  1  0  0  0  0
 21 45  1  0  0  0  0
 22 38  1  0  0  0  0
 23 67  1  0  0  0  0
 24 87  1  0  0  0  0
 25 88  1  0  0  0  0
 26 28  2  0  0  0  0
 26 87  1  0  0  0  0
 27 89  1  0  0  0  0
 28 90  1  0  0  0  0
 29 71  2  0  0  0  0
 30 73  1  0  0  0  0
 30 76  1  0  0  0  0
 31 77  1  0  0  0  0
 31 82  2  0  0  0  0
 32 46  1  0  0  0  0
 32 78  1  0  0  0  0
 32 83  2  0  0  0  0
 33 63  1  0  0  0  0
 33 74  1  0  0  0  0
 33 84  2  0  0  0  0
 34 64  1  0  0  0  0
 34 79  1  0  0  0  0
 34 85  2  0  0  0  0
 35 75  1  0  0  0  0
 35 80  1  0  0  0  0
 35 86  2  0  0  0  0
 36 39  1  0  0  0  0
 37 46  1  0  0  0  0
 38 74  1  0  0  0  0
 39 41  1  0  0  0  0
 40 42  1  0  0  0  0
 40 43  1  0  0  0  0
 41 45  1  0  0  0  0
 42 47  1  0  0  0  0
 43 75  1  0  0  0  0
 44 47  1  0  0  0  0
 44 75  1  0  0  0  0
 45 78  1  0  0  0  0
 46 74  1  0  0  0  0
 47 73  1  0  0  0  0
 48 64  1  0  0  0  0
 49 65  1  0  0  0  0
 50 65  1  0  0  0  0
 51 66  1  0  0  0  0
 52 67  1  0  0  0  0
 53 68  1  0  0  0  0
 54 68  1  0  0  0  0
 55 68  1  0  0  0  0
 56 69  1  0  0  0  0
 57 69  1  0  0  0  0
 58 80  1  0  0  0  0
 59 81  1  0  0  0  0
 60 66  1  0  0  0  0
 60 67  1  0  0  0  0
 61 69  1  0  0  0  0
 61 80  1  0  0  0  0
 62 66  1  0  0  0  0
 62 88  1  0  0  0  0
 63 68  1  0  0  0  0
 63 79  1  0  0  0  0
 64 81  1  0  0  0  0
 65 67  1  0  0  0  0
 69 72  1  0  0  0  0
 70 72  1  0  0  0  0
 71 73  1  0  0  0  0
M  CHG  1  81   1
M  ISO  4  35 100  62 101  80 100  88 101
M  END
> <Batch ID>
0066

> <Smiles>
CNC(C)C(=O)NC(C(=O)N1Cc2cc([101O:1][101CH2:1]C(C)CC(C)(c3cnn(C(C)(C)C[100N:0](C)[100C:0](=O)N4CCCC(n5nc(-c6ccc(Oc7ccc(F)cc7F)cc6)c(C(N)=O)c5N)C4)c3)C(C)C)ccc2CC1C(=O)NC1CCCc2ccccc21)C(C)(C)C

> <Shape>
0.224

> <Color>
0.064

> <Negative vol penalty>
0.000

$$$$

  -OEChem-04052318093D

 91 99  0     1  0  0  0  0  0999 V2000
  -17.2961  -13.3055   21.6415 C   0  0  0  0  0  0  0  0  0  0  0  0
  -18.0732  -14.4554   21.7387 C   0  0  0  0  0  0  0  0  0  0  0  0
  -29.0999  -25.0296   19.2091 C   0  0  0  0  0  0  0  0  0  0  0  0
  -27.1767  -23.5729   19.3370 C   0  0  0  0  0  0  0  0  0  0  0  0
  -17.8291  -12.0719   22.0128 C   0  0  0  0  0  0  0  0  0  0  0  0
  -19.3836  -14.3723   22.2083 C   0  0  0  0  0  0  0  0  0  0  0  0
  -24.1635  -17.7465   20.3993 C   0  0  0  0  0  0  0  0  0  0  0  0
  -29.9337  -23.9564   19.5229 C   0  0  0  0  0  0  0  0  0  0  0  0
  -28.0106  -22.4996   19.6509 C   0  0  0  0  0  0  0  0  0  0  0  0
  -24.7720  -18.8777   20.9416 C   0  0  0  0  0  0  0  0  0  0  0  0
  -30.0661  -20.3806   18.0062 C   0  0  0  0  0  0  0  0  0  0  0  0
  -29.8405  -19.1723   17.3470 C   0  0  0  0  0  0  0  0  0  0  0  0
  -26.4062  -17.4720   22.0246 C   0  0  0  0  0  0  0  0  0  0  0  0
  -29.4404  -18.0892   19.4693 C   0  0  0  0  0  0  0  0  0  0  0  0
  -23.9882  -27.0445   24.3681 C   0  0  0  0  0  0  0  0  0  0  0  0
  -27.7213  -24.8379   19.1162 C   0  0  0  0  0  0  0  0  0  0  0  0
  -26.4573  -26.3641   17.5098 C   0  0  0  0  0  0  0  0  0  0  0  0
  -19.1498  -11.9722   22.4781 C   0  0  0  0  0  0  0  0  0  0  0  0
  -24.6661  -16.4667   20.6750 C   0  0  0  0  0  0  0  0  0  0  0  0
  -19.9343  -13.1363   22.5874 C   0  0  0  0  0  0  0  0  0  0  0  0
  -25.8038  -16.3264   21.4825 C   0  0  0  0  0  0  0  0  0  0  0  0
  -29.3891  -22.6914   19.7438 C   0  0  0  0  0  0  0  0  0  0  0  0
  -25.8918  -18.7404   21.7567 C   0  0  0  0  0  0  0  0  0  0  0  0
  -29.9790  -20.4433   19.3969 C   0  0  0  0  0  0  0  0  0  0  0  0
  -29.5276  -18.0266   18.0785 C   0  0  0  0  0  0  0  0  0  0  0  0
  -29.6661  -19.2976   20.1285 C   0  0  0  0  0  0  0  0  0  0  0  0
  -26.8594  -25.9462   18.7925 C   0  0  0  0  0  0  0  0  0  0  0  0
  -23.0752  -26.8600   23.3204 C   0  0  0  0  0  0  0  0  0  0  0  0
  -25.6488  -27.4503   17.7402 C   0  0  0  0  0  0  0  0  0  0  0  0
  -26.7852  -25.8191   16.2248 C   0  0  0  0  0  0  0  0  0  0  0  0
  -23.5239  -13.8685   22.1061 C   0  0  0  0  0  0  0  0  0  0  0  0
  -26.3088  -12.5562   21.0840 C   0  0  0  0  0  0  0  0  0  0  0  0
  -22.4044  -29.0944   22.5238 C   0  0  0  0  0  0  0  0  0  0  0  0
  -29.5449  -13.0237   20.1065 C   0  0  0  0  0  0  0  0  0  0  0  0
  -19.6667  -10.6236   22.9124 C   0  0  0  0  0  0  0  0  0  0  0  0
  -24.0143  -15.2583   20.0607 C   0  0  0  0  0  0  0  0  0  0  0  0
  -26.3946  -14.9761   21.7925 C   0  0  0  0  0  0  0  0  0  0  0  0
  -21.1863  -10.5678   23.0458 C   0  0  0  0  0  0  0  0  0  0  0  0
  -24.9346  -31.0032   20.8522 C   0  0  0  0  0  0  0  0  0  0  0  0
  -21.7000  -11.7833   23.8111 C   0  0  0  0  0  0  0  0  0  0  0  0
  -25.6963  -29.9565   20.0402 C   0  0  0  0  0  0  0  0  0  0  0  0
  -24.4538  -30.4355   22.1840 C   0  0  0  0  0  0  0  0  0  0  0  0
  -24.3878  -28.1486   21.2420 C   0  0  0  0  0  0  0  0  0  0  0  0
  -21.3680  -13.0833   23.0688 C   0  0  1  0  0  0  0  0  0  0  0  0
  -24.3030  -13.9702   20.8253 C   0  0  1  0  0  0  0  0  0  0  0  0
  -24.8646  -28.6721   19.8757 C   0  0  2  0  0  0  0  0  0  0  0  0
  -31.8166  -12.4360   19.2167 C   0  0  0  0  0  0  0  0  0  0  0  0
  -23.7766  -22.5395   24.5480 C   0  0  0  0  0  0  0  0  0  0  0  0
  -26.8159  -11.6952   23.9669 C   0  0  0  0  0  0  0  0  0  0  0  0
  -29.2130  -11.3085   23.3563 C   0  0  0  0  0  0  0  0  0  0  0  0
  -27.4154   -9.9825   22.2459 C   0  0  0  0  0  0  0  0  0  0  0  0
  -27.5742  -22.2501   23.4985 C   0  0  0  0  0  0  0  0  0  0  0  0
  -26.2327  -20.7436   24.9744 C   0  0  0  0  0  0  0  0  0  0  0  0
  -28.6946  -13.4795   17.3086 C   0  0  0  0  0  0  0  0  0  0  0  0
  -25.1147  -24.0033   22.9837 C   0  0  0  0  0  0  0  0  0  0  0  0
  -25.6507  -20.9675   22.5551 C   0  0  0  0  0  0  0  0  0  1  0  0
  -27.7006  -12.4238   21.6534 C   0  0  1  0  0  0  0  0  0  0  0  0
  -30.3260  -12.4888   18.9198 C   0  0  2  0  0  0  0  0  0  0  0  0
  -25.1997  -22.9685   24.1389 C   0  0  2  0  0  0  0  0  0  0  0  0
  -21.9493  -27.7099   22.9110 C   0  0  0  0  0  0  0  0  0  0  0  0
  -27.7742  -11.3779   22.8016 C   0  0  0  0  0  0  0  0  0  0  0  0
  -26.1437  -21.7445   23.8055 C   0  0  0  0  0  0  0  0  0  0  0  0
  -21.1353  -27.2486   21.6522 C   0  0  0  0  0  0  0  0  0  0  0  0
  -20.9125  -27.8997   24.0611 C   0  0  0  0  0  0  0  0  0  0  0  0
  -24.8586  -26.0313   24.3943 N   0  0  0  0  0  0  0  0  0  0  0  0
  -26.3487  -26.7052   19.7658 N   0  0  0  0  0  0  0  0  0  0  0  0
  -23.3564  -25.7282   22.6687 N   0  0  0  0  0  0  0  0  0  0  0  0
  -25.6174  -27.6109   19.0942 N   0  0  0  0  0  0  0  0  0  0  0  0
  -24.4219  -25.2939   23.3606 N   0  0  0  0  0  0  0  0  0  0  0  0
  -25.7178  -13.8245   21.1735 N   0  0  0  0  0  0  0  0  0  0  0  0
  -23.6871  -29.2041   21.9865 N   0  0  0  0  0  0  0  0  0  0  0  0
  -24.9690  -28.2741   16.9147 N   0  0  0  0  0  0  0  0  0  0  0  0
  -27.6290  -24.7014   16.1686 N   0  0  0  0  0  0  0  0  0  0  0  0
  -22.2811  -13.2814   21.9635 N   0  0  0  0  0  0  0  0  0  0  0  0
  -28.5778  -12.1341   20.5242 N   0  0  0  0  0  0  0  0  0  0  0  0
  -30.1148  -13.3568   17.7269 N   0  3  0  0  0  0  0  0  0  0  0  0
  -26.3562  -26.3187   15.1572 O   0  0  0  0  0  0  0  0  0  0  0  0
  -24.0146  -14.2900   23.1469 O   0  0  0  0  0  0  0  0  0  0  0  0
  -25.7687  -11.5724   20.5721 O   0  0  0  0  0  0  0  0  0  0  0  0
  -21.6401  -30.0483   22.6918 O   0  0  0  0  0  0  0  0  0  0  0  0
  -29.7727  -14.1193   20.6146 O   0  0  0  0  0  0  0  0  0  0  0  0
  -30.2025  -21.6439   20.0499 O   0  0  0  0  0  0  0  0  0  0  0  0
  -26.4872  -19.8428   22.2877 O   0  0  0  0  0  0  0  0  0  1  0  0
  -29.3095  -16.8666   17.4453 F   0  0  0  0  0  0  0  0  0  0  0  0
  -29.5797  -19.3519   21.4647 F   0  0  0  0  0  0  0  0  0  0  0  0
  -20.5678  -26.0264   21.7978 F   0  0  0  0  0  0  0  0  0  0  0  0
  -20.1351  -28.1196   21.3880 F   0  0  0  0  0  0  0  0  0  0  0  0
  -21.9239  -27.1804   20.5562 F   0  0  0  0  0  0  0  0  0  0  0  0
  -21.4303  -28.4781   25.1698 F   0  0  0  0  0  0  0  0  0  0  0  0
  -19.8897  -28.6815   23.6442 F   0  0  0  0  0  0  0  0  0  0  0  0
  -20.3838  -26.7154   24.4422 F   0  0  0  0  0  0  0  0  0  0  0  0
  1  2  1  0  0  0  0
  1  5  2  0  0  0  0
  2  6  2  0  0  0  0
  3  8  2  0  0  0  0
  3 16  1  0  0  0  0
  4  9  1  0  0  0  0
  4 16  2  0  0  0  0
  5 18  1  0  0  0  0
  6 20  1  0  0  0  0
  7 10  2  0  0  0  0
  7 19  1  0  0  0  0
  8 22  1  0  0  0  0
  9 22  2  0  0  0  0
 10 23  1  0  0  0  0
 11 12  2  0  0  0  0
 11 24  1  0  0  0  0
 12 25  1  0  0  0  0
 13 21  1  0  0  0  0
 13 23  2  0  0  0  0
 14 25  2  0  0  0  0
 14 26  1  0  0  0  0
 15 28  1  0  0  0  0
 15 65  2  0  0  0  0
 16 27  1  0  0  0  0
 17 27  1  0  0  0  0
 17 29  2  0  0  0  0
 17 30  1  0  0  0  0
 18 20  2  0  0  0  0
 18 35  1  0  0  0  0
 19 21  2  0  0  0  0
 19 36  1  0  0  0  0
 20 44  1  0  0  0  0
 21 37  1  0  0  0  0
 22 82  1  0  0  0  0
 23 83  1  0  0  0  0
 24 26  2  0  0  0  0
 24 82  1  0  0  0  0
 25 84  1  0  0  0  0
 26 85  1  0  0  0  0
 27 66  2  0  0  0  0
 28 60  1  0  0  0  0
 28 67  2  0  0  0  0
 29 68  1  0  0  0  0
 29 72  1  0  0  0  0
 30 73  1  0  0  0  0
 30 77  2  0  0  0  0
 31 45  1  0  0  0  0
 31 74  1  0  0  0  0
 31 78  2  0  0  0  0
 32 57  1  0  0  0  0
 32 70  1  0  0  0  0
 32 79  2  0  0  0  0
 33 60  1  0  0  0  0
 33 71  1  0  0  0  0
 33 80  2  0  0  0  0
 34 58  1  0  0  0  0
 34 75  1  0  0  0  0
 34 81  2  0  0  0  0
 35 38  1  0  0  0  0
 36 45  1  0  0  0  0
 37 70  1  0  0  0  0
 38 40  1  0  0  0  0
 39 41  1  0  0  0  0
 39 42  1  0  0  0  0
 40 44  1  0  0  0  0
 41 46  1  0  0  0  0
 42 71  1  0  0  0  0
 43 46  1  0  0  0  0
 43 71  1  0  0  0  0
 44 74  1  0  0  0  0
 45 70  1  0  0  0  0
 46 68  1  0  0  0  0
 47 58  1  0  0  0  0
 48 59  1  0  0  0  0
 49 61  1  0  0  0  0
 50 61  1  0  0  0  0
 51 61  1  0  0  0  0
 52 62  1  0  0  0  0
 53 62  1  0  0  0  0
 54 76  1  0  0  0  0
 55 59  1  0  0  0  0
 55 69  1  0  0  0  0
 56 62  1  0  0  0  0
 56 83  1  0  0  0  0
 57 61  1  0  0  0  0
 57 75  1  0  0  0  0
 58 76  1  0  0  0  0
 59 62  1  0  0  0  0
 60 63  1  0  0  0  0
 60 64  1  0  0  0  0
 63 86  1  0  0  0  0
 63 87  1  0  0  0  0
 63 88  1  0  0  0  0
 64 89  1  0  0  0  0
 64 90  1  0  0  0  0
 64 91  1  0  0  0  0
 65 69  1  0  0  0  0
 66 68  1  0  0  0  0
 67 69  1  0  0  0  0
M  CHG  1  76   1
M  ISO  4  33 100  56 101  60 100  83 101
M  END
> <Batch ID>
0066

> <Smiles>
CNC(C)C(=O)NC(C(=O)N1Cc2cc([101O:1][101CH2:1]C(C)(C)C(C)Cn3ncc([100C:0]([100C:0](=O)N4CCCC(n5nc(-c6ccc(Oc7ccc(F)cc7F)cc6)c(C(N)=O)c5N)C4)(C(F)(F)F)C(F)(F)F)n3)ccc2CC1C(=O)NC1CCCc2ccccc21)C(C)(C)C

> <Shape>
0.248

> <Color>
0.048

> <Negative vol penalty>
0.000

$$$$

  -OEChem-04052318093D

 82 90  0     1  0  0  0  0  0999 V2000
  -30.6641  -23.5995   17.4015 C   0  0  0  0  0  0  0  0  0  0  0  0
  -29.4197  -24.1193   17.0600 C   0  0  0  0  0  0  0  0  0  0  0  0
  -27.6432  -15.0270   19.3498 C   0  0  0  0  0  0  0  0  0  0  0  0
  -25.6558  -15.3332   20.6891 C   0  0  0  0  0  0  0  0  0  0  0  0
  -31.0149  -23.4582   18.7434 C   0  0  0  0  0  0  0  0  0  0  0  0
  -28.5248  -24.4971   18.0604 C   0  0  0  0  0  0  0  0  0  0  0  0
  -24.5602  -29.1615   17.8838 C   0  0  0  0  0  0  0  0  0  0  0  0
  -27.5029  -13.6435   19.4578 C   0  0  0  0  0  0  0  0  0  0  0  0
  -25.5155  -13.9496   20.7971 C   0  0  0  0  0  0  0  0  0  0  0  0
  -23.1969  -29.2235   17.5985 C   0  0  0  0  0  0  0  0  0  0  0  0
  -24.3770  -11.4064   18.8850 C   0  0  0  0  0  0  0  0  0  0  0  0
  -23.1041  -10.8688   18.6944 C   0  0  0  0  0  0  0  0  0  0  0  0
  -22.7051  -29.1326   19.9584 C   0  0  0  0  0  0  0  0  0  0  0  0
  -23.1537   -9.9580   20.9316 C   0  0  0  0  0  0  0  0  0  0  0  0
  -21.4767  -24.3055   19.0293 C   0  0  0  0  0  0  0  0  0  0  0  0
  -20.1788  -23.9774   17.2787 C   0  0  0  0  0  0  0  0  0  0  0  0
  -26.7197  -15.8719   19.9655 C   0  0  0  0  0  0  0  0  0  0  0  0
  -27.9551  -18.0810   20.2838 C   0  0  0  0  0  0  0  0  0  0  0  0
  -30.1276  -23.8435   19.7608 C   0  0  0  0  0  0  0  0  0  0  0  0
  -25.0065  -29.0735   19.2103 C   0  0  0  0  0  0  0  0  0  0  0  0
  -28.8635  -24.3596   19.4173 C   0  0  0  0  0  0  0  0  0  0  0  0
  -24.0746  -29.0722   20.2580 C   0  0  0  0  0  0  0  0  0  0  0  0
  -26.4390  -13.1048   20.1814 C   0  0  0  0  0  0  0  0  0  0  0  0
  -22.2690  -29.2062   18.6357 C   0  0  0  0  0  0  0  0  0  0  0  0
  -25.0383  -11.2197   20.0989 C   0  0  0  0  0  0  0  0  0  0  0  0
  -22.4925  -10.1446   19.7177 C   0  0  0  0  0  0  0  0  0  0  0  0
  -24.4267  -10.4956   21.1222 C   0  0  0  0  0  0  0  0  0  0  0  0
  -26.8644  -17.3012   19.8547 C   0  0  0  0  0  0  0  0  0  0  0  0
  -21.5183  -22.9964   18.6106 C   0  0  0  0  0  0  0  0  0  0  0  0
  -27.6082  -19.3681   19.9530 C   0  0  0  0  0  0  0  0  0  0  0  0
  -29.1730  -17.6779   20.9242 C   0  0  0  0  0  0  0  0  0  0  0  0
  -22.3082  -21.9170   19.2158 C   0  0  0  0  0  0  0  0  0  0  0  0
  -26.6552  -26.9331   20.8848 C   0  0  0  0  0  0  0  0  0  0  0  0
  -26.5294  -29.2143   23.1875 C   0  0  0  0  0  0  0  0  0  0  0  0
  -24.9406  -31.9463   24.4755 C   0  0  0  0  0  0  0  0  0  0  0  0
  -30.5327  -23.6279   21.1975 C   0  0  0  0  0  0  0  0  0  0  0  0
  -26.4814  -29.0343   19.5026 C   0  0  0  0  0  0  0  0  0  0  0  0
  -24.5029  -28.9993   21.7001 C   0  0  0  0  0  0  0  0  0  0  0  0
  -29.6740  -24.4010   22.1951 C   0  0  0  0  0  0  0  0  0  0  0  0
  -25.0171  -21.8627   16.8021 C   0  0  0  0  0  0  0  0  0  0  0  0
  -28.1940  -24.2392   21.8633 C   0  0  0  0  0  0  0  0  0  0  0  0
  -25.8919  -20.7356   17.3526 C   0  0  0  0  0  0  0  0  0  0  0  0
  -23.5347  -21.5679   17.0102 C   0  0  0  0  0  0  0  0  0  0  0  0
  -24.0359  -20.1642   18.9829 C   0  0  0  0  0  0  0  0  0  0  0  0
  -27.8752  -24.8039   20.4737 C   0  0  1  0  0  0  0  0  0  0  0  0
  -26.8047  -28.4280   20.8647 C   0  0  1  0  0  0  0  0  0  0  0  0
  -25.5432  -20.4261   18.8202 C   0  0  1  0  0  0  0  0  0  0  0  0
  -24.5422  -33.9125   25.9830 C   0  0  0  0  0  0  0  0  0  0  0  0
  -25.3836  -27.0898   25.0540 C   0  0  0  0  0  0  0  0  0  0  0  0
  -24.6417  -28.9306   26.5803 C   0  0  0  0  0  0  0  0  0  0  0  0
  -27.0697  -28.6058   26.1092 C   0  0  0  0  0  0  0  0  0  0  0  0
  -18.3885  -28.4789   15.6905 C   0  0  0  0  0  0  0  0  0  0  0  0
  -26.5029  -33.7514   22.7263 C   0  0  0  0  0  0  0  0  0  0  0  0
  -20.8945  -27.2190   17.0984 C   0  0  0  0  0  0  0  0  0  0  0  0
  -20.2158  -26.3756   18.1888 C   0  0  0  0  0  0  0  0  0  0  0  0
  -25.5731  -29.5535   24.3053 C   0  0  1  0  0  0  0  0  0  0  0  0
  -25.4691  -33.2872   24.9522 C   0  0  2  0  0  0  0  0  0  0  0  0
  -20.5051  -28.7040   17.1217 C   0  0  1  0  0  0  0  0  0  1  0  0
  -25.6586  -28.5443   25.4850 C   0  0  0  0  0  0  0  0  0  0  0  0
  -18.9999  -28.9374   16.9988 C   0  0  0  0  0  0  0  0  0  0  0  0
  -20.7083  -22.7988   17.5205 N   0  0  0  0  0  0  0  0  0  0  0  0
  -25.8970  -18.0319   19.2942 N   0  0  0  0  0  0  0  0  0  0  0  0
  -20.6143  -24.9214   18.1666 N   0  0  0  0  0  0  0  0  0  0  0  0
  -26.3786  -19.2844   19.3689 N   0  0  0  0  0  0  0  0  0  0  0  0
  -23.2581  -21.2703   18.4213 N   0  0  0  0  0  0  0  0  0  0  0  0
  -25.9557  -28.9565   21.9344 N   0  0  0  0  0  0  0  0  0  0  0  0
  -28.2380  -20.5521   20.1077 N   0  0  0  0  0  0  0  0  0  0  0  0
  -29.2073  -17.6295   22.3245 N   0  0  0  0  0  0  0  0  0  0  0  0
  -27.7988  -26.2483   20.5204 N   0  0  0  0  0  0  0  0  0  0  0  0
  -25.8557  -30.9351   24.6791 N   0  0  0  0  0  0  0  0  0  0  0  0
  -25.6004  -34.2295   23.8052 N   0  3  0  0  0  0  0  0  0  0  0  0
  -30.2053  -17.3856   20.2743 O   0  0  0  0  0  0  0  0  0  0  0  0
  -22.0738  -21.6704   20.3979 O   0  0  0  0  0  0  0  0  0  0  0  0
  -25.5822  -26.4375   21.2085 O   0  0  0  0  0  0  0  0  0  0  0  0
  -27.7413  -29.1864   23.4161 O   0  0  0  0  0  0  0  0  0  0  0  0
  -23.8260  -31.8089   23.9762 O   0  0  0  0  0  0  0  0  0  0  0  0
  -26.3017  -11.7548   20.2869 O   0  0  0  0  0  0  0  0  0  0  0  0
  -20.9377  -29.2659   18.3600 O   0  0  0  0  0  0  0  0  0  1  0  0
  -21.2695   -9.6298   19.5351 F   0  0  0  0  0  0  0  0  0  0  0  0
  -25.0565  -10.3140   22.2910 F   0  0  0  0  0  0  0  0  0  0  0  0
  -18.7543  -30.2693   17.1361 F   0  0  0  0  0  0  0  0  0  0  0  0
  -18.3550  -28.3217   18.0235 F   0  0  0  0  0  0  0  0  0  0  0  0
  1  2  1  0  0  0  0
  1  5  2  0  0  0  0
  2  6  2  0  0  0  0
  3  8  2  0  0  0  0
  3 17  1  0  0  0  0
  4  9  1  0  0  0  0
  4 17  2  0  0  0  0
  5 19  1  0  0  0  0
  6 21  1  0  0  0  0
  7 10  2  0  0  0  0
  7 20  1  0  0  0  0
  8 23  1  0  0  0  0
  9 23  2  0  0  0  0
 10 24  1  0  0  0  0
 11 12  2  0  0  0  0
 11 25  1  0  0  0  0
 12 26  1  0  0  0  0
 13 22  1  0  0  0  0
 13 24  2  0  0  0  0
 14 26  2  0  0  0  0
 14 27  1  0  0  0  0
 15 29  2  0  0  0  0
 15 63  1  0  0  0  0
 16 61  2  0  0  0  0
 16 63  1  0  0  0  0
 17 28  1  0  0  0  0
 18 28  1  0  0  0  0
 18 30  2  0  0  0  0
 18 31  1  0  0  0  0
 19 21  2  0  0  0  0
 19 36  1  0  0  0  0
 20 22  2  0  0  0  0
 20 37  1  0  0  0  0
 21 45  1  0  0  0  0
 22 38  1  0  0  0  0
 23 77  1  0  0  0  0
 24 78  1  0  0  0  0
 25 27  2  0  0  0  0
 25 77  1  0  0  0  0
 26 79  1  0  0  0  0
 27 80  1  0  0  0  0
 28 62  2  0  0  0  0
 29 32  1  0  0  0  0
 29 61  1  0  0  0  0
 30 64  1  0  0  0  0
 30 67  1  0  0  0  0
 31 68  1  0  0  0  0
 31 72  2  0  0  0  0
 32 65  1  0  0  0  0
 32 73  2  0  0  0  0
 33 46  1  0  0  0  0
 33 69  1  0  0  0  0
 33 74  2  0  0  0  0
 34 56  1  0  0  0  0
 34 66  1  0  0  0  0
 34 75  2  0  0  0  0
 35 57  1  0  0  0  0
 35 70  1  0  0  0  0
 35 76  2  0  0  0  0
 36 39  1  0  0  0  0
 37 46  1  0  0  0  0
 38 66  1  0  0  0  0
 39 41  1  0  0  0  0
 40 42  1  0  0  0  0
 40 43  1  0  0  0  0
 41 45  1  0  0  0  0
 42 47  1  0  0  0  0
 43 65  1  0  0  0  0
 44 47  1  0  0  0  0
 44 65  1  0  0  0  0
 45 69  1  0  0  0  0
 46 66  1  0  0  0  0
 47 64  1  0  0  0  0
 48 57  1  0  0  0  0
 49 59  1  0  0  0  0
 50 59  1  0  0  0  0
 51 59  1  0  0  0  0
 52 60  1  0  0  0  0
 53 71  1  0  0  0  0
 54 55  1  0  0  0  0
 54 58  1  0  0  0  0
 55 63  1  0  0  0  0
 56 59  1  0  0  0  0
 56 70  1  0  0  0  0
 57 71  1  0  0  0  0
 58 60  1  0  0  0  0
 58 78  1  0  0  0  0
 60 81  1  0  0  0  0
 60 82  1  0  0  0  0
 62 64  1  0  0  0  0
M  CHG  1  71   1
M  ISO  4  29 100  32 100  58 101  78 101
M  END
> <Batch ID>
0066

> <Smiles>
CNC(C)C(=O)NC(C(=O)N1Cc2cc([101O:1][101CH:1](CCn3cn[100c:0]([100C:0](=O)N4CCCC(n5nc(-c6ccc(Oc7ccc(F)cc7F)cc6)c(C(N)=O)c5N)C4)c3)C(C)(F)F)ccc2CC1C(=O)NC1CCCc2ccccc21)C(C)(C)C

> <Shape>
0.233

> <Color>
0.077

> <Negative vol penalty>
0.000

$$$$

  -OEChem-04052318093D

 87 95  0     1  0  0  0  0  0999 V2000
  -32.2475  -27.3085   18.2534 C   0  0  0  0  0  0  0  0  0  0  0  0
  -31.1270  -26.4901   18.1654 C   0  0  0  0  0  0  0  0  0  0  0  0
  -28.0684  -20.4782   21.5672 C   0  0  0  0  0  0  0  0  0  0  0  0
  -28.2268  -19.3809   19.4206 C   0  0  0  0  0  0  0  0  0  0  0  0
  -32.3656  -28.2108   19.3084 C   0  0  0  0  0  0  0  0  0  0  0  0
  -30.1188  -26.5820   19.1255 C   0  0  0  0  0  0  0  0  0  0  0  0
  -25.0392  -23.2985   19.8628 C   0  0  0  0  0  0  0  0  0  0  0  0
  -28.3000  -21.7098   20.9548 C   0  0  0  0  0  0  0  0  0  0  0  0
  -28.4585  -20.6125   18.8081 C   0  0  0  0  0  0  0  0  0  0  0  0
  -24.6439  -22.1566   20.5581 C   0  0  0  0  0  0  0  0  0  0  0  0
  -29.4491  -23.4228   16.7270 C   0  0  0  0  0  0  0  0  0  0  0  0
  -30.4720  -23.4945   15.7815 C   0  0  0  0  0  0  0  0  0  0  0  0
  -23.7900  -23.5433   22.3378 C   0  0  0  0  0  0  0  0  0  0  0  0
  -32.0721  -22.8205   17.4615 C   0  0  0  0  0  0  0  0  0  0  0  0
  -23.7803  -16.5919   22.7135 C   0  0  0  0  0  0  0  0  0  0  0  0
  -28.0318  -19.3137   20.8001 C   0  0  0  0  0  0  0  0  0  0  0  0
  -28.1407  -17.6648   22.7435 C   0  0  0  0  0  0  0  0  0  0  0  0
  -31.3637  -28.3045   20.2885 C   0  0  0  0  0  0  0  0  0  0  0  0
  -24.8224  -24.5731   20.4056 C   0  0  0  0  0  0  0  0  0  0  0  0
  -30.2084  -27.5033   20.1847 C   0  0  0  0  0  0  0  0  0  0  0  0
  -24.1812  -24.6998   21.6461 C   0  0  0  0  0  0  0  0  0  0  0  0
  -28.4951  -21.7770   19.5752 C   0  0  0  0  0  0  0  0  0  0  0  0
  -24.0218  -22.2787   21.7971 C   0  0  0  0  0  0  0  0  0  0  0  0
  -29.7377  -23.0501   18.0398 C   0  0  0  0  0  0  0  0  0  0  0  0
  -31.7835  -23.1933   16.1486 C   0  0  0  0  0  0  0  0  0  0  0  0
  -31.0492  -22.7489   18.4070 C   0  0  0  0  0  0  0  0  0  0  0  0
  -27.7931  -18.0411   21.4322 C   0  0  0  0  0  0  0  0  0  0  0  0
  -23.7683  -15.5177   23.5673 C   0  0  0  0  0  0  0  0  0  0  0  0
  -27.7002  -16.3688   22.8569 C   0  0  0  0  0  0  0  0  0  0  0  0
  -28.8026  -18.4192   23.7674 C   0  0  0  0  0  0  0  0  0  0  0  0
  -26.6978  -26.9759   21.3074 C   0  0  0  0  0  0  0  0  0  0  0  0
  -23.8712  -28.5111   21.7267 C   0  0  0  0  0  0  0  0  0  0  0  0
  -23.7037  -12.5446   22.0244 C   0  0  0  0  0  0  0  0  0  0  0  0
  -20.5125  -28.2946   22.2915 C   0  0  0  0  0  0  0  0  0  0  0  0
  -31.5391  -29.3039   21.4046 C   0  0  0  0  0  0  0  0  0  0  0  0
  -25.2307  -25.7960   19.6307 C   0  0  0  0  0  0  0  0  0  0  0  0
  -23.9071  -26.0461   22.2633 C   0  0  0  0  0  0  0  0  0  0  0  0
  -30.6423  -29.0181   22.6048 C   0  0  0  0  0  0  0  0  0  0  0  0
  -26.0250  -13.1336   19.3589 C   0  0  0  0  0  0  0  0  0  0  0  0
  -29.2099  -28.7968   22.1424 C   0  0  0  0  0  0  0  0  0  0  0  0
  -26.6987  -14.4473   19.7534 C   0  0  0  0  0  0  0  0  0  0  0  0
  -24.5573  -13.1121   19.7741 C   0  0  0  0  0  0  0  0  0  0  0  0
  -25.0058  -14.6930   21.6238 C   0  0  0  0  0  0  0  0  0  0  0  0
  -29.1135  -27.5643   21.2343 C   0  0  1  0  0  0  0  0  0  0  0  0
  -25.4235  -27.0256   20.5130 C   0  0  1  0  0  0  0  0  0  0  0  0
  -26.4978  -14.7440   21.2500 C   0  0  2  0  0  0  0  0  0  0  0  0
  -18.4748  -29.7210   22.6232 C   0  0  0  0  0  0  0  0  0  0  0  0
  -25.3973  -19.7080   23.6846 C   0  0  0  0  0  0  0  0  0  0  0  0
  -21.7367  -14.4265   22.4658 C   0  0  0  0  0  0  0  0  0  0  0  0
  -21.9536  -14.3507   24.9094 C   0  0  0  0  0  0  0  0  0  0  0  0
  -22.7844  -11.8056   24.1625 C   0  0  0  0  0  0  0  0  0  0  0  0
  -25.0306  -12.8636   24.0421 C   0  0  0  0  0  0  0  0  0  0  0  0
  -24.7790  -29.1423   24.5706 C   0  0  0  0  0  0  0  0  0  0  0  0
  -22.4036  -29.7012   25.1303 C   0  0  0  0  0  0  0  0  0  0  0  0
  -23.6210  -31.0264   23.4028 C   0  0  0  0  0  0  0  0  0  0  0  0
  -22.2250  -19.2434   22.4997 C   0  0  0  0  0  0  0  0  0  0  0  0
  -22.6447  -20.5353   20.4005 C   0  0  0  0  0  0  0  0  0  0  0  0
  -19.1870  -27.1602   19.9008 C   0  0  0  0  0  0  0  0  0  0  0  0
  -24.5249  -19.1747   21.3750 C   0  0  0  0  0  0  0  0  0  0  0  0
  -22.8967  -28.6636   22.8695 C   0  0  1  0  0  0  0  0  0  0  0  0
  -19.3321  -28.9695   21.6167 C   0  0  2  0  0  0  0  0  0  0  0  0
  -25.3466  -18.6441   22.5772 C   0  0  2  0  0  0  0  0  0  0  0  0
  -22.8515  -14.3708   23.5976 C   0  0  0  0  0  0  0  0  0  0  0  0
  -23.5945  -12.9280   23.4787 C   0  0  0  0  0  0  0  0  0  0  0  0
  -23.4318  -29.6078   23.9828 C   0  0  0  0  0  0  0  0  0  0  0  0
  -23.2720  -20.0237   21.7036 C   0  0  0  0  0  0  0  0  0  1  0  0
  -27.1792  -17.0633   20.7607 N   0  0  0  0  0  0  0  0  0  0  0  0
  -24.7922  -15.6336   24.4660 N   0  0  0  0  0  0  0  0  0  0  0  0
  -25.4468  -16.7578   24.1961 N   0  0  0  0  0  0  0  0  0  0  0  0
  -24.8384  -17.3309   23.1451 N   0  0  0  0  0  0  0  0  0  0  0  0
  -27.1377  -16.0596   21.6535 N   0  0  0  0  0  0  0  0  0  0  0  0
  -24.3307  -27.2116   21.4698 N   0  0  0  0  0  0  0  0  0  0  0  0
  -24.4070  -13.4206   21.1973 N   0  0  0  0  0  0  0  0  0  0  0  0
  -27.7431  -15.4749   23.8676 N   0  0  0  0  0  0  0  0  0  0  0  0
  -30.2012  -18.3648   23.8390 N   0  0  0  0  0  0  0  0  0  0  0  0
  -27.7908  -27.5096   20.6517 N   0  0  0  0  0  0  0  0  0  0  0  0
  -21.6356  -29.0944   22.2758 N   0  0  0  0  0  0  0  0  0  0  0  0
  -18.4773  -27.9573   20.9342 N   0  3  0  0  0  0  0  0  0  0  0  0
  -28.1713  -19.1078   24.6046 O   0  0  0  0  0  0  0  0  0  0  0  0
  -26.6898  -26.4906   22.4327 O   0  0  0  0  0  0  0  0  0  0  0  0
  -24.2068  -29.5072   21.0811 O   0  0  0  0  0  0  0  0  0  0  0  0
  -23.1813  -11.4960   21.6374 O   0  0  0  0  0  0  0  0  0  0  0  0
  -20.4441  -27.1717   22.7865 O   0  0  0  0  0  0  0  0  0  0  0  0
  -28.7209  -22.9786   18.9772 O   0  0  0  0  0  0  0  0  0  0  0  0
  -23.6355  -21.1658   22.4782 O   0  0  0  0  0  0  0  0  0  1  0  0
  -32.7655  -23.2607   15.2401 F   0  0  0  0  0  0  0  0  0  0  0  0
  -31.3324  -22.3891   19.6664 F   0  0  0  0  0  0  0  0  0  0  0  0
  1  2  1  0  0  0  0
  1  5  2  0  0  0  0
  2  6  2  0  0  0  0
  3  8  2  0  0  0  0
  3 16  1  0  0  0  0
  4  9  1  0  0  0  0
  4 16  2  0  0  0  0
  5 18  1  0  0  0  0
  6 20  1  0  0  0  0
  7 10  2  0  0  0  0
  7 19  1  0  0  0  0
  8 22  1  0  0  0  0
  9 22  2  0  0  0  0
 10 23  1  0  0  0  0
 11 12  2  0  0  0  0
 11 24  1  0  0  0  0
 12 25  1  0  0  0  0
 13 21  1  0  0  0  0
 13 23  2  0  0  0  0
 14 25  2  0  0  0  0
 14 26  1  0  0  0  0
 15 28  2  0  0  0  0
 15 70  1  0  0  0  0
 16 27  1  0  0  0  0
 17 27  1  0  0  0  0
 17 29  2  0  0  0  0
 17 30  1  0  0  0  0
 18 20  2  0  0  0  0
 18 35  1  0  0  0  0
 19 21  2  0  0  0  0
 19 36  1  0  0  0  0
 20 44  1  0  0  0  0
 21 37  1  0  0  0  0
 22 84  1  0  0  0  0
 23 85  1  0  0  0  0
 24 26  2  0  0  0  0
 24 84  1  0  0  0  0
 25 86  1  0  0  0  0
 26 87  1  0  0  0  0
 27 67  2  0  0  0  0
 28 63  1  0  0  0  0
 28 68  1  0  0  0  0
 29 71  1  0  0  0  0
 29 74  1  0  0  0  0
 30 75  1  0  0  0  0
 30 79  2  0  0  0  0
 31 45  1  0  0  0  0
 31 76  1  0  0  0  0
 31 80  2  0  0  0  0
 32 60  1  0  0  0  0
 32 72  1  0  0  0  0
 32 81  2  0  0  0  0
 33 64  1  0  0  0  0
 33 73  1  0  0  0  0
 33 82  2  0  0  0  0
 34 61  1  0  0  0  0
 34 77  1  0  0  0  0
 34 83  2  0  0  0  0
 35 38  1  0  0  0  0
 36 45  1  0  0  0  0
 37 72  1  0  0  0  0
 38 40  1  0  0  0  0
 39 41  1  0  0  0  0
 39 42  1  0  0  0  0
 40 44  1  0  0  0  0
 41 46  1  0  0  0  0
 42 73  1  0  0  0  0
 43 46  1  0  0  0  0
 43 73  1  0  0  0  0
 44 76  1  0  0  0  0
 45 72  1  0  0  0  0
 46 71  1  0  0  0  0
 47 61  1  0  0  0  0
 48 62  1  0  0  0  0
 49 63  1  0  0  0  0
 50 63  1  0  0  0  0
 51 64  1  0  0  0  0
 52 64  1  0  0  0  0
 53 65  1  0  0  0  0
 54 65  1  0  0  0  0
 55 65  1  0  0  0  0
 56 66  1  0  0  0  0
 57 66  1  0  0  0  0
 58 78  1  0  0  0  0
 59 62  1  0  0  0  0
 59 66  1  0  0  0  0
 60 65  1  0  0  0  0
 60 77  1  0  0  0  0
 61 78  1  0  0  0  0
 62 70  1  0  0  0  0
 63 64  1  0  0  0  0
 66 85  1  0  0  0  0
 67 71  1  0  0  0  0
 68 69  2  0  0  0  0
 69 70  1  0  0  0  0
M  CHG  1  78   1
M  ISO  4  33 100  64 100  66 101  85 101
M  END
> <Batch ID>
0066

> <Smiles>
CNC(C)C(=O)NC(C(=O)N1Cc2cc([101O:1][101C:1](C)(C)CC(C)n3cc(C(C)(C)[100C:0](C)(C)[100C:0](=O)N4CCCC(n5nc(-c6ccc(Oc7ccc(F)cc7F)cc6)c(C(N)=O)c5N)C4)nn3)ccc2CC1C(=O)NC1CCCc2ccccc21)C(C)(C)C

> <Shape>
0.206

> <Color>
0.035

> <Negative vol penalty>
0.000

$$$$

  -OEChem-04052318093D

 94102  0     1  0  0  0  0  0999 V2000
  -22.2258  -29.2191   24.3870 C   0  0  0  0  0  0  0  0  0  0  0  0
  -22.5767  -27.8855   24.5707 C   0  0  0  0  0  0  0  0  0  0  0  0
  -29.0259  -26.3404   18.6014 C   0  0  0  0  0  0  0  0  0  0  0  0
  -30.2689  -25.7943   20.5999 C   0  0  0  0  0  0  0  0  0  0  0  0
  -21.1090  -29.5455   23.6188 C   0  0  0  0  0  0  0  0  0  0  0  0
  -21.8102  -26.8774   23.9871 C   0  0  0  0  0  0  0  0  0  0  0  0
  -23.8267  -21.5391   21.7640 C   0  0  0  0  0  0  0  0  0  0  0  0
  -28.9132  -27.6621   19.0326 C   0  0  0  0  0  0  0  0  0  0  0  0
  -30.1563  -27.1160   21.0311 C   0  0  0  0  0  0  0  0  0  0  0  0
  -23.8608  -20.2526   22.3002 C   0  0  0  0  0  0  0  0  0  0  0  0
  -29.8866  -30.2628   22.8296 C   0  0  0  0  0  0  0  0  0  0  0  0
  -29.5400  -30.4826   24.1627 C   0  0  0  0  0  0  0  0  0  0  0  0
  -21.7930  -19.7338   21.1712 C   0  0  0  0  0  0  0  0  0  0  0  0
  -27.4660  -29.2917   23.8197 C   0  0  0  0  0  0  0  0  0  0  0  0
  -25.4957  -12.3676   21.7287 C   0  0  0  0  0  0  0  0  0  0  0  0
  -29.7037  -25.4064   19.3850 C   0  0  0  0  0  0  0  0  0  0  0  0
  -30.8464  -23.4882   18.1512 C   0  0  0  0  0  0  0  0  0  0  0  0
  -20.3341  -28.5413   23.0175 C   0  0  0  0  0  0  0  0  0  0  0  0
  -22.7681  -21.9368   20.9348 C   0  0  0  0  0  0  0  0  0  0  0  0
  -20.6812  -27.1906   23.2112 C   0  0  0  0  0  0  0  0  0  0  0  0
  -21.7492  -21.0251   20.6237 C   0  0  0  0  0  0  0  0  0  0  0  0
  -29.4784  -28.0499   20.2475 C   0  0  0  0  0  0  0  0  0  0  0  0
  -22.8424  -19.3507   22.0062 C   0  0  0  0  0  0  0  0  0  0  0  0
  -29.0230  -29.5576   21.9915 C   0  0  0  0  0  0  0  0  0  0  0  0
  -28.3297  -29.9970   24.6578 C   0  0  0  0  0  0  0  0  0  0  0  0
  -27.8127  -29.0721   22.4865 C   0  0  0  0  0  0  0  0  0  0  0  0
  -29.8199  -24.0408   18.9404 C   0  0  0  0  0  0  0  0  0  0  0  0
  -24.4770  -13.1141   21.2074 C   0  0  0  0  0  0  0  0  0  0  0  0
  -30.4968  -22.1676   18.0088 C   0  0  0  0  0  0  0  0  0  0  0  0
  -26.3333  -13.6379   20.1209 C   0  0  0  0  0  0  0  0  0  0  0  0
  -32.0117  -24.1128   17.5965 C   0  0  0  0  0  0  0  0  0  0  0  0
  -20.5078  -24.1658   21.0961 C   0  0  0  0  0  0  0  0  0  0  0  0
  -19.8471  -23.1602   18.0837 C   0  0  0  0  0  0  0  0  0  0  0  0
  -20.0137  -20.6665   15.7598 C   0  0  0  0  0  0  0  0  0  0  0  0
  -28.7703  -17.4512   19.9415 C   0  0  0  0  0  0  0  0  0  0  0  0
  -19.1083  -28.9409   22.2350 C   0  0  0  0  0  0  0  0  0  0  0  0
  -22.7599  -23.3195   20.3428 C   0  0  0  0  0  0  0  0  0  0  0  0
  -20.6010  -21.3962   19.7224 C   0  0  0  0  0  0  0  0  0  0  0  0
  -18.5665  -27.8282   21.3413 C   0  0  0  0  0  0  0  0  0  0  0  0
  -26.2110  -19.7447   19.1282 C   0  0  0  0  0  0  0  0  0  0  0  0
  -18.4963  -26.5126   22.1102 C   0  0  0  0  0  0  0  0  0  0  0  0
  -27.0078  -21.0362   18.9488 C   0  0  0  0  0  0  0  0  0  0  0  0
  -26.7255  -18.9106   20.3028 C   0  0  0  0  0  0  0  0  0  0  0  0
  -28.9736  -19.9162   20.0636 C   0  0  0  0  0  0  0  0  0  0  0  0
  -19.8892  -26.0696   22.5739 C   0  0  1  0  0  0  0  0  0  0  0  0
  -21.3676  -23.7824   19.9251 C   0  0  1  0  0  0  0  0  0  0  0  0
  -28.5152  -20.7438   18.8529 C   0  0  2  0  0  0  0  0  0  0  0  0
  -19.3542  -20.1260   13.3997 C   0  0  0  0  0  0  0  0  0  0  0  0
  -22.2311  -12.1367   20.6878 C   0  0  0  0  0  0  0  0  0  0  0  0
  -22.6664  -12.8171   23.0309 C   0  0  0  0  0  0  0  0  0  0  0  0
  -26.6308  -15.3421   18.1965 C   0  0  0  0  0  0  0  0  0  0  0  0
  -27.9037  -13.2125   18.2103 C   0  0  0  0  0  0  0  0  0  0  0  0
  -31.7879  -11.3116   24.4748 C   0  0  0  0  0  0  0  0  0  0  0  0
  -29.4633  -11.2386   25.3881 C   0  0  0  0  0  0  0  0  0  0  0  0
  -30.4691  -13.4287   24.7300 C   0  0  0  0  0  0  0  0  0  0  0  0
  -16.9593  -22.7613   18.9845 C   0  0  0  0  0  0  0  0  0  0  0  0
  -16.5883  -21.3634   16.9408 C   0  0  0  0  0  0  0  0  0  0  0  0
  -17.2128  -23.7673   16.7089 C   0  0  0  0  0  0  0  0  0  0  0  0
  -27.2408  -16.2888   21.5890 C   0  0  0  0  0  0  0  0  0  0  0  0
  -22.8303  -20.2770   14.9392 C   0  0  0  0  0  0  0  0  0  0  0  0
  -28.4086  -12.3660   22.7161 C   0  0  0  0  0  0  0  0  0  0  0  0
  -22.9784  -15.7416   22.0613 C   0  0  0  0  0  0  0  0  0  0  0  0
  -22.3823  -14.5865   21.2478 C   0  0  0  0  0  0  0  0  0  0  0  0
  -29.7850  -11.7321   22.9537 C   0  0  0  0  0  0  0  0  0  0  0  0
  -27.9498  -12.1536   21.2694 C   0  0  0  0  0  0  0  0  0  0  0  0
  -28.4696  -15.0050   19.8779 C   0  0  0  0  0  0  0  0  0  0  0  0
  -22.2687  -17.0560   21.7588 C   0  0  0  0  0  0  0  0  0  1  0  0
  -18.9528  -22.1037   17.4813 C   0  0  1  0  0  0  0  0  0  0  0  0
  -20.4471  -20.6727   14.3050 C   0  0  2  0  0  0  0  0  0  0  0  0
  -22.9794  -13.1775   21.5585 C   0  0  0  0  0  0  0  0  0  0  0  0
  -27.2685  -14.2804   19.1642 C   0  0  0  0  0  0  0  0  0  0  0  0
  -30.3867  -11.9363   24.3697 C   0  0  0  0  0  0  0  0  0  0  0  0
  -17.4488  -22.4922   17.5475 C   0  0  0  0  0  0  0  0  0  0  0  0
  -28.8880  -23.1446   19.2757 N   0  0  0  0  0  0  0  0  0  0  0  0
  -26.6323  -12.7116   21.0375 N   0  0  0  0  0  0  0  0  0  0  0  0
  -29.3276  -22.0155   18.6943 N   0  0  0  0  0  0  0  0  0  0  0  0
  -25.0239  -13.8911   20.2148 N   0  3  0  0  0  0  0  0  0  0  0  0
  -20.6346  -22.7618   19.1732 N   0  0  0  0  0  0  0  0  0  0  0  0
  -28.1750  -18.6953   20.1970 N   0  0  0  0  0  0  0  0  0  0  0  0
  -31.0785  -21.1333   17.3652 N   0  0  0  0  0  0  0  0  0  0  0  0
  -32.2183  -25.4774   17.8401 N   0  0  0  0  0  0  0  0  0  0  0  0
  -20.6278  -25.4899   21.4726 N   0  0  0  0  0  0  0  0  0  0  0  0
  -19.4506  -21.8694   16.1301 N   0  0  0  0  0  0  0  0  0  0  0  0
  -28.0985  -16.3104   20.4057 N   0  0  0  0  0  0  0  0  0  0  0  0
  -21.6682  -19.8376   14.1247 N   0  3  0  0  0  0  0  0  0  0  0  0
  -32.8365  -23.4832   16.8917 O   0  0  0  0  0  0  0  0  0  0  0  0
  -19.7876  -23.3231   21.6185 O   0  0  0  0  0  0  0  0  0  0  0  0
  -19.8522  -24.2953   17.6007 O   0  0  0  0  0  0  0  0  0  0  0  0
  -20.1567  -19.6908   16.4933 O   0  0  0  0  0  0  0  0  0  0  0  0
  -29.8477  -17.3634   19.3386 O   0  0  0  0  0  0  0  0  0  0  0  0
  -29.3689  -29.3396   20.6685 O   0  0  0  0  0  0  0  0  0  0  0  0
  -22.8728  -18.0945   22.5287 O   0  0  0  0  0  0  0  0  0  1  0  0
  -27.9976  -30.2067   25.9383 F   0  0  0  0  0  0  0  0  0  0  0  0
  -26.9794  -28.3928   21.6865 F   0  0  0  0  0  0  0  0  0  0  0  0
  1  2  1  0  0  0  0
  1  5  2  0  0  0  0
  2  6  2  0  0  0  0
  3  8  2  0  0  0  0
  3 16  1  0  0  0  0
  4  9  1  0  0  0  0
  4 16  2  0  0  0  0
  5 18  1  0  0  0  0
  6 20  1  0  0  0  0
  7 10  2  0  0  0  0
  7 19  1  0  0  0  0
  8 22  1  0  0  0  0
  9 22  2  0  0  0  0
 10 23  1  0  0  0  0
 11 12  2  0  0  0  0
 11 24  1  0  0  0  0
 12 25  1  0  0  0  0
 13 21  1  0  0  0  0
 13 23  2  0  0  0  0
 14 25  2  0  0  0  0
 14 26  1  0  0  0  0
 15 28  2  0  0  0  0
 15 75  1  0  0  0  0
 16 27  1  0  0  0  0
 17 27  1  0  0  0  0
 17 29  2  0  0  0  0
 17 31  1  0  0  0  0
 18 20  2  0  0  0  0
 18 36  1  0  0  0  0
 19 21  2  0  0  0  0
 19 37  1  0  0  0  0
 20 45  1  0  0  0  0
 21 38  1  0  0  0  0
 22 91  1  0  0  0  0
 23 92  1  0  0  0  0
 24 26  2  0  0  0  0
 24 91  1  0  0  0  0
 25 93  1  0  0  0  0
 26 94  1  0  0  0  0
 27 74  2  0  0  0  0
 28 70  1  0  0  0  0
 28 77  1  0  0  0  0
 29 76  1  0  0  0  0
 29 80  1  0  0  0  0
 30 71  1  0  0  0  0
 30 75  1  0  0  0  0
 30 77  2  0  0  0  0
 31 81  1  0  0  0  0
 31 86  2  0  0  0  0
 32 46  1  0  0  0  0
 32 82  1  0  0  0  0
 32 87  2  0  0  0  0
 33 68  1  0  0  0  0
 33 78  1  0  0  0  0
 33 88  2  0  0  0  0
 34 69  1  0  0  0  0
 34 83  1  0  0  0  0
 34 89  2  0  0  0  0
 35 79  1  0  0  0  0
 35 84  1  0  0  0  0
 35 90  2  0  0  0  0
 36 39  1  0  0  0  0
 37 46  1  0  0  0  0
 38 78  1  0  0  0  0
 39 41  1  0  0  0  0
 40 42  1  0  0  0  0
 40 43  1  0  0  0  0
 41 45  1  0  0  0  0
 42 47  1  0  0  0  0
 43 79  1  0  0  0  0
 44 47  1  0  0  0  0
 44 79  1  0  0  0  0
 45 82  1  0  0  0  0
 46 78  1  0  0  0  0
 47 76  1  0  0  0  0
 48 69  1  0  0  0  0
 49 70  1  0  0  0  0
 50 70  1  0  0  0  0
 51 71  1  0  0  0  0
 52 71  1  0  0  0  0
 53 72  1  0  0  0  0
 54 72  1  0  0  0  0
 55 72  1  0  0  0  0
 56 73  1  0  0  0  0
 57 73  1  0  0  0  0
 58 73  1  0  0  0  0
 59 84  1  0  0  0  0
 60 85  1  0  0  0  0
 61 64  1  0  0  0  0
 61 65  1  0  0  0  0
 62 63  1  0  0  0  0
 62 67  1  0  0  0  0
 63 70  1  0  0  0  0
 64 72  1  0  0  0  0
 65 75  1  0  0  0  0
 66 71  1  0  0  0  0
 66 84  1  0  0  0  0
 67 92  1  0  0  0  0
 68 73  1  0  0  0  0
 68 83  1  0  0  0  0
 69 85  1  0  0  0  0
 74 76  1  0  0  0  0
M  CHG  2  77   1  85   1
M  ISO  4  35 100  67 101  84 100  92 101
M  END
> <Batch ID>
0066

> <Smiles>
CNC(C)C(=O)NC(C(=O)N1Cc2cc([101O:1][101CH2:1]CCC(C)(C)c3cn(CCCC(C)(C)C)c(C(C)(C)C[100N:0](C)[100C:0](=O)N4CCCC(n5nc(-c6ccc(Oc7ccc(F)cc7F)cc6)c(C(N)=O)c5N)C4)n3)ccc2CC1C(=O)NC1CCCc2ccccc21)C(C)(C)C

> <Shape>
0.230

> <Color>
0.056

> <Negative vol penalty>
0.000

$$$$

  -OEChem-04052318093D

 96104  0     1  0  0  0  0  0999 V2000
  -33.4230   -9.4474   19.6743 C   0  0  0  0  0  0  0  0  0  0  0  0
  -33.3687  -10.5446   20.5279 C   0  0  0  0  0  0  0  0  0  0  0  0
  -26.0079  -28.5511   21.1788 C   0  0  0  0  0  0  0  0  0  0  0  0
  -25.2205  -26.3943   20.4269 C   0  0  0  0  0  0  0  0  0  0  0  0
  -32.5555   -9.3690   18.5856 C   0  0  0  0  0  0  0  0  0  0  0  0
  -32.4475  -11.5647   20.2925 C   0  0  0  0  0  0  0  0  0  0  0  0
  -28.3824  -16.3280   23.7714 C   0  0  0  0  0  0  0  0  0  0  0  0
  -24.7196  -29.0684   21.0442 C   0  0  0  0  0  0  0  0  0  0  0  0
  -23.9321  -26.9116   20.2923 C   0  0  0  0  0  0  0  0  0  0  0  0
  -28.1045  -17.6940   23.7941 C   0  0  0  0  0  0  0  0  0  0  0  0
  -20.3621  -27.5707   20.0951 C   0  0  0  0  0  0  0  0  0  0  0  0
  -19.3019  -26.8081   20.5851 C   0  0  0  0  0  0  0  0  0  0  0  0
  -26.6019  -17.4132   21.9280 C   0  0  0  0  0  0  0  0  0  0  0  0
  -20.2628  -26.8952   22.8001 C   0  0  0  0  0  0  0  0  0  0  0  0
  -28.0683  -22.0103   16.9690 C   0  0  0  0  0  0  0  0  0  0  0  0
  -28.2133  -19.9369   17.7014 C   0  0  0  0  0  0  0  0  0  0  0  0
  -26.2584  -27.2140   20.8701 C   0  0  0  0  0  0  0  0  0  0  0  0
  -28.1487  -26.0764   22.1509 C   0  0  0  0  0  0  0  0  0  0  0  0
  -31.6167  -10.3839   18.3424 C   0  0  0  0  0  0  0  0  0  0  0  0
  -27.7794  -15.4947   22.8182 C   0  0  0  0  0  0  0  0  0  0  0  0
  -31.5676  -11.5004   19.1988 C   0  0  0  0  0  0  0  0  0  0  0  0
  -26.8718  -16.0366   21.8969 C   0  0  0  0  0  0  0  0  0  0  0  0
  -23.6817  -28.2486   20.6010 C   0  0  0  0  0  0  0  0  0  0  0  0
  -27.2163  -18.2373   22.8705 C   0  0  0  0  0  0  0  0  0  0  0  0
  -21.3728  -27.9954   20.9576 C   0  0  0  0  0  0  0  0  0  0  0  0
  -19.2522  -26.4704   21.9375 C   0  0  0  0  0  0  0  0  0  0  0  0
  -21.3231  -27.6577   22.3101 C   0  0  0  0  0  0  0  0  0  0  0  0
  -27.5892  -26.6792   21.0083 C   0  0  0  0  0  0  0  0  0  0  0  0
  -29.0233  -21.2996   16.2810 C   0  0  0  0  0  0  0  0  0  0  0  0
  -29.4256  -25.7414   21.7719 C   0  0  0  0  0  0  0  0  0  0  0  0
  -27.5661  -25.8403   23.4395 C   0  0  0  0  0  0  0  0  0  0  0  0
  -28.8421  -13.6581   20.4515 C   0  0  0  0  0  0  0  0  0  0  0  0
  -25.7266  -12.7756   20.2589 C   0  0  0  0  0  0  0  0  0  0  0  0
  -22.4560  -13.5407   20.8628 C   0  0  0  0  0  0  0  0  0  0  0  0
  -31.9356  -24.6058   16.4557 C   0  0  0  0  0  0  0  0  0  0  0  0
  -30.7318  -10.2779   17.1257 C   0  0  0  0  0  0  0  0  0  0  0  0
  -28.0693  -14.0188   22.8240 C   0  0  0  0  0  0  0  0  0  0  0  0
  -26.1825  -15.1816   20.8662 C   0  0  0  0  0  0  0  0  0  0  0  0
  -29.5314  -11.2203   17.1616 C   0  0  0  0  0  0  0  0  0  0  0  0
  -32.9266  -27.0920   18.8038 C   0  0  0  0  0  0  0  0  0  0  0  0
  -29.9652  -12.6216   17.5798 C   0  0  0  0  0  0  0  0  0  0  0  0
  -31.7215  -27.2138   19.7381 C   0  0  0  0  0  0  0  0  0  0  0  0
  -32.4979  -26.8427   17.3594 C   0  0  0  0  0  0  0  0  0  0  0  0
  -30.3851  -25.8172   18.1065 C   0  0  0  0  0  0  0  0  0  0  0  0
  -30.5654  -12.6151   18.9909 C   0  0  1  0  0  0  0  0  0  0  0  0
  -27.7920  -13.3502   21.4811 C   0  0  1  0  0  0  0  0  0  0  0  0
  -30.7684  -26.0134   19.5833 C   0  0  2  0  0  0  0  0  0  0  0  0
  -24.5964  -20.7335   17.1521 C   0  0  0  0  0  0  0  0  0  0  0  0
  -20.1337  -12.6395   20.5597 C   0  0  0  0  0  0  0  0  0  0  0  0
  -32.0735  -21.3585   16.4411 C   0  0  0  0  0  0  0  0  0  0  0  0
  -25.8331  -13.5038   17.2978 C   0  0  0  0  0  0  0  0  0  0  0  0
  -23.3296  -13.4999   17.2783 C   0  0  0  0  0  0  0  0  0  0  0  0
  -24.5741  -11.4048   17.8113 C   0  0  0  0  0  0  0  0  0  0  0  0
  -25.9385  -22.8773   18.8275 C   0  0  0  0  0  0  0  0  0  0  0  0
  -21.9633  -13.5068   23.7809 C   0  0  0  0  0  0  0  0  0  0  0  0
  -29.8884  -21.7620   15.1851 C   0  0  0  0  0  0  0  0  0  0  0  0
  -25.2075  -20.5227   18.5344 C   0  0  0  0  0  0  0  0  0  0  0  0
  -26.8496  -21.1171   20.4080 C   0  0  0  0  0  0  0  0  0  0  0  0
  -24.5175  -13.2784   19.5078 C   0  0  1  0  0  0  0  0  0  0  0  0
  -21.3325  -12.7356   21.4905 C   0  0  2  0  0  0  0  0  0  0  0  0
  -31.2424  -22.3634   15.6496 C   0  0  1  0  0  0  0  0  0  0  0  0
  -24.5779  -12.9384   17.9919 C   0  0  0  0  0  0  0  0  0  0  0  0
  -26.4488  -21.4118   18.9119 C   0  0  2  0  0  0  0  0  0  0  0  0
  -27.9507  -21.9493   21.1269 C   0  0  1  0  0  0  0  0  0  0  0  0
  -27.8306  -21.8363   22.6674 C   0  0  0  0  0  0  0  0  0  0  0  0
  -27.9438  -20.4776   23.3414 C   0  0  0  0  0  0  0  0  0  1  0  0
  -29.3727  -21.6879   20.6506 C   0  0  0  0  0  0  0  0  0  0  0  0
  -29.1084  -20.0095   16.7415 N   0  0  0  0  0  0  0  0  0  0  0  0
  -28.4410  -26.7260   19.9806 N   0  0  0  0  0  0  0  0  0  0  0  0
  -27.5578  -21.1241   17.8752 N   0  0  0  0  0  0  0  0  0  0  0  0
  -29.5487  -26.1483   20.4760 N   0  0  0  0  0  0  0  0  0  0  0  0
  -26.5036  -13.7454   20.9083 N   0  0  0  0  0  0  0  0  0  0  0  0
  -31.5968  -25.6904   17.2815 N   0  0  0  0  0  0  0  0  0  0  0  0
  -30.4440  -25.1414   22.4241 N   0  0  0  0  0  0  0  0  0  0  0  0
  -26.2432  -26.2475   23.6594 N   0  0  0  0  0  0  0  0  0  0  0  0
  -29.5168  -12.5457   19.9859 N   0  0  0  0  0  0  0  0  0  0  0  0
  -23.3530  -12.7327   20.1967 N   0  0  0  0  0  0  0  0  0  0  0  0
  -31.0298  -23.5522   16.4448 N   0  0  0  0  0  0  0  0  0  0  0  0
  -20.8891  -13.3704   22.7639 N   0  3  0  0  0  0  0  0  0  0  0  0
  -28.2054  -25.2996   24.3736 O   0  0  0  0  0  0  0  0  0  0  0  0
  -29.0256  -14.8188   20.1041 O   0  0  0  0  0  0  0  0  0  0  0  0
  -25.9686  -11.5661   20.2751 O   0  0  0  0  0  0  0  0  0  0  0  0
  -22.5285  -14.7644   20.9513 O   0  0  0  0  0  0  0  0  0  0  0  0
  -32.9713  -24.5763   15.7824 O   0  0  0  0  0  0  0  0  0  0  0  0
  -22.4243  -28.7530   20.4698 O   0  0  0  0  0  0  0  0  0  0  0  0
  -26.9426  -19.5764   22.8901 O   0  0  0  0  0  0  0  0  0  1  0  0
  -18.2332  -25.7395   22.4082 F   0  0  0  0  0  0  0  0  0  0  0  0
  -22.2905  -28.0639   23.1438 F   0  0  0  0  0  0  0  0  0  0  0  0
  -27.6931  -23.2746   20.8658 F   0  0  0  0  0  0  0  0  0  0  0  0
  -28.7940  -22.6327   23.2219 F   0  0  0  0  0  0  0  0  0  0  0  0
  -26.6430  -22.3932   23.0447 F   0  0  0  0  0  0  0  0  0  0  0  0
  -27.8097  -20.6546   24.6822 F   0  0  0  0  0  0  0  0  0  0  0  0
  -29.1740  -19.9545   23.1185 F   0  0  0  0  0  0  0  0  0  0  0  0
  -29.5216  -21.9635   19.3384 F   0  0  0  0  0  0  0  0  0  0  0  0
  -30.2576  -22.4689   21.3121 F   0  0  0  0  0  0  0  0  0  0  0  0
  -29.7420  -20.4048   20.8430 F   0  0  0  0  0  0  0  0  0  0  0  0
  1  2  1  0  0  0  0
  1  5  2  0  0  0  0
  2  6  2  0  0  0  0
  3  8  2  0  0  0  0
  3 17  1  0  0  0  0
  4  9  1  0  0  0  0
  4 17  2  0  0  0  0
  5 19  1  0  0  0  0
  6 21  1  0  0  0  0
  7 10  2  0  0  0  0
  7 20  1  0  0  0  0
  8 23  1  0  0  0  0
  9 23  2  0  0  0  0
 10 24  1  0  0  0  0
 11 12  2  0  0  0  0
 11 25  1  0  0  0  0
 12 26  1  0  0  0  0
 13 22  1  0  0  0  0
 13 24  2  0  0  0  0
 14 26  2  0  0  0  0
 14 27  1  0  0  0  0
 15 29  2  0  0  0  0
 15 70  1  0  0  0  0
 16 68  2  0  0  0  0
 16 70  1  0  0  0  0
 17 28  1  0  0  0  0
 18 28  1  0  0  0  0
 18 30  2  0  0  0  0
 18 31  1  0  0  0  0
 19 21  2  0  0  0  0
 19 36  1  0  0  0  0
 20 22  2  0  0  0  0
 20 37  1  0  0  0  0
 21 45  1  0  0  0  0
 22 38  1  0  0  0  0
 23 85  1  0  0  0  0
 24 86  1  0  0  0  0
 25 27  2  0  0  0  0
 25 85  1  0  0  0  0
 26 87  1  0  0  0  0
 27 88  1  0  0  0  0
 28 69  2  0  0  0  0
 29 56  1  0  0  0  0
 29 68  1  0  0  0  0
 30 71  1  0  0  0  0
 30 74  1  0  0  0  0
 31 75  1  0  0  0  0
 31 80  2  0  0  0  0
 32 46  1  0  0  0  0
 32 76  1  0  0  0  0
 32 81  2  0  0  0  0
 33 59  1  0  0  0  0
 33 72  1  0  0  0  0
 33 82  2  0  0  0  0
 34 60  1  0  0  0  0
 34 77  1  0  0  0  0
 34 83  2  0  0  0  0
 35 73  1  0  0  0  0
 35 78  1  0  0  0  0
 35 84  2  0  0  0  0
 36 39  1  0  0  0  0
 37 46  1  0  0  0  0
 38 72  1  0  0  0  0
 39 41  1  0  0  0  0
 40 42  1  0  0  0  0
 40 43  1  0  0  0  0
 41 45  1  0  0  0  0
 42 47  1  0  0  0  0
 43 73  1  0  0  0  0
 44 47  1  0  0  0  0
 44 73  1  0  0  0  0
 45 76  1  0  0  0  0
 46 72  1  0  0  0  0
 47 71  1  0  0  0  0
 48 57  1  0  0  0  0
 49 60  1  0  0  0  0
 50 61  1  0  0  0  0
 51 62  1  0  0  0  0
 52 62  1  0  0  0  0
 53 62  1  0  0  0  0
 54 63  1  0  0  0  0
 55 79  1  0  0  0  0
 56 61  1  0  0  0  0
 57 63  1  0  0  0  0
 58 63  1  0  0  0  0
 58 64  1  0  0  0  0
 59 62  1  0  0  0  0
 59 77  1  0  0  0  0
 60 79  1  0  0  0  0
 61 78  1  0  0  0  0
 63 70  1  0  0  0  0
 64 65  1  0  0  0  0
 64 67  1  0  0  0  0
 64 89  1  0  0  0  0
 65 66  1  0  0  0  0
 65 90  1  0  0  0  0
 65 91  1  0  0  0  0
 66 86  1  0  0  0  0
 66 92  1  0  0  0  0
 66 93  1  0  0  0  0
 67 94  1  0  0  0  0
 67 95  1  0  0  0  0
 67 96  1  0  0  0  0
 69 71  1  0  0  0  0
M  CHG  1  79   1
M  ISO  4  35 100  66 101  78 100  86 101
M  END
> <Batch ID>
0066

> <Smiles>
CCC(C)(CC(F)(C(F)(F)F)C(F)(F)[101C:1](F)(F)[101O:1]c1ccc2c(c1)CN(C(=O)C(NC(=O)C(C)NC)C(C)(C)C)C(C(=O)NC1CCCc3ccccc31)C2)n1cnc(CC(C)[100NH:0][100C:0](=O)N2CCCC(n3nc(-c4ccc(Oc5ccc(F)cc5F)cc4)c(C(N)=O)c3N)C2)c1

> <Shape>
0.240

> <Color>
0.058

> <Negative vol penalty>
0.000

$$$$

  -OEChem-04052318093D

 90 98  0     1  0  0  0  0  0999 V2000
  -21.7015  -11.5188   19.2451 C   0  0  0  0  0  0  0  0  0  0  0  0
  -21.4585  -12.7951   19.7426 C   0  0  0  0  0  0  0  0  0  0  0  0
  -31.2320  -25.6616   18.8462 C   0  0  0  0  0  0  0  0  0  0  0  0
  -31.6917  -27.2837   20.5767 C   0  0  0  0  0  0  0  0  0  0  0  0
  -22.9689  -10.9519   19.3725 C   0  0  0  0  0  0  0  0  0  0  0  0
  -22.4825  -13.5047   20.3688 C   0  0  0  0  0  0  0  0  0  0  0  0
  -23.4023  -19.5572   20.2033 C   0  0  0  0  0  0  0  0  0  0  0  0
  -22.7877  -25.2972   22.5624 C   0  0  0  0  0  0  0  0  0  0  0  0
  -32.5315  -25.8100   18.3618 C   0  0  0  0  0  0  0  0  0  0  0  0
  -32.9913  -27.4322   20.0923 C   0  0  0  0  0  0  0  0  0  0  0  0
  -23.0834  -20.5792   21.0963 C   0  0  0  0  0  0  0  0  0  0  0  0
  -34.5338  -29.0410   17.5500 C   0  0  0  0  0  0  0  0  0  0  0  0
  -35.0329  -30.3370   17.4202 C   0  0  0  0  0  0  0  0  0  0  0  0
  -22.1850  -26.2249   21.7202 C   0  0  0  0  0  0  0  0  0  0  0  0
  -25.3048  -20.4503   22.0278 C   0  0  0  0  0  0  0  0  0  0  0  0
  -36.8162  -29.8045   18.9608 C   0  0  0  0  0  0  0  0  0  0  0  0
  -21.2098  -25.8769   24.2448 C   0  0  0  0  0  0  0  0  0  0  0  0
  -30.8120  -26.3985   19.9537 C   0  0  0  0  0  0  0  0  0  0  0  0
  -29.0242  -25.3328   21.4288 C   0  0  0  0  0  0  0  0  0  0  0  0
  -24.0115  -11.6588   19.9921 C   0  0  0  0  0  0  0  0  0  0  0  0
  -24.6736  -18.9656   20.2231 C   0  0  0  0  0  0  0  0  0  0  0  0
  -23.7646  -12.9462   20.5059 C   0  0  0  0  0  0  0  0  0  0  0  0
  -25.6383  -19.4228   21.1322 C   0  0  0  0  0  0  0  0  0  0  0  0
  -22.2969  -25.1138   23.8503 C   0  0  0  0  0  0  0  0  0  0  0  0
  -33.4112  -26.6953   18.9848 C   0  0  0  0  0  0  0  0  0  0  0  0
  -24.0337  -21.0240   22.0107 C   0  0  0  0  0  0  0  0  0  0  0  0
  -35.1758  -28.1268   18.3853 C   0  0  0  0  0  0  0  0  0  0  0  0
  -36.1741  -30.7188   18.1256 C   0  0  0  0  0  0  0  0  0  0  0  0
  -36.3170  -28.5085   19.0907 C   0  0  0  0  0  0  0  0  0  0  0  0
  -29.4695  -26.2460   20.4542 C   0  0  0  0  0  0  0  0  0  0  0  0
  -21.1028  -26.9382   22.2100 C   0  0  0  0  0  0  0  0  0  0  0  0
  -27.6798  -25.5871   21.5487 C   0  0  0  0  0  0  0  0  0  0  0  0
  -29.7601  -24.3433   22.1602 C   0  0  0  0  0  0  0  0  0  0  0  0
  -25.7755  -16.0348   20.7704 C   0  0  0  0  0  0  0  0  0  0  0  0
  -28.6038  -17.3540   19.8855 C   0  0  0  0  0  0  0  0  0  0  0  0
  -23.5835  -29.2171   22.1154 C   0  0  0  0  0  0  0  0  0  0  0  0
  -30.5132  -20.1633   19.5560 C   0  0  0  0  0  0  0  0  0  0  0  0
  -25.3522  -10.9858   20.1486 C   0  0  0  0  0  0  0  0  0  0  0  0
  -25.0106  -17.8825   19.2353 C   0  0  0  0  0  0  0  0  0  0  0  0
  -27.0240  -18.8347   21.1806 C   0  0  0  0  0  0  0  0  0  0  0  0
  -26.4826  -11.9526   20.4918 C   0  0  0  0  0  0  0  0  0  0  0  0
  -24.5850  -28.3987   18.7163 C   0  0  0  0  0  0  0  0  0  0  0  0
  -26.0528  -12.9029   21.6050 C   0  0  0  0  0  0  0  0  0  0  0  0
  -25.9306  -27.7136   18.9507 C   0  0  0  0  0  0  0  0  0  0  0  0
  -24.3507  -29.5313   19.7124 C   0  0  0  0  0  0  0  0  0  0  0  0
  -25.8082  -28.4244   21.3782 C   0  0  0  0  0  0  0  0  0  0  0  0
  -24.8563  -13.7574   21.1695 C   0  0  1  0  0  0  0  0  0  0  0  0
  -26.1695  -17.0001   19.6885 C   0  0  1  0  0  0  0  0  0  0  0  0
  -26.0695  -27.2559   20.4131 C   0  0  2  0  0  0  0  0  0  0  0  0
  -32.7963  -20.9207   18.8411 C   0  0  0  0  0  0  0  0  0  0  0  0
  -20.7768  -29.9984   19.6714 C   0  0  0  0  0  0  0  0  0  0  0  0
  -19.2143  -28.6887   22.0002 C   0  0  0  0  0  0  0  0  0  0  0  0
  -22.6596  -31.3375   21.2715 C   0  0  0  0  0  0  0  0  0  0  0  0
  -21.5301  -30.1064   23.0871 C   0  0  0  0  0  0  0  0  0  0  0  0
  -29.7683  -16.3075   22.5044 C   0  0  0  0  0  0  0  0  0  0  0  0
  -31.7026  -17.8648   22.1858 C   0  0  0  0  0  0  0  0  0  0  0  0
  -31.2711  -16.0578   20.5210 C   0  0  0  0  0  0  0  0  0  0  0  0
  -29.4027  -21.8565   17.3975 C   0  0  0  0  0  0  0  0  0  0  0  0
  -22.9284  -24.1160   24.7880 C   0  0  0  0  0  0  0  0  0  0  0  0
  -22.3182  -22.7156   24.6992 C   0  0  0  0  0  0  0  0  0  0  0  0
  -22.3621  -22.1258   23.2943 C   0  0  0  0  0  0  0  0  0  1  0  0
  -29.7273  -18.0582   20.6072 C   0  0  1  0  0  0  0  0  0  0  0  0
  -31.3599  -20.6765   18.4053 C   0  0  2  0  0  0  0  0  0  0  0  0
  -21.4400  -29.0762   20.7258 C   0  0  2  0  0  0  0  0  0  0  0  0
  -20.4312  -27.9419   21.3334 C   0  0  1  0  0  0  0  0  0  0  0  0
  -22.3011  -29.9246   21.7565 C   0  0  0  0  0  0  0  0  0  0  0  0
  -30.5907  -17.0820   21.4553 C   0  0  0  0  0  0  0  0  0  0  0  0
  -19.7589  -27.1430   20.1538 C   0  0  0  0  0  0  0  0  0  0  0  0
  -20.5979  -26.7877   23.4550 N   0  0  0  0  0  0  0  0  0  0  0  0
  -28.4877  -27.0222   19.9881 N   0  0  0  0  0  0  0  0  0  0  0  0
  -27.4120  -26.5975   20.6726 N   0  0  0  0  0  0  0  0  0  0  0  0
  -27.3032  -17.7738   20.1987 N   0  0  0  0  0  0  0  0  0  0  0  0
  -24.5193  -29.0611   21.0926 N   0  0  0  0  0  0  0  0  0  0  0  0
  -26.7125  -25.0427   22.3170 N   0  0  0  0  0  0  0  0  0  0  0  0
  -31.1339  -24.2151   21.9144 N   0  0  0  0  0  0  0  0  0  0  0  0
  -25.2907  -14.8294   20.2998 N   0  0  0  0  0  0  0  0  0  0  0  0
  -30.4752  -18.7853   19.5873 N   0  0  0  0  0  0  0  0  0  0  0  0
  -30.8032  -21.9564   17.8830 N   0  3  0  0  0  0  0  0  0  0  0  0
  -29.2123  -23.5838   22.9949 O   0  0  0  0  0  0  0  0  0  0  0  0
  -25.9034  -16.3590   21.9453 O   0  0  0  0  0  0  0  0  0  0  0  0
  -28.8706  -16.4691   19.0686 O   0  0  0  0  0  0  0  0  0  0  0  0
  -23.7456  -28.8137   23.2700 O   0  0  0  0  0  0  0  0  0  0  0  0
  -29.9455  -20.9101   20.3500 O   0  0  0  0  0  0  0  0  0  0  0  0
  -34.6795  -26.8402   18.5125 O   0  0  0  0  0  0  0  0  0  0  0  0
  -23.7248  -22.0209   22.8839 O   0  0  0  0  0  0  0  0  0  1  0  0
  -36.6542  -31.9629   17.9996 F   0  0  0  0  0  0  0  0  0  0  0  0
  -36.9388  -27.6342   19.8937 F   0  0  0  0  0  0  0  0  0  0  0  0
  -18.8537  -26.2625   20.6473 F   0  0  0  0  0  0  0  0  0  0  0  0
  -20.6703  -26.4321   19.4538 F   0  0  0  0  0  0  0  0  0  0  0  0
  -19.0888  -27.9184   19.2700 F   0  0  0  0  0  0  0  0  0  0  0  0
  1  2  1  0  0  0  0
  1  5  2  0  0  0  0
  2  6  2  0  0  0  0
  3  9  2  0  0  0  0
  3 18  1  0  0  0  0
  4 10  1  0  0  0  0
  4 18  2  0  0  0  0
  5 20  1  0  0  0  0
  6 22  1  0  0  0  0
  7 11  2  0  0  0  0
  7 21  1  0  0  0  0
  8 14  2  0  0  0  0
  8 24  1  0  0  0  0
  9 25  1  0  0  0  0
 10 25  2  0  0  0  0
 11 26  1  0  0  0  0
 12 13  2  0  0  0  0
 12 27  1  0  0  0  0
 13 28  1  0  0  0  0
 14 31  1  0  0  0  0
 15 23  1  0  0  0  0
 15 26  2  0  0  0  0
 16 28  2  0  0  0  0
 16 29  1  0  0  0  0
 17 24  2  0  0  0  0
 17 69  1  0  0  0  0
 18 30  1  0  0  0  0
 19 30  1  0  0  0  0
 19 32  2  0  0  0  0
 19 33  1  0  0  0  0
 20 22  2  0  0  0  0
 20 38  1  0  0  0  0
 21 23  2  0  0  0  0
 21 39  1  0  0  0  0
 22 47  1  0  0  0  0
 23 40  1  0  0  0  0
 24 59  1  0  0  0  0
 25 84  1  0  0  0  0
 26 85  1  0  0  0  0
 27 29  2  0  0  0  0
 27 84  1  0  0  0  0
 28 86  1  0  0  0  0
 29 87  1  0  0  0  0
 30 70  2  0  0  0  0
 31 65  1  0  0  0  0
 31 69  2  0  0  0  0
 32 71  1  0  0  0  0
 32 74  1  0  0  0  0
 33 75  1  0  0  0  0
 33 79  2  0  0  0  0
 34 48  1  0  0  0  0
 34 76  1  0  0  0  0
 34 80  2  0  0  0  0
 35 62  1  0  0  0  0
 35 72  1  0  0  0  0
 35 81  2  0  0  0  0
 36 66  1  0  0  0  0
 36 73  1  0  0  0  0
 36 82  2  0  0  0  0
 37 63  1  0  0  0  0
 37 77  1  0  0  0  0
 37 83  2  0  0  0  0
 38 41  1  0  0  0  0
 39 48  1  0  0  0  0
 40 72  1  0  0  0  0
 41 43  1  0  0  0  0
 42 44  1  0  0  0  0
 42 45  1  0  0  0  0
 43 47  1  0  0  0  0
 44 49  1  0  0  0  0
 45 73  1  0  0  0  0
 46 49  1  0  0  0  0
 46 73  1  0  0  0  0
 47 76  1  0  0  0  0
 48 72  1  0  0  0  0
 49 71  1  0  0  0  0
 50 63  1  0  0  0  0
 51 64  1  0  0  0  0
 52 65  1  0  0  0  0
 53 66  1  0  0  0  0
 54 66  1  0  0  0  0
 55 67  1  0  0  0  0
 56 67  1  0  0  0  0
 57 67  1  0  0  0  0
 58 78  1  0  0  0  0
 59 60  1  0  0  0  0
 60 61  1  0  0  0  0
 61 85  1  0  0  0  0
 62 67  1  0  0  0  0
 62 77  1  0  0  0  0
 63 78  1  0  0  0  0
 64 65  1  0  0  0  0
 64 66  1  0  0  0  0
 65 68  1  0  0  0  0
 68 88  1  0  0  0  0
 68 89  1  0  0  0  0
 68 90  1  0  0  0  0
 70 71  1  0  0  0  0
M  CHG  1  78   1
M  ISO  4  36 100  61 101  66 100  85 101
M  END
> <Batch ID>
0066

> <Smiles>
CNC(C)C(=O)NC(C(=O)N1Cc2cc([101O:1][101CH2:1]CCc3ccc(C(C)(C(C)[100C:0](C)(C)[100C:0](=O)N4CCCC(n5nc(-c6ccc(Oc7ccc(F)cc7F)cc6)c(C(N)=O)c5N)C4)C(F)(F)F)nc3)ccc2CC1C(=O)NC1CCCc2ccccc21)C(C)(C)C

> <Shape>
0.236

> <Color>
0.087

> <Negative vol penalty>
0.000

$$$$

  -OEChem-04052318092D

  0  0  0     0  0  0  0  0  0999 V2000
M  END
$$$$

  -OEChem-04052318093D

100108  0     1  0  0  0  0  0999 V2000
  -22.1572  -12.7151   23.2631 C   0  0  0  0  0  0  0  0  0  0  0  0
  -22.8010  -13.9141   23.5517 C   0  0  0  0  0  0  0  0  0  0  0  0
  -28.1587  -18.3372   18.7515 C   0  0  0  0  0  0  0  0  0  0  0  0
  -29.8255  -17.5174   20.2964 C   0  0  0  0  0  0  0  0  0  0  0  0
  -21.7182  -12.4556   21.9655 C   0  0  0  0  0  0  0  0  0  0  0  0
  -23.0071  -14.8540   22.5425 C   0  0  0  0  0  0  0  0  0  0  0  0
  -22.9185  -20.9507   23.1156 C   0  0  0  0  0  0  0  0  0  0  0  0
  -28.1400  -17.0969   18.1135 C   0  0  0  0  0  0  0  0  0  0  0  0
  -29.8068  -16.2771   19.6585 C   0  0  0  0  0  0  0  0  0  0  0  0
  -23.9352  -21.8948   23.2531 C   0  0  0  0  0  0  0  0  0  0  0  0
  -29.9345  -12.7829   18.6621 C   0  0  0  0  0  0  0  0  0  0  0  0
  -29.8974  -11.6415   19.4629 C   0  0  0  0  0  0  0  0  0  0  0  0
  -23.8730  -22.2993   20.8758 C   0  0  0  0  0  0  0  0  0  0  0  0
  -27.8070  -12.3820   20.4217 C   0  0  0  0  0  0  0  0  0  0  0  0
  -28.3220  -26.2154   17.6116 C   0  0  0  0  0  0  0  0  0  0  0  0
  -29.0016  -18.5474   19.8429 C   0  0  0  0  0  0  0  0  0  0  0  0
  -28.2214  -20.2405   21.5843 C   0  0  0  0  0  0  0  0  0  0  0  0
  -21.9103  -13.3969   20.9419 C   0  0  0  0  0  0  0  0  0  0  0  0
  -22.3781  -20.6655   21.8534 C   0  0  0  0  0  0  0  0  0  0  0  0
  -22.5714  -14.6064   21.2296 C   0  0  0  0  0  0  0  0  0  0  0  0
  -22.8478  -21.3531   20.7253 C   0  0  0  0  0  0  0  0  0  0  0  0
  -28.9640  -16.0668   18.5671 C   0  0  0  0  0  0  0  0  0  0  0  0
  -24.4146  -22.5671   22.1328 C   0  0  0  0  0  0  0  0  0  0  0  0
  -28.9079  -13.7240   18.7412 C   0  0  0  0  0  0  0  0  0  0  0  0
  -28.8336  -11.4410   20.3426 C   0  0  0  0  0  0  0  0  0  0  0  0
  -27.8442  -13.5235   19.6209 C   0  0  0  0  0  0  0  0  0  0  0  0
  -29.0218  -19.8286   20.5020 C   0  0  0  0  0  0  0  0  0  0  0  0
  -28.9232  -26.3729   18.8411 C   0  0  0  0  0  0  0  0  0  0  0  0
  -26.2771  -26.5947   18.5631 C   0  0  0  0  0  0  0  0  0  0  0  0
  -26.8783  -26.7524   19.7925 C   0  0  0  0  0  0  0  0  0  0  0  0
  -28.6225  -21.5296   21.8369 C   0  0  0  0  0  0  0  0  0  0  0  0
  -27.2062  -19.5220   22.2977 C   0  0  0  0  0  0  0  0  0  0  0  0
  -30.3780  -26.2539   19.0028 C   0  0  0  0  0  0  0  0  0  0  0  0
  -22.2185  -18.0779   20.0143 C   0  0  0  0  0  0  0  0  0  0  0  0
  -20.3594  -19.9853   18.1629 C   0  0  0  0  0  0  0  0  0  0  0  0
  -19.4864  -23.1472   17.2209 C   0  0  0  0  0  0  0  0  0  0  0  0
  -21.4604  -13.0517   19.5444 C   0  0  0  0  0  0  0  0  0  0  0  0
  -21.2634  -19.6638   21.7256 C   0  0  0  0  0  0  0  0  0  0  0  0
  -22.2871  -21.0980   19.3508 C   0  0  0  0  0  0  0  0  0  0  0  0
  -21.3839  -14.2591   18.6135 C   0  0  0  0  0  0  0  0  0  0  0  0
  -32.6589  -24.1980   20.8229 C   0  0  0  0  0  0  0  0  0  0  0  0
  -22.6409  -15.1135   18.7429 C   0  0  0  0  0  0  0  0  0  0  0  0
  -31.8866  -22.8918   21.0159 C   0  0  0  0  0  0  0  0  0  0  0  0
  -32.3508  -24.8407   19.4729 C   0  0  0  0  0  0  0  0  0  0  0  0
  -30.1358  -23.7482   19.4029 C   0  0  0  0  0  0  0  0  0  0  0  0
  -22.7913  -15.6614   20.1673 C   0  0  1  0  0  0  0  0  0  0  0  0
  -21.1423  -19.0805   20.3211 C   0  0  1  0  0  0  0  0  0  0  0  0
  -30.3791  -23.0940   20.7729 C   0  0  1  0  0  0  0  0  0  0  0  0
  -22.8147  -26.2865   16.8832 C   0  0  0  0  0  0  0  0  0  0  0  0
  -17.9630  -24.3876   15.6596 C   0  0  0  0  0  0  0  0  0  0  0  0
  -22.1975  -19.2973   15.8267 C   0  0  0  0  0  0  0  0  0  0  0  0
  -21.2343  -21.2465   14.5854 C   0  0  0  0  0  0  0  0  0  0  0  0
  -19.7626  -19.3481   15.2584 C   0  0  0  0  0  0  0  0  0  0  0  0
  -26.9779  -29.4529   20.6859 C   0  0  0  0  0  0  0  0  0  0  0  0
  -27.6930  -28.2164   22.6963 C   0  0  0  0  0  0  0  0  0  0  0  0
  -23.9094  -29.8823   20.5099 C   0  0  0  0  0  0  0  0  0  0  0  0
  -22.8774  -28.1694   22.0438 C   0  0  0  0  0  0  0  0  0  0  0  0
  -18.0924  -24.4883   19.4608 C   0  0  0  0  0  0  0  0  0  0  0  0
  -24.8006  -26.7170   18.3990 C   0  0  0  0  0  0  0  0  0  0  0  0
  -24.3247  -26.1928   17.0352 C   0  0  0  0  0  0  0  0  0  0  0  0
  -25.4183  -24.5671   21.3274 C   0  0  0  0  0  0  0  0  0  1  0  0
  -20.6117  -20.9449   17.0251 C   0  0  1  0  0  0  0  0  0  0  0  0
  -18.1313  -23.8113   17.0568 C   0  0  2  0  0  0  0  0  0  0  0  0
  -25.2435  -29.0965   22.6688 C   0  0  2  0  0  0  0  0  0  0  0  0
  -26.0551  -27.0626   21.0542 C   0  0  2  0  0  0  0  0  0  0  0  0
  -20.9636  -20.2128   15.6994 C   0  0  0  0  0  0  0  0  0  0  0  0
  -26.4701  -28.4787   21.7691 C   0  0  0  0  0  0  0  0  0  0  0  0
  -23.8083  -29.4096   21.9722 C   0  0  0  0  0  0  0  0  0  0  0  0
  -26.0335  -25.8040   21.9768 C   0  0  0  0  0  0  0  0  0  0  0  0
  -25.7162  -30.2821   23.5547 C   0  0  0  0  0  0  0  0  0  0  0  0
  -23.0279  -30.5263   22.7237 C   0  0  0  0  0  0  0  0  0  0  0  0
  -26.9881  -26.3233   17.4505 N   0  0  0  0  0  0  0  0  0  0  0  0
  -29.8673  -20.7790   20.0949 N   0  0  0  0  0  0  0  0  0  0  0  0
  -28.2121  -26.6444   19.9536 N   0  0  0  0  0  0  0  0  0  0  0  0
  -29.6004  -21.8010   20.9258 N   0  0  0  0  0  0  0  0  0  0  0  0
  -30.9080  -24.9936   19.2899 N   0  0  0  0  0  0  0  0  0  0  0  0
  -21.2028  -20.1049   19.2765 N   0  0  0  0  0  0  0  0  0  0  0  0
  -28.2305  -22.4461   22.7473 N   0  0  0  0  0  0  0  0  0  0  0  0
  -26.9195  -18.2067   21.9079 N   0  0  0  0  0  0  0  0  0  0  0  0
  -21.8998  -16.7824   20.3743 N   0  0  0  0  0  0  0  0  0  0  0  0
  -19.4312  -21.7981   16.9414 N   0  0  0  0  0  0  0  0  0  0  0  0
  -17.9736  -24.9171   18.0434 N   0  3  0  0  0  0  0  0  0  0  0  0
  -26.5606  -20.0371   23.2419 O   0  0  0  0  0  0  0  0  0  0  0  0
  -31.0251  -27.2931   18.8825 O   0  0  0  0  0  0  0  0  0  0  0  0
  -23.2604  -18.4516   19.4884 O   0  0  0  0  0  0  0  0  0  0  0  0
  -19.4431  -19.1647   18.0700 O   0  0  0  0  0  0  0  0  0  0  0  0
  -20.4941  -23.7642   17.5593 O   0  0  0  0  0  0  0  0  0  0  0  0
  -28.9458  -14.8564   17.9449 O   0  0  0  0  0  0  0  0  0  0  0  0
  -25.4133  -23.4942   22.2650 O   0  0  0  0  0  0  0  0  0  1  0  0
  -28.7974  -10.3440   21.1104 F   0  0  0  0  0  0  0  0  0  0  0  0
  -26.8545  -14.4235   19.7004 F   0  0  0  0  0  0  0  0  0  0  0  0
  -24.7241  -27.2000   20.7082 F   0  0  0  0  0  0  0  0  0  0  0  0
  -25.3016  -26.0752   23.0912 F   0  0  0  0  0  0  0  0  0  0  0  0
  -27.2776  -25.4794   22.4081 F   0  0  0  0  0  0  0  0  0  0  0  0
  -26.7841  -29.9382   24.3118 F   0  0  0  0  0  0  0  0  0  0  0  0
  -24.7439  -30.7102   24.3874 F   0  0  0  0  0  0  0  0  0  0  0  0
  -26.1250  -31.3502   22.8447 F   0  0  0  0  0  0  0  0  0  0  0  0
  -21.7904  -30.7078   22.1997 F   0  0  0  0  0  0  0  0  0  0  0  0
  -22.8632  -30.2192   24.0298 F   0  0  0  0  0  0  0  0  0  0  0  0
  -23.6413  -31.7276   22.6473 F   0  0  0  0  0  0  0  0  0  0  0  0
  1  2  1  0  0  0  0
  1  5  2  0  0  0  0
  2  6  2  0  0  0  0
  3  8  2  0  0  0  0
  3 16  1  0  0  0  0
  4  9  1  0  0  0  0
  4 16  2  0  0  0  0
  5 18  1  0  0  0  0
  6 20  1  0  0  0  0
  7 10  2  0  0  0  0
  7 19  1  0  0  0  0
  8 22  1  0  0  0  0
  9 22  2  0  0  0  0
 10 23  1  0  0  0  0
 11 12  2  0  0  0  0
 11 24  1  0  0  0  0
 12 25  1  0  0  0  0
 13 21  1  0  0  0  0
 13 23  2  0  0  0  0
 14 25  2  0  0  0  0
 14 26  1  0  0  0  0
 15 28  1  0  0  0  0
 15 72  2  0  0  0  0
 16 27  1  0  0  0  0
 17 27  1  0  0  0  0
 17 31  2  0  0  0  0
 17 32  1  0  0  0  0
 18 20  2  0  0  0  0
 18 37  1  0  0  0  0
 19 21  2  0  0  0  0
 19 38  1  0  0  0  0
 20 46  1  0  0  0  0
 21 39  1  0  0  0  0
 22 88  1  0  0  0  0
 23 89  1  0  0  0  0
 24 26  2  0  0  0  0
 24 88  1  0  0  0  0
 25 90  1  0  0  0  0
 26 91  1  0  0  0  0
 27 73  2  0  0  0  0
 28 33  1  0  0  0  0
 28 74  2  0  0  0  0
 29 30  2  0  0  0  0
 29 59  1  0  0  0  0
 29 72  1  0  0  0  0
 30 65  1  0  0  0  0
 30 74  1  0  0  0  0
 31 75  1  0  0  0  0
 31 78  1  0  0  0  0
 32 79  1  0  0  0  0
 32 83  2  0  0  0  0
 33 76  1  0  0  0  0
 33 84  2  0  0  0  0
 34 47  1  0  0  0  0
 34 80  1  0  0  0  0
 34 85  2  0  0  0  0
 35 62  1  0  0  0  0
 35 77  1  0  0  0  0
 35 86  2  0  0  0  0
 36 63  1  0  0  0  0
 36 81  1  0  0  0  0
 36 87  2  0  0  0  0
 37 40  1  0  0  0  0
 38 47  1  0  0  0  0
 39 77  1  0  0  0  0
 40 42  1  0  0  0  0
 41 43  1  0  0  0  0
 41 44  1  0  0  0  0
 42 46  1  0  0  0  0
 43 48  1  0  0  0  0
 44 76  1  0  0  0  0
 45 48  1  0  0  0  0
 45 76  1  0  0  0  0
 46 80  1  0  0  0  0
 47 77  1  0  0  0  0
 48 75  1  0  0  0  0
 49 60  1  0  0  0  0
 50 63  1  0  0  0  0
 51 66  1  0  0  0  0
 52 66  1  0  0  0  0
 53 66  1  0  0  0  0
 54 67  1  0  0  0  0
 55 67  1  0  0  0  0
 56 68  1  0  0  0  0
 57 68  1  0  0  0  0
 58 82  1  0  0  0  0
 59 60  1  0  0  0  0
 61 69  1  0  0  0  0
 61 89  1  0  0  0  0
 62 66  1  0  0  0  0
 62 81  1  0  0  0  0
 63 82  1  0  0  0  0
 64 67  1  0  0  0  0
 64 68  1  0  0  0  0
 64 70  1  0  0  0  0
 65 67  1  0  0  0  0
 65 69  1  0  0  0  0
 65 92  1  0  0  0  0
 68 71  1  0  0  0  0
 69 93  1  0  0  0  0
 69 94  1  0  0  0  0
 70 95  1  0  0  0  0
 70 96  1  0  0  0  0
 70 97  1  0  0  0  0
 71 98  1  0  0  0  0
 71 99  1  0  0  0  0
 71100  1  0  0  0  0
 73 75  1  0  0  0  0
M  CHG  1  82   1
M  ISO  4  28 100  33 100  61 101  89 101
M  END
> <Batch ID>
0066

> <Smiles>
CCCc1nc[100c:0]([100C:0](=O)N2CCCC(n3nc(-c4ccc(Oc5ccc(F)cc5F)cc4)c(C(N)=O)c3N)C2)nc1C(F)(C(C)(C)C(C(F)(F)F)C(C)(C)C(F)(F)F)C(F)(F)[101CH2:1][101O:1]c1ccc2c(c1)CN(C(=O)C(NC(=O)C(C)NC)C(C)(C)C)C(C(=O)NC1CCCc3ccccc31)C2

> <Shape>
0.235

> <Color>
0.046

> <Negative vol penalty>
0.000

$$$$

  -OEChem-04052318093D

 92100  0     1  0  0  0  0  0999 V2000
  -25.9750  -30.4628   20.6556 C   0  0  0  0  0  0  0  0  0  0  0  0
  -25.7202  -29.2738   21.3314 C   0  0  0  0  0  0  0  0  0  0  0  0
  -23.6979   -9.8309   21.5782 C   0  0  0  0  0  0  0  0  0  0  0  0
  -24.5794  -10.9008   23.5569 C   0  0  0  0  0  0  0  0  0  0  0  0
  -25.0044  -31.4629   20.6166 C   0  0  0  0  0  0  0  0  0  0  0  0
  -24.4949  -29.0846   21.9695 C   0  0  0  0  0  0  0  0  0  0  0  0
  -22.5330  -24.4999   21.0881 C   0  0  0  0  0  0  0  0  0  0  0  0
  -23.2133   -8.7829   22.3607 C   0  0  0  0  0  0  0  0  0  0  0  0
  -24.0947   -9.8528   24.3395 C   0  0  0  0  0  0  0  0  0  0  0  0
  -23.0647  -23.4307   21.8078 C   0  0  0  0  0  0  0  0  0  0  0  0
  -20.5744   -8.2068   24.3948 C   0  0  0  0  0  0  0  0  0  0  0  0
  -19.2754   -7.7617   24.1496 C   0  0  0  0  0  0  0  0  0  0  0  0
  -21.1944  -23.5319   23.3280 C   0  0  0  0  0  0  0  0  0  0  0  0
  -20.1267   -5.5596   23.6366 C   0  0  0  0  0  0  0  0  0  0  0  0
  -24.3810  -10.8899   22.1763 C   0  0  0  0  0  0  0  0  0  0  0  0
  -24.2091  -13.1605   21.0263 C   0  0  0  0  0  0  0  0  0  0  0  0
  -23.7629  -31.2820   21.2463 C   0  0  0  0  0  0  0  0  0  0  0  0
  -21.3316  -25.1011   21.4900 C   0  0  0  0  0  0  0  0  0  0  0  0
  -23.5072  -30.0837   21.9400 C   0  0  0  0  0  0  0  0  0  0  0  0
  -20.6483  -24.6068   22.6102 C   0  0  0  0  0  0  0  0  0  0  0  0
  -23.4116   -8.7938   23.7413 C   0  0  0  0  0  0  0  0  0  0  0  0
  -22.3968  -22.9484   22.9297 C   0  0  0  0  0  0  0  0  0  0  0  0
  -21.6496   -7.3283   24.2608 C   0  0  0  0  0  0  0  0  0  0  0  0
  -19.0516   -6.4382   23.7706 C   0  0  0  0  0  0  0  0  0  0  0  0
  -21.4258   -6.0047   23.8817 C   0  0  0  0  0  0  0  0  0  0  0  0
  -24.8824  -11.9725   21.3684 C   0  0  0  0  0  0  0  0  0  0  0  0
  -25.1074  -13.8537   20.2523 C   0  0  0  0  0  0  0  0  0  0  0  0
  -29.2681  -17.7727   21.0632 C   0  0  0  0  0  0  0  0  0  0  0  0
  -22.8895  -13.5983   21.3768 C   0  0  0  0  0  0  0  0  0  0  0  0
  -20.4934  -28.0100   22.4594 C   0  0  0  0  0  0  0  0  0  0  0  0
  -17.5011  -26.7634   22.3398 C   0  0  0  0  0  0  0  0  0  0  0  0
  -15.5115  -23.9919   22.4266 C   0  0  0  0  0  0  0  0  0  0  0  0
  -30.9913  -14.5319   20.2017 C   0  0  0  0  0  0  0  0  0  0  0  0
  -22.7627  -32.4105   21.2169 C   0  0  0  0  0  0  0  0  0  0  0  0
  -20.7576  -26.2363   20.6873 C   0  0  0  0  0  0  0  0  0  0  0  0
  -19.3448  -25.2042   23.0713 C   0  0  0  0  0  0  0  0  0  0  0  0
  -21.3489  -31.9815   21.6009 C   0  0  0  0  0  0  0  0  0  0  0  0
  -29.1089  -12.6639   17.6193 C   0  0  0  0  0  0  0  0  0  0  0  0
  -21.3762  -31.1157   22.8565 C   0  0  0  0  0  0  0  0  0  0  0  0
  -27.7932  -12.3486   18.3290 C   0  0  0  0  0  0  0  0  0  0  0  0
  -30.2669  -12.7959   18.6038 C   0  0  0  0  0  0  0  0  0  0  0  0
  -28.7073  -13.4660   20.4018 C   0  0  0  0  0  0  0  0  0  0  0  0
  -22.1808  -29.8312   22.6234 C   0  0  1  0  0  0  0  0  0  0  0  0
  -19.7914  -27.1049   21.4870 C   0  0  1  0  0  0  0  0  0  0  0  0
  -27.5114  -13.3725   19.4423 C   0  0  2  0  0  0  0  0  0  0  0  0
  -13.1028  -23.2928   22.3439 C   0  0  0  0  0  0  0  0  0  0  0  0
  -28.3039  -15.3904   20.9146 C   0  0  0  0  0  0  0  0  0  0  0  0
  -17.1369  -27.6851   25.2256 C   0  0  0  0  0  0  0  0  0  0  0  0
  -15.1553  -26.1636   25.3881 C   0  0  0  0  0  0  0  0  0  0  0  0
  -15.1471  -28.0494   23.7552 C   0  0  0  0  0  0  0  0  0  0  0  0
  -26.9534  -20.3066   26.2691 C   0  0  0  0  0  0  0  0  0  0  0  0
  -27.0747  -22.4145   24.9514 C   0  0  0  0  0  0  0  0  0  0  0  0
  -24.2048  -19.6573   24.9930 C   0  0  0  0  0  0  0  0  0  0  0  0
  -24.2727  -21.8527   26.1492 C   0  0  0  0  0  0  0  0  0  0  0  0
  -31.6851  -16.6618   21.2320 C   0  0  0  0  0  0  0  0  0  0  0  0
  -15.9373  -22.4014   19.9674 C   0  0  0  0  0  0  0  0  0  0  0  0
  -27.0029  -20.2008   23.7316 C   0  0  0  0  0  0  0  0  0  0  0  0
  -28.5307  -20.0551   23.6232 C   0  0  0  0  0  0  0  0  0  0  0  0
  -24.3365  -21.7700   23.6402 C   0  0  0  0  0  0  0  0  0  1  0  0
  -16.6074  -26.0334   23.3132 C   0  0  1  0  0  0  0  0  0  0  0  0
  -14.3661  -23.5460   21.5358 C   0  0  2  0  0  0  0  0  0  0  0  0
  -29.3594  -16.4513   20.4369 C   0  0  1  0  0  0  0  0  0  0  0  0
  -16.0372  -26.9727   24.4132 C   0  0  0  0  0  0  0  0  0  0  0  0
  -26.4564  -20.9928   24.9719 C   0  0  0  0  0  0  0  0  0  0  0  0
  -24.8440  -21.0701   24.9361 C   0  0  0  0  0  0  0  0  0  0  0  0
  -29.2032  -16.5388   18.8866 C   0  0  0  0  0  0  0  0  0  0  0  0
  -26.1135  -11.9111   20.8538 N   0  0  0  0  0  0  0  0  0  0  0  0
  -29.6335  -18.9228   20.4290 N   0  0  0  0  0  0  0  0  0  0  0  0
  -28.8098  -17.9564   22.3040 N   0  0  0  0  0  0  0  0  0  0  0  0
  -29.4047  -19.9048   21.2922 N   0  0  0  0  0  0  0  0  0  0  0  0
  -26.2207  -13.0691   20.1804 N   0  0  0  0  0  0  0  0  0  0  0  0
  -28.9215  -19.2900   22.3807 N   0  0  0  0  0  0  0  0  0  0  0  0
  -18.8274  -26.3163   22.2571 N   0  0  0  0  0  0  0  0  0  0  0  0
  -29.9556  -13.7427   19.6752 N   0  0  0  0  0  0  0  0  0  0  0  0
  -25.0456  -15.0516   19.6330 N   0  0  0  0  0  0  0  0  0  0  0  0
  -22.0997  -12.7635   22.1791 N   0  0  0  0  0  0  0  0  0  0  0  0
  -21.3979  -28.8738   21.8718 N   0  0  0  0  0  0  0  0  0  0  0  0
  -15.5884  -25.3661   22.5102 N   0  0  0  0  0  0  0  0  0  0  0  0
  -30.6443  -15.8018   20.6870 N   0  0  0  0  0  0  0  0  0  0  0  0
  -14.7257  -22.2894   20.8198 N   0  3  0  0  0  0  0  0  0  0  0  0
  -22.4186  -14.6899   20.9765 O   0  0  0  0  0  0  0  0  0  0  0  0
  -20.2326  -27.9316   23.6542 O   0  0  0  0  0  0  0  0  0  0  0  0
  -17.0375  -27.6913   21.6722 O   0  0  0  0  0  0  0  0  0  0  0  0
  -16.2607  -23.2004   22.9947 O   0  0  0  0  0  0  0  0  0  0  0  0
  -32.1611  -14.1284   20.2273 O   0  0  0  0  0  0  0  0  0  0  0  0
  -22.9386   -7.7715   24.5052 O   0  0  0  0  0  0  0  0  0  0  0  0
  -22.9169  -21.8993   23.6384 O   0  0  0  0  0  0  0  0  0  1  0  0
  -17.8039   -6.0105   23.5367 F   0  0  0  0  0  0  0  0  0  0  0  0
  -22.4546   -5.1558   23.7525 F   0  0  0  0  0  0  0  0  0  0  0  0
  -30.1690  -17.3151   18.3467 F   0  0  0  0  0  0  0  0  0  0  0  0
  -28.0108  -17.0918   18.5668 F   0  0  0  0  0  0  0  0  0  0  0  0
  -29.2656  -15.3369   18.2668 F   0  0  0  0  0  0  0  0  0  0  0  0
  1  2  1  0  0  0  0
  1  5  2  0  0  0  0
  2  6  2  0  0  0  0
  3  8  2  0  0  0  0
  3 15  1  0  0  0  0
  4  9  1  0  0  0  0
  4 15  2  0  0  0  0
  5 17  1  0  0  0  0
  6 19  1  0  0  0  0
  7 10  2  0  0  0  0
  7 18  1  0  0  0  0
  8 21  1  0  0  0  0
  9 21  2  0  0  0  0
 10 22  1  0  0  0  0
 11 12  2  0  0  0  0
 11 23  1  0  0  0  0
 12 24  1  0  0  0  0
 13 20  1  0  0  0  0
 13 22  2  0  0  0  0
 14 24  2  0  0  0  0
 14 25  1  0  0  0  0
 15 26  1  0  0  0  0
 16 26  1  0  0  0  0
 16 27  2  0  0  0  0
 16 29  1  0  0  0  0
 17 19  2  0  0  0  0
 17 34  1  0  0  0  0
 18 20  2  0  0  0  0
 18 35  1  0  0  0  0
 19 43  1  0  0  0  0
 20 36  1  0  0  0  0
 21 86  1  0  0  0  0
 22 87  1  0  0  0  0
 23 25  2  0  0  0  0
 23 86  1  0  0  0  0
 24 88  1  0  0  0  0
 25 89  1  0  0  0  0
 26 67  2  0  0  0  0
 27 71  1  0  0  0  0
 27 75  1  0  0  0  0
 28 62  1  0  0  0  0
 28 68  1  0  0  0  0
 28 69  2  0  0  0  0
 29 76  1  0  0  0  0
 29 81  2  0  0  0  0
 30 44  1  0  0  0  0
 30 77  1  0  0  0  0
 30 82  2  0  0  0  0
 31 60  1  0  0  0  0
 31 73  1  0  0  0  0
 31 83  2  0  0  0  0
 32 61  1  0  0  0  0
 32 78  1  0  0  0  0
 32 84  2  0  0  0  0
 33 74  1  0  0  0  0
 33 79  1  0  0  0  0
 33 85  2  0  0  0  0
 34 37  1  0  0  0  0
 35 44  1  0  0  0  0
 36 73  1  0  0  0  0
 37 39  1  0  0  0  0
 38 40  1  0  0  0  0
 38 41  1  0  0  0  0
 39 43  1  0  0  0  0
 40 45  1  0  0  0  0
 41 74  1  0  0  0  0
 42 45  1  0  0  0  0
 42 74  1  0  0  0  0
 43 77  1  0  0  0  0
 44 73  1  0  0  0  0
 45 71  1  0  0  0  0
 46 61  1  0  0  0  0
 47 62  1  0  0  0  0
 48 63  1  0  0  0  0
 49 63  1  0  0  0  0
 50 63  1  0  0  0  0
 51 64  1  0  0  0  0
 52 64  1  0  0  0  0
 53 65  1  0  0  0  0
 54 65  1  0  0  0  0
 55 79  1  0  0  0  0
 56 80  1  0  0  0  0
 57 58  1  0  0  0  0
 57 64  1  0  0  0  0
 58 72  1  0  0  0  0
 59 65  1  0  0  0  0
 59 87  1  0  0  0  0
 60 63  1  0  0  0  0
 60 78  1  0  0  0  0
 61 80  1  0  0  0  0
 62 66  1  0  0  0  0
 62 79  1  0  0  0  0
 64 65  1  0  0  0  0
 66 90  1  0  0  0  0
 66 91  1  0  0  0  0
 66 92  1  0  0  0  0
 67 71  1  0  0  0  0
 68 70  2  0  0  0  0
 69 72  1  0  0  0  0
 70 72  1  0  0  0  0
M  CHG  1  80   1
M  ISO  4  33 100  59 101  79 100  87 101
M  END
> <Batch ID>
0066

> <Smiles>
CNC(C)C(=O)NC(C(=O)N1Cc2cc([101O:1][101CH2:1]C(C)(C)C(C)(C)CCn3nnc(C(C)([100N:0](C)[100C:0](=O)N4CCCC(n5nc(-c6ccc(Oc7ccc(F)cc7F)cc6)c(C(N)=O)c5N)C4)C(F)(F)F)n3)ccc2CC1C(=O)NC1CCCc2ccccc21)C(C)(C)C

> <Shape>
0.286

> <Color>
0.153

> <Negative vol penalty>
0.000

$$$$

  -OEChem-04052318093D

 87 95  0     1  0  0  0  0  0999 V2000
  -32.3003  -13.9997   21.1621 C   0  0  0  0  0  0  0  0  0  0  0  0
  -31.4974  -15.1302   21.2749 C   0  0  0  0  0  0  0  0  0  0  0  0
  -28.6313  -26.5449   19.6195 C   0  0  0  0  0  0  0  0  0  0  0  0
  -26.6048  -25.3290   19.1177 C   0  0  0  0  0  0  0  0  0  0  0  0
  -31.7730  -12.8214   20.6353 C   0  0  0  0  0  0  0  0  0  0  0  0
  -30.1670  -15.0834   20.8599 C   0  0  0  0  0  0  0  0  0  0  0  0
  -25.4202  -18.0234   23.3758 C   0  0  0  0  0  0  0  0  0  0  0  0
  -29.3904  -25.4493   19.2086 C   0  0  0  0  0  0  0  0  0  0  0  0
  -27.3639  -24.2334   18.7067 C   0  0  0  0  0  0  0  0  0  0  0  0
  -24.7637  -19.2062   23.0384 C   0  0  0  0  0  0  0  0  0  0  0  0
  -28.7609  -20.9855   17.8644 C   0  0  0  0  0  0  0  0  0  0  0  0
  -28.3671  -19.7220   18.3049 C   0  0  0  0  0  0  0  0  0  0  0  0
  -23.1045  -17.9347   21.8344 C   0  0  0  0  0  0  0  0  0  0  0  0
  -28.6658  -20.4278   20.5962 C   0  0  0  0  0  0  0  0  0  0  0  0
  -21.0477  -24.4168   23.8316 C   0  0  0  0  0  0  0  0  0  0  0  0
  -22.1680  -24.3666   25.7287 C   0  0  0  0  0  0  0  0  0  0  0  0
  -27.2384  -26.4848   19.5742 C   0  0  0  0  0  0  0  0  0  0  0  0
  -26.0073  -28.6881   19.2033 C   0  0  0  0  0  0  0  0  0  0  0  0
  -30.4328  -12.7573   20.2226 C   0  0  0  0  0  0  0  0  0  0  0  0
  -24.9289  -16.7861   22.9352 C   0  0  0  0  0  0  0  0  0  0  0  0
  -29.6217  -13.9035   20.3259 C   0  0  0  0  0  0  0  0  0  0  0  0
  -23.7551  -16.7375   22.1698 C   0  0  0  0  0  0  0  0  0  0  0  0
  -28.7568  -24.2935   18.7521 C   0  0  0  0  0  0  0  0  0  0  0  0
  -23.6073  -19.1622   22.2652 C   0  0  0  0  0  0  0  0  0  0  0  0
  -29.1072  -21.9702   18.7897 C   0  0  0  0  0  0  0  0  0  0  0  0
  -28.3195  -19.4432   19.6708 C   0  0  0  0  0  0  0  0  0  0  0  0
  -29.0596  -21.6913   20.1556 C   0  0  0  0  0  0  0  0  0  0  0  0
  -26.4537  -27.6160   19.9991 C   0  0  0  0  0  0  0  0  0  0  0  0
  -22.0962  -23.5294   23.7731 C   0  0  0  0  0  0  0  0  0  0  0  0
  -25.3091  -29.4921   20.0707 C   0  0  0  0  0  0  0  0  0  0  0  0
  -26.2060  -28.9349   17.8050 C   0  0  0  0  0  0  0  0  0  0  0  0
  -26.0474  -14.4609   21.0788 C   0  0  0  0  0  0  0  0  0  0  0  0
  -23.3429  -12.9380   22.0216 C   0  0  0  0  0  0  0  0  0  0  0  0
  -20.1515  -13.1691   23.2083 C   0  0  0  0  0  0  0  0  0  0  0  0
  -22.4674  -28.4222   25.2313 C   0  0  0  0  0  0  0  0  0  0  0  0
  -29.9207  -11.4751   19.6156 C   0  0  0  0  0  0  0  0  0  0  0  0
  -25.6337  -15.5173   23.3302 C   0  0  0  0  0  0  0  0  0  0  0  0
  -23.1754  -15.4333   21.6888 C   0  0  0  0  0  0  0  0  0  0  0  0
  -28.3976  -11.3997   19.5465 C   0  0  0  0  0  0  0  0  0  0  0  0
  -25.1139  -30.7405   24.6853 C   0  0  0  0  0  0  0  0  0  0  0  0
  -27.8231  -12.7016   18.9970 C   0  0  0  0  0  0  0  0  0  0  0  0
  -25.7171  -30.2994   23.3506 C   0  0  0  0  0  0  0  0  0  0  0  0
  -24.6559  -29.5464   25.5198 C   0  0  0  0  0  0  0  0  0  0  0  0
  -24.3420  -28.1809   23.4923 C   0  0  0  0  0  0  0  0  0  0  0  0
  -28.1669  -13.8850   19.9096 C   0  0  1  0  0  0  0  0  0  0  0  0
  -25.3318  -14.3502   22.3953 C   0  0  1  0  0  0  0  0  0  0  0  0
  -24.7675  -29.3531   22.5916 C   0  0  2  0  0  0  0  0  0  0  0  0
  -18.1786  -11.7542   23.8431 C   0  0  0  0  0  0  0  0  0  0  0  0
  -18.5039  -24.1025   26.3858 C   0  0  0  0  0  0  0  0  0  0  0  0
  -17.6538  -26.4078   25.9764 C   0  0  0  0  0  0  0  0  0  0  0  0
  -21.1034  -20.6067   23.4041 C   0  0  0  0  0  0  0  0  0  0  0  0
  -23.9779  -23.0149   22.1980 C   0  0  0  0  0  0  0  0  0  0  0  0
  -21.6746  -22.8503   21.3132 C   0  0  0  0  0  0  0  0  0  0  0  0
  -22.7084  -12.5026   19.0690 C   0  0  0  0  0  0  0  0  0  0  0  0
  -20.3528  -11.9661   19.7261 C   0  0  0  0  0  0  0  0  0  0  0  0
  -22.2289  -10.5376   20.5399 C   0  0  0  0  0  0  0  0  0  0  0  0
  -20.5683  -26.3152   27.1074 C   0  0  0  0  0  0  0  0  0  0  0  0
  -20.2126  -14.1337   26.0056 C   0  0  0  0  0  0  0  0  0  0  0  0
  -20.3257  -27.2466   24.7949 C   0  0  0  0  0  0  0  0  0  0  0  0
  -21.9271  -12.8551   21.5044 C   0  0  1  0  0  0  0  0  0  0  0  0
  -19.4414  -12.4430   24.3366 C   0  0  2  0  0  0  0  0  0  0  0  0
  -18.7285  -25.3869   25.5685 C   0  0  0  0  0  0  0  0  0  0  0  0
  -22.4866  -21.1239   23.0079 C   0  0  2  0  0  0  0  0  0  1  0  0
  -22.5249  -22.6346   22.5919 C   0  0  0  0  0  0  0  0  0  0  0  0
  -21.8160  -11.9902   20.2171 C   0  0  0  0  0  0  0  0  0  0  0  0
  -20.2161  -25.9365   25.6432 C   0  0  2  0  0  0  0  0  0  0  0  0
  -22.7895  -23.5026   24.9573 N   0  0  0  0  0  0  0  0  0  0  0  0
  -26.0713  -27.7261   21.2741 N   0  0  0  0  0  0  0  0  0  0  0  0
  -21.1062  -24.9450   25.0904 N   0  0  0  0  0  0  0  0  0  0  0  0
  -25.3773  -28.8770   21.2861 N   0  0  0  0  0  0  0  0  0  0  0  0
  -23.9043  -14.2206   22.0958 N   0  0  0  0  0  0  0  0  0  0  0  0
  -23.7568  -28.6898   24.7426 N   0  0  0  0  0  0  0  0  0  0  0  0
  -24.6496  -30.6583   19.9048 N   0  0  0  0  0  0  0  0  0  0  0  0
  -26.9478  -28.0069   17.0615 N   0  0  0  0  0  0  0  0  0  0  0  0
  -27.3068  -13.8922   21.0735 N   0  0  0  0  0  0  0  0  0  0  0  0
  -21.1134  -12.3775   22.6172 N   0  0  0  0  0  0  0  0  0  0  0  0
  -21.6777  -27.6067   24.4300 N   0  0  0  0  0  0  0  0  0  0  0  0
  -19.0635  -13.4021   25.4129 N   0  3  0  0  0  0  0  0  0  0  0  0
  -25.7534  -29.9568   17.2353 O   0  0  0  0  0  0  0  0  0  0  0  0
  -25.4972  -15.0195   20.1371 O   0  0  0  0  0  0  0  0  0  0  0  0
  -23.9267  -11.9035   22.3544 O   0  0  0  0  0  0  0  0  0  0  0  0
  -19.8777  -14.3218   22.8815 O   0  0  0  0  0  0  0  0  0  0  0  0
  -22.0489  -28.8807   26.2997 O   0  0  0  0  0  0  0  0  0  0  0  0
  -29.4972  -23.2243   18.3508 O   0  0  0  0  0  0  0  0  0  0  0  0
  -22.9650  -20.3152   21.9339 O   0  0  0  0  0  0  0  0  0  1  0  0
  -27.9398  -18.2303   20.0938 F   0  0  0  0  0  0  0  0  0  0  0  0
  -29.3900  -22.6336   21.0494 F   0  0  0  0  0  0  0  0  0  0  0  0
  1  2  1  0  0  0  0
  1  5  2  0  0  0  0
  2  6  2  0  0  0  0
  3  8  2  0  0  0  0
  3 17  1  0  0  0  0
  4  9  1  0  0  0  0
  4 17  2  0  0  0  0
  5 19  1  0  0  0  0
  6 21  1  0  0  0  0
  7 10  2  0  0  0  0
  7 20  1  0  0  0  0
  8 23  1  0  0  0  0
  9 23  2  0  0  0  0
 10 24  1  0  0  0  0
 11 12  2  0  0  0  0
 11 25  1  0  0  0  0
 12 26  1  0  0  0  0
 13 22  1  0  0  0  0
 13 24  2  0  0  0  0
 14 26  2  0  0  0  0
 14 27  1  0  0  0  0
 15 29  2  0  0  0  0
 15 69  1  0  0  0  0
 16 67  2  0  0  0  0
 16 69  1  0  0  0  0
 17 28  1  0  0  0  0
 18 28  1  0  0  0  0
 18 30  2  0  0  0  0
 18 31  1  0  0  0  0
 19 21  2  0  0  0  0
 19 36  1  0  0  0  0
 20 22  2  0  0  0  0
 20 37  1  0  0  0  0
 21 45  1  0  0  0  0
 22 38  1  0  0  0  0
 23 84  1  0  0  0  0
 24 85  1  0  0  0  0
 25 27  2  0  0  0  0
 25 84  1  0  0  0  0
 26 86  1  0  0  0  0
 27 87  1  0  0  0  0
 28 68  2  0  0  0  0
 29 64  1  0  0  0  0
 29 67  1  0  0  0  0
 30 70  1  0  0  0  0
 30 73  1  0  0  0  0
 31 74  1  0  0  0  0
 31 79  2  0  0  0  0
 32 46  1  0  0  0  0
 32 75  1  0  0  0  0
 32 80  2  0  0  0  0
 33 60  1  0  0  0  0
 33 71  1  0  0  0  0
 33 81  2  0  0  0  0
 34 61  1  0  0  0  0
 34 76  1  0  0  0  0
 34 82  2  0  0  0  0
 35 72  1  0  0  0  0
 35 77  1  0  0  0  0
 35 83  2  0  0  0  0
 36 39  1  0  0  0  0
 37 46  1  0  0  0  0
 38 71  1  0  0  0  0
 39 41  1  0  0  0  0
 40 42  1  0  0  0  0
 40 43  1  0  0  0  0
 41 45  1  0  0  0  0
 42 47  1  0  0  0  0
 43 72  1  0  0  0  0
 44 47  1  0  0  0  0
 44 72  1  0  0  0  0
 45 75  1  0  0  0  0
 46 71  1  0  0  0  0
 47 70  1  0  0  0  0
 48 61  1  0  0  0  0
 49 62  1  0  0  0  0
 50 62  1  0  0  0  0
 51 63  1  0  0  0  0
 52 64  1  0  0  0  0
 53 64  1  0  0  0  0
 54 65  1  0  0  0  0
 55 65  1  0  0  0  0
 56 65  1  0  0  0  0
 57 66  1  0  0  0  0
 58 78  1  0  0  0  0
 59 66  1  0  0  0  0
 59 77  1  0  0  0  0
 60 65  1  0  0  0  0
 60 76  1  0  0  0  0
 61 78  1  0  0  0  0
 62 66  1  0  0  0  0
 63 64  1  0  0  0  0
 63 85  1  0  0  0  0
 66 69  1  0  0  0  0
 68 70  1  0  0  0  0
M  CHG  1  78   1
M  ISO  4  35 100  63 101  77 100  85 101
M  END
> <Batch ID>
0066

> <Smiles>
CNC(C)C(=O)NC(C(=O)N1Cc2cc([101O:1][101CH:1](C)C(C)(C)c3cn(C(C)(C[100NH:0][100C:0](=O)N4CCCC(n5nc(-c6ccc(Oc7ccc(F)cc7F)cc6)c(C(N)=O)c5N)C4)C(C)C)cn3)ccc2CC1C(=O)NC1CCCc2ccccc21)C(C)(C)C

> <Shape>
0.221

> <Color>
0.065

> <Negative vol penalty>
0.000

$$$$

  -OEChem-04052318093D

 83 91  0     1  0  0  0  0  0999 V2000
  -30.9592  -23.1953   22.9615 C   0  0  0  0  0  0  0  0  0  0  0  0
  -29.6001  -23.1689   22.6655 C   0  0  0  0  0  0  0  0  0  0  0  0
  -28.3701  -28.5092   21.0292 C   0  0  0  0  0  0  0  0  0  0  0  0
  -27.1009  -27.2515   19.4031 C   0  0  0  0  0  0  0  0  0  0  0  0
  -31.8132  -22.2496   22.3956 C   0  0  0  0  0  0  0  0  0  0  0  0
  -29.0944  -22.1973   21.8025 C   0  0  0  0  0  0  0  0  0  0  0  0
  -24.8188  -20.1024   23.5275 C   0  0  0  0  0  0  0  0  0  0  0  0
  -29.4940  -27.7303   20.7545 C   0  0  0  0  0  0  0  0  0  0  0  0
  -28.2249  -26.4725   19.1283 C   0  0  0  0  0  0  0  0  0  0  0  0
  -23.6438  -20.8374   23.3769 C   0  0  0  0  0  0  0  0  0  0  0  0
  -31.0776  -26.7625   17.3398 C   0  0  0  0  0  0  0  0  0  0  0  0
  -31.3788  -26.5116   16.0012 C   0  0  0  0  0  0  0  0  0  0  0  0
  -23.0731  -19.5170   21.4404 C   0  0  0  0  0  0  0  0  0  0  0  0
  -31.1607  -24.1382   16.3968 C   0  0  0  0  0  0  0  0  0  0  0  0
  -18.8992  -22.2066   22.8178 C   0  0  0  0  0  0  0  0  0  0  0  0
  -27.1734  -28.2698   20.3536 C   0  0  0  0  0  0  0  0  0  0  0  0
  -25.6330  -30.2731   20.0051 C   0  0  0  0  0  0  0  0  0  0  0  0
  -31.3162  -21.2600   21.5328 C   0  0  0  0  0  0  0  0  0  0  0  0
  -25.1357  -19.0746   22.6277 C   0  0  0  0  0  0  0  0  0  0  0  0
  -29.9428  -21.2383   21.2235 C   0  0  0  0  0  0  0  0  0  0  0  0
  -24.2515  -18.7687   21.5833 C   0  0  0  0  0  0  0  0  0  0  0  0
  -29.4215  -26.7120   19.8040 C   0  0  0  0  0  0  0  0  0  0  0  0
  -22.7721  -20.5468   22.3316 C   0  0  0  0  0  0  0  0  0  0  0  0
  -30.8179  -25.7011   18.2069 C   0  0  0  0  0  0  0  0  0  0  0  0
  -31.4204  -25.1996   15.5296 C   0  0  0  0  0  0  0  0  0  0  0  0
  -30.8594  -24.3891   17.7354 C   0  0  0  0  0  0  0  0  0  0  0  0
  -26.0119  -29.0737   20.6374 C   0  0  0  0  0  0  0  0  0  0  0  0
  -20.0609  -22.9468   22.8175 C   0  0  0  0  0  0  0  0  0  0  0  0
  -18.8689  -24.8171   22.2597 C   0  0  0  0  0  0  0  0  0  0  0  0
  -17.7073  -24.0766   22.2593 C   0  0  0  0  0  0  0  0  0  0  0  0
  -24.4666  -30.6380   20.6319 C   0  0  0  0  0  0  0  0  0  0  0  0
  -26.2777  -30.9929   18.9459 C   0  0  0  0  0  0  0  0  0  0  0  0
  -27.4998  -18.5442   20.5702 C   0  0  0  0  0  0  0  0  0  0  0  0
  -26.0374  -15.6688   20.2308 C   0  0  0  0  0  0  0  0  0  0  0  0
  -23.1768  -13.8252   20.4859 C   0  0  0  0  0  0  0  0  0  0  0  0
  -20.2679  -27.5333   23.5615 C   0  0  0  0  0  0  0  0  0  0  0  0
  -32.2855  -20.2880   20.9081 C   0  0  0  0  0  0  0  0  0  0  0  0
  -26.3941  -18.2733   22.8196 C   0  0  0  0  0  0  0  0  0  0  0  0
  -24.5356  -17.6618   20.6023 C   0  0  0  0  0  0  0  0  0  0  0  0
  -31.6108  -19.0619   20.2985 C   0  0  0  0  0  0  0  0  0  0  0  0
  -22.1884  -30.2537   24.8215 C   0  0  0  0  0  0  0  0  0  0  0  0
  -30.4097  -19.4776   19.4550 C   0  0  0  0  0  0  0  0  0  0  0  0
  -23.3519  -30.3680   23.8350 C   0  0  0  0  0  0  0  0  0  0  0  0
  -21.7866  -28.7989   25.0542 C   0  0  0  0  0  0  0  0  0  0  0  0
  -22.6553  -28.1484   22.8415 C   0  0  0  0  0  0  0  0  0  0  0  0
  -29.3525  -20.1849   20.3114 C   0  0  1  0  0  0  0  0  0  0  0  0
  -26.8670  -17.5881   21.5413 C   0  0  1  0  0  0  0  0  0  0  0  0
  -23.0597  -29.5999   22.5319 C   0  0  2  0  0  0  0  0  0  0  0  0
  -22.2833  -11.5119   20.1017 C   0  0  0  0  0  0  0  0  0  0  0  0
  -25.9850  -16.1908   17.2250 C   0  0  0  0  0  0  0  0  0  0  0  0
  -24.2843  -14.3663   17.0082 C   0  0  0  0  0  0  0  0  0  0  0  0
  -26.5677  -13.8448   17.8664 C   0  0  0  0  0  0  0  0  0  0  0  0
  -22.4723  -13.4976   23.3417 C   0  0  0  0  0  0  0  0  0  0  0  0
  -18.8611  -26.2751   21.9500 C   0  0  0  0  0  0  0  0  0  0  0  0
  -21.3769  -22.2985   23.1322 C   0  0  0  0  0  0  0  0  0  1  0  0
  -24.9528  -15.1200   19.3355 C   0  0  1  0  0  0  0  0  0  0  0  0
  -22.9057  -12.4673   21.1080 C   0  0  2  0  0  0  0  0  0  0  0  0
  -16.3889  -24.6989   21.9490 C   0  0  0  0  0  0  0  0  0  0  0  0
  -25.4428  -14.9027   17.8759 C   0  0  0  0  0  0  0  0  0  0  0  0
  -17.7016  -22.7581   22.5386 N   0  0  0  0  0  0  0  0  0  0  0  0
  -25.1557  -28.7016   21.5926 N   0  0  0  0  0  0  0  0  0  0  0  0
  -20.0666  -24.2654   22.5385 N   0  0  0  0  0  0  0  0  0  0  0  0
  -24.2273  -29.6729   21.5654 N   0  0  0  0  0  0  0  0  0  0  0  0
  -25.7818  -16.9112   20.8282 N   0  0  0  0  0  0  0  0  0  0  0  0
  -21.5218  -28.1278   23.7793 N   0  0  0  0  0  0  0  0  0  0  0  0
  -23.6327  -31.6872   20.4702 N   0  0  0  0  0  0  0  0  0  0  0  0
  -27.4685  -30.4775   18.4161 N   0  0  0  0  0  0  0  0  0  0  0  0
  -28.5938  -19.2193   21.0772 N   0  0  0  0  0  0  0  0  0  0  0  0
  -24.4590  -13.9112   19.9862 N   0  0  0  0  0  0  0  0  0  0  0  0
  -20.0979  -26.9240   22.3243 N   0  0  0  0  0  0  0  0  0  0  0  0
  -21.9754  -12.6036   22.2643 N   0  3  0  0  0  0  0  0  0  0  0  0
  -25.8202  -32.0700   18.4941 O   0  0  0  0  0  0  0  0  0  0  0  0
  -27.0313  -18.6598   19.4438 O   0  0  0  0  0  0  0  0  0  0  0  0
  -27.0701  -15.0157   20.3997 O   0  0  0  0  0  0  0  0  0  0  0  0
  -22.3341  -14.7188   20.4439 O   0  0  0  0  0  0  0  0  0  0  0  0
  -19.3650  -27.5493   24.4049 O   0  0  0  0  0  0  0  0  0  0  0  0
  -30.5182  -25.9518   19.5355 O   0  0  0  0  0  0  0  0  0  0  0  0
  -21.6248  -21.2631   22.1819 O   0  0  0  0  0  0  0  0  0  1  0  0
  -31.7082  -24.9589   14.2438 F   0  0  0  0  0  0  0  0  0  0  0  0
  -30.6097  -23.3654   18.5634 F   0  0  0  0  0  0  0  0  0  0  0  0
  -16.4641  -26.0356   21.6762 F   0  0  0  0  0  0  0  0  0  0  0  0
  -15.7658  -24.1496   20.8644 F   0  0  0  0  0  0  0  0  0  0  0  0
  -15.4988  -24.5857   22.9780 F   0  0  0  0  0  0  0  0  0  0  0  0
  1  2  1  0  0  0  0
  1  5  2  0  0  0  0
  2  6  2  0  0  0  0
  3  8  2  0  0  0  0
  3 16  1  0  0  0  0
  4  9  1  0  0  0  0
  4 16  2  0  0  0  0
  5 18  1  0  0  0  0
  6 20  1  0  0  0  0
  7 10  2  0  0  0  0
  7 19  1  0  0  0  0
  8 22  1  0  0  0  0
  9 22  2  0  0  0  0
 10 23  1  0  0  0  0
 11 12  2  0  0  0  0
 11 24  1  0  0  0  0
 12 25  1  0  0  0  0
 13 21  1  0  0  0  0
 13 23  2  0  0  0  0
 14 25  2  0  0  0  0
 14 26  1  0  0  0  0
 15 28  1  0  0  0  0
 15 60  2  0  0  0  0
 16 27  1  0  0  0  0
 17 27  1  0  0  0  0
 17 31  2  0  0  0  0
 17 32  1  0  0  0  0
 18 20  2  0  0  0  0
 18 37  1  0  0  0  0
 19 21  2  0  0  0  0
 19 38  1  0  0  0  0
 20 46  1  0  0  0  0
 21 39  1  0  0  0  0
 22 77  1  0  0  0  0
 23 78  1  0  0  0  0
 24 26  2  0  0  0  0
 24 77  1  0  0  0  0
 25 79  1  0  0  0  0
 26 80  1  0  0  0  0
 27 61  2  0  0  0  0
 28 55  1  0  0  0  0
 28 62  2  0  0  0  0
 29 30  2  0  0  0  0
 29 54  1  0  0  0  0
 29 62  1  0  0  0  0
 30 58  1  0  0  0  0
 30 60  1  0  0  0  0
 31 63  1  0  0  0  0
 31 66  1  0  0  0  0
 32 67  1  0  0  0  0
 32 72  2  0  0  0  0
 33 47  1  0  0  0  0
 33 68  1  0  0  0  0
 33 73  2  0  0  0  0
 34 56  1  0  0  0  0
 34 64  1  0  0  0  0
 34 74  2  0  0  0  0
 35 57  1  0  0  0  0
 35 69  1  0  0  0  0
 35 75  2  0  0  0  0
 36 65  1  0  0  0  0
 36 70  1  0  0  0  0
 36 76  2  0  0  0  0
 37 40  1  0  0  0  0
 38 47  1  0  0  0  0
 39 64  1  0  0  0  0
 40 42  1  0  0  0  0
 41 43  1  0  0  0  0
 41 44  1  0  0  0  0
 42 46  1  0  0  0  0
 43 48  1  0  0  0  0
 44 65  1  0  0  0  0
 45 48  1  0  0  0  0
 45 65  1  0  0  0  0
 46 68  1  0  0  0  0
 47 64  1  0  0  0  0
 48 63  1  0  0  0  0
 49 57  1  0  0  0  0
 50 59  1  0  0  0  0
 51 59  1  0  0  0  0
 52 59  1  0  0  0  0
 53 71  1  0  0  0  0
 54 70  1  0  0  0  0
 55 78  1  0  0  0  0
 56 59  1  0  0  0  0
 56 69  1  0  0  0  0
 57 71  1  0  0  0  0
 58 81  1  0  0  0  0
 58 82  1  0  0  0  0
 58 83  1  0  0  0  0
 61 63  1  0  0  0  0
M  CHG  1  71   1
M  ISO  4  36 100  55 101  70 100  78 101
M  END
> <Batch ID>
0066

> <Smiles>
CNC(C)C(=O)NC(C(=O)N1Cc2cc([101O:1][101CH2:1]c3cnc(C(F)(F)F)c(C[100NH:0][100C:0](=O)N4CCCC(n5nc(-c6ccc(Oc7ccc(F)cc7F)cc6)c(C(N)=O)c5N)C4)n3)ccc2CC1C(=O)NC1CCCc2ccccc21)C(C)(C)C

> <Shape>
0.221

> <Color>
0.063

> <Negative vol penalty>
0.000

$$$$

  -OEChem-04052318093D

 92100  0     1  0  0  0  0  0999 V2000
  -32.6782  -28.5324   23.8904 C   0  0  0  0  0  0  0  0  0  0  0  0
  -31.9505  -27.8340   22.9323 C   0  0  0  0  0  0  0  0  0  0  0  0
  -25.1870  -13.5684   22.6744 C   0  0  0  0  0  0  0  0  0  0  0  0
  -24.9536  -14.6842   20.5442 C   0  0  0  0  0  0  0  0  0  0  0  0
  -32.0768  -28.8914   25.0960 C   0  0  0  0  0  0  0  0  0  0  0  0
  -30.6212  -27.4931   23.1797 C   0  0  0  0  0  0  0  0  0  0  0  0
  -27.6107  -28.4059   19.2112 C   0  0  0  0  0  0  0  0  0  0  0  0
  -24.1806  -12.6719   22.3151 C   0  0  0  0  0  0  0  0  0  0  0  0
  -23.9473  -13.7877   20.1849 C   0  0  0  0  0  0  0  0  0  0  0  0
  -27.6435  -27.4876   18.1626 C   0  0  0  0  0  0  0  0  0  0  0  0
  -23.8775   -9.9073   20.3921 C   0  0  0  0  0  0  0  0  0  0  0  0
  -24.0939   -8.5533   20.6480 C   0  0  0  0  0  0  0  0  0  0  0  0
  -25.6190  -26.4739   18.9951 C   0  0  0  0  0  0  0  0  0  0  0  0
  -22.1408   -8.5099   22.0694 C   0  0  0  0  0  0  0  0  0  0  0  0
  -30.5563  -21.0813   17.4902 C   0  0  0  0  0  0  0  0  0  0  0  0
  -25.5735  -14.5746   21.7890 C   0  0  0  0  0  0  0  0  0  0  0  0
  -27.9954  -15.3624   21.9354 C   0  0  0  0  0  0  0  0  0  0  0  0
  -30.7366  -28.5632   25.3543 C   0  0  0  0  0  0  0  0  0  0  0  0
  -26.5861  -28.3581   20.1674 C   0  0  0  0  0  0  0  0  0  0  0  0
  -30.0017  -27.8468   24.3904 C   0  0  0  0  0  0  0  0  0  0  0  0
  -25.5740  -27.3943   20.0534 C   0  0  0  0  0  0  0  0  0  0  0  0
  -23.5608  -12.7815   21.0704 C   0  0  0  0  0  0  0  0  0  0  0  0
  -26.6491  -26.5196   18.0561 C   0  0  0  0  0  0  0  0  0  0  0  0
  -22.7928  -10.5626   20.9749 C   0  0  0  0  0  0  0  0  0  0  0  0
  -23.2255   -7.8546   21.4866 C   0  0  0  0  0  0  0  0  0  0  0  0
  -21.9244   -9.8639   21.8135 C   0  0  0  0  0  0  0  0  0  0  0  0
  -26.6126  -15.5014   22.1598 C   0  0  0  0  0  0  0  0  0  0  0  0
  -30.0955  -22.3769   17.6068 C   0  0  0  0  0  0  0  0  0  0  0  0
  -30.2789  -20.2508   18.5567 C   0  0  0  0  0  0  0  0  0  0  0  0
  -28.5462  -16.5012   22.4705 C   0  0  0  0  0  0  0  0  0  0  0  0
  -29.2078  -21.9306   19.6512 C   0  0  0  0  0  0  0  0  0  0  0  0
  -28.7174  -14.2992   21.2999 C   0  0  0  0  0  0  0  0  0  0  0  0
  -26.4690  -27.8804   23.3077 C   0  0  0  0  0  0  0  0  0  0  0  0
  -23.3316  -28.6004   22.9073 C   0  0  0  0  0  0  0  0  0  0  0  0
  -20.6358  -28.7452   20.8196 C   0  0  0  0  0  0  0  0  0  0  0  0
  -28.6114  -21.9291   23.3318 C   0  0  0  0  0  0  0  0  0  0  0  0
  -30.1438  -28.9313   26.6914 C   0  0  0  0  0  0  0  0  0  0  0  0
  -26.5503  -29.3726   21.2773 C   0  0  0  0  0  0  0  0  0  0  0  0
  -24.4410  -27.3133   21.0424 C   0  0  0  0  0  0  0  0  0  0  0  0
  -28.6193  -28.8597   26.7223 C   0  0  0  0  0  0  0  0  0  0  0  0
  -26.5288  -20.0838   25.4016 C   0  0  0  0  0  0  0  0  0  0  0  0
  -28.1327  -27.5621   26.0850 C   0  0  0  0  0  0  0  0  0  0  0  0
  -26.4675  -18.7116   24.7322 C   0  0  0  0  0  0  0  0  0  0  0  0
  -26.4833  -21.1985   24.3633 C   0  0  0  0  0  0  0  0  0  0  0  0
  -27.5196  -19.7392   22.6552 C   0  0  0  0  0  0  0  0  0  0  0  0
  -28.5501  -27.4807   24.6116 C   0  0  1  0  0  0  0  0  0  0  0  0
  -25.7435  -28.9079   22.4858 C   0  0  1  0  0  0  0  0  0  0  0  0
  -27.5638  -18.5711   23.6616 C   0  0  2  0  0  0  0  0  0  0  0  0
  -28.0322  -23.8732   20.7493 C   0  0  0  0  0  0  0  0  0  0  0  0
  -18.1978  -29.3388   20.7887 C   0  0  0  0  0  0  0  0  0  0  0  0
  -27.8243  -17.0224   18.0661 C   0  0  0  0  0  0  0  0  0  0  0  0
  -28.0435  -17.9801   15.7775 C   0  0  0  0  0  0  0  0  0  0  0  0
  -30.6347  -16.5983   17.0601 C   0  0  0  0  0  0  0  0  0  0  0  0
  -32.3025  -18.8014   18.3936 C   0  0  0  0  0  0  0  0  0  0  0  0
  -30.4561  -18.0171   19.8352 C   0  0  0  0  0  0  0  0  0  0  0  0
  -22.6779  -25.9793   24.3260 C   0  0  0  0  0  0  0  0  0  0  0  0
  -20.3447  -26.1604   23.4364 C   0  0  0  0  0  0  0  0  0  0  0  0
  -21.2283  -27.9093   24.9802 C   0  0  0  0  0  0  0  0  0  0  0  0
  -30.6184  -22.5266   22.0307 C   0  0  0  0  0  0  0  0  0  0  0  0
  -21.0619  -30.8795   18.8141 C   0  0  0  0  0  0  0  0  0  0  0  0
  -30.3496  -23.3591   16.4912 C   0  0  0  0  0  0  0  0  0  0  0  0
  -29.2465  -23.3867   15.4274 C   0  0  0  0  0  0  0  0  0  0  0  0
  -27.8944  -23.8417   15.9786 C   0  0  0  0  0  0  0  0  0  0  0  0
  -27.9619  -25.2623   16.5226 C   0  0  0  0  0  0  0  0  0  1  0  0
  -28.4557  -22.4006   20.8501 C   0  0  2  0  0  0  0  0  0  0  0  0
  -22.0832  -27.8079   22.6031 C   0  0  1  0  0  0  0  0  0  0  0  0
  -19.6160  -29.8406   20.5659 C   0  0  2  0  0  0  0  0  0  0  0  0
  -28.5400  -18.0890   17.2276 C   0  0  0  0  0  0  0  0  0  0  0  0
  -30.1075  -18.0299   17.2702 C   0  0  1  0  0  0  0  0  0  0  0  0
  -30.7358  -18.8308   18.5207 C   0  0  0  0  0  0  0  0  0  0  0  0
  -21.6058  -26.9642   23.8187 C   0  0  0  0  0  0  0  0  0  0  0  0
  -26.3040  -16.6386   22.7887 N   0  0  0  0  0  0  0  0  0  0  0  0
  -29.4153  -22.8370   18.6772 N   0  0  0  0  0  0  0  0  0  0  0  0
  -29.6047  -20.6437   19.6573 N   0  0  0  0  0  0  0  0  0  0  0  0
  -27.5006  -17.2246   22.9641 N   0  0  0  0  0  0  0  0  0  0  0  0
  -24.4535  -28.3234   22.1134 N   0  0  0  0  0  0  0  0  0  0  0  0
  -27.5345  -21.0306   23.3595 N   0  0  0  0  0  0  0  0  0  0  0  0
  -29.8181  -16.9442   22.5624 N   0  0  0  0  0  0  0  0  0  0  0  0
  -27.9961  -13.2037   20.8059 N   0  0  0  0  0  0  0  0  0  0  0  0
  -27.6886  -28.3093   23.7957 N   0  0  0  0  0  0  0  0  0  0  0  0
  -21.0979  -28.7685   22.1185 N   0  0  0  0  0  0  0  0  0  0  0  0
  -29.2052  -22.1806   22.0857 N   0  0  0  0  0  0  0  0  0  0  0  0
  -19.7247  -30.3351   19.1642 N   0  3  0  0  0  0  0  0  0  0  0  0
  -29.9667  -14.3123   21.1884 O   0  0  0  0  0  0  0  0  0  0  0  0
  -25.9594  -26.7805   23.4872 O   0  0  0  0  0  0  0  0  0  0  0  0
  -23.3099  -29.4394   23.8113 O   0  0  0  0  0  0  0  0  0  0  0  0
  -20.9847  -27.9463   19.9532 O   0  0  0  0  0  0  0  0  0  0  0  0
  -29.0162  -22.4830   24.3620 O   0  0  0  0  0  0  0  0  0  0  0  0
  -22.5789  -11.9067   20.7193 O   0  0  0  0  0  0  0  0  0  0  0  0
  -26.6791  -25.6218   17.0339 O   0  0  0  0  0  0  0  0  0  1  0  0
  -23.4325   -6.5540   21.7310 F   0  0  0  0  0  0  0  0  0  0  0  0
  -20.8799  -10.4878   22.3754 F   0  0  0  0  0  0  0  0  0  0  0  0
  1  2  1  0  0  0  0
  1  5  2  0  0  0  0
  2  6  2  0  0  0  0
  3  8  2  0  0  0  0
  3 16  1  0  0  0  0
  4  9  1  0  0  0  0
  4 16  2  0  0  0  0
  5 18  1  0  0  0  0
  6 20  1  0  0  0  0
  7 10  2  0  0  0  0
  7 19  1  0  0  0  0
  8 22  1  0  0  0  0
  9 22  2  0  0  0  0
 10 23  1  0  0  0  0
 11 12  2  0  0  0  0
 11 24  1  0  0  0  0
 12 25  1  0  0  0  0
 13 21  1  0  0  0  0
 13 23  2  0  0  0  0
 14 25  2  0  0  0  0
 14 26  1  0  0  0  0
 15 28  1  0  0  0  0
 15 29  2  0  0  0  0
 16 27  1  0  0  0  0
 17 27  1  0  0  0  0
 17 30  2  0  0  0  0
 17 32  1  0  0  0  0
 18 20  2  0  0  0  0
 18 37  1  0  0  0  0
 19 21  2  0  0  0  0
 19 38  1  0  0  0  0
 20 46  1  0  0  0  0
 21 39  1  0  0  0  0
 22 89  1  0  0  0  0
 23 90  1  0  0  0  0
 24 26  2  0  0  0  0
 24 89  1  0  0  0  0
 25 91  1  0  0  0  0
 26 92  1  0  0  0  0
 27 72  2  0  0  0  0
 28 61  1  0  0  0  0
 28 73  2  0  0  0  0
 29 70  1  0  0  0  0
 29 74  1  0  0  0  0
 30 75  1  0  0  0  0
 30 78  1  0  0  0  0
 31 65  1  0  0  0  0
 31 73  1  0  0  0  0
 31 74  2  0  0  0  0
 32 79  1  0  0  0  0
 32 84  2  0  0  0  0
 33 47  1  0  0  0  0
 33 80  1  0  0  0  0
 33 85  2  0  0  0  0
 34 66  1  0  0  0  0
 34 76  1  0  0  0  0
 34 86  2  0  0  0  0
 35 67  1  0  0  0  0
 35 81  1  0  0  0  0
 35 87  2  0  0  0  0
 36 77  1  0  0  0  0
 36 82  1  0  0  0  0
 36 88  2  0  0  0  0
 37 40  1  0  0  0  0
 38 47  1  0  0  0  0
 39 76  1  0  0  0  0
 40 42  1  0  0  0  0
 41 43  1  0  0  0  0
 41 44  1  0  0  0  0
 42 46  1  0  0  0  0
 43 48  1  0  0  0  0
 44 77  1  0  0  0  0
 45 48  1  0  0  0  0
 45 77  1  0  0  0  0
 46 80  1  0  0  0  0
 47 76  1  0  0  0  0
 48 75  1  0  0  0  0
 49 65  1  0  0  0  0
 50 67  1  0  0  0  0
 51 68  1  0  0  0  0
 52 68  1  0  0  0  0
 53 69  1  0  0  0  0
 54 70  1  0  0  0  0
 55 70  1  0  0  0  0
 56 71  1  0  0  0  0
 57 71  1  0  0  0  0
 58 71  1  0  0  0  0
 59 82  1  0  0  0  0
 60 83  1  0  0  0  0
 61 62  1  0  0  0  0
 62 63  1  0  0  0  0
 63 64  1  0  0  0  0
 64 90  1  0  0  0  0
 65 82  1  0  0  0  0
 66 71  1  0  0  0  0
 66 81  1  0  0  0  0
 67 83  1  0  0  0  0
 68 69  1  0  0  0  0
 69 70  1  0  0  0  0
 72 75  1  0  0  0  0
M  CHG  1  83   1
M  ISO  4  36 100  64 101  82 100  90 101
M  END
> <Batch ID>
0066

> <Smiles>
CNC(C)C(=O)NC(C(=O)N1Cc2cc([101O:1][101CH2:1]CCCc3cc(C(C)(C)C(C)C(C)C)nc(C(C)[100N:0](C)[100C:0](=O)N4CCCC(n5nc(-c6ccc(Oc7ccc(F)cc7F)cc6)c(C(N)=O)c5N)C4)n3)ccc2CC1C(=O)NC1CCCc2ccccc21)C(C)(C)C

> <Shape>
0.212

> <Color>
0.079

> <Negative vol penalty>
0.000

$$$$

  -OEChem-04052318093D

 93101  0     1  0  0  0  0  0999 V2000
  -25.8197  -30.9255   20.6668 C   0  0  0  0  0  0  0  0  0  0  0  0
  -25.7294  -30.0731   21.7625 C   0  0  0  0  0  0  0  0  0  0  0  0
  -24.9155  -13.2443   21.6157 C   0  0  0  0  0  0  0  0  0  0  0  0
  -24.8020  -13.6321   19.2338 C   0  0  0  0  0  0  0  0  0  0  0  0
  -24.6668  -31.5065   20.1402 C   0  0  0  0  0  0  0  0  0  0  0  0
  -24.4863  -29.8020   22.3330 C   0  0  0  0  0  0  0  0  0  0  0  0
  -23.9830  -25.7710   19.5040 C   0  0  0  0  0  0  0  0  0  0  0  0
  -24.0269  -12.1772   21.4844 C   0  0  0  0  0  0  0  0  0  0  0  0
  -23.9134  -12.5650   19.1024 C   0  0  0  0  0  0  0  0  0  0  0  0
  -25.3123  -25.3795   19.3507 C   0  0  0  0  0  0  0  0  0  0  0  0
  -24.1440   -8.9451   20.4981 C   0  0  0  0  0  0  0  0  0  0  0  0
  -24.4450   -7.7637   21.1757 C   0  0  0  0  0  0  0  0  0  0  0  0
  -25.3543  -24.6443   21.6478 C   0  0  0  0  0  0  0  0  0  0  0  0
  -22.3715   -7.9393   22.4033 C   0  0  0  0  0  0  0  0  0  0  0  0
  -31.7828  -24.6930   17.1716 C   0  0  0  0  0  0  0  0  0  0  0  0
  -25.3030  -13.9718   20.4904 C   0  0  0  0  0  0  0  0  0  0  0  0
  -27.6254  -15.0257   20.5505 C   0  0  0  0  0  0  0  0  0  0  0  0
  -23.4078  -31.2348   20.6985 C   0  0  0  0  0  0  0  0  0  0  0  0
  -23.3316  -25.6117   20.7355 C   0  0  0  0  0  0  0  0  0  0  0  0
  -23.3156  -30.3809   21.8142 C   0  0  0  0  0  0  0  0  0  0  0  0
  -24.0160  -25.0321   21.8134 C   0  0  0  0  0  0  0  0  0  0  0  0
  -23.5258  -11.8375   20.2277 C   0  0  0  0  0  0  0  0  0  0  0  0
  -25.9991  -24.8187   20.4235 C   0  0  0  0  0  0  0  0  0  0  0  0
  -22.9567   -9.6238   20.7732 C   0  0  0  0  0  0  0  0  0  0  0  0
  -23.5588   -7.2608   22.1283 C   0  0  0  0  0  0  0  0  0  0  0  0
  -22.0705   -9.1209   21.7257 C   0  0  0  0  0  0  0  0  0  0  0  0
  -26.2205  -15.0746   20.6256 C   0  0  0  0  0  0  0  0  0  0  0  0
  -30.0312  -22.6971   17.4468 C   0  0  0  0  0  0  0  0  0  0  0  0
  -30.8293  -22.7932   16.3282 C   0  0  0  0  0  0  0  0  0  0  0  0
  -30.9842  -24.5974   18.2899 C   0  0  0  0  0  0  0  0  0  0  0  0
  -28.0249  -16.3257   20.7422 C   0  0  0  0  0  0  0  0  0  0  0  0
  -28.4918  -13.9053   20.3273 C   0  0  0  0  0  0  0  0  0  0  0  0
  -22.0063  -27.5870   22.8440 C   0  0  0  0  0  0  0  0  0  0  0  0
  -21.0988  -24.8225   24.2781 C   0  0  0  0  0  0  0  0  0  0  0  0
  -21.6527  -21.4892   24.7563 C   0  0  0  0  0  0  0  0  0  0  0  0
  -27.1959  -21.6767   19.2310 C   0  0  0  0  0  0  0  0  0  0  0  0
  -22.1951  -31.9235   20.1243 C   0  0  0  0  0  0  0  0  0  0  0  0
  -21.8893  -26.0145   20.8769 C   0  0  0  0  0  0  0  0  0  0  0  0
  -23.3558  -24.8209   23.1506 C   0  0  0  0  0  0  0  0  0  0  0  0
  -20.8744  -31.2897   20.5536 C   0  0  0  0  0  0  0  0  0  0  0  0
  -25.4439  -20.3851   22.2730 C   0  0  0  0  0  0  0  0  0  0  0  0
  -20.8721  -31.0263   22.0560 C   0  0  0  0  0  0  0  0  0  0  0  0
  -25.5578  -18.8769   22.0567 C   0  0  0  0  0  0  0  0  0  0  0  0
  -25.4222  -21.1329   20.9454 C   0  0  0  0  0  0  0  0  0  0  0  0
  -26.7162  -19.3342   19.8468 C   0  0  0  0  0  0  0  0  0  0  0  0
  -21.9824  -30.0429   22.4454 C   0  0  1  0  0  0  0  0  0  0  0  0
  -21.4818  -26.2789   22.3231 C   0  0  1  0  0  0  0  0  0  0  0  0
  -26.7625  -18.5388   21.1620 C   0  0  2  0  0  0  0  0  0  0  0  0
  -20.7678  -19.5056   26.0131 C   0  0  0  0  0  0  0  0  0  0  0  0
  -22.3799  -25.8766   26.8389 C   0  0  0  0  0  0  0  0  0  0  0  0
  -22.3171  -23.5445   27.7475 C   0  0  0  0  0  0  0  0  0  0  0  0
  -20.1907  -24.7138   27.1697 C   0  0  0  0  0  0  0  0  0  0  0  0
  -27.7504  -27.3936   19.0016 C   0  0  0  0  0  0  0  0  0  0  0  0
  -28.4393  -25.2130   18.0116 C   0  0  0  0  0  0  0  0  0  0  0  0
  -27.6999  -26.3564   21.6510 C   0  0  0  0  0  0  0  0  0  0  0  0
  -29.4595  -24.6622   21.2318 C   0  0  0  0  0  0  0  0  0  0  0  0
  -30.6138  -27.3436   17.8266 C   0  0  0  0  0  0  0  0  0  0  0  0
  -30.6017  -27.6513   20.2856 C   0  0  0  0  0  0  0  0  0  0  0  0
  -29.4933  -20.8833   19.9322 C   0  0  0  0  0  0  0  0  0  0  0  0
  -21.0516  -20.0261   22.2549 C   0  0  0  0  0  0  0  0  0  0  0  0
  -29.0509  -21.5862   17.6092 C   0  0  0  0  0  0  0  0  0  0  0  0
  -21.7050  -23.9061   25.3133 C   0  0  1  0  0  0  0  0  0  0  0  0
  -20.7150  -20.2961   24.7150 C   0  0  2  0  0  0  0  0  0  0  0  0
  -30.7493  -21.7910   15.2279 C   0  0  0  0  0  0  0  0  0  0  0  0
  -21.6615  -24.5159   26.7428 C   0  0  0  0  0  0  0  0  0  0  0  0
  -28.6934  -26.1738   19.2085 C   0  0  0  0  0  0  0  0  0  0  0  0
  -28.2923  -25.4307   20.5736 C   0  0  0  0  0  0  0  0  0  1  0  0
  -30.2180  -26.6734   19.1609 C   0  0  0  0  0  0  0  0  0  0  0  0
  -31.7197  -23.7927   16.1706 N   0  0  0  0  0  0  0  0  0  0  0  0
  -25.7586  -16.3080   20.8479 N   0  0  0  0  0  0  0  0  0  0  0  0
  -30.0940  -23.5977   18.4476 N   0  0  0  0  0  0  0  0  0  0  0  0
  -26.8797  -17.0462   20.9142 N   0  0  0  0  0  0  0  0  0  0  0  0
  -21.9464  -25.2367   23.2408 N   0  0  0  0  0  0  0  0  0  0  0  0
  -26.5666  -20.7693   20.0991 N   0  0  0  0  0  0  0  0  0  0  0  0
  -29.2407  -16.9114   20.7790 N   0  0  0  0  0  0  0  0  0  0  0  0
  -27.9156  -12.6401   20.1495 N   0  0  0  0  0  0  0  0  0  0  0  0
  -21.5954  -28.6877   22.1166 N   0  0  0  0  0  0  0  0  0  0  0  0
  -21.0090  -22.6301   25.1865 N   0  0  0  0  0  0  0  0  0  0  0  0
  -28.5606  -21.4748   18.9756 N   0  0  0  0  0  0  0  0  0  0  0  0
  -21.0844  -19.3854   23.5948 N   0  3  0  0  0  0  0  0  0  0  0  0
  -29.7407  -14.0200   20.3030 O   0  0  0  0  0  0  0  0  0  0  0  0
  -22.7291  -27.5971   23.8336 O   0  0  0  0  0  0  0  0  0  0  0  0
  -19.9149  -25.1529   24.3819 O   0  0  0  0  0  0  0  0  0  0  0  0
  -22.8386  -21.4154   24.4421 O   0  0  0  0  0  0  0  0  0  0  0  0
  -26.5711  -22.6073   18.7059 O   0  0  0  0  0  0  0  0  0  0  0  0
  -22.6589  -10.7962   20.0991 O   0  0  0  0  0  0  0  0  0  0  0  0
  -27.2996  -24.4356   20.2764 O   0  0  0  0  0  0  0  0  0  1  0  0
  -31.0769  -25.5282   19.2822 O   0  0  0  0  0  0  0  0  0  0  0  0
  -23.8473   -6.1254   22.7777 F   0  0  0  0  0  0  0  0  0  0  0  0
  -20.9278   -9.7677   21.9934 F   0  0  0  0  0  0  0  0  0  0  0  0
  -29.8291  -20.8056   15.4495 F   0  0  0  0  0  0  0  0  0  0  0  0
  -30.4083  -22.3300   14.0197 F   0  0  0  0  0  0  0  0  0  0  0  0
  -31.9333  -21.1443   15.0183 F   0  0  0  0  0  0  0  0  0  0  0  0
  1  2  1  0  0  0  0
  1  5  2  0  0  0  0
  2  6  2  0  0  0  0
  3  8  2  0  0  0  0
  3 16  1  0  0  0  0
  4  9  1  0  0  0  0
  4 16  2  0  0  0  0
  5 18  1  0  0  0  0
  6 20  1  0  0  0  0
  7 10  2  0  0  0  0
  7 19  1  0  0  0  0
  8 22  1  0  0  0  0
  9 22  2  0  0  0  0
 10 23  1  0  0  0  0
 11 12  2  0  0  0  0
 11 24  1  0  0  0  0
 12 25  1  0  0  0  0
 13 21  1  0  0  0  0
 13 23  2  0  0  0  0
 14 25  2  0  0  0  0
 14 26  1  0  0  0  0
 15 30  1  0  0  0  0
 15 69  2  0  0  0  0
 16 27  1  0  0  0  0
 17 27  1  0  0  0  0
 17 31  2  0  0  0  0
 17 32  1  0  0  0  0
 18 20  2  0  0  0  0
 18 37  1  0  0  0  0
 19 21  2  0  0  0  0
 19 38  1  0  0  0  0
 20 46  1  0  0  0  0
 21 39  1  0  0  0  0
 22 86  1  0  0  0  0
 23 87  1  0  0  0  0
 24 26  2  0  0  0  0
 24 86  1  0  0  0  0
 25 89  1  0  0  0  0
 26 90  1  0  0  0  0
 27 70  2  0  0  0  0
 28 29  2  0  0  0  0
 28 61  1  0  0  0  0
 28 71  1  0  0  0  0
 29 64  1  0  0  0  0
 29 69  1  0  0  0  0
 30 71  2  0  0  0  0
 30 88  1  0  0  0  0
 31 72  1  0  0  0  0
 31 75  1  0  0  0  0
 32 76  1  0  0  0  0
 32 81  2  0  0  0  0
 33 47  1  0  0  0  0
 33 77  1  0  0  0  0
 33 82  2  0  0  0  0
 34 62  1  0  0  0  0
 34 73  1  0  0  0  0
 34 83  2  0  0  0  0
 35 63  1  0  0  0  0
 35 78  1  0  0  0  0
 35 84  2  0  0  0  0
 36 74  1  0  0  0  0
 36 79  1  0  0  0  0
 36 85  2  0  0  0  0
 37 40  1  0  0  0  0
 38 47  1  0  0  0  0
 39 73  1  0  0  0  0
 40 42  1  0  0  0  0
 41 43  1  0  0  0  0
 41 44  1  0  0  0  0
 42 46  1  0  0  0  0
 43 48  1  0  0  0  0
 44 74  1  0  0  0  0
 45 48  1  0  0  0  0
 45 74  1  0  0  0  0
 46 77  1  0  0  0  0
 47 73  1  0  0  0  0
 48 72  1  0  0  0  0
 49 63  1  0  0  0  0
 50 65  1  0  0  0  0
 51 65  1  0  0  0  0
 52 65  1  0  0  0  0
 53 66  1  0  0  0  0
 54 66  1  0  0  0  0
 55 67  1  0  0  0  0
 56 67  1  0  0  0  0
 57 68  1  0  0  0  0
 58 68  1  0  0  0  0
 59 79  1  0  0  0  0
 60 80  1  0  0  0  0
 61 79  1  0  0  0  0
 62 65  1  0  0  0  0
 62 78  1  0  0  0  0
 63 80  1  0  0  0  0
 64 91  1  0  0  0  0
 64 92  1  0  0  0  0
 64 93  1  0  0  0  0
 66 67  1  0  0  0  0
 66 68  1  0  0  0  0
 67 87  1  0  0  0  0
 68 88  1  0  0  0  0
 70 72  1  0  0  0  0
M  CHG  1  80   1
M  ISO  4  36 100  67 101  79 100  87 101
M  END
> <Batch ID>
0066

> <Smiles>
CNC(C)C(=O)NC(C(=O)N1Cc2cc([101O:1][101C:1](C)(C)C(C)(C)C(C)(C)Oc3cnc(C(F)(F)F)c(C[100N:0](C)[100C:0](=O)N4CCCC(n5nc(-c6ccc(Oc7ccc(F)cc7F)cc6)c(C(N)=O)c5N)C4)n3)ccc2CC1C(=O)NC1CCCc2ccccc21)C(C)(C)C

> <Shape>
0.245

> <Color>
0.066

> <Negative vol penalty>
0.000

$$$$

  -OEChem-04052318093D

 91 99  0     1  0  0  0  0  0999 V2000
  -21.8197  -12.5850   18.5506 C   0  0  0  0  0  0  0  0  0  0  0  0
  -21.8619  -13.9179   18.9470 C   0  0  0  0  0  0  0  0  0  0  0  0
  -28.4089  -23.8357   19.3972 C   0  0  0  0  0  0  0  0  0  0  0  0
  -30.5965  -24.7775   18.9914 C   0  0  0  0  0  0  0  0  0  0  0  0
  -22.8004  -11.6969   18.9903 C   0  0  0  0  0  0  0  0  0  0  0  0
  -22.8843  -14.3631   19.7841 C   0  0  0  0  0  0  0  0  0  0  0  0
  -25.5705  -19.8663   19.7088 C   0  0  0  0  0  0  0  0  0  0  0  0
  -28.7198  -22.7569   18.5696 C   0  0  0  0  0  0  0  0  0  0  0  0
  -30.9074  -23.6986   18.1637 C   0  0  0  0  0  0  0  0  0  0  0  0
  -25.3789  -21.0141   20.4766 C   0  0  0  0  0  0  0  0  0  0  0  0
  -28.8696  -22.1250   15.2526 C   0  0  0  0  0  0  0  0  0  0  0  0
  -27.9076  -21.7211   14.3268 C   0  0  0  0  0  0  0  0  0  0  0  0
  -27.1971  -20.3479   21.9153 C   0  0  0  0  0  0  0  0  0  0  0  0
  -27.8428  -19.5328   15.3489 C   0  0  0  0  0  0  0  0  0  0  0  0
  -29.3472  -24.8461   19.6081 C   0  0  0  0  0  0  0  0  0  0  0  0
  -29.2423  -26.0583   21.8502 C   0  0  0  0  0  0  0  0  0  0  0  0
  -23.8408  -12.1336   19.8254 C   0  0  0  0  0  0  0  0  0  0  0  0
  -26.5714  -18.9436   20.0455 C   0  0  0  0  0  0  0  0  0  0  0  0
  -23.8791  -13.4797   20.2364 C   0  0  0  0  0  0  0  0  0  0  0  0
  -27.4010  -19.1904   21.1487 C   0  0  0  0  0  0  0  0  0  0  0  0
  -29.9690  -22.6883   17.9528 C   0  0  0  0  0  0  0  0  0  0  0  0
  -26.1904  -21.2537   21.5818 C   0  0  0  0  0  0  0  0  0  0  0  0
  -29.3183  -21.2328   16.2265 C   0  0  0  0  0  0  0  0  0  0  0  0
  -27.3942  -20.4250   14.3750 C   0  0  0  0  0  0  0  0  0  0  0  0
  -28.8048  -19.9368   16.2746 C   0  0  0  0  0  0  0  0  0  0  0  0
  -29.0265  -25.9611   20.4625 C   0  0  0  0  0  0  0  0  0  0  0  0
  -28.7692  -27.3036   22.1848 C   0  0  0  0  0  0  0  0  0  0  0  0
  -23.1476  -27.0716   22.9378 C   0  0  0  0  0  0  0  0  0  0  0  0
  -23.4665  -28.8996   21.8126 C   0  0  0  0  0  0  0  0  0  0  0  0
  -29.8190  -25.1080   22.7558 C   0  0  0  0  0  0  0  0  0  0  0  0
  -26.6040  -15.8838   20.9057 C   0  0  0  0  0  0  0  0  0  0  0  0
  -29.8188  -16.2620   20.6943 C   0  0  0  0  0  0  0  0  0  0  0  0
  -24.5155  -30.9919   21.0198 C   0  0  0  0  0  0  0  0  0  0  0  0
  -32.4987  -18.3737   20.7688 C   0  0  0  0  0  0  0  0  0  0  0  0
  -24.8516  -11.1261   20.3132 C   0  0  0  0  0  0  0  0  0  0  0  0
  -26.7826  -17.7237   19.1914 C   0  0  0  0  0  0  0  0  0  0  0  0
  -28.5029  -18.2413   21.5404 C   0  0  0  0  0  0  0  0  0  0  0  0
  -26.1120  -11.7607   20.8953 C   0  0  0  0  0  0  0  0  0  0  0  0
  -28.0229  -31.7251   21.0376 C   0  0  0  0  0  0  0  0  0  0  0  0
  -25.7473  -12.8916   21.8519 C   0  0  0  0  0  0  0  0  0  0  0  0
  -28.6756  -30.3532   21.2020 C   0  0  0  0  0  0  0  0  0  0  0  0
  -26.7097  -31.8147   21.8088 C   0  0  0  0  0  0  0  0  0  0  0  0
  -26.3785  -29.3695   21.6269 C   0  0  0  0  0  0  0  0  0  0  0  0
  -24.9862  -14.0061   21.1238 C   0  0  1  0  0  0  0  0  0  0  0  0
  -27.4967  -16.5947   19.9283 C   0  0  1  0  0  0  0  0  0  0  0  0
  -27.6925  -29.2262   20.8388 C   0  0  2  0  0  0  0  0  0  0  0  0
  -34.8899  -19.1091   20.5721 C   0  0  0  0  0  0  0  0  0  0  0  0
  -22.2922  -30.3795   20.1623 C   0  0  0  0  0  0  0  0  0  0  0  0
  -24.3665  -29.2119   19.4086 C   0  0  0  0  0  0  0  0  0  0  0  0
  -30.0081  -15.1733   23.5384 C   0  0  0  0  0  0  0  0  0  0  0  0
  -32.3374  -16.0837   23.6573 C   0  0  0  0  0  0  0  0  0  0  0  0
  -31.7705  -14.3280   21.9783 C   0  0  0  0  0  0  0  0  0  0  0  0
  -21.5349  -23.3289   24.8390 C   0  0  0  0  0  0  0  0  0  0  0  0
  -23.1901  -23.7112   26.6587 C   0  0  0  0  0  0  0  0  0  0  0  0
  -20.9814  -27.5377   20.9908 C   0  0  0  0  0  0  0  0  0  0  0  0
  -21.8489  -27.4370   18.6357 C   0  0  0  0  0  0  0  0  0  0  0  0
  -21.4609  -25.3122   19.9175 C   0  0  0  0  0  0  0  0  0  0  0  0
  -32.2092  -18.9361   17.8776 C   0  0  0  0  0  0  0  0  0  0  0  0
  -22.9216  -25.6093   23.2361 C   0  0  0  0  0  0  0  0  0  0  0  0
  -23.1225  -25.3063   24.7270 C   0  0  0  0  0  0  0  0  0  0  0  0
  -25.4463  -23.2294   24.5253 C   0  0  0  0  0  0  0  0  0  0  0  0
  -23.9584  -22.8730   24.3881 C   0  0  0  0  0  0  0  0  0  0  0  0
  -26.3349  -22.2868   23.7190 C   0  0  0  0  0  0  0  0  0  1  0  0
  -30.9108  -16.6825   21.6480 C   0  0  1  0  0  0  0  0  0  0  0  0
  -33.6930  -18.5186   19.8430 C   0  0  2  0  0  0  0  0  0  0  0  0
  -23.6519  -29.8071   20.6669 C   0  0  0  0  0  0  0  0  0  0  0  0
  -31.2348  -15.5840   22.6995 C   0  0  0  0  0  0  0  0  0  0  0  0
  -22.9705  -23.8140   25.1340 C   0  0  0  0  0  0  0  0  0  0  0  0
  -21.8781  -26.7790   20.0135 C   0  0  0  0  0  0  0  0  0  0  0  0
  -28.4602  -27.0572   19.9507 N   0  0  0  0  0  0  0  0  0  0  0  0
  -23.2508  -28.0548   23.8032 N   0  0  0  0  0  0  0  0  0  0  0  0
  -23.4537  -29.2178   23.0874 N   0  0  0  0  0  0  0  0  0  0  0  0
  -28.3161  -27.8549   21.0226 N   0  0  0  0  0  0  0  0  0  0  0  0
  -23.2774  -27.5581   21.6724 N   0  0  0  0  0  0  0  0  0  0  0  0
  -28.6657  -17.0595   20.6776 N   0  0  0  0  0  0  0  0  0  0  0  0
  -25.8124  -30.7143   21.4522 N   0  0  0  0  0  0  0  0  0  0  0  0
  -28.7007  -27.9698   23.3570 N   0  0  0  0  0  0  0  0  0  0  0  0
  -30.2533  -23.8771   22.2454 N   0  0  0  0  0  0  0  0  0  0  0  0
  -25.9008  -14.8270   20.3597 N   0  0  0  0  0  0  0  0  0  0  0  0
  -32.0477  -17.0717   20.8207 N   0  0  0  0  0  0  0  0  0  0  0  0
  -33.3548  -19.4089   18.6967 N   0  3  0  0  0  0  0  0  0  0  0  0
  -29.9303  -25.3370   23.9841 O   0  0  0  0  0  0  0  0  0  0  0  0
  -26.5579  -16.2648   22.0695 O   0  0  0  0  0  0  0  0  0  0  0  0
  -29.9857  -15.2667   19.9848 O   0  0  0  0  0  0  0  0  0  0  0  0
  -24.0505  -32.1295   20.9109 O   0  0  0  0  0  0  0  0  0  0  0  0
  -32.0165  -19.3201   21.3871 O   0  0  0  0  0  0  0  0  0  0  0  0
  -30.2728  -21.6356   17.1454 O   0  0  0  0  0  0  0  0  0  0  0  0
  -26.0051  -22.3730   22.3333 O   0  0  0  0  0  0  0  0  0  1  0  0
  -23.2280  -26.8392   20.4923 O   0  0  0  0  0  0  0  0  0  0  0  0
  -26.4693  -20.0378   13.4869 F   0  0  0  0  0  0  0  0  0  0  0  0
  -29.2311  -19.0756   17.2087 F   0  0  0  0  0  0  0  0  0  0  0  0
  1  2  1  0  0  0  0
  1  5  2  0  0  0  0
  2  6  2  0  0  0  0
  3  8  2  0  0  0  0
  3 15  1  0  0  0  0
  4  9  1  0  0  0  0
  4 15  2  0  0  0  0
  5 17  1  0  0  0  0
  6 19  1  0  0  0  0
  7 10  2  0  0  0  0
  7 18  1  0  0  0  0
  8 21  1  0  0  0  0
  9 21  2  0  0  0  0
 10 22  1  0  0  0  0
 11 12  2  0  0  0  0
 11 23  1  0  0  0  0
 12 24  1  0  0  0  0
 13 20  1  0  0  0  0
 13 22  2  0  0  0  0
 14 24  2  0  0  0  0
 14 25  1  0  0  0  0
 15 26  1  0  0  0  0
 16 26  1  0  0  0  0
 16 27  2  0  0  0  0
 16 30  1  0  0  0  0
 17 19  2  0  0  0  0
 17 35  1  0  0  0  0
 18 20  2  0  0  0  0
 18 36  1  0  0  0  0
 19 44  1  0  0  0  0
 20 37  1  0  0  0  0
 21 87  1  0  0  0  0
 22 88  1  0  0  0  0
 23 25  2  0  0  0  0
 23 87  1  0  0  0  0
 24 90  1  0  0  0  0
 25 91  1  0  0  0  0
 26 70  2  0  0  0  0
 27 73  1  0  0  0  0
 27 77  1  0  0  0  0
 28 59  1  0  0  0  0
 28 71  2  0  0  0  0
 28 74  1  0  0  0  0
 29 66  1  0  0  0  0
 29 72  2  0  0  0  0
 29 74  1  0  0  0  0
 30 78  1  0  0  0  0
 30 82  2  0  0  0  0
 31 45  1  0  0  0  0
 31 79  1  0  0  0  0
 31 83  2  0  0  0  0
 32 64  1  0  0  0  0
 32 75  1  0  0  0  0
 32 84  2  0  0  0  0
 33 66  1  0  0  0  0
 33 76  1  0  0  0  0
 33 85  2  0  0  0  0
 34 65  1  0  0  0  0
 34 80  1  0  0  0  0
 34 86  2  0  0  0  0
 35 38  1  0  0  0  0
 36 45  1  0  0  0  0
 37 75  1  0  0  0  0
 38 40  1  0  0  0  0
 39 41  1  0  0  0  0
 39 42  1  0  0  0  0
 40 44  1  0  0  0  0
 41 46  1  0  0  0  0
 42 76  1  0  0  0  0
 43 46  1  0  0  0  0
 43 76  1  0  0  0  0
 44 79  1  0  0  0  0
 45 75  1  0  0  0  0
 46 73  1  0  0  0  0
 47 65  1  0  0  0  0
 48 66  1  0  0  0  0
 49 66  1  0  0  0  0
 50 67  1  0  0  0  0
 51 67  1  0  0  0  0
 52 67  1  0  0  0  0
 53 68  1  0  0  0  0
 54 68  1  0  0  0  0
 55 69  1  0  0  0  0
 56 69  1  0  0  0  0
 57 69  1  0  0  0  0
 58 81  1  0  0  0  0
 59 60  1  0  0  0  0
 60 68  1  0  0  0  0
 61 62  1  0  0  0  0
 61 63  1  0  0  0  0
 62 68  1  0  0  0  0
 63 88  1  0  0  0  0
 64 67  1  0  0  0  0
 64 80  1  0  0  0  0
 65 81  1  0  0  0  0
 69 89  1  0  0  0  0
 70 73  1  0  0  0  0
 71 72  1  0  0  0  0
 74 89  1  0  0  0  0
M  CHG  1  81   1
M  ISO  4  33 100  63 101  66 100  88 101
M  END
> <Batch ID>
0066

> <Smiles>
CNC(C)C(=O)NC(C(=O)N1Cc2cc([101O:1][101CH2:1]CCC(C)(C)CCc3nnc([100C:0](C)(C)[100C:0](=O)N4CCCC(n5nc(-c6ccc(Oc7ccc(F)cc7F)cc6)c(C(N)=O)c5N)C4)n3OC(C)(C)C)ccc2CC1C(=O)NC1CCCc2ccccc21)C(C)(C)C

> <Shape>
0.214

> <Color>
0.067

> <Negative vol penalty>
0.000

$$$$

  -OEChem-04052318093D

 90 98  0     1  0  0  0  0  0999 V2000
  -29.1713  -32.5870   23.7646 C   0  0  0  0  0  0  0  0  0  0  0  0
  -28.9372  -31.2202   23.6536 C   0  0  0  0  0  0  0  0  0  0  0  0
  -24.6114  -13.1464   24.1672 C   0  0  0  0  0  0  0  0  0  0  0  0
  -24.3352  -15.2574   23.0250 C   0  0  0  0  0  0  0  0  0  0  0  0
  -28.1037  -33.4625   23.9583 C   0  0  0  0  0  0  0  0  0  0  0  0
  -27.6352  -30.7279   23.7373 C   0  0  0  0  0  0  0  0  0  0  0  0
  -26.6327  -27.2707   20.1754 C   0  0  0  0  0  0  0  0  0  0  0  0
  -24.2356  -13.7472   25.3685 C   0  0  0  0  0  0  0  0  0  0  0  0
  -23.9593  -15.8582   24.2264 C   0  0  0  0  0  0  0  0  0  0  0  0
  -27.1252  -25.9828   20.3815 C   0  0  0  0  0  0  0  0  0  0  0  0
  -25.6565  -15.7163   27.7197 C   0  0  0  0  0  0  0  0  0  0  0  0
  -26.4179  -15.4299   28.8527 C   0  0  0  0  0  0  0  0  0  0  0  0
  -24.9496  -25.2806   21.1516 C   0  0  0  0  0  0  0  0  0  0  0  0
  -24.4603  -14.5214   29.9387 C   0  0  0  0  0  0  0  0  0  0  0  0
  -30.2613  -16.1671   21.9232 C   0  0  0  0  0  0  0  0  0  0  0  0
  -24.6613  -13.9015   22.9954 C   0  0  0  0  0  0  0  0  0  0  0  0
  -24.2065  -12.6621   20.8126 C   0  0  0  0  0  0  0  0  0  0  0  0
  -26.7870  -32.9817   24.0347 C   0  0  0  0  0  0  0  0  0  0  0  0
  -25.2955  -27.5765   20.4665 C   0  0  0  0  0  0  0  0  0  0  0  0
  -26.5491  -31.5977   23.9335 C   0  0  0  0  0  0  0  0  0  0  0  0
  -24.4419  -26.5725   20.9458 C   0  0  0  0  0  0  0  0  0  0  0  0
  -23.9095  -15.1031   25.3982 C   0  0  0  0  0  0  0  0  0  0  0  0
  -26.2844  -24.9883   20.8724 C   0  0  0  0  0  0  0  0  0  0  0  0
  -24.2969  -15.4054   27.6962 C   0  0  0  0  0  0  0  0  0  0  0  0
  -25.8199  -14.8324   29.9622 C   0  0  0  0  0  0  0  0  0  0  0  0
  -23.6988  -14.8079   28.8057 C   0  0  0  0  0  0  0  0  0  0  0  0
  -25.0500  -13.2816   21.7541 C   0  0  0  0  0  0  0  0  0  0  0  0
  -29.0239  -16.6419   21.5912 C   0  0  0  0  0  0  0  0  0  0  0  0
  -25.0546  -12.2366   19.8194 C   0  0  0  0  0  0  0  0  0  0  0  0
  -30.0027  -15.9304   19.7375 C   0  0  0  0  0  0  0  0  0  0  0  0
  -22.7837  -12.4869   20.8338 C   0  0  0  0  0  0  0  0  0  0  0  0
  -23.8340  -29.5585   22.4764 C   0  0  0  0  0  0  0  0  0  0  0  0
  -21.1731  -28.5580   20.9141 C   0  0  0  0  0  0  0  0  0  0  0  0
  -30.4932  -14.1306   18.1028 C   0  0  0  0  0  0  0  0  0  0  0  0
  -19.6467  -26.1468   19.0425 C   0  0  0  0  0  0  0  0  0  0  0  0
  -25.6700  -33.9619   24.2921 C   0  0  0  0  0  0  0  0  0  0  0  0
  -24.7727  -28.9639   20.2133 C   0  0  0  0  0  0  0  0  0  0  0  0
  -22.9931  -26.8443   21.2548 C   0  0  0  0  0  0  0  0  0  0  0  0
  -24.2834  -33.3970   23.9949 C   0  0  0  0  0  0  0  0  0  0  0  0
  -29.5546  -10.8139   19.0822 C   0  0  0  0  0  0  0  0  0  0  0  0
  -24.1332  -32.0047   24.5997 C   0  0  0  0  0  0  0  0  0  0  0  0
  -28.2307  -11.0179   19.8176 C   0  0  0  0  0  0  0  0  0  0  0  0
  -30.5108  -11.9784   19.3203 C   0  0  0  0  0  0  0  0  0  0  0  0
  -28.6153  -13.5209   19.7070 C   0  0  0  0  0  0  0  0  0  0  0  0
  -25.1485  -31.0278   23.9943 C   0  0  1  0  0  0  0  0  0  0  0  0
  -23.5265  -29.2912   21.0301 C   0  0  1  0  0  0  0  0  0  0  0  0
  -27.6087  -12.3815   19.4682 C   0  0  2  0  0  0  0  0  0  0  0  0
  -33.2644  -16.1999   20.7224 C   0  0  0  0  0  0  0  0  0  0  0  0
  -27.9034  -16.6077   23.8348 C   0  0  0  0  0  0  0  0  0  0  0  0
  -17.4572  -25.5944   17.9478 C   0  0  0  0  0  0  0  0  0  0  0  0
  -31.4894  -16.2805   17.6632 C   0  0  0  0  0  0  0  0  0  0  0  0
  -19.9942  -27.8460   23.6368 C   0  0  0  0  0  0  0  0  0  0  0  0
  -18.2752  -26.4633   22.4531 C   0  0  0  0  0  0  0  0  0  0  0  0
  -18.3860  -28.9230   22.0531 C   0  0  0  0  0  0  0  0  0  0  0  0
  -20.8793  -26.0656   16.3531 C   0  0  0  0  0  0  0  0  0  0  0  0
  -27.8678  -21.0182   21.3861 C   0  0  0  0  0  0  0  0  0  0  0  0
  -27.8566  -19.4977   21.2094 C   0  0  0  0  0  0  0  0  0  0  0  0
  -27.7300  -21.7812   20.0684 C   0  0  0  0  0  0  0  0  0  0  0  0
  -28.0176  -18.7835   22.5579 C   0  0  0  0  0  0  0  0  0  0  0  0
  -32.1679  -15.1509   20.6537 C   0  0  0  0  0  0  0  0  0  0  0  0
  -27.8216  -23.2933   20.2243 C   0  0  0  0  0  0  0  0  0  1  0  0
  -27.9200  -17.2474   22.4410 C   0  0  1  0  0  0  0  0  0  0  0  0
  -20.1874  -27.4292   21.0962 C   0  0  1  0  0  0  0  0  0  0  0  0
  -18.8271  -26.2296   17.7674 C   0  0  2  0  0  0  0  0  0  0  0  0
  -30.2392  -15.6026   18.3094 C   0  0  2  0  0  0  0  0  0  0  0  0
  -19.2384  -27.6604   22.3059 C   0  0  0  0  0  0  0  0  0  0  0  0
  -29.0164  -15.9786   17.4325 C   0  0  0  0  0  0  0  0  0  0  0  0
  -26.3353  -13.2542   21.3917 N   0  0  0  0  0  0  0  0  0  0  0  0
  -30.8445  -15.7329   20.7572 N   0  0  0  0  0  0  0  0  0  0  0  0
  -26.3057  -12.6123   20.2114 N   0  0  0  0  0  0  0  0  0  0  0  0
  -28.8908  -16.4833   20.2328 N   0  3  0  0  0  0  0  0  0  0  0  0
  -22.5308  -28.2180   20.9966 N   0  0  0  0  0  0  0  0  0  0  0  0
  -29.8752  -13.2573   18.9982 N   0  0  0  0  0  0  0  0  0  0  0  0
  -24.8446  -11.5815   18.6579 N   0  0  0  0  0  0  0  0  0  0  0  0
  -22.0654  -12.9848   21.9294 N   0  0  0  0  0  0  0  0  0  0  0  0
  -24.7177  -30.6011   22.6803 N   0  0  0  0  0  0  0  0  0  0  0  0
  -19.5002  -27.2773   19.8182 N   0  0  0  0  0  0  0  0  0  0  0  0
  -19.5277  -25.5280   16.6548 N   0  3  0  0  0  0  0  0  0  0  0  0
  -22.1694  -11.8914   19.9164 O   0  0  0  0  0  0  0  0  0  0  0  0
  -23.3074  -28.8708   23.3432 O   0  0  0  0  0  0  0  0  0  0  0  0
  -20.7540  -29.6981   20.6993 O   0  0  0  0  0  0  0  0  0  0  0  0
  -31.2169  -13.7694   17.1712 O   0  0  0  0  0  0  0  0  0  0  0  0
  -20.3440  -25.1747   19.3242 O   0  0  0  0  0  0  0  0  0  0  0  0
  -23.5425  -15.6897   26.5703 O   0  0  0  0  0  0  0  0  0  0  0  0
  -26.7627  -23.7305   21.0752 O   0  0  0  0  0  0  0  0  0  1  0  0
  -26.5515  -14.5560   31.0496 F   0  0  0  0  0  0  0  0  0  0  0  0
  -22.3933  -14.5058   28.7885 F   0  0  0  0  0  0  0  0  0  0  0  0
  -28.7605  -17.3045   17.5192 F   0  0  0  0  0  0  0  0  0  0  0  0
  -29.1989  -15.6923   16.1221 F   0  0  0  0  0  0  0  0  0  0  0  0
  -27.9031  -15.3252   17.8329 F   0  0  0  0  0  0  0  0  0  0  0  0
  1  2  1  0  0  0  0
  1  5  2  0  0  0  0
  2  6  2  0  0  0  0
  3  8  2  0  0  0  0
  3 16  1  0  0  0  0
  4  9  1  0  0  0  0
  4 16  2  0  0  0  0
  5 18  1  0  0  0  0
  6 20  1  0  0  0  0
  7 10  2  0  0  0  0
  7 19  1  0  0  0  0
  8 22  1  0  0  0  0
  9 22  2  0  0  0  0
 10 23  1  0  0  0  0
 11 12  2  0  0  0  0
 11 24  1  0  0  0  0
 12 25  1  0  0  0  0
 13 21  1  0  0  0  0
 13 23  2  0  0  0  0
 14 25  2  0  0  0  0
 14 26  1  0  0  0  0
 15 28  2  0  0  0  0
 15 69  1  0  0  0  0
 16 27  1  0  0  0  0
 17 27  1  0  0  0  0
 17 29  2  0  0  0  0
 17 31  1  0  0  0  0
 18 20  2  0  0  0  0
 18 36  1  0  0  0  0
 19 21  2  0  0  0  0
 19 37  1  0  0  0  0
 20 45  1  0  0  0  0
 21 38  1  0  0  0  0
 22 84  1  0  0  0  0
 23 85  1  0  0  0  0
 24 26  2  0  0  0  0
 24 84  1  0  0  0  0
 25 86  1  0  0  0  0
 26 87  1  0  0  0  0
 27 68  2  0  0  0  0
 28 62  1  0  0  0  0
 28 71  1  0  0  0  0
 29 70  1  0  0  0  0
 29 74  1  0  0  0  0
 30 65  1  0  0  0  0
 30 69  1  0  0  0  0
 30 71  2  0  0  0  0
 31 75  1  0  0  0  0
 31 79  2  0  0  0  0
 32 46  1  0  0  0  0
 32 76  1  0  0  0  0
 32 80  2  0  0  0  0
 33 63  1  0  0  0  0
 33 72  1  0  0  0  0
 33 81  2  0  0  0  0
 34 65  1  0  0  0  0
 34 73  1  0  0  0  0
 34 82  2  0  0  0  0
 35 64  1  0  0  0  0
 35 77  1  0  0  0  0
 35 83  2  0  0  0  0
 36 39  1  0  0  0  0
 37 46  1  0  0  0  0
 38 72  1  0  0  0  0
 39 41  1  0  0  0  0
 40 42  1  0  0  0  0
 40 43  1  0  0  0  0
 41 45  1  0  0  0  0
 42 47  1  0  0  0  0
 43 73  1  0  0  0  0
 44 47  1  0  0  0  0
 44 73  1  0  0  0  0
 45 76  1  0  0  0  0
 46 72  1  0  0  0  0
 47 70  1  0  0  0  0
 48 60  1  0  0  0  0
 49 62  1  0  0  0  0
 50 64  1  0  0  0  0
 51 65  1  0  0  0  0
 52 66  1  0  0  0  0
 53 66  1  0  0  0  0
 54 66  1  0  0  0  0
 55 78  1  0  0  0  0
 56 57  1  0  0  0  0
 56 58  1  0  0  0  0
 57 59  1  0  0  0  0
 58 61  1  0  0  0  0
 59 62  1  0  0  0  0
 60 69  1  0  0  0  0
 61 85  1  0  0  0  0
 63 66  1  0  0  0  0
 63 77  1  0  0  0  0
 64 78  1  0  0  0  0
 65 67  1  0  0  0  0
 67 88  1  0  0  0  0
 67 89  1  0  0  0  0
 67 90  1  0  0  0  0
 68 70  1  0  0  0  0
M  CHG  2  71   1  78   1
M  ISO  4  34 100  61 101  65 100  85 101
M  END
> <Batch ID>
0066

> <Smiles>
CCn1cc(C(C)CCCC[101CH2:1][101O:1]c2ccc3c(c2)CN(C(=O)C(NC(=O)C(C)NC)C(C)(C)C)C(C(=O)NC2CCCc4ccccc42)C3)nc1[100C:0](C)([100C:0](=O)N1CCCC(n2nc(-c3ccc(Oc4ccc(F)cc4F)cc3)c(C(N)=O)c2N)C1)C(F)(F)F

> <Shape>
0.257

> <Color>
0.067

> <Negative vol penalty>
0.000

$$$$

  -OEChem-04052318093D

 94102  0     1  0  0  0  0  0999 V2000
  -24.0582  -29.5294   24.9972 C   0  0  0  0  0  0  0  0  0  0  0  0
  -24.2015  -28.1984   24.6184 C   0  0  0  0  0  0  0  0  0  0  0  0
  -18.8574  -22.6466   20.7925 C   0  0  0  0  0  0  0  0  0  0  0  0
  -19.0201  -23.1585   18.4370 C   0  0  0  0  0  0  0  0  0  0  0  0
  -24.6411  -30.5377   24.2308 C   0  0  0  0  0  0  0  0  0  0  0  0
  -24.9269  -27.8751   23.4722 C   0  0  0  0  0  0  0  0  0  0  0  0
  -28.0825  -23.9826   24.2039 C   0  0  0  0  0  0  0  0  0  0  0  0
  -18.5985  -23.9896   21.0665 C   0  0  0  0  0  0  0  0  0  0  0  0
  -18.7611  -24.5014   18.7109 C   0  0  0  0  0  0  0  0  0  0  0  0
  -27.5269  -22.7039   24.2041 C   0  0  0  0  0  0  0  0  0  0  0  0
  -20.3634  -26.8578   21.3536 C   0  0  0  0  0  0  0  0  0  0  0  0
  -21.0417  -27.4428   22.4229 C   0  0  0  0  0  0  0  0  0  0  0  0
  -28.2604  -22.3913   21.9274 C   0  0  0  0  0  0  0  0  0  0  0  0
  -18.9319  -27.9305   23.4943 C   0  0  0  0  0  0  0  0  0  0  0  0
  -19.0682  -22.2311   19.4777 C   0  0  0  0  0  0  0  0  0  0  0  0
  -18.3944  -19.8370   18.9101 C   0  0  0  0  0  0  0  0  0  0  0  0
  -25.3822  -30.2260   23.0801 C   0  0  0  0  0  0  0  0  0  0  0  0
  -28.7228  -24.4802   23.0598 C   0  0  0  0  0  0  0  0  0  0  0  0
  -25.5192  -28.8804   22.6890 C   0  0  0  0  0  0  0  0  0  0  0  0
  -28.8255  -23.6756   21.9160 C   0  0  0  0  0  0  0  0  0  0  0  0
  -24.5726  -13.2185   19.9843 C   0  0  0  0  0  0  0  0  0  0  0  0
  -18.5504  -24.9170   20.0257 C   0  0  0  0  0  0  0  0  0  0  0  0
  -27.6133  -21.9091   23.0649 C   0  0  0  0  0  0  0  0  0  0  0  0
  -18.9694  -26.8092   21.3546 C   0  0  0  0  0  0  0  0  0  0  0  0
  -20.3259  -27.9791   23.4932 C   0  0  0  0  0  0  0  0  0  0  0  0
  -18.2536  -27.3455   22.4250 C   0  0  0  0  0  0  0  0  0  0  0  0
  -19.3363  -20.8440   19.1942 C   0  0  0  0  0  0  0  0  0  0  0  0
  -24.4358  -14.5941   20.2505 C   0  0  0  0  0  0  0  0  0  0  0  0
  -25.9285  -12.9994   19.9973 C   0  0  0  0  0  0  0  0  0  0  0  0
  -19.1491  -18.7061   18.7156 C   0  0  0  0  0  0  0  0  0  0  0  0
  -16.9652  -19.9168   18.8292 C   0  0  0  0  0  0  0  0  0  0  0  0
  -23.1946  -15.3713   20.3537 C   0  0  0  0  0  0  0  0  0  0  0  0
  -28.2251  -26.9312   21.0979 C   0  0  0  0  0  0  0  0  0  0  0  0
  -31.0467  -25.9740   19.8155 C   0  0  0  0  0  0  0  0  0  0  0  0
  -33.2970  -23.4572   19.3168 C   0  0  0  0  0  0  0  0  0  0  0  0
  -25.9540  -31.3533   22.2574 C   0  0  0  0  0  0  0  0  0  0  0  0
  -29.3403  -25.8515   23.0845 C   0  0  0  0  0  0  0  0  0  0  0  0
  -29.5203  -24.1554   20.6688 C   0  0  0  0  0  0  0  0  0  0  0  0
  -27.0223  -30.9020   21.2648 C   0  0  0  0  0  0  0  0  0  0  0  0
  -24.1420  -18.1214   18.1843 C   0  0  0  0  0  0  0  0  0  0  0  0
  -26.5580  -29.6615   20.5081 C   0  0  0  0  0  0  0  0  0  0  0  0
  -22.8945  -19.0034   18.2495 C   0  0  0  0  0  0  0  0  0  0  0  0
  -24.4170  -17.4474   19.5250 C   0  0  0  0  0  0  0  0  0  0  0  0
  -22.0188  -17.5335   20.1208 C   0  0  0  0  0  0  0  0  0  0  0  0
  -26.3195  -28.4881   21.4660 C   0  0  1  0  0  0  0  0  0  0  0  0
  -29.5186  -26.4517   21.6933 C   0  0  1  0  0  0  0  0  0  0  0  0
  -21.6834  -18.2167   18.7836 C   0  0  1  0  0  0  0  0  0  0  0  0
  -35.4893  -22.9679   18.1979 C   0  0  0  0  0  0  0  0  0  0  0  0
  -29.6418  -25.8817   17.1085 C   0  0  0  0  0  0  0  0  0  0  0  0
  -31.5506  -24.5125   16.2427 C   0  0  0  0  0  0  0  0  0  0  0  0
  -31.9522  -26.8374   17.0527 C   0  0  0  0  0  0  0  0  0  0  0  0
  -28.2747  -13.3321   22.6234 C   0  0  0  0  0  0  0  0  0  0  0  0
  -30.0988  -14.7423   21.6918 C   0  0  0  0  0  0  0  0  0  0  0  0
  -34.5899  -22.7733   21.8897 C   0  0  0  0  0  0  0  0  0  0  0  0
  -28.1603  -17.2017   21.9735 C   0  0  0  0  0  0  0  0  0  0  0  0
  -27.5243  -18.2967   22.8385 C   0  0  0  0  0  0  0  0  0  0  0  0
  -27.9985  -15.8226   22.6271 C   0  0  0  0  0  0  0  0  0  0  0  0
  -27.9758  -14.5124   20.3803 C   0  0  0  0  0  0  0  0  0  0  0  0
  -27.6952  -19.6836   22.2303 C   0  0  0  0  0  0  0  0  0  1  0  0
  -31.4543  -25.0101   18.7275 C   0  0  1  0  0  0  0  0  0  0  0  0
  -34.8051  -23.4068   19.4832 C   0  0  2  0  0  0  0  0  0  0  0  0
  -23.5061  -12.2305   19.7446 C   0  0  0  0  0  0  0  0  0  0  0  0
  -26.7185  -11.7715   19.7872 C   0  0  0  0  0  0  0  0  0  0  0  0
  -31.1349  -25.5518   17.3055 C   0  0  0  0  0  0  0  0  0  0  0  0
  -28.5642  -14.6192   21.8203 C   0  0  0  0  0  0  0  0  0  0  0  0
  -23.0151  -11.5563   21.0255 C   0  0  0  0  0  0  0  0  0  0  0  0
  -20.5933  -20.3926   19.1824 N   0  0  0  0  0  0  0  0  0  0  0  0
  -25.6108  -15.2059   20.4201 N   0  0  0  0  0  0  0  0  0  0  0  0
  -26.4991  -14.2101   20.2602 N   0  0  0  0  0  0  0  0  0  0  0  0
  -20.4466  -19.0894   18.8886 N   0  0  0  0  0  0  0  0  0  0  0  0
  -23.2301  -16.7206   19.9934 N   0  0  0  0  0  0  0  0  0  0  0  0
  -30.1026  -25.5057   20.7403 N   0  0  0  0  0  0  0  0  0  0  0  0
  -18.8229  -17.4310   18.4153 N   0  0  0  0  0  0  0  0  0  0  0  0
  -16.3512  -21.1560   19.0568 N   0  0  0  0  0  0  0  0  0  0  0  0
  -27.5783  -27.8893   21.8550 N   0  0  0  0  0  0  0  0  0  0  0  0
  -32.8653  -24.7147   18.9514 N   0  0  0  0  0  0  0  0  0  0  0  0
  -35.1753  -22.4490   20.5634 N   0  3  0  0  0  0  0  0  0  0  0  0
  -16.2525  -18.9153   18.5791 O   0  0  0  0  0  0  0  0  0  0  0  0
  -22.2024  -14.7593   20.7463 O   0  0  0  0  0  0  0  0  0  0  0  0
  -27.8429  -26.4673   20.0300 O   0  0  0  0  0  0  0  0  0  0  0  0
  -31.5528  -27.0985   19.8479 O   0  0  0  0  0  0  0  0  0  0  0  0
  -32.5747  -22.4780   19.4898 O   0  0  0  0  0  0  0  0  0  0  0  0
  -18.2975  -26.2275   20.2926 O   0  0  0  0  0  0  0  0  0  0  0  0
  -27.0713  -20.6609   23.0622 O   0  0  0  0  0  0  0  0  0  1  0  0
  -20.9774  -28.5394   24.5207 F   0  0  0  0  0  0  0  0  0  0  0  0
  -16.9143  -27.3008   22.4321 F   0  0  0  0  0  0  0  0  0  0  0  0
  -22.3881  -12.7642   19.1387 F   0  0  0  0  0  0  0  0  0  0  0  0
  -23.8812  -11.2116   18.8941 F   0  0  0  0  0  0  0  0  0  0  0  0
  -25.9648  -10.6526   19.5345 F   0  0  0  0  0  0  0  0  0  0  0  0
  -27.5936  -11.8388   18.7320 F   0  0  0  0  0  0  0  0  0  0  0  0
  -27.4947  -11.4358   20.8666 F   0  0  0  0  0  0  0  0  0  0  0  0
  -22.5139  -12.4566   21.9010 F   0  0  0  0  0  0  0  0  0  0  0  0
  -24.0208  -10.9029   21.6459 F   0  0  0  0  0  0  0  0  0  0  0  0
  -22.0393  -10.6619   20.7593 F   0  0  0  0  0  0  0  0  0  0  0  0
  1  2  1  0  0  0  0
  1  5  2  0  0  0  0
  2  6  2  0  0  0  0
  3  8  2  0  0  0  0
  3 15  1  0  0  0  0
  4  9  1  0  0  0  0
  4 15  2  0  0  0  0
  5 17  1  0  0  0  0
  6 19  1  0  0  0  0
  7 10  2  0  0  0  0
  7 18  1  0  0  0  0
  8 22  1  0  0  0  0
  9 22  2  0  0  0  0
 10 23  1  0  0  0  0
 11 12  2  0  0  0  0
 11 24  1  0  0  0  0
 12 25  1  0  0  0  0
 13 20  1  0  0  0  0
 13 23  2  0  0  0  0
 14 25  2  0  0  0  0
 14 26  1  0  0  0  0
 15 27  1  0  0  0  0
 16 27  1  0  0  0  0
 16 30  2  0  0  0  0
 16 31  1  0  0  0  0
 17 19  2  0  0  0  0
 17 36  1  0  0  0  0
 18 20  2  0  0  0  0
 18 37  1  0  0  0  0
 19 45  1  0  0  0  0
 20 38  1  0  0  0  0
 21 28  1  0  0  0  0
 21 29  2  0  0  0  0
 21 62  1  0  0  0  0
 22 83  1  0  0  0  0
 23 84  1  0  0  0  0
 24 26  2  0  0  0  0
 24 83  1  0  0  0  0
 25 85  1  0  0  0  0
 26 86  1  0  0  0  0
 27 67  2  0  0  0  0
 28 32  1  0  0  0  0
 28 68  2  0  0  0  0
 29 63  1  0  0  0  0
 29 69  1  0  0  0  0
 30 70  1  0  0  0  0
 30 73  1  0  0  0  0
 31 74  1  0  0  0  0
 31 78  2  0  0  0  0
 32 71  1  0  0  0  0
 32 79  2  0  0  0  0
 33 46  1  0  0  0  0
 33 75  1  0  0  0  0
 33 80  2  0  0  0  0
 34 60  1  0  0  0  0
 34 72  1  0  0  0  0
 34 81  2  0  0  0  0
 35 61  1  0  0  0  0
 35 76  1  0  0  0  0
 35 82  2  0  0  0  0
 36 39  1  0  0  0  0
 37 46  1  0  0  0  0
 38 72  1  0  0  0  0
 39 41  1  0  0  0  0
 40 42  1  0  0  0  0
 40 43  1  0  0  0  0
 41 45  1  0  0  0  0
 42 47  1  0  0  0  0
 43 71  1  0  0  0  0
 44 47  1  0  0  0  0
 44 71  1  0  0  0  0
 45 75  1  0  0  0  0
 46 72  1  0  0  0  0
 47 70  1  0  0  0  0
 48 61  1  0  0  0  0
 49 64  1  0  0  0  0
 50 64  1  0  0  0  0
 51 64  1  0  0  0  0
 52 65  1  0  0  0  0
 53 65  1  0  0  0  0
 54 77  1  0  0  0  0
 55 56  1  0  0  0  0
 55 57  1  0  0  0  0
 56 59  1  0  0  0  0
 57 65  1  0  0  0  0
 58 65  1  0  0  0  0
 58 69  1  0  0  0  0
 59 84  1  0  0  0  0
 60 64  1  0  0  0  0
 60 76  1  0  0  0  0
 61 77  1  0  0  0  0
 62 66  1  0  0  0  0
 62 87  1  0  0  0  0
 62 88  1  0  0  0  0
 63 89  1  0  0  0  0
 63 90  1  0  0  0  0
 63 91  1  0  0  0  0
 66 92  1  0  0  0  0
 66 93  1  0  0  0  0
 66 94  1  0  0  0  0
 67 70  1  0  0  0  0
 68 69  1  0  0  0  0
M  CHG  1  77   1
M  ISO  4  28 100  32 100  59 101  84 101
M  END
> <Batch ID>
0066

> <Smiles>
CNC(C)C(=O)NC(C(=O)N1Cc2cc([101O:1][101CH2:1]CCCC(C)(C)Cn3n[100c:0]([100C:0](=O)N4CCCC(n5nc(-c6ccc(Oc7ccc(F)cc7F)cc6)c(C(N)=O)c5N)C4)c(C(F)(F)C(F)(F)F)c3C(F)(F)F)ccc2CC1C(=O)NC1CCCc2ccccc21)C(C)(C)C

> <Shape>
0.233

> <Color>
0.069

> <Negative vol penalty>
0.000

$$$$

  -OEChem-04052318093D

 89 97  0     1  0  0  0  0  0999 V2000
  -20.3388  -25.1062   24.9772 C   0  0  0  0  0  0  0  0  0  0  0  0
  -21.4139  -25.0929   24.0943 C   0  0  0  0  0  0  0  0  0  0  0  0
  -22.8512  -15.9501   21.8175 C   0  0  0  0  0  0  0  0  0  0  0  0
  -23.8012  -17.8612   20.6852 C   0  0  0  0  0  0  0  0  0  0  0  0
  -19.3080  -26.0290   24.8046 C   0  0  0  0  0  0  0  0  0  0  0  0
  -21.4581  -26.0016   23.0376 C   0  0  0  0  0  0  0  0  0  0  0  0
  -26.0211  -28.1301   22.4955 C   0  0  0  0  0  0  0  0  0  0  0  0
  -22.1260  -16.8033   22.6492 C   0  0  0  0  0  0  0  0  0  0  0  0
  -23.0760  -18.7145   21.5168 C   0  0  0  0  0  0  0  0  0  0  0  0
  -27.0089  -27.3686   21.8725 C   0  0  0  0  0  0  0  0  0  0  0  0
  -19.7483  -18.4747   24.8327 C   0  0  0  0  0  0  0  0  0  0  0  0
  -18.4060  -18.1717   25.0607 C   0  0  0  0  0  0  0  0  0  0  0  0
  -26.6178  -28.5587   19.8110 C   0  0  0  0  0  0  0  0  0  0  0  0
  -17.9622  -18.3560   22.6930 C   0  0  0  0  0  0  0  0  0  0  0  0
  -28.8848  -19.9330   18.8396 C   0  0  0  0  0  0  0  0  0  0  0  0
  -31.0662  -20.3667   19.5535 C   0  0  0  0  0  0  0  0  0  0  0  0
  -23.6889  -16.4791   20.8355 C   0  0  0  0  0  0  0  0  0  0  0  0
  -24.0303  -15.0677   18.7381 C   0  0  0  0  0  0  0  0  0  0  0  0
  -19.3443  -26.9558   23.7509 C   0  0  0  0  0  0  0  0  0  0  0  0
  -25.3154  -29.1058   21.7768 C   0  0  0  0  0  0  0  0  0  0  0  0
  -20.4261  -26.9367   22.8499 C   0  0  0  0  0  0  0  0  0  0  0  0
  -25.6232  -29.3330   20.4278 C   0  0  0  0  0  0  0  0  0  0  0  0
  -29.9002  -20.8538   18.9990 C   0  0  0  0  0  0  0  0  0  0  0  0
  -22.2383  -18.1855   22.4988 C   0  0  0  0  0  0  0  0  0  0  0  0
  -27.3054  -27.5809   20.5293 C   0  0  0  0  0  0  0  0  0  0  0  0
  -20.1975  -18.7184   23.5348 C   0  0  0  0  0  0  0  0  0  0  0  0
  -17.5129  -18.1123   23.9909 C   0  0  0  0  0  0  0  0  0  0  0  0
  -19.3045  -18.6591   22.4650 C   0  0  0  0  0  0  0  0  0  0  0  0
  -24.4387  -15.5982   19.9765 C   0  0  0  0  0  0  0  0  0  0  0  0
  -25.0913  -14.2982   18.3276 C   0  0  0  0  0  0  0  0  0  0  0  0
  -30.1753  -18.2821   19.7205 C   0  0  0  0  0  0  0  0  0  0  0  0
  -22.8018  -15.2540   18.0228 C   0  0  0  0  0  0  0  0  0  0  0  0
  -22.2670  -29.5466   20.9917 C   0  0  0  0  0  0  0  0  0  0  0  0
  -23.3751  -32.3723   19.8473 C   0  0  0  0  0  0  0  0  0  0  0  0
  -30.9488  -14.5046   19.6542 C   0  0  0  0  0  0  0  0  0  0  0  0
  -26.0128  -34.1823   18.6586 C   0  0  0  0  0  0  0  0  0  0  0  0
  -18.1836  -27.9030   23.5768 C   0  0  0  0  0  0  0  0  0  0  0  0
  -24.2713  -29.9371   22.4703 C   0  0  0  0  0  0  0  0  0  0  0  0
  -24.9087  -30.3821   19.6172 C   0  0  0  0  0  0  0  0  0  0  0  0
  -18.4901  -29.0786   22.6526 C   0  0  0  0  0  0  0  0  0  0  0  0
  -28.7319  -11.7141   20.0267 C   0  0  0  0  0  0  0  0  0  0  0  0
  -19.1815  -28.5930   21.3825 C   0  0  0  0  0  0  0  0  0  0  0  0
  -27.3431  -12.3492   19.9721 C   0  0  0  0  0  0  0  0  0  0  0  0
  -29.7377  -12.6294   20.7179 C   0  0  0  0  0  0  0  0  0  0  0  0
  -28.4410  -14.6320   20.0621 C   0  0  0  0  0  0  0  0  0  0  0  0
  -20.5222  -27.9228   21.7060 C   0  0  1  0  0  0  0  0  0  0  0  0
  -23.2591  -30.5502   21.5074 C   0  0  1  0  0  0  0  0  0  0  0  0
  -27.4015  -13.7531   19.3443 C   0  0  2  0  0  0  0  0  0  0  0  0
  -26.6018  -36.4533   17.7679 C   0  0  0  0  0  0  0  0  0  0  0  0
  -29.9371  -15.7738   17.8237 C   0  0  0  0  0  0  0  0  0  0  0  0
  -22.0612  -31.6663   17.1854 C   0  0  0  0  0  0  0  0  0  0  0  0
  -23.4518  -33.4468   16.1064 C   0  0  0  0  0  0  0  0  0  0  0  0
  -21.8020  -34.0561   17.8754 C   0  0  0  0  0  0  0  0  0  0  0  0
  -27.9350  -34.6730   20.8549 C   0  0  0  0  0  0  0  0  0  0  0  0
  -29.7444  -22.2985   18.5958 C   0  0  0  0  0  0  0  0  0  0  0  0
  -29.1989  -23.1972   19.7111 C   0  0  0  0  0  0  0  0  0  0  0  0
  -28.9753  -24.6415   19.2607 C   0  0  0  0  0  0  0  0  0  0  0  0
  -28.4717  -25.5120   20.4039 C   0  0  0  0  0  0  0  0  0  1  0  0
  -23.9258  -32.8478   18.5246 C   0  0  1  0  0  0  0  0  0  0  0  0
  -26.5186  -35.5713   19.0041 C   0  0  2  0  0  0  0  0  0  0  0  0
  -30.3277  -16.8549   20.1245 C   0  0  0  0  0  0  0  0  0  0  0  0
  -30.8780  -15.8769   19.0332 C   0  0  1  0  0  0  0  0  0  0  0  0
  -22.8225  -32.9831   17.4374 C   0  0  0  0  0  0  0  0  0  0  0  0
  -32.2895  -16.2360   18.5601 C   0  0  0  0  0  0  0  0  0  0  0  0
  -28.9885  -18.6345   19.1907 N   0  0  0  0  0  0  0  0  0  0  0  0
  -31.2389  -19.0819   19.9274 N   0  0  0  0  0  0  0  0  0  0  0  0
  -25.6635  -15.1993   20.3296 N   0  0  0  0  0  0  0  0  0  0  0  0
  -26.0339  -14.4098   19.3070 N   0  0  0  0  0  0  0  0  0  0  0  0
  -23.8916  -31.1649   20.3385 N   0  0  0  0  0  0  0  0  0  0  0  0
  -29.7470  -13.9598   20.1069 N   0  0  0  0  0  0  0  0  0  0  0  0
  -25.3006  -13.5435   17.2280 N   0  0  0  0  0  0  0  0  0  0  0  0
  -21.8179  -16.0769   18.5877 N   0  0  0  0  0  0  0  0  0  0  0  0
  -21.5329  -28.9213   21.9815 N   0  0  0  0  0  0  0  0  0  0  0  0
  -24.6450  -34.0862   18.8034 N   0  0  0  0  0  0  0  0  0  0  0  0
  -27.8749  -35.4913   19.6165 N   0  3  0  0  0  0  0  0  0  0  0  0
  -22.5765  -14.6939   16.9232 O   0  0  0  0  0  0  0  0  0  0  0  0
  -22.1732  -29.3548   19.7850 O   0  0  0  0  0  0  0  0  0  0  0  0
  -22.5234  -33.0508   20.4268 O   0  0  0  0  0  0  0  0  0  0  0  0
  -32.0401  -13.9341   19.7311 O   0  0  0  0  0  0  0  0  0  0  0  0
  -26.7564  -33.2745   18.2931 O   0  0  0  0  0  0  0  0  0  0  0  0
  -21.5306  -19.0184   23.3100 O   0  0  0  0  0  0  0  0  0  0  0  0
  -28.2687  -26.8385   19.9187 O   0  0  0  0  0  0  0  0  0  1  0  0
  -16.2242  -17.8198   24.2098 F   0  0  0  0  0  0  0  0  0  0  0  0
  -19.7305  -18.8911   21.2158 F   0  0  0  0  0  0  0  0  0  0  0  0
  -29.1311  -16.3251   20.5606 F   0  0  0  0  0  0  0  0  0  0  0  0
  -31.1509  -16.7234   21.2232 F   0  0  0  0  0  0  0  0  0  0  0  0
  -32.7543  -15.3539   17.6481 F   0  0  0  0  0  0  0  0  0  0  0  0
  -32.3322  -17.4640   17.9976 F   0  0  0  0  0  0  0  0  0  0  0  0
  -33.1668  -16.2327   19.5915 F   0  0  0  0  0  0  0  0  0  0  0  0
  1  2  1  0  0  0  0
  1  5  2  0  0  0  0
  2  6  2  0  0  0  0
  3  8  2  0  0  0  0
  3 17  1  0  0  0  0
  4  9  1  0  0  0  0
  4 17  2  0  0  0  0
  5 19  1  0  0  0  0
  6 21  1  0  0  0  0
  7 10  2  0  0  0  0
  7 20  1  0  0  0  0
  8 24  1  0  0  0  0
  9 24  2  0  0  0  0
 10 25  1  0  0  0  0
 11 12  2  0  0  0  0
 11 26  1  0  0  0  0
 12 27  1  0  0  0  0
 13 22  1  0  0  0  0
 13 25  2  0  0  0  0
 14 27  2  0  0  0  0
 14 28  1  0  0  0  0
 15 23  1  0  0  0  0
 15 65  2  0  0  0  0
 16 23  2  0  0  0  0
 16 66  1  0  0  0  0
 17 29  1  0  0  0  0
 18 29  1  0  0  0  0
 18 30  2  0  0  0  0
 18 32  1  0  0  0  0
 19 21  2  0  0  0  0
 19 37  1  0  0  0  0
 20 22  2  0  0  0  0
 20 38  1  0  0  0  0
 21 46  1  0  0  0  0
 22 39  1  0  0  0  0
 23 55  1  0  0  0  0
 24 81  1  0  0  0  0
 25 82  1  0  0  0  0
 26 28  2  0  0  0  0
 26 81  1  0  0  0  0
 27 83  1  0  0  0  0
 28 84  1  0  0  0  0
 29 67  2  0  0  0  0
 30 68  1  0  0  0  0
 30 71  1  0  0  0  0
 31 61  1  0  0  0  0
 31 65  1  0  0  0  0
 31 66  2  0  0  0  0
 32 72  1  0  0  0  0
 32 76  2  0  0  0  0
 33 47  1  0  0  0  0
 33 73  1  0  0  0  0
 33 77  2  0  0  0  0
 34 59  1  0  0  0  0
 34 69  1  0  0  0  0
 34 78  2  0  0  0  0
 35 62  1  0  0  0  0
 35 70  1  0  0  0  0
 35 79  2  0  0  0  0
 36 60  1  0  0  0  0
 36 74  1  0  0  0  0
 36 80  2  0  0  0  0
 37 40  1  0  0  0  0
 38 47  1  0  0  0  0
 39 69  1  0  0  0  0
 40 42  1  0  0  0  0
 41 43  1  0  0  0  0
 41 44  1  0  0  0  0
 42 46  1  0  0  0  0
 43 48  1  0  0  0  0
 44 70  1  0  0  0  0
 45 48  1  0  0  0  0
 45 70  1  0  0  0  0
 46 73  1  0  0  0  0
 47 69  1  0  0  0  0
 48 68  1  0  0  0  0
 49 60  1  0  0  0  0
 50 62  1  0  0  0  0
 51 63  1  0  0  0  0
 52 63  1  0  0  0  0
 53 63  1  0  0  0  0
 54 75  1  0  0  0  0
 55 56  1  0  0  0  0
 56 57  1  0  0  0  0
 57 58  1  0  0  0  0
 58 82  1  0  0  0  0
 59 63  1  0  0  0  0
 59 74  1  0  0  0  0
 60 75  1  0  0  0  0
 61 62  1  0  0  0  0
 61 85  1  0  0  0  0
 61 86  1  0  0  0  0
 62 64  1  0  0  0  0
 64 87  1  0  0  0  0
 64 88  1  0  0  0  0
 64 89  1  0  0  0  0
 67 68  1  0  0  0  0
M  CHG  1  75   1
M  ISO  4  35 100  58 101  62 100  82 101
M  END
> <Batch ID>
0066

> <Smiles>
CNC(C)C(=O)NC(C(=O)N1Cc2cc([101O:1][101CH2:1]CCCc3cnc(C(F)(F)[100C:0](C)([100C:0](=O)N4CCCC(n5nc(-c6ccc(Oc7ccc(F)cc7F)cc6)c(C(N)=O)c5N)C4)C(F)(F)F)nc3)ccc2CC1C(=O)NC1CCCc2ccccc21)C(C)(C)C

> <Shape>
0.216

> <Color>
0.120

> <Negative vol penalty>
0.000

$$$$

  -OEChem-04052318093D

 86 94  0     1  0  0  0  0  0999 V2000
  -18.4208  -23.9129   22.7837 C   0  0  0  0  0  0  0  0  0  0  0  0
  -19.7993  -23.7258   22.7958 C   0  0  0  0  0  0  0  0  0  0  0  0
  -25.3756  -14.3108   21.6021 C   0  0  0  0  0  0  0  0  0  0  0  0
  -24.4591  -15.1111   19.5148 C   0  0  0  0  0  0  0  0  0  0  0  0
  -17.8939  -25.1987   22.6694 C   0  0  0  0  0  0  0  0  0  0  0  0
  -20.6518  -24.8244   22.6925 C   0  0  0  0  0  0  0  0  0  0  0  0
  -26.1042  -25.5199   25.3932 C   0  0  0  0  0  0  0  0  0  0  0  0
  -24.4203  -13.2949   21.6321 C   0  0  0  0  0  0  0  0  0  0  0  0
  -23.5038  -14.0952   19.5448 C   0  0  0  0  0  0  0  0  0  0  0  0
  -27.4081  -25.3370   24.9349 C   0  0  0  0  0  0  0  0  0  0  0  0
  -23.9391  -10.2842   20.1703 C   0  0  0  0  0  0  0  0  0  0  0  0
  -24.3701   -8.9985   20.4972 C   0  0  0  0  0  0  0  0  0  0  0  0
  -27.5574  -27.6927   24.4375 C   0  0  0  0  0  0  0  0  0  0  0  0
  -22.8820   -8.9836   22.4005 C   0  0  0  0  0  0  0  0  0  0  0  0
  -27.0452  -25.7620   19.9103 C   0  0  0  0  0  0  0  0  0  0  0  0
  -25.3950  -15.2190   20.5435 C   0  0  0  0  0  0  0  0  0  0  0  0
  -27.6615  -16.2156   19.9294 C   0  0  0  0  0  0  0  0  0  0  0  0
  -18.7405  -26.3145   22.5744 C   0  0  0  0  0  0  0  0  0  0  0  0
  -25.5122  -26.7909   25.3669 C   0  0  0  0  0  0  0  0  0  0  0  0
  -20.1358  -26.1262   22.5755 C   0  0  0  0  0  0  0  0  0  0  0  0
  -26.2467  -27.8896   24.8984 C   0  0  0  0  0  0  0  0  0  0  0  0
  -23.4844  -13.1871   20.6034 C   0  0  0  0  0  0  0  0  0  0  0  0
  -28.1339  -26.4229   24.4542 C   0  0  0  0  0  0  0  0  0  0  0  0
  -22.9796  -10.9196   20.9585 C   0  0  0  0  0  0  0  0  0  0  0  0
  -23.8416   -8.3482   21.6122 C   0  0  0  0  0  0  0  0  0  0  0  0
  -22.4511  -10.2693   22.0736 C   0  0  0  0  0  0  0  0  0  0  0  0
  -26.3812  -16.2689   20.5122 C   0  0  0  0  0  0  0  0  0  0  0  0
  -27.2098  -24.7727   18.9660 C   0  0  0  0  0  0  0  0  0  0  0  0
  -29.2678  -25.6331   20.4329 C   0  0  0  0  0  0  0  0  0  0  0  0
  -29.4323  -24.6433   19.4891 C   0  0  0  0  0  0  0  0  0  0  0  0
  -28.1995  -17.4566   20.1681 C   0  0  0  0  0  0  0  0  0  0  0  0
  -28.3068  -15.1404   19.2342 C   0  0  0  0  0  0  0  0  0  0  0  0
  -22.9869  -28.0596   23.9119 C   0  0  0  0  0  0  0  0  0  0  0  0
  -23.7249  -30.6419   25.7311 C   0  0  0  0  0  0  0  0  0  0  0  0
  -26.0905  -32.3768   27.4749 C   0  0  0  0  0  0  0  0  0  0  0  0
  -25.7621  -22.8351   21.1591 C   0  0  0  0  0  0  0  0  0  0  0  0
  -18.1245  -27.6808   22.4050 C   0  0  0  0  0  0  0  0  0  0  0  0
  -24.1141  -26.9764   25.8898 C   0  0  0  0  0  0  0  0  0  0  0  0
  -25.6641  -29.2782   24.8680 C   0  0  0  0  0  0  0  0  0  0  0  0
  -19.0971  -28.8254   22.6773 C   0  0  0  0  0  0  0  0  0  0  0  0
  -28.0151  -21.0809   23.2859 C   0  0  0  0  0  0  0  0  0  0  0  0
  -20.4266  -28.5753   21.9726 C   0  0  0  0  0  0  0  0  0  0  0  0
  -27.9674  -19.6440   22.7637 C   0  0  0  0  0  0  0  0  0  0  0  0
  -26.6479  -21.7563   23.2056 C   0  0  0  0  0  0  0  0  0  0  0  0
  -25.9684  -20.2823   21.3511 C   0  0  0  0  0  0  0  0  0  0  0  0
  -21.0932  -27.2951   22.4906 C   0  0  1  0  0  0  0  0  0  0  0  0
  -23.4305  -28.2236   25.3381 C   0  0  1  0  0  0  0  0  0  0  0  0
  -27.3361  -19.5782   21.3600 C   0  0  2  0  0  0  0  0  0  0  0  0
  -30.7877  -23.1845   17.9655 C   0  0  0  0  0  0  0  0  0  0  0  0
  -26.4035  -34.4704   28.8226 C   0  0  0  0  0  0  0  0  0  0  0  0
  -26.3717  -23.1723   17.1132 C   0  0  0  0  0  0  0  0  0  0  0  0
  -25.4716  -25.4769   17.2986 C   0  0  0  0  0  0  0  0  0  0  0  0
  -23.7420  -32.2896   23.1630 C   0  0  0  0  0  0  0  0  0  0  0  0
  -24.9609  -34.0879   24.4074 C   0  0  0  0  0  0  0  0  0  0  0  0
  -22.6660  -33.4172   25.1188 C   0  0  0  0  0  0  0  0  0  0  0  0
  -26.8459  -30.8461   29.8926 C   0  0  0  0  0  0  0  0  0  0  0  0
  -30.4242  -26.1252   21.2661 C   0  0  0  0  0  0  0  0  0  0  0  0
  -30.7612  -24.0128   19.2478 C   0  0  0  0  0  0  0  0  0  0  0  0
  -30.8208  -25.1704   22.3941 C   0  0  0  0  0  0  0  0  0  0  0  0
  -24.8695  -23.7679   19.0396 C   0  0  0  0  0  0  0  0  0  0  0  0
  -29.7248  -24.9780   23.4357 C   0  0  0  0  0  0  0  0  0  1  0  0
  -24.6055  -31.8557   25.5572 C   0  0  1  0  0  0  0  0  0  0  0  0
  -26.0716  -32.9869   28.8649 C   0  0  2  0  0  0  0  0  0  0  0  0
  -26.0536  -24.3032   18.1545 C   0  0  0  0  0  0  0  0  0  0  0  0
  -24.0042  -32.8862   24.5602 C   0  0  0  0  0  0  0  0  0  0  0  0
  -28.0712  -26.2100   20.6607 N   0  0  0  0  0  0  0  0  0  0  0  0
  -26.1214  -17.4503   21.0787 N   0  0  0  0  0  0  0  0  0  0  0  0
  -28.4063  -24.1956   18.7385 N   0  0  0  0  0  0  0  0  0  0  0  0
  -27.2459  -18.1507   20.8530 N   0  0  0  0  0  0  0  0  0  0  0  0
  -24.2914  -29.4072   25.3841 N   0  0  0  0  0  0  0  0  0  0  0  0
  -26.1052  -21.6602   21.8483 N   0  0  0  0  0  0  0  0  0  0  0  0
  -29.3904  -18.0109   19.8568 N   0  0  0  0  0  0  0  0  0  0  0  0
  -27.6117  -13.9335   19.0776 N   0  0  0  0  0  0  0  0  0  0  0  0
  -21.7165  -27.5338   23.7747 N   0  0  0  0  0  0  0  0  0  0  0  0
  -24.8390  -32.3858   26.8962 N   0  0  0  0  0  0  0  0  0  0  0  0
  -25.2608  -22.6550   19.8757 N   0  0  0  0  0  0  0  0  0  0  0  0
  -27.0664  -32.3075   29.7423 N   0  3  0  0  0  0  0  0  0  0  0  0
  -29.4719  -15.2412   18.7803 O   0  0  0  0  0  0  0  0  0  0  0  0
  -23.7410  -28.3873   23.0032 O   0  0  0  0  0  0  0  0  0  0  0  0
  -22.5791  -30.7833   26.1656 O   0  0  0  0  0  0  0  0  0  0  0  0
  -27.1138  -31.9396   26.9532 O   0  0  0  0  0  0  0  0  0  0  0  0
  -25.8977  -23.9614   21.6490 O   0  0  0  0  0  0  0  0  0  0  0  0
  -22.5522  -12.1957   20.6322 O   0  0  0  0  0  0  0  0  0  0  0  0
  -29.4066  -26.2470   24.0057 O   0  0  0  0  0  0  0  0  0  1  0  0
  -24.2544   -7.1129   21.9251 F   0  0  0  0  0  0  0  0  0  0  0  0
  -21.5282  -10.8742   22.8339 F   0  0  0  0  0  0  0  0  0  0  0  0
  1  2  1  0  0  0  0
  1  5  2  0  0  0  0
  2  6  2  0  0  0  0
  3  8  2  0  0  0  0
  3 16  1  0  0  0  0
  4  9  1  0  0  0  0
  4 16  2  0  0  0  0
  5 18  1  0  0  0  0
  6 20  1  0  0  0  0
  7 10  2  0  0  0  0
  7 19  1  0  0  0  0
  8 22  1  0  0  0  0
  9 22  2  0  0  0  0
 10 23  1  0  0  0  0
 11 12  2  0  0  0  0
 11 24  1  0  0  0  0
 12 25  1  0  0  0  0
 13 21  1  0  0  0  0
 13 23  2  0  0  0  0
 14 25  2  0  0  0  0
 14 26  1  0  0  0  0
 15 28  1  0  0  0  0
 15 66  2  0  0  0  0
 16 27  1  0  0  0  0
 17 27  1  0  0  0  0
 17 31  2  0  0  0  0
 17 32  1  0  0  0  0
 18 20  2  0  0  0  0
 18 37  1  0  0  0  0
 19 21  2  0  0  0  0
 19 38  1  0  0  0  0
 20 46  1  0  0  0  0
 21 39  1  0  0  0  0
 22 83  1  0  0  0  0
 23 84  1  0  0  0  0
 24 26  2  0  0  0  0
 24 83  1  0  0  0  0
 25 85  1  0  0  0  0
 26 86  1  0  0  0  0
 27 67  2  0  0  0  0
 28 64  1  0  0  0  0
 28 68  2  0  0  0  0
 29 30  2  0  0  0  0
 29 57  1  0  0  0  0
 29 66  1  0  0  0  0
 30 58  1  0  0  0  0
 30 68  1  0  0  0  0
 31 69  1  0  0  0  0
 31 72  1  0  0  0  0
 32 73  1  0  0  0  0
 32 78  2  0  0  0  0
 33 47  1  0  0  0  0
 33 74  1  0  0  0  0
 33 79  2  0  0  0  0
 34 62  1  0  0  0  0
 34 70  1  0  0  0  0
 34 80  2  0  0  0  0
 35 63  1  0  0  0  0
 35 75  1  0  0  0  0
 35 81  2  0  0  0  0
 36 71  1  0  0  0  0
 36 76  1  0  0  0  0
 36 82  2  0  0  0  0
 37 40  1  0  0  0  0
 38 47  1  0  0  0  0
 39 70  1  0  0  0  0
 40 42  1  0  0  0  0
 41 43  1  0  0  0  0
 41 44  1  0  0  0  0
 42 46  1  0  0  0  0
 43 48  1  0  0  0  0
 44 71  1  0  0  0  0
 45 48  1  0  0  0  0
 45 71  1  0  0  0  0
 46 74  1  0  0  0  0
 47 70  1  0  0  0  0
 48 69  1  0  0  0  0
 49 58  1  0  0  0  0
 50 63  1  0  0  0  0
 51 64  1  0  0  0  0
 52 64  1  0  0  0  0
 53 65  1  0  0  0  0
 54 65  1  0  0  0  0
 55 65  1  0  0  0  0
 56 77  1  0  0  0  0
 57 59  1  0  0  0  0
 59 61  1  0  0  0  0
 60 64  1  0  0  0  0
 60 76  1  0  0  0  0
 61 84  1  0  0  0  0
 62 65  1  0  0  0  0
 62 75  1  0  0  0  0
 63 77  1  0  0  0  0
 67 69  1  0  0  0  0
M  CHG  1  77   1
M  ISO  4  36 100  61 101  76 100  84 101
M  END
> <Batch ID>
0066

> <Smiles>
CCc1nc(C(C)(C)C[100NH:0][100C:0](=O)N2CCCC(n3nc(-c4ccc(Oc5ccc(F)cc5F)cc4)c(C(N)=O)c3N)C2)cnc1CC[101CH2:1][101O:1]c1ccc2c(c1)CN(C(=O)C(NC(=O)C(C)NC)C(C)(C)C)C(C(=O)NC1CCCc3ccccc31)C2

> <Shape>
0.223

> <Color>
0.062

> <Negative vol penalty>
0.000

$$$$

  -OEChem-04052318093D

 90 98  0     1  0  0  0  0  0999 V2000
  -30.4493  -23.8443   19.2331 C   0  0  0  0  0  0  0  0  0  0  0  0
  -29.2957  -24.5118   18.8372 C   0  0  0  0  0  0  0  0  0  0  0  0
  -26.1657  -14.2290   18.5016 C   0  0  0  0  0  0  0  0  0  0  0  0
  -27.9888  -13.5547   17.0668 C   0  0  0  0  0  0  0  0  0  0  0  0
  -30.8883  -23.9414   20.5518 C   0  0  0  0  0  0  0  0  0  0  0  0
  -28.5875  -25.2862   19.7568 C   0  0  0  0  0  0  0  0  0  0  0  0
  -23.3239  -28.3001   19.1755 C   0  0  0  0  0  0  0  0  0  0  0  0
  -25.4889  -13.0481   18.1966 C   0  0  0  0  0  0  0  0  0  0  0  0
  -27.3120  -12.3738   16.7618 C   0  0  0  0  0  0  0  0  0  0  0  0
  -21.9679  -28.0528   19.3848 C   0  0  0  0  0  0  0  0  0  0  0  0
  -25.6089   -9.7981   19.1219 C   0  0  0  0  0  0  0  0  0  0  0  0
  -25.0230   -9.0962   20.1752 C   0  0  0  0  0  0  0  0  0  0  0  0
  -22.1182  -29.0974   21.5539 C   0  0  0  0  0  0  0  0  0  0  0  0
  -22.8568   -9.3417   19.1339 C   0  0  0  0  0  0  0  0  0  0  0  0
  -22.7726  -23.6687   16.9818 C   0  0  0  0  0  0  0  0  0  0  0  0
  -24.1389  -22.8177   19.1117 C   0  0  0  0  0  0  0  0  0  0  0  0
  -27.4157  -14.4823   17.9367 C   0  0  0  0  0  0  0  0  0  0  0  0
  -29.0235  -15.9139   19.3053 C   0  0  0  0  0  0  0  0  0  0  0  0
  -30.1776  -24.7074   21.4904 C   0  0  0  0  0  0  0  0  0  0  0  0
  -24.0910  -28.9393   20.1601 C   0  0  0  0  0  0  0  0  0  0  0  0
  -29.0278  -25.4160   21.0864 C   0  0  0  0  0  0  0  0  0  0  0  0
  -23.4832  -29.3540   21.3537 C   0  0  0  0  0  0  0  0  0  0  0  0
  -26.0621  -12.1205   17.3267 C   0  0  0  0  0  0  0  0  0  0  0  0
  -21.3655  -28.4488   20.5753 C   0  0  0  0  0  0  0  0  0  0  0  0
  -24.8187  -10.2719   18.0745 C   0  0  0  0  0  0  0  0  0  0  0  0
  -23.6469   -8.8679   20.1813 C   0  0  0  0  0  0  0  0  0  0  0  0
  -23.4427  -10.0437   18.0806 C   0  0  0  0  0  0  0  0  0  0  0  0
  -28.1151  -15.7022   18.2509 C   0  0  0  0  0  0  0  0  0  0  0  0
  -22.2739  -23.8273   18.2561 C   0  0  0  0  0  0  0  0  0  0  0  0
  -24.6373  -22.6584   17.8375 C   0  0  0  0  0  0  0  0  0  0  0  0
  -29.4049  -17.2266   19.1716 C   0  0  0  0  0  0  0  0  0  0  0  0
  -29.4817  -15.0052   20.3152 C   0  0  0  0  0  0  0  0  0  0  0  0
  -26.6167  -28.1302   21.9123 C   0  0  0  0  0  0  0  0  0  0  0  0
  -26.4539  -31.2247   22.8714 C   0  0  0  0  0  0  0  0  0  0  0  0
  -24.5571  -34.0294   23.2993 C   0  0  0  0  0  0  0  0  0  0  0  0
  -26.4871  -21.8255   16.3954 C   0  0  0  0  0  0  0  0  0  0  0  0
  -30.7020  -24.7842   22.9027 C   0  0  0  0  0  0  0  0  0  0  0  0
  -25.5466  -29.2227   19.9080 C   0  0  0  0  0  0  0  0  0  0  0  0
  -24.2581  -30.0619   22.4339 C   0  0  0  0  0  0  0  0  0  0  0  0
  -29.6520  -25.2592   23.9017 C   0  0  0  0  0  0  0  0  0  0  0  0
  -29.9532  -20.6639   15.8978 C   0  0  0  0  0  0  0  0  0  0  0  0
  -28.9753  -26.5199   23.3846 C   0  0  0  0  0  0  0  0  0  0  0  0
  -29.9258  -19.2517   16.4800 C   0  0  0  0  0  0  0  0  0  0  0  0
  -28.5949  -21.0712   15.3346 C   0  0  0  0  0  0  0  0  0  0  0  0
  -27.4484  -19.5275   16.8945 C   0  0  0  0  0  0  0  0  0  0  0  0
  -28.2243  -26.2394   22.0768 C   0  0  1  0  0  0  0  0  0  0  0  0
  -26.3477  -29.4207   21.1911 C   0  0  1  0  0  0  0  0  0  0  0  0
  -28.7913  -19.1041   17.5087 C   0  0  1  0  0  0  0  0  0  0  0  0
  -24.6931  -36.3902   24.1392 C   0  0  0  0  0  0  0  0  0  0  0  0
  -19.0842  -28.1466   24.4748 C   0  0  0  0  0  0  0  0  0  0  0  0
  -16.7223  -28.2460   23.7307 C   0  0  0  0  0  0  0  0  0  0  0  0
  -18.3996  -29.7257   22.6423 C   0  0  0  0  0  0  0  0  0  0  0  0
  -26.4220  -30.2015   25.7458 C   0  0  0  0  0  0  0  0  0  0  0  0
  -25.6126  -32.4584   26.4666 C   0  0  0  0  0  0  0  0  0  0  0  0
  -27.8434  -32.2255   25.3747 C   0  0  0  0  0  0  0  0  0  0  0  0
  -18.9508  -26.5955   18.9504 C   0  0  0  0  0  0  0  0  0  0  0  0
  -18.5010  -24.8035   20.6088 C   0  0  0  0  0  0  0  0  0  0  0  0
  -20.8832  -26.5603   22.3250 C   0  0  0  0  0  0  0  0  0  0  0  0
  -26.7455  -21.7896   18.8656 C   0  0  0  0  0  0  0  0  0  0  0  0
  -23.8311  -35.1358   20.6521 C   0  0  0  0  0  0  0  0  0  0  0  0
  -20.9354  -24.4907   18.4786 C   0  0  0  0  0  0  0  0  0  0  0  0
  -20.8911  -25.2189   19.8324 C   0  0  0  0  0  0  0  0  0  0  0  0
  -18.3809  -27.1715   22.1954 C   0  0  0  0  0  0  0  0  0  0  0  0
  -25.7489  -31.9638   23.9831 C   0  0  1  0  0  0  0  0  0  0  0  0
  -24.8052  -35.4798   22.9262 C   0  0  2  0  0  0  0  0  0  0  0  0
  -18.1892  -28.3264   23.2347 C   0  0  0  0  0  0  0  0  0  0  0  0
  -26.3923  -31.6972   25.3732 C   0  0  0  0  0  0  0  0  0  0  0  0
  -19.5299  -25.8919   20.2087 C   0  0  0  0  0  0  0  0  0  0  0  0
  -19.7147  -26.9521   21.4065 C   0  0  2  0  0  0  0  0  0  1  0  0
  -22.9482  -23.4050   19.3439 N   0  0  0  0  0  0  0  0  0  0  0  0
  -23.9631  -23.0811   16.7496 N   0  0  0  0  0  0  0  0  0  0  0  0
  -27.9303  -16.7931   17.5026 N   0  0  0  0  0  0  0  0  0  0  0  0
  -28.7278  -17.7029   18.0877 N   0  0  0  0  0  0  0  0  0  0  0  0
  -25.6797  -30.3106   22.1430 N   0  0  0  0  0  0  0  0  0  0  0  0
  -27.5278  -20.8783   16.3174 N   0  0  0  0  0  0  0  0  0  0  0  0
  -30.2499  -18.0084   19.8767 N   0  0  0  0  0  0  0  0  0  0  0  0
  -28.9888  -13.6932   20.3068 N   0  0  0  0  0  0  0  0  0  0  0  0
  -27.7755  -27.4929   21.5119 N   0  0  0  0  0  0  0  0  0  0  0  0
  -25.7318  -33.3692   23.5922 N   0  0  0  0  0  0  0  0  0  0  0  0
  -25.9214  -22.0186   17.6743 N   0  0  0  0  0  0  0  0  0  0  0  0
  -23.8144  -35.9294   21.9078 N   0  3  0  0  0  0  0  0  0  0  0  0
  -30.2913  -15.3511   21.2087 O   0  0  0  0  0  0  0  0  0  0  0  0
  -25.8318  -27.7423   22.7697 O   0  0  0  0  0  0  0  0  0  0  0  0
  -27.6458  -31.4554   22.6528 O   0  0  0  0  0  0  0  0  0  0  0  0
  -23.4334  -33.5327   23.3316 O   0  0  0  0  0  0  0  0  0  0  0  0
  -26.1146  -22.4684   15.4067 O   0  0  0  0  0  0  0  0  0  0  0  0
  -25.4020  -10.9680   17.0291 O   0  0  0  0  0  0  0  0  0  0  0  0
  -20.0405  -28.2077   20.7826 O   0  0  0  0  0  0  0  0  0  1  0  0
  -23.0847   -8.1925   21.1921 F   0  0  0  0  0  0  0  0  0  0  0  0
  -22.6786  -10.4954   17.0766 F   0  0  0  0  0  0  0  0  0  0  0  0
  1  2  1  0  0  0  0
  1  5  2  0  0  0  0
  2  6  2  0  0  0  0
  3  8  2  0  0  0  0
  3 17  1  0  0  0  0
  4  9  1  0  0  0  0
  4 17  2  0  0  0  0
  5 19  1  0  0  0  0
  6 21  1  0  0  0  0
  7 10  2  0  0  0  0
  7 20  1  0  0  0  0
  8 23  1  0  0  0  0
  9 23  2  0  0  0  0
 10 24  1  0  0  0  0
 11 12  2  0  0  0  0
 11 25  1  0  0  0  0
 12 26  1  0  0  0  0
 13 22  1  0  0  0  0
 13 24  2  0  0  0  0
 14 26  2  0  0  0  0
 14 27  1  0  0  0  0
 15 29  1  0  0  0  0
 15 71  2  0  0  0  0
 16 30  2  0  0  0  0
 16 70  1  0  0  0  0
 17 28  1  0  0  0  0
 18 28  1  0  0  0  0
 18 31  2  0  0  0  0
 18 32  1  0  0  0  0
 19 21  2  0  0  0  0
 19 37  1  0  0  0  0
 20 22  2  0  0  0  0
 20 38  1  0  0  0  0
 21 46  1  0  0  0  0
 22 39  1  0  0  0  0
 23 87  1  0  0  0  0
 24 88  1  0  0  0  0
 25 27  2  0  0  0  0
 25 87  1  0  0  0  0
 26 89  1  0  0  0  0
 27 90  1  0  0  0  0
 28 72  2  0  0  0  0
 29 61  1  0  0  0  0
 29 70  2  0  0  0  0
 30 71  1  0  0  0  0
 30 80  1  0  0  0  0
 31 73  1  0  0  0  0
 31 76  1  0  0  0  0
 32 77  1  0  0  0  0
 32 82  2  0  0  0  0
 33 47  1  0  0  0  0
 33 78  1  0  0  0  0
 33 83  2  0  0  0  0
 34 64  1  0  0  0  0
 34 74  1  0  0  0  0
 34 84  2  0  0  0  0
 35 65  1  0  0  0  0
 35 79  1  0  0  0  0
 35 85  2  0  0  0  0
 36 75  1  0  0  0  0
 36 80  1  0  0  0  0
 36 86  2  0  0  0  0
 37 40  1  0  0  0  0
 38 47  1  0  0  0  0
 39 74  1  0  0  0  0
 40 42  1  0  0  0  0
 41 43  1  0  0  0  0
 41 44  1  0  0  0  0
 42 46  1  0  0  0  0
 43 48  1  0  0  0  0
 44 75  1  0  0  0  0
 45 48  1  0  0  0  0
 45 75  1  0  0  0  0
 46 78  1  0  0  0  0
 47 74  1  0  0  0  0
 48 73  1  0  0  0  0
 49 65  1  0  0  0  0
 50 66  1  0  0  0  0
 51 66  1  0  0  0  0
 52 66  1  0  0  0  0
 53 67  1  0  0  0  0
 54 67  1  0  0  0  0
 55 67  1  0  0  0  0
 56 68  1  0  0  0  0
 57 68  1  0  0  0  0
 58 69  1  0  0  0  0
 59 80  1  0  0  0  0
 60 81  1  0  0  0  0
 61 62  1  0  0  0  0
 62 68  1  0  0  0  0
 63 66  1  0  0  0  0
 63 69  1  0  0  0  0
 64 67  1  0  0  0  0
 64 79  1  0  0  0  0
 65 81  1  0  0  0  0
 68 69  1  0  0  0  0
 69 88  1  0  0  0  0
 72 73  1  0  0  0  0
M  CHG  1  81   1
M  ISO  4  36 100  69 101  80 100  88 101
M  END
> <Batch ID>
0066

> <Smiles>
CNC(C)C(=O)NC(C(=O)N1Cc2cc([101O:1][101C:1](C)(CC(C)(C)C)C(C)(C)CCc3cnc([100N:0](C)[100C:0](=O)N4CCCC(n5nc(-c6ccc(Oc7ccc(F)cc7F)cc6)c(C(N)=O)c5N)C4)cn3)ccc2CC1C(=O)NC1CCCc2ccccc21)C(C)(C)C

> <Shape>
0.262

> <Color>
0.057

> <Negative vol penalty>
0.000

$$$$

  -OEChem-04052318093D

 85 93  0     1  0  0  0  0  0999 V2000
  -31.9488  -31.4419   24.3854 C   0  0  0  0  0  0  0  0  0  0  0  0
  -31.8736  -30.0829   24.0975 C   0  0  0  0  0  0  0  0  0  0  0  0
  -23.3850   -9.7728   19.8528 C   0  0  0  0  0  0  0  0  0  0  0  0
  -23.8842   -9.8519   22.2153 C   0  0  0  0  0  0  0  0  0  0  0  0
  -30.8900  -32.0753   25.0348 C   0  0  0  0  0  0  0  0  0  0  0  0
  -30.7400  -29.3563   24.4598 C   0  0  0  0  0  0  0  0  0  0  0  0
  -28.2275  -24.6850   21.3983 C   0  0  0  0  0  0  0  0  0  0  0  0
  -22.7371   -8.5504   20.0306 C   0  0  0  0  0  0  0  0  0  0  0  0
  -23.2363   -8.6295   22.3932 C   0  0  0  0  0  0  0  0  0  0  0  0
  -28.3188  -23.3028   21.5560 C   0  0  0  0  0  0  0  0  0  0  0  0
  -20.0574   -7.5110   22.6466 C   0  0  0  0  0  0  0  0  0  0  0  0
  -19.1844   -7.3933   23.7281 C   0  0  0  0  0  0  0  0  0  0  0  0
  -26.2777  -23.3206   22.8416 C   0  0  0  0  0  0  0  0  0  0  0  0
  -20.5248   -5.5888   24.6137 C   0  0  0  0  0  0  0  0  0  0  0  0
  -30.3495  -17.5353   25.7239 C   0  0  0  0  0  0  0  0  0  0  0  0
  -29.8301  -16.2527   24.0151 C   0  0  0  0  0  0  0  0  0  0  0  0
  -23.9586  -10.4235   20.9451 C   0  0  0  0  0  0  0  0  0  0  0  0
  -24.0577  -12.9704   20.8398 C   0  0  0  0  0  0  0  0  0  0  0  0
  -29.7387  -31.3581   25.3966 C   0  0  0  0  0  0  0  0  0  0  0  0
  -27.1646  -25.3980   21.9713 C   0  0  0  0  0  0  0  0  0  0  0  0
  -29.6654  -29.9804   25.1158 C   0  0  0  0  0  0  0  0  0  0  0  0
  -26.1738  -24.7115   22.6876 C   0  0  0  0  0  0  0  0  0  0  0  0
  -30.0852  -17.5623   24.3415 C   0  0  0  0  0  0  0  0  0  0  0  0
  -22.6627   -7.9788   21.3008 C   0  0  0  0  0  0  0  0  0  0  0  0
  -27.3455  -22.6207   22.2802 C   0  0  0  0  0  0  0  0  0  0  0  0
  -21.1641   -6.6675   22.5486 C   0  0  0  0  0  0  0  0  0  0  0  0
  -19.4181   -6.4323   24.7116 C   0  0  0  0  0  0  0  0  0  0  0  0
  -21.3978   -5.7065   23.5322 C   0  0  0  0  0  0  0  0  0  0  0  0
  -24.6285  -11.6859   20.7619 C   0  0  0  0  0  0  0  0  0  0  0  0
  -25.1027  -13.8263   20.5911 C   0  0  0  0  0  0  0  0  0  0  0  0
  -22.7038  -13.3555   21.1125 C   0  0  0  0  0  0  0  0  0  0  0  0
  -26.9238  -27.6986   24.1515 C   0  0  0  0  0  0  0  0  0  0  0  0
  -23.7947  -27.6433   23.2981 C   0  0  0  0  0  0  0  0  0  0  0  0
  -21.1868  -25.8947   21.9609 C   0  0  0  0  0  0  0  0  0  0  0  0
  -31.0327  -13.3194   21.2470 C   0  0  0  0  0  0  0  0  0  0  0  0
  -28.6397  -32.0760   26.1393 C   0  0  0  0  0  0  0  0  0  0  0  0
  -27.0661  -26.8853   21.7694 C   0  0  0  0  0  0  0  0  0  0  0  0
  -25.0017  -25.4278   23.3054 C   0  0  0  0  0  0  0  0  0  0  0  0
  -27.3168  -31.3146   26.1545 C   0  0  0  0  0  0  0  0  0  0  0  0
  -29.2669  -14.0698   18.2477 C   0  0  0  0  0  0  0  0  0  0  0  0
  -27.5481  -29.8495   26.5107 C   0  0  0  0  0  0  0  0  0  0  0  0
  -27.8264  -13.6598   18.5590 C   0  0  0  0  0  0  0  0  0  0  0  0
  -30.2754  -13.1243   18.8964 C   0  0  0  0  0  0  0  0  0  0  0  0
  -28.6616  -12.5256   20.6602 C   0  0  0  0  0  0  0  0  0  0  0  0
  -28.4420  -29.1634   25.4707 C   0  0  1  0  0  0  0  0  0  0  0  0
  -26.2169  -27.5774   22.8311 C   0  0  1  0  0  0  0  0  0  0  0  0
  -27.6089  -13.4818   20.0737 C   0  0  2  0  0  0  0  0  0  0  0  0
  -18.7430  -26.1012   21.4294 C   0  0  0  0  0  0  0  0  0  0  0  0
  -29.0743  -13.8306   26.6787 C   0  0  0  0  0  0  0  0  0  0  0  0
  -23.1242  -27.2866   26.2533 C   0  0  0  0  0  0  0  0  0  0  0  0
  -20.8277  -26.5579   25.5727 C   0  0  0  0  0  0  0  0  0  0  0  0
  -21.6177  -28.8596   25.0243 C   0  0  0  0  0  0  0  0  0  0  0  0
  -32.2111  -13.5724   26.0727 C   0  0  0  0  0  0  0  0  0  0  0  0
  -30.7349  -11.7531   25.2431 C   0  0  0  0  0  0  0  0  0  0  0  0
  -21.6623  -25.4826   19.0690 C   0  0  0  0  0  0  0  0  0  0  0  0
  -30.0798  -18.7586   23.4237 C   0  0  0  0  0  0  0  0  0  0  0  0
  -28.7169  -19.4459   23.3156 C   0  0  0  0  0  0  0  0  0  0  0  0
  -31.6392  -13.4769   23.6483 C   0  0  0  0  0  0  0  0  0  0  0  0
  -28.7413  -20.7031   22.4541 C   0  0  0  0  0  0  0  0  0  1  0  0
  -22.5730  -26.8878   23.7627 C   0  0  1  0  0  0  0  0  0  0  0  0
  -20.1611  -26.2659   20.9052 C   0  0  2  0  0  0  0  0  0  0  0  0
  -29.7745  -14.1253   25.3378 C   0  0  2  0  0  0  0  0  0  0  0  0
  -22.0587  -27.3844   25.1434 C   0  0  0  0  0  0  0  0  0  0  0  0
  -31.0711  -13.2567   25.0791 C   0  0  0  0  0  0  0  0  0  0  0  0
  -30.2695  -16.3061   26.2403 N   0  0  0  0  0  0  0  0  0  0  0  0
  -25.9348  -11.7182   20.4853 N   0  0  0  0  0  0  0  0  0  0  0  0
  -29.9520  -15.5485   25.1767 N   0  0  0  0  0  0  0  0  0  0  0  0
  -26.1935  -13.0333   20.3871 N   0  0  0  0  0  0  0  0  0  0  0  0
  -24.9532  -26.8827   23.0855 N   0  0  0  0  0  0  0  0  0  0  0  0
  -30.0151  -13.0005   20.3327 N   0  0  0  0  0  0  0  0  0  0  0  0
  -25.1859  -15.1722   20.5292 N   0  0  0  0  0  0  0  0  0  0  0  0
  -21.7569  -12.3489   21.3456 N   0  0  0  0  0  0  0  0  0  0  0  0
  -27.6816  -28.8468   24.2807 N   0  0  0  0  0  0  0  0  0  0  0  0
  -21.5936  -26.9942   22.6867 N   0  0  0  0  0  0  0  0  0  0  0  0
  -30.7006  -13.1807   22.5891 N   0  0  0  0  0  0  0  0  0  0  0  0
  -20.3205  -25.4017   19.7016 N   0  3  0  0  0  0  0  0  0  0  0  0
  -22.3410  -14.5561   21.1323 O   0  0  0  0  0  0  0  0  0  0  0  0
  -26.7903  -26.8163   24.9915 O   0  0  0  0  0  0  0  0  0  0  0  0
  -23.7217  -28.8622   23.1232 O   0  0  0  0  0  0  0  0  0  0  0  0
  -21.5844  -24.7437   22.1278 O   0  0  0  0  0  0  0  0  0  0  0  0
  -32.1523  -13.7045   20.8935 O   0  0  0  0  0  0  0  0  0  0  0  0
  -22.0303   -6.7861   21.4747 O   0  0  0  0  0  0  0  0  0  0  0  0
  -27.4326  -21.2717   22.4362 O   0  0  0  0  0  0  0  0  0  1  0  0
  -18.5805   -6.3204   25.7509 F   0  0  0  0  0  0  0  0  0  0  0  0
  -22.4599   -4.8942   23.4441 F   0  0  0  0  0  0  0  0  0  0  0  0
  1  2  1  0  0  0  0
  1  5  2  0  0  0  0
  2  6  2  0  0  0  0
  3  8  2  0  0  0  0
  3 17  1  0  0  0  0
  4  9  1  0  0  0  0
  4 17  2  0  0  0  0
  5 19  1  0  0  0  0
  6 21  1  0  0  0  0
  7 10  2  0  0  0  0
  7 20  1  0  0  0  0
  8 24  1  0  0  0  0
  9 24  2  0  0  0  0
 10 25  1  0  0  0  0
 11 12  2  0  0  0  0
 11 26  1  0  0  0  0
 12 27  1  0  0  0  0
 13 22  1  0  0  0  0
 13 25  2  0  0  0  0
 14 27  2  0  0  0  0
 14 28  1  0  0  0  0
 15 23  1  0  0  0  0
 15 65  2  0  0  0  0
 16 23  2  0  0  0  0
 16 67  1  0  0  0  0
 17 29  1  0  0  0  0
 18 29  1  0  0  0  0
 18 30  2  0  0  0  0
 18 31  1  0  0  0  0
 19 21  2  0  0  0  0
 19 36  1  0  0  0  0
 20 22  2  0  0  0  0
 20 37  1  0  0  0  0
 21 45  1  0  0  0  0
 22 38  1  0  0  0  0
 23 56  1  0  0  0  0
 24 82  1  0  0  0  0
 25 83  1  0  0  0  0
 26 28  2  0  0  0  0
 26 82  1  0  0  0  0
 27 84  1  0  0  0  0
 28 85  1  0  0  0  0
 29 66  2  0  0  0  0
 30 68  1  0  0  0  0
 30 71  1  0  0  0  0
 31 72  1  0  0  0  0
 31 77  2  0  0  0  0
 32 46  1  0  0  0  0
 32 73  1  0  0  0  0
 32 78  2  0  0  0  0
 33 60  1  0  0  0  0
 33 69  1  0  0  0  0
 33 79  2  0  0  0  0
 34 61  1  0  0  0  0
 34 74  1  0  0  0  0
 34 80  2  0  0  0  0
 35 70  1  0  0  0  0
 35 75  1  0  0  0  0
 35 81  2  0  0  0  0
 36 39  1  0  0  0  0
 37 46  1  0  0  0  0
 38 69  1  0  0  0  0
 39 41  1  0  0  0  0
 40 42  1  0  0  0  0
 40 43  1  0  0  0  0
 41 45  1  0  0  0  0
 42 47  1  0  0  0  0
 43 70  1  0  0  0  0
 44 47  1  0  0  0  0
 44 70  1  0  0  0  0
 45 73  1  0  0  0  0
 46 69  1  0  0  0  0
 47 68  1  0  0  0  0
 48 61  1  0  0  0  0
 49 62  1  0  0  0  0
 50 63  1  0  0  0  0
 51 63  1  0  0  0  0
 52 63  1  0  0  0  0
 53 64  1  0  0  0  0
 54 64  1  0  0  0  0
 55 76  1  0  0  0  0
 56 57  1  0  0  0  0
 57 59  1  0  0  0  0
 58 64  1  0  0  0  0
 58 75  1  0  0  0  0
 59 83  1  0  0  0  0
 60 63  1  0  0  0  0
 60 74  1  0  0  0  0
 61 76  1  0  0  0  0
 62 64  1  0  0  0  0
 62 67  1  0  0  0  0
 65 67  1  0  0  0  0
 66 68  1  0  0  0  0
M  CHG  1  76   1
M  ISO  4  35 100  59 101  75 100  83 101
M  END
> <Batch ID>
0066

> <Smiles>
CNC(C)C(=O)NC(C(=O)N1Cc2cc([101O:1][101CH2:1]CCc3cnn(C(C)C(C)(C)C[100NH:0][100C:0](=O)N4CCCC(n5nc(-c6ccc(Oc7ccc(F)cc7F)cc6)c(C(N)=O)c5N)C4)c3)ccc2CC1C(=O)NC1CCCc2ccccc21)C(C)(C)C

> <Shape>
0.216

> <Color>
0.186

> <Negative vol penalty>
0.000

$$$$

  -OEChem-04052318093D

 98106  0     1  0  0  0  0  0999 V2000
  -33.4292  -31.0784   17.2314 C   0  0  0  0  0  0  0  0  0  0  0  0
  -32.4937  -30.2182   16.6655 C   0  0  0  0  0  0  0  0  0  0  0  0
  -24.2189   -9.2692   20.1724 C   0  0  0  0  0  0  0  0  0  0  0  0
  -22.8884  -10.1749   21.9742 C   0  0  0  0  0  0  0  0  0  0  0  0
  -33.5494  -31.1611   18.6180 C   0  0  0  0  0  0  0  0  0  0  0  0
  -31.6784  -29.4394   17.4860 C   0  0  0  0  0  0  0  0  0  0  0  0
  -25.0939  -26.6319   17.7665 C   0  0  0  0  0  0  0  0  0  0  0  0
  -23.5232   -8.0638   20.2646 C   0  0  0  0  0  0  0  0  0  0  0  0
  -22.1926   -8.9695   22.0664 C   0  0  0  0  0  0  0  0  0  0  0  0
  -24.4510  -25.4123   17.9737 C   0  0  0  0  0  0  0  0  0  0  0  0
  -22.6964   -5.8966   23.3834 C   0  0  0  0  0  0  0  0  0  0  0  0
  -22.4782   -5.3700   24.6565 C   0  0  0  0  0  0  0  0  0  0  0  0
  -24.6925  -25.6968   20.3570 C   0  0  0  0  0  0  0  0  0  0  0  0
  -20.0922   -5.4816   24.2937 C   0  0  0  0  0  0  0  0  0  0  0  0
  -28.7398  -17.9536   21.7627 C   0  0  0  0  0  0  0  0  0  0  0  0
  -23.9015  -10.3248   21.0273 C   0  0  0  0  0  0  0  0  0  0  0  0
  -24.2936  -12.6816   20.1332 C   0  0  0  0  0  0  0  0  0  0  0  0
  -32.7285  -30.3901   19.4560 C   0  0  0  0  0  0  0  0  0  0  0  0
  -25.5515  -27.3892   18.8544 C   0  0  0  0  0  0  0  0  0  0  0  0
  -31.7886  -29.5109   18.8851 C   0  0  0  0  0  0  0  0  0  0  0  0
  -25.3387  -26.9269   20.1610 C   0  0  0  0  0  0  0  0  0  0  0  0
  -28.4052  -18.4113   20.5117 C   0  0  0  0  0  0  0  0  0  0  0  0
  -22.5100   -7.9139   21.2115 C   0  0  0  0  0  0  0  0  0  0  0  0
  -24.2528  -24.9432   19.2690 C   0  0  0  0  0  0  0  0  0  0  0  0
  -21.6125   -6.2159   22.5655 C   0  0  0  0  0  0  0  0  0  0  0  0
  -21.1761   -5.1625   25.1116 C   0  0  0  0  0  0  0  0  0  0  0  0
  -20.3104   -6.0083   23.0206 C   0  0  0  0  0  0  0  0  0  0  0  0
  -24.6202  -11.5701   20.9329 C   0  0  0  0  0  0  0  0  0  0  0  0
  -26.9976  -18.4329   20.5097 C   0  0  0  0  0  0  0  0  0  0  0  0
  -25.2798  -13.5992   20.4014 C   0  0  0  0  0  0  0  0  0  0  0  0
  -23.1967  -12.8681   19.2289 C   0  0  0  0  0  0  0  0  0  0  0  0
  -28.3976  -28.4005   19.8447 C   0  0  0  0  0  0  0  0  0  0  0  0
  -28.4923  -16.2781   24.1153 C   0  0  0  0  0  0  0  0  0  0  0  0
  -26.6310  -29.9892   22.0532 C   0  0  0  0  0  0  0  0  0  0  0  0
  -23.7201  -30.2106   23.8209 C   0  0  0  0  0  0  0  0  0  0  0  0
  -32.9276  -30.4786   20.9484 C   0  0  0  0  0  0  0  0  0  0  0  0
  -26.2194  -28.7155   18.6150 C   0  0  0  0  0  0  0  0  0  0  0  0
  -25.7928  -27.7117   21.3636 C   0  0  0  0  0  0  0  0  0  0  0  0
  -31.7681  -29.8968   21.7531 C   0  0  0  0  0  0  0  0  0  0  0  0
  -29.6497  -13.1171   22.8872 C   0  0  0  0  0  0  0  0  0  0  0  0
  -31.3557  -28.5402   21.1908 C   0  0  0  0  0  0  0  0  0  0  0  0
  -28.4100  -12.5114   22.2304 C   0  0  0  0  0  0  0  0  0  0  0  0
  -29.2842  -13.9356   24.1215 C   0  0  0  0  0  0  0  0  0  0  0  0
  -27.0334  -14.4028   23.2063 C   0  0  0  0  0  0  0  0  0  0  0  0
  -30.8691  -28.6682   19.7422 C   0  0  1  0  0  0  0  0  0  0  0  0
  -27.1020  -29.1586   19.7777 C   0  0  1  0  0  0  0  0  0  0  0  0
  -27.3552  -13.5931   21.9378 C   0  0  2  0  0  0  0  0  0  0  0  0
  -29.5301  -18.8851   16.7192 C   0  0  0  0  0  0  0  0  0  0  0  0
  -30.5392  -16.4470   19.2719 C   0  0  0  0  0  0  0  0  0  0  0  0
  -27.3472  -18.3795   24.7846 C   0  0  0  0  0  0  0  0  0  0  0  0
  -22.5833  -31.5946   25.5787 C   0  0  0  0  0  0  0  0  0  0  0  0
  -23.7708  -17.8164   17.3881 C   0  0  0  0  0  0  0  0  0  0  0  0
  -28.5696  -21.3193   19.3458 C   0  0  0  0  0  0  0  0  0  0  0  0
  -32.3633  -24.5630   21.1386 C   0  0  0  0  0  0  0  0  0  0  0  0
  -34.0901  -22.7479   21.4515 C   0  0  0  0  0  0  0  0  0  0  0  0
  -28.3767  -28.6970   24.1962 C   0  0  0  0  0  0  0  0  0  0  0  0
  -26.6457  -29.3315   25.8901 C   0  0  0  0  0  0  0  0  0  0  0  0
  -27.8372  -31.1049   24.6024 C   0  0  0  0  0  0  0  0  0  0  0  0
  -21.5120  -30.9345   21.9880 C   0  0  0  0  0  0  0  0  0  0  0  0
  -30.7738  -22.7426   23.2127 C   0  0  0  0  0  0  0  0  0  0  0  0
  -26.1022  -18.8427   19.4137 C   0  0  0  0  0  0  0  0  0  0  0  0
  -28.7019  -18.5419   17.9565 C   0  0  0  0  0  0  0  0  0  0  0  0
  -30.7076  -17.9611   19.4066 C   0  0  0  0  0  0  0  0  0  0  0  0
  -24.6304  -18.4449   19.6646 C   0  0  0  0  0  0  0  0  0  0  0  0
  -23.6578  -21.3661   19.0774 C   0  0  0  0  0  0  0  0  0  0  0  0
  -23.8125  -20.2752   18.0163 C   0  0  0  0  0  0  0  0  0  0  0  0
  -30.5458  -20.7141   20.7986 C   0  0  0  0  0  0  0  0  0  0  0  0
  -31.0821  -22.1446   20.8152 C   0  0  0  0  0  0  0  0  0  0  0  0
  -23.7738  -22.7571   18.4643 C   0  0  0  0  0  0  0  0  0  1  0  0
  -27.3967  -17.2507   23.7580 C   0  0  1  0  0  0  0  0  0  0  0  0
  -26.1111  -29.6734   23.4348 C   0  0  1  0  0  0  0  0  0  0  0  0
  -22.7899  -31.3803   24.0873 C   0  0  2  0  0  0  0  0  0  0  0  0
  -23.6574  -18.8295   18.5326 C   0  0  1  0  0  0  0  0  0  0  0  0
  -29.7673  -20.3615   19.4991 C   0  0  1  0  0  0  0  0  0  0  0  0
  -32.8501  -23.4216   22.0169 C   0  0  0  0  0  0  0  0  0  0  0  0
  -29.3769  -18.8129   19.3609 C   0  0  0  0  0  0  0  0  0  0  0  0
  -27.2357  -29.6857   24.5084 C   0  0  0  0  0  0  0  0  0  0  0  0
  -25.7275  -11.7618   21.6548 N   0  0  0  0  0  0  0  0  0  0  0  0
  -26.4740  -18.0215   21.6676 N   0  0  0  0  0  0  0  0  0  0  0  0
  -27.5583  -17.7370   22.4087 N   0  0  0  0  0  0  0  0  0  0  0  0
  -26.1053  -13.0045   21.3097 N   0  0  0  0  0  0  0  0  0  0  0  0
  -26.4465  -28.9994   21.0775 N   0  0  0  0  0  0  0  0  0  0  0  0
  -28.2635  -14.9369   23.8071 N   0  0  0  0  0  0  0  0  0  0  0  0
  -25.5128  -14.8486   19.9463 N   0  0  0  0  0  0  0  0  0  0  0  0
  -22.2750  -11.8239   19.0722 N   0  0  0  0  0  0  0  0  0  0  0  0
  -29.5210  -29.1932   19.7064 N   0  0  0  0  0  0  0  0  0  0  0  0
  -25.0305  -30.6196   23.6905 N   0  0  0  0  0  0  0  0  0  0  0  0
  -21.4605  -31.1386   23.4586 N   0  3  0  0  0  0  0  0  0  0  0  0
  -31.7509  -22.3934   22.1177 N   0  3  1  0  0  0  0  0  0  0  0  0
  -23.0477  -13.9230   18.5668 O   0  0  0  0  0  0  0  0  0  0  0  0
  -28.3794  -27.1866   20.0110 O   0  0  0  0  0  0  0  0  0  0  0  0
  -29.5213  -16.7000   24.6495 O   0  0  0  0  0  0  0  0  0  0  0  0
  -27.1741  -31.0771   21.8455 O   0  0  0  0  0  0  0  0  0  0  0  0
  -23.3244  -29.0498   23.7404 O   0  0  0  0  0  0  0  0  0  0  0  0
  -21.8308   -6.7379   21.3016 O   0  0  0  0  0  0  0  0  0  0  0  0
  -23.6216  -23.7442   19.4756 O   0  0  0  0  0  0  0  0  0  1  0  0
  -20.9668   -4.6553   26.3335 F   0  0  0  0  0  0  0  0  0  0  0  0
  -19.2651   -6.3119   22.2390 F   0  0  0  0  0  0  0  0  0  0  0  0
  1  2  1  0  0  0  0
  1  5  2  0  0  0  0
  2  6  2  0  0  0  0
  3  8  2  0  0  0  0
  3 16  1  0  0  0  0
  4  9  1  0  0  0  0
  4 16  2  0  0  0  0
  5 18  1  0  0  0  0
  6 20  1  0  0  0  0
  7 10  2  0  0  0  0
  7 19  1  0  0  0  0
  8 23  1  0  0  0  0
  9 23  2  0  0  0  0
 10 24  1  0  0  0  0
 11 12  2  0  0  0  0
 11 25  1  0  0  0  0
 12 26  1  0  0  0  0
 13 21  1  0  0  0  0
 13 24  2  0  0  0  0
 14 26  2  0  0  0  0
 14 27  1  0  0  0  0
 15 22  2  0  0  0  0
 15 80  1  0  0  0  0
 16 28  1  0  0  0  0
 17 28  1  0  0  0  0
 17 30  2  0  0  0  0
 17 31  1  0  0  0  0
 18 20  2  0  0  0  0
 18 36  1  0  0  0  0
 19 21  2  0  0  0  0
 19 37  1  0  0  0  0
 20 45  1  0  0  0  0
 21 38  1  0  0  0  0
 22 29  1  0  0  0  0
 22 76  1  0  0  0  0
 23 95  1  0  0  0  0
 24 96  1  0  0  0  0
 25 27  2  0  0  0  0
 25 95  1  0  0  0  0
 26 97  1  0  0  0  0
 27 98  1  0  0  0  0
 28 78  2  0  0  0  0
 29 61  1  0  0  0  0
 29 79  2  0  0  0  0
 30 81  1  0  0  0  0
 30 84  1  0  0  0  0
 31 85  1  0  0  0  0
 31 90  2  0  0  0  0
 32 46  1  0  0  0  0
 32 86  1  0  0  0  0
 32 91  2  0  0  0  0
 33 70  1  0  0  0  0
 33 83  1  0  0  0  0
 33 92  2  0  0  0  0
 34 71  1  0  0  0  0
 34 82  1  0  0  0  0
 34 93  2  0  0  0  0
 35 72  1  0  0  0  0
 35 87  1  0  0  0  0
 35 94  2  0  0  0  0
 36 39  1  0  0  0  0
 37 46  1  0  0  0  0
 38 82  1  0  0  0  0
 39 41  1  0  0  0  0
 40 42  1  0  0  0  0
 40 43  1  0  0  0  0
 41 45  1  0  0  0  0
 42 47  1  0  0  0  0
 43 83  1  0  0  0  0
 44 47  1  0  0  0  0
 44 83  1  0  0  0  0
 45 86  1  0  0  0  0
 46 82  1  0  0  0  0
 47 81  1  0  0  0  0
 48 62  1  0  0  0  0
 49 63  1  0  0  0  0
 50 70  1  0  0  0  0
 51 72  1  0  0  0  0
 52 73  1  0  0  0  0
 53 74  1  0  0  0  0
 54 75  1  0  0  0  0
 55 75  1  0  0  0  0
 56 77  1  0  0  0  0
 57 77  1  0  0  0  0
 58 77  1  0  0  0  0
 59 88  1  0  0  0  0
 60 89  1  0  0  0  0
 61 64  1  0  0  0  0
 62 76  1  0  0  0  0
 63 76  1  0  0  0  0
 64 73  1  0  0  0  0
 65 66  1  0  0  0  0
 65 69  1  0  0  0  0
 66 73  1  0  0  0  0
 67 68  1  0  0  0  0
 67 74  1  0  0  0  0
 68 89  1  0  0  0  0
 69 96  1  0  0  0  0
 70 80  1  0  0  0  0
 71 77  1  0  0  0  0
 71 87  1  0  0  0  0
 72 88  1  0  0  0  0
 74 76  1  0  0  0  0
 75 89  1  0  0  0  0
 78 81  1  0  0  0  0
 79 80  1  0  0  0  0
M  CHG  2  88   1  89   1
M  ISO  4  33 100  69 101  70 100  96 101
M  END
> <Batch ID>
0066

> <Smiles>
CCC(CC)(c1cn([100CH:0](C)[100C:0](=O)N2CCCC(n3nc(-c4ccc(Oc5ccc(F)cc5F)cc4)c(C(N)=O)c3N)C2)nc1CCC(C)CC[101CH2:1][101O:1]c1ccc2c(c1)CN(C(=O)C(NC(=O)C(C)NC)C(C)(C)C)C(C(=O)NC1CCCc3ccccc31)C2)C(C)CCN(C)C(C)C

> <Shape>
0.236

> <Color>
0.133

> <Negative vol penalty>
0.000

$$$$

  -OEChem-04052318093D

 98106  0     1  0  0  0  0  0999 V2000
  -15.5308  -26.3572   23.7635 C   0  0  0  0  0  0  0  0  0  0  0  0
  -16.5386  -25.8035   22.9804 C   0  0  0  0  0  0  0  0  0  0  0  0
  -24.4981  -13.6262   22.3159 C   0  0  0  0  0  0  0  0  0  0  0  0
  -26.5574  -13.6079   21.0525 C   0  0  0  0  0  0  0  0  0  0  0  0
  -15.6230  -27.6846   24.1800 C   0  0  0  0  0  0  0  0  0  0  0  0
  -17.6387  -26.5773   22.6124 C   0  0  0  0  0  0  0  0  0  0  0  0
  -23.4173  -24.6692   21.9249 C   0  0  0  0  0  0  0  0  0  0  0  0
  -24.0012  -12.5934   21.5210 C   0  0  0  0  0  0  0  0  0  0  0  0
  -26.0605  -12.5750   20.2576 C   0  0  0  0  0  0  0  0  0  0  0  0
  -24.1607  -24.3153   20.7998 C   0  0  0  0  0  0  0  0  0  0  0  0
  -22.3302   -9.7167   20.0556 C   0  0  0  0  0  0  0  0  0  0  0  0
  -21.6879   -8.6570   20.6960 C   0  0  0  0  0  0  0  0  0  0  0  0
  -25.0784  -26.5445   20.7123 C   0  0  0  0  0  0  0  0  0  0  0  0
  -23.7090   -8.1777   21.9299 C   0  0  0  0  0  0  0  0  0  0  0  0
  -30.1428  -18.6093   21.0646 C   0  0  0  0  0  0  0  0  0  0  0  0
  -25.7762  -14.1336   22.0816 C   0  0  0  0  0  0  0  0  0  0  0  0
  -27.0225  -15.0769   24.0977 C   0  0  0  0  0  0  0  0  0  0  0  0
  -16.7295  -28.4722   23.8250 C   0  0  0  0  0  0  0  0  0  0  0  0
  -23.4907  -25.9687   22.4466 C   0  0  0  0  0  0  0  0  0  0  0  0
  -17.7451  -27.9169   23.0234 C   0  0  0  0  0  0  0  0  0  0  0  0
  -24.3369  -26.9116   21.8457 C   0  0  0  0  0  0  0  0  0  0  0  0
  -24.7824  -12.0677   20.4918 C   0  0  0  0  0  0  0  0  0  0  0  0
  -24.9891  -25.2538   20.1916 C   0  0  0  0  0  0  0  0  0  0  0  0
  -23.6619  -10.0068   20.3522 C   0  0  0  0  0  0  0  0  0  0  0  0
  -22.3773   -7.8875   21.6331 C   0  0  0  0  0  0  0  0  0  0  0  0
  -24.3513   -9.2374   21.2894 C   0  0  0  0  0  0  0  0  0  0  0  0
  -26.2898  -15.2009   22.9020 C   0  0  0  0  0  0  0  0  0  0  0  0
  -29.9026  -19.9533   20.8814 C   0  0  0  0  0  0  0  0  0  0  0  0
  -30.0663  -18.2871   18.8019 C   0  0  0  0  0  0  0  0  0  0  0  0
  -29.8254  -19.6310   18.6186 C   0  0  0  0  0  0  0  0  0  0  0  0
  -27.2717  -16.3713   24.4835 C   0  0  0  0  0  0  0  0  0  0  0  0
  -27.4405  -13.8971   24.7970 C   0  0  0  0  0  0  0  0  0  0  0  0
  -21.4129  -28.3368   22.8692 C   0  0  0  0  0  0  0  0  0  0  0  0
  -23.9138  -29.7393   24.3861 C   0  0  0  0  0  0  0  0  0  0  0  0
  -28.4604  -21.5324   22.0968 C   0  0  0  0  0  0  0  0  0  0  0  0
  -27.2939  -29.9667   24.7988 C   0  0  0  0  0  0  0  0  0  0  0  0
  -16.7620  -29.9161   24.2594 C   0  0  0  0  0  0  0  0  0  0  0  0
  -22.7029  -26.3270   23.6768 C   0  0  0  0  0  0  0  0  0  0  0  0
  -24.4667  -28.3142   22.3789 C   0  0  0  0  0  0  0  0  0  0  0  0
  -18.1422  -30.5573   24.1394 C   0  0  0  0  0  0  0  0  0  0  0  0
  -25.2504  -20.7633   23.4912 C   0  0  0  0  0  0  0  0  0  0  0  0
  -18.7678  -30.2286   22.7876 C   0  0  0  0  0  0  0  0  0  0  0  0
  -25.2489  -19.2371   23.5683 C   0  0  0  0  0  0  0  0  0  0  0  0
  -26.0085  -21.2596   22.2640 C   0  0  0  0  0  0  0  0  0  0  0  0
  -27.4095  -19.2204   22.2430 C   0  0  0  0  0  0  0  0  0  0  0  0
  -18.9662  -28.7169   22.6244 C   0  0  1  0  0  0  0  0  0  0  0  0
  -22.4620  -27.8269   23.8163 C   0  0  1  0  0  0  0  0  0  0  0  0
  -26.6803  -18.6780   23.4850 C   0  0  2  0  0  0  0  0  0  0  0  0
  -27.3309  -17.3033   19.0243 C   0  0  0  0  0  0  0  0  0  0  0  0
  -29.0411  -31.2305   26.0823 C   0  0  0  0  0  0  0  0  0  0  0  0
  -29.9177  -20.2038   23.4591 C   0  0  0  0  0  0  0  0  0  0  0  0
  -30.9329  -19.9785   16.3634 C   0  0  0  0  0  0  0  0  0  0  0  0
  -28.5497  -19.4350   16.4150 C   0  0  0  0  0  0  0  0  0  0  0  0
  -23.5071  -32.1504   22.5611 C   0  0  0  0  0  0  0  0  0  0  0  0
  -25.7929  -32.9393   23.2098 C   0  0  0  0  0  0  0  0  0  0  0  0
  -24.0128  -32.7188   24.9434 C   0  0  0  0  0  0  0  0  0  0  0  0
  -28.6187  -13.9091   16.2147 C   0  0  0  0  0  0  0  0  0  0  0  0
  -30.9692  -14.7508   16.1644 C   0  0  0  0  0  0  0  0  0  0  0  0
  -29.1637  -15.9849   14.9932 C   0  0  0  0  0  0  0  0  0  0  0  0
  -29.0790  -22.3932   15.8391 C   0  0  0  0  0  0  0  0  0  0  0  0
  -30.3844  -22.6422   17.9381 C   0  0  0  0  0  0  0  0  0  0  0  0
  -29.5389  -15.2073   18.8776 C   0  0  0  0  0  0  0  0  0  0  0  0
  -28.2921  -27.5002   26.0945 C   0  0  0  0  0  0  0  0  0  0  0  0
  -30.1591  -17.3495   17.6469 C   0  0  0  0  0  0  0  0  0  0  0  0
  -27.7183  -16.4913   17.7970 C   0  0  0  0  0  0  0  0  0  0  0  0
  -27.4527  -23.4869   18.2327 C   0  0  0  0  0  0  0  0  0  0  0  0
  -27.9332  -22.0369   18.0762 C   0  0  0  0  0  0  0  0  0  0  0  0
  -30.8535  -22.0381   21.9854 C   0  0  0  0  0  0  0  0  0  0  0  0
  -26.1258  -23.5504   18.9822 C   0  0  0  0  0  0  0  0  0  1  0  0
  -25.0547  -30.6335   23.9646 C   0  0  1  0  0  0  0  0  0  0  0  0
  -28.1566  -29.9938   26.0475 C   0  0  2  0  0  0  0  0  0  0  0  0
  -29.8148  -20.8710   22.0501 C   0  0  1  0  0  0  0  0  0  0  0  0
  -29.6386  -20.2345   17.1984 C   0  0  0  0  0  0  0  0  0  0  0  0
  -24.5882  -32.0847   23.6583 C   0  0  0  0  0  0  0  0  0  0  0  0
  -29.4894  -15.1875   16.2871 C   0  0  0  0  0  0  0  0  0  0  0  0
  -29.2606  -21.8117   17.2654 C   0  0  0  0  0  0  0  0  0  0  0  0
  -29.2205  -16.0698   17.6174 C   0  0  2  0  0  0  0  0  0  0  0  0
  -30.2290  -17.7521   20.0281 N   0  0  0  0  0  0  0  0  0  0  0  0
  -26.0866  -16.4736   22.5515 N   0  0  0  0  0  0  0  0  0  0  0  0
  -29.7395  -20.4882   19.6551 N   0  0  0  0  0  0  0  0  0  0  0  0
  -26.6953  -17.1612   23.5328 N   0  0  0  0  0  0  0  0  0  0  0  0
  -23.6714  -28.6180   23.5801 N   0  0  0  0  0  0  0  0  0  0  0  0
  -27.3553  -20.6885   22.2092 N   0  0  0  0  0  0  0  0  0  0  0  0
  -27.9254  -16.8995   25.5400 N   0  0  0  0  0  0  0  0  0  0  0  0
  -27.1002  -12.6473   24.2617 N   0  0  0  0  0  0  0  0  0  0  0  0
  -20.1262  -28.2760   23.3692 N   0  0  0  0  0  0  0  0  0  0  0  0
  -26.0587  -30.5386   25.0189 N   0  0  0  0  0  0  0  0  0  0  0  0
  -32.2444  -21.5173   21.9651 N   0  3  0  0  0  0  0  0  0  0  0  0
  -29.0317  -28.7886   26.0988 N   0  3  0  0  0  0  0  0  0  0  0  0
  -28.0823  -13.9497   25.8735 O   0  0  0  0  0  0  0  0  0  0  0  0
  -21.7464  -28.7559   21.7670 O   0  0  0  0  0  0  0  0  0  0  0  0
  -23.2663  -30.0212   25.3975 O   0  0  0  0  0  0  0  0  0  0  0  0
  -28.3889  -22.7627   22.0380 O   0  0  0  0  0  0  0  0  0  0  0  0
  -27.6787  -29.4895   23.7335 O   0  0  0  0  0  0  0  0  0  0  0  0
  -24.2980  -11.0597   19.7161 O   0  0  0  0  0  0  0  0  0  0  0  0
  -25.7206  -24.9087   19.0848 O   0  0  0  0  0  0  0  0  0  1  0  0
  -21.7599   -6.8709   22.2492 F   0  0  0  0  0  0  0  0  0  0  0  0
  -25.6305   -9.5120   21.5794 F   0  0  0  0  0  0  0  0  0  0  0  0
  1  2  1  0  0  0  0
  1  5  2  0  0  0  0
  2  6  2  0  0  0  0
  3  8  2  0  0  0  0
  3 16  1  0  0  0  0
  4  9  1  0  0  0  0
  4 16  2  0  0  0  0
  5 18  1  0  0  0  0
  6 20  1  0  0  0  0
  7 10  2  0  0  0  0
  7 19  1  0  0  0  0
  8 22  1  0  0  0  0
  9 22  2  0  0  0  0
 10 23  1  0  0  0  0
 11 12  2  0  0  0  0
 11 24  1  0  0  0  0
 12 25  1  0  0  0  0
 13 21  1  0  0  0  0
 13 23  2  0  0  0  0
 14 25  2  0  0  0  0
 14 26  1  0  0  0  0
 15 28  1  0  0  0  0
 15 78  2  0  0  0  0
 16 27  1  0  0  0  0
 17 27  1  0  0  0  0
 17 31  2  0  0  0  0
 17 32  1  0  0  0  0
 18 20  2  0  0  0  0
 18 37  1  0  0  0  0
 19 21  2  0  0  0  0
 19 38  1  0  0  0  0
 20 46  1  0  0  0  0
 21 39  1  0  0  0  0
 22 95  1  0  0  0  0
 23 96  1  0  0  0  0
 24 26  2  0  0  0  0
 24 95  1  0  0  0  0
 25 97  1  0  0  0  0
 26 98  1  0  0  0  0
 27 79  2  0  0  0  0
 28 72  1  0  0  0  0
 28 80  2  0  0  0  0
 29 30  2  0  0  0  0
 29 64  1  0  0  0  0
 29 78  1  0  0  0  0
 30 73  1  0  0  0  0
 30 80  1  0  0  0  0
 31 81  1  0  0  0  0
 31 84  1  0  0  0  0
 32 85  1  0  0  0  0
 32 90  2  0  0  0  0
 33 47  1  0  0  0  0
 33 86  1  0  0  0  0
 33 91  2  0  0  0  0
 34 70  1  0  0  0  0
 34 82  1  0  0  0  0
 34 92  2  0  0  0  0
 35 72  1  0  0  0  0
 35 83  1  0  0  0  0
 35 93  2  0  0  0  0
 36 71  1  0  0  0  0
 36 87  1  0  0  0  0
 36 94  2  0  0  0  0
 37 40  1  0  0  0  0
 38 47  1  0  0  0  0
 39 82  1  0  0  0  0
 40 42  1  0  0  0  0
 41 43  1  0  0  0  0
 41 44  1  0  0  0  0
 42 46  1  0  0  0  0
 43 48  1  0  0  0  0
 44 83  1  0  0  0  0
 45 48  1  0  0  0  0
 45 83  1  0  0  0  0
 46 86  1  0  0  0  0
 47 82  1  0  0  0  0
 48 81  1  0  0  0  0
 49 65  1  0  0  0  0
 50 71  1  0  0  0  0
 51 72  1  0  0  0  0
 52 73  1  0  0  0  0
 53 73  1  0  0  0  0
 54 74  1  0  0  0  0
 55 74  1  0  0  0  0
 56 74  1  0  0  0  0
 57 75  1  0  0  0  0
 58 75  1  0  0  0  0
 59 75  1  0  0  0  0
 60 76  1  0  0  0  0
 61 76  1  0  0  0  0
 62 77  1  0  0  0  0
 63 89  1  0  0  0  0
 64 77  1  0  0  0  0
 65 77  1  0  0  0  0
 66 67  1  0  0  0  0
 66 69  1  0  0  0  0
 67 76  1  0  0  0  0
 68 72  1  0  0  0  0
 68 88  1  0  0  0  0
 69 96  1  0  0  0  0
 70 74  1  0  0  0  0
 70 87  1  0  0  0  0
 71 89  1  0  0  0  0
 73 76  1  0  0  0  0
 75 77  1  0  0  0  0
 79 81  1  0  0  0  0
M  CHG  2  88   1  89   1
M  ISO  4  35 100  69 101  72 100  96 101
M  END
> <Batch ID>
0066

> <Smiles>
CCC(C)(Cc1ncc([100C:0](C)(CN)[100C:0](=O)N2CCCC(n3nc(-c4ccc(Oc5ccc(F)cc5F)cc4)c(C(N)=O)c3N)C2)nc1C(C)(C)C(C)(C)CC[101CH2:1][101O:1]c1ccc2c(c1)CN(C(=O)C(NC(=O)C(C)NC)C(C)(C)C)C(C(=O)NC1CCCc3ccccc31)C2)C(C)(C)C

> <Shape>
0.253

> <Color>
0.069

> <Negative vol penalty>
0.000

$$$$

  -OEChem-04052318093D

 90 98  0     1  0  0  0  0  0999 V2000
  -26.6278  -19.8292   26.0503 C   0  0  0  0  0  0  0  0  0  0  0  0
  -27.4723  -19.9988   24.9578 C   0  0  0  0  0  0  0  0  0  0  0  0
  -22.9739   -9.8783   19.9779 C   0  0  0  0  0  0  0  0  0  0  0  0
  -23.6942   -9.9176   22.2837 C   0  0  0  0  0  0  0  0  0  0  0  0
  -25.5543  -20.6980   26.2415 C   0  0  0  0  0  0  0  0  0  0  0  0
  -27.2430  -21.0367   24.0553 C   0  0  0  0  0  0  0  0  0  0  0  0
  -31.4866  -23.5072   22.8168 C   0  0  0  0  0  0  0  0  0  0  0  0
  -22.2038   -8.7447   20.2377 C   0  0  0  0  0  0  0  0  0  0  0  0
  -22.9241   -8.7840   22.5436 C   0  0  0  0  0  0  0  0  0  0  0  0
  -32.3309  -22.8974   21.8899 C   0  0  0  0  0  0  0  0  0  0  0  0
  -23.1607   -5.4464   22.0580 C   0  0  0  0  0  0  0  0  0  0  0  0
  -23.7440   -4.4245   22.8070 C   0  0  0  0  0  0  0  0  0  0  0  0
  -31.4387  -24.3148   20.1537 C   0  0  0  0  0  0  0  0  0  0  0  0
  -22.0171   -4.6648   24.4795 C   0  0  0  0  0  0  0  0  0  0  0  0
  -23.7191  -10.4647   21.0009 C   0  0  0  0  0  0  0  0  0  0  0  0
  -24.1113  -12.9800   20.8364 C   0  0  0  0  0  0  0  0  0  0  0  0
  -25.3174  -21.7530   25.3462 C   0  0  0  0  0  0  0  0  0  0  0  0
  -30.6027  -24.5196   22.4163 C   0  0  0  0  0  0  0  0  0  0  0  0
  -26.1645  -21.9196   24.2340 C   0  0  0  0  0  0  0  0  0  0  0  0
  -30.5860  -24.9376   21.0780 C   0  0  0  0  0  0  0  0  0  0  0  0
  -22.1789   -8.1975   21.5206 C   0  0  0  0  0  0  0  0  0  0  0  0
  -32.3050  -23.2992   20.5576 C   0  0  0  0  0  0  0  0  0  0  0  0
  -22.0057   -6.0777   22.5197 C   0  0  0  0  0  0  0  0  0  0  0  0
  -23.1722   -4.0337   24.0178 C   0  0  0  0  0  0  0  0  0  0  0  0
  -21.4338   -5.6868   23.7305 C   0  0  0  0  0  0  0  0  0  0  0  0
  -24.5152  -11.6354   20.7329 C   0  0  0  0  0  0  0  0  0  0  0  0
  -25.2238  -13.7013   20.4775 C   0  0  0  0  0  0  0  0  0  0  0  0
  -31.3209  -17.5234   20.7709 C   0  0  0  0  0  0  0  0  0  0  0  0
  -32.6673  -18.4436   19.4679 C   0  0  0  0  0  0  0  0  0  0  0  0
  -22.8440  -13.5281   21.2225 C   0  0  0  0  0  0  0  0  0  0  0  0
  -27.4424  -24.8600   22.3970 C   0  0  0  0  0  0  0  0  0  0  0  0
  -28.1635  -27.8748   21.4416 C   0  0  0  0  0  0  0  0  0  0  0  0
  -30.3969  -29.9890   19.9621 C   0  0  0  0  0  0  0  0  0  0  0  0
  -30.7220  -14.6204   20.7419 C   0  0  0  0  0  0  0  0  0  0  0  0
  -24.1164  -22.6378   25.5683 C   0  0  0  0  0  0  0  0  0  0  0  0
  -29.7174  -25.1858   23.4335 C   0  0  0  0  0  0  0  0  0  0  0  0
  -29.6700  -26.0339   20.6010 C   0  0  0  0  0  0  0  0  0  0  0  0
  -24.1635  -23.9397   24.7727 C   0  0  0  0  0  0  0  0  0  0  0  0
  -29.5801  -12.2098   18.3837 C   0  0  0  0  0  0  0  0  0  0  0  0
  -24.5621  -23.6670   23.3258 C   0  0  0  0  0  0  0  0  0  0  0  0
  -28.1301  -11.9520   18.7970 C   0  0  0  0  0  0  0  0  0  0  0  0
  -30.4805  -12.4376   19.5959 C   0  0  0  0  0  0  0  0  0  0  0  0
  -28.5695  -13.2324   20.9339 C   0  0  0  0  0  0  0  0  0  0  0  0
  -25.9631  -23.0487   23.2466 C   0  0  1  0  0  0  0  0  0  0  0  0
  -28.4918  -25.8509   22.8147 C   0  0  1  0  0  0  0  0  0  0  0  0
  -27.6126  -13.0523   19.7430 C   0  0  2  0  0  0  0  0  0  0  0  0
  -34.2197  -16.8236   17.3413 C   0  0  0  0  0  0  0  0  0  0  0  0
  -30.6896  -32.3888   19.2893 C   0  0  0  0  0  0  0  0  0  0  0  0
  -34.8124  -21.2945   17.7625 C   0  0  0  0  0  0  0  0  0  0  0  0
  -29.7713  -17.5531   22.8365 C   0  0  0  0  0  0  0  0  0  0  0  0
  -31.9655  -16.3749   22.9006 C   0  0  0  0  0  0  0  0  0  0  0  0
  -35.2317  -18.7696   19.5073 C   0  0  0  0  0  0  0  0  0  0  0  0
  -26.3003  -27.4335   19.0660 C   0  0  0  0  0  0  0  0  0  0  0  0
  -27.3464  -29.4239   17.9649 C   0  0  0  0  0  0  0  0  0  0  0  0
  -26.1252  -29.6931   20.1234 C   0  0  0  0  0  0  0  0  0  0  0  0
  -32.0740  -19.0951   16.6983 C   0  0  0  0  0  0  0  0  0  0  0  0
  -30.6222  -20.6674   18.0399 C   0  0  0  0  0  0  0  0  0  0  0  0
  -29.6932  -18.5443   17.1465 C   0  0  0  0  0  0  0  0  0  0  0  0
  -32.7527  -30.3164   21.7234 C   0  0  0  0  0  0  0  0  0  0  0  0
  -34.0419  -18.3419   17.3336 C   0  0  0  0  0  0  0  0  0  0  0  0
  -33.4807  -21.3432   19.8885 C   0  0  0  0  0  0  0  0  0  1  0  0
  -28.3807  -28.5510   20.1095 C   0  0  1  0  0  0  0  0  0  0  0  0
  -30.9211  -31.3518   20.3773 C   0  0  2  0  0  0  0  0  0  0  0  0
  -33.6918  -20.5922   18.5537 C   0  0  2  0  0  0  0  0  0  0  0  0
  -30.8078  -16.7941   21.9365 C   0  0  0  0  0  0  0  0  0  0  0  0
  -33.9064  -19.0259   18.7412 C   0  0  1  0  0  0  0  0  0  0  0  0
  -27.0541  -28.7534   19.3243 C   0  0  0  0  0  0  0  0  0  0  0  0
  -30.9602  -19.1851   17.7651 C   0  0  0  0  0  0  0  0  0  0  0  0
  -25.7850  -11.5073   20.3390 N   0  0  0  0  0  0  0  0  0  0  0  0
  -32.6497  -17.7921   20.6076 N   0  0  0  0  0  0  0  0  0  0  0  0
  -30.5151  -17.9675   19.8039 N   0  0  0  0  0  0  0  0  0  0  0  0
  -26.1886  -12.7807   20.1917 N   0  0  0  0  0  0  0  0  0  0  0  0
  -31.4011  -18.5521   18.9833 N   0  0  0  0  0  0  0  0  0  0  0  0
  -28.8190  -26.6502   21.6323 N   0  0  0  0  0  0  0  0  0  0  0  0
  -29.9346  -13.4941   20.4513 N   0  0  0  0  0  0  0  0  0  0  0  0
  -25.4609  -15.0268   20.3816 N   0  0  0  0  0  0  0  0  0  0  0  0
  -21.8091  -12.6452   21.5600 N   0  0  0  0  0  0  0  0  0  0  0  0
  -26.9758  -24.0666   23.4277 N   0  0  0  0  0  0  0  0  0  0  0  0
  -29.1024  -29.7870   20.3920 N   0  0  0  0  0  0  0  0  0  0  0  0
  -30.1264  -15.5773   21.5546 N   0  0  0  0  0  0  0  0  0  0  0  0
  -32.3834  -31.2815   20.6560 N   0  3  0  0  0  0  0  0  0  0  0  0
  -22.6304  -14.7639   21.2510 O   0  0  0  0  0  0  0  0  0  0  0  0
  -27.0817  -24.8192   21.2266 O   0  0  0  0  0  0  0  0  0  0  0  0
  -27.4445  -28.4169   22.2848 O   0  0  0  0  0  0  0  0  0  0  0  0
  -31.0673  -29.1856   19.3174 O   0  0  0  0  0  0  0  0  0  0  0  0
  -31.8688  -14.7652   20.3050 O   0  0  0  0  0  0  0  0  0  0  0  0
  -21.4274   -7.0915   21.7745 O   0  0  0  0  0  0  0  0  0  0  0  0
  -33.1276  -22.7052   19.6508 O   0  0  0  0  0  0  0  0  0  1  0  0
  -23.7315   -3.0513   24.7362 F   0  0  0  0  0  0  0  0  0  0  0  0
  -20.3236   -6.2887   24.1786 F   0  0  0  0  0  0  0  0  0  0  0  0
  1  2  1  0  0  0  0
  1  5  2  0  0  0  0
  2  6  2  0  0  0  0
  3  8  2  0  0  0  0
  3 15  1  0  0  0  0
  4  9  1  0  0  0  0
  4 15  2  0  0  0  0
  5 17  1  0  0  0  0
  6 19  1  0  0  0  0
  7 10  2  0  0  0  0
  7 18  1  0  0  0  0
  8 21  1  0  0  0  0
  9 21  2  0  0  0  0
 10 22  1  0  0  0  0
 11 12  2  0  0  0  0
 11 23  1  0  0  0  0
 12 24  1  0  0  0  0
 13 20  1  0  0  0  0
 13 22  2  0  0  0  0
 14 24  2  0  0  0  0
 14 25  1  0  0  0  0
 15 26  1  0  0  0  0
 16 26  1  0  0  0  0
 16 27  2  0  0  0  0
 16 30  1  0  0  0  0
 17 19  2  0  0  0  0
 17 35  1  0  0  0  0
 18 20  2  0  0  0  0
 18 36  1  0  0  0  0
 19 44  1  0  0  0  0
 20 37  1  0  0  0  0
 21 87  1  0  0  0  0
 22 88  1  0  0  0  0
 23 25  2  0  0  0  0
 23 87  1  0  0  0  0
 24 89  1  0  0  0  0
 25 90  1  0  0  0  0
 26 69  2  0  0  0  0
 27 72  1  0  0  0  0
 27 76  1  0  0  0  0
 28 65  1  0  0  0  0
 28 70  1  0  0  0  0
 28 71  2  0  0  0  0
 29 66  1  0  0  0  0
 29 70  2  0  0  0  0
 29 73  1  0  0  0  0
 30 77  1  0  0  0  0
 30 82  2  0  0  0  0
 31 45  1  0  0  0  0
 31 78  1  0  0  0  0
 31 83  2  0  0  0  0
 32 62  1  0  0  0  0
 32 74  1  0  0  0  0
 32 84  2  0  0  0  0
 33 63  1  0  0  0  0
 33 79  1  0  0  0  0
 33 85  2  0  0  0  0
 34 75  1  0  0  0  0
 34 80  1  0  0  0  0
 34 86  2  0  0  0  0
 35 38  1  0  0  0  0
 36 45  1  0  0  0  0
 37 74  1  0  0  0  0
 38 40  1  0  0  0  0
 39 41  1  0  0  0  0
 39 42  1  0  0  0  0
 40 44  1  0  0  0  0
 41 46  1  0  0  0  0
 42 75  1  0  0  0  0
 43 46  1  0  0  0  0
 43 75  1  0  0  0  0
 44 78  1  0  0  0  0
 45 74  1  0  0  0  0
 46 72  1  0  0  0  0
 47 60  1  0  0  0  0
 48 63  1  0  0  0  0
 49 64  1  0  0  0  0
 50 65  1  0  0  0  0
 51 65  1  0  0  0  0
 52 66  1  0  0  0  0
 53 67  1  0  0  0  0
 54 67  1  0  0  0  0
 55 67  1  0  0  0  0
 56 68  1  0  0  0  0
 57 68  1  0  0  0  0
 58 68  1  0  0  0  0
 59 81  1  0  0  0  0
 60 66  1  0  0  0  0
 61 64  1  0  0  0  0
 61 88  1  0  0  0  0
 62 67  1  0  0  0  0
 62 79  1  0  0  0  0
 63 81  1  0  0  0  0
 64 66  1  0  0  0  0
 65 80  1  0  0  0  0
 68 73  1  0  0  0  0
 69 72  1  0  0  0  0
 71 73  1  0  0  0  0
M  CHG  1  81   1
M  ISO  4  34 100  61 101  80 100  88 101
M  END
> <Batch ID>
0066

> <Smiles>
CCC(C)(c1nc(C(C)(C)[100NH:0][100C:0](=O)N2CCCC(n3nc(-c4ccc(Oc5ccc(F)cc5F)cc4)c(C(N)=O)c3N)C2)nn1C(C)(C)C)C(C)[101CH2:1][101O:1]c1ccc2c(c1)CN(C(=O)C(NC(=O)C(C)NC)C(C)(C)C)C(C(=O)NC1CCCc3ccccc31)C2

> <Shape>
0.238

> <Color>
0.198

> <Negative vol penalty>
0.000

$$$$

  -OEChem-04052318093D

 89 97  0     1  0  0  0  0  0999 V2000
  -16.8125  -29.1157   24.3176 C   0  0  0  0  0  0  0  0  0  0  0  0
  -17.2382  -28.1836   23.3766 C   0  0  0  0  0  0  0  0  0  0  0  0
  -25.0144  -11.3153   21.2999 C   0  0  0  0  0  0  0  0  0  0  0  0
  -25.2840  -12.8206   23.1703 C   0  0  0  0  0  0  0  0  0  0  0  0
  -17.4896  -30.3270   24.4529 C   0  0  0  0  0  0  0  0  0  0  0  0
  -18.3406  -28.4627   22.5697 C   0  0  0  0  0  0  0  0  0  0  0  0
  -22.5119  -24.4714   20.5264 C   0  0  0  0  0  0  0  0  0  0  0  0
  -25.2614  -10.2286   22.1388 C   0  0  0  0  0  0  0  0  0  0  0  0
  -25.5309  -11.7339   24.0093 C   0  0  0  0  0  0  0  0  0  0  0  0
  -22.6578  -23.8077   19.3090 C   0  0  0  0  0  0  0  0  0  0  0  0
  -23.5599   -8.4103   24.4262 C   0  0  0  0  0  0  0  0  0  0  0  0
  -22.7220   -7.3010   24.3137 C   0  0  0  0  0  0  0  0  0  0  0  0
  -24.1943  -25.5141   18.5698 C   0  0  0  0  0  0  0  0  0  0  0  0
  -24.6235   -5.9220   23.7483 C   0  0  0  0  0  0  0  0  0  0  0  0
  -29.2419  -20.0950   15.6658 C   0  0  0  0  0  0  0  0  0  0  0  0
  -25.0257  -12.6113   21.8157 C   0  0  0  0  0  0  0  0  0  0  0  0
  -23.5237  -14.3185   20.6594 C   0  0  0  0  0  0  0  0  0  0  0  0
  -18.6068  -30.6170   23.6539 C   0  0  0  0  0  0  0  0  0  0  0  0
  -23.1990  -25.6691   20.7710 C   0  0  0  0  0  0  0  0  0  0  0  0
  -19.0325  -29.6795   22.6935 C   0  0  0  0  0  0  0  0  0  0  0  0
  -24.0575  -26.1896   19.7921 C   0  0  0  0  0  0  0  0  0  0  0  0
  -25.5196  -10.4379   23.4935 C   0  0  0  0  0  0  0  0  0  0  0  0
  -23.4968  -24.3306   18.3294 C   0  0  0  0  0  0  0  0  0  0  0  0
  -24.9297   -8.2756   24.1996 C   0  0  0  0  0  0  0  0  0  0  0  0
  -23.2537   -6.0568   23.9748 C   0  0  0  0  0  0  0  0  0  0  0  0
  -25.4615   -7.0314   23.8607 C   0  0  0  0  0  0  0  0  0  0  0  0
  -24.7712  -13.7343   20.9495 C   0  0  0  0  0  0  0  0  0  0  0  0
  -28.3416  -19.9969   16.7037 C   0  0  0  0  0  0  0  0  0  0  0  0
  -27.5396  -19.8227   14.1633 C   0  0  0  0  0  0  0  0  0  0  0  0
  -26.6393  -19.7238   15.2012 C   0  0  0  0  0  0  0  0  0  0  0  0
  -23.8176  -15.3433   19.7934 C   0  0  0  0  0  0  0  0  0  0  0  0
  -22.2162  -13.9664   21.1306 C   0  0  0  0  0  0  0  0  0  0  0  0
  -22.3346  -28.6665   21.3812 C   0  0  0  0  0  0  0  0  0  0  0  0
  -25.5216  -29.0849   21.8175 C   0  0  0  0  0  0  0  0  0  0  0  0
  -27.9049  -19.2799   19.0104 C   0  0  0  0  0  0  0  0  0  0  0  0
  -28.6994  -28.0307   21.1563 C   0  0  0  0  0  0  0  0  0  0  0  0
  -19.2777  -31.9594   23.8038 C   0  0  0  0  0  0  0  0  0  0  0  0
  -23.0516  -26.3587   22.0996 C   0  0  0  0  0  0  0  0  0  0  0  0
  -24.8332  -27.4617   20.0129 C   0  0  0  0  0  0  0  0  0  0  0  0
  -20.6645  -32.0216   23.1689 C   0  0  0  0  0  0  0  0  0  0  0  0
  -27.5908  -16.4119   16.7962 C   0  0  0  0  0  0  0  0  0  0  0  0
  -20.6386  -31.4151   21.7695 C   0  0  0  0  0  0  0  0  0  0  0  0
  -26.7297  -15.4698   17.6366 C   0  0  0  0  0  0  0  0  0  0  0  0
  -28.5495  -17.2215   17.6654 C   0  0  0  0  0  0  0  0  0  0  0  0
  -27.0117  -17.0484   19.5966 C   0  0  0  0  0  0  0  0  0  0  0  0
  -20.2392  -29.9353   21.8169 C   0  0  1  0  0  0  0  0  0  0  0  0
  -23.4017  -27.8425   22.0447 C   0  0  1  0  0  0  0  0  0  0  0  0
  -26.0094  -16.2354   18.7602 C   0  0  2  0  0  0  0  0  0  0  0  0
  -28.2744  -19.5440   11.7824 C   0  0  0  0  0  0  0  0  0  0  0  0
  -31.0995  -28.5962   21.6224 C   0  0  0  0  0  0  0  0  0  0  0  0
  -30.2252  -19.5250   18.4155 C   0  0  0  0  0  0  0  0  0  0  0  0
  -25.3682  -31.3788   19.8113 C   0  0  0  0  0  0  0  0  0  0  0  0
  -27.8607  -31.2702   19.6021 C   0  0  0  0  0  0  0  0  0  0  0  0
  -26.8183  -31.8266   21.7990 C   0  0  0  0  0  0  0  0  0  0  0  0
  -29.1711  -25.4355   22.4985 C   0  0  0  0  0  0  0  0  0  0  0  0
  -30.4539  -24.9031   17.9363 C   0  0  0  0  0  0  0  0  0  0  0  0
  -28.1353  -24.3762   18.6759 C   0  0  0  0  0  0  0  0  0  0  0  0
  -27.1009  -19.7264   12.7420 C   0  0  0  0  0  0  0  0  0  0  0  0
  -25.1677  -19.5135   14.9480 C   0  0  0  0  0  0  0  0  0  0  0  0
  -24.2602  -20.1498   16.0068 C   0  0  0  0  0  0  0  0  0  0  0  0
  -24.3807  -21.6734   16.0612 C   0  0  0  0  0  0  0  0  0  0  0  0
  -28.7465  -21.5661   18.6733 C   0  0  0  0  0  0  0  0  0  0  0  0
  -29.6492  -22.5463   17.9275 C   0  0  0  0  0  0  0  0  0  0  0  0
  -23.4958  -22.2656   17.1497 C   0  0  0  0  0  0  0  0  0  1  0  0
  -26.6827  -29.4572   20.9274 C   0  0  1  0  0  0  0  0  0  0  0  0
  -29.8900  -27.7882   22.0663 C   0  0  2  0  0  0  0  0  0  0  0  0
  -28.8026  -20.0968   18.1155 C   0  0  1  0  0  0  0  0  0  0  0  0
  -26.6665  -30.9602   20.5297 C   0  0  0  0  0  0  0  0  0  0  0  0
  -28.8571  -20.0097   14.3769 N   0  0  0  0  0  0  0  0  0  0  0  0
  -25.7823  -14.3376   20.3188 N   0  0  0  0  0  0  0  0  0  0  0  0
  -27.0241  -19.8095   16.4900 N   0  0  0  0  0  0  0  0  0  0  0  0
  -25.1705  -15.3115   19.6237 N   0  0  0  0  0  0  0  0  0  0  0  0
  -24.6506  -28.1024   21.3258 N   0  0  0  0  0  0  0  0  0  0  0  0
  -27.8281  -17.9134   18.7401 N   0  0  0  0  0  0  0  0  0  0  0  0
  -23.0481  -16.2593   19.1679 N   0  0  0  0  0  0  0  0  0  0  0  0
  -22.0934  -12.8870   22.0161 N   0  0  0  0  0  0  0  0  0  0  0  0
  -21.3579  -29.1233   22.2453 N   0  0  0  0  0  0  0  0  0  0  0  0
  -27.8889  -29.0389   21.6335 N   0  0  0  0  0  0  0  0  0  0  0  0
  -30.2611  -26.3448   22.0603 N   0  3  0  0  0  0  0  0  0  0  0  0
  -29.5556  -23.8769   18.5808 N   0  3  0  0  0  0  0  0  0  0  0  0
  -21.1854  -14.5802   20.7641 O   0  0  0  0  0  0  0  0  0  0  0  0
  -22.3940  -28.8737   20.1749 O   0  0  0  0  0  0  0  0  0  0  0  0
  -25.3963  -29.6402   22.9118 O   0  0  0  0  0  0  0  0  0  0  0  0
  -27.2892  -19.8418   19.9200 O   0  0  0  0  0  0  0  0  0  0  0  0
  -28.5095  -27.3923   20.1234 O   0  0  0  0  0  0  0  0  0  0  0  0
  -25.7604   -9.3778   24.3125 O   0  0  0  0  0  0  0  0  0  0  0  0
  -23.6404  -23.6852   17.1399 O   0  0  0  0  0  0  0  0  0  1  0  0
  -22.4491   -4.9912   23.8683 F   0  0  0  0  0  0  0  0  0  0  0  0
  -26.7768   -6.8955   23.6431 F   0  0  0  0  0  0  0  0  0  0  0  0
  1  2  1  0  0  0  0
  1  5  2  0  0  0  0
  2  6  2  0  0  0  0
  3  8  2  0  0  0  0
  3 16  1  0  0  0  0
  4  9  1  0  0  0  0
  4 16  2  0  0  0  0
  5 18  1  0  0  0  0
  6 20  1  0  0  0  0
  7 10  2  0  0  0  0
  7 19  1  0  0  0  0
  8 22  1  0  0  0  0
  9 22  2  0  0  0  0
 10 23  1  0  0  0  0
 11 12  2  0  0  0  0
 11 24  1  0  0  0  0
 12 25  1  0  0  0  0
 13 21  1  0  0  0  0
 13 23  2  0  0  0  0
 14 25  2  0  0  0  0
 14 26  1  0  0  0  0
 15 28  1  0  0  0  0
 15 69  2  0  0  0  0
 16 27  1  0  0  0  0
 17 27  1  0  0  0  0
 17 31  2  0  0  0  0
 17 32  1  0  0  0  0
 18 20  2  0  0  0  0
 18 37  1  0  0  0  0
 19 21  2  0  0  0  0
 19 38  1  0  0  0  0
 20 46  1  0  0  0  0
 21 39  1  0  0  0  0
 22 86  1  0  0  0  0
 23 87  1  0  0  0  0
 24 26  2  0  0  0  0
 24 86  1  0  0  0  0
 25 88  1  0  0  0  0
 26 89  1  0  0  0  0
 27 70  2  0  0  0  0
 28 67  1  0  0  0  0
 28 71  2  0  0  0  0
 29 30  2  0  0  0  0
 29 58  1  0  0  0  0
 29 69  1  0  0  0  0
 30 59  1  0  0  0  0
 30 71  1  0  0  0  0
 31 72  1  0  0  0  0
 31 75  1  0  0  0  0
 32 76  1  0  0  0  0
 32 81  2  0  0  0  0
 33 47  1  0  0  0  0
 33 77  1  0  0  0  0
 33 82  2  0  0  0  0
 34 65  1  0  0  0  0
 34 73  1  0  0  0  0
 34 83  2  0  0  0  0
 35 67  1  0  0  0  0
 35 74  1  0  0  0  0
 35 84  2  0  0  0  0
 36 66  1  0  0  0  0
 36 78  1  0  0  0  0
 36 85  2  0  0  0  0
 37 40  1  0  0  0  0
 38 47  1  0  0  0  0
 39 73  1  0  0  0  0
 40 42  1  0  0  0  0
 41 43  1  0  0  0  0
 41 44  1  0  0  0  0
 42 46  1  0  0  0  0
 43 48  1  0  0  0  0
 44 74  1  0  0  0  0
 45 48  1  0  0  0  0
 45 74  1  0  0  0  0
 46 77  1  0  0  0  0
 47 73  1  0  0  0  0
 48 72  1  0  0  0  0
 49 58  1  0  0  0  0
 50 66  1  0  0  0  0
 51 67  1  0  0  0  0
 52 68  1  0  0  0  0
 53 68  1  0  0  0  0
 54 68  1  0  0  0  0
 55 79  1  0  0  0  0
 56 80  1  0  0  0  0
 57 80  1  0  0  0  0
 59 60  1  0  0  0  0
 60 61  1  0  0  0  0
 61 64  1  0  0  0  0
 62 63  1  0  0  0  0
 62 67  1  0  0  0  0
 63 80  1  0  0  0  0
 64 87  1  0  0  0  0
 65 68  1  0  0  0  0
 65 78  1  0  0  0  0
 66 79  1  0  0  0  0
 70 72  1  0  0  0  0
M  CHG  2  79   1  80   1
M  ISO  4  35 100  64 101  67 100  87 101
M  END
> <Batch ID>
0066

> <Smiles>
CCc1ncc([100C:0](C)(CCN(C)C)[100C:0](=O)N2CCCC(n3nc(-c4ccc(Oc5ccc(F)cc5F)cc4)c(C(N)=O)c3N)C2)nc1CCC[101CH2:1][101O:1]c1ccc2c(c1)CN(C(=O)C(NC(=O)C(C)NC)C(C)(C)C)C(C(=O)NC1CCCc3ccccc31)C2

> <Shape>
0.227

> <Color>
0.078

> <Negative vol penalty>
0.000

$$$$

  -OEChem-04052318093D

 89 97  0     1  0  0  0  0  0999 V2000
  -23.9527  -32.1523   13.7063 C   0  0  0  0  0  0  0  0  0  0  0  0
  -24.7944  -31.3354   14.4544 C   0  0  0  0  0  0  0  0  0  0  0  0
  -26.2066  -13.4815   21.2989 C   0  0  0  0  0  0  0  0  0  0  0  0
  -25.7222  -13.1774   18.9516 C   0  0  0  0  0  0  0  0  0  0  0  0
  -23.5613  -33.3931   14.2074 C   0  0  0  0  0  0  0  0  0  0  0  0
  -25.2462  -31.7594   15.7036 C   0  0  0  0  0  0  0  0  0  0  0  0
  -24.9579  -28.1190   19.2121 C   0  0  0  0  0  0  0  0  0  0  0  0
  -24.8620  -13.7632   21.5400 C   0  0  0  0  0  0  0  0  0  0  0  0
  -24.3775  -13.4590   19.1926 C   0  0  0  0  0  0  0  0  0  0  0  0
  -25.9485  -27.1381   19.1948 C   0  0  0  0  0  0  0  0  0  0  0  0
  -21.6761  -11.8403   20.4186 C   0  0  0  0  0  0  0  0  0  0  0  0
  -20.7252  -11.0115   19.8234 C   0  0  0  0  0  0  0  0  0  0  0  0
  -27.0910  -28.2687   20.9935 C   0  0  0  0  0  0  0  0  0  0  0  0
  -19.8017  -12.9121   18.6521 C   0  0  0  0  0  0  0  0  0  0  0  0
  -26.6368  -13.1886   20.0047 C   0  0  0  0  0  0  0  0  0  0  0  0
  -28.6500  -11.6368   19.7893 C   0  0  0  0  0  0  0  0  0  0  0  0
  -24.0008  -33.8284   15.4676 C   0  0  0  0  0  0  0  0  0  0  0  0
  -25.0322  -29.1898   20.1144 C   0  0  0  0  0  0  0  0  0  0  0  0
  -24.8615  -33.0078   16.2214 C   0  0  0  0  0  0  0  0  0  0  0  0
  -26.0987  -29.2605   21.0220 C   0  0  0  0  0  0  0  0  0  0  0  0
  -23.9474  -13.7519   20.4869 C   0  0  0  0  0  0  0  0  0  0  0  0
  -27.0168  -27.2144   20.0836 C   0  0  0  0  0  0  0  0  0  0  0  0
  -21.6899  -13.2051   20.1306 C   0  0  0  0  0  0  0  0  0  0  0  0
  -19.7880  -11.5473   18.9402 C   0  0  0  0  0  0  0  0  0  0  0  0
  -20.7527  -13.7410   19.2474 C   0  0  0  0  0  0  0  0  0  0  0  0
  -28.0258  -12.8981   19.7550 C   0  0  0  0  0  0  0  0  0  0  0  0
  -29.9638  -11.8955   19.4838 C   0  0  0  0  0  0  0  0  0  0  0  0
  -28.9607  -23.5625   20.6170 C   0  0  0  0  0  0  0  0  0  0  0  0
  -28.2580  -21.5101   20.5607 C   0  0  0  0  0  0  0  0  0  0  0  0
  -28.0920  -10.3467   20.0721 C   0  0  0  0  0  0  0  0  0  0  0  0
  -25.2686  -32.3472   19.8340 C   0  0  0  0  0  0  0  0  0  0  0  0
  -24.9012  -32.2700   23.0560 C   0  0  0  0  0  0  0  0  0  0  0  0
  -25.1937  -30.5079   25.9640 C   0  0  0  0  0  0  0  0  0  0  0  0
  -29.4398  -17.1515   18.3351 C   0  0  0  0  0  0  0  0  0  0  0  0
  -23.5892  -35.1979   15.9468 C   0  0  0  0  0  0  0  0  0  0  0  0
  -23.9416  -30.2254   20.1385 C   0  0  0  0  0  0  0  0  0  0  0  0
  -26.2143  -30.3788   22.0243 C   0  0  0  0  0  0  0  0  0  0  0  0
  -23.8106  -35.4121   17.4419 C   0  0  0  0  0  0  0  0  0  0  0  0
  -31.6123  -15.6825   20.8704 C   0  0  0  0  0  0  0  0  0  0  0  0
  -25.1970  -34.9252   17.8513 C   0  0  0  0  0  0  0  0  0  0  0  0
  -32.1189  -14.4302   20.1639 C   0  0  0  0  0  0  0  0  0  0  0  0
  -31.4257  -16.8489   19.9038 C   0  0  0  0  0  0  0  0  0  0  0  0
  -31.0150  -15.2680   18.0293 C   0  0  0  0  0  0  0  0  0  0  0  0
  -25.3528  -33.4220   17.5915 C   0  0  1  0  0  0  0  0  0  0  0  0
  -24.3876  -31.5487   20.7527 C   0  0  1  0  0  0  0  0  0  0  0  0
  -31.2825  -14.0505   18.9318 C   0  0  2  0  0  0  0  0  0  0  0  0
  -31.0701  -21.9713   22.5057 C   0  0  0  0  0  0  0  0  0  0  0  0
  -30.7698  -25.2515   20.1630 C   0  0  0  0  0  0  0  0  0  0  0  0
  -24.8521  -30.7233   28.4407 C   0  0  0  0  0  0  0  0  0  0  0  0
  -27.2120  -20.0238   22.3324 C   0  0  0  0  0  0  0  0  0  0  0  0
  -29.3553  -19.3509   21.3612 C   0  0  0  0  0  0  0  0  0  0  0  0
  -27.4538  -33.9290   23.2614 C   0  0  0  0  0  0  0  0  0  0  0  0
  -27.5789  -33.3090   25.6838 C   0  0  0  0  0  0  0  0  0  0  0  0
  -25.6332  -34.6171   24.8318 C   0  0  0  0  0  0  0  0  0  0  0  0
  -26.9911  -17.7377   20.2755 C   0  0  0  0  0  0  0  0  0  0  0  0
  -25.8412  -19.8083   19.5133 C   0  0  0  0  0  0  0  0  0  0  0  0
  -30.5140  -19.4160   18.6678 C   0  0  0  0  0  0  0  0  0  0  0  0
  -23.1932  -28.3270   25.9949 C   0  0  0  0  0  0  0  0  0  0  0  0
  -29.5656  -22.1539   22.6075 C   0  0  0  0  0  0  0  0  0  0  0  0
  -28.0638  -19.1871   18.5050 C   0  0  0  0  0  0  0  0  0  0  0  0
  -28.6416  -25.9793   21.3043 C   0  0  0  0  0  0  0  0  0  1  0  0
  -29.6408  -24.8309   21.1080 C   0  0  1  0  0  0  0  0  0  0  0  0
  -25.8366  -32.1684   24.2366 C   0  0  1  0  0  0  0  0  0  0  0  0
  -24.2297  -30.3024   27.1185 C   0  0  2  0  0  0  0  0  0  0  0  0
  -28.0173  -20.1136   20.9652 C   0  0  0  0  0  0  0  0  0  0  0  0
  -26.6247  -33.4857   24.4833 C   0  0  0  0  0  0  0  0  0  0  0  0
  -27.2349  -19.2048   19.8303 C   0  0  0  0  0  0  0  0  0  0  0  0
  -28.8734  -13.8848   19.4517 N   0  0  0  0  0  0  0  0  0  0  0  0
  -28.3042  -23.4009   19.4904 N   0  0  0  0  0  0  0  0  0  0  0  0
  -27.8572  -22.0951   19.4545 N   0  0  0  0  0  0  0  0  0  0  0  0
  -30.0437  -13.2436   19.2928 N   0  0  0  0  0  0  0  0  0  0  0  0
  -28.9566  -22.3973   21.3221 N   0  0  0  0  0  0  0  0  0  0  0  0
  -25.1263  -31.3704   22.0044 N   0  0  0  0  0  0  0  0  0  0  0  0
  -30.6017  -16.4772   18.7465 N   0  0  0  0  0  0  0  0  0  0  0  0
  -31.0471  -11.0990   19.3627 N   0  0  0  0  0  0  0  0  0  0  0  0
  -26.7245  -10.2601   20.3663 N   0  0  0  0  0  0  0  0  0  0  0  0
  -24.6821  -32.6588   18.6222 N   0  0  0  0  0  0  0  0  0  0  0  0
  -25.0212  -31.7391   25.3676 N   0  0  0  0  0  0  0  0  0  0  0  0
  -29.3574  -18.5256   18.6017 N   0  0  0  0  0  0  0  0  0  0  0  0
  -23.8396  -28.8675   27.2184 N   0  3  0  0  0  0  0  0  0  0  0  0
  -28.7890   -9.3037   20.0802 O   0  0  0  0  0  0  0  0  0  0  0  0
  -26.3964  -32.6589   20.1983 O   0  0  0  0  0  0  0  0  0  0  0  0
  -23.9995  -33.1117   23.0696 O   0  0  0  0  0  0  0  0  0  0  0  0
  -26.0198  -29.6624   25.6273 O   0  0  0  0  0  0  0  0  0  0  0  0
  -28.5164  -16.5581   17.7619 O   0  0  0  0  0  0  0  0  0  0  0  0
  -22.6351  -14.0265   20.7217 O   0  0  0  0  0  0  0  0  0  0  0  0
  -27.9854  -26.2587   20.0684 O   0  0  0  0  0  0  0  0  0  1  0  0
  -18.8758  -10.7510   18.3675 F   0  0  0  0  0  0  0  0  0  0  0  0
  -20.7617  -15.0511   18.9659 F   0  0  0  0  0  0  0  0  0  0  0  0
  1  2  1  0  0  0  0
  1  5  2  0  0  0  0
  2  6  2  0  0  0  0
  3  8  2  0  0  0  0
  3 15  1  0  0  0  0
  4  9  1  0  0  0  0
  4 15  2  0  0  0  0
  5 17  1  0  0  0  0
  6 19  1  0  0  0  0
  7 10  2  0  0  0  0
  7 18  1  0  0  0  0
  8 21  1  0  0  0  0
  9 21  2  0  0  0  0
 10 22  1  0  0  0  0
 11 12  2  0  0  0  0
 11 23  1  0  0  0  0
 12 24  1  0  0  0  0
 13 20  1  0  0  0  0
 13 22  2  0  0  0  0
 14 24  2  0  0  0  0
 14 25  1  0  0  0  0
 15 26  1  0  0  0  0
 16 26  1  0  0  0  0
 16 27  2  0  0  0  0
 16 30  1  0  0  0  0
 17 19  2  0  0  0  0
 17 35  1  0  0  0  0
 18 20  2  0  0  0  0
 18 36  1  0  0  0  0
 19 44  1  0  0  0  0
 20 37  1  0  0  0  0
 21 86  1  0  0  0  0
 22 87  1  0  0  0  0
 23 25  2  0  0  0  0
 23 86  1  0  0  0  0
 24 88  1  0  0  0  0
 25 89  1  0  0  0  0
 26 68  2  0  0  0  0
 27 71  1  0  0  0  0
 27 75  1  0  0  0  0
 28 62  1  0  0  0  0
 28 69  2  0  0  0  0
 28 72  1  0  0  0  0
 29 65  1  0  0  0  0
 29 70  2  0  0  0  0
 29 72  1  0  0  0  0
 30 76  1  0  0  0  0
 30 81  2  0  0  0  0
 31 45  1  0  0  0  0
 31 77  1  0  0  0  0
 31 82  2  0  0  0  0
 32 63  1  0  0  0  0
 32 73  1  0  0  0  0
 32 83  2  0  0  0  0
 33 64  1  0  0  0  0
 33 78  1  0  0  0  0
 33 84  2  0  0  0  0
 34 74  1  0  0  0  0
 34 79  1  0  0  0  0
 34 85  2  0  0  0  0
 35 38  1  0  0  0  0
 36 45  1  0  0  0  0
 37 73  1  0  0  0  0
 38 40  1  0  0  0  0
 39 41  1  0  0  0  0
 39 42  1  0  0  0  0
 40 44  1  0  0  0  0
 41 46  1  0  0  0  0
 42 74  1  0  0  0  0
 43 46  1  0  0  0  0
 43 74  1  0  0  0  0
 44 77  1  0  0  0  0
 45 73  1  0  0  0  0
 46 71  1  0  0  0  0
 47 59  1  0  0  0  0
 48 62  1  0  0  0  0
 49 64  1  0  0  0  0
 50 65  1  0  0  0  0
 51 65  1  0  0  0  0
 52 66  1  0  0  0  0
 53 66  1  0  0  0  0
 54 66  1  0  0  0  0
 55 67  1  0  0  0  0
 56 67  1  0  0  0  0
 57 79  1  0  0  0  0
 58 80  1  0  0  0  0
 59 72  1  0  0  0  0
 60 67  1  0  0  0  0
 60 79  1  0  0  0  0
 61 62  1  0  0  0  0
 61 87  1  0  0  0  0
 63 66  1  0  0  0  0
 63 78  1  0  0  0  0
 64 80  1  0  0  0  0
 65 67  1  0  0  0  0
 68 71  1  0  0  0  0
 69 70  1  0  0  0  0
M  CHG  1  80   1
M  ISO  4  34 100  61 101  79 100  87 101
M  END
> <Batch ID>
0066

> <Smiles>
CCn1c(C(C)[101CH2:1][101O:1]c2ccc3c(c2)CN(C(=O)C(NC(=O)C(C)NC)C(C)(C)C)C(C(=O)NC2CCCc4ccccc42)C3)nnc1C(C)(C)C(C)(C)C[100N:0](C)[100C:0](=O)N1CCCC(n2nc(-c3ccc(Oc4ccc(F)cc4F)cc3)c(C(N)=O)c2N)C1

> <Shape>
0.293

> <Color>
0.099

> <Negative vol penalty>
0.000

$$$$

  -OEChem-04052318093D

 84 92  0     1  0  0  0  0  0999 V2000
  -22.1268  -11.3327   19.5222 C   0  0  0  0  0  0  0  0  0  0  0  0
  -21.7199  -12.6417   19.7595 C   0  0  0  0  0  0  0  0  0  0  0  0
  -31.4391  -25.9260   19.2764 C   0  0  0  0  0  0  0  0  0  0  0  0
  -31.2231  -28.2977   18.8696 C   0  0  0  0  0  0  0  0  0  0  0  0
  -23.4303  -10.9430   19.8270 C   0  0  0  0  0  0  0  0  0  0  0  0
  -22.6161  -13.5616   20.3028 C   0  0  0  0  0  0  0  0  0  0  0  0
  -22.9404  -19.5524   19.0738 C   0  0  0  0  0  0  0  0  0  0  0  0
  -32.4566  -25.8555   18.3249 C   0  0  0  0  0  0  0  0  0  0  0  0
  -32.2406  -28.2272   17.9181 C   0  0  0  0  0  0  0  0  0  0  0  0
  -22.4524  -20.6747   19.7417 C   0  0  0  0  0  0  0  0  0  0  0  0
  -34.8655  -24.9852   15.7436 C   0  0  0  0  0  0  0  0  0  0  0  0
  -34.8266  -23.9346   14.8268 C   0  0  0  0  0  0  0  0  0  0  0  0
  -24.5958  -20.9631   20.8103 C   0  0  0  0  0  0  0  0  0  0  0  0
  -32.6764  -24.7033   14.0374 C   0  0  0  0  0  0  0  0  0  0  0  0
  -23.1575  -24.8967   24.0049 C   0  0  0  0  0  0  0  0  0  0  0  0
  -30.8223  -27.1471   19.5487 C   0  0  0  0  0  0  0  0  0  0  0  0
  -29.9110  -27.4699   21.9094 C   0  0  0  0  0  0  0  0  0  0  0  0
  -24.3458  -11.8611   20.3653 C   0  0  0  0  0  0  0  0  0  0  0  0
  -24.2586  -19.1199   19.2778 C   0  0  0  0  0  0  0  0  0  0  0  0
  -23.9327  -13.1835   20.6163 C   0  0  0  0  0  0  0  0  0  0  0  0
  -25.0988  -19.8365   20.1418 C   0  0  0  0  0  0  0  0  0  0  0  0
  -32.8574  -27.0060   17.6458 C   0  0  0  0  0  0  0  0  0  0  0  0
  -23.2793  -21.3786   20.6124 C   0  0  0  0  0  0  0  0  0  0  0  0
  -33.8099  -25.8947   15.8073 C   0  0  0  0  0  0  0  0  0  0  0  0
  -33.7320  -23.7937   13.9737 C   0  0  0  0  0  0  0  0  0  0  0  0
  -32.7154  -25.7538   14.9542 C   0  0  0  0  0  0  0  0  0  0  0  0
  -29.7707  -27.2205   20.5310 C   0  0  0  0  0  0  0  0  0  0  0  0
  -22.9949  -24.3013   22.7859 C   0  0  0  0  0  0  0  0  0  0  0  0
  -28.6272  -27.4374   22.3966 C   0  0  0  0  0  0  0  0  0  0  0  0
  -21.5243  -25.9484   22.9432 C   0  0  0  0  0  0  0  0  0  0  0  0
  -31.0958  -27.7096   22.6805 C   0  0  0  0  0  0  0  0  0  0  0  0
  -25.5999  -16.4752   20.4224 C   0  0  0  0  0  0  0  0  0  0  0  0
  -28.3437  -17.9243   19.4769 C   0  0  0  0  0  0  0  0  0  0  0  0
  -29.9846  -20.8260   18.7460 C   0  0  0  0  0  0  0  0  0  0  0  0
  -23.2861  -28.4656   21.9123 C   0  0  0  0  0  0  0  0  0  0  0  0
  -25.7302  -11.3811   20.7226 C   0  0  0  0  0  0  0  0  0  0  0  0
  -24.7779  -17.9231   18.5293 C   0  0  0  0  0  0  0  0  0  0  0  0
  -26.5281  -19.4253   20.3799 C   0  0  0  0  0  0  0  0  0  0  0  0
  -26.7286  -12.5138   20.9468 C   0  0  0  0  0  0  0  0  0  0  0  0
  -25.0649  -26.7165   19.1059 C   0  0  0  0  0  0  0  0  0  0  0  0
  -26.1207  -13.5928   21.8374 C   0  0  0  0  0  0  0  0  0  0  0  0
  -25.8018  -26.0346   20.2588 C   0  0  0  0  0  0  0  0  0  0  0  0
  -23.9155  -27.5989   19.6061 C   0  0  0  0  0  0  0  0  0  0  0  0
  -25.6442  -28.4195   21.1726 C   0  0  0  0  0  0  0  0  0  0  0  0
  -24.8830  -14.2168   21.1815 C   0  0  1  0  0  0  0  0  0  0  0  0
  -25.9797  -17.2707   19.2056 C   0  0  1  0  0  0  0  0  0  0  0  0
  -26.3148  -27.0419   21.3151 C   0  0  2  0  0  0  0  0  0  0  0  0
  -21.3124  -26.1472   26.3487 C   0  0  0  0  0  0  0  0  0  0  0  0
  -32.2302  -21.6949   18.0391 C   0  0  0  0  0  0  0  0  0  0  0  0
  -19.1869  -26.8642   23.5711 C   0  0  0  0  0  0  0  0  0  0  0  0
  -19.8347  -26.5686   21.1944 C   0  0  0  0  0  0  0  0  0  0  0  0
  -29.3976  -17.4973   22.3084 C   0  0  0  0  0  0  0  0  0  0  0  0
  -31.1866  -19.1797   21.8215 C   0  0  0  0  0  0  0  0  0  0  0  0
  -31.0685  -17.0687   20.4977 C   0  0  0  0  0  0  0  0  0  0  0  0
  -21.4781  -29.1892   20.2919 C   0  0  0  0  0  0  0  0  0  0  0  0
  -28.8841  -21.9732   16.2496 C   0  0  0  0  0  0  0  0  0  0  0  0
  -23.7072  -23.1475   22.1433 C   0  0  0  0  0  0  0  0  0  1  0  0
  -22.0630  -26.8056   25.2039 C   0  0  0  0  0  0  0  0  0  0  0  0
  -20.9074  -28.3896   22.5537 C   0  0  0  0  0  0  0  0  0  0  0  0
  -29.3317  -18.8669   20.1207 C   0  0  1  0  0  0  0  0  0  0  0  0
  -30.8638  -21.2179   17.5721 C   0  0  2  0  0  0  0  0  0  0  0  0
  -20.4284  -26.8913   22.6076 C   0  0  0  0  0  0  0  0  0  0  0  0
  -30.2186  -18.1600   21.1843 C   0  0  0  0  0  0  0  0  0  0  0  0
  -28.4983  -27.0425   20.1661 N   0  0  0  0  0  0  0  0  0  0  0  0
  -22.2350  -25.9127   24.0751 N   0  0  0  0  0  0  0  0  0  0  0  0
  -27.8273  -27.1801   21.3223 N   0  0  0  0  0  0  0  0  0  0  0  0
  -21.9778  -24.9720   22.1505 N   0  3  0  0  0  0  0  0  0  0  0  0
  -26.9874  -18.2448   19.6297 N   0  0  0  0  0  0  0  0  0  0  0  0
  -24.2201  -28.2619   20.8825 N   0  0  0  0  0  0  0  0  0  0  0  0
  -28.1159  -27.6039   23.6348 N   0  0  0  0  0  0  0  0  0  0  0  0
  -32.3330  -27.7086   22.0220 N   0  0  0  0  0  0  0  0  0  0  0  0
  -25.2756  -15.1588   20.1554 N   0  0  0  0  0  0  0  0  0  0  0  0
  -30.0813  -19.4801   19.0297 N   0  0  0  0  0  0  0  0  0  0  0  0
  -21.9392  -28.6089   21.5493 N   0  0  0  0  0  0  0  0  0  0  0  0
  -30.2253  -22.3140   16.7900 N   0  3  0  0  0  0  0  0  0  0  0  0
  -31.0598  -27.9022   23.9195 O   0  0  0  0  0  0  0  0  0  0  0  0
  -25.6024  -17.0154   21.5224 O   0  0  0  0  0  0  0  0  0  0  0  0
  -28.7604  -16.9437   18.8552 O   0  0  0  0  0  0  0  0  0  0  0  0
  -29.2850  -21.6338   19.3531 O   0  0  0  0  0  0  0  0  0  0  0  0
  -23.6360  -28.5015   23.0995 O   0  0  0  0  0  0  0  0  0  0  0  0
  -33.8504  -26.9376   16.7175 O   0  0  0  0  0  0  0  0  0  0  0  0
  -22.8054  -22.4740   21.2661 O   0  0  0  0  0  0  0  0  0  1  0  0
  -33.6955  -22.7857   13.0923 F   0  0  0  0  0  0  0  0  0  0  0  0
  -31.6988  -26.6252   15.0100 F   0  0  0  0  0  0  0  0  0  0  0  0
  1  2  1  0  0  0  0
  1  5  2  0  0  0  0
  2  6  2  0  0  0  0
  3  8  2  0  0  0  0
  3 16  1  0  0  0  0
  4  9  1  0  0  0  0
  4 16  2  0  0  0  0
  5 18  1  0  0  0  0
  6 20  1  0  0  0  0
  7 10  2  0  0  0  0
  7 19  1  0  0  0  0
  8 22  1  0  0  0  0
  9 22  2  0  0  0  0
 10 23  1  0  0  0  0
 11 12  2  0  0  0  0
 11 24  1  0  0  0  0
 12 25  1  0  0  0  0
 13 21  1  0  0  0  0
 13 23  2  0  0  0  0
 14 25  2  0  0  0  0
 14 26  1  0  0  0  0
 15 28  2  0  0  0  0
 15 65  1  0  0  0  0
 16 27  1  0  0  0  0
 17 27  1  0  0  0  0
 17 29  2  0  0  0  0
 17 31  1  0  0  0  0
 18 20  2  0  0  0  0
 18 36  1  0  0  0  0
 19 21  2  0  0  0  0
 19 37  1  0  0  0  0
 20 45  1  0  0  0  0
 21 38  1  0  0  0  0
 22 81  1  0  0  0  0
 23 82  1  0  0  0  0
 24 26  2  0  0  0  0
 24 81  1  0  0  0  0
 25 83  1  0  0  0  0
 26 84  1  0  0  0  0
 27 64  2  0  0  0  0
 28 57  1  0  0  0  0
 28 67  1  0  0  0  0
 29 66  1  0  0  0  0
 29 70  1  0  0  0  0
 30 62  1  0  0  0  0
 30 65  1  0  0  0  0
 30 67  2  0  0  0  0
 31 71  1  0  0  0  0
 31 76  2  0  0  0  0
 32 46  1  0  0  0  0
 32 72  1  0  0  0  0
 32 77  2  0  0  0  0
 33 60  1  0  0  0  0
 33 68  1  0  0  0  0
 33 78  2  0  0  0  0
 34 61  1  0  0  0  0
 34 73  1  0  0  0  0
 34 79  2  0  0  0  0
 35 69  1  0  0  0  0
 35 74  1  0  0  0  0
 35 80  2  0  0  0  0
 36 39  1  0  0  0  0
 37 46  1  0  0  0  0
 38 68  1  0  0  0  0
 39 41  1  0  0  0  0
 40 42  1  0  0  0  0
 40 43  1  0  0  0  0
 41 45  1  0  0  0  0
 42 47  1  0  0  0  0
 43 69  1  0  0  0  0
 44 47  1  0  0  0  0
 44 69  1  0  0  0  0
 45 72  1  0  0  0  0
 46 68  1  0  0  0  0
 47 66  1  0  0  0  0
 48 58  1  0  0  0  0
 49 61  1  0  0  0  0
 50 62  1  0  0  0  0
 51 62  1  0  0  0  0
 52 63  1  0  0  0  0
 53 63  1  0  0  0  0
 54 63  1  0  0  0  0
 55 74  1  0  0  0  0
 56 75  1  0  0  0  0
 57 82  1  0  0  0  0
 58 65  1  0  0  0  0
 59 62  1  0  0  0  0
 59 74  1  0  0  0  0
 60 63  1  0  0  0  0
 60 73  1  0  0  0  0
 61 75  1  0  0  0  0
 64 66  1  0  0  0  0
M  CHG  2  67   1  75   1
M  ISO  4  35 100  57 101  74 100  82 101
M  END
> <Batch ID>
0066

> <Smiles>
CCn1cc([101CH2:1][101O:1]c2ccc3c(c2)CN(C(=O)C(NC(=O)C(C)NC)C(C)(C)C)C(C(=O)NC2CCCc4ccccc42)C3)nc1C(C)(C)C[100N:0](C)[100C:0](=O)N1CCCC(n2nc(-c3ccc(Oc4ccc(F)cc4F)cc3)c(C(N)=O)c2N)C1

> <Shape>
0.211

> <Color>
0.077

> <Negative vol penalty>
0.000

$$$$

  -OEChem-04052318093D

 99107  0     1  0  0  0  0  0999 V2000
  -15.6007  -19.6671   19.8908 C   0  0  0  0  0  0  0  0  0  0  0  0
  -16.7973  -19.5300   20.5870 C   0  0  0  0  0  0  0  0  0  0  0  0
  -25.5033  -13.5867   21.2485 C   0  0  0  0  0  0  0  0  0  0  0  0
  -26.7926  -12.9739   19.2993 C   0  0  0  0  0  0  0  0  0  0  0  0
  -15.4272  -20.7323   19.0081 C   0  0  0  0  0  0  0  0  0  0  0  0
  -17.8217  -20.4574   20.4000 C   0  0  0  0  0  0  0  0  0  0  0  0
  -21.8003  -22.4468   24.6094 C   0  0  0  0  0  0  0  0  0  0  0  0
  -24.5557  -12.6149   20.9274 C   0  0  0  0  0  0  0  0  0  0  0  0
  -25.8450  -12.0019   18.9782 C   0  0  0  0  0  0  0  0  0  0  0  0
  -23.1150  -22.0865   24.9017 C   0  0  0  0  0  0  0  0  0  0  0  0
  -24.2321   -9.2612   21.2124 C   0  0  0  0  0  0  0  0  0  0  0  0
  -23.7672   -8.4438   22.2425 C   0  0  0  0  0  0  0  0  0  0  0  0
  -23.9114  -23.9171   23.5474 C   0  0  0  0  0  0  0  0  0  0  0  0
  -21.5166   -9.2304   21.8511 C   0  0  0  0  0  0  0  0  0  0  0  0
  -29.9185  -23.7143   19.2548 C   0  0  0  0  0  0  0  0  0  0  0  0
  -26.6217  -13.7663   20.4344 C   0  0  0  0  0  0  0  0  0  0  0  0
  -28.7436  -14.6104   21.5714 C   0  0  0  0  0  0  0  0  0  0  0  0
  -16.4464  -21.6787   18.8175 C   0  0  0  0  0  0  0  0  0  0  0  0
  -21.5309  -23.5402   23.7736 C   0  0  0  0  0  0  0  0  0  0  0  0
  -17.6622  -21.5355   19.5129 C   0  0  0  0  0  0  0  0  0  0  0  0
  -22.5923  -24.2907   23.2481 C   0  0  0  0  0  0  0  0  0  0  0  0
  -29.4584  -24.0951   20.4916 C   0  0  0  0  0  0  0  0  0  0  0  0
  -24.7266  -11.8225   19.7922 C   0  0  0  0  0  0  0  0  0  0  0  0
  -24.1708  -22.8199   24.3683 C   0  0  0  0  0  0  0  0  0  0  0  0
  -23.3393  -10.0634   20.5016 C   0  0  0  0  0  0  0  0  0  0  0  0
  -22.4094   -8.4283   22.5619 C   0  0  0  0  0  0  0  0  0  0  0  0
  -21.9815  -10.0479   20.8210 C   0  0  0  0  0  0  0  0  0  0  0  0
  -27.6006  -14.7704   20.7653 C   0  0  0  0  0  0  0  0  0  0  0  0
  -29.8593  -23.0553   21.3517 C   0  0  0  0  0  0  0  0  0  0  0  0
  -29.3380  -15.8486   21.5742 C   0  0  0  0  0  0  0  0  0  0  0  0
  -29.2251  -13.4465   22.2564 C   0  0  0  0  0  0  0  0  0  0  0  0
  -20.0838  -23.9166   20.9687 C   0  0  0  0  0  0  0  0  0  0  0  0
  -20.5465  -27.0660   21.5926 C   0  0  0  0  0  0  0  0  0  0  0  0
  -31.0963  -20.2588   18.7927 C   0  0  0  0  0  0  0  0  0  0  0  0
  -22.3328  -29.4609   23.2419 C   0  0  0  0  0  0  0  0  0  0  0  0
  -16.2304  -22.7866   17.8172 C   0  0  0  0  0  0  0  0  0  0  0  0
  -20.1068  -23.9321   23.4896 C   0  0  0  0  0  0  0  0  0  0  0  0
  -22.3563  -25.4854   22.3618 C   0  0  0  0  0  0  0  0  0  0  0  0
  -17.2246  -23.9364   17.9576 C   0  0  0  0  0  0  0  0  0  0  0  0
  -27.6510  -20.3252   19.9556 C   0  0  0  0  0  0  0  0  0  0  0  0
  -18.6455  -23.3994   18.0971 C   0  0  0  0  0  0  0  0  0  0  0  0
  -27.4192  -18.8566   20.3087 C   0  0  0  0  0  0  0  0  0  0  0  0
  -28.5639  -20.4732   18.7412 C   0  0  0  0  0  0  0  0  0  0  0  0
  -29.6465  -18.3039   19.2380 C   0  0  0  0  0  0  0  0  0  0  0  0
  -18.7876  -22.5350   19.3557 C   0  0  1  0  0  0  0  0  0  0  0  0
  -19.9561  -24.7513   22.2115 C   0  0  1  0  0  0  0  0  0  0  0  0
  -28.7552  -18.1119   20.4763 C   0  0  2  0  0  0  0  0  0  0  0  0
  -28.8061  -27.0580   23.6151 C   0  0  0  0  0  0  0  0  0  0  0  0
  -22.5015  -31.9489   23.5227 C   0  0  0  0  0  0  0  0  0  0  0  0
  -32.6734  -22.1073   18.3257 C   0  0  0  0  0  0  0  0  0  0  0  0
  -30.5629  -21.8367   17.0230 C   0  0  0  0  0  0  0  0  0  0  0  0
  -26.4279  -26.6687   20.6095 C   0  0  0  0  0  0  0  0  0  0  0  0
  -26.4319  -24.1770   20.5487 C   0  0  0  0  0  0  0  0  0  0  0  0
  -27.3616  -25.4549   18.6337 C   0  0  0  0  0  0  0  0  0  0  0  0
  -21.8947  -27.2801   18.8638 C   0  0  0  0  0  0  0  0  0  0  0  0
  -22.8592  -29.4734   19.5900 C   0  0  0  0  0  0  0  0  0  0  0  0
  -20.3856  -29.1910   19.4345 C   0  0  0  0  0  0  0  0  0  0  0  0
  -32.5878  -26.7406   20.0157 C   0  0  0  0  0  0  0  0  0  0  0  0
  -32.9721  -27.7744   22.2460 C   0  0  0  0  0  0  0  0  0  0  0  0
  -31.6726  -29.0108   20.5327 C   0  0  0  0  0  0  0  0  0  0  0  0
  -30.5603  -22.2051   25.7135 C   0  0  0  0  0  0  0  0  0  0  0  0
  -30.0603  -19.8252   25.1811 C   0  0  0  0  0  0  0  0  0  0  0  0
  -21.7607  -29.2892   26.1406 C   0  0  0  0  0  0  0  0  0  0  0  0
  -29.6280  -22.9435   22.8026 C   0  0  0  0  0  0  0  0  0  0  0  0
  -29.9913  -27.7156   22.9273 C   0  0  0  0  0  0  0  0  0  0  0  0
  -29.9407  -21.5284   23.3468 C   0  0  0  0  0  0  0  0  0  0  0  0
  -27.1376  -20.7370   24.4738 C   0  0  0  0  0  0  0  0  0  0  0  0
  -28.1869  -21.5378   25.2595 C   0  0  0  0  0  0  0  0  0  0  0  0
  -29.5473  -26.6460   20.6133 C   0  0  0  0  0  0  0  0  0  0  0  0
  -25.7153  -21.0909   24.8983 C   0  0  0  0  0  0  0  0  0  1  0  0
  -28.6848  -25.3666   20.8419 C   0  0  1  0  0  0  0  0  0  0  0  0
  -21.6466  -28.0611   21.3121 C   0  0  1  0  0  0  0  0  0  0  0  0
  -21.8924  -30.6625   24.0584 C   0  0  2  0  0  0  0  0  0  0  0  0
  -30.6088  -26.9680   21.7135 C   0  0  1  0  0  0  0  0  0  0  0  0
  -31.1875  -21.7187   18.4264 C   0  0  0  0  0  0  0  0  0  0  0  0
  -27.2476  -25.4387   20.1761 C   0  0  0  0  0  0  0  0  0  0  0  0
  -21.7013  -28.4778   19.8152 C   0  0  0  0  0  0  0  0  0  0  0  0
  -31.9302  -27.6034   21.1103 C   0  0  0  0  0  0  0  0  0  0  0  0
  -29.6669  -21.2824   24.8568 C   0  0  0  0  0  0  0  0  0  0  0  0
  -27.4743  -16.0125   20.2906 N   0  0  0  0  0  0  0  0  0  0  0  0
  -30.5229  -22.0866   20.7151 N   0  0  0  0  0  0  0  0  0  0  0  0
  -30.5424  -22.5161   19.4419 N   0  0  0  0  0  0  0  0  0  0  0  0
  -28.5455  -16.6442   20.8000 N   0  0  0  0  0  0  0  0  0  0  0  0
  -20.9464  -25.8251   22.1083 N   0  0  0  0  0  0  0  0  0  0  0  0
  -29.8138  -19.7269   18.9289 N   0  0  0  0  0  0  0  0  0  0  0  0
  -30.4559  -16.3236   22.1633 N   0  0  0  0  0  0  0  0  0  0  0  0
  -28.4929  -12.2563   22.1473 N   0  0  0  0  0  0  0  0  0  0  0  0
  -18.8918  -23.3699   20.5331 N   0  0  0  0  0  0  0  0  0  0  0  0
  -21.4370  -29.1720   22.2343 N   0  0  0  0  0  0  0  0  0  0  0  0
  -22.3077  -30.5026   25.4807 N   0  3  0  0  0  0  0  0  0  0  0  0
  -30.2646  -13.4656   22.9582 O   0  0  0  0  0  0  0  0  0  0  0  0
  -21.1822  -23.7799   20.4429 O   0  0  0  0  0  0  0  0  0  0  0  0
  -19.3749  -27.3809   21.3692 O   0  0  0  0  0  0  0  0  0  0  0  0
  -32.1348  -19.6129   18.9552 O   0  0  0  0  0  0  0  0  0  0  0  0
  -23.3699  -28.8428   23.4724 O   0  0  0  0  0  0  0  0  0  0  0  0
  -23.8022  -10.8738   19.4787 O   0  0  0  0  0  0  0  0  0  0  0  0
  -25.4647  -22.4674   24.6536 O   0  0  0  0  0  0  0  0  0  1  0  0
  -21.9629   -7.6421   23.5501 F   0  0  0  0  0  0  0  0  0  0  0  0
  -21.1188  -10.8154   20.1409 F   0  0  0  0  0  0  0  0  0  0  0  0
  1  2  1  0  0  0  0
  1  5  2  0  0  0  0
  2  6  2  0  0  0  0
  3  8  2  0  0  0  0
  3 16  1  0  0  0  0
  4  9  1  0  0  0  0
  4 16  2  0  0  0  0
  5 18  1  0  0  0  0
  6 20  1  0  0  0  0
  7 10  2  0  0  0  0
  7 19  1  0  0  0  0
  8 23  1  0  0  0  0
  9 23  2  0  0  0  0
 10 24  1  0  0  0  0
 11 12  2  0  0  0  0
 11 25  1  0  0  0  0
 12 26  1  0  0  0  0
 13 21  1  0  0  0  0
 13 24  2  0  0  0  0
 14 26  2  0  0  0  0
 14 27  1  0  0  0  0
 15 22  2  0  0  0  0
 15 82  1  0  0  0  0
 16 28  1  0  0  0  0
 17 28  1  0  0  0  0
 17 30  2  0  0  0  0
 17 31  1  0  0  0  0
 18 20  2  0  0  0  0
 18 36  1  0  0  0  0
 19 21  2  0  0  0  0
 19 37  1  0  0  0  0
 20 45  1  0  0  0  0
 21 38  1  0  0  0  0
 22 29  1  0  0  0  0
 22 71  1  0  0  0  0
 23 96  1  0  0  0  0
 24 97  1  0  0  0  0
 25 27  2  0  0  0  0
 25 96  1  0  0  0  0
 26 98  1  0  0  0  0
 27 99  1  0  0  0  0
 28 80  2  0  0  0  0
 29 64  1  0  0  0  0
 29 81  2  0  0  0  0
 30 83  1  0  0  0  0
 30 86  1  0  0  0  0
 31 87  1  0  0  0  0
 31 91  2  0  0  0  0
 32 46  1  0  0  0  0
 32 88  1  0  0  0  0
 32 92  2  0  0  0  0
 33 72  1  0  0  0  0
 33 84  1  0  0  0  0
 33 93  2  0  0  0  0
 34 75  1  0  0  0  0
 34 85  1  0  0  0  0
 34 94  2  0  0  0  0
 35 73  1  0  0  0  0
 35 89  1  0  0  0  0
 35 95  2  0  0  0  0
 36 39  1  0  0  0  0
 37 46  1  0  0  0  0
 38 84  1  0  0  0  0
 39 41  1  0  0  0  0
 40 42  1  0  0  0  0
 40 43  1  0  0  0  0
 41 45  1  0  0  0  0
 42 47  1  0  0  0  0
 43 85  1  0  0  0  0
 44 47  1  0  0  0  0
 44 85  1  0  0  0  0
 45 88  1  0  0  0  0
 46 84  1  0  0  0  0
 47 83  1  0  0  0  0
 48 65  1  0  0  0  0
 49 73  1  0  0  0  0
 50 75  1  0  0  0  0
 51 75  1  0  0  0  0
 52 76  1  0  0  0  0
 53 76  1  0  0  0  0
 54 76  1  0  0  0  0
 55 77  1  0  0  0  0
 56 77  1  0  0  0  0
 57 77  1  0  0  0  0
 58 78  1  0  0  0  0
 59 78  1  0  0  0  0
 60 78  1  0  0  0  0
 61 79  1  0  0  0  0
 62 79  1  0  0  0  0
 63 90  1  0  0  0  0
 64 66  1  0  0  0  0
 65 74  1  0  0  0  0
 66 79  1  0  0  0  0
 67 68  1  0  0  0  0
 67 70  1  0  0  0  0
 68 79  1  0  0  0  0
 69 71  1  0  0  0  0
 69 74  1  0  0  0  0
 70 97  1  0  0  0  0
 71 76  1  0  0  0  0
 72 77  1  0  0  0  0
 72 89  1  0  0  0  0
 73 90  1  0  0  0  0
 74 78  1  0  0  0  0
 75 82  1  0  0  0  0
 80 83  1  0  0  0  0
 81 82  1  0  0  0  0
M  CHG  1  90   1
M  ISO  4  34 100  70 101  75 100  97 101
M  END
> <Batch ID>
0066

> <Smiles>
CCC(CC(c1cn([100C:0](C)(C)[100C:0](=O)N2CCCC(n3nc(-c4ccc(Oc5ccc(F)cc5F)cc4)c(C(N)=O)c3N)C2)nc1CCC(C)(C)CC[101CH2:1][101O:1]c1ccc2c(c1)CN(C(=O)C(NC(=O)C(C)NC)C(C)(C)C)C(C(=O)NC1CCCc3ccccc31)C2)C(C)(C)C)C(C)(C)C

> <Shape>
0.232

> <Color>
0.056

> <Negative vol penalty>
0.000

$$$$

  -OEChem-04052318093D

 93100  0     1  0  0  0  0  0999 V2000
  -28.6575  -30.3533   27.1228 C   0  0  0  0  0  0  0  0  0  0  0  0
  -28.6290  -29.2326   26.2990 C   0  0  0  0  0  0  0  0  0  0  0  0
  -24.1336  -10.1955   22.7897 C   0  0  0  0  0  0  0  0  0  0  0  0
  -24.5562  -12.0676   24.2572 C   0  0  0  0  0  0  0  0  0  0  0  0
  -27.5620  -31.2148   27.1641 C   0  0  0  0  0  0  0  0  0  0  0  0
  -27.5044  -28.9722   25.5168 C   0  0  0  0  0  0  0  0  0  0  0  0
  -28.6989  -27.6467   20.7775 C   0  0  0  0  0  0  0  0  0  0  0  0
  -23.7336   -9.4282   23.8837 C   0  0  0  0  0  0  0  0  0  0  0  0
  -24.1562  -11.3004   25.3513 C   0  0  0  0  0  0  0  0  0  0  0  0
  -29.1352  -26.3384   20.5730 C   0  0  0  0  0  0  0  0  0  0  0  0
  -20.9858   -9.1033   25.8271 C   0  0  0  0  0  0  0  0  0  0  0  0
  -19.8235   -8.3435   25.6958 C   0  0  0  0  0  0  0  0  0  0  0  0
  -26.9340  -25.7325   19.7940 C   0  0  0  0  0  0  0  0  0  0  0  0
  -21.0922   -6.3302   26.1130 C   0  0  0  0  0  0  0  0  0  0  0  0
  -24.5449  -11.5152   22.9765 C   0  0  0  0  0  0  0  0  0  0  0  0
  -24.1461  -13.1255   21.0385 C   0  0  0  0  0  0  0  0  0  0  0  0
  -26.4273  -30.9700   26.3748 C   0  0  0  0  0  0  0  0  0  0  0  0
  -27.3717  -28.0057   20.5016 C   0  0  0  0  0  0  0  0  0  0  0  0
  -26.3921  -29.8304   25.5486 C   0  0  0  0  0  0  0  0  0  0  0  0
  -26.4841  -27.0466   19.9934 C   0  0  0  0  0  0  0  0  0  0  0  0
  -23.7449   -9.9806   25.1645 C   0  0  0  0  0  0  0  0  0  0  0  0
  -28.2520  -25.3804   20.0839 C   0  0  0  0  0  0  0  0  0  0  0  0
  -22.2015   -8.4765   26.1013 C   0  0  0  0  0  0  0  0  0  0  0  0
  -19.8766   -6.9570   25.8388 C   0  0  0  0  0  0  0  0  0  0  0  0
  -22.2546   -7.0900   26.2443 C   0  0  0  0  0  0  0  0  0  0  0  0
  -24.9587  -12.3082   21.8468 C   0  0  0  0  0  0  0  0  0  0  0  0
  -25.0087  -13.6582   20.1119 C   0  0  0  0  0  0  0  0  0  0  0  0
  -22.7374  -13.3804   21.1182 C   0  0  0  0  0  0  0  0  0  0  0  0
  -24.9416  -29.1101   22.2275 C   0  0  0  0  0  0  0  0  0  0  0  0
  -23.4993  -29.3447   19.3314 C   0  0  0  0  0  0  0  0  0  0  0  0
  -23.3142  -28.2851   16.0926 C   0  0  0  0  0  0  0  0  0  0  0  0
  -31.0869  -14.3194   20.5068 C   0  0  0  0  0  0  0  0  0  0  0  0
  -25.2486  -31.9040   26.4886 C   0  0  0  0  0  0  0  0  0  0  0  0
  -26.9238  -29.4275   20.7023 C   0  0  0  0  0  0  0  0  0  0  0  0
  -25.0545  -27.3858   19.6622 C   0  0  0  0  0  0  0  0  0  0  0  0
  -24.2453  -31.7605   25.3471 C   0  0  0  0  0  0  0  0  0  0  0  0
  -29.0975  -12.7329   17.8185 C   0  0  0  0  0  0  0  0  0  0  0  0
  -23.9378  -30.2890   25.0883 C   0  0  0  0  0  0  0  0  0  0  0  0
  -27.7652  -12.4524   18.5114 C   0  0  0  0  0  0  0  0  0  0  0  0
  -30.2610  -12.7336   18.8054 C   0  0  0  0  0  0  0  0  0  0  0  0
  -28.7434  -13.3808   20.6472 C   0  0  0  0  0  0  0  0  0  0  0  0
  -25.2003  -29.5275   24.6667 C   0  0  1  0  0  0  0  0  0  0  0  0
  -25.4137  -29.5597   20.8737 C   0  0  1  0  0  0  0  0  0  0  0  0
  -27.5444  -13.4191   19.6878 C   0  0  2  0  0  0  0  0  0  0  0  0
  -22.0095  -28.6336   13.9775 C   0  0  0  0  0  0  0  0  0  0  0  0
  -22.8932  -18.4180   21.9165 C   0  0  0  0  0  0  0  0  0  0  0  0
  -24.6167  -19.2093   23.5469 C   0  0  0  0  0  0  0  0  0  0  0  0
  -29.1319  -21.9561   21.7809 C   0  0  0  0  0  0  0  0  0  0  0  0
  -24.4332  -19.7812   19.6574 C   0  0  0  0  0  0  0  0  0  0  0  0
  -25.7026  -22.0040   21.5987 C   0  0  0  0  0  0  0  0  0  0  0  0
  -21.1961  -27.7099   20.4856 C   0  0  0  0  0  0  0  0  0  0  0  0
  -20.4146  -27.2877   18.1448 C   0  0  0  0  0  0  0  0  0  0  0  0
  -20.4939  -29.6186   19.0301 C   0  0  0  0  0  0  0  0  0  0  0  0
  -29.2905  -18.8913   19.3023 C   0  0  0  0  0  0  0  0  0  0  0  0
  -27.2484  -17.8148   20.1425 C   0  0  0  0  0  0  0  0  0  0  0  0
  -29.4873  -19.8768   22.6056 C   0  0  0  0  0  0  0  0  0  0  0  0
  -31.8202  -15.4034   22.5965 C   0  0  0  0  0  0  0  0  0  0  0  0
  -25.7166  -29.1959   14.6237 C   0  0  0  0  0  0  0  0  0  0  0  0
  -28.4902  -17.6426   24.1287 C   0  0  0  0  0  0  0  0  0  0  0  0
  -26.7581  -19.0550   23.0308 C   0  0  0  0  0  0  0  0  0  0  0  0
  -30.0662  -17.5579   21.7596 C   0  0  0  0  0  0  0  0  0  0  0  0
  -29.6588  -16.0854   21.6223 C   0  0  0  0  0  0  0  0  0  0  0  0
  -27.6965  -23.0685   20.0318 C   0  0  0  0  0  0  0  0  0  1  0  0
  -22.6551  -28.4274   18.4801 C   0  0  1  0  0  0  0  0  0  0  0  0
  -23.2283  -29.0518   14.7853 C   0  0  2  0  0  0  0  0  0  0  0  0
  -23.9903  -19.4551   22.1679 C   0  0  0  0  0  0  0  0  0  0  0  0
  -28.3724  -21.7553   20.4560 C   0  0  2  0  0  0  0  0  0  0  0  0
  -25.0732  -19.5516   21.0375 C   0  0  2  0  0  0  0  0  0  0  0  0
  -26.2321  -20.5727   21.4137 C   0  0  1  0  0  0  0  0  0  0  0  0
  -27.5044  -20.4343   20.4299 C   0  0  2  0  0  0  0  0  0  0  0  0
  -21.2163  -28.2537   19.0431 C   0  0  0  0  0  0  0  0  0  0  0  0
  -28.2392  -18.9724   20.4380 C   0  0  0  0  0  0  0  0  0  0  0  0
  -28.9262  -18.6272   21.8832 C   0  0  2  0  0  0  0  0  0  0  0  0
  -26.2392  -12.3176   21.4669 N   0  0  0  0  0  0  0  0  0  0  0  0
  -26.2376  -13.1472   20.4097 N   0  0  0  0  0  0  0  0  0  0  0  0
  -24.6626  -28.7879   19.8815 N   0  0  0  0  0  0  0  0  0  0  0  0
  -30.0062  -13.6279   19.9353 N   0  0  0  0  0  0  0  0  0  0  0  0
  -24.8282  -14.5091   19.0795 N   0  0  0  0  0  0  0  0  0  0  0  0
  -22.0009  -12.7516   22.1313 N   0  0  0  0  0  0  0  0  0  0  0  0
  -25.5143  -29.7982   23.2801 N   0  0  0  0  0  0  0  0  0  0  0  0
  -22.7056  -28.9665   17.1253 N   0  0  0  0  0  0  0  0  0  0  0  0
  -30.8020  -15.1761   21.5808 N   0  0  0  0  0  0  0  0  0  0  0  0
  -24.4452  -28.8075   13.9605 N   0  3  0  0  0  0  0  0  0  0  0  0
  -27.8919  -18.0892   22.8235 N   0  3  0  0  0  0  0  0  0  0  0  0
  -22.1464  -14.1304   20.3048 O   0  0  0  0  0  0  0  0  0  0  0  0
  -24.1176  -28.2069   22.3108 O   0  0  0  0  0  0  0  0  0  0  0  0
  -23.1437  -30.5144   19.4962 O   0  0  0  0  0  0  0  0  0  0  0  0
  -23.8628  -27.1894   16.1874 O   0  0  0  0  0  0  0  0  0  0  0  0
  -32.2393  -14.1863   20.0751 O   0  0  0  0  0  0  0  0  0  0  0  0
  -23.3545   -9.2322   26.2322 O   0  0  0  0  0  0  0  0  0  0  0  0
  -28.6772  -24.0962   19.8831 O   0  0  0  0  0  0  0  0  0  1  0  0
  -18.7600   -6.2277   25.7142 F   0  0  0  0  0  0  0  0  0  0  0  0
  -23.4193   -6.4824   26.5089 F   0  0  0  0  0  0  0  0  0  0  0  0
  1  2  1  0  0  0  0
  1  5  2  0  0  0  0
  2  6  2  0  0  0  0
  3  8  2  0  0  0  0
  3 15  1  0  0  0  0
  4  9  1  0  0  0  0
  4 15  2  0  0  0  0
  5 17  1  0  0  0  0
  6 19  1  0  0  0  0
  7 10  2  0  0  0  0
  7 18  1  0  0  0  0
  8 21  1  0  0  0  0
  9 21  2  0  0  0  0
 10 22  1  0  0  0  0
 11 12  2  0  0  0  0
 11 23  1  0  0  0  0
 12 24  1  0  0  0  0
 13 20  1  0  0  0  0
 13 22  2  0  0  0  0
 14 24  2  0  0  0  0
 14 25  1  0  0  0  0
 15 26  1  0  0  0  0
 16 26  1  0  0  0  0
 16 27  2  0  0  0  0
 16 28  1  0  0  0  0
 17 19  2  0  0  0  0
 17 33  1  0  0  0  0
 18 20  2  0  0  0  0
 18 34  1  0  0  0  0
 19 42  1  0  0  0  0
 20 35  1  0  0  0  0
 21 90  1  0  0  0  0
 22 91  1  0  0  0  0
 23 25  2  0  0  0  0
 23 90  1  0  0  0  0
 24 92  1  0  0  0  0
 25 93  1  0  0  0  0
 26 74  2  0  0  0  0
 27 75  1  0  0  0  0
 27 78  1  0  0  0  0
 28 79  1  0  0  0  0
 28 85  2  0  0  0  0
 29 43  1  0  0  0  0
 29 80  1  0  0  0  0
 29 86  2  0  0  0  0
 30 64  1  0  0  0  0
 30 76  1  0  0  0  0
 30 87  2  0  0  0  0
 31 65  1  0  0  0  0
 31 81  1  0  0  0  0
 31 88  2  0  0  0  0
 32 77  1  0  0  0  0
 32 82  1  0  0  0  0
 32 89  2  0  0  0  0
 33 36  1  0  0  0  0
 34 43  1  0  0  0  0
 35 76  1  0  0  0  0
 36 38  1  0  0  0  0
 37 39  1  0  0  0  0
 37 40  1  0  0  0  0
 38 42  1  0  0  0  0
 39 44  1  0  0  0  0
 40 77  1  0  0  0  0
 41 44  1  0  0  0  0
 41 77  1  0  0  0  0
 42 80  1  0  0  0  0
 43 76  1  0  0  0  0
 44 75  1  0  0  0  0
 45 65  1  0  0  0  0
 46 66  1  0  0  0  0
 47 66  1  0  0  0  0
 48 67  1  0  0  0  0
 49 68  1  0  0  0  0
 50 69  1  0  0  0  0
 51 71  1  0  0  0  0
 52 71  1  0  0  0  0
 53 71  1  0  0  0  0
 54 72  1  0  0  0  0
 55 72  1  0  0  0  0
 56 73  1  0  0  0  0
 57 82  1  0  0  0  0
 58 83  1  0  0  0  0
 59 84  1  0  0  0  0
 60 84  1  0  0  0  0
 61 62  1  0  0  0  0
 61 73  1  0  0  0  0
 62 82  1  0  0  0  0
 63 67  1  0  0  0  0
 63 91  1  0  0  0  0
 64 71  1  0  0  0  0
 64 81  1  0  0  0  0
 65 83  1  0  0  0  0
 66 68  1  0  0  0  0
 67 70  1  0  0  0  0
 68 69  1  0  0  0  0
 69 70  1  0  0  0  0
 70 72  1  0  0  0  0
 72 73  1  0  0  0  0
 73 84  1  0  0  0  0
 74 75  1  0  0  0  0
M  CHG  2  83   1  84   1
M  ISO  4  32 100  63 101  82 100  91 101
M  END
> <Batch ID>
0066

> <Smiles>
CNC(C)C(=O)NC(C(=O)N1Cc2cc([101O:1][101CH2:1]C(C)C(C(C)C(C)C(C)C)C(C)(C)C(C)(CC[100N:0](C)[100C:0](=O)N3CCCC(n4nc(-c5ccc(Oc6ccc(F)cc6F)cc5)c(C(N)=O)c4N)C3)N(C)C)ccc2CC1C(=O)NC1CCCc2ccccc21)C(C)(C)C

> <Shape>
0.286

> <Color>
0.098

> <Negative vol penalty>
0.000

$$$$

  -OEChem-04052318093D

 91 99  0     1  0  0  0  0  0999 V2000
  -21.8100  -11.7725   19.2004 C   0  0  0  0  0  0  0  0  0  0  0  0
  -21.5466  -13.0946   19.5441 C   0  0  0  0  0  0  0  0  0  0  0  0
  -29.9579  -27.9211   19.0934 C   0  0  0  0  0  0  0  0  0  0  0  0
  -29.8027  -27.5322   21.4729 C   0  0  0  0  0  0  0  0  0  0  0  0
  -23.0510  -11.2104   19.4969 C   0  0  0  0  0  0  0  0  0  0  0  0
  -22.5236  -13.8550   20.1855 C   0  0  0  0  0  0  0  0  0  0  0  0
  -23.5613  -19.8515   19.4991 C   0  0  0  0  0  0  0  0  0  0  0  0
  -31.3494  -27.9407   19.1873 C   0  0  0  0  0  0  0  0  0  0  0  0
  -31.1943  -27.5517   21.5668 C   0  0  0  0  0  0  0  0  0  0  0  0
  -23.1828  -20.9613   20.2534 C   0  0  0  0  0  0  0  0  0  0  0  0
  -34.9349  -28.4512   18.8598 C   0  0  0  0  0  0  0  0  0  0  0  0
  -35.6180  -29.4613   18.1826 C   0  0  0  0  0  0  0  0  0  0  0  0
  -25.3107  -20.9080   21.3884 C   0  0  0  0  0  0  0  0  0  0  0  0
  -34.4361  -31.1264   19.4740 C   0  0  0  0  0  0  0  0  0  0  0  0
  -29.1845  -27.7169   20.2362 C   0  0  0  0  0  0  0  0  0  0  0  0
  -26.9261  -26.5783   19.9037 C   0  0  0  0  0  0  0  0  0  0  0  0
  -24.0472  -11.9672   20.1337 C   0  0  0  0  0  0  0  0  0  0  0  0
  -24.8152  -19.2540   19.6918 C   0  0  0  0  0  0  0  0  0  0  0  0
  -23.7786  -13.3021   20.4921 C   0  0  0  0  0  0  0  0  0  0  0  0
  -25.7037  -19.7923   20.6335 C   0  0  0  0  0  0  0  0  0  0  0  0
  -31.9676  -27.7559   20.4240 C   0  0  0  0  0  0  0  0  0  0  0  0
  -24.0564  -21.4880   21.2002 C   0  0  0  0  0  0  0  0  0  0  0  0
  -34.0023  -28.7786   19.8440 C   0  0  0  0  0  0  0  0  0  0  0  0
  -35.3687  -30.7989   18.4897 C   0  0  0  0  0  0  0  0  0  0  0  0
  -33.7529  -30.1162   20.1512 C   0  0  0  0  0  0  0  0  0  0  0  0
  -27.7470  -27.6973   20.1399 C   0  0  0  0  0  0  0  0  0  0  0  0
  -25.6488  -27.0834   19.9038 C   0  0  0  0  0  0  0  0  0  0  0  0
  -20.0839  -25.7390   24.9170 C   0  0  0  0  0  0  0  0  0  0  0  0
  -20.1096  -27.5779   23.9295 C   0  0  0  0  0  0  0  0  0  0  0  0
  -27.2859  -25.2051   19.7022 C   0  0  0  0  0  0  0  0  0  0  0  0
  -25.8125  -16.3840   20.6258 C   0  0  0  0  0  0  0  0  0  0  0  0
  -28.7307  -17.5824   19.8706 C   0  0  0  0  0  0  0  0  0  0  0  0
  -30.7111  -20.3274   19.4345 C   0  0  0  0  0  0  0  0  0  0  0  0
  -21.7113  -30.3601   22.1184 C   0  0  0  0  0  0  0  0  0  0  0  0
  -25.3567  -11.3020   20.4762 C   0  0  0  0  0  0  0  0  0  0  0  0
  -25.2189  -18.0737   18.8514 C   0  0  0  0  0  0  0  0  0  0  0  0
  -27.0692  -19.2001   20.8644 C   0  0  0  0  0  0  0  0  0  0  0  0
  -26.4693  -12.2886   20.8210 C   0  0  0  0  0  0  0  0  0  0  0  0
  -23.9992  -31.8647   19.8428 C   0  0  0  0  0  0  0  0  0  0  0  0
  -25.9597  -13.3503   21.7906 C   0  0  0  0  0  0  0  0  0  0  0  0
  -25.1128  -30.8254   19.7029 C   0  0  0  0  0  0  0  0  0  0  0  0
  -23.4450  -31.9101   21.2651 C   0  0  0  0  0  0  0  0  0  0  0  0
  -24.1112  -29.5700   21.6573 C   0  0  0  0  0  0  0  0  0  0  0  0
  -24.8216  -14.1667   21.1665 C   0  0  1  0  0  0  0  0  0  0  0  0
  -26.3176  -17.2315   19.4925 C   0  0  1  0  0  0  0  0  0  0  0  0
  -24.6634  -29.4481   20.2267 C   0  0  2  0  0  0  0  0  0  0  0  0
  -19.2057  -29.4428   26.6989 C   0  0  0  0  0  0  0  0  0  0  0  0
  -19.1907  -28.4058   21.7314 C   0  0  0  0  0  0  0  0  0  0  0  0
  -33.0614  -20.9887   18.8550 C   0  0  0  0  0  0  0  0  0  0  0  0
  -20.8462  -23.7801   26.3817 C   0  0  0  0  0  0  0  0  0  0  0  0
  -29.6408  -16.7960   22.6748 C   0  0  0  0  0  0  0  0  0  0  0  0
  -31.6229  -18.2963   22.3768 C   0  0  0  0  0  0  0  0  0  0  0  0
  -31.3082  -16.3341   20.8690 C   0  0  0  0  0  0  0  0  0  0  0  0
  -17.5199  -24.1511   24.2155 C   0  0  0  0  0  0  0  0  0  0  0  0
  -18.2671  -22.2585   25.6336 C   0  0  0  0  0  0  0  0  0  0  0  0
  -17.8287  -24.4832   26.6549 C   0  0  0  0  0  0  0  0  0  0  0  0
  -22.6875  -24.8561   23.5122 C   0  0  0  0  0  0  0  0  0  0  0  0
  -29.8256  -21.8032   17.0268 C   0  0  0  0  0  0  0  0  0  0  0  0
  -20.5693  -23.3960   23.9064 C   0  0  0  0  0  0  0  0  0  0  0  0
  -20.4693  -29.0019   25.9804 C   0  0  0  0  0  0  0  0  0  0  0  0
  -22.2983  -22.7289   22.2126 C   0  0  0  0  0  0  0  0  0  1  0  0
  -20.0829  -28.6860   22.9580 C   0  0  2  0  0  0  0  0  0  0  0  0
  -29.7984  -18.3462   20.6161 C   0  0  1  0  0  0  0  0  0  0  0  0
  -31.6651  -20.7142   18.3188 C   0  0  2  0  0  0  0  0  0  0  0  0
  -19.9925  -24.2023   25.1468 C   0  0  2  0  0  0  0  0  0  0  0  0
  -30.5661  -17.4533   21.6314 C   0  0  0  0  0  0  0  0  0  0  0  0
  -18.4382  -23.7855   25.4139 C   0  0  0  0  0  0  0  0  0  0  0  0
  -22.0816  -23.4572   23.5509 C   0  0  1  0  0  0  0  0  0  0  0  0
  -27.0498  -28.8279   20.2798 N   0  0  0  0  0  0  0  0  0  0  0  0
  -19.9772  -26.2968   23.6751 N   0  0  0  0  0  0  0  0  0  0  0  0
  -20.2740  -26.5944   25.9237 N   0  0  0  0  0  0  0  0  0  0  0  0
  -25.7774  -28.4221   20.1309 N   0  0  0  0  0  0  0  0  0  0  0  0
  -20.2865  -27.7634   25.2652 N   0  0  0  0  0  0  0  0  0  0  0  0
  -27.4152  -18.0430   20.0224 N   0  0  0  0  0  0  0  0  0  0  0  0
  -23.0355  -30.5728   21.7009 N   0  0  0  0  0  0  0  0  0  0  0  0
  -24.4395  -26.5085   19.7316 N   0  0  0  0  0  0  0  0  0  0  0  0
  -28.6436  -24.8587   19.7334 N   0  0  0  0  0  0  0  0  0  0  0  0
  -25.3499  -15.1415   20.2364 N   0  0  0  0  0  0  0  0  0  0  0  0
  -30.6461  -18.9600   19.5998 N   0  0  0  0  0  0  0  0  0  0  0  0
  -21.4050  -29.0623   22.5092 N   0  0  0  0  0  0  0  0  0  0  0  0
  -31.1793  -21.9395   17.6235 N   0  3  0  0  0  0  0  0  0  0  0  0
  -26.4299  -24.3145   19.4842 O   0  0  0  0  0  0  0  0  0  0  0  0
  -25.8419  -16.8242   21.7691 O   0  0  0  0  0  0  0  0  0  0  0  0
  -29.0530  -16.6172   19.1734 O   0  0  0  0  0  0  0  0  0  0  0  0
  -30.0888  -21.1555   20.0958 O   0  0  0  0  0  0  0  0  0  0  0  0
  -20.8634  -31.2588   22.1360 O   0  0  0  0  0  0  0  0  0  0  0  0
  -33.3255  -27.7746   20.5160 O   0  0  0  0  0  0  0  0  0  0  0  0
  -23.6867  -22.5782   21.9433 O   0  0  0  0  0  0  0  0  0  1  0  0
  -36.0259  -31.7687   17.8404 F   0  0  0  0  0  0  0  0  0  0  0  0
  -32.8590  -30.4370   21.0966 F   0  0  0  0  0  0  0  0  0  0  0  0
  -22.7714  -22.7405   24.4904 F   0  0  0  0  0  0  0  0  0  0  0  0
  1  2  1  0  0  0  0
  1  5  2  0  0  0  0
  2  6  2  0  0  0  0
  3  8  2  0  0  0  0
  3 15  1  0  0  0  0
  4  9  1  0  0  0  0
  4 15  2  0  0  0  0
  5 17  1  0  0  0  0
  6 19  1  0  0  0  0
  7 10  2  0  0  0  0
  7 18  1  0  0  0  0
  8 21  1  0  0  0  0
  9 21  2  0  0  0  0
 10 22  1  0  0  0  0
 11 12  2  0  0  0  0
 11 23  1  0  0  0  0
 12 24  1  0  0  0  0
 13 20  1  0  0  0  0
 13 22  2  0  0  0  0
 14 24  2  0  0  0  0
 14 25  1  0  0  0  0
 15 26  1  0  0  0  0
 16 26  1  0  0  0  0
 16 27  2  0  0  0  0
 16 30  1  0  0  0  0
 17 19  2  0  0  0  0
 17 35  1  0  0  0  0
 18 20  2  0  0  0  0
 18 36  1  0  0  0  0
 19 44  1  0  0  0  0
 20 37  1  0  0  0  0
 21 87  1  0  0  0  0
 22 88  1  0  0  0  0
 23 25  2  0  0  0  0
 23 87  1  0  0  0  0
 24 89  1  0  0  0  0
 25 90  1  0  0  0  0
 26 69  2  0  0  0  0
 27 72  1  0  0  0  0
 27 76  1  0  0  0  0
 28 65  1  0  0  0  0
 28 70  1  0  0  0  0
 28 71  2  0  0  0  0
 29 62  1  0  0  0  0
 29 70  2  0  0  0  0
 29 73  1  0  0  0  0
 30 77  1  0  0  0  0
 30 82  2  0  0  0  0
 31 45  1  0  0  0  0
 31 78  1  0  0  0  0
 31 83  2  0  0  0  0
 32 63  1  0  0  0  0
 32 74  1  0  0  0  0
 32 84  2  0  0  0  0
 33 64  1  0  0  0  0
 33 79  1  0  0  0  0
 33 85  2  0  0  0  0
 34 75  1  0  0  0  0
 34 80  1  0  0  0  0
 34 86  2  0  0  0  0
 35 38  1  0  0  0  0
 36 45  1  0  0  0  0
 37 74  1  0  0  0  0
 38 40  1  0  0  0  0
 39 41  1  0  0  0  0
 39 42  1  0  0  0  0
 40 44  1  0  0  0  0
 41 46  1  0  0  0  0
 42 75  1  0  0  0  0
 43 46  1  0  0  0  0
 43 75  1  0  0  0  0
 44 78  1  0  0  0  0
 45 74  1  0  0  0  0
 46 72  1  0  0  0  0
 47 60  1  0  0  0  0
 48 62  1  0  0  0  0
 49 64  1  0  0  0  0
 50 65  1  0  0  0  0
 51 66  1  0  0  0  0
 52 66  1  0  0  0  0
 53 66  1  0  0  0  0
 54 67  1  0  0  0  0
 55 67  1  0  0  0  0
 56 67  1  0  0  0  0
 57 68  1  0  0  0  0
 58 81  1  0  0  0  0
 59 65  1  0  0  0  0
 59 68  1  0  0  0  0
 60 73  1  0  0  0  0
 61 68  1  0  0  0  0
 61 88  1  0  0  0  0
 62 80  1  0  0  0  0
 63 66  1  0  0  0  0
 63 79  1  0  0  0  0
 64 81  1  0  0  0  0
 65 67  1  0  0  0  0
 68 91  1  0  0  0  0
 69 72  1  0  0  0  0
 71 73  1  0  0  0  0
M  CHG  1  81   1
M  ISO  4  34 100  61 101  80 100  88 101
M  END
> <Batch ID>
0066

> <Smiles>
CCn1nc(C(C)(CC(C)(F)[101CH2:1][101O:1]c2ccc3c(c2)CN(C(=O)C(NC(=O)C(C)NC)C(C)(C)C)C(C(=O)NC2CCCc4ccccc42)C3)C(C)(C)C)nc1C(C)[100NH:0][100C:0](=O)N1CCCC(n2nc(-c3ccc(Oc4ccc(F)cc4F)cc3)c(C(N)=O)c2N)C1

> <Shape>
0.223

> <Color>
0.077

> <Negative vol penalty>
0.000

$$$$

  -OEChem-04052318093D

 91 99  0     1  0  0  0  0  0999 V2000
  -28.4903  -33.6130   22.9620 C   0  0  0  0  0  0  0  0  0  0  0  0
  -28.5591  -32.2340   22.7919 C   0  0  0  0  0  0  0  0  0  0  0  0
  -22.2535  -16.3313   20.8408 C   0  0  0  0  0  0  0  0  0  0  0  0
  -22.7830  -13.9759   20.9364 C   0  0  0  0  0  0  0  0  0  0  0  0
  -27.3019  -34.2030   23.3904 C   0  0  0  0  0  0  0  0  0  0  0  0
  -27.4397  -31.4439   23.0511 C   0  0  0  0  0  0  0  0  0  0  0  0
  -26.6440  -27.9639   19.4592 C   0  0  0  0  0  0  0  0  0  0  0  0
  -21.0744  -16.0949   21.5476 C   0  0  0  0  0  0  0  0  0  0  0  0
  -21.6039  -13.7395   21.6432 C   0  0  0  0  0  0  0  0  0  0  0  0
  -27.4463  -26.8240   19.4882 C   0  0  0  0  0  0  0  0  0  0  0  0
  -20.4945  -14.0761   24.8175 C   0  0  0  0  0  0  0  0  0  0  0  0
  -20.5656  -13.2416   25.9329 C   0  0  0  0  0  0  0  0  0  0  0  0
  -25.6590  -25.6005   20.5502 C   0  0  0  0  0  0  0  0  0  0  0  0
  -18.9839  -11.7324   24.9044 C   0  0  0  0  0  0  0  0  0  0  0  0
  -27.8498  -19.7953   20.5095 C   0  0  0  0  0  0  0  0  0  0  0  0
  -29.4370  -18.8389   19.0875 C   0  0  0  0  0  0  0  0  0  0  0  0
  -23.1078  -15.2718   20.5352 C   0  0  0  0  0  0  0  0  0  0  0  0
  -24.4476  -16.0652   18.5145 C   0  0  0  0  0  0  0  0  0  0  0  0
  -26.1645  -33.4208   23.6458 C   0  0  0  0  0  0  0  0  0  0  0  0
  -25.3449  -27.9335   19.9863 C   0  0  0  0  0  0  0  0  0  0  0  0
  -26.2353  -32.0238   23.4846 C   0  0  0  0  0  0  0  0  0  0  0  0
  -24.8414  -26.7406   20.5243 C   0  0  0  0  0  0  0  0  0  0  0  0
  -28.3686  -19.6997   19.2343 C   0  0  0  0  0  0  0  0  0  0  0  0
  -20.7496  -14.7990   21.9488 C   0  0  0  0  0  0  0  0  0  0  0  0
  -26.9548  -25.6429   20.0363 C   0  0  0  0  0  0  0  0  0  0  0  0
  -19.6681  -13.7389   23.7456 C   0  0  0  0  0  0  0  0  0  0  0  0
  -19.8103  -12.0697   25.9763 C   0  0  0  0  0  0  0  0  0  0  0  0
  -18.9128  -12.5670   23.7890 C   0  0  0  0  0  0  0  0  0  0  0  0
  -24.3257  -15.5152   19.8047 C   0  0  0  0  0  0  0  0  0  0  0  0
  -25.8003  -16.0878   18.2774 C   0  0  0  0  0  0  0  0  0  0  0  0
  -29.3725  -18.3017   21.2953 C   0  0  0  0  0  0  0  0  0  0  0  0
  -23.4292  -16.5155   17.6113 C   0  0  0  0  0  0  0  0  0  0  0  0
  -23.8457  -29.4457   22.3462 C   0  0  0  0  0  0  0  0  0  0  0  0
  -21.2519  -27.8922   21.1710 C   0  0  0  0  0  0  0  0  0  0  0  0
  -30.5235  -16.2149   21.9904 C   0  0  0  0  0  0  0  0  0  0  0  0
  -20.0126  -25.2487   19.4038 C   0  0  0  0  0  0  0  0  0  0  0  0
  -24.9162  -34.0986   24.1525 C   0  0  0  0  0  0  0  0  0  0  0  0
  -24.4827  -29.1644   19.9232 C   0  0  0  0  0  0  0  0  0  0  0  0
  -23.4463  -26.6501   21.0847 C   0  0  0  0  0  0  0  0  0  0  0  0
  -23.6653  -33.2301   24.0455 C   0  0  0  0  0  0  0  0  0  0  0  0
  -29.8473  -13.8187   19.4134 C   0  0  0  0  0  0  0  0  0  0  0  0
  -23.9462  -31.8234   24.5641 C   0  0  0  0  0  0  0  0  0  0  0  0
  -28.3593  -14.0125   19.1244 C   0  0  0  0  0  0  0  0  0  0  0  0
  -30.1613  -14.0297   20.8912 C   0  0  0  0  0  0  0  0  0  0  0  0
  -28.2219  -15.5462   21.1379 C   0  0  0  0  0  0  0  0  0  0  0  0
  -25.0352  -31.1358   23.7318 C   0  0  1  0  0  0  0  0  0  0  0  0
  -23.3581  -29.1596   20.9541 C   0  0  1  0  0  0  0  0  0  0  0  0
  -27.8666  -15.3722   19.6507 C   0  0  2  0  0  0  0  0  0  0  0  0
  -18.3085  -23.8138   18.2486 C   0  0  0  0  0  0  0  0  0  0  0  0
  -26.9336  -22.8443   17.2533 C   0  0  0  0  0  0  0  0  0  0  0  0
  -28.5281  -20.2439   16.7112 C   0  0  0  0  0  0  0  0  0  0  0  0
  -26.3599  -19.9206   17.8347 C   0  0  0  0  0  0  0  0  0  0  0  0
  -28.8987  -17.1123   23.5305 C   0  0  0  0  0  0  0  0  0  0  0  0
  -20.7645  -26.8332   23.9907 C   0  0  0  0  0  0  0  0  0  0  0  0
  -19.2265  -25.1203   23.0065 C   0  0  0  0  0  0  0  0  0  0  0  0
  -18.7000  -27.5475   22.7733 C   0  0  0  0  0  0  0  0  0  0  0  0
  -30.1047  -22.8726   17.6398 C   0  0  0  0  0  0  0  0  0  0  0  0
  -29.7037  -22.3556   20.0489 C   0  0  0  0  0  0  0  0  0  0  0  0
  -20.3179  -26.7314   16.8607 C   0  0  0  0  0  0  0  0  0  0  0  0
  -28.7002  -24.3832   19.0250 C   0  0  0  0  0  0  0  0  0  1  0  0
  -20.5981  -26.5562   21.4292 C   0  0  1  0  0  0  0  0  0  0  0  0
  -18.9848  -25.1754   18.2891 C   0  0  2  0  0  0  0  0  0  0  0  0
  -27.7071  -22.0846   18.3623 C   0  0  1  0  0  0  0  0  0  0  0  0
  -27.7900  -20.5092   18.0448 C   0  0  0  0  0  0  0  0  0  0  0  0
  -29.9326  -17.5275   22.4399 C   0  0  2  0  0  0  0  0  0  0  0  0
  -19.8493  -26.5162   22.7912 C   0  0  0  0  0  0  0  0  0  0  0  0
  -29.0392  -22.8803   18.7600 C   0  0  0  0  0  0  0  0  0  0  0  0
  -31.0584  -18.3176   23.1515 C   0  0  0  0  0  0  0  0  0  0  0  0
  -28.3289  -19.1082   21.5671 N   0  0  0  0  0  0  0  0  0  0  0  0
  -29.9665  -18.1216   20.1002 N   0  0  0  0  0  0  0  0  0  0  0  0
  -25.5067  -15.2103   20.3489 N   0  0  0  0  0  0  0  0  0  0  0  0
  -26.3836  -15.5698   19.3961 N   0  0  0  0  0  0  0  0  0  0  0  0
  -22.6442  -27.8822   21.0058 N   0  0  0  0  0  0  0  0  0  0  0  0
  -29.6575  -15.3225   21.3582 N   0  0  0  0  0  0  0  0  0  0  0  0
  -26.5357  -16.4999   17.2230 N   0  0  0  0  0  0  0  0  0  0  0  0
  -23.0214  -17.8547   17.6782 N   0  0  0  0  0  0  0  0  0  0  0  0
  -24.4893  -30.6614   22.4782 N   0  0  0  0  0  0  0  0  0  0  0  0
  -19.7502  -26.2865   20.2730 N   0  0  0  0  0  0  0  0  0  0  0  0
  -19.6337  -25.4173   16.9695 N   0  3  0  0  0  0  0  0  0  0  0  0
  -22.8850  -15.7488   16.7810 O   0  0  0  0  0  0  0  0  0  0  0  0
  -23.6510  -28.6250   23.2352 O   0  0  0  0  0  0  0  0  0  0  0  0
  -20.5522  -28.9063   21.1108 O   0  0  0  0  0  0  0  0  0  0  0  0
  -31.7200  -15.9924   22.1933 O   0  0  0  0  0  0  0  0  0  0  0  0
  -20.9521  -24.4617   19.4965 O   0  0  0  0  0  0  0  0  0  0  0  0
  -19.5993  -14.5681   22.6386 O   0  0  0  0  0  0  0  0  0  0  0  0
  -27.7413  -24.5214   20.0667 O   0  0  0  0  0  0  0  0  0  1  0  0
  -19.8797  -11.2676   27.0468 F   0  0  0  0  0  0  0  0  0  0  0  0
  -18.1180  -12.2371   22.7618 F   0  0  0  0  0  0  0  0  0  0  0  0
  -30.5868  -19.4916   23.6312 F   0  0  0  0  0  0  0  0  0  0  0  0
  -31.5886  -17.6429   24.1983 F   0  0  0  0  0  0  0  0  0  0  0  0
  -32.0729  -18.6049   22.3060 F   0  0  0  0  0  0  0  0  0  0  0  0
  1  2  1  0  0  0  0
  1  5  2  0  0  0  0
  2  6  2  0  0  0  0
  3  8  2  0  0  0  0
  3 17  1  0  0  0  0
  4  9  1  0  0  0  0
  4 17  2  0  0  0  0
  5 19  1  0  0  0  0
  6 21  1  0  0  0  0
  7 10  2  0  0  0  0
  7 20  1  0  0  0  0
  8 24  1  0  0  0  0
  9 24  2  0  0  0  0
 10 25  1  0  0  0  0
 11 12  2  0  0  0  0
 11 26  1  0  0  0  0
 12 27  1  0  0  0  0
 13 22  1  0  0  0  0
 13 25  2  0  0  0  0
 14 27  2  0  0  0  0
 14 28  1  0  0  0  0
 15 23  1  0  0  0  0
 15 69  2  0  0  0  0
 16 23  2  0  0  0  0
 16 70  1  0  0  0  0
 17 29  1  0  0  0  0
 18 29  1  0  0  0  0
 18 30  2  0  0  0  0
 18 32  1  0  0  0  0
 19 21  2  0  0  0  0
 19 37  1  0  0  0  0
 20 22  2  0  0  0  0
 20 38  1  0  0  0  0
 21 46  1  0  0  0  0
 22 39  1  0  0  0  0
 23 64  1  0  0  0  0
 24 85  1  0  0  0  0
 25 86  1  0  0  0  0
 26 28  2  0  0  0  0
 26 85  1  0  0  0  0
 27 87  1  0  0  0  0
 28 88  1  0  0  0  0
 29 71  2  0  0  0  0
 30 72  1  0  0  0  0
 30 75  1  0  0  0  0
 31 65  1  0  0  0  0
 31 69  1  0  0  0  0
 31 70  2  0  0  0  0
 32 76  1  0  0  0  0
 32 80  2  0  0  0  0
 33 47  1  0  0  0  0
 33 77  1  0  0  0  0
 33 81  2  0  0  0  0
 34 61  1  0  0  0  0
 34 73  1  0  0  0  0
 34 82  2  0  0  0  0
 35 65  1  0  0  0  0
 35 74  1  0  0  0  0
 35 83  2  0  0  0  0
 36 62  1  0  0  0  0
 36 78  1  0  0  0  0
 36 84  2  0  0  0  0
 37 40  1  0  0  0  0
 38 47  1  0  0  0  0
 39 73  1  0  0  0  0
 40 42  1  0  0  0  0
 41 43  1  0  0  0  0
 41 44  1  0  0  0  0
 42 46  1  0  0  0  0
 43 48  1  0  0  0  0
 44 74  1  0  0  0  0
 45 48  1  0  0  0  0
 45 74  1  0  0  0  0
 46 77  1  0  0  0  0
 47 73  1  0  0  0  0
 48 72  1  0  0  0  0
 49 62  1  0  0  0  0
 50 63  1  0  0  0  0
 51 64  1  0  0  0  0
 52 64  1  0  0  0  0
 53 65  1  0  0  0  0
 54 66  1  0  0  0  0
 55 66  1  0  0  0  0
 56 66  1  0  0  0  0
 57 67  1  0  0  0  0
 58 67  1  0  0  0  0
 59 79  1  0  0  0  0
 60 67  1  0  0  0  0
 60 86  1  0  0  0  0
 61 66  1  0  0  0  0
 61 78  1  0  0  0  0
 62 79  1  0  0  0  0
 63 64  1  0  0  0  0
 63 67  1  0  0  0  0
 65 68  1  0  0  0  0
 68 89  1  0  0  0  0
 68 90  1  0  0  0  0
 68 91  1  0  0  0  0
 71 72  1  0  0  0  0
M  CHG  1  79   1
M  ISO  4  35 100  60 101  65 100  86 101
M  END
> <Batch ID>
0066

> <Smiles>
CNC(C)C(=O)NC(C(=O)N1Cc2cc([101O:1][101CH2:1]C(C)(C)C(C)C(C)(C)c3cnc([100C:0](C)([100C:0](=O)N4CCCC(n5nc(-c6ccc(Oc7ccc(F)cc7F)cc6)c(C(N)=O)c5N)C4)C(F)(F)F)nc3)ccc2CC1C(=O)NC1CCCc2ccccc21)C(C)(C)C

> <Shape>
0.269

> <Color>
0.049

> <Negative vol penalty>
0.000

$$$$

  -OEChem-04052318093D

 95103  0     1  0  0  0  0  0999 V2000
  -21.7705  -11.8692   21.2534 C   0  0  0  0  0  0  0  0  0  0  0  0
  -21.7546  -13.2009   21.6555 C   0  0  0  0  0  0  0  0  0  0  0  0
  -30.4868  -29.1180   17.6729 C   0  0  0  0  0  0  0  0  0  0  0  0
  -30.0931  -26.9574   18.6797 C   0  0  0  0  0  0  0  0  0  0  0  0
  -22.9672  -11.2780   20.8506 C   0  0  0  0  0  0  0  0  0  0  0  0
  -22.9358  -13.9420   21.6559 C   0  0  0  0  0  0  0  0  0  0  0  0
  -22.3338  -18.5581   19.6624 C   0  0  0  0  0  0  0  0  0  0  0  0
  -31.8595  -28.8709   17.6793 C   0  0  0  0  0  0  0  0  0  0  0  0
  -31.4659  -26.7102   18.6860 C   0  0  0  0  0  0  0  0  0  0  0  0
  -21.7347  -19.5261   20.4673 C   0  0  0  0  0  0  0  0  0  0  0  0
  -33.8318  -25.7466   16.4738 C   0  0  0  0  0  0  0  0  0  0  0  0
  -34.2648  -24.4917   16.0456 C   0  0  0  0  0  0  0  0  0  0  0  0
  -23.9089  -20.4358   20.9813 C   0  0  0  0  0  0  0  0  0  0  0  0
  -35.2736  -24.1026   18.2062 C   0  0  0  0  0  0  0  0  0  0  0  0
  -20.7714  -26.2868   21.1655 C   0  0  0  0  0  0  0  0  0  0  0  0
  -29.6035  -28.1613   18.1732 C   0  0  0  0  0  0  0  0  0  0  0  0
  -27.2701  -28.1059   17.1438 C   0  0  0  0  0  0  0  0  0  0  0  0
  -24.1619  -12.0150   20.8369 C   0  0  0  0  0  0  0  0  0  0  0  0
  -23.7281  -18.5149   19.5194 C   0  0  0  0  0  0  0  0  0  0  0  0
  -24.1499  -13.3598   21.2538 C   0  0  0  0  0  0  0  0  0  0  0  0
  -24.5231  -19.4679   20.1720 C   0  0  0  0  0  0  0  0  0  0  0  0
  -32.3491  -27.6670   18.1858 C   0  0  0  0  0  0  0  0  0  0  0  0
  -22.5224  -20.4633   21.1292 C   0  0  0  0  0  0  0  0  0  0  0  0
  -34.1198  -26.1796   17.7681 C   0  0  0  0  0  0  0  0  0  0  0  0
  -34.9857  -23.6697   16.9118 C   0  0  0  0  0  0  0  0  0  0  0  0
  -34.8407  -25.3575   18.6343 C   0  0  0  0  0  0  0  0  0  0  0  0
  -28.1854  -28.4163   18.1674 C   0  0  0  0  0  0  0  0  0  0  0  0
  -26.0598  -28.5474   17.6201 C   0  0  0  0  0  0  0  0  0  0  0  0
  -21.3312  -27.2312   21.9788 C   0  0  0  0  0  0  0  0  0  0  0  0
  -19.5391  -26.4263   22.9992 C   0  0  0  0  0  0  0  0  0  0  0  0
  -27.4938  -27.4749   15.8760 C   0  0  0  0  0  0  0  0  0  0  0  0
  -25.9888  -16.3891   20.2078 C   0  0  0  0  0  0  0  0  0  0  0  0
  -27.9020  -18.5036   18.6615 C   0  0  0  0  0  0  0  0  0  0  0  0
  -29.0022  -21.8398   17.8386 C   0  0  0  0  0  0  0  0  0  0  0  0
  -23.0704  -28.9637   22.5446 C   0  0  0  0  0  0  0  0  0  0  0  0
  -25.4394  -11.3194   20.4384 C   0  0  0  0  0  0  0  0  0  0  0  0
  -24.3572  -17.4810   18.6262 C   0  0  0  0  0  0  0  0  0  0  0  0
  -26.0230  -19.4771   20.0352 C   0  0  0  0  0  0  0  0  0  0  0  0
  -26.5795  -12.2802   20.1109 C   0  0  0  0  0  0  0  0  0  0  0  0
  -24.6498  -31.7964   21.0754 C   0  0  0  0  0  0  0  0  0  0  0  0
  -26.6876  -13.3641   21.1787 C   0  0  0  0  0  0  0  0  0  0  0  0
  -25.6335  -31.1849   20.0751 C   0  0  0  0  0  0  0  0  0  0  0  0
  -24.5398  -30.9580   22.3476 C   0  0  0  0  0  0  0  0  0  0  0  0
  -25.2187  -28.9264   21.1307 C   0  0  0  0  0  0  0  0  0  0  0  0
  -25.4061  -14.2036   21.2444 C   0  0  1  0  0  0  0  0  0  0  0  0
  -25.8208  -17.2122   18.9620 C   0  0  1  0  0  0  0  0  0  0  0  0
  -25.3144  -29.7012   19.8062 C   0  0  2  0  0  0  0  0  0  0  0  0
  -17.2727  -28.7728   19.2742 C   0  0  0  0  0  0  0  0  0  0  0  0
  -14.2264  -25.7855   20.6850 C   0  0  0  0  0  0  0  0  0  0  0  0
  -17.6273  -21.1905   22.9130 C   0  0  0  0  0  0  0  0  0  0  0  0
  -30.7815  -22.6265   16.2536 C   0  0  0  0  0  0  0  0  0  0  0  0
  -17.9534  -24.7340   23.9826 C   0  0  0  0  0  0  0  0  0  0  0  0
  -17.2530  -27.1431   23.7780 C   0  0  0  0  0  0  0  0  0  0  0  0
  -18.9052  -26.4551   25.5038 C   0  0  0  0  0  0  0  0  0  0  0  0
  -29.6978  -18.4915   21.1283 C   0  0  0  0  0  0  0  0  0  0  0  0
  -30.7729  -20.5834   20.2702 C   0  0  0  0  0  0  0  0  0  0  0  0
  -30.9213  -18.4738   18.9472 C   0  0  0  0  0  0  0  0  0  0  0  0
  -16.6182  -25.7860   18.7599 C   0  0  0  0  0  0  0  0  0  0  0  0
  -19.1398  -24.1969   19.8774 C   0  0  0  0  0  0  0  0  0  0  0  0
  -27.0997  -23.5770   16.3821 C   0  0  0  0  0  0  0  0  0  0  0  0
  -17.6894  -27.6061   20.1668 C   0  0  0  0  0  0  0  0  0  0  0  0
  -15.3143  -26.8553   20.6320 C   0  0  0  0  0  0  0  0  0  0  0  0
  -17.7627  -22.3053   21.8814 C   0  0  0  0  0  0  0  0  0  0  0  0
  -20.1618  -22.9005   22.5429 C   0  0  0  0  0  0  0  0  0  0  0  0
  -17.2201  -25.2686   21.2050 C   0  0  0  0  0  0  0  0  0  0  0  0
  -20.6268  -21.8353   21.5539 C   0  0  0  0  0  0  0  0  0  1  0  0
  -28.7173  -19.7062   19.0719 C   0  0  1  0  0  0  0  0  0  0  0  0
  -29.2933  -22.3846   16.4519 C   0  0  2  0  0  0  0  0  0  0  0  0
  -18.4807  -26.2051   24.0150 C   0  0  0  0  0  0  0  0  0  0  0  0
  -29.9992  -19.3126   19.8587 C   0  0  0  0  0  0  0  0  0  0  0  0
  -16.7410  -26.3739   20.1844 C   0  0  0  0  0  0  0  0  0  0  0  0
  -18.7072  -24.7069   21.2756 C   0  0  1  0  0  0  0  0  0  0  0  0
  -18.7268  -23.4551   22.3019 C   0  0  1  0  0  0  0  0  0  0  0  0
  -27.6062  -29.0092   19.2147 N   0  0  0  0  0  0  0  0  0  0  0  0
  -19.6646  -25.8051   21.8220 N   0  0  0  0  0  0  0  0  0  0  0  0
  -26.3140  -29.0751   18.8518 N   0  0  0  0  0  0  0  0  0  0  0  0
  -20.5481  -27.2970   23.1060 N   0  3  0  0  0  0  0  0  0  0  0  0
  -26.5914  -18.4422   19.1557 N   0  0  0  0  0  0  0  0  0  0  0  0
  -24.2317  -29.5653   22.0152 N   0  0  0  0  0  0  0  0  0  0  0  0
  -24.8137  -28.5319   17.1011 N   0  0  0  0  0  0  0  0  0  0  0  0
  -28.7984  -27.0839   15.5452 N   0  0  0  0  0  0  0  0  0  0  0  0
  -22.4936  -27.9989   21.7193 N   0  0  0  0  0  0  0  0  0  0  0  0
  -25.3689  -15.1553   20.1548 N   0  0  0  0  0  0  0  0  0  0  0  0
  -28.9742  -20.4613   17.8503 N   0  0  0  0  0  0  0  0  0  0  0  0
  -28.5754  -23.6733   16.2405 N   0  3  0  0  0  0  0  0  0  0  0  0
  -26.5671  -27.2789   15.0536 O   0  0  0  0  0  0  0  0  0  0  0  0
  -26.6344  -16.8395   21.1470 O   0  0  0  0  0  0  0  0  0  0  0  0
  -28.4071  -17.6538   17.9237 O   0  0  0  0  0  0  0  0  0  0  0  0
  -28.8217  -22.5646   18.8147 O   0  0  0  0  0  0  0  0  0  0  0  0
  -22.6053  -29.3003   23.6365 O   0  0  0  0  0  0  0  0  0  0  0  0
  -33.6885  -27.4254   18.1920 O   0  0  0  0  0  0  0  0  0  0  0  0
  -21.9365  -21.4149   21.9211 O   0  0  0  0  0  0  0  0  0  1  0  0
  -35.4001  -22.4640   16.5009 F   0  0  0  0  0  0  0  0  0  0  0  0
  -35.1193  -25.7675   19.8793 F   0  0  0  0  0  0  0  0  0  0  0  0
  -18.2897  -23.9325   23.5134 F   0  0  0  0  0  0  0  0  0  0  0  0
  1  2  1  0  0  0  0
  1  5  2  0  0  0  0
  2  6  2  0  0  0  0
  3  8  2  0  0  0  0
  3 16  1  0  0  0  0
  4  9  1  0  0  0  0
  4 16  2  0  0  0  0
  5 18  1  0  0  0  0
  6 20  1  0  0  0  0
  7 10  2  0  0  0  0
  7 19  1  0  0  0  0
  8 22  1  0  0  0  0
  9 22  2  0  0  0  0
 10 23  1  0  0  0  0
 11 12  2  0  0  0  0
 11 24  1  0  0  0  0
 12 25  1  0  0  0  0
 13 21  1  0  0  0  0
 13 23  2  0  0  0  0
 14 25  2  0  0  0  0
 14 26  1  0  0  0  0
 15 29  2  0  0  0  0
 15 75  1  0  0  0  0
 16 27  1  0  0  0  0
 17 27  1  0  0  0  0
 17 28  2  0  0  0  0
 17 31  1  0  0  0  0
 18 20  2  0  0  0  0
 18 36  1  0  0  0  0
 19 21  2  0  0  0  0
 19 37  1  0  0  0  0
 20 45  1  0  0  0  0
 21 38  1  0  0  0  0
 22 91  1  0  0  0  0
 23 92  1  0  0  0  0
 24 26  2  0  0  0  0
 24 91  1  0  0  0  0
 25 93  1  0  0  0  0
 26 94  1  0  0  0  0
 27 74  2  0  0  0  0
 28 76  1  0  0  0  0
 28 80  1  0  0  0  0
 29 77  1  0  0  0  0
 29 82  1  0  0  0  0
 30 69  1  0  0  0  0
 30 75  1  0  0  0  0
 30 77  2  0  0  0  0
 31 81  1  0  0  0  0
 31 86  2  0  0  0  0
 32 46  1  0  0  0  0
 32 83  1  0  0  0  0
 32 87  2  0  0  0  0
 33 67  1  0  0  0  0
 33 78  1  0  0  0  0
 33 88  2  0  0  0  0
 34 68  1  0  0  0  0
 34 84  1  0  0  0  0
 34 89  2  0  0  0  0
 35 79  1  0  0  0  0
 35 82  1  0  0  0  0
 35 90  2  0  0  0  0
 36 39  1  0  0  0  0
 37 46  1  0  0  0  0
 38 78  1  0  0  0  0
 39 41  1  0  0  0  0
 40 42  1  0  0  0  0
 40 43  1  0  0  0  0
 41 45  1  0  0  0  0
 42 47  1  0  0  0  0
 43 79  1  0  0  0  0
 44 47  1  0  0  0  0
 44 79  1  0  0  0  0
 45 83  1  0  0  0  0
 46 78  1  0  0  0  0
 47 76  1  0  0  0  0
 48 61  1  0  0  0  0
 49 62  1  0  0  0  0
 50 63  1  0  0  0  0
 51 68  1  0  0  0  0
 52 69  1  0  0  0  0
 53 69  1  0  0  0  0
 54 69  1  0  0  0  0
 55 70  1  0  0  0  0
 56 70  1  0  0  0  0
 57 70  1  0  0  0  0
 58 71  1  0  0  0  0
 59 72  1  0  0  0  0
 60 85  1  0  0  0  0
 61 71  1  0  0  0  0
 62 71  1  0  0  0  0
 63 73  1  0  0  0  0
 64 66  1  0  0  0  0
 64 73  1  0  0  0  0
 65 71  1  0  0  0  0
 65 72  1  0  0  0  0
 66 92  1  0  0  0  0
 67 70  1  0  0  0  0
 67 84  1  0  0  0  0
 68 85  1  0  0  0  0
 72 73  1  0  0  0  0
 72 75  1  0  0  0  0
 73 95  1  0  0  0  0
 74 76  1  0  0  0  0
M  CHG  2  77   1  85   1
M  ISO  4  35 100  66 101  82 100  92 101
M  END
> <Batch ID>
0066

> <Smiles>
CCC(C)(CC)CC(C)(n1cc([100NH:0][100C:0](=O)N2CCCC(n3nc(-c4ccc(Oc5ccc(F)cc5F)cc4)c(C(N)=O)c3N)C2)nc1C(C)(C)C)C(F)(CC)C[101CH2:1][101O:1]c1ccc2c(c1)CN(C(=O)C(NC(=O)C(C)NC)C(C)(C)C)C(C(=O)NC1CCCc3ccccc31)C2

> <Shape>
0.199

> <Color>
0.071

> <Negative vol penalty>
0.000

$$$$

  -OEChem-04052318093D

 95103  0     1  0  0  0  0  0999 V2000
  -19.8063  -24.0882   22.5799 C   0  0  0  0  0  0  0  0  0  0  0  0
  -21.1148  -24.3924   22.2182 C   0  0  0  0  0  0  0  0  0  0  0  0
  -21.0715  -13.5473   23.4966 C   0  0  0  0  0  0  0  0  0  0  0  0
  -23.4224  -13.2672   23.0149 C   0  0  0  0  0  0  0  0  0  0  0  0
  -18.8568  -25.1045   22.6766 C   0  0  0  0  0  0  0  0  0  0  0  0
  -21.4742  -25.7131   21.9520 C   0  0  0  0  0  0  0  0  0  0  0  0
  -25.8653  -27.0059   24.1179 C   0  0  0  0  0  0  0  0  0  0  0  0
  -20.7621  -12.5609   22.5602 C   0  0  0  0  0  0  0  0  0  0  0  0
  -23.1130  -12.2807   22.0785 C   0  0  0  0  0  0  0  0  0  0  0  0
  -27.0346  -26.5700   23.4962 C   0  0  0  0  0  0  0  0  0  0  0  0
  -22.2688   -9.0085   22.0969 C   0  0  0  0  0  0  0  0  0  0  0  0
  -23.0304   -7.8400   22.1131 C   0  0  0  0  0  0  0  0  0  0  0  0
  -27.3097  -28.7493   22.4991 C   0  0  0  0  0  0  0  0  0  0  0  0
  -23.7289   -8.2637   19.8395 C   0  0  0  0  0  0  0  0  0  0  0  0
  -27.9589  -18.8676   22.8189 C   0  0  0  0  0  0  0  0  0  0  0  0
  -22.4017  -13.9006   23.7239 C   0  0  0  0  0  0  0  0  0  0  0  0
  -22.9817  -14.7391   26.0623 C   0  0  0  0  0  0  0  0  0  0  0  0
  -19.2070  -26.4396   22.4208 C   0  0  0  0  0  0  0  0  0  0  0  0
  -25.4028  -28.3158   23.9258 C   0  0  0  0  0  0  0  0  0  0  0  0
  -20.5281  -26.7481   22.0440 C   0  0  0  0  0  0  0  0  0  0  0  0
  -26.1357  -29.2002   23.1216 C   0  0  0  0  0  0  0  0  0  0  0  0
  -28.4975  -18.9800   21.5605 C   0  0  0  0  0  0  0  0  0  0  0  0
  -21.7828  -11.9275   21.8512 C   0  0  0  0  0  0  0  0  0  0  0  0
  -27.7555  -27.4408   22.6844 C   0  0  0  0  0  0  0  0  0  0  0  0
  -22.2372   -9.8046   20.9519 C   0  0  0  0  0  0  0  0  0  0  0  0
  -23.7605   -7.4676   20.9844 C   0  0  0  0  0  0  0  0  0  0  0  0
  -22.9673   -9.4322   19.8232 C   0  0  0  0  0  0  0  0  0  0  0  0
  -22.7219  -14.9199   24.6905 C   0  0  0  0  0  0  0  0  0  0  0  0
  -28.0192  -20.2144   21.0818 C   0  0  0  0  0  0  0  0  0  0  0  0
  -23.2301  -16.0047   26.5344 C   0  0  0  0  0  0  0  0  0  0  0  0
  -22.9971  -13.5347   26.8401 C   0  0  0  0  0  0  0  0  0  0  0  0
  -22.7789  -29.6083   22.6816 C   0  0  0  0  0  0  0  0  0  0  0  0
  -25.1616  -20.9982   23.8056 C   0  0  0  0  0  0  0  0  0  0  0  0
  -24.0921  -32.3674   23.7703 C   0  0  0  0  0  0  0  0  0  0  0  0
  -26.9006  -34.0735   24.6911 C   0  0  0  0  0  0  0  0  0  0  0  0
  -18.1348  -27.4978   22.4922 C   0  0  0  0  0  0  0  0  0  0  0  0
  -24.1541  -28.7786   24.6250 C   0  0  0  0  0  0  0  0  0  0  0  0
  -25.6927  -30.6224   22.8994 C   0  0  0  0  0  0  0  0  0  0  0  0
  -18.6859  -28.9199   22.5584 C   0  0  0  0  0  0  0  0  0  0  0  0
  -22.1620  -20.5893   25.7226 C   0  0  0  0  0  0  0  0  0  0  0  0
  -19.7819  -29.1167   21.5160 C   0  0  0  0  0  0  0  0  0  0  0  0
  -21.9736  -19.0737   25.7757 C   0  0  0  0  0  0  0  0  0  0  0  0
  -22.7593  -21.0314   24.3904 C   0  0  0  0  0  0  0  0  0  0  0  0
  -23.8571  -18.8337   24.0964 C   0  0  0  0  0  0  0  0  0  0  0  0
  -20.9624  -28.1719   21.7715 C   0  0  1  0  0  0  0  0  0  0  0  0
  -23.4995  -29.9784   23.9471 C   0  0  1  0  0  0  0  0  0  0  0  0
  -23.2844  -18.3416   25.4374 C   0  0  2  0  0  0  0  0  0  0  0  0
  -27.6623  -36.3239   25.4990 C   0  0  0  0  0  0  0  0  0  0  0  0
  -29.6710  -16.7603   21.7652 C   0  0  0  0  0  0  0  0  0  0  0  0
  -30.7634  -18.6492   20.5102 C   0  0  0  0  0  0  0  0  0  0  0  0
  -28.8356  -17.4299   19.5212 C   0  0  0  0  0  0  0  0  0  0  0  0
  -28.4735  -20.3703   25.8364 C   0  0  0  0  0  0  0  0  0  0  0  0
  -27.7052  -22.4826   24.7436 C   0  0  0  0  0  0  0  0  0  0  0  0
  -26.3034  -21.4127   26.4992 C   0  0  0  0  0  0  0  0  0  0  0  0
  -23.7761  -33.4846   20.9486 C   0  0  0  0  0  0  0  0  0  0  0  0
  -25.3753  -35.3090   21.5670 C   0  0  0  0  0  0  0  0  0  0  0  0
  -23.2047  -35.0922   22.7771 C   0  0  0  0  0  0  0  0  0  0  0  0
  -30.2991  -22.1178   17.7701 C   0  0  0  0  0  0  0  0  0  0  0  0
  -28.0622  -23.2299   17.7264 C   0  0  0  0  0  0  0  0  0  0  0  0
  -27.9538  -32.9402   27.2141 C   0  0  0  0  0  0  0  0  0  0  0  0
  -28.2925  -20.8566   19.7429 C   0  0  0  0  0  0  0  0  0  0  0  0
  -28.9266  -22.2457   19.9086 C   0  0  0  0  0  0  0  0  0  0  0  0
  -30.0149  -26.6205   19.9858 C   0  0  0  0  0  0  0  0  0  0  0  0
  -29.2126  -25.3412   19.7325 C   0  0  0  0  0  0  0  0  0  0  0  0
  -29.2294  -27.6178   20.8264 C   0  0  0  0  0  0  0  0  0  1  0  0
  -26.4600  -20.3345   24.1903 C   0  0  2  0  0  0  0  0  0  0  0  0
  -25.0348  -33.4001   23.2013 C   0  0  1  0  0  0  0  0  0  0  0  0
  -27.2050  -34.9317   25.9057 C   0  0  2  0  0  0  0  0  0  0  0  0
  -29.3769  -18.0171   20.8763 C   0  0  0  0  0  0  0  0  0  0  0  0
  -27.2372  -21.1192   25.3039 C   0  0  0  0  0  0  0  0  0  0  0  0
  -24.3553  -34.2941   22.1259 C   0  0  0  0  0  0  0  0  0  0  0  0
  -29.3127  -22.9777   18.5904 C   0  0  0  0  0  0  0  0  0  0  0  0
  -30.0178  -24.3268   18.9176 C   0  0  0  0  0  0  0  0  0  0  0  0
  -22.7981  -16.1996   24.3156 N   0  0  0  0  0  0  0  0  0  0  0  0
  -27.2367  -20.8414   21.9643 N   0  0  0  0  0  0  0  0  0  0  0  0
  -27.2192  -19.9975   23.0100 N   0  0  0  0  0  0  0  0  0  0  0  0
  -23.1084  -16.8344   25.4588 N   0  0  0  0  0  0  0  0  0  0  0  0
  -24.4620  -31.0258   23.5995 N   0  0  0  0  0  0  0  0  0  0  0  0
  -23.9908  -20.2971   24.0947 N   0  0  0  0  0  0  0  0  0  0  0  0
  -23.5384  -16.4777   27.7607 N   0  0  0  0  0  0  0  0  0  0  0  0
  -22.7199  -12.3206   26.1972 N   0  0  0  0  0  0  0  0  0  0  0  0
  -21.7813  -28.6683   22.8567 N   0  0  0  0  0  0  0  0  0  0  0  0
  -25.5684  -34.1377   24.3413 N   0  0  0  0  0  0  0  0  0  0  0  0
  -28.2796  -34.3052   26.7265 N   0  3  0  0  0  0  0  0  0  0  0  0
  -23.2330  -13.5372   28.0721 O   0  0  0  0  0  0  0  0  0  0  0  0
  -23.1029  -30.1375   21.6249 O   0  0  0  0  0  0  0  0  0  0  0  0
  -25.1892  -22.1078   23.2671 O   0  0  0  0  0  0  0  0  0  0  0  0
  -23.0688  -32.7375   24.3513 O   0  0  0  0  0  0  0  0  0  0  0  0
  -27.7595  -33.4151   24.1085 O   0  0  0  0  0  0  0  0  0  0  0  0
  -21.4812  -10.9647   20.9377 O   0  0  0  0  0  0  0  0  0  0  0  0
  -28.9051  -27.0146   22.0714 O   0  0  0  0  0  0  0  0  0  1  0  0
  -24.4930   -6.3463   21.0007 F   0  0  0  0  0  0  0  0  0  0  0  0
  -22.9418  -10.1936   18.7207 F   0  0  0  0  0  0  0  0  0  0  0  0
  -31.1756  -24.0633   19.5873 F   0  0  0  0  0  0  0  0  0  0  0  0
  -30.3882  -24.9223   17.7479 F   0  0  0  0  0  0  0  0  0  0  0  0
  1  2  1  0  0  0  0
  1  5  2  0  0  0  0
  2  6  2  0  0  0  0
  3  8  2  0  0  0  0
  3 16  1  0  0  0  0
  4  9  1  0  0  0  0
  4 16  2  0  0  0  0
  5 18  1  0  0  0  0
  6 20  1  0  0  0  0
  7 10  2  0  0  0  0
  7 19  1  0  0  0  0
  8 23  1  0  0  0  0
  9 23  2  0  0  0  0
 10 24  1  0  0  0  0
 11 12  2  0  0  0  0
 11 25  1  0  0  0  0
 12 26  1  0  0  0  0
 13 21  1  0  0  0  0
 13 24  2  0  0  0  0
 14 26  2  0  0  0  0
 14 27  1  0  0  0  0
 15 22  2  0  0  0  0
 15 76  1  0  0  0  0
 16 28  1  0  0  0  0
 17 28  1  0  0  0  0
 17 30  2  0  0  0  0
 17 31  1  0  0  0  0
 18 20  2  0  0  0  0
 18 36  1  0  0  0  0
 19 21  2  0  0  0  0
 19 37  1  0  0  0  0
 20 45  1  0  0  0  0
 21 38  1  0  0  0  0
 22 29  1  0  0  0  0
 22 69  1  0  0  0  0
 23 90  1  0  0  0  0
 24 91  1  0  0  0  0
 25 27  2  0  0  0  0
 25 90  1  0  0  0  0
 26 92  1  0  0  0  0
 27 93  1  0  0  0  0
 28 74  2  0  0  0  0
 29 61  1  0  0  0  0
 29 75  2  0  0  0  0
 30 77  1  0  0  0  0
 30 80  1  0  0  0  0
 31 81  1  0  0  0  0
 31 85  2  0  0  0  0
 32 46  1  0  0  0  0
 32 82  1  0  0  0  0
 32 86  2  0  0  0  0
 33 66  1  0  0  0  0
 33 79  1  0  0  0  0
 33 87  2  0  0  0  0
 34 67  1  0  0  0  0
 34 78  1  0  0  0  0
 34 88  2  0  0  0  0
 35 68  1  0  0  0  0
 35 83  1  0  0  0  0
 35 89  2  0  0  0  0
 36 39  1  0  0  0  0
 37 46  1  0  0  0  0
 38 78  1  0  0  0  0
 39 41  1  0  0  0  0
 40 42  1  0  0  0  0
 40 43  1  0  0  0  0
 41 45  1  0  0  0  0
 42 47  1  0  0  0  0
 43 79  1  0  0  0  0
 44 47  1  0  0  0  0
 44 79  1  0  0  0  0
 45 82  1  0  0  0  0
 46 78  1  0  0  0  0
 47 77  1  0  0  0  0
 48 68  1  0  0  0  0
 49 69  1  0  0  0  0
 50 69  1  0  0  0  0
 51 69  1  0  0  0  0
 52 70  1  0  0  0  0
 53 70  1  0  0  0  0
 54 70  1  0  0  0  0
 55 71  1  0  0  0  0
 56 71  1  0  0  0  0
 57 71  1  0  0  0  0
 58 72  1  0  0  0  0
 59 72  1  0  0  0  0
 60 84  1  0  0  0  0
 61 62  1  0  0  0  0
 62 72  1  0  0  0  0
 63 64  1  0  0  0  0
 63 65  1  0  0  0  0
 64 73  1  0  0  0  0
 65 91  1  0  0  0  0
 66 70  1  0  0  0  0
 66 76  1  0  0  0  0
 67 71  1  0  0  0  0
 67 83  1  0  0  0  0
 68 84  1  0  0  0  0
 72 73  1  0  0  0  0
 73 94  1  0  0  0  0
 73 95  1  0  0  0  0
 74 77  1  0  0  0  0
 75 76  1  0  0  0  0
M  CHG  1  84   1
M  ISO  4  33 100  65 101  66 100  91 101
M  END
> <Batch ID>
0066

> <Smiles>
CNC(C)C(=O)NC(C(=O)N1Cc2cc([101O:1][101CH2:1]CCC(F)(F)C(C)(C)CCc3nn([100CH:0]([100C:0](=O)N4CCCC(n5nc(-c6ccc(Oc7ccc(F)cc7F)cc6)c(C(N)=O)c5N)C4)C(C)(C)C)cc3C(C)(C)C)ccc2CC1C(=O)NC1CCCc2ccccc21)C(C)(C)C

> <Shape>
0.263

> <Color>
0.060

> <Negative vol penalty>
0.000

$$$$

  -OEChem-04052318093D

 94102  0     1  0  0  0  0  0999 V2000
  -17.4380  -28.3552   19.4337 C   0  0  0  0  0  0  0  0  0  0  0  0
  -18.7439  -28.1039   19.0252 C   0  0  0  0  0  0  0  0  0  0  0  0
  -24.5283   -8.9515   21.8047 C   0  0  0  0  0  0  0  0  0  0  0  0
  -22.7076  -10.0641   20.6714 C   0  0  0  0  0  0  0  0  0  0  0  0
  -17.1981  -29.1976   20.5185 C   0  0  0  0  0  0  0  0  0  0  0  0
  -19.8106  -28.6958   19.7005 C   0  0  0  0  0  0  0  0  0  0  0  0
  -25.3376  -26.2581   20.7083 C   0  0  0  0  0  0  0  0  0  0  0  0
  -23.6117   -8.1942   22.5339 C   0  0  0  0  0  0  0  0  0  0  0  0
  -21.7909   -9.3067   21.4006 C   0  0  0  0  0  0  0  0  0  0  0  0
  -26.5622  -26.4099   20.0594 C   0  0  0  0  0  0  0  0  0  0  0  0
  -21.6683   -5.4735   22.0301 C   0  0  0  0  0  0  0  0  0  0  0  0
  -21.9115   -4.1057   22.1552 C   0  0  0  0  0  0  0  0  0  0  0  0
  -27.2050  -28.0807   21.6763 C   0  0  0  0  0  0  0  0  0  0  0  0
  -21.9990   -4.3411   24.5581 C   0  0  0  0  0  0  0  0  0  0  0  0
  -24.0763   -9.8865   20.8735 C   0  0  0  0  0  0  0  0  0  0  0  0
  -25.5972  -10.3437   18.8771 C   0  0  0  0  0  0  0  0  0  0  0  0
  -18.2628  -29.7925   21.2135 C   0  0  0  0  0  0  0  0  0  0  0  0
  -25.0327  -27.0256   21.8416 C   0  0  0  0  0  0  0  0  0  0  0  0
  -19.5847  -29.5481   20.7947 C   0  0  0  0  0  0  0  0  0  0  0  0
  -25.9769  -27.9349   22.3392 C   0  0  0  0  0  0  0  0  0  0  0  0
  -22.2430   -8.3717   22.3319 C   0  0  0  0  0  0  0  0  0  0  0  0
  -27.4950  -27.3234   20.5416 C   0  0  0  0  0  0  0  0  0  0  0  0
  -21.5905   -6.2751   23.1690 C   0  0  0  0  0  0  0  0  0  0  0  0
  -22.0768   -3.5395   23.4192 C   0  0  0  0  0  0  0  0  0  0  0  0
  -21.7558   -5.7089   24.4330 C   0  0  0  0  0  0  0  0  0  0  0  0
  -25.0227  -10.6696   20.1203 C   0  0  0  0  0  0  0  0  0  0  0  0
  -31.1187  -23.1195   18.4974 C   0  0  0  0  0  0  0  0  0  0  0  0
  -30.8582  -23.0265   17.1593 C   0  0  0  0  0  0  0  0  0  0  0  0
  -26.4219  -11.4042   18.5914 C   0  0  0  0  0  0  0  0  0  0  0  0
  -29.1485  -22.1407   18.2514 C   0  0  0  0  0  0  0  0  0  0  0  0
  -25.4026   -9.1859   18.0540 C   0  0  0  0  0  0  0  0  0  0  0  0
  -22.8111  -29.1831   22.5582 C   0  0  0  0  0  0  0  0  0  0  0  0
  -24.1236  -28.9795   25.5176 C   0  0  0  0  0  0  0  0  0  0  0  0
  -26.8413  -28.2163   27.4354 C   0  0  0  0  0  0  0  0  0  0  0  0
  -26.3709  -17.0124   20.0586 C   0  0  0  0  0  0  0  0  0  0  0  0
  -17.9520  -30.7335   22.3504 C   0  0  0  0  0  0  0  0  0  0  0  0
  -23.7179  -26.8308   22.5458 C   0  0  0  0  0  0  0  0  0  0  0  0
  -25.7063  -28.7683   23.5642 C   0  0  0  0  0  0  0  0  0  0  0  0
  -19.1534  -31.0241   23.2463 C   0  0  0  0  0  0  0  0  0  0  0  0
  -29.0437  -14.7948   20.6989 C   0  0  0  0  0  0  0  0  0  0  0  0
  -20.3836  -31.3430   22.4027 C   0  0  0  0  0  0  0  0  0  0  0  0
  -28.3644  -13.4393   20.5089 C   0  0  0  0  0  0  0  0  0  0  0  0
  -28.1370  -15.7964   21.4164 C   0  0  0  0  0  0  0  0  0  0  0  0
  -26.1300  -14.6064   20.5927 C   0  0  0  0  0  0  0  0  0  0  0  0
  -20.7693  -30.1519   21.5173 C   0  0  1  0  0  0  0  0  0  0  0  0
  -23.3078  -28.0341   23.3892 C   0  0  1  0  0  0  0  0  0  0  0  0
  -26.9978  -13.6004   19.8209 C   0  0  2  0  0  0  0  0  0  0  0  0
  -30.7260  -21.3166   21.1641 C   0  0  0  0  0  0  0  0  0  0  0  0
  -27.6243  -28.1866   29.8194 C   0  0  0  0  0  0  0  0  0  0  0  0
  -28.9120  -19.0359   18.5150 C   0  0  0  0  0  0  0  0  0  0  0  0
  -33.1778  -23.3989   16.2502 C   0  0  0  0  0  0  0  0  0  0  0  0
  -31.2947  -24.9158   15.5510 C   0  0  0  0  0  0  0  0  0  0  0  0
  -31.4294  -22.5921   14.6772 C   0  0  0  0  0  0  0  0  0  0  0  0
  -26.8386  -22.3374   19.3884 C   0  0  0  0  0  0  0  0  0  0  0  0
  -27.0793  -21.2452   17.1796 C   0  0  0  0  0  0  0  0  0  0  0  0
  -24.4437  -32.0131   25.4477 C   0  0  0  0  0  0  0  0  0  0  0  0
  -26.0456  -31.8184   27.3619 C   0  0  0  0  0  0  0  0  0  0  0  0
  -23.6747  -31.0956   27.6435 C   0  0  0  0  0  0  0  0  0  0  0  0
  -27.1936  -18.5700   21.8757 C   0  0  0  0  0  0  0  0  0  0  0  0
  -27.2977  -25.2928   27.3708 C   0  0  0  0  0  0  0  0  0  0  0  0
  -32.3060  -23.6930   19.2292 C   0  0  0  0  0  0  0  0  0  0  0  0
  -32.2955  -25.2230   19.3238 C   0  0  0  0  0  0  0  0  0  0  0  0
  -31.0307  -25.7736   19.9900 C   0  0  0  0  0  0  0  0  0  0  0  0
  -31.0769  -27.2973   20.0905 C   0  0  0  0  0  0  0  0  0  0  0  0
  -29.8950  -22.4503   20.5881 C   0  0  0  0  0  0  0  0  0  0  0  0
  -26.6809  -19.4180   19.6165 C   0  0  0  0  0  0  0  0  0  0  0  0
  -29.8060  -27.8579   20.7130 C   0  0  0  0  0  0  0  0  0  1  0  0
  -25.2411  -29.6897   26.2427 C   0  0  1  0  0  0  0  0  0  0  0  0
  -26.9819  -27.3852   28.6980 C   0  0  2  0  0  0  0  0  0  0  0  0
  -28.0398  -20.0629   19.2619 C   0  0  2  0  0  0  0  0  0  0  0  0
  -31.6314  -23.4459   15.9862 C   0  0  0  0  0  0  0  0  0  0  0  0
  -27.8483  -21.4823   18.5312 C   0  0  0  0  0  0  0  0  0  0  0  0
  -24.8559  -31.1400   26.6497 C   0  0  0  0  0  0  0  0  0  0  0  0
  -25.4467  -11.8450   20.5920 N   0  0  0  0  0  0  0  0  0  0  0  0
  -30.0441  -22.5643   19.1492 N   0  0  0  0  0  0  0  0  0  0  0  0
  -26.2965  -12.2670   19.6402 N   0  0  0  0  0  0  0  0  0  0  0  0
  -29.6331  -22.4167   17.0363 N   0  3  0  0  0  0  0  0  0  0  0  0
  -24.4040  -28.5461   24.2140 N   0  0  0  0  0  0  0  0  0  0  0  0
  -26.8276  -15.8842   20.7557 N   0  0  0  0  0  0  0  0  0  0  0  0
  -27.2350  -11.6735   17.5480 N   0  0  0  0  0  0  0  0  0  0  0  0
  -24.5200   -8.1916   18.4975 N   0  0  0  0  0  0  0  0  0  0  0  0
  -21.4547  -29.1436   22.2970 N   0  0  0  0  0  0  0  0  0  0  0  0
  -25.6098  -28.8324   27.3640 N   0  0  0  0  0  0  0  0  0  0  0  0
  -26.8291  -18.2651   20.4935 N   0  0  0  0  0  0  0  0  0  0  0  0
  -27.8244  -26.1841   28.4363 N   0  3  0  0  0  0  0  0  0  0  0  0
  -26.0064   -9.0299   16.9657 O   0  0  0  0  0  0  0  0  0  0  0  0
  -23.5997  -30.0427   22.1830 O   0  0  0  0  0  0  0  0  0  0  0  0
  -23.0439  -28.8091   26.0895 O   0  0  0  0  0  0  0  0  0  0  0  0
  -27.7360  -28.3126   26.5983 O   0  0  0  0  0  0  0  0  0  0  0  0
  -25.5896  -16.9083   19.1042 O   0  0  0  0  0  0  0  0  0  0  0  0
  -21.3482   -7.6327   23.0431 O   0  0  0  0  0  0  0  0  0  0  0  0
  -28.6908  -27.4740   19.9097 O   0  0  0  0  0  0  0  0  0  1  0  0
  -22.3088   -2.2258   23.5393 F   0  0  0  0  0  0  0  0  0  0  0  0
  -21.6810   -6.4737   25.5308 F   0  0  0  0  0  0  0  0  0  0  0  0
  1  2  1  0  0  0  0
  1  5  2  0  0  0  0
  2  6  2  0  0  0  0
  3  8  2  0  0  0  0
  3 15  1  0  0  0  0
  4  9  1  0  0  0  0
  4 15  2  0  0  0  0
  5 17  1  0  0  0  0
  6 19  1  0  0  0  0
  7 10  2  0  0  0  0
  7 18  1  0  0  0  0
  8 21  1  0  0  0  0
  9 21  2  0  0  0  0
 10 22  1  0  0  0  0
 11 12  2  0  0  0  0
 11 23  1  0  0  0  0
 12 24  1  0  0  0  0
 13 20  1  0  0  0  0
 13 22  2  0  0  0  0
 14 24  2  0  0  0  0
 14 25  1  0  0  0  0
 15 26  1  0  0  0  0
 16 26  1  0  0  0  0
 16 29  2  0  0  0  0
 16 31  1  0  0  0  0
 17 19  2  0  0  0  0
 17 36  1  0  0  0  0
 18 20  2  0  0  0  0
 18 37  1  0  0  0  0
 19 45  1  0  0  0  0
 20 38  1  0  0  0  0
 21 91  1  0  0  0  0
 22 92  1  0  0  0  0
 23 25  2  0  0  0  0
 23 91  1  0  0  0  0
 24 93  1  0  0  0  0
 25 94  1  0  0  0  0
 26 74  2  0  0  0  0
 27 28  2  0  0  0  0
 27 61  1  0  0  0  0
 27 75  1  0  0  0  0
 28 71  1  0  0  0  0
 28 77  1  0  0  0  0
 29 76  1  0  0  0  0
 29 80  1  0  0  0  0
 30 72  1  0  0  0  0
 30 75  1  0  0  0  0
 30 77  2  0  0  0  0
 31 81  1  0  0  0  0
 31 86  2  0  0  0  0
 32 46  1  0  0  0  0
 32 82  1  0  0  0  0
 32 87  2  0  0  0  0
 33 68  1  0  0  0  0
 33 78  1  0  0  0  0
 33 88  2  0  0  0  0
 34 69  1  0  0  0  0
 34 83  1  0  0  0  0
 34 89  2  0  0  0  0
 35 79  1  0  0  0  0
 35 84  1  0  0  0  0
 35 90  2  0  0  0  0
 36 39  1  0  0  0  0
 37 46  1  0  0  0  0
 38 78  1  0  0  0  0
 39 41  1  0  0  0  0
 40 42  1  0  0  0  0
 40 43  1  0  0  0  0
 41 45  1  0  0  0  0
 42 47  1  0  0  0  0
 43 79  1  0  0  0  0
 44 47  1  0  0  0  0
 44 79  1  0  0  0  0
 45 82  1  0  0  0  0
 46 78  1  0  0  0  0
 47 76  1  0  0  0  0
 48 65  1  0  0  0  0
 49 69  1  0  0  0  0
 50 70  1  0  0  0  0
 51 71  1  0  0  0  0
 52 71  1  0  0  0  0
 53 71  1  0  0  0  0
 54 72  1  0  0  0  0
 55 72  1  0  0  0  0
 56 73  1  0  0  0  0
 57 73  1  0  0  0  0
 58 73  1  0  0  0  0
 59 84  1  0  0  0  0
 60 85  1  0  0  0  0
 61 62  1  0  0  0  0
 62 63  1  0  0  0  0
 63 64  1  0  0  0  0
 64 67  1  0  0  0  0
 65 75  1  0  0  0  0
 66 70  1  0  0  0  0
 66 84  1  0  0  0  0
 67 92  1  0  0  0  0
 68 73  1  0  0  0  0
 68 83  1  0  0  0  0
 69 85  1  0  0  0  0
 70 72  1  0  0  0  0
 74 76  1  0  0  0  0
M  CHG  2  77   1  85   1
M  ISO  4  35 100  67 101  84 100  92 101
M  END
> <Batch ID>
0066

> <Smiles>
CCn1c(C(C)(C)C(C)C[100N:0](C)[100C:0](=O)N2CCCC(n3nc(-c4ccc(Oc5ccc(F)cc5F)cc4)c(C(N)=O)c3N)C2)nc(C(C)(C)C)c1CCCC[101CH2:1][101O:1]c1ccc2c(c1)CN(C(=O)C(NC(=O)C(C)NC)C(C)(C)C)C(C(=O)NC1CCCc3ccccc31)C2

> <Shape>
0.282

> <Color>
0.076

> <Negative vol penalty>
0.000

$$$$

  -OEChem-04052318093D

 85 93  0     1  0  0  0  0  0999 V2000
  -33.8548  -27.2886   19.1949 C   0  0  0  0  0  0  0  0  0  0  0  0
  -32.5693  -26.7572   19.2202 C   0  0  0  0  0  0  0  0  0  0  0  0
  -24.4224  -13.6474   20.0308 C   0  0  0  0  0  0  0  0  0  0  0  0
  -26.3188  -13.7158   21.5260 C   0  0  0  0  0  0  0  0  0  0  0  0
  -34.2577  -28.1829   20.1858 C   0  0  0  0  0  0  0  0  0  0  0  0
  -31.6864  -27.1191   20.2370 C   0  0  0  0  0  0  0  0  0  0  0  0
  -25.6194  -27.8124   19.7707 C   0  0  0  0  0  0  0  0  0  0  0  0
  -24.5022  -12.2553   19.9932 C   0  0  0  0  0  0  0  0  0  0  0  0
  -26.3987  -12.3237   21.4885 C   0  0  0  0  0  0  0  0  0  0  0  0
  -24.5524  -26.9721   20.0853 C   0  0  0  0  0  0  0  0  0  0  0  0
  -23.9818   -8.6633   19.7897 C   0  0  0  0  0  0  0  0  0  0  0  0
  -22.7946   -7.9420   19.9158 C   0  0  0  0  0  0  0  0  0  0  0  0
  -24.3300  -28.0651   22.2242 C   0  0  0  0  0  0  0  0  0  0  0  0
  -22.4234   -8.9325   22.0879 C   0  0  0  0  0  0  0  0  0  0  0  0
  -24.5898  -22.0472   23.5041 C   0  0  0  0  0  0  0  0  0  0  0  0
  -25.3642  -24.0900   23.2545 C   0  0  0  0  0  0  0  0  0  0  0  0
  -25.3307  -14.3776   20.7971 C   0  0  0  0  0  0  0  0  0  0  0  0
  -24.5086  -16.6011   21.7395 C   0  0  0  0  0  0  0  0  0  0  0  0
  -33.3761  -28.5634   21.2098 C   0  0  0  0  0  0  0  0  0  0  0  0
  -26.0576  -28.7798   20.6865 C   0  0  0  0  0  0  0  0  0  0  0  0
  -32.0783  -28.0183   21.2432 C   0  0  0  0  0  0  0  0  0  0  0  0
  -25.4012  -28.9182   21.9179 C   0  0  0  0  0  0  0  0  0  0  0  0
  -24.1887  -23.3909   23.3803 C   0  0  0  0  0  0  0  0  0  0  0  0
  -25.4903  -11.5935   20.7221 C   0  0  0  0  0  0  0  0  0  0  0  0
  -23.9094  -27.0964   21.3134 C   0  0  0  0  0  0  0  0  0  0  0  0
  -24.3899   -9.5191   20.8128 C   0  0  0  0  0  0  0  0  0  0  0  0
  -22.0154   -8.0766   21.0648 C   0  0  0  0  0  0  0  0  0  0  0  0
  -23.6106   -9.6538   21.9619 C   0  0  0  0  0  0  0  0  0  0  0  0
  -25.2491  -15.8157   20.8359 C   0  0  0  0  0  0  0  0  0  0  0  0
  -24.7636  -17.8957   21.3581 C   0  0  0  0  0  0  0  0  0  0  0  0
  -23.6656  -16.1966   22.8264 C   0  0  0  0  0  0  0  0  0  0  0  0
  -28.7709  -29.3212   22.2512 C   0  0  0  0  0  0  0  0  0  0  0  0
  -27.2392  -32.0245   23.1832 C   0  0  0  0  0  0  0  0  0  0  0  0
  -24.2814  -33.6397   23.7207 C   0  0  0  0  0  0  0  0  0  0  0  0
  -28.3193  -21.8838   19.7464 C   0  0  0  0  0  0  0  0  0  0  0  0
  -33.8724  -29.4967   22.2855 C   0  0  0  0  0  0  0  0  0  0  0  0
  -27.1928  -29.6964   20.3212 C   0  0  0  0  0  0  0  0  0  0  0  0
  -25.8199  -29.9542   22.9276 C   0  0  0  0  0  0  0  0  0  0  0  0
  -32.7530  -30.1179   23.1170 C   0  0  0  0  0  0  0  0  0  0  0  0
  -27.0348  -19.7235   17.2245 C   0  0  0  0  0  0  0  0  0  0  0  0
  -31.7464  -29.0520   23.5382 C   0  0  0  0  0  0  0  0  0  0  0  0
  -26.4006  -18.5767   18.0134 C   0  0  0  0  0  0  0  0  0  0  0  0
  -28.3065  -20.2357   17.8970 C   0  0  0  0  0  0  0  0  0  0  0  0
  -27.5134  -19.4711   20.1016 C   0  0  0  0  0  0  0  0  0  0  0  0
  -31.0835  -28.4055   22.3158 C   0  0  1  0  0  0  0  0  0  0  0  0
  -27.8858  -30.3033   21.5373 C   0  0  1  0  0  0  0  0  0  0  0  0
  -26.1974  -18.9584   19.4921 C   0  0  2  0  0  0  0  0  0  0  0  0
  -23.3488  -35.8282   24.5198 C   0  0  0  0  0  0  0  0  0  0  0  0
  -27.8668  -31.2374   26.0636 C   0  0  0  0  0  0  0  0  0  0  0  0
  -26.1420  -32.8884   26.8170 C   0  0  0  0  0  0  0  0  0  0  0  0
  -28.1505  -33.6709   25.5617 C   0  0  0  0  0  0  0  0  0  0  0  0
  -28.5477  -22.3347   24.0383 C   0  0  0  0  0  0  0  0  0  0  0  0
  -28.1382  -24.7535   23.9261 C   0  0  0  0  0  0  0  0  0  0  0  0
  -29.7664  -23.7312   21.5518 C   0  0  0  0  0  0  0  0  0  0  0  0
  -27.5082  -24.4645   20.8341 C   0  0  0  0  0  0  0  0  0  0  0  0
  -22.9605  -34.1578   21.1234 C   0  0  0  0  0  0  0  0  0  0  0  0
  -22.7849  -23.9413   23.3820 C   0  0  0  0  0  0  0  0  0  0  0  0
  -22.1512  -24.0171   21.9912 C   0  0  0  0  0  0  0  0  0  0  0  0
  -22.8761  -24.9708   21.0486 C   0  0  0  0  0  0  0  0  0  1  0  0
  -26.3404  -32.4005   24.3364 C   0  0  1  0  0  0  0  0  0  0  0  0
  -23.7988  -35.0200   23.3127 C   0  0  2  0  0  0  0  0  0  0  0  0
  -27.1180  -32.5284   25.6767 C   0  0  0  0  0  0  0  0  0  0  0  0
  -27.7769  -23.4143   23.2182 C   0  0  0  0  0  0  0  0  0  0  0  0
  -28.2592  -23.4224   21.6927 C   0  0  0  0  0  0  0  0  0  0  0  0
  -25.9165  -21.8991   23.4607 N   0  0  0  0  0  0  0  0  0  0  0  0
  -25.9239  -16.5500   19.9473 N   0  0  0  0  0  0  0  0  0  0  0  0
  -26.3593  -23.1587   23.3082 N   0  0  0  0  0  0  0  0  0  0  0  0
  -25.6082  -17.8103   20.2907 N   0  0  0  0  0  0  0  0  0  0  0  0
  -26.9392  -30.8225   22.5266 N   0  0  0  0  0  0  0  0  0  0  0  0
  -28.0453  -20.5817   19.2963 N   0  0  0  0  0  0  0  0  0  0  0  0
  -24.3454  -19.0874   21.8351 N   0  0  0  0  0  0  0  0  0  0  0  0
  -23.5139  -14.8266   23.0803 N   0  0  0  0  0  0  0  0  0  0  0  0
  -30.0661  -29.2790   21.7715 N   0  0  0  0  0  0  0  0  0  0  0  0
  -25.6439  -33.6167   23.9313 N   0  0  0  0  0  0  0  0  0  0  0  0
  -28.0369  -22.1295   21.0845 N   0  0  0  0  0  0  0  0  0  0  0  0
  -22.6521  -34.9092   22.3673 N   0  3  0  0  0  0  0  0  0  0  0  0
  -23.0516  -17.0250   23.5408 O   0  0  0  0  0  0  0  0  0  0  0  0
  -28.3131  -28.6523   23.1703 O   0  0  0  0  0  0  0  0  0  0  0  0
  -28.1687  -32.7732   22.8719 O   0  0  0  0  0  0  0  0  0  0  0  0
  -23.5248  -32.6791   23.8442 O   0  0  0  0  0  0  0  0  0  0  0  0
  -28.7762  -22.7637   19.0089 O   0  0  0  0  0  0  0  0  0  0  0  0
  -25.5684  -10.2351   20.6859 O   0  0  0  0  0  0  0  0  0  0  0  0
  -22.8680  -26.2770   21.6232 O   0  0  0  0  0  0  0  0  0  1  0  0
  -20.8745   -7.3851   21.1851 F   0  0  0  0  0  0  0  0  0  0  0  0
  -23.9969  -10.4753   22.9476 F   0  0  0  0  0  0  0  0  0  0  0  0
  1  2  1  0  0  0  0
  1  5  2  0  0  0  0
  2  6  2  0  0  0  0
  3  8  2  0  0  0  0
  3 17  1  0  0  0  0
  4  9  1  0  0  0  0
  4 17  2  0  0  0  0
  5 19  1  0  0  0  0
  6 21  1  0  0  0  0
  7 10  2  0  0  0  0
  7 20  1  0  0  0  0
  8 24  1  0  0  0  0
  9 24  2  0  0  0  0
 10 25  1  0  0  0  0
 11 12  2  0  0  0  0
 11 26  1  0  0  0  0
 12 27  1  0  0  0  0
 13 22  1  0  0  0  0
 13 25  2  0  0  0  0
 14 27  2  0  0  0  0
 14 28  1  0  0  0  0
 15 23  1  0  0  0  0
 15 65  2  0  0  0  0
 16 23  2  0  0  0  0
 16 67  1  0  0  0  0
 17 29  1  0  0  0  0
 18 29  1  0  0  0  0
 18 30  2  0  0  0  0
 18 31  1  0  0  0  0
 19 21  2  0  0  0  0
 19 36  1  0  0  0  0
 20 22  2  0  0  0  0
 20 37  1  0  0  0  0
 21 45  1  0  0  0  0
 22 38  1  0  0  0  0
 23 57  1  0  0  0  0
 24 82  1  0  0  0  0
 25 83  1  0  0  0  0
 26 28  2  0  0  0  0
 26 82  1  0  0  0  0
 27 84  1  0  0  0  0
 28 85  1  0  0  0  0
 29 66  2  0  0  0  0
 30 68  1  0  0  0  0
 30 71  1  0  0  0  0
 31 72  1  0  0  0  0
 31 77  2  0  0  0  0
 32 46  1  0  0  0  0
 32 73  1  0  0  0  0
 32 78  2  0  0  0  0
 33 60  1  0  0  0  0
 33 69  1  0  0  0  0
 33 79  2  0  0  0  0
 34 61  1  0  0  0  0
 34 74  1  0  0  0  0
 34 80  2  0  0  0  0
 35 70  1  0  0  0  0
 35 75  1  0  0  0  0
 35 81  2  0  0  0  0
 36 39  1  0  0  0  0
 37 46  1  0  0  0  0
 38 69  1  0  0  0  0
 39 41  1  0  0  0  0
 40 42  1  0  0  0  0
 40 43  1  0  0  0  0
 41 45  1  0  0  0  0
 42 47  1  0  0  0  0
 43 70  1  0  0  0  0
 44 47  1  0  0  0  0
 44 70  1  0  0  0  0
 45 73  1  0  0  0  0
 46 69  1  0  0  0  0
 47 68  1  0  0  0  0
 48 61  1  0  0  0  0
 49 62  1  0  0  0  0
 50 62  1  0  0  0  0
 51 62  1  0  0  0  0
 52 63  1  0  0  0  0
 53 63  1  0  0  0  0
 54 64  1  0  0  0  0
 55 64  1  0  0  0  0
 56 76  1  0  0  0  0
 57 58  1  0  0  0  0
 58 59  1  0  0  0  0
 59 83  1  0  0  0  0
 60 62  1  0  0  0  0
 60 74  1  0  0  0  0
 61 76  1  0  0  0  0
 63 64  1  0  0  0  0
 63 67  1  0  0  0  0
 64 75  1  0  0  0  0
 65 67  1  0  0  0  0
 66 68  1  0  0  0  0
M  CHG  1  76   1
M  ISO  4  35 100  59 101  75 100  83 101
M  END
> <Batch ID>
0066

> <Smiles>
CNC(C)C(=O)NC(C(=O)N1Cc2cc([101O:1][101CH2:1]CCc3cnn(C(C)(C)C(C)(C)[100NH:0][100C:0](=O)N4CCCC(n5nc(-c6ccc(Oc7ccc(F)cc7F)cc6)c(C(N)=O)c5N)C4)c3)ccc2CC1C(=O)NC1CCCc2ccccc21)C(C)(C)C

> <Shape>
0.215

> <Color>
0.088

> <Negative vol penalty>
0.000

$$$$

  -OEChem-04052318092D

  0  0  0     0  0  0  0  0  0999 V2000
M  END
$$$$

  -OEChem-04052318093D

 88 96  0     1  0  0  0  0  0999 V2000
  -17.1993  -13.4233   22.7691 C   0  0  0  0  0  0  0  0  0  0  0  0
  -18.0417  -14.4402   22.3313 C   0  0  0  0  0  0  0  0  0  0  0  0
  -27.2167  -23.3133   21.8274 C   0  0  0  0  0  0  0  0  0  0  0  0
  -29.0974  -24.3007   20.6763 C   0  0  0  0  0  0  0  0  0  0  0  0
  -17.7357  -12.2869   23.3731 C   0  0  0  0  0  0  0  0  0  0  0  0
  -19.4210  -14.3219   22.4984 C   0  0  0  0  0  0  0  0  0  0  0  0
  -22.0023  -15.6662   18.3541 C   0  0  0  0  0  0  0  0  0  0  0  0
  -27.5980  -22.0524   21.3689 C   0  0  0  0  0  0  0  0  0  0  0  0
  -29.4788  -23.0397   20.2178 C   0  0  0  0  0  0  0  0  0  0  0  0
  -22.1557  -17.0310   18.1144 C   0  0  0  0  0  0  0  0  0  0  0  0
  -29.8947  -19.7020   22.1649 C   0  0  0  0  0  0  0  0  0  0  0  0
  -29.8876  -18.6498   23.0806 C   0  0  0  0  0  0  0  0  0  0  0  0
  -24.3882  -16.9335   19.0230 C   0  0  0  0  0  0  0  0  0  0  0  0
  -28.2768  -17.4739   21.7168 C   0  0  0  0  0  0  0  0  0  0  0  0
  -27.9664  -24.4375   21.4811 C   0  0  0  0  0  0  0  0  0  0  0  0
  -27.9742  -26.3684   23.1482 C   0  0  0  0  0  0  0  0  0  0  0  0
  -19.1230  -12.1502   23.5389 C   0  0  0  0  0  0  0  0  0  0  0  0
  -23.0384  -14.9257   18.9412 C   0  0  0  0  0  0  0  0  0  0  0  0
  -19.9764  -13.1832   23.1064 C   0  0  0  0  0  0  0  0  0  0  0  0
  -24.2463  -15.5589   19.2669 C   0  0  0  0  0  0  0  0  0  0  0  0
  -28.7290  -21.9156   20.5641 C   0  0  0  0  0  0  0  0  0  0  0  0
  -23.3477  -17.6654   18.4515 C   0  0  0  0  0  0  0  0  0  0  0  0
  -29.0928  -19.6402   21.0253 C   0  0  0  0  0  0  0  0  0  0  0  0
  -29.0786  -17.5358   22.8566 C   0  0  0  0  0  0  0  0  0  0  0  0
  -28.2839  -18.5262   20.8012 C   0  0  0  0  0  0  0  0  0  0  0  0
  -27.5727  -25.7404   21.9540 C   0  0  0  0  0  0  0  0  0  0  0  0
  -21.0475  -25.8502   19.9074 C   0  0  0  0  0  0  0  0  0  0  0  0
  -21.6576  -26.8987   19.2641 C   0  0  0  0  0  0  0  0  0  0  0  0
  -27.3290  -27.5808   23.1323 C   0  0  0  0  0  0  0  0  0  0  0  0
  -21.1721  -27.4121   21.3402 C   0  0  0  0  0  0  0  0  0  0  0  0
  -28.8519  -25.8979   24.1797 C   0  0  0  0  0  0  0  0  0  0  0  0
  -23.3641  -13.2680   21.6337 C   0  0  0  0  0  0  0  0  0  0  0  0
  -26.2265  -12.4660   20.3353 C   0  0  0  0  0  0  0  0  0  0  0  0
  -28.7437  -13.2438   18.1660 C   0  0  0  0  0  0  0  0  0  0  0  0
  -22.3217  -29.1725   19.9504 C   0  0  0  0  0  0  0  0  0  0  0  0
  -19.6530  -10.9247   24.2402 C   0  0  0  0  0  0  0  0  0  0  0  0
  -22.8670  -13.4488   19.1687 C   0  0  0  0  0  0  0  0  0  0  0  0
  -25.3966  -14.8048   19.8806 C   0  0  0  0  0  0  0  0  0  0  0  0
  -21.1510  -10.7091   24.0412 C   0  0  0  0  0  0  0  0  0  0  0  0
  -25.5787  -30.8846   20.1723 C   0  0  0  0  0  0  0  0  0  0  0  0
  -21.9117  -12.0130   24.2600 C   0  0  0  0  0  0  0  0  0  0  0  0
  -26.5054  -29.7848   20.6884 C   0  0  0  0  0  0  0  0  0  0  0  0
  -24.4087  -30.3126   19.3779 C   0  0  0  0  0  0  0  0  0  0  0  0
  -24.5511  -28.1856   20.6251 C   0  0  0  0  0  0  0  0  0  0  0  0
  -21.4796  -13.0805   23.2474 C   0  0  1  0  0  0  0  0  0  0  0  0
  -23.7986  -12.8978   20.2438 C   0  0  1  0  0  0  0  0  0  0  0  0
  -25.7144  -28.7228   21.4724 C   0  0  1  0  0  0  0  0  0  0  0  0
  -22.1488  -26.9912   17.8733 C   0  0  0  0  0  0  0  0  0  0  0  0
  -30.9687  -12.4164   17.3522 C   0  0  0  0  0  0  0  0  0  0  0  0
  -21.0344  -27.6364   23.8770 C   0  0  0  0  0  0  0  0  0  0  0  0
  -27.5284  -13.4316   22.9204 C   0  0  0  0  0  0  0  0  0  0  0  0
  -29.7227  -13.4789   21.7157 C   0  0  0  0  0  0  0  0  0  0  0  0
  -28.4978  -11.3230   21.9884 C   0  0  0  0  0  0  0  0  0  0  0  0
  -18.1498  -27.4107   22.4081 C   0  0  0  0  0  0  0  0  0  0  0  0
  -18.7019  -29.5264   23.5939 C   0  0  0  0  0  0  0  0  0  0  0  0
  -18.7851  -29.4292   21.1108 C   0  0  0  0  0  0  0  0  0  0  0  0
  -27.7600  -12.9812   15.3871 C   0  0  0  0  0  0  0  0  0  0  0  0
  -20.6945  -24.4894   19.3616 C   0  0  0  0  0  0  0  0  0  0  0  0
  -21.8838  -23.5254   19.2842 C   0  0  0  0  0  0  0  0  0  0  0  0
  -21.4907  -22.1261   18.8003 C   0  0  0  0  0  0  0  0  0  0  0  0
  -22.7095  -21.2095   18.7093 C   0  0  0  0  0  0  0  0  0  0  0  0
  -22.3238  -19.8042   18.2696 C   0  0  0  0  0  0  0  0  0  1  0  0
  -27.6172  -13.0524   20.3680 C   0  0  1  0  0  0  0  0  0  0  0  0
  -29.4656  -12.4124   17.1210 C   0  0  2  0  0  0  0  0  0  0  0  0
  -20.6917  -28.2475   22.4596 C   0  0  2  0  0  0  0  0  0  0  0  0
  -28.3193  -12.8363   21.7384 C   0  0  0  0  0  0  0  0  0  0  0  0
  -19.1077  -28.6299   22.3973 C   0  0  0  0  0  0  0  0  0  0  0  0
  -26.7370  -26.4917   21.2320 N   0  0  0  0  0  0  0  0  0  0  0  0
  -20.7493  -26.1755   21.1994 N   0  0  0  0  0  0  0  0  0  0  0  0
  -21.7881  -27.9005   20.2057 N   0  0  0  0  0  0  0  0  0  0  0  0
  -26.6081  -27.6043   21.9747 N   0  0  0  0  0  0  0  0  0  0  0  0
  -25.1781  -13.3639   20.0893 N   0  0  0  0  0  0  0  0  0  0  0  0
  -23.6995  -29.2826   20.1355 N   0  0  0  0  0  0  0  0  0  0  0  0
  -27.3136  -28.6185   23.9957 N   0  0  0  0  0  0  0  0  0  0  0  0
  -29.4301  -24.6291   24.0376 N   0  0  0  0  0  0  0  0  0  0  0  0
  -22.0935  -12.8340   21.9603 N   0  0  0  0  0  0  0  0  0  0  0  0
  -28.3304  -12.4753   19.2337 N   0  0  0  0  0  0  0  0  0  0  0  0
  -21.4363  -29.6111   22.5724 N   0  3  0  0  0  0  0  0  0  0  0  0
  -29.1985  -12.9496   15.7568 N   0  3  0  0  0  0  0  0  0  0  0  0
  -29.1027  -26.5756   25.2050 O   0  0  0  0  0  0  0  0  0  0  0  0
  -24.1258  -13.8993   22.3568 O   0  0  0  0  0  0  0  0  0  0  0  0
  -26.0766  -11.2547   20.5140 O   0  0  0  0  0  0  0  0  0  0  0  0
  -28.5676  -14.4545   18.0489 O   0  0  0  0  0  0  0  0  0  0  0  0
  -21.5394  -30.0696   19.6608 O   0  0  0  0  0  0  0  0  0  0  0  0
  -29.1016  -20.6853   20.1167 O   0  0  0  0  0  0  0  0  0  0  0  0
  -23.4999  -18.9976   18.2192 O   0  0  0  0  0  0  0  0  0  1  0  0
  -29.0731  -16.5247   23.7352 F   0  0  0  0  0  0  0  0  0  0  0  0
  -27.5122  -18.4606   19.7075 F   0  0  0  0  0  0  0  0  0  0  0  0
  1  2  1  0  0  0  0
  1  5  2  0  0  0  0
  2  6  2  0  0  0  0
  3  8  2  0  0  0  0
  3 15  1  0  0  0  0
  4  9  1  0  0  0  0
  4 15  2  0  0  0  0
  5 17  1  0  0  0  0
  6 19  1  0  0  0  0
  7 10  2  0  0  0  0
  7 18  1  0  0  0  0
  8 21  1  0  0  0  0
  9 21  2  0  0  0  0
 10 22  1  0  0  0  0
 11 12  2  0  0  0  0
 11 23  1  0  0  0  0
 12 24  1  0  0  0  0
 13 20  1  0  0  0  0
 13 22  2  0  0  0  0
 14 24  2  0  0  0  0
 14 25  1  0  0  0  0
 15 26  1  0  0  0  0
 16 26  1  0  0  0  0
 16 29  2  0  0  0  0
 16 31  1  0  0  0  0
 17 19  2  0  0  0  0
 17 36  1  0  0  0  0
 18 20  2  0  0  0  0
 18 37  1  0  0  0  0
 19 45  1  0  0  0  0
 20 38  1  0  0  0  0
 21 85  1  0  0  0  0
 22 86  1  0  0  0  0
 23 25  2  0  0  0  0
 23 85  1  0  0  0  0
 24 87  1  0  0  0  0
 25 88  1  0  0  0  0
 26 68  2  0  0  0  0
 27 28  2  0  0  0  0
 27 58  1  0  0  0  0
 27 69  1  0  0  0  0
 28 48  1  0  0  0  0
 28 70  1  0  0  0  0
 29 71  1  0  0  0  0
 29 74  1  0  0  0  0
 30 65  1  0  0  0  0
 30 69  2  0  0  0  0
 30 70  1  0  0  0  0
 31 75  1  0  0  0  0
 31 80  2  0  0  0  0
 32 46  1  0  0  0  0
 32 76  1  0  0  0  0
 32 81  2  0  0  0  0
 33 63  1  0  0  0  0
 33 72  1  0  0  0  0
 33 82  2  0  0  0  0
 34 64  1  0  0  0  0
 34 77  1  0  0  0  0
 34 83  2  0  0  0  0
 35 70  1  0  0  0  0
 35 73  1  0  0  0  0
 35 84  2  0  0  0  0
 36 39  1  0  0  0  0
 37 46  1  0  0  0  0
 38 72  1  0  0  0  0
 39 41  1  0  0  0  0
 40 42  1  0  0  0  0
 40 43  1  0  0  0  0
 41 45  1  0  0  0  0
 42 47  1  0  0  0  0
 43 73  1  0  0  0  0
 44 47  1  0  0  0  0
 44 73  1  0  0  0  0
 45 76  1  0  0  0  0
 46 72  1  0  0  0  0
 47 71  1  0  0  0  0
 49 64  1  0  0  0  0
 50 65  1  0  0  0  0
 51 66  1  0  0  0  0
 52 66  1  0  0  0  0
 53 66  1  0  0  0  0
 54 67  1  0  0  0  0
 55 67  1  0  0  0  0
 56 67  1  0  0  0  0
 57 79  1  0  0  0  0
 58 59  1  0  0  0  0
 59 60  1  0  0  0  0
 60 61  1  0  0  0  0
 61 62  1  0  0  0  0
 62 86  1  0  0  0  0
 63 66  1  0  0  0  0
 63 77  1  0  0  0  0
 64 79  1  0  0  0  0
 65 67  1  0  0  0  0
 65 78  1  0  0  0  0
 68 71  1  0  0  0  0
M  CHG  2  78   1  79   1
M  ISO  4  35 100  62 101  70 100  86 101
M  END
> <Batch ID>
0066

> <Smiles>
CNC(C)C(=O)NC(C(=O)N1Cc2cc([101O:1][101CH2:1]CCCCc3nc(C(C)(N)C(C)(C)C)[100n:0]([100C:0](=O)N4CCCC(n5nc(-c6ccc(Oc7ccc(F)cc7F)cc6)c(C(N)=O)c5N)C4)c3C)ccc2CC1C(=O)NC1CCCc2ccccc21)C(C)(C)C

> <Shape>
0.242

> <Color>
0.075

> <Negative vol penalty>
0.000

$$$$

  -OEChem-04052318093D

 92100  0     1  0  0  0  0  0999 V2000
  -25.8912  -34.1895   14.8659 C   0  0  0  0  0  0  0  0  0  0  0  0
  -26.4639  -33.0406   15.4019 C   0  0  0  0  0  0  0  0  0  0  0  0
  -27.1878  -14.7506   22.3799 C   0  0  0  0  0  0  0  0  0  0  0  0
  -25.7608  -16.1265   20.9988 C   0  0  0  0  0  0  0  0  0  0  0  0
  -25.5013  -35.2305   15.7075 C   0  0  0  0  0  0  0  0  0  0  0  0
  -26.6480  -32.9323   16.7799 C   0  0  0  0  0  0  0  0  0  0  0  0
  -25.2453  -28.4109   18.5782 C   0  0  0  0  0  0  0  0  0  0  0  0
  -26.4885  -13.6150   21.9712 C   0  0  0  0  0  0  0  0  0  0  0  0
  -25.0615  -14.9909   20.5900 C   0  0  0  0  0  0  0  0  0  0  0  0
  -26.1258  -27.3475   18.3843 C   0  0  0  0  0  0  0  0  0  0  0  0
  -24.8482  -10.3946   21.5687 C   0  0  0  0  0  0  0  0  0  0  0  0
  -24.4869   -9.4669   22.5457 C   0  0  0  0  0  0  0  0  0  0  0  0
  -26.9118  -27.5928   20.6517 C   0  0  0  0  0  0  0  0  0  0  0  0
  -23.1973  -11.1652   23.6814 C   0  0  0  0  0  0  0  0  0  0  0  0
  -26.8239  -16.0063   21.8938 C   0  0  0  0  0  0  0  0  0  0  0  0
  -28.6811  -17.7451   21.7055 C   0  0  0  0  0  0  0  0  0  0  0  0
  -25.6719  -35.1310   17.0974 C   0  0  0  0  0  0  0  0  0  0  0  0
  -25.1991  -29.0814   19.8089 C   0  0  0  0  0  0  0  0  0  0  0  0
  -26.2613  -33.9735   17.6408 C   0  0  0  0  0  0  0  0  0  0  0  0
  -26.0280  -28.6627   20.8595 C   0  0  0  0  0  0  0  0  0  0  0  0
  -25.4254  -13.7352   21.0762 C   0  0  0  0  0  0  0  0  0  0  0  0
  -26.9613  -26.9401   19.4202 C   0  0  0  0  0  0  0  0  0  0  0  0
  -24.3841  -11.7076   21.6481 C   0  0  0  0  0  0  0  0  0  0  0  0
  -23.6615   -9.8522   23.6020 C   0  0  0  0  0  0  0  0  0  0  0  0
  -23.5586  -12.0929   22.7044 C   0  0  0  0  0  0  0  0  0  0  0  0
  -27.5455  -17.1798   22.3161 C   0  0  0  0  0  0  0  0  0  0  0  0
  -28.9808  -18.8373   22.4825 C   0  0  0  0  0  0  0  0  0  0  0  0
  -30.8411  -26.7005   20.2598 C   0  0  0  0  0  0  0  0  0  0  0  0
  -30.1717  -24.6197   19.7513 C   0  0  0  0  0  0  0  0  0  0  0  0
  -30.7528  -25.1279   21.8586 C   0  0  0  0  0  0  0  0  0  0  0  0
  -29.4006  -17.3208   20.5402 C   0  0  0  0  0  0  0  0  0  0  0  0
  -25.7617  -32.0610   20.7626 C   0  0  0  0  0  0  0  0  0  0  0  0
  -24.6518  -30.9481   23.6002 C   0  0  0  0  0  0  0  0  0  0  0  0
  -24.1109  -28.2756   25.6525 C   0  0  0  0  0  0  0  0  0  0  0  0
  -27.3968  -23.3804   25.3103 C   0  0  0  0  0  0  0  0  0  0  0  0
  -25.2783  -36.3018   17.9627 C   0  0  0  0  0  0  0  0  0  0  0  0
  -24.2247  -30.2094   20.0106 C   0  0  0  0  0  0  0  0  0  0  0  0
  -26.0026  -29.3363   22.2064 C   0  0  0  0  0  0  0  0  0  0  0  0
  -25.1644  -35.9530   19.4445 C   0  0  0  0  0  0  0  0  0  0  0  0
  -27.1990  -20.2528   27.0000 C   0  0  0  0  0  0  0  0  0  0  0  0
  -26.3714  -35.1363   19.8950 C   0  0  0  0  0  0  0  0  0  0  0  0
  -27.3588  -19.2218   25.8813 C   0  0  0  0  0  0  0  0  0  0  0  0
  -26.4032  -21.4706   26.5357 C   0  0  0  0  0  0  0  0  0  0  0  0
  -27.0787  -21.0880   24.1967 C   0  0  0  0  0  0  0  0  0  0  0  0
  -26.4548  -33.8084   19.1326 C   0  0  1  0  0  0  0  0  0  0  0  0
  -24.6270  -31.1516   21.1410 C   0  0  1  0  0  0  0  0  0  0  0  0
  -27.9223  -19.8668   24.6008 C   0  0  2  0  0  0  0  0  0  0  0  0
  -31.1318  -28.1017   19.8417 C   0  0  0  0  0  0  0  0  0  0  0  0
  -23.2238  -27.6842   27.9242 C   0  0  0  0  0  0  0  0  0  0  0  0
  -30.2452  -23.9344   17.2972 C   0  0  0  0  0  0  0  0  0  0  0  0
  -30.3025  -22.1908   19.0137 C   0  0  0  0  0  0  0  0  0  0  0  0
  -32.4284  -24.9113   23.7564 C   0  0  0  0  0  0  0  0  0  0  0  0
  -27.2187  -31.9972   24.8731 C   0  0  0  0  0  0  0  0  0  0  0  0
  -26.7254  -30.5750   26.8737 C   0  0  0  0  0  0  0  0  0  0  0  0
  -25.1489  -32.3941   26.2194 C   0  0  0  0  0  0  0  0  0  0  0  0
  -30.1294  -24.9910   25.8023 C   0  0  0  0  0  0  0  0  0  0  0  0
  -30.1121  -26.9696   24.3140 C   0  0  0  0  0  0  0  0  0  0  0  0
  -27.5629  -22.4761   17.6267 C   0  0  0  0  0  0  0  0  0  0  0  0
  -27.4645  -23.0660   20.0343 C   0  0  0  0  0  0  0  0  0  0  0  0
  -21.9798  -26.5728   24.5046 C   0  0  0  0  0  0  0  0  0  0  0  0
  -28.4197  -25.1922   23.9574 C   0  0  0  0  0  0  0  0  0  0  0  0
  -27.4266  -24.8887   18.3107 C   0  0  0  0  0  0  0  0  0  1  0  0
  -25.2757  -30.2981   24.8114 C   0  0  1  0  0  0  0  0  0  0  0  0
  -22.8916  -27.8479   26.4492 C   0  0  2  0  0  0  0  0  0  0  0  0
  -29.6716  -23.5845   18.7056 C   0  0  0  0  0  0  0  0  0  0  0  0
  -30.9418  -24.7197   23.2800 C   0  0  1  0  0  0  0  0  0  0  0  0
  -26.0943  -31.3044   25.6685 C   0  0  0  0  0  0  0  0  0  0  0  0
  -29.9177  -25.4281   24.3274 C   0  0  0  0  0  0  0  0  0  0  0  0
  -28.0601  -23.5108   18.6719 C   0  0  0  0  0  0  0  0  0  0  0  0
  -27.1508  -17.8569   23.3977 N   0  0  0  0  0  0  0  0  0  0  0  0
  -30.4129  -25.8619   19.3024 N   0  0  0  0  0  0  0  0  0  0  0  0
  -31.0341  -26.4054   21.5555 N   0  0  0  0  0  0  0  0  0  0  0  0
  -30.3186  -24.1807   21.0118 N   0  0  0  0  0  0  0  0  0  0  0  0
  -28.0433  -18.8588   23.4729 N   0  0  0  0  0  0  0  0  0  0  0  0
  -25.0373  -30.4383   22.3523 N   0  0  0  0  0  0  0  0  0  0  0  0
  -26.9905  -22.0359   25.3186 N   0  0  0  0  0  0  0  0  0  0  0  0
  -29.9523  -19.7717   22.4084 N   0  0  0  0  0  0  0  0  0  0  0  0
  -28.9575  -16.1779   19.8607 N   0  0  0  0  0  0  0  0  0  0  0  0
  -25.5010  -32.8591   19.6651 N   0  0  0  0  0  0  0  0  0  0  0  0
  -24.1868  -29.6471   25.5317 N   0  0  0  0  0  0  0  0  0  0  0  0
  -27.9491  -23.8346   24.1189 N   0  0  0  0  0  0  0  0  0  0  0  0
  -30.7777  -23.1953   23.4853 N   0  3  0  0  0  0  0  0  0  0  0  0
  -22.3684  -26.5494   25.9383 N   0  3  0  0  0  0  0  0  0  0  0  0
  -30.4164  -17.9275   20.1236 O   0  0  0  0  0  0  0  0  0  0  0  0
  -26.7965  -32.0411   21.4186 O   0  0  0  0  0  0  0  0  0  0  0  0
  -23.8465  -31.8695   23.7558 O   0  0  0  0  0  0  0  0  0  0  0  0
  -24.9176  -27.4735   25.1872 O   0  0  0  0  0  0  0  0  0  0  0  0
  -27.2813  -24.1198   26.2936 O   0  0  0  0  0  0  0  0  0  0  0  0
  -24.7430  -12.6273   20.6769 O   0  0  0  0  0  0  0  0  0  0  0  0
  -27.8221  -25.9028   19.2334 O   0  0  0  0  0  0  0  0  0  1  0  0
  -23.3134   -8.9608   24.5393 F   0  0  0  0  0  0  0  0  0  0  0  0
  -23.1086  -13.3526   22.7854 F   0  0  0  0  0  0  0  0  0  0  0  0
  1  2  1  0  0  0  0
  1  5  2  0  0  0  0
  2  6  2  0  0  0  0
  3  8  2  0  0  0  0
  3 15  1  0  0  0  0
  4  9  1  0  0  0  0
  4 15  2  0  0  0  0
  5 17  1  0  0  0  0
  6 19  1  0  0  0  0
  7 10  2  0  0  0  0
  7 18  1  0  0  0  0
  8 21  1  0  0  0  0
  9 21  2  0  0  0  0
 10 22  1  0  0  0  0
 11 12  2  0  0  0  0
 11 23  1  0  0  0  0
 12 24  1  0  0  0  0
 13 20  1  0  0  0  0
 13 22  2  0  0  0  0
 14 24  2  0  0  0  0
 14 25  1  0  0  0  0
 15 26  1  0  0  0  0
 16 26  1  0  0  0  0
 16 27  2  0  0  0  0
 16 31  1  0  0  0  0
 17 19  2  0  0  0  0
 17 36  1  0  0  0  0
 18 20  2  0  0  0  0
 18 37  1  0  0  0  0
 19 45  1  0  0  0  0
 20 38  1  0  0  0  0
 21 89  1  0  0  0  0
 22 90  1  0  0  0  0
 23 25  2  0  0  0  0
 23 89  1  0  0  0  0
 24 91  1  0  0  0  0
 25 92  1  0  0  0  0
 26 70  2  0  0  0  0
 27 74  1  0  0  0  0
 27 77  1  0  0  0  0
 28 48  1  0  0  0  0
 28 71  2  0  0  0  0
 28 72  1  0  0  0  0
 29 65  1  0  0  0  0
 29 71  1  0  0  0  0
 29 73  2  0  0  0  0
 30 66  1  0  0  0  0
 30 72  2  0  0  0  0
 30 73  1  0  0  0  0
 31 78  1  0  0  0  0
 31 84  2  0  0  0  0
 32 46  1  0  0  0  0
 32 79  1  0  0  0  0
 32 85  2  0  0  0  0
 33 63  1  0  0  0  0
 33 75  1  0  0  0  0
 33 86  2  0  0  0  0
 34 64  1  0  0  0  0
 34 80  1  0  0  0  0
 34 87  2  0  0  0  0
 35 76  1  0  0  0  0
 35 81  1  0  0  0  0
 35 88  2  0  0  0  0
 36 39  1  0  0  0  0
 37 46  1  0  0  0  0
 38 75  1  0  0  0  0
 39 41  1  0  0  0  0
 40 42  1  0  0  0  0
 40 43  1  0  0  0  0
 41 45  1  0  0  0  0
 42 47  1  0  0  0  0
 43 76  1  0  0  0  0
 44 47  1  0  0  0  0
 44 76  1  0  0  0  0
 45 79  1  0  0  0  0
 46 75  1  0  0  0  0
 47 74  1  0  0  0  0
 49 64  1  0  0  0  0
 50 65  1  0  0  0  0
 51 65  1  0  0  0  0
 52 66  1  0  0  0  0
 53 67  1  0  0  0  0
 54 67  1  0  0  0  0
 55 67  1  0  0  0  0
 56 68  1  0  0  0  0
 57 68  1  0  0  0  0
 58 69  1  0  0  0  0
 59 69  1  0  0  0  0
 60 83  1  0  0  0  0
 61 68  1  0  0  0  0
 61 81  1  0  0  0  0
 62 69  1  0  0  0  0
 62 90  1  0  0  0  0
 63 67  1  0  0  0  0
 63 80  1  0  0  0  0
 64 83  1  0  0  0  0
 65 69  1  0  0  0  0
 66 68  1  0  0  0  0
 66 82  1  0  0  0  0
 70 74  1  0  0  0  0
M  CHG  2  82   1  83   1
M  ISO  4  35 100  62 101  81 100  90 101
M  END
> <Batch ID>
0066

> <Smiles>
CNC(C)C(=O)NC(C(=O)N1Cc2cc([101O:1][101CH2:1]C(C)(C)C(C)(C)c3nc(C)nc(C(C)(N)C(C)(C)C[100NH:0][100C:0](=O)N4CCCC(n5nc(-c6ccc(Oc7ccc(F)cc7F)cc6)c(C(N)=O)c5N)C4)n3)ccc2CC1C(=O)NC1CCCc2ccccc21)C(C)(C)C

> <Shape>
0.224

> <Color>
0.086

> <Negative vol penalty>
0.000

$$$$

  -OEChem-04052318093D

 92100  0     1  0  0  0  0  0999 V2000
  -27.8401  -35.2030   24.4341 C   0  0  0  0  0  0  0  0  0  0  0  0
  -28.0208  -33.8566   24.1342 C   0  0  0  0  0  0  0  0  0  0  0  0
  -27.6701  -12.0284   18.6650 C   0  0  0  0  0  0  0  0  0  0  0  0
  -28.7381  -13.2540   20.4523 C   0  0  0  0  0  0  0  0  0  0  0  0
  -26.5562  -35.7013   24.6515 C   0  0  0  0  0  0  0  0  0  0  0  0
  -26.9178  -33.0075   24.0525 C   0  0  0  0  0  0  0  0  0  0  0  0
  -27.1108  -29.9548   20.0165 C   0  0  0  0  0  0  0  0  0  0  0  0
  -28.9154  -11.7925   18.0826 C   0  0  0  0  0  0  0  0  0  0  0  0
  -29.9834  -13.0181   19.8699 C   0  0  0  0  0  0  0  0  0  0  0  0
  -27.9503  -28.8446   20.0975 C   0  0  0  0  0  0  0  0  0  0  0  0
  -33.4118  -13.0467   18.6637 C   0  0  0  0  0  0  0  0  0  0  0  0
  -34.3017  -14.1176   18.5800 C   0  0  0  0  0  0  0  0  0  0  0  0
  -26.0473  -27.4497   20.5993 C   0  0  0  0  0  0  0  0  0  0  0  0
  -32.7081  -15.3367   17.2341 C   0  0  0  0  0  0  0  0  0  0  0  0
  -27.3547  -22.1289   16.2382 C   0  0  0  0  0  0  0  0  0  0  0  0
  -27.5814  -12.7592   19.8498 C   0  0  0  0  0  0  0  0  0  0  0  0
  -25.6333  -12.1997   21.3988 C   0  0  0  0  0  0  0  0  0  0  0  0
  -25.4360  -34.8599   24.5629 C   0  0  0  0  0  0  0  0  0  0  0  0
  -25.7324  -29.8224   20.2375 C   0  0  0  0  0  0  0  0  0  0  0  0
  -25.6178  -33.4947   24.2702 C   0  0  0  0  0  0  0  0  0  0  0  0
  -25.1921  -28.5592   20.5181 C   0  0  0  0  0  0  0  0  0  0  0  0
  -30.0721  -12.2874   18.6851 C   0  0  0  0  0  0  0  0  0  0  0  0
  -27.4190  -27.5923   20.3917 C   0  0  0  0  0  0  0  0  0  0  0  0
  -32.1701  -13.1208   18.0325 C   0  0  0  0  0  0  0  0  0  0  0  0
  -33.9499  -15.2625   17.8652 C   0  0  0  0  0  0  0  0  0  0  0  0
  -31.8183  -14.2658   17.3178 C   0  0  0  0  0  0  0  0  0  0  0  0
  -26.2953  -13.0037   20.4516 C   0  0  0  0  0  0  0  0  0  0  0  0
  -27.6746  -22.1887   17.5652 C   0  0  0  0  0  0  0  0  0  0  0  0
  -24.4564  -12.8622   21.6489 C   0  0  0  0  0  0  0  0  0  0  0  0
  -25.7407  -21.1284   17.3759 C   0  0  0  0  0  0  0  0  0  0  0  0
  -26.0454  -10.9646   21.9990 C   0  0  0  0  0  0  0  0  0  0  0  0
  -23.6776  -30.9976   22.3589 C   0  0  0  0  0  0  0  0  0  0  0  0
  -21.4891  -29.5155   20.4785 C   0  0  0  0  0  0  0  0  0  0  0  0
  -20.8096  -27.0632   18.2044 C   0  0  0  0  0  0  0  0  0  0  0  0
  -25.4743  -17.3084   18.7480 C   0  0  0  0  0  0  0  0  0  0  0  0
  -24.0719  -35.4343   24.8525 C   0  0  0  0  0  0  0  0  0  0  0  0
  -24.8367  -31.0250   20.1202 C   0  0  0  0  0  0  0  0  0  0  0  0
  -23.7163  -28.3602   20.7436 C   0  0  0  0  0  0  0  0  0  0  0  0
  -22.9241  -34.5467   24.3783 C   0  0  0  0  0  0  0  0  0  0  0  0
  -22.6576  -15.0298   18.3251 C   0  0  0  0  0  0  0  0  0  0  0  0
  -23.1646  -33.0977   24.7897 C   0  0  0  0  0  0  0  0  0  0  0  0
  -22.3028  -14.6959   19.7696 C   0  0  0  0  0  0  0  0  0  0  0  0
  -23.1371  -16.4706   18.1720 C   0  0  0  0  0  0  0  0  0  0  0  0
  -23.9588  -16.4773   20.5186 C   0  0  0  0  0  0  0  0  0  0  0  0
  -24.4441  -32.5472   24.1483 C   0  0  1  0  0  0  0  0  0  0  0  0
  -23.5184  -30.8637   20.8709 C   0  0  1  0  0  0  0  0  0  0  0  0
  -23.4159  -15.0586   20.7652 C   0  0  2  0  0  0  0  0  0  0  0  0
  -18.9221  -26.0731   16.8798 C   0  0  0  0  0  0  0  0  0  0  0  0
  -27.7311  -19.1340   17.9794 C   0  0  0  0  0  0  0  0  0  0  0  0
  -27.4938  -17.0829   16.5441 C   0  0  0  0  0  0  0  0  0  0  0  0
  -23.1542  -21.1019   17.2993 C   0  0  0  0  0  0  0  0  0  0  0  0
  -24.3714  -20.2383   19.2813 C   0  0  0  0  0  0  0  0  0  0  0  0
  -20.4652  -28.1154   22.9887 C   0  0  0  0  0  0  0  0  0  0  0  0
  -19.2736  -26.4848   21.5089 C   0  0  0  0  0  0  0  0  0  0  0  0
  -18.6751  -28.9053   21.4311 C   0  0  0  0  0  0  0  0  0  0  0  0
  -31.0351  -24.9686   18.4072 C   0  0  0  0  0  0  0  0  0  0  0  0
  -30.1920  -24.2739   20.6418 C   0  0  0  0  0  0  0  0  0  0  0  0
  -29.0657  -27.3433   18.4081 C   0  0  0  0  0  0  0  0  0  0  0  0
  -30.4877  -27.2686   20.4574 C   0  0  0  0  0  0  0  0  0  0  0  0
  -25.4474  -21.1824   14.9169 C   0  0  0  0  0  0  0  0  0  0  0  0
  -22.1157  -27.7220   15.6317 C   0  0  0  0  0  0  0  0  0  0  0  0
  -28.8635  -22.7872   18.2790 C   0  0  0  0  0  0  0  0  0  0  0  0
  -28.6081  -24.2564   18.6540 C   0  0  0  0  0  0  0  0  0  0  0  0
  -24.4430  -18.9500   17.1250 C   0  0  0  0  0  0  0  0  0  0  0  0
  -20.8707  -28.1389   20.4390 C   0  0  1  0  0  0  0  0  0  0  0  0
  -20.0520  -27.0910   16.8892 C   0  0  2  0  0  0  0  0  0  0  0  0
  -26.8394  -18.3804   17.0006 C   0  0  0  0  0  0  0  0  0  0  0  0
  -24.4949  -20.4027   17.7284 C   0  0  0  0  0  0  0  0  0  0  0  0
  -19.8493  -27.9148   21.5897 C   0  0  0  0  0  0  0  0  0  0  0  0
  -29.7953  -25.0087   19.3363 C   0  0  0  0  0  0  0  0  0  0  0  0
  -29.4091  -26.5159   19.6590 C   0  0  0  0  0  0  0  0  0  1  0  0
  -25.5969  -14.0936   20.1222 N   0  0  0  0  0  0  0  0  0  0  0  0
  -26.1536  -21.4672   16.1502 N   0  0  0  0  0  0  0  0  0  0  0  0
  -24.4838  -13.9790   20.8665 N   0  0  0  0  0  0  0  0  0  0  0  0
  -26.6585  -21.5623   18.2457 N   0  3  0  0  0  0  0  0  0  0  0  0
  -22.8826  -29.5678   20.6244 N   0  0  0  0  0  0  0  0  0  0  0  0
  -24.2190  -16.7925   19.1114 N   0  0  0  0  0  0  0  0  0  0  0  0
  -23.4111  -12.5925   22.4594 N   0  0  0  0  0  0  0  0  0  0  0  0
  -27.2840  -10.4227   21.6295 N   0  0  0  0  0  0  0  0  0  0  0  0
  -24.2087  -32.2082   22.7612 N   0  0  0  0  0  0  0  0  0  0  0  0
  -20.3084  -27.9822   19.1020 N   0  0  0  0  0  0  0  0  0  0  0  0
  -25.5398  -18.1086   17.5985 N   0  0  0  0  0  0  0  0  0  0  0  0
  -20.9700  -26.7845   15.7560 N   0  3  0  0  0  0  0  0  0  0  0  0
  -25.3289  -10.3509   22.8258 O   0  0  0  0  0  0  0  0  0  0  0  0
  -23.3420  -30.0718   23.0883 O   0  0  0  0  0  0  0  0  0  0  0  0
  -20.7633  -30.5076   20.3762 O   0  0  0  0  0  0  0  0  0  0  0  0
  -21.7494  -26.2999   18.4157 O   0  0  0  0  0  0  0  0  0  0  0  0
  -26.4906  -17.0644   19.4121 O   0  0  0  0  0  0  0  0  0  0  0  0
  -31.2874  -12.0572   18.1172 O   0  0  0  0  0  0  0  0  0  0  0  0
  -28.2363  -26.5072   20.4720 O   0  0  0  0  0  0  0  0  0  1  0  0
  -34.8039  -16.2914   17.7862 F   0  0  0  0  0  0  0  0  0  0  0  0
  -30.6263  -14.3432   16.7103 F   0  0  0  0  0  0  0  0  0  0  0  0
  1  2  1  0  0  0  0
  1  5  2  0  0  0  0
  2  6  2  0  0  0  0
  3  8  2  0  0  0  0
  3 16  1  0  0  0  0
  4  9  1  0  0  0  0
  4 16  2  0  0  0  0
  5 18  1  0  0  0  0
  6 20  1  0  0  0  0
  7 10  2  0  0  0  0
  7 19  1  0  0  0  0
  8 22  1  0  0  0  0
  9 22  2  0  0  0  0
 10 23  1  0  0  0  0
 11 12  2  0  0  0  0
 11 24  1  0  0  0  0
 12 25  1  0  0  0  0
 13 21  1  0  0  0  0
 13 23  2  0  0  0  0
 14 25  2  0  0  0  0
 14 26  1  0  0  0  0
 15 28  2  0  0  0  0
 15 73  1  0  0  0  0
 16 27  1  0  0  0  0
 17 27  1  0  0  0  0
 17 29  2  0  0  0  0
 17 31  1  0  0  0  0
 18 20  2  0  0  0  0
 18 36  1  0  0  0  0
 19 21  2  0  0  0  0
 19 37  1  0  0  0  0
 20 45  1  0  0  0  0
 21 38  1  0  0  0  0
 22 89  1  0  0  0  0
 23 90  1  0  0  0  0
 24 26  2  0  0  0  0
 24 89  1  0  0  0  0
 25 91  1  0  0  0  0
 26 92  1  0  0  0  0
 27 72  2  0  0  0  0
 28 62  1  0  0  0  0
 28 75  1  0  0  0  0
 29 74  1  0  0  0  0
 29 78  1  0  0  0  0
 30 68  1  0  0  0  0
 30 73  1  0  0  0  0
 30 75  2  0  0  0  0
 31 79  1  0  0  0  0
 31 84  2  0  0  0  0
 32 46  1  0  0  0  0
 32 80  1  0  0  0  0
 32 85  2  0  0  0  0
 33 65  1  0  0  0  0
 33 76  1  0  0  0  0
 33 86  2  0  0  0  0
 34 66  1  0  0  0  0
 34 81  1  0  0  0  0
 34 87  2  0  0  0  0
 35 77  1  0  0  0  0
 35 82  1  0  0  0  0
 35 88  2  0  0  0  0
 36 39  1  0  0  0  0
 37 46  1  0  0  0  0
 38 76  1  0  0  0  0
 39 41  1  0  0  0  0
 40 42  1  0  0  0  0
 40 43  1  0  0  0  0
 41 45  1  0  0  0  0
 42 47  1  0  0  0  0
 43 77  1  0  0  0  0
 44 47  1  0  0  0  0
 44 77  1  0  0  0  0
 45 80  1  0  0  0  0
 46 76  1  0  0  0  0
 47 74  1  0  0  0  0
 48 66  1  0  0  0  0
 49 67  1  0  0  0  0
 50 67  1  0  0  0  0
 51 68  1  0  0  0  0
 52 68  1  0  0  0  0
 53 69  1  0  0  0  0
 54 69  1  0  0  0  0
 55 69  1  0  0  0  0
 56 70  1  0  0  0  0
 57 70  1  0  0  0  0
 58 71  1  0  0  0  0
 59 71  1  0  0  0  0
 60 73  1  0  0  0  0
 61 83  1  0  0  0  0
 62 63  1  0  0  0  0
 63 70  1  0  0  0  0
 64 68  1  0  0  0  0
 64 82  1  0  0  0  0
 65 69  1  0  0  0  0
 65 81  1  0  0  0  0
 66 83  1  0  0  0  0
 67 82  1  0  0  0  0
 70 71  1  0  0  0  0
 71 90  1  0  0  0  0
 72 74  1  0  0  0  0
M  CHG  2  75   1  83   1
M  ISO  4  35 100  71 101  82 100  90 101
M  END
> <Batch ID>
0066

> <Smiles>
CNC(C)C(=O)NC(C(=O)N1Cc2cc([101O:1][101C:1](C)(C)C(C)(C)CCc3cn(C)c(C(C)(C)C[100N:0](C(C)C)[100C:0](=O)N4CCCC(n5nc(-c6ccc(Oc7ccc(F)cc7F)cc6)c(C(N)=O)c5N)C4)n3)ccc2CC1C(=O)NC1CCCc2ccccc21)C(C)(C)C

> <Shape>
0.282

> <Color>
0.073

> <Negative vol penalty>
0.000

$$$$

  -OEChem-04052318093D

 89 97  0     1  0  0  0  0  0999 V2000
  -26.4485  -28.7665   24.0060 C   0  0  0  0  0  0  0  0  0  0  0  0
  -26.6443  -27.5073   23.4478 C   0  0  0  0  0  0  0  0  0  0  0  0
  -23.1715   -9.9351   19.8310 C   0  0  0  0  0  0  0  0  0  0  0  0
  -23.8286   -9.7829   22.1509 C   0  0  0  0  0  0  0  0  0  0  0  0
  -25.9242  -29.7984   23.2287 C   0  0  0  0  0  0  0  0  0  0  0  0
  -26.3147  -27.2790   22.1123 C   0  0  0  0  0  0  0  0  0  0  0  0
  -29.8902  -24.6744   19.6470 C   0  0  0  0  0  0  0  0  0  0  0  0
  -22.4422   -8.7532   19.9599 C   0  0  0  0  0  0  0  0  0  0  0  0
  -23.0991   -8.6010   22.2799 C   0  0  0  0  0  0  0  0  0  0  0  0
  -29.9381  -23.2978   19.8630 C   0  0  0  0  0  0  0  0  0  0  0  0
  -19.8652   -7.7020   22.6726 C   0  0  0  0  0  0  0  0  0  0  0  0
  -19.0581   -7.5602   23.8013 C   0  0  0  0  0  0  0  0  0  0  0  0
  -28.7652  -22.9372   17.7861 C   0  0  0  0  0  0  0  0  0  0  0  0
  -20.3068   -5.5955   24.4476 C   0  0  0  0  0  0  0  0  0  0  0  0
  -29.7831  -17.1568   19.2581 C   0  0  0  0  0  0  0  0  0  0  0  0
  -23.8648  -10.4500   20.9265 C   0  0  0  0  0  0  0  0  0  0  0  0
  -24.1575  -12.9827   21.0107 C   0  0  0  0  0  0  0  0  0  0  0  0
  -25.5971  -29.5852   21.8803 C   0  0  0  0  0  0  0  0  0  0  0  0
  -29.2687  -25.1940   18.5024 C   0  0  0  0  0  0  0  0  0  0  0  0
  -25.7843  -28.3087   21.3166 C   0  0  0  0  0  0  0  0  0  0  0  0
  -28.7130  -24.3206   17.5567 C   0  0  0  0  0  0  0  0  0  0  0  0
  -22.4059   -8.0861   21.1844 C   0  0  0  0  0  0  0  0  0  0  0  0
  -29.3730  -22.4292   18.9339 C   0  0  0  0  0  0  0  0  0  0  0  0
  -20.8931   -6.7904   22.4313 C   0  0  0  0  0  0  0  0  0  0  0  0
  -19.2789   -6.5070   24.6888 C   0  0  0  0  0  0  0  0  0  0  0  0
  -21.1139   -5.7372   23.3188 C   0  0  0  0  0  0  0  0  0  0  0  0
  -24.6189  -11.6706   20.7937 C   0  0  0  0  0  0  0  0  0  0  0  0
  -29.8473  -18.0958   20.2486 C   0  0  0  0  0  0  0  0  0  0  0  0
  -25.2484  -13.7770   20.7547 C   0  0  0  0  0  0  0  0  0  0  0  0
  -31.6991  -16.8858   20.3333 C   0  0  0  0  0  0  0  0  0  0  0  0
  -22.8589  -13.4425   21.4081 C   0  0  0  0  0  0  0  0  0  0  0  0
  -26.7813  -27.1002   17.9702 C   0  0  0  0  0  0  0  0  0  0  0  0
  -27.7844  -26.9021   14.8917 C   0  0  0  0  0  0  0  0  0  0  0  0
  -29.4948  -25.1582   12.5084 C   0  0  0  0  0  0  0  0  0  0  0  0
  -30.7935  -13.9721   21.4271 C   0  0  0  0  0  0  0  0  0  0  0  0
  -24.9889  -30.7187   21.0929 C   0  0  0  0  0  0  0  0  0  0  0  0
  -29.2489  -26.6801   18.2709 C   0  0  0  0  0  0  0  0  0  0  0  0
  -28.0521  -24.8270   16.3016 C   0  0  0  0  0  0  0  0  0  0  0  0
  -25.0160  -30.4949   19.5831 C   0  0  0  0  0  0  0  0  0  0  0  0
  -29.4598  -13.2293   18.2425 C   0  0  0  0  0  0  0  0  0  0  0  0
  -24.5412  -29.0856   19.2437 C   0  0  0  0  0  0  0  0  0  0  0  0
  -28.0176  -12.8681   18.5952 C   0  0  0  0  0  0  0  0  0  0  0  0
  -30.4559  -12.6830   19.2670 C   0  0  0  0  0  0  0  0  0  0  0  0
  -28.7059  -12.7050   21.0162 C   0  0  0  0  0  0  0  0  0  0  0  0
  -25.4623  -28.0285   19.8647 C   0  0  1  0  0  0  0  0  0  0  0  0
  -28.1377  -27.1226   17.3240 C   0  0  1  0  0  0  0  0  0  0  0  0
  -27.6803  -13.2931   20.0349 C   0  0  2  0  0  0  0  0  0  0  0  0
  -27.7050  -17.6377   22.4203 C   0  0  0  0  0  0  0  0  0  0  0  0
  -26.4572  -20.1140   20.0628 C   0  0  0  0  0  0  0  0  0  0  0  0
  -31.3689  -17.9463   23.3422 C   0  0  0  0  0  0  0  0  0  0  0  0
  -30.1073  -25.2285   10.0758 C   0  0  0  0  0  0  0  0  0  0  0  0
  -34.0212  -17.3930   21.3566 C   0  0  0  0  0  0  0  0  0  0  0  0
  -33.7872  -15.7845   19.4821 C   0  0  0  0  0  0  0  0  0  0  0  0
  -24.9527  -26.0359   14.1561 C   0  0  0  0  0  0  0  0  0  0  0  0
  -25.8461  -25.2217   11.9636 C   0  0  0  0  0  0  0  0  0  0  0  0
  -26.0027  -27.6410   12.5512 C   0  0  0  0  0  0  0  0  0  0  0  0
  -32.9949  -12.9022   20.7834 C   0  0  0  0  0  0  0  0  0  0  0  0
  -32.3892  -25.2410   13.1204 C   0  0  0  0  0  0  0  0  0  0  0  0
  -28.3896  -18.9721   22.1373 C   0  0  0  0  0  0  0  0  0  0  0  0
  -27.5440  -19.0821   19.7729 C   0  0  0  0  0  0  0  0  0  0  0  0
  -31.5272  -18.6827   22.0231 C   0  0  0  0  0  0  0  0  0  0  0  0
  -32.9244  -15.1666   21.7599 C   0  0  0  0  0  0  0  0  0  0  0  0
  -29.4222  -20.6381   20.4977 C   0  0  0  0  0  0  0  0  0  1  0  0
  -27.4988  -25.9794   13.7315 C   0  0  1  0  0  0  0  0  0  0  0  0
  -30.5312  -25.5962   11.4893 C   0  0  2  0  0  0  0  0  0  0  0  0
  -28.8407  -19.1993   20.6512 C   0  0  0  0  0  0  0  0  0  0  0  0
  -33.0259  -16.3512   20.7284 C   0  0  0  0  0  0  0  0  0  0  0  0
  -26.0857  -26.2097   13.1251 C   0  0  0  0  0  0  0  0  0  0  0  0
  -25.9028  -11.6293   20.4279 N   0  0  0  0  0  0  0  0  0  0  0  0
  -31.0430  -17.9046   20.8981 N   0  0  0  0  0  0  0  0  0  0  0  0
  -26.2575  -12.9255   20.4130 N   0  0  0  0  0  0  0  0  0  0  0  0
  -30.9420  -16.4224   19.3336 N   0  3  0  0  0  0  0  0  0  0  0  0
  -28.0525  -26.2885   16.1235 N   0  0  0  0  0  0  0  0  0  0  0  0
  -30.0708  -13.0716   20.6306 N   0  0  0  0  0  0  0  0  0  0  0  0
  -25.4333  -15.1138   20.7908 N   0  0  0  0  0  0  0  0  0  0  0  0
  -21.8527  -12.4924   21.6300 N   0  0  0  0  0  0  0  0  0  0  0  0
  -26.6790  -27.9013   19.0914 N   0  0  0  0  0  0  0  0  0  0  0  0
  -28.5929  -26.1641   12.7842 N   0  0  0  0  0  0  0  0  0  0  0  0
  -32.1816  -14.0307   21.2323 N   0  0  0  0  0  0  0  0  0  0  0  0
  -31.8420  -24.9456   11.7712 N   0  3  0  0  0  0  0  0  0  0  0  0
  -22.5940  -14.6609   21.5461 O   0  0  0  0  0  0  0  0  0  0  0  0
  -25.8930  -26.4085   17.4864 O   0  0  0  0  0  0  0  0  0  0  0  0
  -27.7771  -28.1222   14.7101 O   0  0  0  0  0  0  0  0  0  0  0  0
  -29.4840  -24.0349   13.0069 O   0  0  0  0  0  0  0  0  0  0  0  0
  -30.2313  -14.6802   22.2725 O   0  0  0  0  0  0  0  0  0  0  0  0
  -21.6941   -6.9329   21.3107 O   0  0  0  0  0  0  0  0  0  0  0  0
  -29.4179  -21.0852   19.1425 O   0  0  0  0  0  0  0  0  0  1  0  0
  -18.5047   -6.3720   25.7735 F   0  0  0  0  0  0  0  0  0  0  0  0
  -22.1006   -4.8590   23.0929 F   0  0  0  0  0  0  0  0  0  0  0  0
  1  2  1  0  0  0  0
  1  5  2  0  0  0  0
  2  6  2  0  0  0  0
  3  8  2  0  0  0  0
  3 16  1  0  0  0  0
  4  9  1  0  0  0  0
  4 16  2  0  0  0  0
  5 18  1  0  0  0  0
  6 20  1  0  0  0  0
  7 10  2  0  0  0  0
  7 19  1  0  0  0  0
  8 22  1  0  0  0  0
  9 22  2  0  0  0  0
 10 23  1  0  0  0  0
 11 12  2  0  0  0  0
 11 24  1  0  0  0  0
 12 25  1  0  0  0  0
 13 21  1  0  0  0  0
 13 23  2  0  0  0  0
 14 25  2  0  0  0  0
 14 26  1  0  0  0  0
 15 28  2  0  0  0  0
 15 72  1  0  0  0  0
 16 27  1  0  0  0  0
 17 27  1  0  0  0  0
 17 29  2  0  0  0  0
 17 31  1  0  0  0  0
 18 20  2  0  0  0  0
 18 36  1  0  0  0  0
 19 21  2  0  0  0  0
 19 37  1  0  0  0  0
 20 45  1  0  0  0  0
 21 38  1  0  0  0  0
 22 86  1  0  0  0  0
 23 87  1  0  0  0  0
 24 26  2  0  0  0  0
 24 86  1  0  0  0  0
 25 88  1  0  0  0  0
 26 89  1  0  0  0  0
 27 69  2  0  0  0  0
 28 66  1  0  0  0  0
 28 70  1  0  0  0  0
 29 71  1  0  0  0  0
 29 75  1  0  0  0  0
 30 67  1  0  0  0  0
 30 70  1  0  0  0  0
 30 72  2  0  0  0  0
 31 76  1  0  0  0  0
 31 81  2  0  0  0  0
 32 46  1  0  0  0  0
 32 77  1  0  0  0  0
 32 82  2  0  0  0  0
 33 64  1  0  0  0  0
 33 73  1  0  0  0  0
 33 83  2  0  0  0  0
 34 65  1  0  0  0  0
 34 78  1  0  0  0  0
 34 84  2  0  0  0  0
 35 74  1  0  0  0  0
 35 79  1  0  0  0  0
 35 85  2  0  0  0  0
 36 39  1  0  0  0  0
 37 46  1  0  0  0  0
 38 73  1  0  0  0  0
 39 41  1  0  0  0  0
 40 42  1  0  0  0  0
 40 43  1  0  0  0  0
 41 45  1  0  0  0  0
 42 47  1  0  0  0  0
 43 74  1  0  0  0  0
 44 47  1  0  0  0  0
 44 74  1  0  0  0  0
 45 77  1  0  0  0  0
 46 73  1  0  0  0  0
 47 71  1  0  0  0  0
 48 59  1  0  0  0  0
 49 60  1  0  0  0  0
 50 61  1  0  0  0  0
 51 65  1  0  0  0  0
 52 67  1  0  0  0  0
 53 67  1  0  0  0  0
 54 68  1  0  0  0  0
 55 68  1  0  0  0  0
 56 68  1  0  0  0  0
 57 79  1  0  0  0  0
 58 80  1  0  0  0  0
 59 66  1  0  0  0  0
 60 66  1  0  0  0  0
 61 70  1  0  0  0  0
 62 67  1  0  0  0  0
 62 79  1  0  0  0  0
 63 66  1  0  0  0  0
 63 87  1  0  0  0  0
 64 68  1  0  0  0  0
 64 78  1  0  0  0  0
 65 80  1  0  0  0  0
 69 71  1  0  0  0  0
M  CHG  2  72   1  80   1
M  ISO  4  35 100  63 101  79 100  87 101
M  END
> <Batch ID>
0066

> <Smiles>
CCn1c(C(CC)(CC)[101CH2:1][101O:1]c2ccc3c(c2)CN(C(=O)C(NC(=O)C(C)NC)C(C)(C)C)C(C(=O)NC2CCCc4ccccc42)C3)cnc1C(C)(C)C[100N:0](C)[100C:0](=O)N1CCCC(n2nc(-c3ccc(Oc4ccc(F)cc4F)cc3)c(C(N)=O)c2N)C1

> <Shape>
0.298

> <Color>
0.175

> <Negative vol penalty>
0.000

$$$$

  -OEChem-04052318093D

 94102  0     1  0  0  0  0  0999 V2000
  -28.0856  -34.7191   24.0730 C   0  0  0  0  0  0  0  0  0  0  0  0
  -28.3030  -33.3523   24.2142 C   0  0  0  0  0  0  0  0  0  0  0  0
  -24.1242   -9.9235   22.5585 C   0  0  0  0  0  0  0  0  0  0  0  0
  -24.4623  -11.6586   24.2053 C   0  0  0  0  0  0  0  0  0  0  0  0
  -26.8794  -35.1814   23.5483 C   0  0  0  0  0  0  0  0  0  0  0  0
  -27.3138  -32.4470   23.8316 C   0  0  0  0  0  0  0  0  0  0  0  0
  -29.1670  -28.5498   21.1816 C   0  0  0  0  0  0  0  0  0  0  0  0
  -23.6906   -9.0563   23.5612 C   0  0  0  0  0  0  0  0  0  0  0  0
  -24.0286  -10.7914   25.2081 C   0  0  0  0  0  0  0  0  0  0  0  0
  -29.8052  -27.5386   21.8983 C   0  0  0  0  0  0  0  0  0  0  0  0
  -21.0848   -9.6244   26.3881 C   0  0  0  0  0  0  0  0  0  0  0  0
  -20.1838  -10.1230   27.3290 C   0  0  0  0  0  0  0  0  0  0  0  0
  -27.8057  -26.1951   21.7717 C   0  0  0  0  0  0  0  0  0  0  0  0
  -21.7644   -9.6493   29.0937 C   0  0  0  0  0  0  0  0  0  0  0  0
  -29.7299  -18.7220   21.6502 C   0  0  0  0  0  0  0  0  0  0  0  0
  -24.5102  -11.2247   22.8806 C   0  0  0  0  0  0  0  0  0  0  0  0
  -24.1687  -13.0003   21.0811 C   0  0  0  0  0  0  0  0  0  0  0  0
  -25.8787  -34.2810   23.1501 C   0  0  0  0  0  0  0  0  0  0  0  0
  -27.8375  -28.3955   20.7632 C   0  0  0  0  0  0  0  0  0  0  0  0
  -26.0926  -32.8977   23.3023 C   0  0  0  0  0  0  0  0  0  0  0  0
  -27.1537  -27.2048   21.0475 C   0  0  0  0  0  0  0  0  0  0  0  0
  -29.9878  -19.6677   20.6881 C   0  0  0  0  0  0  0  0  0  0  0  0
  -23.6427   -9.4902   24.8860 C   0  0  0  0  0  0  0  0  0  0  0  0
  -29.1237  -26.3621   22.1960 C   0  0  0  0  0  0  0  0  0  0  0  0
  -22.3256   -9.1382   26.8000 C   0  0  0  0  0  0  0  0  0  0  0  0
  -20.5236  -10.1354   28.6817 C   0  0  0  0  0  0  0  0  0  0  0  0
  -22.6654   -9.1507   28.1528 C   0  0  0  0  0  0  0  0  0  0  0  0
  -24.9588  -12.1208   21.8453 C   0  0  0  0  0  0  0  0  0  0  0  0
  -29.9812  -18.9491   19.4775 C   0  0  0  0  0  0  0  0  0  0  0  0
  -25.0609  -13.6231   20.2429 C   0  0  0  0  0  0  0  0  0  0  0  0
  -22.7547  -13.2335   21.1250 C   0  0  0  0  0  0  0  0  0  0  0  0
  -25.1096  -29.9173   21.3519 C   0  0  0  0  0  0  0  0  0  0  0  0
  -23.9540  -27.9153   19.0762 C   0  0  0  0  0  0  0  0  0  0  0  0
  -30.9711  -14.6120   20.6939 C   0  0  0  0  0  0  0  0  0  0  0  0
  -24.2568  -24.9644   17.3888 C   0  0  0  0  0  0  0  0  0  0  0  0
  -24.5728  -34.8296   22.6323 C   0  0  0  0  0  0  0  0  0  0  0  0
  -27.1719  -29.4848   19.9678 C   0  0  0  0  0  0  0  0  0  0  0  0
  -25.7319  -26.9815   20.6035 C   0  0  0  0  0  0  0  0  0  0  0  0
  -23.7232  -33.7924   21.9023 C   0  0  0  0  0  0  0  0  0  0  0  0
  -29.2428  -12.9395   18.0377 C   0  0  0  0  0  0  0  0  0  0  0  0
  -23.6583  -32.4960   22.7034 C   0  0  0  0  0  0  0  0  0  0  0  0
  -27.8870  -12.5947   18.6527 C   0  0  0  0  0  0  0  0  0  0  0  0
  -30.3629  -12.8499   19.0694 C   0  0  0  0  0  0  0  0  0  0  0  0
  -28.7786  -13.3396   20.9056 C   0  0  0  0  0  0  0  0  0  0  0  0
  -25.0536  -31.8835   22.8756 C   0  0  1  0  0  0  0  0  0  0  0  0
  -25.6489  -29.4299   20.0369 C   0  0  1  0  0  0  0  0  0  0  0  0
  -27.6148  -13.4477   19.9044 C   0  0  2  0  0  0  0  0  0  0  0  0
  -27.7525  -20.0144   17.6029 C   0  0  0  0  0  0  0  0  0  0  0  0
  -27.6813  -21.8297   20.5049 C   0  0  0  0  0  0  0  0  0  0  0  0
  -32.8488  -20.8904   20.9530 C   0  0  0  0  0  0  0  0  0  0  0  0
  -31.4722  -18.8639   17.4625 C   0  0  0  0  0  0  0  0  0  0  0  0
  -23.1401  -23.5871   15.6130 C   0  0  0  0  0  0  0  0  0  0  0  0
  -31.0266  -23.1608   24.2564 C   0  0  0  0  0  0  0  0  0  0  0  0
  -28.9140  -21.0781   23.2086 C   0  0  0  0  0  0  0  0  0  0  0  0
  -28.3285  -16.3920   22.7523 C   0  0  0  0  0  0  0  0  0  0  0  0
  -30.3885  -14.4126   23.0713 C   0  0  0  0  0  0  0  0  0  0  0  0
  -31.7992  -16.2987   22.2222 C   0  0  0  0  0  0  0  0  0  0  0  0
  -21.8029  -27.0867   21.0752 C   0  0  0  0  0  0  0  0  0  0  0  0
  -21.3350  -25.0905   19.6383 C   0  0  0  0  0  0  0  0  0  0  0  0
  -20.9875  -27.3878   18.7303 C   0  0  0  0  0  0  0  0  0  0  0  0
  -26.6418  -25.0748   15.6398 C   0  0  0  0  0  0  0  0  0  0  0  0
  -29.0026  -19.2759   17.1399 C   0  0  0  0  0  0  0  0  0  0  0  0
  -29.1461  -22.0450   20.1257 C   0  0  0  0  0  0  0  0  0  0  0  0
  -31.6451  -21.5971   20.3288 C   0  0  0  0  0  0  0  0  0  0  0  0
  -29.3304  -24.0328   22.6287 C   0  0  0  0  0  0  0  0  0  1  0  0
  -30.2042  -19.4693   18.1172 C   0  0  1  0  0  0  0  0  0  0  0  0
  -23.3422  -26.5352   19.0772 C   0  0  1  0  0  0  0  0  0  0  0  0
  -24.1966  -24.6407   15.9068 C   0  0  2  0  0  0  0  0  0  0  0  0
  -30.5051  -23.0544   22.8105 C   0  0  2  0  0  0  0  0  0  0  0  0
  -30.1764  -21.5576   22.4646 C   0  0  2  0  0  0  0  0  0  0  0  0
  -29.3098  -16.2528   21.5722 C   0  0  2  0  0  0  0  0  0  0  0  0
  -30.2314  -21.1894   20.9022 C   0  0  0  0  0  0  0  0  0  0  0  0
  -30.5835  -15.4054   21.9163 C   0  0  0  0  0  0  0  0  0  0  0  0
  -21.8931  -26.5297   19.6404 C   0  0  0  0  0  0  0  0  0  0  0  0
  -26.2533  -12.1768   21.5212 N   0  0  0  0  0  0  0  0  0  0  0  0
  -29.7384  -17.6473   19.6520 N   0  0  0  0  0  0  0  0  0  0  0  0
  -29.5902  -17.5404   20.9834 N   0  0  0  0  0  0  0  0  0  0  0  0
  -26.2835  -13.0990   20.5441 N   0  0  0  0  0  0  0  0  0  0  0  0
  -25.1223  -28.0786   19.8340 N   0  0  0  0  0  0  0  0  0  0  0  0
  -30.0563  -13.6559   20.2524 N   0  0  0  0  0  0  0  0  0  0  0  0
  -24.9111  -14.5625   19.2850 N   0  0  0  0  0  0  0  0  0  0  0  0
  -21.9862  -12.5083   22.0457 N   0  0  0  0  0  0  0  0  0  0  0  0
  -25.4664  -31.2164   21.6595 N   0  0  0  0  0  0  0  0  0  0  0  0
  -23.4538  -26.0383   17.7100 N   0  0  0  0  0  0  0  0  0  0  0  0
  -25.5143  -24.1296   15.4343 N   0  3  0  0  0  0  0  0  0  0  0  0
  -22.1872  -14.0486   20.3588 O   0  0  0  0  0  0  0  0  0  0  0  0
  -24.4197  -29.1707   22.0361 O   0  0  0  0  0  0  0  0  0  0  0  0
  -23.4191  -28.8134   18.4214 O   0  0  0  0  0  0  0  0  0  0  0  0
  -32.0538  -14.8388   20.1473 O   0  0  0  0  0  0  0  0  0  0  0  0
  -24.9444  -24.3260   18.1826 O   0  0  0  0  0  0  0  0  0  0  0  0
  -23.2194   -8.6443   25.8647 O   0  0  0  0  0  0  0  0  0  0  0  0
  -29.7478  -25.3678   22.9003 O   0  0  0  0  0  0  0  0  0  1  0  0
  -19.6588  -10.6157   29.5850 F   0  0  0  0  0  0  0  0  0  0  0  0
  -23.8565   -8.6861   28.5544 F   0  0  0  0  0  0  0  0  0  0  0  0
  1  2  1  0  0  0  0
  1  5  2  0  0  0  0
  2  6  2  0  0  0  0
  3  8  2  0  0  0  0
  3 16  1  0  0  0  0
  4  9  1  0  0  0  0
  4 16  2  0  0  0  0
  5 18  1  0  0  0  0
  6 20  1  0  0  0  0
  7 10  2  0  0  0  0
  7 19  1  0  0  0  0
  8 23  1  0  0  0  0
  9 23  2  0  0  0  0
 10 24  1  0  0  0  0
 11 12  2  0  0  0  0
 11 25  1  0  0  0  0
 12 26  1  0  0  0  0
 13 21  1  0  0  0  0
 13 24  2  0  0  0  0
 14 26  2  0  0  0  0
 14 27  1  0  0  0  0
 15 22  2  0  0  0  0
 15 77  1  0  0  0  0
 16 28  1  0  0  0  0
 17 28  1  0  0  0  0
 17 30  2  0  0  0  0
 17 31  1  0  0  0  0
 18 20  2  0  0  0  0
 18 36  1  0  0  0  0
 19 21  2  0  0  0  0
 19 37  1  0  0  0  0
 20 45  1  0  0  0  0
 21 38  1  0  0  0  0
 22 29  1  0  0  0  0
 22 72  1  0  0  0  0
 23 91  1  0  0  0  0
 24 92  1  0  0  0  0
 25 27  2  0  0  0  0
 25 91  1  0  0  0  0
 26 93  1  0  0  0  0
 27 94  1  0  0  0  0
 28 75  2  0  0  0  0
 29 66  1  0  0  0  0
 29 76  2  0  0  0  0
 30 78  1  0  0  0  0
 30 81  1  0  0  0  0
 31 82  1  0  0  0  0
 31 86  2  0  0  0  0
 32 46  1  0  0  0  0
 32 83  1  0  0  0  0
 32 87  2  0  0  0  0
 33 67  1  0  0  0  0
 33 79  1  0  0  0  0
 33 88  2  0  0  0  0
 34 73  1  0  0  0  0
 34 80  1  0  0  0  0
 34 89  2  0  0  0  0
 35 68  1  0  0  0  0
 35 84  1  0  0  0  0
 35 90  2  0  0  0  0
 36 39  1  0  0  0  0
 37 46  1  0  0  0  0
 38 79  1  0  0  0  0
 39 41  1  0  0  0  0
 40 42  1  0  0  0  0
 40 43  1  0  0  0  0
 41 45  1  0  0  0  0
 42 47  1  0  0  0  0
 43 80  1  0  0  0  0
 44 47  1  0  0  0  0
 44 80  1  0  0  0  0
 45 83  1  0  0  0  0
 46 79  1  0  0  0  0
 47 78  1  0  0  0  0
 48 62  1  0  0  0  0
 49 63  1  0  0  0  0
 50 64  1  0  0  0  0
 51 66  1  0  0  0  0
 52 68  1  0  0  0  0
 53 69  1  0  0  0  0
 54 70  1  0  0  0  0
 55 71  1  0  0  0  0
 56 73  1  0  0  0  0
 57 73  1  0  0  0  0
 58 74  1  0  0  0  0
 59 74  1  0  0  0  0
 60 74  1  0  0  0  0
 61 85  1  0  0  0  0
 62 66  1  0  0  0  0
 63 72  1  0  0  0  0
 64 72  1  0  0  0  0
 65 69  1  0  0  0  0
 65 92  1  0  0  0  0
 67 74  1  0  0  0  0
 67 84  1  0  0  0  0
 68 85  1  0  0  0  0
 69 70  1  0  0  0  0
 70 72  1  0  0  0  0
 71 73  1  0  0  0  0
 71 77  1  0  0  0  0
 75 78  1  0  0  0  0
 76 77  1  0  0  0  0
M  CHG  1  85   1
M  ISO  4  34 100  65 101  73 100  92 101
M  END
> <Batch ID>
0066

> <Smiles>
CCC(C)c1nn(C(C)[100C:0](C)(C)[100C:0](=O)N2CCCC(n3nc(-c4ccc(Oc5ccc(F)cc5F)cc4)c(C(N)=O)c3N)C2)cc1C(CC)(CC)C(C)C(C)[101CH2:1][101O:1]c1ccc2c(c1)CN(C(=O)C(NC(=O)C(C)NC)C(C)(C)C)C(C(=O)NC1CCCc3ccccc31)C2

> <Shape>
0.287

> <Color>
0.104

> <Negative vol penalty>
0.000

$$$$

  -OEChem-04052318093D

 94102  0     1  0  0  0  0  0999 V2000
  -17.0544  -25.3335   23.1597 C   0  0  0  0  0  0  0  0  0  0  0  0
  -18.2718  -25.1228   22.5201 C   0  0  0  0  0  0  0  0  0  0  0  0
  -22.4304  -10.6476   22.3299 C   0  0  0  0  0  0  0  0  0  0  0  0
  -22.6098  -10.3842   19.9350 C   0  0  0  0  0  0  0  0  0  0  0  0
  -16.5878  -26.6323   23.3576 C   0  0  0  0  0  0  0  0  0  0  0  0
  -19.0227  -26.2110   22.0769 C   0  0  0  0  0  0  0  0  0  0  0  0
  -23.9392  -25.7678   23.2068 C   0  0  0  0  0  0  0  0  0  0  0  0
  -21.8119   -9.4007   22.4207 C   0  0  0  0  0  0  0  0  0  0  0  0
  -21.9913   -9.1372   20.0258 C   0  0  0  0  0  0  0  0  0  0  0  0
  -24.7034  -24.9225   22.4035 C   0  0  0  0  0  0  0  0  0  0  0  0
  -22.7435   -6.1504   22.3961 C   0  0  0  0  0  0  0  0  0  0  0  0
  -23.1728   -5.2857   23.4028 C   0  0  0  0  0  0  0  0  0  0  0  0
  -25.5340  -26.8354   21.1911 C   0  0  0  0  0  0  0  0  0  0  0  0
  -20.9430   -5.2614   24.3327 C   0  0  0  0  0  0  0  0  0  0  0  0
  -22.8293  -11.1394   21.0870 C   0  0  0  0  0  0  0  0  0  0  0  0
  -24.8469  -12.7003   21.0656 C   0  0  0  0  0  0  0  0  0  0  0  0
  -17.3380  -27.7373   22.9253 C   0  0  0  0  0  0  0  0  0  0  0  0
  -23.9583  -27.1547   23.0008 C   0  0  0  0  0  0  0  0  0  0  0  0
  -18.5650  -27.5258   22.2680 C   0  0  0  0  0  0  0  0  0  0  0  0
  -24.7711  -27.6964   21.9948 C   0  0  0  0  0  0  0  0  0  0  0  0
  -21.5924   -8.6454   21.2687 C   0  0  0  0  0  0  0  0  0  0  0  0
  -25.4988  -25.4560   21.3937 C   0  0  0  0  0  0  0  0  0  0  0  0
  -21.4140   -6.5707   22.3577 C   0  0  0  0  0  0  0  0  0  0  0  0
  -22.2726   -4.8411   24.3711 C   0  0  0  0  0  0  0  0  0  0  0  0
  -20.5138   -6.1261   23.3260 C   0  0  0  0  0  0  0  0  0  0  0  0
  -23.4677  -12.4276   20.9925 C   0  0  0  0  0  0  0  0  0  0  0  0
  -24.9355  -14.0633   20.9214 C   0  0  0  0  0  0  0  0  0  0  0  0
  -23.8205  -18.1451   16.3647 C   0  0  0  0  0  0  0  0  0  0  0  0
  -24.8735  -19.0436   14.8022 C   0  0  0  0  0  0  0  0  0  0  0  0
  -25.9493  -11.8019   21.2474 C   0  0  0  0  0  0  0  0  0  0  0  0
  -21.7869  -29.3336   22.2001 C   0  0  0  0  0  0  0  0  0  0  0  0
  -24.2208  -31.4014   22.7681 C   0  0  0  0  0  0  0  0  0  0  0  0
  -27.5865  -31.9312   22.9629 C   0  0  0  0  0  0  0  0  0  0  0  0
  -20.8925  -17.8925   18.3661 C   0  0  0  0  0  0  0  0  0  0  0  0
  -16.7702  -29.1210   23.1194 C   0  0  0  0  0  0  0  0  0  0  0  0
  -23.1487  -28.0551   23.8932 C   0  0  0  0  0  0  0  0  0  0  0  0
  -24.8425  -29.1801   21.7460 C   0  0  0  0  0  0  0  0  0  0  0  0
  -17.8037  -30.2322   22.9540 C   0  0  0  0  0  0  0  0  0  0  0  0
  -22.4842  -18.0903   21.7021 C   0  0  0  0  0  0  0  0  0  0  0  0
  -18.6421  -29.9994   21.7011 C   0  0  0  0  0  0  0  0  0  0  0  0
  -22.9682  -16.6586   21.9256 C   0  0  0  0  0  0  0  0  0  0  0  0
  -21.2590  -18.1396   20.7943 C   0  0  0  0  0  0  0  0  0  0  0  0
  -21.9336  -16.0217   19.7110 C   0  0  0  0  0  0  0  0  0  0  0  0
  -19.4202  -28.6813   21.7951 C   0  0  1  0  0  0  0  0  0  0  0  0
  -22.8486  -29.4104   23.2605 C   0  0  1  0  0  0  0  0  0  0  0  0
  -23.1949  -15.9404   20.5840 C   0  0  2  0  0  0  0  0  0  0  0  0
  -25.4899  -19.4236   13.5185 C   0  0  0  0  0  0  0  0  0  0  0  0
  -24.3748  -15.0964   16.5659 C   0  0  0  0  0  0  0  0  0  0  0  0
  -28.2244  -22.8296   15.3327 C   0  0  0  0  0  0  0  0  0  0  0  0
  -29.2743  -33.7337   23.4097 C   0  0  0  0  0  0  0  0  0  0  0  0
  -23.7327  -32.5456   19.9819 C   0  0  0  0  0  0  0  0  0  0  0  0
  -25.9816  -33.6382   20.1126 C   0  0  0  0  0  0  0  0  0  0  0  0
  -24.1996  -34.2565   21.7452 C   0  0  0  0  0  0  0  0  0  0  0  0
  -28.9518  -18.4827   18.8137 C   0  0  0  0  0  0  0  0  0  0  0  0
  -28.3189  -19.9861   20.7022 C   0  0  0  0  0  0  0  0  0  0  0  0
  -29.7170  -20.8241   18.8344 C   0  0  0  0  0  0  0  0  0  0  0  0
  -28.1571  -19.8642   15.9401 C   0  0  0  0  0  0  0  0  0  0  0  0
  -21.0049  -18.1439   15.9158 C   0  0  0  0  0  0  0  0  0  0  0  0
  -28.6713  -30.4942   25.3118 C   0  0  0  0  0  0  0  0  0  0  0  0
  -23.0039  -15.7580   16.4957 C   0  0  0  0  0  0  0  0  0  0  0  0
  -28.0601  -22.2183   16.7221 C   0  0  0  0  0  0  0  0  0  0  0  0
  -26.7008  -22.5378   19.4850 C   0  0  0  0  0  0  0  0  0  0  0  0
  -26.1880  -21.1169   19.1912 C   0  0  0  0  0  0  0  0  0  0  0  0
  -25.8860  -20.9944   16.1698 C   0  0  0  0  0  0  0  0  0  0  0  0
  -25.7431  -23.3196   20.3779 C   0  0  0  0  0  0  0  0  0  1  0  0
  -22.9608  -17.1982   17.0845 C   0  0  2  0  0  0  0  0  0  0  0  0
  -25.3287  -32.0026   21.9374 C   0  0  1  0  0  0  0  0  0  0  0  0
  -28.4390  -32.6166   24.0155 C   0  0  2  0  0  0  0  0  0  0  0  0
  -27.1851  -20.2669   18.3170 C   0  0  2  0  0  0  0  0  0  0  0  0
  -24.8080  -33.0826   20.9474 C   0  0  0  0  0  0  0  0  0  0  0  0
  -28.5071  -19.9326   19.1669 C   0  0  0  0  0  0  0  0  0  0  0  0
  -27.3081  -20.8420   16.8077 C   0  0  1  0  0  0  0  0  0  0  0  0
  -22.7330  -13.5290   20.8158 N   0  0  0  0  0  0  0  0  0  0  0  0
  -24.0866  -18.0180   15.0314 N   0  0  0  0  0  0  0  0  0  0  0  0
  -24.3933  -19.1848   16.9749 N   0  0  0  0  0  0  0  0  0  0  0  0
  -23.6539  -14.5070   20.7767 N   0  0  0  0  0  0  0  0  0  0  0  0
  -25.0609  -19.7429   15.9536 N   0  0  0  0  0  0  0  0  0  0  0  0
  -24.0278  -30.0185   22.6409 N   0  0  0  0  0  0  0  0  0  0  0  0
  -21.4868  -17.4129   19.5448 N   0  0  0  0  0  0  0  0  0  0  0  0
  -25.9838  -14.9137   20.9057 N   0  0  0  0  0  0  0  0  0  0  0  0
  -25.6807  -10.4326   21.3786 N   0  0  0  0  0  0  0  0  0  0  0  0
  -20.5779  -28.8377   22.6493 N   0  0  0  0  0  0  0  0  0  0  0  0
  -26.3285  -32.4898   22.8816 N   0  0  0  0  0  0  0  0  0  0  0  0
  -21.5753  -17.6559   17.1634 N   0  0  0  0  0  0  0  0  0  0  0  0
  -29.3601  -31.6353   24.6555 N   0  3  0  0  0  0  0  0  0  0  0  0
  -27.1362  -12.2033   21.3086 O   0  0  0  0  0  0  0  0  0  0  0  0
  -22.0450  -29.6987   21.0591 O   0  0  0  0  0  0  0  0  0  0  0  0
  -23.5559  -32.1308   23.5080 O   0  0  0  0  0  0  0  0  0  0  0  0
  -27.9968  -30.9965   22.2785 O   0  0  0  0  0  0  0  0  0  0  0  0
  -19.8178  -18.5062   18.3885 O   0  0  0  0  0  0  0  0  0  0  0  0
  -20.9891   -7.4285   21.3571 O   0  0  0  0  0  0  0  0  0  0  0  0
  -26.2508  -24.6269   20.6018 O   0  0  0  0  0  0  0  0  0  1  0  0
  -22.6846   -4.0095   25.3370 F   0  0  0  0  0  0  0  0  0  0  0  0
  -19.2350   -6.5255   23.2936 F   0  0  0  0  0  0  0  0  0  0  0  0
  1  2  1  0  0  0  0
  1  5  2  0  0  0  0
  2  6  2  0  0  0  0
  3  8  2  0  0  0  0
  3 15  1  0  0  0  0
  4  9  1  0  0  0  0
  4 15  2  0  0  0  0
  5 17  1  0  0  0  0
  6 19  1  0  0  0  0
  7 10  2  0  0  0  0
  7 18  1  0  0  0  0
  8 21  1  0  0  0  0
  9 21  2  0  0  0  0
 10 22  1  0  0  0  0
 11 12  2  0  0  0  0
 11 23  1  0  0  0  0
 12 24  1  0  0  0  0
 13 20  1  0  0  0  0
 13 22  2  0  0  0  0
 14 24  2  0  0  0  0
 14 25  1  0  0  0  0
 15 26  1  0  0  0  0
 16 26  1  0  0  0  0
 16 27  2  0  0  0  0
 16 30  1  0  0  0  0
 17 19  2  0  0  0  0
 17 35  1  0  0  0  0
 18 20  2  0  0  0  0
 18 36  1  0  0  0  0
 19 44  1  0  0  0  0
 20 37  1  0  0  0  0
 21 91  1  0  0  0  0
 22 92  1  0  0  0  0
 23 25  2  0  0  0  0
 23 91  1  0  0  0  0
 24 93  1  0  0  0  0
 25 94  1  0  0  0  0
 26 73  2  0  0  0  0
 27 76  1  0  0  0  0
 27 80  1  0  0  0  0
 28 66  1  0  0  0  0
 28 74  1  0  0  0  0
 28 75  2  0  0  0  0
 29 47  1  0  0  0  0
 29 74  2  0  0  0  0
 29 77  1  0  0  0  0
 30 81  1  0  0  0  0
 30 86  2  0  0  0  0
 31 45  1  0  0  0  0
 31 82  1  0  0  0  0
 31 87  2  0  0  0  0
 32 67  1  0  0  0  0
 32 78  1  0  0  0  0
 32 88  2  0  0  0  0
 33 68  1  0  0  0  0
 33 83  1  0  0  0  0
 33 89  2  0  0  0  0
 34 79  1  0  0  0  0
 34 84  1  0  0  0  0
 34 90  2  0  0  0  0
 35 38  1  0  0  0  0
 36 45  1  0  0  0  0
 37 78  1  0  0  0  0
 38 40  1  0  0  0  0
 39 41  1  0  0  0  0
 39 42  1  0  0  0  0
 40 44  1  0  0  0  0
 41 46  1  0  0  0  0
 42 79  1  0  0  0  0
 43 46  1  0  0  0  0
 43 79  1  0  0  0  0
 44 82  1  0  0  0  0
 45 78  1  0  0  0  0
 46 76  1  0  0  0  0
 48 60  1  0  0  0  0
 49 61  1  0  0  0  0
 50 68  1  0  0  0  0
 51 70  1  0  0  0  0
 52 70  1  0  0  0  0
 53 70  1  0  0  0  0
 54 71  1  0  0  0  0
 55 71  1  0  0  0  0
 56 71  1  0  0  0  0
 57 72  1  0  0  0  0
 58 84  1  0  0  0  0
 59 85  1  0  0  0  0
 60 66  1  0  0  0  0
 61 72  1  0  0  0  0
 62 63  1  0  0  0  0
 62 65  1  0  0  0  0
 63 69  1  0  0  0  0
 64 72  1  0  0  0  0
 64 77  1  0  0  0  0
 65 92  1  0  0  0  0
 66 84  1  0  0  0  0
 67 70  1  0  0  0  0
 67 83  1  0  0  0  0
 68 85  1  0  0  0  0
 69 71  1  0  0  0  0
 69 72  1  0  0  0  0
 73 76  1  0  0  0  0
 75 77  1  0  0  0  0
M  CHG  1  85   1
M  ISO  4  34 100  65 101  84 100  92 101
M  END
> <Batch ID>
0066

> <Smiles>
CCC(c1nc(C)n(CC(C)(CC)C(CC[101CH2:1][101O:1]c2ccc3c(c2)CN(C(=O)C(NC(=O)C(C)NC)C(C)(C)C)C(C(=O)NC2CCCc4ccccc42)C3)C(C)(C)C)n1)[100N:0](C)[100C:0](=O)N1CCCC(n2nc(-c3ccc(Oc4ccc(F)cc4F)cc3)c(C(N)=O)c2N)C1

> <Shape>
0.248

> <Color>
0.068

> <Negative vol penalty>
0.000

$$$$

  -OEChem-04052318092D

  0  0  0     0  0  0  0  0  0999 V2000
M  END
$$$$

  -OEChem-04052318093D

 85 93  0     1  0  0  0  0  0999 V2000
  -29.9560  -34.9914   25.2757 C   0  0  0  0  0  0  0  0  0  0  0  0
  -30.1323  -34.3407   24.0588 C   0  0  0  0  0  0  0  0  0  0  0  0
  -25.0120  -11.8751   21.2541 C   0  0  0  0  0  0  0  0  0  0  0  0
  -24.9834  -13.0357   23.3729 C   0  0  0  0  0  0  0  0  0  0  0  0
  -29.1357  -34.4294   26.2531 C   0  0  0  0  0  0  0  0  0  0  0  0
  -29.4892  -33.1269   23.8190 C   0  0  0  0  0  0  0  0  0  0  0  0
  -26.5458  -29.3218   18.5110 C   0  0  0  0  0  0  0  0  0  0  0  0
  -25.1670  -10.6602   21.9216 C   0  0  0  0  0  0  0  0  0  0  0  0
  -25.1383  -11.8207   24.0404 C   0  0  0  0  0  0  0  0  0  0  0  0
  -26.5996  -28.0521   17.9378 C   0  0  0  0  0  0  0  0  0  0  0  0
  -23.2102   -8.4747   23.6031 C   0  0  0  0  0  0  0  0  0  0  0  0
  -22.4231   -7.4012   23.1864 C   0  0  0  0  0  0  0  0  0  0  0  0
  -25.1436  -27.2151   19.6694 C   0  0  0  0  0  0  0  0  0  0  0  0
  -24.4177   -6.1405   22.6669 C   0  0  0  0  0  0  0  0  0  0  0  0
  -28.4820  -23.8283   19.5693 C   0  0  0  0  0  0  0  0  0  0  0  0
  -26.6530  -22.4111   19.2488 C   0  0  0  0  0  0  0  0  0  0  0  0
  -24.9203  -13.0629   21.9797 C   0  0  0  0  0  0  0  0  0  0  0  0
  -23.5516  -14.9435   20.9321 C   0  0  0  0  0  0  0  0  0  0  0  0
  -28.4745  -33.2129   26.0214 C   0  0  0  0  0  0  0  0  0  0  0  0
  -25.7979  -29.5457   19.6759 C   0  0  0  0  0  0  0  0  0  0  0  0
  -28.6603  -32.5474   24.7946 C   0  0  0  0  0  0  0  0  0  0  0  0
  -25.0798  -28.4892   20.2540 C   0  0  0  0  0  0  0  0  0  0  0  0
  -27.4995  -23.3635   18.7190 C   0  0  0  0  0  0  0  0  0  0  0  0
  -25.2301  -10.6330   23.3147 C   0  0  0  0  0  0  0  0  0  0  0  0
  -25.9008  -26.9978   18.5186 C   0  0  0  0  0  0  0  0  0  0  0  0
  -24.6010   -8.3812   23.5516 C   0  0  0  0  0  0  0  0  0  0  0  0
  -23.0269   -6.2341   22.7183 C   0  0  0  0  0  0  0  0  0  0  0  0
  -25.2047   -7.2141   23.0836 C   0  0  0  0  0  0  0  0  0  0  0  0
  -24.7608  -14.3182   21.2907 C   0  0  0  0  0  0  0  0  0  0  0  0
  -23.9374  -16.1022   20.3037 C   0  0  0  0  0  0  0  0  0  0  0  0
  -27.7479  -22.4729   21.2400 C   0  0  0  0  0  0  0  0  0  0  0  0
  -22.2004  -14.5153   21.1479 C   0  0  0  0  0  0  0  0  0  0  0  0
  -26.4809  -30.4906   22.6330 C   0  0  0  0  0  0  0  0  0  0  0  0
  -23.2542  -30.4743   22.9661 C   0  0  0  0  0  0  0  0  0  0  0  0
  -20.2389  -29.2721   21.9128 C   0  0  0  0  0  0  0  0  0  0  0  0
  -28.8766  -19.4706   20.6351 C   0  0  0  0  0  0  0  0  0  0  0  0
  -27.6355  -32.6209   27.1260 C   0  0  0  0  0  0  0  0  0  0  0  0
  -25.7285  -30.9272   20.2668 C   0  0  0  0  0  0  0  0  0  0  0  0
  -24.2458  -28.6818   21.4933 C   0  0  0  0  0  0  0  0  0  0  0  0
  -26.6928  -31.5183   26.6506 C   0  0  0  0  0  0  0  0  0  0  0  0
  -27.5160  -17.9472   17.7188 C   0  0  0  0  0  0  0  0  0  0  0  0
  -27.4312  -30.5389   25.7437 C   0  0  0  0  0  0  0  0  0  0  0  0
  -26.5465  -16.9008   18.2712 C   0  0  0  0  0  0  0  0  0  0  0  0
  -28.7632  -18.0767   18.5904 C   0  0  0  0  0  0  0  0  0  0  0  0
  -27.5276  -17.2860   20.5707 C   0  0  0  0  0  0  0  0  0  0  0  0
  -27.9600  -31.2415   24.4875 C   0  0  1  0  0  0  0  0  0  0  0  0
  -25.3502  -30.9266   21.7447 C   0  0  1  0  0  0  0  0  0  0  0  0
  -26.2287  -17.1594   19.7563 C   0  0  2  0  0  0  0  0  0  0  0  0
  -17.7819  -29.4133   22.4030 C   0  0  0  0  0  0  0  0  0  0  0  0
  -26.1911  -23.2191   16.4950 C   0  0  0  0  0  0  0  0  0  0  0  0
  -28.6547  -23.5482   16.4940 C   0  0  0  0  0  0  0  0  0  0  0  0
  -26.5541  -21.5191   23.3284 C   0  0  0  0  0  0  0  0  0  0  0  0
  -28.4491  -23.1029   23.5657 C   0  0  0  0  0  0  0  0  0  0  0  0
  -23.6404  -28.6824   25.4054 C   0  0  0  0  0  0  0  0  0  0  0  0
  -21.2101  -28.0958   25.2724 C   0  0  0  0  0  0  0  0  0  0  0  0
  -21.9007  -30.4579   25.6801 C   0  0  0  0  0  0  0  0  0  0  0  0
  -19.6445  -30.3400   19.2174 C   0  0  0  0  0  0  0  0  0  0  0  0
  -28.8827  -20.7651   22.7524 C   0  0  0  0  0  0  0  0  0  0  0  0
  -27.1459  -25.4087   17.2615 C   0  0  0  0  0  0  0  0  0  1  0  0
  -22.2279  -29.4495   23.3849 C   0  0  1  0  0  0  0  0  0  0  0  0
  -18.9339  -29.9742   21.5838 C   0  0  2  0  0  0  0  0  0  0  0  0
  -27.3589  -23.8729   17.2723 C   0  0  0  0  0  0  0  0  0  0  0  0
  -27.8872  -21.9755   22.6387 C   0  0  0  0  0  0  0  0  0  0  0  0
  -22.2620  -29.1670   24.9134 C   0  0  0  0  0  0  0  0  0  0  0  0
  -28.6357  -23.4034   20.8405 N   0  0  0  0  0  0  0  0  0  0  0  0
  -26.7489  -21.9412   20.5099 N   0  0  0  0  0  0  0  0  0  0  0  0
  -25.8345  -15.0214   20.9207 N   0  0  0  0  0  0  0  0  0  0  0  0
  -25.3012  -16.1005   20.3229 N   0  0  0  0  0  0  0  0  0  0  0  0
  -24.2147  -30.0495   22.0372 N   0  0  0  0  0  0  0  0  0  0  0  0
  -28.3926  -18.3227   19.9861 N   0  0  0  0  0  0  0  0  0  0  0  0
  -23.2398  -17.1122   19.7418 N   0  0  0  0  0  0  0  0  0  0  0  0
  -21.9826  -13.2994   21.8101 N   0  0  0  0  0  0  0  0  0  0  0  0
  -26.8888  -31.4523   23.5375 N   0  0  0  0  0  0  0  0  0  0  0  0
  -20.9423  -29.9358   22.8956 N   0  0  0  0  0  0  0  0  0  0  0  0
  -28.4724  -19.6310   21.9548 N   0  0  0  0  0  0  0  0  0  0  0  0
  -18.6071  -29.8098   20.1391 N   0  3  0  0  0  0  0  0  0  0  0  0
  -21.2156  -15.1829   20.7504 O   0  0  0  0  0  0  0  0  0  0  0  0
  -26.9476  -29.3644   22.5081 O   0  0  0  0  0  0  0  0  0  0  0  0
  -23.2013  -31.6119   23.4401 O   0  0  0  0  0  0  0  0  0  0  0  0
  -20.5967  -28.2363   21.3563 O   0  0  0  0  0  0  0  0  0  0  0  0
  -29.6100  -20.2943   20.0779 O   0  0  0  0  0  0  0  0  0  0  0  0
  -25.3810   -9.4476   23.9664 O   0  0  0  0  0  0  0  0  0  0  0  0
  -25.9522  -25.7573   17.9615 O   0  0  0  0  0  0  0  0  0  1  0  0
  -22.2710   -5.2026   22.3197 F   0  0  0  0  0  0  0  0  0  0  0  0
  -26.5404   -7.1180   23.0330 F   0  0  0  0  0  0  0  0  0  0  0  0
  1  2  1  0  0  0  0
  1  5  2  0  0  0  0
  2  6  2  0  0  0  0
  3  8  2  0  0  0  0
  3 17  1  0  0  0  0
  4  9  1  0  0  0  0
  4 17  2  0  0  0  0
  5 19  1  0  0  0  0
  6 21  1  0  0  0  0
  7 10  2  0  0  0  0
  7 20  1  0  0  0  0
  8 24  1  0  0  0  0
  9 24  2  0  0  0  0
 10 25  1  0  0  0  0
 11 12  2  0  0  0  0
 11 26  1  0  0  0  0
 12 27  1  0  0  0  0
 13 22  1  0  0  0  0
 13 25  2  0  0  0  0
 14 27  2  0  0  0  0
 14 28  1  0  0  0  0
 15 23  1  0  0  0  0
 15 65  2  0  0  0  0
 16 23  2  0  0  0  0
 16 66  1  0  0  0  0
 17 29  1  0  0  0  0
 18 29  1  0  0  0  0
 18 30  2  0  0  0  0
 18 32  1  0  0  0  0
 19 21  2  0  0  0  0
 19 37  1  0  0  0  0
 20 22  2  0  0  0  0
 20 38  1  0  0  0  0
 21 46  1  0  0  0  0
 22 39  1  0  0  0  0
 23 62  1  0  0  0  0
 24 82  1  0  0  0  0
 25 83  1  0  0  0  0
 26 28  2  0  0  0  0
 26 82  1  0  0  0  0
 27 84  1  0  0  0  0
 28 85  1  0  0  0  0
 29 67  2  0  0  0  0
 30 68  1  0  0  0  0
 30 71  1  0  0  0  0
 31 63  1  0  0  0  0
 31 65  1  0  0  0  0
 31 66  2  0  0  0  0
 32 72  1  0  0  0  0
 32 77  2  0  0  0  0
 33 47  1  0  0  0  0
 33 73  1  0  0  0  0
 33 78  2  0  0  0  0
 34 60  1  0  0  0  0
 34 69  1  0  0  0  0
 34 79  2  0  0  0  0
 35 61  1  0  0  0  0
 35 74  1  0  0  0  0
 35 80  2  0  0  0  0
 36 70  1  0  0  0  0
 36 75  1  0  0  0  0
 36 81  2  0  0  0  0
 37 40  1  0  0  0  0
 38 47  1  0  0  0  0
 39 69  1  0  0  0  0
 40 42  1  0  0  0  0
 41 43  1  0  0  0  0
 41 44  1  0  0  0  0
 42 46  1  0  0  0  0
 43 48  1  0  0  0  0
 44 70  1  0  0  0  0
 45 48  1  0  0  0  0
 45 70  1  0  0  0  0
 46 73  1  0  0  0  0
 47 69  1  0  0  0  0
 48 68  1  0  0  0  0
 49 61  1  0  0  0  0
 50 62  1  0  0  0  0
 51 62  1  0  0  0  0
 52 63  1  0  0  0  0
 53 63  1  0  0  0  0
 54 64  1  0  0  0  0
 55 64  1  0  0  0  0
 56 64  1  0  0  0  0
 57 76  1  0  0  0  0
 58 63  1  0  0  0  0
 58 75  1  0  0  0  0
 59 62  1  0  0  0  0
 59 83  1  0  0  0  0
 60 64  1  0  0  0  0
 60 74  1  0  0  0  0
 61 76  1  0  0  0  0
 67 68  1  0  0  0  0
M  CHG  1  76   1
M  ISO  4  36 100  59 101  75 100  83 101
M  END
> <Batch ID>
0066

> <Smiles>
CNC(C)C(=O)NC(C(=O)N1Cc2cc([101O:1][101CH2:1]C(C)(C)c3cnc(C(C)(C)C[100NH:0][100C:0](=O)N4CCCC(n5nc(-c6ccc(Oc7ccc(F)cc7F)cc6)c(C(N)=O)c5N)C4)nc3)ccc2CC1C(=O)NC1CCCc2ccccc21)C(C)(C)C

> <Shape>
0.255

> <Color>
0.087

> <Negative vol penalty>
0.000

$$$$

  -OEChem-04052318093D

 90 98  0     1  0  0  0  0  0999 V2000
  -28.7589  -12.1009   18.7498 C   0  0  0  0  0  0  0  0  0  0  0  0
  -28.3998  -13.3431   18.2366 C   0  0  0  0  0  0  0  0  0  0  0  0
  -28.4750  -28.7394   20.4140 C   0  0  0  0  0  0  0  0  0  0  0  0
  -26.9974  -26.8946   19.9134 C   0  0  0  0  0  0  0  0  0  0  0  0
  -27.9080  -11.4415   19.6358 C   0  0  0  0  0  0  0  0  0  0  0  0
  -27.1888  -13.9261   18.6083 C   0  0  0  0  0  0  0  0  0  0  0  0
  -26.0629  -19.8951   19.3886 C   0  0  0  0  0  0  0  0  0  0  0  0
  -29.5785  -27.9204   20.1752 C   0  0  0  0  0  0  0  0  0  0  0  0
  -28.1009  -26.0756   19.6746 C   0  0  0  0  0  0  0  0  0  0  0  0
  -25.4807  -20.8556   18.5627 C   0  0  0  0  0  0  0  0  0  0  0  0
  -30.3656  -24.3520   21.4998 C   0  0  0  0  0  0  0  0  0  0  0  0
  -30.3529  -23.0705   22.0505 C   0  0  0  0  0  0  0  0  0  0  0  0
  -23.3588  -20.4986   19.6532 C   0  0  0  0  0  0  0  0  0  0  0  0
  -30.5185  -22.1174   19.8367 C   0  0  0  0  0  0  0  0  0  0  0  0
  -27.1844  -28.2265   20.2831 C   0  0  0  0  0  0  0  0  0  0  0  0
  -25.3609  -29.8725   19.5952 C   0  0  0  0  0  0  0  0  0  0  0  0
  -26.6905  -12.0211   20.0260 C   0  0  0  0  0  0  0  0  0  0  0  0
  -25.2936  -19.2202   20.3474 C   0  0  0  0  0  0  0  0  0  0  0  0
  -26.3202  -13.2732   19.4993 C   0  0  0  0  0  0  0  0  0  0  0  0
  -23.9341  -19.5318   20.4919 C   0  0  0  0  0  0  0  0  0  0  0  0
  -29.3915  -26.5885   19.8055 C   0  0  0  0  0  0  0  0  0  0  0  0
  -24.1278  -21.1555   18.6929 C   0  0  0  0  0  0  0  0  0  0  0  0
  -30.4547  -24.5161   20.1174 C   0  0  0  0  0  0  0  0  0  0  0  0
  -30.4293  -21.9532   21.2190 C   0  0  0  0  0  0  0  0  0  0  0  0
  -30.5312  -23.3988   19.2859 C   0  0  0  0  0  0  0  0  0  0  0  0
  -26.0441  -29.0719   20.5302 C   0  0  0  0  0  0  0  0  0  0  0  0
  -21.2637  -26.3661   19.8180 C   0  0  0  0  0  0  0  0  0  0  0  0
  -21.8463  -26.7282   21.0065 C   0  0  0  0  0  0  0  0  0  0  0  0
  -24.3627  -30.4736   20.3224 C   0  0  0  0  0  0  0  0  0  0  0  0
  -25.6067  -30.0564   18.1947 C   0  0  0  0  0  0  0  0  0  0  0  0
  -24.4886  -16.1859   20.8463 C   0  0  0  0  0  0  0  0  0  0  0  0
  -23.1938  -17.3838   23.5686 C   0  0  0  0  0  0  0  0  0  0  0  0
  -20.7621  -29.2551   24.7153 C   0  0  0  0  0  0  0  0  0  0  0  0
  -21.9079  -20.0768   25.2242 C   0  0  0  0  0  0  0  0  0  0  0  0
  -25.7819  -11.2488   20.9495 C   0  0  0  0  0  0  0  0  0  0  0  0
  -25.9425  -18.2058   21.2487 C   0  0  0  0  0  0  0  0  0  0  0  0
  -23.0692  -18.8502   21.5193 C   0  0  0  0  0  0  0  0  0  0  0  0
  -24.6887  -12.1046   21.5844 C   0  0  0  0  0  0  0  0  0  0  0  0
  -23.6028  -31.4034   25.1096 C   0  0  0  0  0  0  0  0  0  0  0  0
  -24.0191  -12.9824   20.5318 C   0  0  0  0  0  0  0  0  0  0  0  0
  -24.4712  -31.0768   23.8954 C   0  0  0  0  0  0  0  0  0  0  0  0
  -22.8738  -30.1660   25.6239 C   0  0  0  0  0  0  0  0  0  0  0  0
  -22.9194  -29.1421   23.3720 C   0  0  0  0  0  0  0  0  0  0  0  0
  -25.0263  -13.9493   19.8979 C   0  0  1  0  0  0  0  0  0  0  0  0
  -24.9491  -17.2120   21.8427 C   0  0  1  0  0  0  0  0  0  0  0  0
  -23.6496  -30.3710   22.8020 C   0  0  2  0  0  0  0  0  0  0  0  0
  -24.0785  -23.6782   23.3743 C   0  0  0  0  0  0  0  0  0  0  0  0
  -20.9837  -21.4086   27.1398 C   0  0  0  0  0  0  0  0  0  0  0  0
  -20.3565  -26.0626   24.1303 C   0  0  0  0  0  0  0  0  0  0  0  0
  -20.8104  -25.6999   17.4472 C   0  0  0  0  0  0  0  0  0  0  0  0
  -22.6958  -27.2557   17.8559 C   0  0  0  0  0  0  0  0  0  0  0  0
  -18.5841  -28.4052   23.9633 C   0  0  0  0  0  0  0  0  0  0  0  0
  -20.1438  -29.5797   22.3960 C   0  0  0  0  0  0  0  0  0  0  0  0
  -20.5746  -16.0404   22.7654 C   0  0  0  0  0  0  0  0  0  0  0  0
  -19.4008  -17.4862   24.4387 C   0  0  0  0  0  0  0  0  0  0  0  0
  -21.1360  -15.8620   25.1959 C   0  0  0  0  0  0  0  0  0  0  0  0
  -24.6104  -20.8954   26.1103 C   0  0  0  0  0  0  0  0  0  0  0  0
  -23.2462  -26.9451   21.4047 C   0  0  0  0  0  0  0  0  0  0  0  0
  -23.6059  -24.5500   22.2219 C   0  0  0  0  0  0  0  0  0  0  0  0
  -23.6831  -26.0354   22.5745 C   0  0  0  0  0  0  0  0  0  0  0  0
  -23.5448  -24.4064   17.2474 C   0  0  0  0  0  0  0  0  0  0  0  0
  -22.8938  -24.8379   18.5671 C   0  0  0  0  0  0  0  0  0  0  0  0
  -24.3940  -23.1544   17.4322 C   0  0  0  0  0  0  0  0  0  1  0  0
  -21.8471  -17.9465   23.9543 C   0  0  1  0  0  0  0  0  0  0  0  0
  -22.1781  -20.6290   26.6122 C   0  0  2  0  0  0  0  0  0  0  0  0
  -20.8031  -27.2412   23.2436 C   0  0  2  0  0  0  0  0  0  0  0  0
  -21.9251  -26.0582   18.4623 C   0  0  0  0  0  0  0  0  0  0  0  0
  -20.0565  -28.5820   23.5651 C   0  0  0  0  0  0  0  0  0  0  0  0
  -20.7552  -16.8454   24.0678 C   0  0  0  0  0  0  0  0  0  0  0  0
  -25.5239  -29.1548   21.7576 N   0  0  0  0  0  0  0  0  0  0  0  0
  -19.9069  -26.2990   19.9730 N   0  0  0  0  0  0  0  0  0  0  0  0
  -19.6240  -26.6120   21.2328 N   0  0  0  0  0  0  0  0  0  0  0  0
  -20.7882  -26.8692   21.8507 N   0  0  0  0  0  0  0  0  0  0  0  0
  -24.5034  -30.0147   21.5990 N   0  0  0  0  0  0  0  0  0  0  0  0
  -23.7485  -17.8614   22.3727 N   0  0  0  0  0  0  0  0  0  0  0  0
  -22.1234  -29.5117   24.5506 N   0  0  0  0  0  0  0  0  0  0  0  0
  -23.3872  -31.3448   19.9879 N   0  0  0  0  0  0  0  0  0  0  0  0
  -26.6732  -29.3627   17.6068 N   0  0  0  0  0  0  0  0  0  0  0  0
  -25.2885  -15.0607   20.7871 N   0  0  0  0  0  0  0  0  0  0  0  0
  -22.0587  -18.7069   25.1813 N   0  0  0  0  0  0  0  0  0  0  0  0
  -23.3588  -21.5381   26.5871 N   0  3  0  0  0  0  0  0  0  0  0  0
  -24.9115  -30.8260   17.4891 O   0  0  0  0  0  0  0  0  0  0  0  0
  -23.4813  -16.3986   20.1816 O   0  0  0  0  0  0  0  0  0  0  0  0
  -23.7369  -16.5565   24.3049 O   0  0  0  0  0  0  0  0  0  0  0  0
  -20.1202  -29.5462   25.7280 O   0  0  0  0  0  0  0  0  0  0  0  0
  -21.5908  -20.7890   24.2740 O   0  0  0  0  0  0  0  0  0  0  0  0
  -30.4681  -25.7890   19.5722 O   0  0  0  0  0  0  0  0  0  0  0  0
  -23.5570  -22.0922   17.8876 O   0  0  0  0  0  0  0  0  0  1  0  0
  -30.4186  -20.7228   21.7482 F   0  0  0  0  0  0  0  0  0  0  0  0
  -30.6181  -23.5503   17.9572 F   0  0  0  0  0  0  0  0  0  0  0  0
  1  2  1  0  0  0  0
  1  5  2  0  0  0  0
  2  6  2  0  0  0  0
  3  8  2  0  0  0  0
  3 15  1  0  0  0  0
  4  9  1  0  0  0  0
  4 15  2  0  0  0  0
  5 17  1  0  0  0  0
  6 19  1  0  0  0  0
  7 10  2  0  0  0  0
  7 18  1  0  0  0  0
  8 21  1  0  0  0  0
  9 21  2  0  0  0  0
 10 22  1  0  0  0  0
 11 12  2  0  0  0  0
 11 23  1  0  0  0  0
 12 24  1  0  0  0  0
 13 20  1  0  0  0  0
 13 22  2  0  0  0  0
 14 24  2  0  0  0  0
 14 25  1  0  0  0  0
 15 26  1  0  0  0  0
 16 26  1  0  0  0  0
 16 29  2  0  0  0  0
 16 30  1  0  0  0  0
 17 19  2  0  0  0  0
 17 35  1  0  0  0  0
 18 20  2  0  0  0  0
 18 36  1  0  0  0  0
 19 44  1  0  0  0  0
 20 37  1  0  0  0  0
 21 87  1  0  0  0  0
 22 88  1  0  0  0  0
 23 25  2  0  0  0  0
 23 87  1  0  0  0  0
 24 89  1  0  0  0  0
 25 90  1  0  0  0  0
 26 70  2  0  0  0  0
 27 28  2  0  0  0  0
 27 67  1  0  0  0  0
 27 71  1  0  0  0  0
 28 58  1  0  0  0  0
 28 73  1  0  0  0  0
 29 74  1  0  0  0  0
 29 77  1  0  0  0  0
 30 78  1  0  0  0  0
 30 82  2  0  0  0  0
 31 45  1  0  0  0  0
 31 79  1  0  0  0  0
 31 83  2  0  0  0  0
 32 64  1  0  0  0  0
 32 75  1  0  0  0  0
 32 84  2  0  0  0  0
 33 68  1  0  0  0  0
 33 76  1  0  0  0  0
 33 85  2  0  0  0  0
 34 65  1  0  0  0  0
 34 80  1  0  0  0  0
 34 86  2  0  0  0  0
 35 38  1  0  0  0  0
 36 45  1  0  0  0  0
 37 75  1  0  0  0  0
 38 40  1  0  0  0  0
 39 41  1  0  0  0  0
 39 42  1  0  0  0  0
 40 44  1  0  0  0  0
 41 46  1  0  0  0  0
 42 76  1  0  0  0  0
 43 46  1  0  0  0  0
 43 76  1  0  0  0  0
 44 79  1  0  0  0  0
 45 75  1  0  0  0  0
 46 74  1  0  0  0  0
 47 59  1  0  0  0  0
 48 65  1  0  0  0  0
 49 66  1  0  0  0  0
 50 67  1  0  0  0  0
 51 67  1  0  0  0  0
 52 68  1  0  0  0  0
 53 68  1  0  0  0  0
 54 69  1  0  0  0  0
 55 69  1  0  0  0  0
 56 69  1  0  0  0  0
 57 81  1  0  0  0  0
 58 60  1  0  0  0  0
 59 60  1  0  0  0  0
 61 62  1  0  0  0  0
 61 63  1  0  0  0  0
 62 67  1  0  0  0  0
 63 88  1  0  0  0  0
 64 69  1  0  0  0  0
 64 80  1  0  0  0  0
 65 81  1  0  0  0  0
 66 68  1  0  0  0  0
 66 73  1  0  0  0  0
 70 74  1  0  0  0  0
 71 72  2  0  0  0  0
 72 73  1  0  0  0  0
M  CHG  1  81   1
M  ISO  4  33 100  63 101  68 100  88 101
M  END
> <Batch ID>
0066

> <Smiles>
CCCCc1c(C(C)(C)CC[101CH2:1][101O:1]c2ccc3c(c2)CN(C(=O)C(NC(=O)C(C)NC)C(C)(C)C)C(C(=O)NC2CCCc4ccccc42)C3)nnn1C(C)[100C:0](C)(C)[100C:0](=O)N1CCCC(n2nc(-c3ccc(Oc4ccc(F)cc4F)cc3)c(C(N)=O)c2N)C1

> <Shape>
0.227

> <Color>
0.060

> <Negative vol penalty>
0.000

$$$$

  -OEChem-04052318093D

 85 93  0     1  0  0  0  0  0999 V2000
  -20.4791   -8.8641   18.7714 C   0  0  0  0  0  0  0  0  0  0  0  0
  -20.2362  -10.2161   18.9915 C   0  0  0  0  0  0  0  0  0  0  0  0
  -28.3855  -25.6760   18.0889 C   0  0  0  0  0  0  0  0  0  0  0  0
  -27.6418  -24.4700   20.0458 C   0  0  0  0  0  0  0  0  0  0  0  0
  -21.5201   -8.2255   19.4441 C   0  0  0  0  0  0  0  0  0  0  0  0
  -21.0335  -10.9301   19.8853 C   0  0  0  0  0  0  0  0  0  0  0  0
  -22.7310  -16.7966   19.4279 C   0  0  0  0  0  0  0  0  0  0  0  0
  -29.5393  -24.8934   18.0450 C   0  0  0  0  0  0  0  0  0  0  0  0
  -28.7956  -23.6873   20.0019 C   0  0  0  0  0  0  0  0  0  0  0  0
  -22.2367  -17.9640   20.0079 C   0  0  0  0  0  0  0  0  0  0  0  0
  -32.5089  -22.9725   17.2043 C   0  0  0  0  0  0  0  0  0  0  0  0
  -32.9044  -22.4693   15.9650 C   0  0  0  0  0  0  0  0  0  0  0  0
  -23.9086  -17.8044   21.7395 C   0  0  0  0  0  0  0  0  0  0  0  0
  -30.8050  -21.2889   15.7743 C   0  0  0  0  0  0  0  0  0  0  0  0
  -23.1030  -27.1455   23.1351 C   0  0  0  0  0  0  0  0  0  0  0  0
  -24.9175  -27.3354   24.3625 C   0  0  0  0  0  0  0  0  0  0  0  0
  -27.4368  -25.4644   19.0893 C   0  0  0  0  0  0  0  0  0  0  0  0
  -25.0140  -26.0093   18.5054 C   0  0  0  0  0  0  0  0  0  0  0  0
  -22.3367   -8.9344   20.3393 C   0  0  0  0  0  0  0  0  0  0  0  0
  -23.8127  -16.1171   20.0064 C   0  0  0  0  0  0  0  0  0  0  0  0
  -22.0855  -10.3002   20.5716 C   0  0  0  0  0  0  0  0  0  0  0  0
  -24.4164  -16.6299   21.1634 C   0  0  0  0  0  0  0  0  0  0  0  0
  -29.7443  -23.8990   19.0015 C   0  0  0  0  0  0  0  0  0  0  0  0
  -22.8236  -18.4665   21.1656 C   0  0  0  0  0  0  0  0  0  0  0  0
  -31.2614  -22.6339   17.7287 C   0  0  0  0  0  0  0  0  0  0  0  0
  -24.1319  -26.3975   23.7381 C   0  0  0  0  0  0  0  0  0  0  0  0
  -32.0525  -21.6275   15.2500 C   0  0  0  0  0  0  0  0  0  0  0  0
  -30.4095  -21.7921   17.0137 C   0  0  0  0  0  0  0  0  0  0  0  0
  -26.2450  -26.2729   19.1355 C   0  0  0  0  0  0  0  0  0  0  0  0
  -24.2147  -27.0697   18.8563 C   0  0  0  0  0  0  0  0  0  0  0  0
  -24.6275  -24.9046   17.6772 C   0  0  0  0  0  0  0  0  0  0  0  0
  -24.2352  -13.2260   21.2581 C   0  0  0  0  0  0  0  0  0  0  0  0
  -27.3350  -14.1701   21.4064 C   0  0  0  0  0  0  0  0  0  0  0  0
  -24.3825  -30.8482   23.5261 C   0  0  0  0  0  0  0  0  0  0  0  0
  -29.5781  -16.7387   21.5407 C   0  0  0  0  0  0  0  0  0  0  0  0
  -23.4201   -8.1901   21.0788 C   0  0  0  0  0  0  0  0  0  0  0  0
  -24.3511  -14.8737   19.3534 C   0  0  0  0  0  0  0  0  0  0  0  0
  -25.5929  -15.9493   21.8123 C   0  0  0  0  0  0  0  0  0  0  0  0
  -24.4549   -9.1061   21.7271 C   0  0  0  0  0  0  0  0  0  0  0  0
  -24.4208  -31.6921   20.0437 C   0  0  0  0  0  0  0  0  0  0  0  0
  -23.7669  -10.2450   22.4731 C   0  0  0  0  0  0  0  0  0  0  0  0
  -24.8089  -30.3812   19.3610 C   0  0  0  0  0  0  0  0  0  0  0  0
  -25.1218  -31.8496   21.3895 C   0  0  0  0  0  0  0  0  0  0  0  0
  -25.2894  -29.3944   21.6458 C   0  0  0  0  0  0  0  0  0  0  0  0
  -22.9442  -11.1146   21.5148 C   0  0  1  0  0  0  0  0  0  0  0  0
  -25.1291  -13.9822   20.3163 C   0  0  1  0  0  0  0  0  0  0  0  0
  -24.5796  -29.1813   20.2971 C   0  0  2  0  0  0  0  0  0  0  0  0
  -32.0405  -17.1976   21.6937 C   0  0  0  0  0  0  0  0  0  0  0  0
  -22.7274  -29.5910   26.1175 C   0  0  0  0  0  0  0  0  0  0  0  0
  -24.9778  -29.8327   27.1581 C   0  0  0  0  0  0  0  0  0  0  0  0
  -26.3358  -29.9431   24.6307 C   0  0  0  0  0  0  0  0  0  0  0  0
  -27.2837  -13.4450   24.3697 C   0  0  0  0  0  0  0  0  0  0  0  0
  -29.3818  -14.7796   24.6612 C   0  0  0  0  0  0  0  0  0  0  0  0
  -29.3745  -12.7805   23.1692 C   0  0  0  0  0  0  0  0  0  0  0  0
  -29.5908  -18.1665   18.9484 C   0  0  0  0  0  0  0  0  0  0  0  0
  -22.8356  -21.8776   22.3861 C   0  0  0  0  0  0  0  0  0  0  0  0
  -23.8153  -22.7895   23.1165 C   0  0  0  0  0  0  0  0  0  0  0  0
  -23.2744  -20.4204   22.4442 C   0  0  0  0  0  0  0  0  0  1  0  0
  -23.4003  -24.2509   23.0223 C   0  0  0  0  0  0  0  0  0  0  0  0
  -28.1871  -14.8854   22.4268 C   0  0  1  0  0  0  0  0  0  0  0  0
  -30.8542  -17.0034   20.7622 C   0  0  2  0  0  0  0  0  0  0  0  0
  -24.1249  -30.2055   25.9333 C   0  0  0  0  0  0  0  0  0  0  0  0
  -24.7961  -29.8311   24.5596 C   0  0  1  0  0  0  0  0  0  0  0  0
  -28.5334  -13.9846   23.6459 C   0  0  0  0  0  0  0  0  0  0  0  0
  -23.2213  -28.4573   23.3565 N   0  0  0  0  0  0  0  0  0  0  0  0
  -26.2336  -27.4116   19.8335 N   0  0  0  0  0  0  0  0  0  0  0  0
  -24.3338  -28.5410   24.1058 N   0  0  0  0  0  0  0  0  0  0  0  0
  -24.9857  -27.8729   19.6441 N   0  0  0  0  0  0  0  0  0  0  0  0
  -26.0790  -14.7332   21.1397 N   0  0  0  0  0  0  0  0  0  0  0  0
  -24.8982  -30.6798   22.2409 N   0  0  0  0  0  0  0  0  0  0  0  0
  -22.9348  -27.3843   18.5645 N   0  0  0  0  0  0  0  0  0  0  0  0
  -25.5717  -23.9020   17.4172 N   0  0  0  0  0  0  0  0  0  0  0  0
  -23.8094  -12.0050   20.7711 N   0  0  0  0  0  0  0  0  0  0  0  0
  -29.3513  -15.3886   21.7058 N   0  0  0  0  0  0  0  0  0  0  0  0
  -30.7067  -18.2289   19.9272 N   0  3  0  0  0  0  0  0  0  0  0  0
  -23.4840  -24.8177   17.1689 O   0  0  0  0  0  0  0  0  0  0  0  0
  -23.9539  -13.7136   22.3465 O   0  0  0  0  0  0  0  0  0  0  0  0
  -27.7709  -13.1534   20.8605 O   0  0  0  0  0  0  0  0  0  0  0  0
  -23.6213  -31.7628   23.8524 O   0  0  0  0  0  0  0  0  0  0  0  0
  -28.8568  -17.6394   21.9636 O   0  0  0  0  0  0  0  0  0  0  0  0
  -30.8699  -23.1350   18.9588 O   0  0  0  0  0  0  0  0  0  0  0  0
  -22.3427  -19.6055   21.7341 O   0  0  0  0  0  0  0  0  0  1  0  0
  -24.3421  -25.0430   23.7325 O   0  0  0  0  0  0  0  0  0  0  0  0
  -32.4318  -21.1455   14.0592 F   0  0  0  0  0  0  0  0  0  0  0  0
  -29.2094  -21.4642   17.5118 F   0  0  0  0  0  0  0  0  0  0  0  0
  1  2  1  0  0  0  0
  1  5  2  0  0  0  0
  2  6  2  0  0  0  0
  3  8  2  0  0  0  0
  3 17  1  0  0  0  0
  4  9  1  0  0  0  0
  4 17  2  0  0  0  0
  5 19  1  0  0  0  0
  6 21  1  0  0  0  0
  7 10  2  0  0  0  0
  7 20  1  0  0  0  0
  8 23  1  0  0  0  0
  9 23  2  0  0  0  0
 10 24  1  0  0  0  0
 11 12  2  0  0  0  0
 11 25  1  0  0  0  0
 12 27  1  0  0  0  0
 13 22  1  0  0  0  0
 13 24  2  0  0  0  0
 14 27  2  0  0  0  0
 14 28  1  0  0  0  0
 15 26  1  0  0  0  0
 15 65  2  0  0  0  0
 16 26  2  0  0  0  0
 16 67  1  0  0  0  0
 17 29  1  0  0  0  0
 18 29  1  0  0  0  0
 18 30  2  0  0  0  0
 18 31  1  0  0  0  0
 19 21  2  0  0  0  0
 19 36  1  0  0  0  0
 20 22  2  0  0  0  0
 20 37  1  0  0  0  0
 21 45  1  0  0  0  0
 22 38  1  0  0  0  0
 23 81  1  0  0  0  0
 24 82  1  0  0  0  0
 25 28  2  0  0  0  0
 25 81  1  0  0  0  0
 26 83  1  0  0  0  0
 27 84  1  0  0  0  0
 28 85  1  0  0  0  0
 29 66  2  0  0  0  0
 30 68  1  0  0  0  0
 30 71  1  0  0  0  0
 31 72  1  0  0  0  0
 31 76  2  0  0  0  0
 32 46  1  0  0  0  0
 32 73  1  0  0  0  0
 32 77  2  0  0  0  0
 33 60  1  0  0  0  0
 33 69  1  0  0  0  0
 33 78  2  0  0  0  0
 34 63  1  0  0  0  0
 34 70  1  0  0  0  0
 34 79  2  0  0  0  0
 35 61  1  0  0  0  0
 35 74  1  0  0  0  0
 35 80  2  0  0  0  0
 36 39  1  0  0  0  0
 37 46  1  0  0  0  0
 38 69  1  0  0  0  0
 39 41  1  0  0  0  0
 40 42  1  0  0  0  0
 40 43  1  0  0  0  0
 41 45  1  0  0  0  0
 42 47  1  0  0  0  0
 43 70  1  0  0  0  0
 44 47  1  0  0  0  0
 44 70  1  0  0  0  0
 45 73  1  0  0  0  0
 46 69  1  0  0  0  0
 47 68  1  0  0  0  0
 48 61  1  0  0  0  0
 49 62  1  0  0  0  0
 50 62  1  0  0  0  0
 51 63  1  0  0  0  0
 52 64  1  0  0  0  0
 53 64  1  0  0  0  0
 54 64  1  0  0  0  0
 55 75  1  0  0  0  0
 56 57  1  0  0  0  0
 56 58  1  0  0  0  0
 57 59  1  0  0  0  0
 58 82  1  0  0  0  0
 59 83  1  0  0  0  0
 60 64  1  0  0  0  0
 60 74  1  0  0  0  0
 61 75  1  0  0  0  0
 62 63  1  0  0  0  0
 63 67  1  0  0  0  0
 65 67  1  0  0  0  0
 66 68  1  0  0  0  0
M  CHG  1  75   1
M  ISO  4  34 100  58 101  63 100  82 101
M  END
> <Batch ID>
0066

> <Smiles>
CNC(C)C(=O)NC(C(=O)N1Cc2cc([101O:1][101CH2:1]CCCOc3cnn([100C:0](C)(C(C)C)[100C:0](=O)N4CCCC(n5nc(-c6ccc(Oc7ccc(F)cc7F)cc6)c(C(N)=O)c5N)C4)c3)ccc2CC1C(=O)NC1CCCc2ccccc21)C(C)(C)C

> <Shape>
0.240

> <Color>
0.065

> <Negative vol penalty>
0.000

$$$$

  -OEChem-04052318093D

 97105  0     1  0  0  0  0  0999 V2000
  -29.9244  -34.5407   24.3800 C   0  0  0  0  0  0  0  0  0  0  0  0
  -29.6505  -33.1989   24.1352 C   0  0  0  0  0  0  0  0  0  0  0  0
  -22.4604  -10.1449   20.3630 C   0  0  0  0  0  0  0  0  0  0  0  0
  -24.3300   -9.3798   21.6883 C   0  0  0  0  0  0  0  0  0  0  0  0
  -28.8775  -35.4387   24.5843 C   0  0  0  0  0  0  0  0  0  0  0  0
  -28.3295  -32.7541   24.0957 C   0  0  0  0  0  0  0  0  0  0  0  0
  -27.4385  -29.6573   20.1891 C   0  0  0  0  0  0  0  0  0  0  0  0
  -21.8905   -8.8737   20.4331 C   0  0  0  0  0  0  0  0  0  0  0  0
  -23.7600   -8.1086   21.7584 C   0  0  0  0  0  0  0  0  0  0  0  0
  -27.8716  -28.3378   20.3110 C   0  0  0  0  0  0  0  0  0  0  0  0
  -21.3131   -6.5709   23.5101 C   0  0  0  0  0  0  0  0  0  0  0  0
  -21.3014   -5.9351   24.7516 C   0  0  0  0  0  0  0  0  0  0  0  0
  -25.6279  -27.6604   20.8821 C   0  0  0  0  0  0  0  0  0  0  0  0
  -22.6096   -4.1222   23.8355 C   0  0  0  0  0  0  0  0  0  0  0  0
  -30.0966  -20.6192   20.7435 C   0  0  0  0  0  0  0  0  0  0  0  0
  -23.6802  -10.3979   20.9906 C   0  0  0  0  0  0  0  0  0  0  0  0
  -24.0744  -12.7808   21.8117 C   0  0  0  0  0  0  0  0  0  0  0  0
  -27.5428  -35.0064   24.5377 C   0  0  0  0  0  0  0  0  0  0  0  0
  -26.0968  -29.9906   20.4239 C   0  0  0  0  0  0  0  0  0  0  0  0
  -27.2639  -33.6468   24.3009 C   0  0  0  0  0  0  0  0  0  0  0  0
  -25.1798  -28.9845   20.7600 C   0  0  0  0  0  0  0  0  0  0  0  0
  -22.5403   -7.8556   21.1308 C   0  0  0  0  0  0  0  0  0  0  0  0
  -26.9669  -27.3395   20.6603 C   0  0  0  0  0  0  0  0  0  0  0  0
  -21.9730   -5.9823   22.4313 C   0  0  0  0  0  0  0  0  0  0  0  0
  -21.9496   -4.7108   24.9143 C   0  0  0  0  0  0  0  0  0  0  0  0
  -22.6212   -4.7580   22.5940 C   0  0  0  0  0  0  0  0  0  0  0  0
  -24.2697  -11.7107   20.9181 C   0  0  0  0  0  0  0  0  0  0  0  0
  -31.0871  -21.5450   20.9129 C   0  0  0  0  0  0  0  0  0  0  0  0
  -24.8492  -13.7960   21.3062 C   0  0  0  0  0  0  0  0  0  0  0  0
  -31.6623  -19.7182   22.0230 C   0  0  0  0  0  0  0  0  0  0  0  0
  -23.2650  -12.8508   22.9931 C   0  0  0  0  0  0  0  0  0  0  0  0
  -24.5789  -31.8506   22.5072 C   0  0  0  0  0  0  0  0  0  0  0  0
  -21.9908  -31.0953   20.7035 C   0  0  0  0  0  0  0  0  0  0  0  0
  -20.5050  -28.9163   18.5376 C   0  0  0  0  0  0  0  0  0  0  0  0
  -29.6330  -15.6255   19.0896 C   0  0  0  0  0  0  0  0  0  0  0  0
  -26.4463  -36.0052   24.8116 C   0  0  0  0  0  0  0  0  0  0  0  0
  -25.6399  -31.4145   20.2622 C   0  0  0  0  0  0  0  0  0  0  0  0
  -23.7244  -29.2869   21.0028 C   0  0  0  0  0  0  0  0  0  0  0  0
  -25.0628  -35.5240   24.3818 C   0  0  0  0  0  0  0  0  0  0  0  0
  -27.2346  -14.2187   16.8658 C   0  0  0  0  0  0  0  0  0  0  0  0
  -24.8258  -34.0922   24.8516 C   0  0  0  0  0  0  0  0  0  0  0  0
  -26.2374  -13.5242   17.7949 C   0  0  0  0  0  0  0  0  0  0  0  0
  -28.6651  -14.1071   17.3884 C   0  0  0  0  0  0  0  0  0  0  0  0
  -27.8581  -13.8742   19.7054 C   0  0  0  0  0  0  0  0  0  0  0  0
  -25.8433  -33.1307   24.2258 C   0  0  1  0  0  0  0  0  0  0  0  0
  -24.3559  -31.7206   21.0270 C   0  0  1  0  0  0  0  0  0  0  0  0
  -26.3952  -14.0081   19.2490 C   0  0  2  0  0  0  0  0  0  0  0  0
  -18.3725  -28.5481   17.2670 C   0  0  0  0  0  0  0  0  0  0  0  0
  -32.1608  -17.2868   22.4538 C   0  0  0  0  0  0  0  0  0  0  0  0
  -32.0491  -18.9074   24.3767 C   0  0  0  0  0  0  0  0  0  0  0  0
  -33.9895  -18.9305   22.8225 C   0  0  0  0  0  0  0  0  0  0  0  0
  -20.6152  -30.2009   23.2761 C   0  0  0  0  0  0  0  0  0  0  0  0
  -18.9288  -28.9948   21.8727 C   0  0  0  0  0  0  0  0  0  0  0  0
  -19.1506  -31.4733   21.6980 C   0  0  0  0  0  0  0  0  0  0  0  0
  -29.3168  -17.8821   22.9736 C   0  0  0  0  0  0  0  0  0  0  0  0
  -28.3937  -18.4492   20.7415 C   0  0  0  0  0  0  0  0  0  0  0  0
  -21.9044  -29.0160   15.9317 C   0  0  0  0  0  0  0  0  0  0  0  0
  -30.4972  -17.0841   20.9019 C   0  0  0  0  0  0  0  0  0  0  0  0
  -28.7386  -25.8438   21.1895 C   0  0  0  0  0  0  0  0  0  1  0  0
  -20.9567  -29.9956   20.7252 C   0  0  1  0  0  0  0  0  0  0  0  0
  -19.7724  -29.1408   17.2271 C   0  0  2  0  0  0  0  0  0  0  0  0
  -31.2343  -22.9560   20.3929 C   0  0  0  0  0  0  0  0  0  0  0  0
  -32.4305  -18.7696   22.8673 C   0  0  0  0  0  0  0  0  0  0  0  0
  -19.9406  -30.1604   21.8904 C   0  0  0  0  0  0  0  0  0  0  0  0
  -29.7144  -18.2703   21.5283 C   0  0  0  0  0  0  0  0  0  0  0  0
  -28.8205  -24.5301   21.9440 C   0  0  0  0  0  0  0  0  0  0  0  0
  -31.3481  -24.0230   21.4853 C   0  0  0  0  0  0  0  0  0  0  0  0
  -30.2009  -24.1780   22.4770 C   0  0  0  0  0  0  0  0  0  0  0  0
  -25.1031  -12.0176   19.9205 N   0  0  0  0  0  0  0  0  0  0  0  0
  -30.4789  -19.4986   21.4407 N   0  0  0  0  0  0  0  0  0  0  0  0
  -25.4383  -13.2920   20.1841 N   0  0  0  0  0  0  0  0  0  0  0  0
  -32.0427  -20.9607   21.7088 N   0  3  0  0  0  0  0  0  0  0  0  0
  -23.3277  -30.6951   20.8386 N   0  0  0  0  0  0  0  0  0  0  0  0
  -28.7466  -14.5834   18.7713 N   0  0  0  0  0  0  0  0  0  0  0  0
  -25.0772  -15.0617   21.7166 N   0  0  0  0  0  0  0  0  0  0  0  0
  -22.5329  -11.7166   23.3697 N   0  0  0  0  0  0  0  0  0  0  0  0
  -25.4833  -32.8356   22.8555 N   0  0  0  0  0  0  0  0  0  0  0  0
  -20.3483  -29.9813   19.3993 N   0  0  0  0  0  0  0  0  0  0  0  0
  -29.6433  -16.0207   20.4216 N   0  0  0  0  0  0  0  0  0  0  0  0
  -20.5183  -28.5093   16.1020 N   0  3  0  0  0  0  0  0  0  0  0  0
  -23.1803  -13.8938   23.6849 O   0  0  0  0  0  0  0  0  0  0  0  0
  -23.9741  -31.1130   23.2764 O   0  0  0  0  0  0  0  0  0  0  0  0
  -21.6262  -32.2655   20.5646 O   0  0  0  0  0  0  0  0  0  0  0  0
  -21.1485  -27.8964   18.7747 O   0  0  0  0  0  0  0  0  0  0  0  0
  -30.3574  -16.1675   18.2478 O   0  0  0  0  0  0  0  0  0  0  0  0
  -21.9844   -6.6151   21.1996 O   0  0  0  0  0  0  0  0  0  0  0  0
  -27.3872  -26.0508   20.7806 O   0  0  0  0  0  0  0  0  0  1  0  0
  -21.9396   -4.1012   26.1069 F   0  0  0  0  0  0  0  0  0  0  0  0
  -23.2579   -4.1882   21.5616 F   0  0  0  0  0  0  0  0  0  0  0  0
  -30.2182  -23.3148   19.5543 F   0  0  0  0  0  0  0  0  0  0  0  0
  -32.3633  -23.0648   19.6232 F   0  0  0  0  0  0  0  0  0  0  0  0
  -27.9702  -24.5911   23.0078 F   0  0  0  0  0  0  0  0  0  0  0  0
  -28.3592  -23.5312   21.1527 F   0  0  0  0  0  0  0  0  0  0  0  0
  -32.4835  -23.7876   22.2049 F   0  0  0  0  0  0  0  0  0  0  0  0
  -31.5565  -25.2232   20.8726 F   0  0  0  0  0  0  0  0  0  0  0  0
  -30.5618  -25.1516   23.3646 F   0  0  0  0  0  0  0  0  0  0  0  0
  -30.0922  -23.0360   23.2098 F   0  0  0  0  0  0  0  0  0  0  0  0
  1  2  1  0  0  0  0
  1  5  2  0  0  0  0
  2  6  2  0  0  0  0
  3  8  2  0  0  0  0
  3 16  1  0  0  0  0
  4  9  1  0  0  0  0
  4 16  2  0  0  0  0
  5 18  1  0  0  0  0
  6 20  1  0  0  0  0
  7 10  2  0  0  0  0
  7 19  1  0  0  0  0
  8 22  1  0  0  0  0
  9 22  2  0  0  0  0
 10 23  1  0  0  0  0
 11 12  2  0  0  0  0
 11 24  1  0  0  0  0
 12 25  1  0  0  0  0
 13 21  1  0  0  0  0
 13 23  2  0  0  0  0
 14 25  2  0  0  0  0
 14 26  1  0  0  0  0
 15 28  2  0  0  0  0
 15 70  1  0  0  0  0
 16 27  1  0  0  0  0
 17 27  1  0  0  0  0
 17 29  2  0  0  0  0
 17 31  1  0  0  0  0
 18 20  2  0  0  0  0
 18 36  1  0  0  0  0
 19 21  2  0  0  0  0
 19 37  1  0  0  0  0
 20 45  1  0  0  0  0
 21 38  1  0  0  0  0
 22 86  1  0  0  0  0
 23 87  1  0  0  0  0
 24 26  2  0  0  0  0
 24 86  1  0  0  0  0
 25 88  1  0  0  0  0
 26 89  1  0  0  0  0
 27 69  2  0  0  0  0
 28 62  1  0  0  0  0
 28 72  1  0  0  0  0
 29 71  1  0  0  0  0
 29 75  1  0  0  0  0
 30 63  1  0  0  0  0
 30 70  1  0  0  0  0
 30 72  2  0  0  0  0
 31 76  1  0  0  0  0
 31 81  2  0  0  0  0
 32 46  1  0  0  0  0
 32 77  1  0  0  0  0
 32 82  2  0  0  0  0
 33 60  1  0  0  0  0
 33 73  1  0  0  0  0
 33 83  2  0  0  0  0
 34 61  1  0  0  0  0
 34 78  1  0  0  0  0
 34 84  2  0  0  0  0
 35 74  1  0  0  0  0
 35 79  1  0  0  0  0
 35 85  2  0  0  0  0
 36 39  1  0  0  0  0
 37 46  1  0  0  0  0
 38 73  1  0  0  0  0
 39 41  1  0  0  0  0
 40 42  1  0  0  0  0
 40 43  1  0  0  0  0
 41 45  1  0  0  0  0
 42 47  1  0  0  0  0
 43 74  1  0  0  0  0
 44 47  1  0  0  0  0
 44 74  1  0  0  0  0
 45 77  1  0  0  0  0
 46 73  1  0  0  0  0
 47 71  1  0  0  0  0
 48 61  1  0  0  0  0
 49 63  1  0  0  0  0
 50 63  1  0  0  0  0
 51 63  1  0  0  0  0
 52 64  1  0  0  0  0
 53 64  1  0  0  0  0
 54 64  1  0  0  0  0
 55 65  1  0  0  0  0
 56 65  1  0  0  0  0
 57 80  1  0  0  0  0
 58 65  1  0  0  0  0
 58 79  1  0  0  0  0
 59 66  1  0  0  0  0
 59 87  1  0  0  0  0
 60 64  1  0  0  0  0
 60 78  1  0  0  0  0
 61 80  1  0  0  0  0
 62 67  1  0  0  0  0
 62 90  1  0  0  0  0
 62 91  1  0  0  0  0
 65 70  1  0  0  0  0
 66 68  1  0  0  0  0
 66 92  1  0  0  0  0
 66 93  1  0  0  0  0
 67 68  1  0  0  0  0
 67 94  1  0  0  0  0
 67 95  1  0  0  0  0
 68 96  1  0  0  0  0
 68 97  1  0  0  0  0
 69 71  1  0  0  0  0
M  CHG  2  72   1  80   1
M  ISO  4  35 100  59 101  79 100  87 101
M  END
> <Batch ID>
0066

> <Smiles>
CNC(C)C(=O)NC(C(=O)N1Cc2cc([101O:1][101CH2:1]C(F)(F)C(F)(F)C(F)(F)C(F)(F)c3cn(C(C)(C)C[100NH:0][100C:0](=O)N4CCCC(n5nc(-c6ccc(Oc7ccc(F)cc7F)cc6)c(C(N)=O)c5N)C4)c(C(C)(C)C)n3)ccc2CC1C(=O)NC1CCCc2ccccc21)C(C)(C)C

> <Shape>
0.317

> <Color>
0.113

> <Negative vol penalty>
0.000

$$$$

  -OEChem-04052318092D

  0  0  0     0  0  0  0  0  0999 V2000
M  END
$$$$

  -OEChem-04052318093D

 92100  0     1  0  0  0  0  0999 V2000
  -18.8107  -24.2930   23.4497 C   0  0  0  0  0  0  0  0  0  0  0  0
  -20.1846  -24.4813   23.3505 C   0  0  0  0  0  0  0  0  0  0  0  0
  -24.7872  -15.0965   20.9536 C   0  0  0  0  0  0  0  0  0  0  0  0
  -25.7698  -16.9061   22.2173 C   0  0  0  0  0  0  0  0  0  0  0  0
  -17.9438  -25.3411   23.1477 C   0  0  0  0  0  0  0  0  0  0  0  0
  -20.6924  -25.7211   22.9608 C   0  0  0  0  0  0  0  0  0  0  0  0
  -25.5716  -26.3090   23.1869 C   0  0  0  0  0  0  0  0  0  0  0  0
  -25.9800  -14.3803   21.0517 C   0  0  0  0  0  0  0  0  0  0  0  0
  -26.9627  -16.1899   22.3154 C   0  0  0  0  0  0  0  0  0  0  0  0
  -26.4472  -25.6926   22.2941 C   0  0  0  0  0  0  0  0  0  0  0  0
  -28.8847  -12.2276   20.6614 C   0  0  0  0  0  0  0  0  0  0  0  0
  -29.3655  -11.6047   19.5097 C   0  0  0  0  0  0  0  0  0  0  0  0
  -26.7190  -27.7853   21.1253 C   0  0  0  0  0  0  0  0  0  0  0  0
  -29.4940  -13.7488   18.4037 C   0  0  0  0  0  0  0  0  0  0  0  0
  -25.0483  -22.5010   20.3447 C   0  0  0  0  0  0  0  0  0  0  0  0
  -24.9230  -22.2712   18.0235 C   0  0  0  0  0  0  0  0  0  0  0  0
  -24.6820  -16.3595   21.5364 C   0  0  0  0  0  0  0  0  0  0  0  0
  -22.3626  -17.0673   22.3281 C   0  0  0  0  0  0  0  0  0  0  0  0
  -18.4417  -26.5903   22.7421 C   0  0  0  0  0  0  0  0  0  0  0  0
  -25.2541  -27.6679   23.0489 C   0  0  0  0  0  0  0  0  0  0  0  0
  -19.8344  -26.7985   22.6748 C   0  0  0  0  0  0  0  0  0  0  0  0
  -25.8411  -28.4172   22.0193 C   0  0  0  0  0  0  0  0  0  0  0  0
  -24.3019  -22.6555   19.1943 C   0  0  0  0  0  0  0  0  0  0  0  0
  -27.0678  -14.9269   21.7326 C   0  0  0  0  0  0  0  0  0  0  0  0
  -27.0188  -26.4301   21.2614 C   0  0  0  0  0  0  0  0  0  0  0  0
  -28.7085  -13.6111   20.6843 C   0  0  0  0  0  0  0  0  0  0  0  0
  -29.6701  -12.3652   18.3809 C   0  0  0  0  0  0  0  0  0  0  0  0
  -29.0132  -14.3717   19.5554 C   0  0  0  0  0  0  0  0  0  0  0  0
  -23.4503  -17.1001   21.4349 C   0  0  0  0  0  0  0  0  0  0  0  0
  -21.4495  -17.9405   21.7893 C   0  0  0  0  0  0  0  0  0  0  0  0
  -26.7997  -21.6710   19.1570 C   0  0  0  0  0  0  0  0  0  0  0  0
  -22.1928  -16.3149   23.5367 C   0  0  0  0  0  0  0  0  0  0  0  0
  -22.5838  -29.3032   22.5022 C   0  0  0  0  0  0  0  0  0  0  0  0
  -24.5101  -31.8634   23.0092 C   0  0  0  0  0  0  0  0  0  0  0  0
  -22.0851  -22.6377   18.0955 C   0  0  0  0  0  0  0  0  0  0  0  0
  -27.6672  -33.1593   23.0068 C   0  0  0  0  0  0  0  0  0  0  0  0
  -17.4587  -27.6923   22.4348 C   0  0  0  0  0  0  0  0  0  0  0  0
  -24.3286  -28.3243   24.0363 C   0  0  0  0  0  0  0  0  0  0  0  0
  -25.5487  -29.8837   21.8399 C   0  0  0  0  0  0  0  0  0  0  0  0
  -18.0690  -28.8204   21.6095 C   0  0  0  0  0  0  0  0  0  0  0  0
  -20.0073  -19.7583   17.6139 C   0  0  0  0  0  0  0  0  0  0  0  0
  -19.3822  -29.2689   22.2332 C   0  0  0  0  0  0  0  0  0  0  0  0
  -20.5739  -18.7378   18.6001 C   0  0  0  0  0  0  0  0  0  0  0  0
  -21.1074  -20.6351   17.0240 C   0  0  0  0  0  0  0  0  0  0  0  0
  -22.5118  -20.3126   19.0352 C   0  0  0  0  0  0  0  0  0  0  0  0
  -20.4088  -28.1292   22.2235 C   0  0  1  0  0  0  0  0  0  0  0  0
  -23.6763  -29.5917   23.4926 C   0  0  1  0  0  0  0  0  0  0  0  0
  -21.4299  -19.4266   19.6777 C   0  0  2  0  0  0  0  0  0  0  0  0
  -28.9219  -35.2911   23.4294 C   0  0  0  0  0  0  0  0  0  0  0  0
  -22.9262  -24.7480   19.0474 C   0  0  0  0  0  0  0  0  0  0  0  0
  -22.0768  -22.8955   20.4899 C   0  0  0  0  0  0  0  0  0  0  0  0
  -28.6514  -20.7662   17.6472 C   0  0  0  0  0  0  0  0  0  0  0  0
  -23.5610  -32.9519   20.3214 C   0  0  0  0  0  0  0  0  0  0  0  0
  -25.4999  -34.5354   20.3568 C   0  0  0  0  0  0  0  0  0  0  0  0
  -23.7525  -34.6662   22.1322 C   0  0  0  0  0  0  0  0  0  0  0  0
  -27.3289  -18.5186   19.2522 C   0  0  0  0  0  0  0  0  0  0  0  0
  -27.8348  -19.6498   21.3925 C   0  0  0  0  0  0  0  0  0  0  0  0
  -29.6682  -18.9439   19.9122 C   0  0  0  0  0  0  0  0  0  0  0  0
  -28.2286  -24.0766   18.1485 C   0  0  0  0  0  0  0  0  0  0  0  0
  -30.2966  -24.7421   19.2948 C   0  0  0  0  0  0  0  0  0  0  0  0
  -30.7891  -21.9945   18.9881 C   0  0  0  0  0  0  0  0  0  0  0  0
  -29.7325  -22.0544   21.2030 C   0  0  0  0  0  0  0  0  0  0  0  0
  -29.2296  -31.9402   25.2049 C   0  0  0  0  0  0  0  0  0  0  0  0
  -28.1365  -24.4396   20.5946 C   0  0  0  0  0  0  0  0  0  1  0  0
  -25.3829  -32.7339   22.1377 C   0  0  1  0  0  0  0  0  0  0  0  0
  -28.4157  -33.9904   24.0332 C   0  0  2  0  0  0  0  0  0  0  0  0
  -22.9232  -23.2015   19.2152 C   0  0  0  0  0  0  0  0  0  0  0  0
  -28.2720  -21.0944   19.1338 C   0  0  2  0  0  0  0  0  0  0  0  0
  -24.5533  -33.6938   21.2390 C   0  0  0  0  0  0  0  0  0  0  0  0
  -28.2414  -19.5897   19.8874 C   0  0  0  0  0  0  0  0  0  0  0  0
  -29.0478  -23.8497   19.4683 C   0  0  0  0  0  0  0  0  0  0  0  0
  -29.4181  -22.2360   19.6867 C   0  0  0  0  0  0  0  0  0  0  0  0
  -26.3049  -22.0101   20.3627 N   0  0  0  0  0  0  0  0  0  0  0  0
  -26.1757  -21.7732   17.9680 N   0  0  0  0  0  0  0  0  0  0  0  0
  -23.2484  -17.9284   20.4067 N   0  0  0  0  0  0  0  0  0  0  0  0
  -22.0232  -18.4241   20.6504 N   0  0  0  0  0  0  0  0  0  0  0  0
  -24.6327  -30.4787   22.8270 N   0  0  0  0  0  0  0  0  0  0  0  0
  -21.9119  -21.2536   18.0792 N   0  0  0  0  0  0  0  0  0  0  0  0
  -20.2197  -18.3341   22.1834 N   0  0  0  0  0  0  0  0  0  0  0  0
  -23.2296  -15.4652   23.9459 N   0  0  0  0  0  0  0  0  0  0  0  0
  -21.5597  -28.5238   23.0054 N   0  0  0  0  0  0  0  0  0  0  0  0
  -26.3117  -33.4104   23.0366 N   0  0  0  0  0  0  0  0  0  0  0  0
  -29.5843  -33.2315   24.5617 N   0  3  0  0  0  0  0  0  0  0  0  0
  -21.1459  -16.3813   24.2244 O   0  0  0  0  0  0  0  0  0  0  0  0
  -22.6633  -29.7556   21.3661 O   0  0  0  0  0  0  0  0  0  0  0  0
  -23.7528  -32.3925   23.8267 O   0  0  0  0  0  0  0  0  0  0  0  0
  -21.5972  -23.4064   17.2628 O   0  0  0  0  0  0  0  0  0  0  0  0
  -28.2293  -32.3693   22.2515 O   0  0  0  0  0  0  0  0  0  0  0  0
  -28.2319  -14.2282   21.8287 O   0  0  0  0  0  0  0  0  0  0  0  0
  -27.8777  -25.8277   20.3837 O   0  0  0  0  0  0  0  0  0  1  0  0
  -30.1333  -11.7671   17.2755 F   0  0  0  0  0  0  0  0  0  0  0  0
  -28.8471  -15.7014   19.5717 F   0  0  0  0  0  0  0  0  0  0  0  0
  1  2  1  0  0  0  0
  1  5  2  0  0  0  0
  2  6  2  0  0  0  0
  3  8  2  0  0  0  0
  3 17  1  0  0  0  0
  4  9  1  0  0  0  0
  4 17  2  0  0  0  0
  5 19  1  0  0  0  0
  6 21  1  0  0  0  0
  7 10  2  0  0  0  0
  7 20  1  0  0  0  0
  8 24  1  0  0  0  0
  9 24  2  0  0  0  0
 10 25  1  0  0  0  0
 11 12  2  0  0  0  0
 11 26  1  0  0  0  0
 12 27  1  0  0  0  0
 13 22  1  0  0  0  0
 13 25  2  0  0  0  0
 14 27  2  0  0  0  0
 14 28  1  0  0  0  0
 15 23  1  0  0  0  0
 15 73  2  0  0  0  0
 16 23  2  0  0  0  0
 16 74  1  0  0  0  0
 17 29  1  0  0  0  0
 18 29  1  0  0  0  0
 18 30  2  0  0  0  0
 18 32  1  0  0  0  0
 19 21  2  0  0  0  0
 19 37  1  0  0  0  0
 20 22  2  0  0  0  0
 20 38  1  0  0  0  0
 21 46  1  0  0  0  0
 22 39  1  0  0  0  0
 23 67  1  0  0  0  0
 24 89  1  0  0  0  0
 25 90  1  0  0  0  0
 26 28  2  0  0  0  0
 26 89  1  0  0  0  0
 27 91  1  0  0  0  0
 28 92  1  0  0  0  0
 29 75  2  0  0  0  0
 30 76  1  0  0  0  0
 30 79  1  0  0  0  0
 31 68  1  0  0  0  0
 31 73  1  0  0  0  0
 31 74  2  0  0  0  0
 32 80  1  0  0  0  0
 32 84  2  0  0  0  0
 33 47  1  0  0  0  0
 33 81  1  0  0  0  0
 33 85  2  0  0  0  0
 34 65  1  0  0  0  0
 34 77  1  0  0  0  0
 34 86  2  0  0  0  0
 35 67  1  0  0  0  0
 35 78  1  0  0  0  0
 35 87  2  0  0  0  0
 36 66  1  0  0  0  0
 36 82  1  0  0  0  0
 36 88  2  0  0  0  0
 37 40  1  0  0  0  0
 38 47  1  0  0  0  0
 39 77  1  0  0  0  0
 40 42  1  0  0  0  0
 41 43  1  0  0  0  0
 41 44  1  0  0  0  0
 42 46  1  0  0  0  0
 43 48  1  0  0  0  0
 44 78  1  0  0  0  0
 45 48  1  0  0  0  0
 45 78  1  0  0  0  0
 46 81  1  0  0  0  0
 47 77  1  0  0  0  0
 48 76  1  0  0  0  0
 49 66  1  0  0  0  0
 50 67  1  0  0  0  0
 51 67  1  0  0  0  0
 52 68  1  0  0  0  0
 53 69  1  0  0  0  0
 54 69  1  0  0  0  0
 55 69  1  0  0  0  0
 56 70  1  0  0  0  0
 57 70  1  0  0  0  0
 58 70  1  0  0  0  0
 59 71  1  0  0  0  0
 60 71  1  0  0  0  0
 61 72  1  0  0  0  0
 62 72  1  0  0  0  0
 63 83  1  0  0  0  0
 64 71  1  0  0  0  0
 64 90  1  0  0  0  0
 65 69  1  0  0  0  0
 65 82  1  0  0  0  0
 66 83  1  0  0  0  0
 68 70  1  0  0  0  0
 68 72  1  0  0  0  0
 71 72  1  0  0  0  0
 75 76  1  0  0  0  0
M  CHG  1  83   1
M  ISO  4  35 100  64 101  67 100  90 101
M  END
> <Batch ID>
0066

> <Smiles>
CNC(C)C(=O)NC(C(=O)N1Cc2cc([101O:1][101CH2:1]C(C)(C)C(C)(C)C(C)(c3ncc([100C:0](C)(C)[100C:0](=O)N4CCCC(n5nc(-c6ccc(Oc7ccc(F)cc7F)cc6)c(C(N)=O)c5N)C4)cn3)C(C)(C)C)ccc2CC1C(=O)NC1CCCc2ccccc21)C(C)(C)C

> <Shape>
0.235

> <Color>
0.057

> <Negative vol penalty>
0.000

$$$$

  -OEChem-04052318093D

 93102  0     1  0  0  0  0  0999 V2000
  -37.6493  -27.6440   18.9520 C   0  0  0  0  0  0  0  0  0  0  0  0
  -37.4892  -27.2642   20.2807 C   0  0  0  0  0  0  0  0  0  0  0  0
  -23.0780   -9.8571   19.9719 C   0  0  0  0  0  0  0  0  0  0  0  0
  -23.8612   -9.8968   22.2571 C   0  0  0  0  0  0  0  0  0  0  0  0
  -36.5311  -27.8083   18.1356 C   0  0  0  0  0  0  0  0  0  0  0  0
  -36.2106  -27.0496   20.7941 C   0  0  0  0  0  0  0  0  0  0  0  0
  -34.3646  -20.6794   23.6057 C   0  0  0  0  0  0  0  0  0  0  0  0
  -22.3435   -8.7029   20.2436 C   0  0  0  0  0  0  0  0  0  0  0  0
  -23.1267   -8.7425   22.5289 C   0  0  0  0  0  0  0  0  0  0  0  0
  -34.0012  -19.5573   24.3506 C   0  0  0  0  0  0  0  0  0  0  0  0
  -21.1716   -6.0108   23.9193 C   0  0  0  0  0  0  0  0  0  0  0  0
  -20.4276   -5.9773   25.0987 C   0  0  0  0  0  0  0  0  0  0  0  0
  -31.7823  -20.4678   24.6598 C   0  0  0  0  0  0  0  0  0  0  0  0
  -19.1642   -7.8982   24.3562 C   0  0  0  0  0  0  0  0  0  0  0  0
  -32.4498  -15.0382   25.9263 C   0  0  0  0  0  0  0  0  0  0  0  0
  -28.7192  -14.7015   24.6119 C   0  0  0  0  0  0  0  0  0  0  0  0
  -30.4189  -14.0082   23.4013 C   0  0  0  0  0  0  0  0  0  0  0  0
  -23.8369  -10.4541   20.9786 C   0  0  0  0  0  0  0  0  0  0  0  0
  -24.1626  -12.9795   20.8241 C   0  0  0  0  0  0  0  0  0  0  0  0
  -35.2387  -27.5862   18.6366 C   0  0  0  0  0  0  0  0  0  0  0  0
  -33.4324  -21.6941   23.3718 C   0  0  0  0  0  0  0  0  0  0  0  0
  -35.0740  -27.2124   19.9840 C   0  0  0  0  0  0  0  0  0  0  0  0
  -32.1368  -21.5884   23.9039 C   0  0  0  0  0  0  0  0  0  0  0  0
  -29.7462  -13.7397   24.5683 C   0  0  0  0  0  0  0  0  0  0  0  0
  -22.3678   -8.1456   21.5221 C   0  0  0  0  0  0  0  0  0  0  0  0
  -32.7133  -19.4519   24.8765 C   0  0  0  0  0  0  0  0  0  0  0  0
  -20.9120   -6.9880   22.9584 C   0  0  0  0  0  0  0  0  0  0  0  0
  -19.4239   -6.9210   25.3171 C   0  0  0  0  0  0  0  0  0  0  0  0
  -19.9083   -7.9317   23.1768 C   0  0  0  0  0  0  0  0  0  0  0  0
  -24.5963  -11.6461   20.6984 C   0  0  0  0  0  0  0  0  0  0  0  0
  -31.9232  -14.0474   26.7297 C   0  0  0  0  0  0  0  0  0  0  0  0
  -32.7819  -16.2137   26.5682 C   0  0  0  0  0  0  0  0  0  0  0  0
  -25.2466  -13.7307   20.4404 C   0  0  0  0  0  0  0  0  0  0  0  0
  -32.0949  -15.3756   28.5664 C   0  0  0  0  0  0  0  0  0  0  0  0
  -22.8935  -13.4931   21.2497 C   0  0  0  0  0  0  0  0  0  0  0  0
  -32.7054  -25.0059   21.7657 C   0  0  0  0  0  0  0  0  0  0  0  0
  -30.2183  -23.2557   21.3639 C   0  0  0  0  0  0  0  0  0  0  0  0
  -30.7481  -14.7184   20.6575 C   0  0  0  0  0  0  0  0  0  0  0  0
  -27.8506  -20.8731   20.7687 C   0  0  0  0  0  0  0  0  0  0  0  0
  -34.0577  -27.8223   17.7288 C   0  0  0  0  0  0  0  0  0  0  0  0
  -33.7984  -22.9492   22.6271 C   0  0  0  0  0  0  0  0  0  0  0  0
  -31.1777  -22.7204   23.6560 C   0  0  0  0  0  0  0  0  0  0  0  0
  -32.7586  -27.2113   18.2479 C   0  0  0  0  0  0  0  0  0  0  0  0
  -29.5715  -12.3845   18.2063 C   0  0  0  0  0  0  0  0  0  0  0  0
  -32.5691  -27.5364   19.7261 C   0  0  0  0  0  0  0  0  0  0  0  0
  -28.1475  -12.0710   18.6636 C   0  0  0  0  0  0  0  0  0  0  0  0
  -30.5030  -12.6073   19.3936 C   0  0  0  0  0  0  0  0  0  0  0  0
  -28.6097  -13.3483   20.8037 C   0  0  0  0  0  0  0  0  0  0  0  0
  -33.7047  -26.9462   20.5708 C   0  0  1  0  0  0  0  0  0  0  0  0
  -32.6414  -23.5069   21.7789 C   0  0  1  0  0  0  0  0  0  0  0  0
  -27.6293  -13.1466   19.6347 C   0  0  2  0  0  0  0  0  0  0  0  0
  -25.7785  -19.8404   19.8005 C   0  0  0  0  0  0  0  0  0  0  0  0
  -29.0773  -12.6302   26.8068 C   0  0  0  0  0  0  0  0  0  0  0  0
  -29.8696  -11.2407   24.9285 C   0  0  0  0  0  0  0  0  0  0  0  0
  -32.7219  -14.5160   30.8498 C   0  0  0  0  0  0  0  0  0  0  0  0
  -30.4019  -15.3988   30.4318 C   0  0  0  0  0  0  0  0  0  0  0  0
  -32.3314  -16.9582   30.5949 C   0  0  0  0  0  0  0  0  0  0  0  0
  -31.1407  -16.8454   21.8593 C   0  0  0  0  0  0  0  0  0  0  0  0
  -28.9292  -16.3209   20.8304 C   0  0  0  0  0  0  0  0  0  0  0  0
  -28.8565  -24.6960   23.6823 C   0  0  0  0  0  0  0  0  0  0  0  0
  -26.7253  -23.5419   23.0545 C   0  0  0  0  0  0  0  0  0  0  0  0
  -27.8165  -25.1042   21.4449 C   0  0  0  0  0  0  0  0  0  0  0  0
  -29.2958  -19.9563   18.3542 C   0  0  0  0  0  0  0  0  0  0  0  0
  -31.5345  -12.7398   26.1253 C   0  0  0  0  0  0  0  0  0  0  0  0
  -33.3633  -17.3487   25.7776 C   0  0  0  0  0  0  0  0  0  1  0  0
  -28.8634  -22.8449   21.8825 C   0  0  1  0  0  0  0  0  0  0  0  0
  -27.1326  -20.4621   19.4959 C   0  0  2  0  0  0  0  0  0  0  0  0
  -30.0534  -12.6271   25.6055 C   0  0  0  0  0  0  0  0  0  0  0  0
  -31.9015  -15.5623   30.0332 C   0  0  0  0  0  0  0  0  0  0  0  0
  -30.1239  -15.7204   21.5958 C   0  0  0  0  0  0  0  0  0  0  0  0
  -28.0889  -24.0317   22.5220 C   0  0  0  0  0  0  0  0  0  0  0  0
  -28.7343  -15.5201   23.5565 N   0  0  0  0  0  0  0  0  0  0  0  0
  -25.8574  -11.5524   20.2684 N   0  0  0  0  0  0  0  0  0  0  0  0
  -31.7315  -14.1826   28.0583 N   0  0  0  0  0  0  0  0  0  0  0  0
  -32.6171  -16.4175   27.8917 N   0  0  0  0  0  0  0  0  0  0  0  0
  -29.7791  -15.0733   22.8389 N   0  0  0  0  0  0  0  0  0  0  0  0
  -26.2254  -12.8364   20.1204 N   0  0  0  0  0  0  0  0  0  0  0  0
  -31.2896  -23.1776   22.2620 N   0  0  0  0  0  0  0  0  0  0  0  0
  -29.9646  -13.6197   20.3038 N   0  0  0  0  0  0  0  0  0  0  0  0
  -25.4484  -15.0623   20.3489 N   0  0  0  0  0  0  0  0  0  0  0  0
  -21.8904  -12.5823   21.6084 N   0  0  0  0  0  0  0  0  0  0  0  0
  -33.5043  -25.5262   20.7654 N   0  0  0  0  0  0  0  0  0  0  0  0
  -28.1721  -22.2140   20.7634 N   0  0  0  0  0  0  0  0  0  0  0  0
  -27.9465  -19.4687   18.7397 N   0  3  0  0  0  0  0  0  0  0  0  0
  -22.6506  -14.7229   21.2943 O   0  0  0  0  0  0  0  0  0  0  0  0
  -32.0755  -25.6449   22.6003 O   0  0  0  0  0  0  0  0  0  0  0  0
  -30.3257  -23.6412   20.1964 O   0  0  0  0  0  0  0  0  0  0  0  0
  -31.8968  -14.9097   20.2499 O   0  0  0  0  0  0  0  0  0  0  0  0
  -28.0978  -20.0845   21.6783 O   0  0  0  0  0  0  0  0  0  0  0  0
  -21.6510   -7.0194   21.7877 O   0  0  0  0  0  0  0  0  0  0  0  0
  -32.3639  -18.3516   25.5990 O   0  0  0  0  0  0  0  0  0  1  0  0
  -18.7084   -6.8878   26.4490 F   0  0  0  0  0  0  0  0  0  0  0  0
  -19.6535   -8.8722   22.2568 F   0  0  0  0  0  0  0  0  0  0  0  0
  1  2  1  0  0  0  0
  1  5  2  0  0  0  0
  2  6  2  0  0  0  0
  3  8  2  0  0  0  0
  3 18  1  0  0  0  0
  4  9  1  0  0  0  0
  4 18  2  0  0  0  0
  5 20  1  0  0  0  0
  6 22  1  0  0  0  0
  7 10  2  0  0  0  0
  7 21  1  0  0  0  0
  8 25  1  0  0  0  0
  9 25  2  0  0  0  0
 10 26  1  0  0  0  0
 11 12  2  0  0  0  0
 11 27  1  0  0  0  0
 12 28  1  0  0  0  0
 13 23  1  0  0  0  0
 13 26  2  0  0  0  0
 14 28  2  0  0  0  0
 14 29  1  0  0  0  0
 15 31  2  0  0  0  0
 15 32  1  0  0  0  0
 16 24  1  0  0  0  0
 16 72  2  0  0  0  0
 17 24  2  0  0  0  0
 17 76  1  0  0  0  0
 18 30  1  0  0  0  0
 19 30  1  0  0  0  0
 19 33  2  0  0  0  0
 19 35  1  0  0  0  0
 20 22  2  0  0  0  0
 20 40  1  0  0  0  0
 21 23  2  0  0  0  0
 21 41  1  0  0  0  0
 22 49  1  0  0  0  0
 23 42  1  0  0  0  0
 24 68  1  0  0  0  0
 25 90  1  0  0  0  0
 26 91  1  0  0  0  0
 27 29  2  0  0  0  0
 27 90  1  0  0  0  0
 28 92  1  0  0  0  0
 29 93  1  0  0  0  0
 30 73  2  0  0  0  0
 31 64  1  0  0  0  0
 31 74  1  0  0  0  0
 32 65  1  0  0  0  0
 32 75  2  0  0  0  0
 33 77  1  0  0  0  0
 33 80  1  0  0  0  0
 34 69  1  0  0  0  0
 34 74  2  0  0  0  0
 34 75  1  0  0  0  0
 35 81  1  0  0  0  0
 35 85  2  0  0  0  0
 36 50  1  0  0  0  0
 36 82  1  0  0  0  0
 36 86  2  0  0  0  0
 37 66  1  0  0  0  0
 37 78  1  0  0  0  0
 37 87  2  0  0  0  0
 38 70  1  0  0  0  0
 38 79  1  0  0  0  0
 38 88  2  0  0  0  0
 39 67  1  0  0  0  0
 39 83  1  0  0  0  0
 39 89  2  0  0  0  0
 40 43  1  0  0  0  0
 41 50  1  0  0  0  0
 42 78  1  0  0  0  0
 43 45  1  0  0  0  0
 44 46  1  0  0  0  0
 44 47  1  0  0  0  0
 45 49  1  0  0  0  0
 46 51  1  0  0  0  0
 47 79  1  0  0  0  0
 48 51  1  0  0  0  0
 48 79  1  0  0  0  0
 49 82  1  0  0  0  0
 50 78  1  0  0  0  0
 51 77  1  0  0  0  0
 52 67  1  0  0  0  0
 53 68  1  0  0  0  0
 54 68  1  0  0  0  0
 55 69  1  0  0  0  0
 56 69  1  0  0  0  0
 57 69  1  0  0  0  0
 58 70  1  0  0  0  0
 59 70  1  0  0  0  0
 60 71  1  0  0  0  0
 61 71  1  0  0  0  0
 62 71  1  0  0  0  0
 63 84  1  0  0  0  0
 64 68  1  0  0  0  0
 65 91  1  0  0  0  0
 66 71  1  0  0  0  0
 66 83  1  0  0  0  0
 67 84  1  0  0  0  0
 70 76  1  0  0  0  0
 72 76  1  0  0  0  0
 73 77  1  0  0  0  0
M  CHG  1  84   1
M  ISO  4  38 100  65 101  70 100  91 101
M  END
> <Batch ID>
0066

> <Smiles>
CNC(C)C(=O)NC(C(=O)N1Cc2cc([101O:1][101CH2:1]c3cc(CC(C)(C)c4cnn([100C:0](C)(C)[100C:0](=O)N5CCCC(n6nc(-c7ccc(Oc8ccc(F)cc8F)cc7)c(C(N)=O)c6N)C5)c4)nc(C(C)(C)C)n3)ccc2CC1C(=O)NC1CCCc2ccccc21)C(C)(C)C

> <Shape>
0.204

> <Color>
0.177

> <Negative vol penalty>
0.000

$$$$

  -OEChem-04052318093D

 85 93  0     1  0  0  0  0  0999 V2000
  -19.7947   -9.5418   20.5909 C   0  0  0  0  0  0  0  0  0  0  0  0
  -20.0960  -10.8009   21.1002 C   0  0  0  0  0  0  0  0  0  0  0  0
  -28.3090  -25.8215   20.3776 C   0  0  0  0  0  0  0  0  0  0  0  0
  -26.6831  -25.5181   18.6165 C   0  0  0  0  0  0  0  0  0  0  0  0
  -20.8097   -8.6033   20.4096 C   0  0  0  0  0  0  0  0  0  0  0  0
  -21.4124  -11.1217   21.4296 C   0  0  0  0  0  0  0  0  0  0  0  0
  -22.7615  -15.7176   19.7856 C   0  0  0  0  0  0  0  0  0  0  0  0
  -28.8089  -24.5418   20.1366 C   0  0  0  0  0  0  0  0  0  0  0  0
  -27.1831  -24.2384   18.3754 C   0  0  0  0  0  0  0  0  0  0  0  0
  -22.3172  -16.8137   20.5239 C   0  0  0  0  0  0  0  0  0  0  0  0
  -30.2779  -21.2165   20.2245 C   0  0  0  0  0  0  0  0  0  0  0  0
  -30.5346  -20.4006   21.3263 C   0  0  0  0  0  0  0  0  0  0  0  0
  -24.4774  -16.9658   21.5867 C   0  0  0  0  0  0  0  0  0  0  0  0
  -28.2094  -20.5364   21.9684 C   0  0  0  0  0  0  0  0  0  0  0  0
  -21.0376  -26.4997   22.7166 C   0  0  0  0  0  0  0  0  0  0  0  0
  -27.2461  -26.3096   19.6176 C   0  0  0  0  0  0  0  0  0  0  0  0
  -27.1497  -28.8351   19.2703 C   0  0  0  0  0  0  0  0  0  0  0  0
  -22.1407   -8.9161   20.7279 C   0  0  0  0  0  0  0  0  0  0  0  0
  -24.0658  -15.2298   19.9506 C   0  0  0  0  0  0  0  0  0  0  0  0
  -22.4460  -10.1860   21.2537 C   0  0  0  0  0  0  0  0  0  0  0  0
  -24.9366  -15.8650   20.8474 C   0  0  0  0  0  0  0  0  0  0  0  0
  -28.2460  -23.7503   19.1355 C   0  0  0  0  0  0  0  0  0  0  0  0
  -23.1743  -17.4361   21.4267 C   0  0  0  0  0  0  0  0  0  0  0  0
  -28.9870  -21.6924   19.9946 C   0  0  0  0  0  0  0  0  0  0  0  0
  -29.5003  -20.0605   22.1983 C   0  0  0  0  0  0  0  0  0  0  0  0
  -27.9528  -21.3523   20.8665 C   0  0  0  0  0  0  0  0  0  0  0  0
  -26.7288  -27.6312   19.8666 C   0  0  0  0  0  0  0  0  0  0  0  0
  -21.0213  -27.1921   21.5259 C   0  0  0  0  0  0  0  0  0  0  0  0
  -22.2443  -25.5289   20.5420 C   0  0  0  0  0  0  0  0  0  0  0  0
  -22.2612  -24.8369   21.7329 C   0  0  0  0  0  0  0  0  0  0  0  0
  -26.3521  -29.7974   19.8397 C   0  0  0  0  0  0  0  0  0  0  0  0
  -28.1703  -29.0630   18.2895 C   0  0  0  0  0  0  0  0  0  0  0  0
  -25.3253  -12.4780   20.9227 C   0  0  0  0  0  0  0  0  0  0  0  0
  -28.1093  -13.8883   20.0382 C   0  0  0  0  0  0  0  0  0  0  0  0
  -20.9132  -29.5139   22.3793 C   0  0  0  0  0  0  0  0  0  0  0  0
  -29.8421  -16.7720   19.4651 C   0  0  0  0  0  0  0  0  0  0  0  0
  -23.1966   -7.8526   20.5590 C   0  0  0  0  0  0  0  0  0  0  0  0
  -24.5382  -14.0631   19.1271 C   0  0  0  0  0  0  0  0  0  0  0  0
  -26.3528  -15.3926   21.0466 C   0  0  0  0  0  0  0  0  0  0  0  0
  -24.6215   -8.4000   20.5811 C   0  0  0  0  0  0  0  0  0  0  0  0
  -23.9310  -30.7801   23.8386 C   0  0  0  0  0  0  0  0  0  0  0  0
  -24.8014   -9.3736   21.7415 C   0  0  0  0  0  0  0  0  0  0  0  0
  -25.0303  -30.2023   22.9481 C   0  0  0  0  0  0  0  0  0  0  0  0
  -22.7661  -29.8070   23.9903 C   0  0  0  0  0  0  0  0  0  0  0  0
  -23.2777  -28.7755   21.8003 C   0  0  0  0  0  0  0  0  0  0  0  0
  -23.8656  -10.5801   21.5995 C   0  0  1  0  0  0  0  0  0  0  0  0
  -25.7224  -13.3316   19.7516 C   0  0  1  0  0  0  0  0  0  0  0  0
  -24.4599  -29.7393   21.5958 C   0  0  2  0  0  0  0  0  0  0  0  0
  -22.9172  -24.9910   19.3260 C   0  0  0  0  0  0  0  0  0  0  0  0
  -32.1104  -17.6059   18.7892 C   0  0  0  0  0  0  0  0  0  0  0  0
  -18.8183  -28.3666   21.7705 C   0  0  0  0  0  0  0  0  0  0  0  0
  -20.4059  -29.2185   20.0420 C   0  0  0  0  0  0  0  0  0  0  0  0
  -29.1701  -13.2577   22.8287 C   0  0  0  0  0  0  0  0  0  0  0  0
  -31.0114  -14.9054   22.4253 C   0  0  0  0  0  0  0  0  0  0  0  0
  -30.8113  -12.8825   20.9795 C   0  0  0  0  0  0  0  0  0  0  0  0
  -28.7619  -18.1025   17.0523 C   0  0  0  0  0  0  0  0  0  0  0  0
  -23.0696  -20.8459   22.6465 C   0  0  0  0  0  0  0  0  0  0  0  0
  -24.0848  -21.9192   23.0238 C   0  0  0  0  0  0  0  0  0  0  0  0
  -23.7216  -19.4753   22.5213 C   0  0  0  0  0  0  0  0  0  1  0  0
  -23.4420  -23.2964   23.1072 C   0  0  0  0  0  0  0  0  0  0  0  0
  -29.1337  -14.7571   20.7272 C   0  0  1  0  0  0  0  0  0  0  0  0
  -30.7250  -17.2036   18.3081 C   0  0  2  0  0  0  0  0  0  0  0  0
  -20.3264  -28.5050   21.4245 C   0  0  0  0  0  0  0  0  0  0  0  0
  -30.0044  -13.9586   21.7381 C   0  0  0  0  0  0  0  0  0  0  0  0
  -21.6579  -25.3096   22.8415 N   0  0  0  0  0  0  0  0  0  0  0  0
  -25.7407  -27.8099   20.7473 N   0  0  0  0  0  0  0  0  0  0  0  0
  -21.6243  -26.7191   20.4172 N   0  0  0  0  0  0  0  0  0  0  0  0
  -25.5341  -29.1373   20.7088 N   0  0  0  0  0  0  0  0  0  0  0  0
  -26.7659  -14.2444   20.2230 N   0  0  0  0  0  0  0  0  0  0  0  0
  -22.2673  -29.3735   22.6839 N   0  0  0  0  0  0  0  0  0  0  0  0
  -26.2778  -31.1355   19.6769 N   0  0  0  0  0  0  0  0  0  0  0  0
  -28.8949  -27.9628   17.8111 N   0  0  0  0  0  0  0  0  0  0  0  0
  -24.3857  -11.5107   20.6209 N   0  0  0  0  0  0  0  0  0  0  0  0
  -29.8952  -15.4091   19.6672 N   0  0  0  0  0  0  0  0  0  0  0  0
  -30.1181  -18.3653   17.5988 N   0  3  0  0  0  0  0  0  0  0  0  0
  -28.4431  -30.2104   17.8623 O   0  0  0  0  0  0  0  0  0  0  0  0
  -25.8347  -12.6809   22.0186 O   0  0  0  0  0  0  0  0  0  0  0  0
  -28.4875  -12.9332   19.3552 O   0  0  0  0  0  0  0  0  0  0  0  0
  -20.1888  -30.4014   22.8374 O   0  0  0  0  0  0  0  0  0  0  0  0
  -29.1752  -17.5650   20.1260 O   0  0  0  0  0  0  0  0  0  0  0  0
  -28.7337  -22.5016   18.8998 O   0  0  0  0  0  0  0  0  0  0  0  0
  -22.7430  -18.5058   22.1490 O   0  0  0  0  0  0  0  0  0  1  0  0
  -22.8987  -23.6279   21.8367 O   0  0  0  0  0  0  0  0  0  0  0  0
  -29.7465  -19.2758   23.2555 F   0  0  0  0  0  0  0  0  0  0  0  0
  -26.7103  -21.8055   20.6502 F   0  0  0  0  0  0  0  0  0  0  0  0
  1  2  1  0  0  0  0
  1  5  2  0  0  0  0
  2  6  2  0  0  0  0
  3  8  2  0  0  0  0
  3 16  1  0  0  0  0
  4  9  1  0  0  0  0
  4 16  2  0  0  0  0
  5 18  1  0  0  0  0
  6 20  1  0  0  0  0
  7 10  2  0  0  0  0
  7 19  1  0  0  0  0
  8 22  1  0  0  0  0
  9 22  2  0  0  0  0
 10 23  1  0  0  0  0
 11 12  2  0  0  0  0
 11 24  1  0  0  0  0
 12 25  1  0  0  0  0
 13 21  1  0  0  0  0
 13 23  2  0  0  0  0
 14 25  2  0  0  0  0
 14 26  1  0  0  0  0
 15 28  1  0  0  0  0
 15 65  2  0  0  0  0
 16 27  1  0  0  0  0
 17 27  1  0  0  0  0
 17 31  2  0  0  0  0
 17 32  1  0  0  0  0
 18 20  2  0  0  0  0
 18 37  1  0  0  0  0
 19 21  2  0  0  0  0
 19 38  1  0  0  0  0
 20 46  1  0  0  0  0
 21 39  1  0  0  0  0
 22 81  1  0  0  0  0
 23 82  1  0  0  0  0
 24 26  2  0  0  0  0
 24 81  1  0  0  0  0
 25 84  1  0  0  0  0
 26 85  1  0  0  0  0
 27 66  2  0  0  0  0
 28 63  1  0  0  0  0
 28 67  2  0  0  0  0
 29 30  2  0  0  0  0
 29 49  1  0  0  0  0
 29 67  1  0  0  0  0
 30 65  1  0  0  0  0
 30 83  1  0  0  0  0
 31 68  1  0  0  0  0
 31 71  1  0  0  0  0
 32 72  1  0  0  0  0
 32 76  2  0  0  0  0
 33 47  1  0  0  0  0
 33 73  1  0  0  0  0
 33 77  2  0  0  0  0
 34 61  1  0  0  0  0
 34 69  1  0  0  0  0
 34 78  2  0  0  0  0
 35 63  1  0  0  0  0
 35 70  1  0  0  0  0
 35 79  2  0  0  0  0
 36 62  1  0  0  0  0
 36 74  1  0  0  0  0
 36 80  2  0  0  0  0
 37 40  1  0  0  0  0
 38 47  1  0  0  0  0
 39 69  1  0  0  0  0
 40 42  1  0  0  0  0
 41 43  1  0  0  0  0
 41 44  1  0  0  0  0
 42 46  1  0  0  0  0
 43 48  1  0  0  0  0
 44 70  1  0  0  0  0
 45 48  1  0  0  0  0
 45 70  1  0  0  0  0
 46 73  1  0  0  0  0
 47 69  1  0  0  0  0
 48 68  1  0  0  0  0
 50 62  1  0  0  0  0
 51 63  1  0  0  0  0
 52 63  1  0  0  0  0
 53 64  1  0  0  0  0
 54 64  1  0  0  0  0
 55 64  1  0  0  0  0
 56 75  1  0  0  0  0
 57 58  1  0  0  0  0
 57 59  1  0  0  0  0
 58 60  1  0  0  0  0
 59 82  1  0  0  0  0
 60 83  1  0  0  0  0
 61 64  1  0  0  0  0
 61 74  1  0  0  0  0
 62 75  1  0  0  0  0
 66 68  1  0  0  0  0
M  CHG  1  75   1
M  ISO  4  35 100  59 101  63 100  82 101
M  END
> <Batch ID>
0066

> <Smiles>
CNC(C)C(=O)NC(C(=O)N1Cc2cc([101O:1][101CH2:1]CCCOc3ncc([100C:0](C)(C)[100C:0](=O)N4CCCC(n5nc(-c6ccc(Oc7ccc(F)cc7F)cc6)c(C(N)=O)c5N)C4)nc3C)ccc2CC1C(=O)NC1CCCc2ccccc21)C(C)(C)C

> <Shape>
0.276

> <Color>
0.050

> <Negative vol penalty>
0.000

$$$$

  -OEChem-04052318093D

 85 93  0     1  0  0  0  0  0999 V2000
  -29.8069  -34.7959   26.8735 C   0  0  0  0  0  0  0  0  0  0  0  0
  -30.2160  -33.9607   25.8388 C   0  0  0  0  0  0  0  0  0  0  0  0
  -24.5190   -9.8567   22.0780 C   0  0  0  0  0  0  0  0  0  0  0  0
  -24.8606  -11.4716   23.8423 C   0  0  0  0  0  0  0  0  0  0  0  0
  -28.6689  -34.4799   27.6144 C   0  0  0  0  0  0  0  0  0  0  0  0
  -29.4877  -32.8084   25.5451 C   0  0  0  0  0  0  0  0  0  0  0  0
  -27.6065  -28.6484   20.0249 C   0  0  0  0  0  0  0  0  0  0  0  0
  -24.3045   -8.8610   23.0309 C   0  0  0  0  0  0  0  0  0  0  0  0
  -24.6461  -10.4759   24.7952 C   0  0  0  0  0  0  0  0  0  0  0  0
  -27.6236  -27.3119   19.6286 C   0  0  0  0  0  0  0  0  0  0  0  0
  -21.7920   -7.8507   25.0558 C   0  0  0  0  0  0  0  0  0  0  0  0
  -20.7135   -6.9881   24.8604 C   0  0  0  0  0  0  0  0  0  0  0  0
  -25.6290  -26.9085   20.9241 C   0  0  0  0  0  0  0  0  0  0  0  0
  -22.2285   -5.1069   24.8034 C   0  0  0  0  0  0  0  0  0  0  0  0
  -29.2039  -20.4774   21.1918 C   0  0  0  0  0  0  0  0  0  0  0  0
  -24.7971  -11.1620   22.4837 C   0  0  0  0  0  0  0  0  0  0  0  0
  -24.0533  -13.0326   20.9167 C   0  0  0  0  0  0  0  0  0  0  0  0
  -27.9208  -33.3283   27.3234 C   0  0  0  0  0  0  0  0  0  0  0  0
  -26.6050  -29.1233   20.8840 C   0  0  0  0  0  0  0  0  0  0  0  0
  -28.3393  -32.4760   26.2837 C   0  0  0  0  0  0  0  0  0  0  0  0
  -25.6000  -28.2521   21.3278 C   0  0  0  0  0  0  0  0  0  0  0  0
  -29.1467  -20.8735   19.8711 C   0  0  0  0  0  0  0  0  0  0  0  0
  -24.3680   -9.1705   24.3895 C   0  0  0  0  0  0  0  0  0  0  0  0
  -26.6364  -26.4410   20.0805 C   0  0  0  0  0  0  0  0  0  0  0  0
  -23.0888   -7.3415   25.1249 C   0  0  0  0  0  0  0  0  0  0  0  0
  -20.9317   -5.6162   24.7342 C   0  0  0  0  0  0  0  0  0  0  0  0
  -23.3070   -5.9696   24.9988 C   0  0  0  0  0  0  0  0  0  0  0  0
  -25.0194  -12.1909   21.4998 C   0  0  0  0  0  0  0  0  0  0  0  0
  -29.0588  -19.8539   18.9453 C   0  0  0  0  0  0  0  0  0  0  0  0
  -24.7665  -13.8270   20.0526 C   0  0  0  0  0  0  0  0  0  0  0  0
  -29.0902  -18.2876   20.5924 C   0  0  0  0  0  0  0  0  0  0  0  0
  -22.6377  -13.0911   21.1367 C   0  0  0  0  0  0  0  0  0  0  0  0
  -26.5662  -30.3978   23.7957 C   0  0  0  0  0  0  0  0  0  0  0  0
  -23.4134  -30.8060   23.1511 C   0  0  0  0  0  0  0  0  0  0  0  0
  -20.6682  -29.8247   21.3769 C   0  0  0  0  0  0  0  0  0  0  0  0
  -30.7457  -15.1596   20.1610 C   0  0  0  0  0  0  0  0  0  0  0  0
  -26.7246  -33.0033   28.1825 C   0  0  0  0  0  0  0  0  0  0  0  0
  -26.5854  -30.5741   21.2808 C   0  0  0  0  0  0  0  0  0  0  0  0
  -24.4913  -28.7169   22.2350 C   0  0  0  0  0  0  0  0  0  0  0  0
  -25.7959  -31.9613   27.5645 C   0  0  0  0  0  0  0  0  0  0  0  0
  -28.7135  -13.8478   17.3590 C   0  0  0  0  0  0  0  0  0  0  0  0
  -26.5998  -30.7822   27.0258 C   0  0  0  0  0  0  0  0  0  0  0  0
  -27.4867  -13.2829   18.0731 C   0  0  0  0  0  0  0  0  0  0  0  0
  -29.9525  -13.8159   18.2487 C   0  0  0  0  0  0  0  0  0  0  0  0
  -28.5416  -13.9260   20.2764 C   0  0  0  0  0  0  0  0  0  0  0  0
  -27.5617  -31.2302   25.9187 C   0  0  1  0  0  0  0  0  0  0  0  0
  -25.8116  -30.8303   22.5704 C   0  0  1  0  0  0  0  0  0  0  0  0
  -27.2656  -13.9866   19.4234 C   0  0  2  0  0  0  0  0  0  0  0  0
  -28.5821  -18.9505   16.6555 C   0  0  0  0  0  0  0  0  0  0  0  0
  -28.4049  -16.6292   22.3648 C   0  0  0  0  0  0  0  0  0  0  0  0
  -18.2245  -30.3205   21.0946 C   0  0  0  0  0  0  0  0  0  0  0  0
  -22.8186  -29.3512   25.7664 C   0  0  0  0  0  0  0  0  0  0  0  0
  -20.4635  -29.0391   24.9761 C   0  0  0  0  0  0  0  0  0  0  0  0
  -21.3660  -31.3384   25.3243 C   0  0  0  0  0  0  0  0  0  0  0  0
  -31.4367  -17.0196   21.6246 C   0  0  0  0  0  0  0  0  0  0  0  0
  -21.0265  -30.5555   18.5315 C   0  0  0  0  0  0  0  0  0  0  0  0
  -29.1805  -22.3323   19.4914 C   0  0  0  0  0  0  0  0  0  0  0  0
  -28.9906  -20.1635   17.4862 C   0  0  0  0  0  0  0  0  0  0  0  0
  -27.8564  -23.0615   19.7294 C   0  0  0  0  0  0  0  0  0  0  0  0
  -27.9251  -24.5532   19.4236 C   0  0  0  0  0  0  0  0  0  1  0  0
  -29.0580  -16.8514   20.9929 C   0  0  2  0  0  0  0  0  0  0  0  0
  -22.1660  -29.9790   23.3485 C   0  0  1  0  0  0  0  0  0  0  0  0
  -19.6321  -30.6195   20.6028 C   0  0  2  0  0  0  0  0  0  0  0  0
  -21.7254  -29.9174   24.8383 C   0  0  0  0  0  0  0  0  0  0  0  0
  -29.1777  -19.1884   21.5896 N   0  0  0  0  0  0  0  0  0  0  0  0
  -26.2524  -12.4283   21.0443 N   0  0  0  0  0  0  0  0  0  0  0  0
  -29.0283  -18.5452   19.2720 N   0  0  0  0  0  0  0  0  0  0  0  0
  -26.0658  -13.4282   20.1659 N   0  0  0  0  0  0  0  0  0  0  0  0
  -24.5191  -30.1429   22.6002 N   0  0  0  0  0  0  0  0  0  0  0  0
  -29.7015  -14.4530   19.5419 N   0  0  0  0  0  0  0  0  0  0  0  0
  -24.4026  -14.8207   19.2144 N   0  0  0  0  0  0  0  0  0  0  0  0
  -22.0675  -12.2031   22.0589 N   0  0  0  0  0  0  0  0  0  0  0  0
  -26.8461  -31.4255   24.6760 N   0  0  0  0  0  0  0  0  0  0  0  0
  -21.1603  -30.5363   22.4505 N   0  0  0  0  0  0  0  0  0  0  0  0
  -30.3890  -16.2487   20.9705 N   0  0  0  0  0  0  0  0  0  0  0  0
  -19.7033  -30.2881   19.1515 N   0  3  0  0  0  0  0  0  0  0  0  0
  -21.8979  -13.8957   20.5211 O   0  0  0  0  0  0  0  0  0  0  0  0
  -26.8705  -29.2188   23.9330 O   0  0  0  0  0  0  0  0  0  0  0  0
  -23.4047  -31.9984   23.4672 O   0  0  0  0  0  0  0  0  0  0  0  0
  -21.0044  -28.6850   21.0629 O   0  0  0  0  0  0  0  0  0  0  0  0
  -31.9297  -14.8413   19.9917 O   0  0  0  0  0  0  0  0  0  0  0  0
  -24.1584   -8.1992   25.3197 O   0  0  0  0  0  0  0  0  0  0  0  0
  -26.6512  -25.1358   19.6957 O   0  0  0  0  0  0  0  0  0  1  0  0
  -19.8958   -4.7877   24.5482 F   0  0  0  0  0  0  0  0  0  0  0  0
  -24.5505   -5.4745   25.0655 F   0  0  0  0  0  0  0  0  0  0  0  0
  1  2  1  0  0  0  0
  1  5  2  0  0  0  0
  2  6  2  0  0  0  0
  3  8  2  0  0  0  0
  3 16  1  0  0  0  0
  4  9  1  0  0  0  0
  4 16  2  0  0  0  0
  5 18  1  0  0  0  0
  6 20  1  0  0  0  0
  7 10  2  0  0  0  0
  7 19  1  0  0  0  0
  8 23  1  0  0  0  0
  9 23  2  0  0  0  0
 10 24  1  0  0  0  0
 11 12  2  0  0  0  0
 11 25  1  0  0  0  0
 12 26  1  0  0  0  0
 13 21  1  0  0  0  0
 13 24  2  0  0  0  0
 14 26  2  0  0  0  0
 14 27  1  0  0  0  0
 15 22  1  0  0  0  0
 15 65  2  0  0  0  0
 16 28  1  0  0  0  0
 17 28  1  0  0  0  0
 17 30  2  0  0  0  0
 17 32  1  0  0  0  0
 18 20  2  0  0  0  0
 18 37  1  0  0  0  0
 19 21  2  0  0  0  0
 19 38  1  0  0  0  0
 20 46  1  0  0  0  0
 21 39  1  0  0  0  0
 22 29  2  0  0  0  0
 22 57  1  0  0  0  0
 23 82  1  0  0  0  0
 24 83  1  0  0  0  0
 25 27  2  0  0  0  0
 25 82  1  0  0  0  0
 26 84  1  0  0  0  0
 27 85  1  0  0  0  0
 28 66  2  0  0  0  0
 29 58  1  0  0  0  0
 29 67  1  0  0  0  0
 30 68  1  0  0  0  0
 30 71  1  0  0  0  0
 31 61  1  0  0  0  0
 31 65  1  0  0  0  0
 31 67  2  0  0  0  0
 32 72  1  0  0  0  0
 32 77  2  0  0  0  0
 33 47  1  0  0  0  0
 33 73  1  0  0  0  0
 33 78  2  0  0  0  0
 34 62  1  0  0  0  0
 34 69  1  0  0  0  0
 34 79  2  0  0  0  0
 35 63  1  0  0  0  0
 35 74  1  0  0  0  0
 35 80  2  0  0  0  0
 36 70  1  0  0  0  0
 36 75  1  0  0  0  0
 36 81  2  0  0  0  0
 37 40  1  0  0  0  0
 38 47  1  0  0  0  0
 39 69  1  0  0  0  0
 40 42  1  0  0  0  0
 41 43  1  0  0  0  0
 41 44  1  0  0  0  0
 42 46  1  0  0  0  0
 43 48  1  0  0  0  0
 44 70  1  0  0  0  0
 45 48  1  0  0  0  0
 45 70  1  0  0  0  0
 46 73  1  0  0  0  0
 47 69  1  0  0  0  0
 48 68  1  0  0  0  0
 49 58  1  0  0  0  0
 50 61  1  0  0  0  0
 51 63  1  0  0  0  0
 52 64  1  0  0  0  0
 53 64  1  0  0  0  0
 54 64  1  0  0  0  0
 55 75  1  0  0  0  0
 56 76  1  0  0  0  0
 57 59  1  0  0  0  0
 59 60  1  0  0  0  0
 60 83  1  0  0  0  0
 61 75  1  0  0  0  0
 62 64  1  0  0  0  0
 62 74  1  0  0  0  0
 63 76  1  0  0  0  0
 66 68  1  0  0  0  0
M  CHG  1  76   1
M  ISO  4  36 100  60 101  75 100  83 101
M  END
> <Batch ID>
0066

> <Smiles>
CCc1nc(C(C)[100N:0](C)[100C:0](=O)N2CCCC(n3nc(-c4ccc(Oc5ccc(F)cc5F)cc4)c(C(N)=O)c3N)C2)ncc1CC[101CH2:1][101O:1]c1ccc2c(c1)CN(C(=O)C(NC(=O)C(C)NC)C(C)(C)C)C(C(=O)NC1CCCc3ccccc31)C2

> <Shape>
0.317

> <Color>
0.112

> <Negative vol penalty>
0.000

$$$$

  -OEChem-04052318093D

 85 93  0     1  0  0  0  0  0999 V2000
  -22.0911  -21.1171   14.5871 C   0  0  0  0  0  0  0  0  0  0  0  0
  -23.0026  -20.0741   14.7068 C   0  0  0  0  0  0  0  0  0  0  0  0
  -24.8396  -31.2462   20.8079 C   0  0  0  0  0  0  0  0  0  0  0  0
  -24.5463  -29.8897   22.7856 C   0  0  0  0  0  0  0  0  0  0  0  0
  -21.3761  -21.5443   15.7040 C   0  0  0  0  0  0  0  0  0  0  0  0
  -23.1906  -19.4501   15.9405 C   0  0  0  0  0  0  0  0  0  0  0  0
  -27.1003  -15.0883   17.6187 C   0  0  0  0  0  0  0  0  0  0  0  0
  -24.1420  -32.2881   21.4191 C   0  0  0  0  0  0  0  0  0  0  0  0
  -23.8488  -30.9316   23.3968 C   0  0  0  0  0  0  0  0  0  0  0  0
  -28.3817  -15.0085   18.1621 C   0  0  0  0  0  0  0  0  0  0  0  0
  -22.7512  -35.4346   22.5938 C   0  0  0  0  0  0  0  0  0  0  0  0
  -23.2808  -36.7205   22.4862 C   0  0  0  0  0  0  0  0  0  0  0  0
  -27.4261  -14.7467   20.3615 C   0  0  0  0  0  0  0  0  0  0  0  0
  -25.2942  -35.9846   23.6006 C   0  0  0  0  0  0  0  0  0  0  0  0
  -29.8119  -18.9420   21.4674 C   0  0  0  0  0  0  0  0  0  0  0  0
  -25.0417  -30.0470   21.4912 C   0  0  0  0  0  0  0  0  0  0  0  0
  -27.1488  -28.7343   20.9043 C   0  0  0  0  0  0  0  0  0  0  0  0
  -21.5651  -20.9330   16.9544 C   0  0  0  0  0  0  0  0  0  0  0  0
  -25.9704  -15.0088   18.4453 C   0  0  0  0  0  0  0  0  0  0  0  0
  -22.4608  -19.8510   17.0743 C   0  0  0  0  0  0  0  0  0  0  0  0
  -26.1314  -14.8233   19.8258 C   0  0  0  0  0  0  0  0  0  0  0  0
  -23.6467  -32.1308   22.7135 C   0  0  0  0  0  0  0  0  0  0  0  0
  -28.5448  -14.8406   19.5341 C   0  0  0  0  0  0  0  0  0  0  0  0
  -23.4930  -34.4237   23.2049 C   0  0  0  0  0  0  0  0  0  0  0  0
  -24.5523  -36.9955   22.9896 C   0  0  0  0  0  0  0  0  0  0  0  0
  -24.7645  -34.6987   23.7083 C   0  0  0  0  0  0  0  0  0  0  0  0
  -25.7616  -28.9701   20.8602 C   0  0  0  0  0  0  0  0  0  0  0  0
  -29.8700  -20.0131   20.5590 C   0  0  0  0  0  0  0  0  0  0  0  0
  -30.8112  -18.1045   21.0477 C   0  0  0  0  0  0  0  0  0  0  0  0
  -27.3280  -27.5986   20.1529 C   0  0  0  0  0  0  0  0  0  0  0  0
  -28.1829  -29.4754   21.5654 C   0  0  0  0  0  0  0  0  0  0  0  0
  -23.5635  -16.9623   19.1485 C   0  0  0  0  0  0  0  0  0  0  0  0
  -22.4498  -14.3778   20.7616 C   0  0  0  0  0  0  0  0  0  0  0  0
  -23.1353  -11.4267   22.3326 C   0  0  0  0  0  0  0  0  0  0  0  0
  -25.8045  -22.4275   18.7093 C   0  0  0  0  0  0  0  0  0  0  0  0
  -20.7591  -21.4301   18.1284 C   0  0  0  0  0  0  0  0  0  0  0  0
  -24.5946  -15.0699   17.8403 C   0  0  0  0  0  0  0  0  0  0  0  0
  -24.9506  -14.7118   20.7540 C   0  0  0  0  0  0  0  0  0  0  0  0
  -21.3455  -21.0106   19.4724 C   0  0  0  0  0  0  0  0  0  0  0  0
  -24.1352  -25.1310   17.1028 C   0  0  0  0  0  0  0  0  0  0  0  0
  -21.6432  -19.5187   19.4667 C   0  0  0  0  0  0  0  0  0  0  0  0
  -24.5188  -26.3496   17.9442 C   0  0  0  0  0  0  0  0  0  0  0  0
  -23.9452  -23.8860   17.9665 C   0  0  0  0  0  0  0  0  0  0  0  0
  -25.4690  -24.7795   19.6850 C   0  0  0  0  0  0  0  0  0  0  0  0
  -22.7043  -19.1776   18.4128 C   0  0  1  0  0  0  0  0  0  0  0  0
  -23.5212  -15.4927   18.8384 C   0  0  1  0  0  0  0  0  0  0  0  0
  -25.7262  -26.0467   18.8518 C   0  0  2  0  0  0  0  0  0  0  0  0
  -22.0246   -9.5582   23.5865 C   0  0  0  0  0  0  0  0  0  0  0  0
  -28.5132  -21.6330   21.9728 C   0  0  0  0  0  0  0  0  0  0  0  0
  -29.8140  -22.5245   20.0933 C   0  0  0  0  0  0  0  0  0  0  0  0
  -22.2190  -16.1687   23.2211 C   0  0  0  0  0  0  0  0  0  0  0  0
  -22.0344  -14.1023   24.6224 C   0  0  0  0  0  0  0  0  0  0  0  0
  -20.3041  -14.5937   22.8941 C   0  0  0  0  0  0  0  0  0  0  0  0
  -26.7865  -19.9358   19.9597 C   0  0  0  0  0  0  0  0  0  0  0  0
  -28.1503  -20.8185   18.0837 C   0  0  0  0  0  0  0  0  0  0  0  0
  -23.9832   -9.4218   20.3275 C   0  0  0  0  0  0  0  0  0  0  0  0
  -31.3311  -16.7748   21.5325 C   0  0  0  0  0  0  0  0  0  0  0  0
  -31.8855  -15.8863   20.4168 C   0  0  0  0  0  0  0  0  0  0  0  0
  -30.8330  -15.4737   19.3943 C   0  0  0  0  0  0  0  0  0  1  0  0
  -22.6062  -13.8447   22.1653 C   0  0  1  0  0  0  0  0  0  0  0  0
  -22.4910  -10.0562   22.2274 C   0  0  2  0  0  0  0  0  0  0  0  0
  -29.0213  -21.2150   20.5262 C   0  0  0  0  0  0  0  0  0  0  0  0
  -21.8134  -14.6814   23.2087 C   0  0  0  0  0  0  0  0  0  0  0  0
  -27.7218  -21.0909   19.5441 C   0  0  0  0  0  0  0  0  0  0  0  0
  -25.1062  -28.0577   20.1378 N   0  0  0  0  0  0  0  0  0  0  0  0
  -30.8317  -19.8521   19.6458 N   0  0  0  0  0  0  0  0  0  0  0  0
  -26.0858  -27.2375   19.7210 N   0  0  0  0  0  0  0  0  0  0  0  0
  -23.6260  -14.7837   20.1154 N   0  0  0  0  0  0  0  0  0  0  0  0
  -25.1259  -23.6538   18.8018 N   0  0  0  0  0  0  0  0  0  0  0  0
  -28.4255  -26.8836   19.8262 N   0  0  0  0  0  0  0  0  0  0  0  0
  -27.8245  -30.6174   22.2947 N   0  0  0  0  0  0  0  0  0  0  0  0
  -22.8060  -17.7398   18.2934 N   0  0  0  0  0  0  0  0  0  0  0  0
  -22.2239  -12.4377   22.1125 N   0  0  0  0  0  0  0  0  0  0  0  0
  -26.9169  -22.2920   19.5309 N   0  0  0  0  0  0  0  0  0  0  0  0
  -23.4603   -9.0694   21.6726 N   0  3  0  0  0  0  0  0  0  0  0  0
  -29.3909  -29.1444   21.4976 O   0  0  0  0  0  0  0  0  0  0  0  0
  -24.2327  -17.3612   20.0944 O   0  0  0  0  0  0  0  0  0  0  0  0
  -21.3263  -14.4254   20.2545 O   0  0  0  0  0  0  0  0  0  0  0  0
  -24.3270  -11.5847   22.5884 O   0  0  0  0  0  0  0  0  0  0  0  0
  -25.4488  -21.5224   17.9469 O   0  0  0  0  0  0  0  0  0  0  0  0
  -31.4272  -18.6367   19.9613 O   0  0  0  0  0  0  0  0  0  0  0  0
  -22.9662  -33.1474   23.3103 O   0  0  0  0  0  0  0  0  0  0  0  0
  -29.7945  -14.7630   20.0672 O   0  0  0  0  0  0  0  0  0  1  0  0
  -25.0613  -38.2300   22.8848 F   0  0  0  0  0  0  0  0  0  0  0  0
  -25.4824  -33.7313   24.2953 F   0  0  0  0  0  0  0  0  0  0  0  0
  1  2  1  0  0  0  0
  1  5  2  0  0  0  0
  2  6  2  0  0  0  0
  3  8  2  0  0  0  0
  3 16  1  0  0  0  0
  4  9  1  0  0  0  0
  4 16  2  0  0  0  0
  5 18  1  0  0  0  0
  6 20  1  0  0  0  0
  7 10  2  0  0  0  0
  7 19  1  0  0  0  0
  8 22  1  0  0  0  0
  9 22  2  0  0  0  0
 10 23  1  0  0  0  0
 11 12  2  0  0  0  0
 11 24  1  0  0  0  0
 12 25  1  0  0  0  0
 13 21  1  0  0  0  0
 13 23  2  0  0  0  0
 14 25  2  0  0  0  0
 14 26  1  0  0  0  0
 15 28  1  0  0  0  0
 15 29  2  0  0  0  0
 16 27  1  0  0  0  0
 17 27  1  0  0  0  0
 17 30  2  0  0  0  0
 17 31  1  0  0  0  0
 18 20  2  0  0  0  0
 18 36  1  0  0  0  0
 19 21  2  0  0  0  0
 19 37  1  0  0  0  0
 20 45  1  0  0  0  0
 21 38  1  0  0  0  0
 22 82  1  0  0  0  0
 23 83  1  0  0  0  0
 24 26  2  0  0  0  0
 24 82  1  0  0  0  0
 25 84  1  0  0  0  0
 26 85  1  0  0  0  0
 27 65  2  0  0  0  0
 28 62  1  0  0  0  0
 28 66  2  0  0  0  0
 29 57  1  0  0  0  0
 29 81  1  0  0  0  0
 30 67  1  0  0  0  0
 30 70  1  0  0  0  0
 31 71  1  0  0  0  0
 31 76  2  0  0  0  0
 32 46  1  0  0  0  0
 32 72  1  0  0  0  0
 32 77  2  0  0  0  0
 33 60  1  0  0  0  0
 33 68  1  0  0  0  0
 33 78  2  0  0  0  0
 34 61  1  0  0  0  0
 34 73  1  0  0  0  0
 34 79  2  0  0  0  0
 35 69  1  0  0  0  0
 35 74  1  0  0  0  0
 35 80  2  0  0  0  0
 36 39  1  0  0  0  0
 37 46  1  0  0  0  0
 38 68  1  0  0  0  0
 39 41  1  0  0  0  0
 40 42  1  0  0  0  0
 40 43  1  0  0  0  0
 41 45  1  0  0  0  0
 42 47  1  0  0  0  0
 43 69  1  0  0  0  0
 44 47  1  0  0  0  0
 44 69  1  0  0  0  0
 45 72  1  0  0  0  0
 46 68  1  0  0  0  0
 47 67  1  0  0  0  0
 48 61  1  0  0  0  0
 49 62  1  0  0  0  0
 50 62  1  0  0  0  0
 51 63  1  0  0  0  0
 52 63  1  0  0  0  0
 53 63  1  0  0  0  0
 54 64  1  0  0  0  0
 55 64  1  0  0  0  0
 56 75  1  0  0  0  0
 57 58  1  0  0  0  0
 58 59  1  0  0  0  0
 59 83  1  0  0  0  0
 60 63  1  0  0  0  0
 60 73  1  0  0  0  0
 61 75  1  0  0  0  0
 62 64  1  0  0  0  0
 64 74  1  0  0  0  0
 65 67  1  0  0  0  0
 66 81  1  0  0  0  0
M  CHG  1  75   1
M  ISO  4  35 100  59 101  74 100  83 101
M  END
> <Batch ID>
0066

> <Smiles>
CNC(C)C(=O)NC(C(=O)N1Cc2cc([101O:1][101CH2:1]CCc3cc(C(C)(C)C(C)(C)[100NH:0][100C:0](=O)N4CCCC(n5nc(-c6ccc(Oc7ccc(F)cc7F)cc6)c(C(N)=O)c5N)C4)no3)ccc2CC1C(=O)NC1CCCc2ccccc21)C(C)(C)C

> <Shape>
0.241

> <Color>
0.063

> <Negative vol penalty>
0.000

$$$$

  -OEChem-04052318093D

 88 96  0     1  0  0  0  0  0999 V2000
  -17.2629  -29.5059   24.9869 C   0  0  0  0  0  0  0  0  0  0  0  0
  -18.5458  -29.7431   25.4699 C   0  0  0  0  0  0  0  0  0  0  0  0
  -26.5082  -11.4498   16.4465 C   0  0  0  0  0  0  0  0  0  0  0  0
  -26.2939  -10.0422   18.3983 C   0  0  0  0  0  0  0  0  0  0  0  0
  -17.0851  -28.7719   23.8149 C   0  0  0  0  0  0  0  0  0  0  0  0
  -19.6518  -29.2455   24.7816 C   0  0  0  0  0  0  0  0  0  0  0  0
  -26.4786  -30.8283   23.2964 C   0  0  0  0  0  0  0  0  0  0  0  0
  -26.5229  -10.3178   15.6317 C   0  0  0  0  0  0  0  0  0  0  0  0
  -26.3086   -8.9102   17.5835 C   0  0  0  0  0  0  0  0  0  0  0  0
  -27.7531  -30.2669   23.3615 C   0  0  0  0  0  0  0  0  0  0  0  0
  -24.2762   -8.1322   14.3634 C   0  0  0  0  0  0  0  0  0  0  0  0
  -23.4890   -8.1520   13.2121 C   0  0  0  0  0  0  0  0  0  0  0  0
  -27.3287  -29.0799   21.3048 C   0  0  0  0  0  0  0  0  0  0  0  0
  -25.4635   -7.8337   11.8566 C   0  0  0  0  0  0  0  0  0  0  0  0
  -27.1751  -20.9670   20.4609 C   0  0  0  0  0  0  0  0  0  0  0  0
  -26.3938  -11.3120   17.8298 C   0  0  0  0  0  0  0  0  0  0  0  0
  -25.2528  -13.2197   19.0815 C   0  0  0  0  0  0  0  0  0  0  0  0
  -18.1899  -28.2733   23.1067 C   0  0  0  0  0  0  0  0  0  0  0  0
  -25.6141  -30.5106   22.2389 C   0  0  0  0  0  0  0  0  0  0  0  0
  -19.4886  -28.5030   23.5998 C   0  0  0  0  0  0  0  0  0  0  0  0
  -26.0447  -29.6406   21.2272 C   0  0  0  0  0  0  0  0  0  0  0  0
  -26.4231   -9.0480   16.2002 C   0  0  0  0  0  0  0  0  0  0  0  0
  -28.1773  -29.3903   22.3671 C   0  0  0  0  0  0  0  0  0  0  0  0
  -25.6571   -7.9633   14.2614 C   0  0  0  0  0  0  0  0  0  0  0  0
  -24.0826   -8.0027   11.9587 C   0  0  0  0  0  0  0  0  0  0  0  0
  -26.2507   -7.8140   13.0080 C   0  0  0  0  0  0  0  0  0  0  0  0
  -26.3791  -12.4810   18.6721 C   0  0  0  0  0  0  0  0  0  0  0  0
  -28.3665  -20.3333   20.2171 C   0  0  0  0  0  0  0  0  0  0  0  0
  -25.7672  -14.2247   19.8637 C   0  0  0  0  0  0  0  0  0  0  0  0
  -28.0224  -22.8460   19.5383 C   0  0  0  0  0  0  0  0  0  0  0  0
  -23.8657  -13.0157   18.7815 C   0  0  0  0  0  0  0  0  0  0  0  0
  -22.7680  -29.1138   22.0106 C   0  0  0  0  0  0  0  0  0  0  0  0
  -23.0331  -29.9668   18.8922 C   0  0  0  0  0  0  0  0  0  0  0  0
  -25.0654  -30.7716   16.2714 C   0  0  0  0  0  0  0  0  0  0  0  0
  -29.7279  -18.2555   20.3745 C   0  0  0  0  0  0  0  0  0  0  0  0
  -17.9458  -27.4451   21.8701 C   0  0  0  0  0  0  0  0  0  0  0  0
  -24.2523  -31.1455   22.1691 C   0  0  0  0  0  0  0  0  0  0  0  0
  -25.1624  -29.2830   20.0601 C   0  0  0  0  0  0  0  0  0  0  0  0
  -19.1867  -27.2723   20.9980 C   0  0  0  0  0  0  0  0  0  0  0  0
  -30.3976  -14.9024   21.7596 C   0  0  0  0  0  0  0  0  0  0  0  0
  -20.3925  -26.8969   21.8536 C   0  0  0  0  0  0  0  0  0  0  0  0
  -29.3578  -14.0303   21.0579 C   0  0  0  0  0  0  0  0  0  0  0  0
  -30.8138  -16.0916   20.8989 C   0  0  0  0  0  0  0  0  0  0  0  0
  -28.6286  -16.0562   19.7353 C   0  0  0  0  0  0  0  0  0  0  0  0
  -20.7144  -28.0010   22.8680 C   0  0  1  0  0  0  0  0  0  0  0  0
  -23.2657  -30.3512   21.3187 C   0  0  1  0  0  0  0  0  0  0  0  0
  -28.1572  -14.8733   20.5946 C   0  0  1  0  0  0  0  0  0  0  0  0
  -24.9940  -31.3828   13.8386 C   0  0  0  0  0  0  0  0  0  0  0  0
  -30.9374  -24.8937   23.7716 C   0  0  0  0  0  0  0  0  0  0  0  0
  -26.4556  -24.9028   19.4615 C   0  0  0  0  0  0  0  0  0  0  0  0
  -28.0062  -24.4194   17.5890 C   0  0  0  0  0  0  0  0  0  0  0  0
  -22.4895  -27.0506   18.1780 C   0  0  0  0  0  0  0  0  0  0  0  0
  -23.3573  -27.5248   15.8779 C   0  0  0  0  0  0  0  0  0  0  0  0
  -21.3318  -28.7163   16.7151 C   0  0  0  0  0  0  0  0  0  0  0  0
  -27.4954  -18.3449   21.4598 C   0  0  0  0  0  0  0  0  0  0  0  0
  -26.3220  -33.4031   16.7765 C   0  0  0  0  0  0  0  0  0  0  0  0
  -28.9411  -25.2214   19.7852 C   0  0  0  0  0  0  0  0  0  0  0  0
  -30.8953  -27.4175   23.6759 C   0  0  0  0  0  0  0  0  0  0  0  0
  -28.9677  -25.1792   21.3122 C   0  0  0  0  0  0  0  0  0  0  0  0
  -29.9752  -28.6322   23.7268 C   0  0  0  0  0  0  0  0  0  1  0  0
  -23.6011  -29.3208   17.6517 C   0  0  1  0  0  0  0  0  0  0  0  0
  -25.0104  -31.9075   15.2659 C   0  0  2  0  0  0  0  0  0  0  0  0
  -30.1839  -26.1222   23.2795 C   0  0  1  0  0  0  0  0  0  0  0  0
  -27.8498  -24.3196   19.1272 C   0  0  0  0  0  0  0  0  0  0  0  0
  -22.7111  -28.1581   17.1285 C   0  0  0  0  0  0  0  0  0  0  0  0
  -26.9733  -22.2499   20.1240 N   0  0  0  0  0  0  0  0  0  0  0  0
  -27.5227  -12.9747   19.1543 N   0  0  0  0  0  0  0  0  0  0  0  0
  -29.3850  -20.9836   19.6257 N   0  0  0  0  0  0  0  0  0  0  0  0
  -29.2143  -22.2752   19.2746 N   0  0  0  0  0  0  0  0  0  0  0  0
  -27.1177  -14.0345   19.8746 N   0  0  0  0  0  0  0  0  0  0  0  0
  -23.8374  -29.9246   20.0399 N   0  0  0  0  0  0  0  0  0  0  0  0
  -29.6513  -16.8495   20.4343 N   0  0  0  0  0  0  0  0  0  0  0  0
  -25.1915  -15.2438   20.5364 N   0  0  0  0  0  0  0  0  0  0  0  0
  -23.5112  -11.9351   17.9624 N   0  0  0  0  0  0  0  0  0  0  0  0
  -21.4023  -29.0973   22.2205 N   0  0  0  0  0  0  0  0  0  0  0  0
  -23.8056  -30.3969   16.6881 N   0  0  0  0  0  0  0  0  0  0  0  0
  -28.5210  -18.9508   20.6043 N   0  0  0  0  0  0  0  0  0  0  0  0
  -26.1944  -32.7984   15.4256 N   0  3  0  0  0  0  0  0  0  0  0  0
  -30.0821  -26.0346   21.7961 N   0  3  0  0  0  0  0  0  0  0  0  0
  -22.9688  -13.7790   19.2133 O   0  0  0  0  0  0  0  0  0  0  0  0
  -23.5639  -28.2381   22.3291 O   0  0  0  0  0  0  0  0  0  0  0  0
  -21.9199  -30.4960   18.8429 O   0  0  0  0  0  0  0  0  0  0  0  0
  -26.1203  -30.2646   16.6466 O   0  0  0  0  0  0  0  0  0  0  0  0
  -30.7957  -18.8423   20.1625 O   0  0  0  0  0  0  0  0  0  0  0  0
  -26.4371   -7.9432   15.4054 O   0  0  0  0  0  0  0  0  0  0  0  0
  -29.4205  -28.8404   22.4286 O   0  0  0  0  0  0  0  0  0  1  0  0
  -23.3264   -8.0201   10.8533 F   0  0  0  0  0  0  0  0  0  0  0  0
  -27.5766   -7.6501   12.9037 F   0  0  0  0  0  0  0  0  0  0  0  0
  1  2  1  0  0  0  0
  1  5  2  0  0  0  0
  2  6  2  0  0  0  0
  3  8  2  0  0  0  0
  3 16  1  0  0  0  0
  4  9  1  0  0  0  0
  4 16  2  0  0  0  0
  5 18  1  0  0  0  0
  6 20  1  0  0  0  0
  7 10  2  0  0  0  0
  7 19  1  0  0  0  0
  8 22  1  0  0  0  0
  9 22  2  0  0  0  0
 10 23  1  0  0  0  0
 11 12  2  0  0  0  0
 11 24  1  0  0  0  0
 12 25  1  0  0  0  0
 13 21  1  0  0  0  0
 13 23  2  0  0  0  0
 14 25  2  0  0  0  0
 14 26  1  0  0  0  0
 15 28  1  0  0  0  0
 15 66  2  0  0  0  0
 16 27  1  0  0  0  0
 17 27  1  0  0  0  0
 17 29  2  0  0  0  0
 17 31  1  0  0  0  0
 18 20  2  0  0  0  0
 18 36  1  0  0  0  0
 19 21  2  0  0  0  0
 19 37  1  0  0  0  0
 20 45  1  0  0  0  0
 21 38  1  0  0  0  0
 22 85  1  0  0  0  0
 23 86  1  0  0  0  0
 24 26  2  0  0  0  0
 24 85  1  0  0  0  0
 25 87  1  0  0  0  0
 26 88  1  0  0  0  0
 27 67  2  0  0  0  0
 28 68  2  0  0  0  0
 28 77  1  0  0  0  0
 29 70  1  0  0  0  0
 29 73  1  0  0  0  0
 30 64  1  0  0  0  0
 30 66  1  0  0  0  0
 30 69  2  0  0  0  0
 31 74  1  0  0  0  0
 31 80  2  0  0  0  0
 32 46  1  0  0  0  0
 32 75  1  0  0  0  0
 32 81  2  0  0  0  0
 33 61  1  0  0  0  0
 33 71  1  0  0  0  0
 33 82  2  0  0  0  0
 34 62  1  0  0  0  0
 34 76  1  0  0  0  0
 34 83  2  0  0  0  0
 35 72  1  0  0  0  0
 35 77  1  0  0  0  0
 35 84  2  0  0  0  0
 36 39  1  0  0  0  0
 37 46  1  0  0  0  0
 38 71  1  0  0  0  0
 39 41  1  0  0  0  0
 40 42  1  0  0  0  0
 40 43  1  0  0  0  0
 41 45  1  0  0  0  0
 42 47  1  0  0  0  0
 43 72  1  0  0  0  0
 44 47  1  0  0  0  0
 44 72  1  0  0  0  0
 45 75  1  0  0  0  0
 46 71  1  0  0  0  0
 47 70  1  0  0  0  0
 48 62  1  0  0  0  0
 49 63  1  0  0  0  0
 50 64  1  0  0  0  0
 51 64  1  0  0  0  0
 52 65  1  0  0  0  0
 53 65  1  0  0  0  0
 54 65  1  0  0  0  0
 55 77  1  0  0  0  0
 56 78  1  0  0  0  0
 57 59  1  0  0  0  0
 57 64  1  0  0  0  0
 58 60  1  0  0  0  0
 58 63  1  0  0  0  0
 59 79  1  0  0  0  0
 60 86  1  0  0  0  0
 61 65  1  0  0  0  0
 61 76  1  0  0  0  0
 62 78  1  0  0  0  0
 63 79  1  0  0  0  0
 67 70  1  0  0  0  0
 68 69  1  0  0  0  0
M  CHG  2  78   1  79   1
M  ISO  4  35 100  60 101  77 100  86 101
M  END
> <Batch ID>
0066

> <Smiles>
CNC(C)C(=O)NC(C(=O)N1Cc2cc([101O:1][101CH2:1]CC(C)NCCC(C)(C)c3ncc([100N:0](C)[100C:0](=O)N4CCCC(n5nc(-c6ccc(Oc7ccc(F)cc7F)cc6)c(C(N)=O)c5N)C4)nn3)ccc2CC1C(=O)NC1CCCc2ccccc21)C(C)(C)C

> <Shape>
0.253

> <Color>
0.129

> <Negative vol penalty>
0.000

$$$$

  -OEChem-04052318093D

 91 99  0     1  0  0  0  0  0999 V2000
  -37.3097  -27.0352   21.3306 C   0  0  0  0  0  0  0  0  0  0  0  0
  -36.2539  -26.5225   22.0774 C   0  0  0  0  0  0  0  0  0  0  0  0
  -23.1476   -9.7943   19.9893 C   0  0  0  0  0  0  0  0  0  0  0  0
  -23.5448  -10.0443   22.3593 C   0  0  0  0  0  0  0  0  0  0  0  0
  -37.0932  -27.4621   20.0211 C   0  0  0  0  0  0  0  0  0  0  0  0
  -34.9805  -26.4374   21.5155 C   0  0  0  0  0  0  0  0  0  0  0  0
  -32.7323  -21.9994   22.4615 C   0  0  0  0  0  0  0  0  0  0  0  0
  -22.3684   -8.6646   20.2390 C   0  0  0  0  0  0  0  0  0  0  0  0
  -22.7656   -8.9147   22.6090 C   0  0  0  0  0  0  0  0  0  0  0  0
  -32.1770  -21.8242   23.7283 C   0  0  0  0  0  0  0  0  0  0  0  0
  -23.1226   -5.5565   22.4477 C   0  0  0  0  0  0  0  0  0  0  0  0
  -23.6150   -4.6169   23.3533 C   0  0  0  0  0  0  0  0  0  0  0  0
  -29.9926  -22.3195   22.8327 C   0  0  0  0  0  0  0  0  0  0  0  0
  -21.6716   -4.9455   24.7507 C   0  0  0  0  0  0  0  0  0  0  0  0
  -30.5150  -19.0144   27.5770 C   0  0  0  0  0  0  0  0  0  0  0  0
  -23.7359  -10.4841   21.0494 C   0  0  0  0  0  0  0  0  0  0  0  0
  -24.1045  -12.9873   20.7244 C   0  0  0  0  0  0  0  0  0  0  0  0
  -35.8186  -27.3731   19.4395 C   0  0  0  0  0  0  0  0  0  0  0  0
  -31.9220  -22.3473   21.3711 C   0  0  0  0  0  0  0  0  0  0  0  0
  -34.7465  -26.8647   20.1974 C   0  0  0  0  0  0  0  0  0  0  0  0
  -30.5396  -22.4961   21.5526 C   0  0  0  0  0  0  0  0  0  0  0  0
  -22.1774   -8.2248   21.5489 C   0  0  0  0  0  0  0  0  0  0  0  0
  -30.8074  -21.9871   23.9146 C   0  0  0  0  0  0  0  0  0  0  0  0
  -21.9048   -6.1907   22.6935 C   0  0  0  0  0  0  0  0  0  0  0  0
  -22.8895   -4.3114   24.5049 C   0  0  0  0  0  0  0  0  0  0  0  0
  -21.1793   -5.8852   23.8450 C   0  0  0  0  0  0  0  0  0  0  0  0
  -24.5413  -11.6507   20.7920 C   0  0  0  0  0  0  0  0  0  0  0  0
  -29.5840  -19.3642   26.6401 C   0  0  0  0  0  0  0  0  0  0  0  0
  -25.2433  -13.7076   20.4584 C   0  0  0  0  0  0  0  0  0  0  0  0
  -30.4753  -17.4321   26.0294 C   0  0  0  0  0  0  0  0  0  0  0  0
  -22.7872  -13.5293   20.8876 C   0  0  0  0  0  0  0  0  0  0  0  0
  -31.7696  -24.8296   19.3915 C   0  0  0  0  0  0  0  0  0  0  0  0
  -29.5482  -23.0012   17.8933 C   0  0  0  0  0  0  0  0  0  0  0  0
  -27.2584  -20.4786   18.0941 C   0  0  0  0  0  0  0  0  0  0  0  0
  -31.0730  -12.1351   21.4978 C   0  0  0  0  0  0  0  0  0  0  0  0
  -35.6231  -27.8909   18.0366 C   0  0  0  0  0  0  0  0  0  0  0  0
  -32.5326  -22.5065   20.0057 C   0  0  0  0  0  0  0  0  0  0  0  0
  -29.6234  -22.8493   20.4106 C   0  0  0  0  0  0  0  0  0  0  0  0
  -34.3239  -27.4192   17.3887 C   0  0  0  0  0  0  0  0  0  0  0  0
  -29.5198  -13.3339   18.3591 C   0  0  0  0  0  0  0  0  0  0  0  0
  -33.1550  -27.5842   18.3547 C   0  0  0  0  0  0  0  0  0  0  0  0
  -28.0334  -13.0802   18.6048 C   0  0  0  0  0  0  0  0  0  0  0  0
  -30.3978  -12.3563   19.1342 C   0  0  0  0  0  0  0  0  0  0  0  0
  -28.6321  -12.0703   20.8414 C   0  0  0  0  0  0  0  0  0  0  0  0
  -33.3561  -26.7333   19.6145 C   0  0  1  0  0  0  0  0  0  0  0  0
  -31.6870  -23.3643   19.0694 C   0  0  1  0  0  0  0  0  0  0  0  0
  -27.7207  -13.0682   20.1113 C   0  0  2  0  0  0  0  0  0  0  0  0
  -30.8992  -16.2361   20.7301 C   0  0  0  0  0  0  0  0  0  0  0  0
  -25.5700  -19.2363   16.7144 C   0  0  0  0  0  0  0  0  0  0  0  0
  -28.8189  -21.5925   27.7025 C   0  0  0  0  0  0  0  0  0  0  0  0
  -27.1859  -20.1134   26.5522 C   0  0  0  0  0  0  0  0  0  0  0  0
  -27.6411  -25.3745   18.0944 C   0  0  0  0  0  0  0  0  0  0  0  0
  -25.7519  -23.8095   17.5946 C   0  0  0  0  0  0  0  0  0  0  0  0
  -27.5617  -24.1543   15.9128 C   0  0  0  0  0  0  0  0  0  0  0  0
  -32.4820  -17.8514   29.1610 C   0  0  0  0  0  0  0  0  0  0  0  0
  -33.3146  -16.9013   26.9738 C   0  0  0  0  0  0  0  0  0  0  0  0
  -31.6443  -15.6638   28.3332 C   0  0  0  0  0  0  0  0  0  0  0  0
  -31.5069  -12.1075   23.9249 C   0  0  0  0  0  0  0  0  0  0  0  0
  -28.6664  -17.9041   18.4791 C   0  0  0  0  0  0  0  0  0  0  0  0
  -30.7623  -16.1984   25.2559 C   0  0  0  0  0  0  0  0  0  0  0  0
  -31.9905  -15.5808   21.5650 C   0  0  0  0  0  0  0  0  0  0  0  0
  -31.1453  -16.4329   23.7774 C   0  0  0  0  0  0  0  0  0  0  0  0
  -30.4187  -14.0976   22.9549 C   0  0  0  0  0  0  0  0  0  0  0  0
  -28.9166  -21.3480   25.2077 C   0  0  0  0  0  0  0  0  0  1  0  0
  -28.0530  -22.8271   18.0079 C   0  0  1  0  0  0  0  0  0  0  0  0
  -27.0083  -19.2723   17.2072 C   0  0  2  0  0  0  0  0  0  0  0  0
  -31.5309  -15.1613   22.9810 C   0  0  1  0  0  0  0  0  0  0  0  0
  -28.6567  -20.5896   26.5349 C   0  0  0  0  0  0  0  0  0  0  0  0
  -27.2692  -24.0366   17.4246 C   0  0  0  0  0  0  0  0  0  0  0  0
  -32.0791  -17.0809   27.8840 C   0  0  0  0  0  0  0  0  0  0  0  0
  -25.8551  -11.5265   20.5854 N   0  0  0  0  0  0  0  0  0  0  0  0
  -31.0503  -17.8148   27.1741 N   0  0  0  0  0  0  0  0  0  0  0  0
  -26.2536  -12.7943   20.3853 N   0  0  0  0  0  0  0  0  0  0  0  0
  -29.5807  -18.3675   25.6943 N   0  3  0  0  0  0  0  0  0  0  0  0
  -30.2688  -23.0006   19.0960 N   0  0  0  0  0  0  0  0  0  0  0  0
  -30.0505  -12.3331   20.5555 N   0  0  0  0  0  0  0  0  0  0  0  0
  -25.4690  -15.0269   20.2821 N   0  0  0  0  0  0  0  0  0  0  0  0
  -21.7309  -12.6483   21.1568 N   0  0  0  0  0  0  0  0  0  0  0  0
  -33.0505  -25.3454   19.3410 N   0  0  0  0  0  0  0  0  0  0  0  0
  -27.7408  -21.5509   17.3738 N   0  0  0  0  0  0  0  0  0  0  0  0
  -30.9089  -12.7355   22.7553 N   0  0  0  0  0  0  0  0  0  0  0  0
  -27.2799  -18.0131   17.9567 N   0  3  0  0  0  0  0  0  0  0  0  0
  -22.5510  -14.7566   20.7810 O   0  0  0  0  0  0  0  0  0  0  0  0
  -30.7467  -25.4469   19.6641 O   0  0  0  0  0  0  0  0  0  0  0  0
  -30.0587  -23.1257   16.7773 O   0  0  0  0  0  0  0  0  0  0  0  0
  -27.0434  -20.4717   19.3042 O   0  0  0  0  0  0  0  0  0  0  0  0
  -32.0798  -11.4679   21.2273 O   0  0  0  0  0  0  0  0  0  0  0  0
  -21.4169   -7.1227   21.7930 O   0  0  0  0  0  0  0  0  0  0  0  0
  -30.2630  -21.8173   25.1502 O   0  0  0  0  0  0  0  0  0  1  0  0
  -23.3617   -3.4079   25.3737 F   0  0  0  0  0  0  0  0  0  0  0  0
  -20.0082   -6.4903   24.0861 F   0  0  0  0  0  0  0  0  0  0  0  0
  1  2  1  0  0  0  0
  1  5  2  0  0  0  0
  2  6  2  0  0  0  0
  3  8  2  0  0  0  0
  3 16  1  0  0  0  0
  4  9  1  0  0  0  0
  4 16  2  0  0  0  0
  5 18  1  0  0  0  0
  6 20  1  0  0  0  0
  7 10  2  0  0  0  0
  7 19  1  0  0  0  0
  8 22  1  0  0  0  0
  9 22  2  0  0  0  0
 10 23  1  0  0  0  0
 11 12  2  0  0  0  0
 11 24  1  0  0  0  0
 12 25  1  0  0  0  0
 13 21  1  0  0  0  0
 13 23  2  0  0  0  0
 14 25  2  0  0  0  0
 14 26  1  0  0  0  0
 15 28  2  0  0  0  0
 15 72  1  0  0  0  0
 16 27  1  0  0  0  0
 17 27  1  0  0  0  0
 17 29  2  0  0  0  0
 17 31  1  0  0  0  0
 18 20  2  0  0  0  0
 18 36  1  0  0  0  0
 19 21  2  0  0  0  0
 19 37  1  0  0  0  0
 20 45  1  0  0  0  0
 21 38  1  0  0  0  0
 22 88  1  0  0  0  0
 23 89  1  0  0  0  0
 24 26  2  0  0  0  0
 24 88  1  0  0  0  0
 25 90  1  0  0  0  0
 26 91  1  0  0  0  0
 27 71  2  0  0  0  0
 28 68  1  0  0  0  0
 28 74  1  0  0  0  0
 29 73  1  0  0  0  0
 29 77  1  0  0  0  0
 30 60  1  0  0  0  0
 30 72  1  0  0  0  0
 30 74  2  0  0  0  0
 31 78  1  0  0  0  0
 31 83  2  0  0  0  0
 32 46  1  0  0  0  0
 32 79  1  0  0  0  0
 32 84  2  0  0  0  0
 33 65  1  0  0  0  0
 33 75  1  0  0  0  0
 33 85  2  0  0  0  0
 34 66  1  0  0  0  0
 34 80  1  0  0  0  0
 34 86  2  0  0  0  0
 35 76  1  0  0  0  0
 35 81  1  0  0  0  0
 35 87  2  0  0  0  0
 36 39  1  0  0  0  0
 37 46  1  0  0  0  0
 38 75  1  0  0  0  0
 39 41  1  0  0  0  0
 40 42  1  0  0  0  0
 40 43  1  0  0  0  0
 41 45  1  0  0  0  0
 42 47  1  0  0  0  0
 43 76  1  0  0  0  0
 44 47  1  0  0  0  0
 44 76  1  0  0  0  0
 45 79  1  0  0  0  0
 46 75  1  0  0  0  0
 47 73  1  0  0  0  0
 48 61  1  0  0  0  0
 49 66  1  0  0  0  0
 50 68  1  0  0  0  0
 51 68  1  0  0  0  0
 52 69  1  0  0  0  0
 53 69  1  0  0  0  0
 54 69  1  0  0  0  0
 55 70  1  0  0  0  0
 56 70  1  0  0  0  0
 57 70  1  0  0  0  0
 58 81  1  0  0  0  0
 59 82  1  0  0  0  0
 60 62  1  0  0  0  0
 61 67  1  0  0  0  0
 62 67  1  0  0  0  0
 63 67  1  0  0  0  0
 63 81  1  0  0  0  0
 64 68  1  0  0  0  0
 64 89  1  0  0  0  0
 65 69  1  0  0  0  0
 65 80  1  0  0  0  0
 66 82  1  0  0  0  0
 70 72  1  0  0  0  0
 71 73  1  0  0  0  0
M  CHG  2  74   1  82   1
M  ISO  4  35 100  64 101  81 100  89 101
M  END
> <Batch ID>
0066

> <Smiles>
CCC(CCc1nc(C(C)(C)[101CH2:1][101O:1]c2ccc3c(c2)CN(C(=O)C(NC(=O)C(C)NC)C(C)(C)C)C(C(=O)NC2CCCc4ccccc42)C3)cn1C(C)(C)C)C[100N:0](C)[100C:0](=O)N1CCCC(n2nc(-c3ccc(Oc4ccc(F)cc4F)cc3)c(C(N)=O)c2N)C1

> <Shape>
0.215

> <Color>
0.190

> <Negative vol penalty>
0.000

$$$$

  -OEChem-04052318093D

 94102  0     1  0  0  0  0  0999 V2000
  -20.5470   -8.3885   18.7802 C   0  0  0  0  0  0  0  0  0  0  0  0
  -20.6840   -9.7723   18.7373 C   0  0  0  0  0  0  0  0  0  0  0  0
  -26.2507  -28.1964   20.9738 C   0  0  0  0  0  0  0  0  0  0  0  0
  -26.3253  -27.1611   23.1555 C   0  0  0  0  0  0  0  0  0  0  0  0
  -21.4252   -7.6257   19.5488 C   0  0  0  0  0  0  0  0  0  0  0  0
  -21.6987  -10.3942   19.4640 C   0  0  0  0  0  0  0  0  0  0  0  0
  -24.8477  -15.3936   17.8531 C   0  0  0  0  0  0  0  0  0  0  0  0
  -27.1592  -27.2526   20.4948 C   0  0  0  0  0  0  0  0  0  0  0  0
  -27.2339  -26.2172   22.6765 C   0  0  0  0  0  0  0  0  0  0  0  0
  -24.7180  -16.7370   18.2028 C   0  0  0  0  0  0  0  0  0  0  0  0
  -30.4943  -26.7181   20.6217 C   0  0  0  0  0  0  0  0  0  0  0  0
  -31.5519  -27.1777   19.8369 C   0  0  0  0  0  0  0  0  0  0  0  0
  -26.3997  -16.4491   19.9081 C   0  0  0  0  0  0  0  0  0  0  0  0
  -30.7949  -25.7942   18.0065 C   0  0  0  0  0  0  0  0  0  0  0  0
  -21.5593  -26.1181   20.6471 C   0  0  0  0  0  0  0  0  0  0  0  0
  -25.8338  -28.1507   22.3041 C   0  0  0  0  0  0  0  0  0  0  0  0
  -25.0620  -30.5232   22.8364 C   0  0  0  0  0  0  0  0  0  0  0  0
  -22.4571   -8.2377   20.2776 C   0  0  0  0  0  0  0  0  0  0  0  0
  -25.7480  -14.5639   18.5367 C   0  0  0  0  0  0  0  0  0  0  0  0
  -22.5907   -9.6389   20.2442 C   0  0  0  0  0  0  0  0  0  0  0  0
  -26.5408  -15.0962   19.5635 C   0  0  0  0  0  0  0  0  0  0  0  0
  -27.6508  -26.2630   21.3461 C   0  0  0  0  0  0  0  0  0  0  0  0
  -25.4920  -17.2643   19.2324 C   0  0  0  0  0  0  0  0  0  0  0  0
  -29.5870  -25.7965   20.0989 C   0  0  0  0  0  0  0  0  0  0  0  0
  -31.7022  -26.7158   18.5293 C   0  0  0  0  0  0  0  0  0  0  0  0
  -29.7373  -25.3346   18.7914 C   0  0  0  0  0  0  0  0  0  0  0  0
  -24.8958  -29.1257   22.7997 C   0  0  0  0  0  0  0  0  0  0  0  0
  -22.0887  -25.2107   19.7735 C   0  0  0  0  0  0  0  0  0  0  0  0
  -23.8973  -30.9929   23.3927 C   0  0  0  0  0  0  0  0  0  0  0  0
  -20.4181  -26.2458   18.7545 C   0  0  0  0  0  0  0  0  0  0  0  0
  -26.1700  -31.3249   22.4062 C   0  0  0  0  0  0  0  0  0  0  0  0
  -25.4759  -11.9461   20.3190 C   0  0  0  0  0  0  0  0  0  0  0  0
  -28.7177  -12.0243   20.2365 C   0  0  0  0  0  0  0  0  0  0  0  0
  -31.5621  -13.8676   19.8377 C   0  0  0  0  0  0  0  0  0  0  0  0
  -18.3748  -28.9709   23.6919 C   0  0  0  0  0  0  0  0  0  0  0  0
  -23.3527   -7.3756   21.1317 C   0  0  0  0  0  0  0  0  0  0  0  0
  -25.8953  -13.1234   18.1295 C   0  0  0  0  0  0  0  0  0  0  0  0
  -27.5367  -14.2524   20.3149 C   0  0  0  0  0  0  0  0  0  0  0  0
  -24.6330   -8.0790   21.5749 C   0  0  0  0  0  0  0  0  0  0  0  0
  -20.4015  -29.7443   26.3975 C   0  0  0  0  0  0  0  0  0  0  0  0
  -24.3204   -9.4782   22.0957 C   0  0  0  0  0  0  0  0  0  0  0  0
  -21.8057  -29.8089   25.7982 C   0  0  0  0  0  0  0  0  0  0  0  0
  -19.6086  -28.5865   25.8029 C   0  0  0  0  0  0  0  0  0  0  0  0
  -20.8990  -28.6993   23.6949 C   0  0  0  0  0  0  0  0  0  0  0  0
  -23.6941  -10.3480   20.9990 C   0  0  1  0  0  0  0  0  0  0  0  0
  -26.4730  -12.2459   19.2357 C   0  0  1  0  0  0  0  0  0  0  0  0
  -21.7473  -29.8565   24.2613 C   0  0  2  0  0  0  0  0  0  0  0  0
  -20.9515  -28.4843   16.6543 C   0  0  0  0  0  0  0  0  0  0  0  0
  -34.0629  -13.6612   19.8631 C   0  0  0  0  0  0  0  0  0  0  0  0
  -23.5156  -23.3658   18.6596 C   0  0  0  0  0  0  0  0  0  0  0  0
  -24.5428  -25.0689   20.1203 C   0  0  0  0  0  0  0  0  0  0  0  0
  -17.9240  -26.4467   18.0997 C   0  0  0  0  0  0  0  0  0  0  0  0
  -19.6239  -25.7718   16.4269 C   0  0  0  0  0  0  0  0  0  0  0  0
  -28.6737  -11.8949   23.2847 C   0  0  0  0  0  0  0  0  0  0  0  0
  -31.0638  -12.6401   23.2814 C   0  0  0  0  0  0  0  0  0  0  0  0
  -30.4312  -10.4802   22.2057 C   0  0  0  0  0  0  0  0  0  0  0  0
  -20.7281  -22.6338   20.9436 C   0  0  0  0  0  0  0  0  0  0  0  0
  -22.0748  -21.4818   22.6812 C   0  0  0  0  0  0  0  0  0  0  0  0
  -16.9382  -28.7145   21.7049 C   0  0  0  0  0  0  0  0  0  0  0  0
  -31.7786  -14.7395   17.0178 C   0  0  0  0  0  0  0  0  0  0  0  0
  -19.5900  -28.1476   17.2556 C   0  0  0  0  0  0  0  0  0  0  0  0
  -23.8628  -20.2809   20.4144 C   0  0  0  0  0  0  0  0  0  0  0  0
  -22.4996  -20.9666   20.2246 C   0  0  0  0  0  0  0  0  0  0  0  0
  -23.1228  -23.2917   21.1895 C   0  0  0  0  0  0  0  0  0  0  0  0
  -19.6907  -27.7852   20.5536 C   0  0  0  0  0  0  0  0  0  0  0  0
  -18.9941  -27.3577   21.8428 C   0  0  0  0  0  0  0  0  0  0  0  0
  -24.0921  -19.1811   19.3809 C   0  0  0  0  0  0  0  0  0  1  0  0
  -29.7938  -12.6557   21.0864 C   0  0  1  0  0  0  0  0  0  0  0  0
  -32.8082  -13.6292   19.0043 C   0  0  2  0  0  0  0  0  0  0  0  0
  -23.2567  -24.2142   19.9223 C   0  0  0  0  0  0  0  0  0  0  0  0
  -19.4347  -26.6432   17.7163 C   0  0  0  0  0  0  0  0  0  0  0  0
  -29.9706  -11.9334   22.4519 C   0  0  0  0  0  0  0  0  0  0  0  0
  -22.1377  -22.0672   21.2549 C   0  0  0  0  0  0  0  0  0  0  0  0
  -23.7184  -28.7333   23.2934 N   0  0  0  0  0  0  0  0  0  0  0  0
  -20.5278  -26.7446   19.9901 N   0  0  0  0  0  0  0  0  0  0  0  0
  -23.1342  -29.8911   23.6458 N   0  0  0  0  0  0  0  0  0  0  0  0
  -21.3632  -25.3111   18.6109 N   0  3  0  0  0  0  0  0  0  0  0  0
  -27.6396  -12.8484   19.8840 N   0  0  0  0  0  0  0  0  0  0  0  0
  -19.5784  -28.6604   24.3419 N   0  0  0  0  0  0  0  0  0  0  0  0
  -23.4618  -32.2367   23.6853 N   0  0  0  0  0  0  0  0  0  0  0  0
  -27.1866  -31.6095   23.3280 N   0  0  0  0  0  0  0  0  0  0  0  0
  -24.7121  -10.8187   20.0843 N   0  0  0  0  0  0  0  0  0  0  0  0
  -30.9991  -12.6835   20.2648 N   0  0  0  0  0  0  0  0  0  0  0  0
  -18.1768  -28.4265   22.4140 N   0  0  0  0  0  0  0  0  0  0  0  0
  -32.9338  -14.6746   17.9496 N   0  3  0  0  0  0  0  0  0  0  0  0
  -26.2479  -31.7893   21.2435 O   0  0  0  0  0  0  0  0  0  0  0  0
  -25.4058  -12.6822   21.2962 O   0  0  0  0  0  0  0  0  0  0  0  0
  -28.8331  -10.8455   19.8920 O   0  0  0  0  0  0  0  0  0  0  0  0
  -31.1332  -14.9918   20.0883 O   0  0  0  0  0  0  0  0  0  0  0  0
  -17.5195  -29.6887   24.2260 O   0  0  0  0  0  0  0  0  0  0  0  0
  -28.5371  -25.3417   20.8790 O   0  0  0  0  0  0  0  0  0  0  0  0
  -25.3660  -18.5849   19.5788 O   0  0  0  0  0  0  0  0  0  1  0  0
  -32.7169  -27.1584   17.7753 F   0  0  0  0  0  0  0  0  0  0  0  0
  -28.8682  -24.4501   18.2833 F   0  0  0  0  0  0  0  0  0  0  0  0
  1  2  1  0  0  0  0
  1  5  2  0  0  0  0
  2  6  2  0  0  0  0
  3  8  2  0  0  0  0
  3 16  1  0  0  0  0
  4  9  1  0  0  0  0
  4 16  2  0  0  0  0
  5 18  1  0  0  0  0
  6 20  1  0  0  0  0
  7 10  2  0  0  0  0
  7 19  1  0  0  0  0
  8 22  1  0  0  0  0
  9 22  2  0  0  0  0
 10 23  1  0  0  0  0
 11 12  2  0  0  0  0
 11 24  1  0  0  0  0
 12 25  1  0  0  0  0
 13 21  1  0  0  0  0
 13 23  2  0  0  0  0
 14 25  2  0  0  0  0
 14 26  1  0  0  0  0
 15 28  2  0  0  0  0
 15 75  1  0  0  0  0
 16 27  1  0  0  0  0
 17 27  1  0  0  0  0
 17 29  2  0  0  0  0
 17 31  1  0  0  0  0
 18 20  2  0  0  0  0
 18 36  1  0  0  0  0
 19 21  2  0  0  0  0
 19 37  1  0  0  0  0
 20 45  1  0  0  0  0
 21 38  1  0  0  0  0
 22 91  1  0  0  0  0
 23 92  1  0  0  0  0
 24 26  2  0  0  0  0
 24 91  1  0  0  0  0
 25 93  1  0  0  0  0
 26 94  1  0  0  0  0
 27 74  2  0  0  0  0
 28 70  1  0  0  0  0
 28 77  1  0  0  0  0
 29 76  1  0  0  0  0
 29 80  1  0  0  0  0
 30 71  1  0  0  0  0
 30 75  1  0  0  0  0
 30 77  2  0  0  0  0
 31 81  1  0  0  0  0
 31 86  2  0  0  0  0
 32 46  1  0  0  0  0
 32 82  1  0  0  0  0
 32 87  2  0  0  0  0
 33 68  1  0  0  0  0
 33 78  1  0  0  0  0
 33 88  2  0  0  0  0
 34 69  1  0  0  0  0
 34 83  1  0  0  0  0
 34 89  2  0  0  0  0
 35 79  1  0  0  0  0
 35 84  1  0  0  0  0
 35 90  2  0  0  0  0
 36 39  1  0  0  0  0
 37 46  1  0  0  0  0
 38 78  1  0  0  0  0
 39 41  1  0  0  0  0
 40 42  1  0  0  0  0
 40 43  1  0  0  0  0
 41 45  1  0  0  0  0
 42 47  1  0  0  0  0
 43 79  1  0  0  0  0
 44 47  1  0  0  0  0
 44 79  1  0  0  0  0
 45 82  1  0  0  0  0
 46 78  1  0  0  0  0
 47 76  1  0  0  0  0
 48 61  1  0  0  0  0
 49 69  1  0  0  0  0
 50 70  1  0  0  0  0
 51 70  1  0  0  0  0
 52 71  1  0  0  0  0
 53 71  1  0  0  0  0
 54 72  1  0  0  0  0
 55 72  1  0  0  0  0
 56 72  1  0  0  0  0
 57 73  1  0  0  0  0
 58 73  1  0  0  0  0
 59 84  1  0  0  0  0
 60 85  1  0  0  0  0
 61 71  1  0  0  0  0
 62 63  1  0  0  0  0
 62 67  1  0  0  0  0
 63 73  1  0  0  0  0
 64 70  1  0  0  0  0
 64 73  1  0  0  0  0
 65 66  1  0  0  0  0
 65 75  1  0  0  0  0
 66 84  1  0  0  0  0
 67 92  1  0  0  0  0
 68 72  1  0  0  0  0
 68 83  1  0  0  0  0
 69 85  1  0  0  0  0
 74 76  1  0  0  0  0
M  CHG  2  77   1  85   1
M  ISO  4  35 100  67 101  84 100  92 101
M  END
> <Batch ID>
0066

> <Smiles>
CCC(C)(C)c1nc(C(C)(C)CC(C)(C)CC[101CH2:1][101O:1]c2ccc3c(c2)CN(C(=O)C(NC(=O)C(C)NC)C(C)(C)C)C(C(=O)NC2CCCc4ccccc42)C3)cn1CC[100N:0](C)[100C:0](=O)N1CCCC(n2nc(-c3ccc(Oc4ccc(F)cc4F)cc3)c(C(N)=O)c2N)C1

> <Shape>
0.252

> <Color>
0.062

> <Negative vol penalty>
0.000

$$$$

  -OEChem-04052318093D

102110  0     1  0  0  0  0  0999 V2000
  -16.9693  -28.6120   24.4111 C   0  0  0  0  0  0  0  0  0  0  0  0
  -17.6053  -27.7111   23.5630 C   0  0  0  0  0  0  0  0  0  0  0  0
  -31.3418  -20.3238   18.3135 C   0  0  0  0  0  0  0  0  0  0  0  0
  -29.4613  -20.7076   19.7810 C   0  0  0  0  0  0  0  0  0  0  0  0
  -17.3639  -29.9492   24.4282 C   0  0  0  0  0  0  0  0  0  0  0  0
  -18.6357  -28.1471   22.7307 C   0  0  0  0  0  0  0  0  0  0  0  0
  -22.6013  -24.9978   22.7355 C   0  0  0  0  0  0  0  0  0  0  0  0
  -30.8243  -21.2501   17.4081 C   0  0  0  0  0  0  0  0  0  0  0  0
  -28.9439  -21.6340   18.8757 C   0  0  0  0  0  0  0  0  0  0  0  0
  -22.4907  -23.8335   21.9766 C   0  0  0  0  0  0  0  0  0  0  0  0
  -30.1833  -23.7800   14.8776 C   0  0  0  0  0  0  0  0  0  0  0  0
  -31.0650  -24.7089   14.3250 C   0  0  0  0  0  0  0  0  0  0  0  0
  -23.7817  -24.8640   20.2185 C   0  0  0  0  0  0  0  0  0  0  0  0
  -31.5712  -25.5432   16.5352 C   0  0  0  0  0  0  0  0  0  0  0  0
  -25.5264  -12.1432   21.3866 C   0  0  0  0  0  0  0  0  0  0  0  0
  -30.6602  -20.0524   19.4999 C   0  0  0  0  0  0  0  0  0  0  0  0
  -32.0775  -19.3498   21.5012 C   0  0  0  0  0  0  0  0  0  0  0  0
  -18.4061  -30.3998   23.6028 C   0  0  0  0  0  0  0  0  0  0  0  0
  -23.2949  -26.1096   22.2362 C   0  0  0  0  0  0  0  0  0  0  0  0
  -19.0437  -29.4918   22.7359 C   0  0  0  0  0  0  0  0  0  0  0  0
  -23.9018  -26.0403   20.9742 C   0  0  0  0  0  0  0  0  0  0  0  0
  -29.6254  -21.9053   17.6892 C   0  0  0  0  0  0  0  0  0  0  0  0
  -23.0784  -23.7675   20.7167 C   0  0  0  0  0  0  0  0  0  0  0  0
  -29.9955  -23.7328   16.2590 C   0  0  0  0  0  0  0  0  0  0  0  0
  -31.7590  -25.5905   15.1538 C   0  0  0  0  0  0  0  0  0  0  0  0
  -30.6895  -24.6144   17.0877 C   0  0  0  0  0  0  0  0  0  0  0  0
  -31.1939  -19.0952   20.4353 C   0  0  0  0  0  0  0  0  0  0  0  0
  -24.3041  -11.9618   20.7121 C   0  0  0  0  0  0  0  0  0  0  0  0
  -25.9246  -13.4114   21.0406 C   0  0  0  0  0  0  0  0  0  0  0  0
  -32.2785  -18.1213   22.0815 C   0  0  0  0  0  0  0  0  0  0  0  0
  -32.6641  -20.5863   21.9287 C   0  0  0  0  0  0  0  0  0  0  0  0
  -22.5114  -29.1058   21.5199 C   0  0  0  0  0  0  0  0  0  0  0  0
  -25.7042  -29.4131   21.0364 C   0  0  0  0  0  0  0  0  0  0  0  0
  -28.6824  -27.9125   20.3115 C   0  0  0  0  0  0  0  0  0  0  0  0
  -29.1412  -13.1462   22.3691 C   0  0  0  0  0  0  0  0  0  0  0  0
  -18.7658  -31.8643   23.6219 C   0  0  0  0  0  0  0  0  0  0  0  0
  -23.4279  -27.3487   23.0784 C   0  0  0  0  0  0  0  0  0  0  0  0
  -24.6746  -27.1991   20.4011 C   0  0  0  0  0  0  0  0  0  0  0  0
  -20.1176  -32.1679   22.9810 C   0  0  0  0  0  0  0  0  0  0  0  0
  -32.3403  -13.4549   21.0667 C   0  0  0  0  0  0  0  0  0  0  0  0
  -20.2508  -31.4415   21.6463 C   0  0  0  0  0  0  0  0  0  0  0  0
  -32.5065  -14.9588   20.8528 C   0  0  0  0  0  0  0  0  0  0  0  0
  -30.9394  -13.0008   20.6745 C   0  0  0  0  0  0  0  0  0  0  0  0
  -29.9995  -15.2287   21.1978 C   0  0  0  0  0  0  0  0  0  0  0  0
  -20.1822  -29.9214   21.8362 C   0  0  1  0  0  0  0  0  0  0  0  0
  -23.7194  -28.6009   22.2572 C   0  0  1  0  0  0  0  0  0  0  0  0
  -31.4019  -15.7444   21.5810 C   0  0  2  0  0  0  0  0  0  0  0  0
  -24.9207  -14.2661   17.1040 C   0  0  0  0  0  0  0  0  0  0  0  0
  -31.1110  -28.4285   19.9466 C   0  0  0  0  0  0  0  0  0  0  0  0
  -27.1361  -12.5399   24.6440 C   0  0  0  0  0  0  0  0  0  0  0  0
  -27.9921  -14.9043   24.6320 C   0  0  0  0  0  0  0  0  0  0  0  0
  -25.0522  -30.5104   18.2650 C   0  0  0  0  0  0  0  0  0  0  0  0
  -27.4385  -30.1104   17.6216 C   0  0  0  0  0  0  0  0  0  0  0  0
  -26.8946  -31.7114   19.4556 C   0  0  0  0  0  0  0  0  0  0  0  0
  -22.6580  -15.8977   20.7532 C   0  0  0  0  0  0  0  0  0  0  0  0
  -24.7972  -16.4997   21.8655 C   0  0  0  0  0  0  0  0  0  0  0  0
  -26.3745  -15.7935   19.2743 C   0  0  0  0  0  0  0  0  0  0  0  0
  -29.5053  -26.2136   22.5909 C   0  0  0  0  0  0  0  0  0  0  0  0
  -23.4385  -10.7706   20.7284 C   0  0  0  0  0  0  0  0  0  0  0  0
  -27.1191  -14.1884   21.4189 C   0  0  0  0  0  0  0  0  0  0  0  0
  -24.2502  -15.2126   18.1026 C   0  0  0  0  0  0  0  0  0  0  0  0
  -23.4291  -18.9219   20.6465 C   0  0  0  0  0  0  0  0  0  0  0  0
  -23.5163  -20.2600   19.8997 C   0  0  0  0  0  0  0  0  0  0  0  0
  -24.0621  -17.7900   19.8177 C   0  0  0  0  0  0  0  0  0  0  0  0
  -22.8685  -21.3988   20.6798 C   0  0  0  0  0  0  0  0  0  1  0  0
  -26.6296  -29.2295   19.8578 C   0  0  1  0  0  0  0  0  0  0  0  0
  -30.0507  -28.0244   20.9592 C   0  0  2  0  0  0  0  0  0  0  0  0
  -27.2185  -13.8435   23.8598 C   0  0  0  0  0  0  0  0  0  0  0  0
  -26.4876  -30.3691   18.8097 C   0  0  0  0  0  0  0  0  0  0  0  0
  -24.1124  -16.3657   20.4780 C   0  0  0  0  0  0  0  0  0  0  0  0
  -24.9148  -15.2954   19.5335 C   0  0  2  0  0  0  0  0  0  0  0  0
  -22.3301  -10.6967   21.8318 C   0  0  0  0  0  0  0  0  0  0  0  0
  -22.9065  -10.7350   23.2464 C   0  0  0  0  0  0  0  0  0  0  0  0
  -21.4804   -9.4380   21.6397 C   0  0  0  0  0  0  0  0  0  0  0  0
  -30.8570  -17.8061   20.3415 N   0  0  0  0  0  0  0  0  0  0  0  0
  -23.9490  -13.0294   19.9924 N   0  0  0  0  0  0  0  0  0  0  0  0
  -24.9542  -13.8939   20.2126 N   0  0  0  0  0  0  0  0  0  0  0  0
  -31.5324  -17.2397   21.3560 N   0  0  0  0  0  0  0  0  0  0  0  0
  -24.7712  -28.3908   21.2602 N   0  0  0  0  0  0  0  0  0  0  0  0
  -29.9157  -13.7715   21.3808 N   0  0  0  0  0  0  0  0  0  0  0  0
  -33.0190  -17.7198   23.1365 N   0  0  0  0  0  0  0  0  0  0  0  0
  -32.3508  -21.7545   21.2205 N   0  0  0  0  0  0  0  0  0  0  0  0
  -21.4424  -29.4174   22.3383 N   0  0  0  0  0  0  0  0  0  0  0  0
  -27.9724  -29.0903   20.4109 N   0  0  0  0  0  0  0  0  0  0  0  0
  -27.8326  -13.6178   22.5526 N   0  0  0  0  0  0  0  0  0  0  0  0
  -30.4477  -26.7196   21.5600 N   0  3  0  0  0  0  0  0  0  0  0  0
  -33.4558  -20.6507   22.8995 O   0  0  0  0  0  0  0  0  0  0  0  0
  -22.5471  -29.2066   20.2992 O   0  0  0  0  0  0  0  0  0  0  0  0
  -25.8103  -30.4229   21.7369 O   0  0  0  0  0  0  0  0  0  0  0  0
  -28.2847  -26.8843   19.7681 O   0  0  0  0  0  0  0  0  0  0  0  0
  -29.5904  -12.2123   23.0461 O   0  0  0  0  0  0  0  0  0  0  0  0
  -21.4619  -11.8200   21.6677 O   0  0  0  0  0  0  0  0  0  0  0  0
  -29.1204  -22.8095   16.8061 O   0  0  0  0  0  0  0  0  0  0  0  0
  -22.9706  -22.6240   19.9680 O   0  0  0  0  0  0  0  0  0  1  0  0
  -32.6068  -26.4814   14.6231 F   0  0  0  0  0  0  0  0  0  0  0  0
  -30.5140  -24.5729   18.4156 F   0  0  0  0  0  0  0  0  0  0  0  0
  -23.6039  -11.8678   23.4797 F   0  0  0  0  0  0  0  0  0  0  0  0
  -23.7350   -9.6908   23.4684 F   0  0  0  0  0  0  0  0  0  0  0  0
  -21.9256  -10.6792   24.1764 F   0  0  0  0  0  0  0  0  0  0  0  0
  -22.2302   -8.3162   21.7213 F   0  0  0  0  0  0  0  0  0  0  0  0
  -20.8703   -9.4323   20.4337 F   0  0  0  0  0  0  0  0  0  0  0  0
  -20.5164   -9.3470   22.5835 F   0  0  0  0  0  0  0  0  0  0  0  0
  1  2  1  0  0  0  0
  1  5  2  0  0  0  0
  2  6  2  0  0  0  0
  3  8  2  0  0  0  0
  3 16  1  0  0  0  0
  4  9  1  0  0  0  0
  4 16  2  0  0  0  0
  5 18  1  0  0  0  0
  6 20  1  0  0  0  0
  7 10  2  0  0  0  0
  7 19  1  0  0  0  0
  8 22  1  0  0  0  0
  9 22  2  0  0  0  0
 10 23  1  0  0  0  0
 11 12  2  0  0  0  0
 11 24  1  0  0  0  0
 12 25  1  0  0  0  0
 13 21  1  0  0  0  0
 13 23  2  0  0  0  0
 14 25  2  0  0  0  0
 14 26  1  0  0  0  0
 15 28  1  0  0  0  0
 15 29  2  0  0  0  0
 16 27  1  0  0  0  0
 17 27  1  0  0  0  0
 17 30  2  0  0  0  0
 17 31  1  0  0  0  0
 18 20  2  0  0  0  0
 18 36  1  0  0  0  0
 19 21  2  0  0  0  0
 19 37  1  0  0  0  0
 20 45  1  0  0  0  0
 21 38  1  0  0  0  0
 22 93  1  0  0  0  0
 23 94  1  0  0  0  0
 24 26  2  0  0  0  0
 24 93  1  0  0  0  0
 25 95  1  0  0  0  0
 26 96  1  0  0  0  0
 27 75  2  0  0  0  0
 28 59  1  0  0  0  0
 28 76  2  0  0  0  0
 29 60  1  0  0  0  0
 29 77  1  0  0  0  0
 30 78  1  0  0  0  0
 30 81  1  0  0  0  0
 31 82  1  0  0  0  0
 31 87  2  0  0  0  0
 32 46  1  0  0  0  0
 32 83  1  0  0  0  0
 32 88  2  0  0  0  0
 33 66  1  0  0  0  0
 33 79  1  0  0  0  0
 33 89  2  0  0  0  0
 34 67  1  0  0  0  0
 34 84  1  0  0  0  0
 34 90  2  0  0  0  0
 35 80  1  0  0  0  0
 35 85  1  0  0  0  0
 35 91  2  0  0  0  0
 36 39  1  0  0  0  0
 37 46  1  0  0  0  0
 38 79  1  0  0  0  0
 39 41  1  0  0  0  0
 40 42  1  0  0  0  0
 40 43  1  0  0  0  0
 41 45  1  0  0  0  0
 42 47  1  0  0  0  0
 43 80  1  0  0  0  0
 44 47  1  0  0  0  0
 44 80  1  0  0  0  0
 45 83  1  0  0  0  0
 46 79  1  0  0  0  0
 47 78  1  0  0  0  0
 48 61  1  0  0  0  0
 49 67  1  0  0  0  0
 50 68  1  0  0  0  0
 51 68  1  0  0  0  0
 52 69  1  0  0  0  0
 53 69  1  0  0  0  0
 54 69  1  0  0  0  0
 55 70  1  0  0  0  0
 56 70  1  0  0  0  0
 57 71  1  0  0  0  0
 58 86  1  0  0  0  0
 59 72  1  0  0  0  0
 60 85  1  0  0  0  0
 61 71  1  0  0  0  0
 62 63  1  0  0  0  0
 62 64  1  0  0  0  0
 63 65  1  0  0  0  0
 64 70  1  0  0  0  0
 65 94  1  0  0  0  0
 66 69  1  0  0  0  0
 66 84  1  0  0  0  0
 67 86  1  0  0  0  0
 68 85  1  0  0  0  0
 70 71  1  0  0  0  0
 71 77  1  0  0  0  0
 72 73  1  0  0  0  0
 72 74  1  0  0  0  0
 72 92  1  0  0  0  0
 73 97  1  0  0  0  0
 73 98  1  0  0  0  0
 73 99  1  0  0  0  0
 74100  1  0  0  0  0
 74101  1  0  0  0  0
 74102  1  0  0  0  0
 75 78  1  0  0  0  0
 76 77  1  0  0  0  0
M  CHG  1  86   1
M  ISO  4  35 100  65 101  85 100  94 101
M  END
> <Batch ID>
0066

> <Smiles>
CCC(C)(n1nc(CC(O)(C(F)(F)F)C(F)(F)F)cc1C[100N:0](C(C)C)[100C:0](=O)N1CCCC(n2nc(-c3ccc(Oc4ccc(F)cc4F)cc3)c(C(N)=O)c2N)C1)C(C)(C)CCC[101CH2:1][101O:1]c1ccc2c(c1)CN(C(=O)C(NC(=O)C(C)NC)C(C)(C)C)C(C(=O)NC1CCCc3ccccc31)C2

> <Shape>
0.260

> <Color>
0.082

> <Negative vol penalty>
0.000

$$$$

  -OEChem-04052318093D

 89 97  0     1  0  0  0  0  0999 V2000
  -26.6372  -19.7109   13.7955 C   0  0  0  0  0  0  0  0  0  0  0  0
  -26.5876  -19.7471   15.1853 C   0  0  0  0  0  0  0  0  0  0  0  0
  -26.7845  -12.6959   21.8319 C   0  0  0  0  0  0  0  0  0  0  0  0
  -26.1769  -14.2882   20.1194 C   0  0  0  0  0  0  0  0  0  0  0  0
  -26.9788  -20.8585   13.0812 C   0  0  0  0  0  0  0  0  0  0  0  0
  -26.8808  -20.9307   15.8617 C   0  0  0  0  0  0  0  0  0  0  0  0
  -23.5782  -21.9173   19.5717 C   0  0  0  0  0  0  0  0  0  0  0  0
  -25.4679  -12.2373   21.8727 C   0  0  0  0  0  0  0  0  0  0  0  0
  -24.8602  -13.8295   20.1602 C   0  0  0  0  0  0  0  0  0  0  0  0
  -23.7279  -21.2080   20.7627 C   0  0  0  0  0  0  0  0  0  0  0  0
  -22.3448  -10.4009   22.1709 C   0  0  0  0  0  0  0  0  0  0  0  0
  -22.1389   -9.0215   22.1949 C   0  0  0  0  0  0  0  0  0  0  0  0
  -24.8381  -23.1094   21.7484 C   0  0  0  0  0  0  0  0  0  0  0  0
  -23.2769   -8.8147   20.0737 C   0  0  0  0  0  0  0  0  0  0  0  0
  -28.3164  -18.8647   20.7527 C   0  0  0  0  0  0  0  0  0  0  0  0
  -27.1391  -13.7214   20.9553 C   0  0  0  0  0  0  0  0  0  0  0  0
  -29.5415  -13.7169   20.0975 C   0  0  0  0  0  0  0  0  0  0  0  0
  -27.2669  -22.0593   13.7488 C   0  0  0  0  0  0  0  0  0  0  0  0
  -24.0678  -23.2262   19.4564 C   0  0  0  0  0  0  0  0  0  0  0  0
  -27.2279  -22.0951   15.1557 C   0  0  0  0  0  0  0  0  0  0  0  0
  -24.6911  -23.8340   20.5557 C   0  0  0  0  0  0  0  0  0  0  0  0
  -29.1808  -19.9297   20.9039 C   0  0  0  0  0  0  0  0  0  0  0  0
  -24.5057  -12.8041   21.0368 C   0  0  0  0  0  0  0  0  0  0  0  0
  -24.3605  -21.8030   21.8503 C   0  0  0  0  0  0  0  0  0  0  0  0
  -23.0166  -10.9872   21.0982 C   0  0  0  0  0  0  0  0  0  0  0  0
  -22.6050   -8.2284   21.1463 C   0  0  0  0  0  0  0  0  0  0  0  0
  -23.4827  -10.1941   20.0497 C   0  0  0  0  0  0  0  0  0  0  0  0
  -28.4989  -14.1959   20.9131 C   0  0  0  0  0  0  0  0  0  0  0  0
  -28.9203  -20.7630   21.9725 C   0  0  0  0  0  0  0  0  0  0  0  0
  -30.6242  -14.4925   20.4333 C   0  0  0  0  0  0  0  0  0  0  0  0
  -27.1261  -19.5064   22.5799 C   0  0  0  0  0  0  0  0  0  0  0  0
  -29.5322  -12.6649   19.1233 C   0  0  0  0  0  0  0  0  0  0  0  0
  -26.2452  -24.6542   17.6333 C   0  0  0  0  0  0  0  0  0  0  0  0
  -25.1322  -27.3352   19.0809 C   0  0  0  0  0  0  0  0  0  0  0  0
  -31.6429  -20.0280   22.1795 C   0  0  0  0  0  0  0  0  0  0  0  0
  -23.5623  -28.7388   21.7664 C   0  0  0  0  0  0  0  0  0  0  0  0
  -27.6773  -23.2615   12.9357 C   0  0  0  0  0  0  0  0  0  0  0  0
  -23.8747  -23.9873   18.1735 C   0  0  0  0  0  0  0  0  0  0  0  0
  -25.2163  -25.2440   20.4899 C   0  0  0  0  0  0  0  0  0  0  0  0
  -27.6086  -24.5741   13.7120 C   0  0  0  0  0  0  0  0  0  0  0  0
  -30.3940  -17.2615   24.4461 C   0  0  0  0  0  0  0  0  0  0  0  0
  -28.2535  -24.4165   15.0853 C   0  0  0  0  0  0  0  0  0  0  0  0
  -31.0916  -16.1800   23.6261 C   0  0  0  0  0  0  0  0  0  0  0  0
  -30.9037  -18.6490   24.0688 C   0  0  0  0  0  0  0  0  0  0  0  0
  -30.4390  -17.8280   21.7644 C   0  0  0  0  0  0  0  0  0  0  0  0
  -27.5151  -23.3666   15.9244 C   0  0  1  0  0  0  0  0  0  0  0  0
  -24.8690  -25.1315   18.0021 C   0  0  1  0  0  0  0  0  0  0  0  0
  -30.9862  -16.4293   22.1049 C   0  0  2  0  0  0  0  0  0  0  0  0
  -29.7899  -21.9481   22.2348 C   0  0  0  0  0  0  0  0  0  0  0  0
  -22.8302  -30.9576   22.6821 C   0  0  0  0  0  0  0  0  0  0  0  0
  -23.4650  -19.0578   23.6642 C   0  0  0  0  0  0  0  0  0  0  0  0
  -30.3548  -19.0257   18.8389 C   0  0  0  0  0  0  0  0  0  0  0  0
  -30.1256  -21.4484   19.0824 C   0  0  0  0  0  0  0  0  0  0  0  0
  -32.4675  -21.5664   20.4827 C   0  0  0  0  0  0  0  0  0  0  0  0
  -28.0168  -27.9674   19.8486 C   0  0  0  0  0  0  0  0  0  0  0  0
  -27.1383  -29.6130   21.5185 C   0  0  0  0  0  0  0  0  0  0  0  0
  -26.6832  -29.9415   19.0879 C   0  0  0  0  0  0  0  0  0  0  0  0
  -20.7160  -27.9278   21.7730 C   0  0  0  0  0  0  0  0  0  0  0  0
  -25.9707  -19.2680   23.5232 C   0  0  0  0  0  0  0  0  0  0  0  0
  -25.4846  -28.0977   20.3352 C   0  0  1  0  0  0  0  0  0  0  0  0
  -22.4285  -29.7441   21.8582 C   0  0  2  0  0  0  0  0  0  0  0  0
  -24.6297  -19.6943   22.9164 C   0  0  2  0  0  0  0  0  0  1  0  0
  -30.3101  -20.1429   19.9634 C   0  0  0  0  0  0  0  0  0  0  0  0
  -31.7654  -20.2043   20.6875 C   0  0  2  0  0  0  0  0  0  0  0  0
  -26.8226  -28.8776   20.1985 C   0  0  0  0  0  0  0  0  0  0  0  0
  -32.7475  -19.1158   20.2054 C   0  0  0  0  0  0  0  0  0  0  0  0
  -27.2748  -18.6220   21.5752 N   0  0  0  0  0  0  0  0  0  0  0  0
  -28.8845  -15.1981   21.7074 N   0  0  0  0  0  0  0  0  0  0  0  0
  -27.8977  -20.5806   22.8335 N   0  0  0  0  0  0  0  0  0  0  0  0
  -30.1815  -15.3551   21.3926 N   0  0  0  0  0  0  0  0  0  0  0  0
  -25.0090  -25.9447   19.2117 N   0  0  0  0  0  0  0  0  0  0  0  0
  -31.0355  -18.8538   22.6260 N   0  0  0  0  0  0  0  0  0  0  0  0
  -31.9021  -14.5139   19.9988 N   0  0  0  0  0  0  0  0  0  0  0  0
  -28.3355  -11.9695   18.9024 N   0  0  0  0  0  0  0  0  0  0  0  0
  -26.2914  -23.9200   16.4635 N   0  0  0  0  0  0  0  0  0  0  0  0
  -24.3315  -28.9381   20.6395 N   0  0  0  0  0  0  0  0  0  0  0  0
  -21.2331  -29.1201   22.4927 N   0  3  0  0  0  0  0  0  0  0  0  0
  -30.5588  -12.3400   18.4800 O   0  0  0  0  0  0  0  0  0  0  0  0
  -27.1950  -24.9326   18.3558 O   0  0  0  0  0  0  0  0  0  0  0  0
  -24.9651  -27.9514   18.0254 O   0  0  0  0  0  0  0  0  0  0  0  0
  -32.0756  -20.9045   22.9326 O   0  0  0  0  0  0  0  0  0  0  0  0
  -23.7492  -27.8666   22.6118 O   0  0  0  0  0  0  0  0  0  0  0  0
  -23.2209  -12.3567   21.0762 O   0  0  0  0  0  0  0  0  0  0  0  0
  -24.5085  -21.1128   23.0137 O   0  0  0  0  0  0  0  0  0  1  0  0
  -22.4086   -6.9037   21.1703 F   0  0  0  0  0  0  0  0  0  0  0  0
  -24.1299  -10.7516   19.0171 F   0  0  0  0  0  0  0  0  0  0  0  0
  -32.3210  -17.8658   20.4775 F   0  0  0  0  0  0  0  0  0  0  0  0
  -33.9560  -19.2550   20.8059 F   0  0  0  0  0  0  0  0  0  0  0  0
  -32.9696  -19.1910   18.8745 F   0  0  0  0  0  0  0  0  0  0  0  0
  1  2  1  0  0  0  0
  1  5  2  0  0  0  0
  2  6  2  0  0  0  0
  3  8  2  0  0  0  0
  3 16  1  0  0  0  0
  4  9  1  0  0  0  0
  4 16  2  0  0  0  0
  5 18  1  0  0  0  0
  6 20  1  0  0  0  0
  7 10  2  0  0  0  0
  7 19  1  0  0  0  0
  8 23  1  0  0  0  0
  9 23  2  0  0  0  0
 10 24  1  0  0  0  0
 11 12  2  0  0  0  0
 11 25  1  0  0  0  0
 12 26  1  0  0  0  0
 13 21  1  0  0  0  0
 13 24  2  0  0  0  0
 14 26  2  0  0  0  0
 14 27  1  0  0  0  0
 15 22  1  0  0  0  0
 15 67  2  0  0  0  0
 16 28  1  0  0  0  0
 17 28  1  0  0  0  0
 17 30  2  0  0  0  0
 17 32  1  0  0  0  0
 18 20  2  0  0  0  0
 18 37  1  0  0  0  0
 19 21  2  0  0  0  0
 19 38  1  0  0  0  0
 20 46  1  0  0  0  0
 21 39  1  0  0  0  0
 22 29  2  0  0  0  0
 22 63  1  0  0  0  0
 23 83  1  0  0  0  0
 24 84  1  0  0  0  0
 25 27  2  0  0  0  0
 25 83  1  0  0  0  0
 26 85  1  0  0  0  0
 27 86  1  0  0  0  0
 28 68  2  0  0  0  0
 29 49  1  0  0  0  0
 29 69  1  0  0  0  0
 30 70  1  0  0  0  0
 30 73  1  0  0  0  0
 31 59  1  0  0  0  0
 31 67  1  0  0  0  0
 31 69  2  0  0  0  0
 32 74  1  0  0  0  0
 32 78  2  0  0  0  0
 33 47  1  0  0  0  0
 33 75  1  0  0  0  0
 33 79  2  0  0  0  0
 34 60  1  0  0  0  0
 34 71  1  0  0  0  0
 34 80  2  0  0  0  0
 35 64  1  0  0  0  0
 35 72  1  0  0  0  0
 35 81  2  0  0  0  0
 36 61  1  0  0  0  0
 36 76  1  0  0  0  0
 36 82  2  0  0  0  0
 37 40  1  0  0  0  0
 38 47  1  0  0  0  0
 39 71  1  0  0  0  0
 40 42  1  0  0  0  0
 41 43  1  0  0  0  0
 41 44  1  0  0  0  0
 42 46  1  0  0  0  0
 43 48  1  0  0  0  0
 44 72  1  0  0  0  0
 45 48  1  0  0  0  0
 45 72  1  0  0  0  0
 46 75  1  0  0  0  0
 47 71  1  0  0  0  0
 48 70  1  0  0  0  0
 50 61  1  0  0  0  0
 51 62  1  0  0  0  0
 52 63  1  0  0  0  0
 53 63  1  0  0  0  0
 54 64  1  0  0  0  0
 55 65  1  0  0  0  0
 56 65  1  0  0  0  0
 57 65  1  0  0  0  0
 58 77  1  0  0  0  0
 59 62  1  0  0  0  0
 60 65  1  0  0  0  0
 60 76  1  0  0  0  0
 61 77  1  0  0  0  0
 62 84  1  0  0  0  0
 63 64  1  0  0  0  0
 64 66  1  0  0  0  0
 66 87  1  0  0  0  0
 66 88  1  0  0  0  0
 66 89  1  0  0  0  0
 68 70  1  0  0  0  0
M  CHG  1  77   1
M  ISO  4  35 100  62 101  64 100  84 101
M  END
> <Batch ID>
0066

> <Smiles>
CNC(C)C(=O)NC(C(=O)N1Cc2cc([101O:1][101CH:1](C)Cc3ncc(C(C)(C)[100C:0](C)([100C:0](=O)N4CCCC(n5nc(-c6ccc(Oc7ccc(F)cc7F)cc6)c(C(N)=O)c5N)C4)C(F)(F)F)c(C)n3)ccc2CC1C(=O)NC1CCCc2ccccc21)C(C)(C)C

> <Shape>
0.232

> <Color>
0.061

> <Negative vol penalty>
0.000

$$$$

  -OEChem-04052318093D

 88 96  0     1  0  0  0  0  0999 V2000
  -29.4573  -30.6108   26.7939 C   0  0  0  0  0  0  0  0  0  0  0  0
  -28.8988  -29.6193   25.9935 C   0  0  0  0  0  0  0  0  0  0  0  0
  -24.4043   -9.1373   21.0850 C   0  0  0  0  0  0  0  0  0  0  0  0
  -22.4825  -10.6015   21.0813 C   0  0  0  0  0  0  0  0  0  0  0  0
  -28.7134  -31.7446   27.1181 C   0  0  0  0  0  0  0  0  0  0  0  0
  -27.5957  -29.7606   25.5177 C   0  0  0  0  0  0  0  0  0  0  0  0
  -27.1745  -28.5513   20.6182 C   0  0  0  0  0  0  0  0  0  0  0  0
  -23.5653   -8.0365   21.2576 C   0  0  0  0  0  0  0  0  0  0  0  0
  -21.6435   -9.5007   21.2538 C   0  0  0  0  0  0  0  0  0  0  0  0
  -27.1366  -27.1949   20.2982 C   0  0  0  0  0  0  0  0  0  0  0  0
  -21.9545   -4.8765   22.0597 C   0  0  0  0  0  0  0  0  0  0  0  0
  -22.3225   -3.9207   23.0066 C   0  0  0  0  0  0  0  0  0  0  0  0
  -24.7360  -27.3165   20.0937 C   0  0  0  0  0  0  0  0  0  0  0  0
  -22.2453   -5.6052   24.7368 C   0  0  0  0  0  0  0  0  0  0  0  0
  -23.8629  -10.4199   20.9969 C   0  0  0  0  0  0  0  0  0  0  0  0
  -25.1579  -12.1174   19.6008 C   0  0  0  0  0  0  0  0  0  0  0  0
  -27.4039  -31.9044   26.6381 C   0  0  0  0  0  0  0  0  0  0  0  0
  -25.9905  -29.2993   20.6892 C   0  0  0  0  0  0  0  0  0  0  0  0
  -26.8332  -30.8970   25.8369 C   0  0  0  0  0  0  0  0  0  0  0  0
  -24.7619  -28.6828   20.4124 C   0  0  0  0  0  0  0  0  0  0  0  0
  -22.1848   -8.2182   21.3420 C   0  0  0  0  0  0  0  0  0  0  0  0
  -25.9170  -26.5766   20.0387 C   0  0  0  0  0  0  0  0  0  0  0  0
  -21.7319   -6.1966   22.4513 C   0  0  0  0  0  0  0  0  0  0  0  0
  -22.4679   -4.2851   24.3452 C   0  0  0  0  0  0  0  0  0  0  0  0
  -21.8773   -6.5610   23.7899 C   0  0  0  0  0  0  0  0  0  0  0  0
  -24.7292  -11.5575   20.8192 C   0  0  0  0  0  0  0  0  0  0  0  0
  -25.9586  -13.1706   19.9699 C   0  0  0  0  0  0  0  0  0  0  0  0
  -26.8732  -23.1296   19.2966 C   0  0  0  0  0  0  0  0  0  0  0  0
  -26.8291  -20.9623   19.3970 C   0  0  0  0  0  0  0  0  0  0  0  0
  -24.8590  -11.7210   18.2557 C   0  0  0  0  0  0  0  0  0  0  0  0
  -24.4872  -30.9073   22.9823 C   0  0  0  0  0  0  0  0  0  0  0  0
  -22.5363  -31.7904   20.5458 C   0  0  0  0  0  0  0  0  0  0  0  0
  -21.2771  -31.1057   17.4486 C   0  0  0  0  0  0  0  0  0  0  0  0
  -26.9596  -17.6382   23.1610 C   0  0  0  0  0  0  0  0  0  0  0  0
  -26.6222  -33.1252   27.0542 C   0  0  0  0  0  0  0  0  0  0  0  0
  -26.0508  -30.7677   21.0096 C   0  0  0  0  0  0  0  0  0  0  0  0
  -23.4641  -29.4460   20.4555 C   0  0  0  0  0  0  0  0  0  0  0  0
  -25.3808  -33.3734   26.2012 C   0  0  0  0  0  0  0  0  0  0  0  0
  -27.8369  -14.4529   24.4880 C   0  0  0  0  0  0  0  0  0  0  0  0
  -24.5939  -32.0801   26.0147 C   0  0  0  0  0  0  0  0  0  0  0  0
  -27.1371  -13.4628   23.5554 C   0  0  0  0  0  0  0  0  0  0  0  0
  -26.9959  -15.7076   24.7128 C   0  0  0  0  0  0  0  0  0  0  0  0
  -25.8600  -15.3997   22.5474 C   0  0  0  0  0  0  0  0  0  0  0  0
  -25.4315  -31.0256   25.2812 C   0  0  1  0  0  0  0  0  0  0  0  0
  -24.7361  -31.3142   21.5574 C   0  0  1  0  0  0  0  0  0  0  0  0
  -26.6942  -14.1429   22.2460 C   0  0  2  0  0  0  0  0  0  0  0  0
  -19.6733  -31.9920   15.7341 C   0  0  0  0  0  0  0  0  0  0  0  0
  -25.9041  -18.5784   19.3824 C   0  0  0  0  0  0  0  0  0  0  0  0
  -20.1927  -30.7971   22.2282 C   0  0  0  0  0  0  0  0  0  0  0  0
  -18.7874  -30.8165   20.1562 C   0  0  0  0  0  0  0  0  0  0  0  0
  -19.7702  -32.9426   21.0145 C   0  0  0  0  0  0  0  0  0  0  0  0
  -29.6243  -19.9821   19.3658 C   0  0  0  0  0  0  0  0  0  0  0  0
  -28.4218  -18.1708   18.1699 C   0  0  0  0  0  0  0  0  0  0  0  0
  -28.9425  -17.9285   20.5862 C   0  0  0  0  0  0  0  0  0  0  0  0
  -26.9508  -22.9125   22.3673 C   0  0  0  0  0  0  0  0  0  0  0  0
  -29.2224  -22.8031   21.2683 C   0  0  0  0  0  0  0  0  0  0  0  0
  -28.0815  -20.7280   22.0178 C   0  0  0  0  0  0  0  0  0  0  0  0
  -23.4203  -31.4063   15.4299 C   0  0  0  0  0  0  0  0  0  0  0  0
  -27.1227  -24.5578   19.6830 C   0  0  0  0  0  0  0  0  0  1  0  0
  -26.8525  -19.4752   21.4958 C   0  0  0  0  0  0  0  0  0  0  0  0
  -21.2788  -31.2302   19.9263 C   0  0  1  0  0  0  0  0  0  0  0  0
  -21.1167  -31.9719   16.2124 C   0  0  2  0  0  0  0  0  0  0  0  0
  -27.0172  -19.5921   19.9058 C   0  0  2  0  0  0  0  0  0  0  0  0
  -20.0313  -31.4315   20.8323 C   0  0  0  0  0  0  0  0  0  0  0  0
  -28.4806  -18.9450   19.5102 C   0  0  0  0  0  0  0  0  0  0  0  0
  -27.8411  -22.1206   21.3840 C   0  0  0  0  0  0  0  0  0  0  0  0
  -25.2172  -12.2015   21.8827 N   0  0  0  0  0  0  0  0  0  0  0  0
  -26.3178  -22.6943   18.1882 N   0  0  0  0  0  0  0  0  0  0  0  0
  -26.2898  -21.3154   18.2521 N   0  0  0  0  0  0  0  0  0  0  0  0
  -25.9610  -13.1770   21.3337 N   0  0  0  0  0  0  0  0  0  0  0  0
  -27.2107  -22.0729   20.0867 N   0  0  0  0  0  0  0  0  0  0  0  0
  -23.5747  -30.8779   20.7796 N   0  0  0  0  0  0  0  0  0  0  0  0
  -26.6102  -16.3050   23.4320 N   0  0  0  0  0  0  0  0  0  0  0  0
  -26.6538  -14.0825   19.2575 N   0  0  0  0  0  0  0  0  0  0  0  0
  -24.0192  -10.6170   18.0555 N   0  0  0  0  0  0  0  0  0  0  0  0
  -25.4730  -31.3101   23.8628 N   0  0  0  0  0  0  0  0  0  0  0  0
  -21.1648  -31.8440   18.6077 N   0  0  0  0  0  0  0  0  0  0  0  0
  -26.5612  -18.1245   21.9219 N   0  0  0  0  0  0  0  0  0  0  0  0
  -21.9716  -31.4578   15.1052 N   0  3  0  0  0  0  0  0  0  0  0  0
  -25.3362  -12.3178   17.2609 O   0  0  0  0  0  0  0  0  0  0  0  0
  -23.4749  -30.2760   23.2622 O   0  0  0  0  0  0  0  0  0  0  0  0
  -22.5977  -32.9947   20.8058 O   0  0  0  0  0  0  0  0  0  0  0  0
  -21.4779  -29.8945   17.3918 O   0  0  0  0  0  0  0  0  0  0  0  0
  -27.5853  -18.3413   23.9618 O   0  0  0  0  0  0  0  0  0  0  0  0
  -21.3658   -7.1442   21.5101 O   0  0  0  0  0  0  0  0  0  0  0  0
  -25.8770  -25.2526   19.7267 O   0  0  0  0  0  0  0  0  0  1  0  0
  -22.8198   -3.3668   25.2547 F   0  0  0  0  0  0  0  0  0  0  0  0
  -21.6636   -7.8275   24.1723 F   0  0  0  0  0  0  0  0  0  0  0  0
  1  2  1  0  0  0  0
  1  5  2  0  0  0  0
  2  6  2  0  0  0  0
  3  8  2  0  0  0  0
  3 15  1  0  0  0  0
  4  9  1  0  0  0  0
  4 15  2  0  0  0  0
  5 17  1  0  0  0  0
  6 19  1  0  0  0  0
  7 10  2  0  0  0  0
  7 18  1  0  0  0  0
  8 21  1  0  0  0  0
  9 21  2  0  0  0  0
 10 22  1  0  0  0  0
 11 12  2  0  0  0  0
 11 23  1  0  0  0  0
 12 24  1  0  0  0  0
 13 20  1  0  0  0  0
 13 22  2  0  0  0  0
 14 24  2  0  0  0  0
 14 25  1  0  0  0  0
 15 26  1  0  0  0  0
 16 26  1  0  0  0  0
 16 27  2  0  0  0  0
 16 30  1  0  0  0  0
 17 19  2  0  0  0  0
 17 35  1  0  0  0  0
 18 20  2  0  0  0  0
 18 36  1  0  0  0  0
 19 44  1  0  0  0  0
 20 37  1  0  0  0  0
 21 85  1  0  0  0  0
 22 86  1  0  0  0  0
 23 25  2  0  0  0  0
 23 85  1  0  0  0  0
 24 87  1  0  0  0  0
 25 88  1  0  0  0  0
 26 67  2  0  0  0  0
 27 70  1  0  0  0  0
 27 74  1  0  0  0  0
 28 59  1  0  0  0  0
 28 68  2  0  0  0  0
 28 71  1  0  0  0  0
 29 63  1  0  0  0  0
 29 69  2  0  0  0  0
 29 71  1  0  0  0  0
 30 75  1  0  0  0  0
 30 80  2  0  0  0  0
 31 45  1  0  0  0  0
 31 76  1  0  0  0  0
 31 81  2  0  0  0  0
 32 61  1  0  0  0  0
 32 72  1  0  0  0  0
 32 82  2  0  0  0  0
 33 62  1  0  0  0  0
 33 77  1  0  0  0  0
 33 83  2  0  0  0  0
 34 73  1  0  0  0  0
 34 78  1  0  0  0  0
 34 84  2  0  0  0  0
 35 38  1  0  0  0  0
 36 45  1  0  0  0  0
 37 72  1  0  0  0  0
 38 40  1  0  0  0  0
 39 41  1  0  0  0  0
 39 42  1  0  0  0  0
 40 44  1  0  0  0  0
 41 46  1  0  0  0  0
 42 73  1  0  0  0  0
 43 46  1  0  0  0  0
 43 73  1  0  0  0  0
 44 76  1  0  0  0  0
 45 72  1  0  0  0  0
 46 70  1  0  0  0  0
 47 62  1  0  0  0  0
 48 63  1  0  0  0  0
 49 64  1  0  0  0  0
 50 64  1  0  0  0  0
 51 64  1  0  0  0  0
 52 65  1  0  0  0  0
 53 65  1  0  0  0  0
 54 65  1  0  0  0  0
 55 66  1  0  0  0  0
 56 66  1  0  0  0  0
 57 66  1  0  0  0  0
 58 79  1  0  0  0  0
 59 86  1  0  0  0  0
 60 63  1  0  0  0  0
 60 78  1  0  0  0  0
 61 64  1  0  0  0  0
 61 77  1  0  0  0  0
 62 79  1  0  0  0  0
 63 65  1  0  0  0  0
 66 71  1  0  0  0  0
 67 70  1  0  0  0  0
 68 69  1  0  0  0  0
M  CHG  1  79   1
M  ISO  4  34 100  59 101  78 100  86 101
M  END
> <Batch ID>
0066

> <Smiles>
CNC(C)C(=O)NC(C(=O)N1Cc2cc([101O:1][101CH2:1]c3nnc(C(C)(C[100NH:0][100C:0](=O)N4CCCC(n5nc(-c6ccc(Oc7ccc(F)cc7F)cc6)c(C(N)=O)c5N)C4)C(C)(C)C)n3C(C)(C)C)ccc2CC1C(=O)NC1CCCc2ccccc21)C(C)(C)C

> <Shape>
0.280

> <Color>
0.105

> <Negative vol penalty>
0.000

$$$$

  -OEChem-04052318093D

 88 96  0     1  0  0  0  0  0999 V2000
  -24.5501  -37.2400   17.5791 C   0  0  0  0  0  0  0  0  0  0  0  0
  -25.2404  -36.0420   17.4252 C   0  0  0  0  0  0  0  0  0  0  0  0
  -24.1502  -11.4040   19.8914 C   0  0  0  0  0  0  0  0  0  0  0  0
  -24.9670  -11.4159   22.1651 C   0  0  0  0  0  0  0  0  0  0  0  0
  -24.1403  -37.6491   18.8474 C   0  0  0  0  0  0  0  0  0  0  0  0
  -25.5223  -35.2529   18.5398 C   0  0  0  0  0  0  0  0  0  0  0  0
  -25.7039  -29.1357   18.7688 C   0  0  0  0  0  0  0  0  0  0  0  0
  -24.0168  -10.0167   19.9466 C   0  0  0  0  0  0  0  0  0  0  0  0
  -24.8336  -10.0285   22.2203 C   0  0  0  0  0  0  0  0  0  0  0  0
  -26.7592  -28.2260   18.7174 C   0  0  0  0  0  0  0  0  0  0  0  0
  -21.8309   -7.7730   21.2196 C   0  0  0  0  0  0  0  0  0  0  0  0
  -20.6552   -7.2144   20.7186 C   0  0  0  0  0  0  0  0  0  0  0  0
  -26.7909  -28.1359   21.1278 C   0  0  0  0  0  0  0  0  0  0  0  0
  -21.9410   -5.9502   19.1107 C   0  0  0  0  0  0  0  0  0  0  0  0
  -28.9880  -21.2353   20.4058 C   0  0  0  0  0  0  0  0  0  0  0  0
  -31.1449  -21.9820   20.9020 C   0  0  0  0  0  0  0  0  0  0  0  0
  -24.6253  -12.1036   21.0007 C   0  0  0  0  0  0  0  0  0  0  0  0
  -23.7950  -14.4986   21.2874 C   0  0  0  0  0  0  0  0  0  0  0  0
  -24.4088  -36.8599   19.9769 C   0  0  0  0  0  0  0  0  0  0  0  0
  -25.1905  -29.5613   20.0024 C   0  0  0  0  0  0  0  0  0  0  0  0
  -25.1168  -35.6525   19.8246 C   0  0  0  0  0  0  0  0  0  0  0  0
  -25.7274  -29.0490   21.1921 C   0  0  0  0  0  0  0  0  0  0  0  0
  -29.7890  -22.2382   20.9126 C   0  0  0  0  0  0  0  0  0  0  0  0
  -24.3585   -9.3289   21.1110 C   0  0  0  0  0  0  0  0  0  0  0  0
  -27.3048  -27.7282   19.8970 C   0  0  0  0  0  0  0  0  0  0  0  0
  -23.0618   -7.4203   20.6662 C   0  0  0  0  0  0  0  0  0  0  0  0
  -20.7102   -6.3029   19.6641 C   0  0  0  0  0  0  0  0  0  0  0  0
  -23.1168   -6.5088   19.6117 C   0  0  0  0  0  0  0  0  0  0  0  0
  -24.7639  -13.5367   20.9442 C   0  0  0  0  0  0  0  0  0  0  0  0
  -24.4125  -15.7042   21.0602 C   0  0  0  0  0  0  0  0  0  0  0  0
  -30.8026  -19.9384   19.9673 C   0  0  0  0  0  0  0  0  0  0  0  0
  -22.4565  -14.3185   21.7688 C   0  0  0  0  0  0  0  0  0  0  0  0
  -24.9668  -32.3594   21.4937 C   0  0  0  0  0  0  0  0  0  0  0  0
  -23.2589  -30.6348   23.6458 C   0  0  0  0  0  0  0  0  0  0  0  0
  -30.1634  -17.1883   21.0323 C   0  0  0  0  0  0  0  0  0  0  0  0
  -22.5663  -27.5902   25.0232 C   0  0  0  0  0  0  0  0  0  0  0  0
  -23.9872  -37.3667   21.3334 C   0  0  0  0  0  0  0  0  0  0  0  0
  -24.0343  -30.5226   20.0403 C   0  0  0  0  0  0  0  0  0  0  0  0
  -25.1988  -29.4587   22.5416 C   0  0  0  0  0  0  0  0  0  0  0  0
  -23.9971  -36.2903   22.4158 C   0  0  0  0  0  0  0  0  0  0  0  0
  -27.7738  -17.7462   18.3479 C   0  0  0  0  0  0  0  0  0  0  0  0
  -25.2884  -35.4807   22.3518 C   0  0  0  0  0  0  0  0  0  0  0  0
  -26.6495  -16.7864   18.7352 C   0  0  0  0  0  0  0  0  0  0  0  0
  -29.1449  -17.1770   18.7033 C   0  0  0  0  0  0  0  0  0  0  0  0
  -28.1587  -15.8284   20.5290 C   0  0  0  0  0  0  0  0  0  0  0  0
  -25.4197  -34.7570   21.0063 C   0  0  1  0  0  0  0  0  0  0  0  0
  -23.9300  -31.2801   21.3604 C   0  0  1  0  0  0  0  0  0  0  0  0
  -26.7574  -16.3785   20.2150 C   0  0  2  0  0  0  0  0  0  0  0  0
  -21.1530  -26.5023   26.7885 C   0  0  0  0  0  0  0  0  0  0  0  0
  -32.0534  -16.2110   19.8249 C   0  0  0  0  0  0  0  0  0  0  0  0
  -25.1350  -31.7024   25.8023 C   0  0  0  0  0  0  0  0  0  0  0  0
  -24.3044  -29.8943   27.3218 C   0  0  0  0  0  0  0  0  0  0  0  0
  -22.7243  -31.6229   26.4629 C   0  0  0  0  0  0  0  0  0  0  0  0
  -21.1675  -25.9074   23.0306 C   0  0  0  0  0  0  0  0  0  0  0  0
  -29.2192  -23.5285   21.4455 C   0  0  0  0  0  0  0  0  0  0  0  0
  -29.0842  -24.6257   20.3874 C   0  0  0  0  0  0  0  0  0  0  0  0
  -28.4287  -25.8964   20.9155 C   0  0  0  0  0  0  0  0  0  1  0  0
  -23.5919  -29.8451   24.8885 C   0  0  1  0  0  0  0  0  0  0  0  0
  -21.2499  -26.8961   25.3228 C   0  0  2  0  0  0  0  0  0  0  0  0
  -31.3660  -18.6603   19.4455 C   0  0  0  0  0  0  0  0  0  0  0  0
  -31.5323  -17.4982   20.4809 C   0  0  1  0  0  0  0  0  0  0  0  0
  -23.9503  -30.7598   26.0936 C   0  0  0  0  0  0  0  0  0  0  0  0
  -32.4267  -17.8720   21.6664 C   0  0  0  0  0  0  0  0  0  0  0  0
  -29.4630  -20.0684   19.9231 N   0  0  0  0  0  0  0  0  0  0  0  0
  -31.6882  -20.8386   20.4352 N   0  0  0  0  0  0  0  0  0  0  0  0
  -25.9098  -14.0840   20.5302 N   0  0  0  0  0  0  0  0  0  0  0  0
  -25.6648  -15.4029   20.6118 N   0  0  0  0  0  0  0  0  0  0  0  0
  -24.0716  -30.4057   22.5265 N   0  0  0  0  0  0  0  0  0  0  0  0
  -29.1979  -16.7751   20.1140 N   0  0  0  0  0  0  0  0  0  0  0  0
  -24.0010  -16.9821   21.2021 N   0  0  0  0  0  0  0  0  0  0  0  0
  -21.9803  -13.0123   21.9459 N   0  0  0  0  0  0  0  0  0  0  0  0
  -24.5760  -33.5814   20.9803 N   0  0  0  0  0  0  0  0  0  0  0  0
  -22.4562  -28.9608   25.1266 N   0  0  0  0  0  0  0  0  0  0  0  0
  -21.1136  -25.6643   24.4952 N   0  3  0  0  0  0  0  0  0  0  0  0
  -21.6994  -15.2870   22.0183 O   0  0  0  0  0  0  0  0  0  0  0  0
  -26.0411  -32.1030   22.0245 O   0  0  0  0  0  0  0  0  0  0  0  0
  -22.3083  -31.4206   23.6652 O   0  0  0  0  0  0  0  0  0  0  0  0
  -29.9595  -17.3130   22.2427 O   0  0  0  0  0  0  0  0  0  0  0  0
  -23.5908  -26.9776   24.7306 O   0  0  0  0  0  0  0  0  0  0  0  0
  -24.2283   -7.9751   21.1652 O   0  0  0  0  0  0  0  0  0  0  0  0
  -28.3353  -26.8407   19.8497 O   0  0  0  0  0  0  0  0  0  1  0  0
  -19.5811   -5.7654   19.1841 F   0  0  0  0  0  0  0  0  0  0  0  0
  -24.2964   -6.1652   19.0767 F   0  0  0  0  0  0  0  0  0  0  0  0
  -32.6043  -18.8545   18.8695 F   0  0  0  0  0  0  0  0  0  0  0  0
  -30.6095  -18.1584   18.4073 F   0  0  0  0  0  0  0  0  0  0  0  0
  -32.5211  -16.8653   22.5629 F   0  0  0  0  0  0  0  0  0  0  0  0
  -33.6806  -18.1829   21.2697 F   0  0  0  0  0  0  0  0  0  0  0  0
  -31.9352  -18.9443   22.3311 F   0  0  0  0  0  0  0  0  0  0  0  0
  1  2  1  0  0  0  0
  1  5  2  0  0  0  0
  2  6  2  0  0  0  0
  3  8  2  0  0  0  0
  3 17  1  0  0  0  0
  4  9  1  0  0  0  0
  4 17  2  0  0  0  0
  5 19  1  0  0  0  0
  6 21  1  0  0  0  0
  7 10  2  0  0  0  0
  7 20  1  0  0  0  0
  8 24  1  0  0  0  0
  9 24  2  0  0  0  0
 10 25  1  0  0  0  0
 11 12  2  0  0  0  0
 11 26  1  0  0  0  0
 12 27  1  0  0  0  0
 13 22  1  0  0  0  0
 13 25  2  0  0  0  0
 14 27  2  0  0  0  0
 14 28  1  0  0  0  0
 15 23  1  0  0  0  0
 15 64  2  0  0  0  0
 16 23  2  0  0  0  0
 16 65  1  0  0  0  0
 17 29  1  0  0  0  0
 18 29  1  0  0  0  0
 18 30  2  0  0  0  0
 18 32  1  0  0  0  0
 19 21  2  0  0  0  0
 19 37  1  0  0  0  0
 20 22  2  0  0  0  0
 20 38  1  0  0  0  0
 21 46  1  0  0  0  0
 22 39  1  0  0  0  0
 23 55  1  0  0  0  0
 24 80  1  0  0  0  0
 25 81  1  0  0  0  0
 26 28  2  0  0  0  0
 26 80  1  0  0  0  0
 27 82  1  0  0  0  0
 28 83  1  0  0  0  0
 29 66  2  0  0  0  0
 30 67  1  0  0  0  0
 30 70  1  0  0  0  0
 31 60  1  0  0  0  0
 31 64  1  0  0  0  0
 31 65  2  0  0  0  0
 32 71  1  0  0  0  0
 32 75  2  0  0  0  0
 33 47  1  0  0  0  0
 33 72  1  0  0  0  0
 33 76  2  0  0  0  0
 34 58  1  0  0  0  0
 34 68  1  0  0  0  0
 34 77  2  0  0  0  0
 35 61  1  0  0  0  0
 35 69  1  0  0  0  0
 35 78  2  0  0  0  0
 36 59  1  0  0  0  0
 36 73  1  0  0  0  0
 36 79  2  0  0  0  0
 37 40  1  0  0  0  0
 38 47  1  0  0  0  0
 39 68  1  0  0  0  0
 40 42  1  0  0  0  0
 41 43  1  0  0  0  0
 41 44  1  0  0  0  0
 42 46  1  0  0  0  0
 43 48  1  0  0  0  0
 44 69  1  0  0  0  0
 45 48  1  0  0  0  0
 45 69  1  0  0  0  0
 46 72  1  0  0  0  0
 47 68  1  0  0  0  0
 48 67  1  0  0  0  0
 49 59  1  0  0  0  0
 50 61  1  0  0  0  0
 51 62  1  0  0  0  0
 52 62  1  0  0  0  0
 53 62  1  0  0  0  0
 54 74  1  0  0  0  0
 55 56  1  0  0  0  0
 56 57  1  0  0  0  0
 57 81  1  0  0  0  0
 58 62  1  0  0  0  0
 58 73  1  0  0  0  0
 59 74  1  0  0  0  0
 60 61  1  0  0  0  0
 60 84  1  0  0  0  0
 60 85  1  0  0  0  0
 61 63  1  0  0  0  0
 63 86  1  0  0  0  0
 63 87  1  0  0  0  0
 63 88  1  0  0  0  0
 66 67  1  0  0  0  0
M  CHG  1  74   1
M  ISO  4  35 100  57 101  61 100  81 101
M  END
> <Batch ID>
0066

> <Smiles>
CNC(C)C(=O)NC(C(=O)N1Cc2cc([101O:1][101CH2:1]CCc3cnc(C(F)(F)[100C:0](C)([100C:0](=O)N4CCCC(n5nc(-c6ccc(Oc7ccc(F)cc7F)cc6)c(C(N)=O)c5N)C4)C(F)(F)F)nc3)ccc2CC1C(=O)NC1CCCc2ccccc21)C(C)(C)C

> <Shape>
0.258

> <Color>
0.098

> <Negative vol penalty>
0.000

$$$$

  -OEChem-04052318093D

 88 96  0     1  0  0  0  0  0999 V2000
  -32.1793  -15.5914   20.3910 C   0  0  0  0  0  0  0  0  0  0  0  0
  -31.1758  -16.4441   20.8369 C   0  0  0  0  0  0  0  0  0  0  0  0
  -30.0759  -23.5512   20.9290 C   0  0  0  0  0  0  0  0  0  0  0  0
  -29.6497  -23.3129   18.5628 C   0  0  0  0  0  0  0  0  0  0  0  0
  -31.8475  -14.3405   19.8750 C   0  0  0  0  0  0  0  0  0  0  0  0
  -29.8412  -16.0415   20.7781 C   0  0  0  0  0  0  0  0  0  0  0  0
  -26.5205  -18.9956   22.8875 C   0  0  0  0  0  0  0  0  0  0  0  0
  -30.2994  -22.1779   21.0270 C   0  0  0  0  0  0  0  0  0  0  0  0
  -29.8733  -21.9396   18.6609 C   0  0  0  0  0  0  0  0  0  0  0  0
  -26.1522  -20.2254   22.3434 C   0  0  0  0  0  0  0  0  0  0  0  0
  -28.1746  -19.2068   19.6986 C   0  0  0  0  0  0  0  0  0  0  0  0
  -27.2752  -18.3563   19.0557 C   0  0  0  0  0  0  0  0  0  0  0  0
  -24.0923  -19.2513   21.5514 C   0  0  0  0  0  0  0  0  0  0  0  0
  -29.0761  -17.4671   17.7127 C   0  0  0  0  0  0  0  0  0  0  0  0
  -29.7510  -24.1187   19.6969 C   0  0  0  0  0  0  0  0  0  0  0  0
  -30.4725  -26.5368   19.3225 C   0  0  0  0  0  0  0  0  0  0  0  0
  -30.5069  -13.9281   19.7987 C   0  0  0  0  0  0  0  0  0  0  0  0
  -25.6810  -17.8799   22.7579 C   0  0  0  0  0  0  0  0  0  0  0  0
  -29.4878  -14.7733   20.2828 C   0  0  0  0  0  0  0  0  0  0  0  0
  -24.4511  -18.0092   22.0969 C   0  0  0  0  0  0  0  0  0  0  0  0
  -30.1982  -21.3721   19.8930 C   0  0  0  0  0  0  0  0  0  0  0  0
  -24.9393  -20.3526   21.6728 C   0  0  0  0  0  0  0  0  0  0  0  0
  -29.5247  -19.1875   19.3485 C   0  0  0  0  0  0  0  0  0  0  0  0
  -27.7260  -17.4864   18.0628 C   0  0  0  0  0  0  0  0  0  0  0  0
  -29.9754  -18.3177   18.3556 C   0  0  0  0  0  0  0  0  0  0  0  0
  -29.5194  -25.5372   19.5950 C   0  0  0  0  0  0  0  0  0  0  0  0
  -29.7546  -27.7077   19.3330 C   0  0  0  0  0  0  0  0  0  0  0  0
  -20.7133  -26.9256   20.2754 C   0  0  0  0  0  0  0  0  0  0  0  0
  -22.2518  -25.9190   19.2869 C   0  0  0  0  0  0  0  0  0  0  0  0
  -31.8808  -26.4175   19.0814 C   0  0  0  0  0  0  0  0  0  0  0  0
  -25.9399  -15.0254   21.3837 C   0  0  0  0  0  0  0  0  0  0  0  0
  -23.9326  -28.8537   18.3827 C   0  0  0  0  0  0  0  0  0  0  0  0
  -23.0685  -14.5138   22.8035 C   0  0  0  0  0  0  0  0  0  0  0  0
  -20.2065  -15.8354   24.1109 C   0  0  0  0  0  0  0  0  0  0  0  0
  -30.2048  -12.5606   19.2385 C   0  0  0  0  0  0  0  0  0  0  0  0
  -26.0806  -16.5671   23.3736 C   0  0  0  0  0  0  0  0  0  0  0  0
  -23.5048  -16.8469   21.9482 C   0  0  0  0  0  0  0  0  0  0  0  0
  -28.7503  -12.4027   18.8076 C   0  0  0  0  0  0  0  0  0  0  0  0
  -25.8752  -29.7134   21.2684 C   0  0  0  0  0  0  0  0  0  0  0  0
  -27.8247  -12.8747   19.9190 C   0  0  0  0  0  0  0  0  0  0  0  0
  -27.1029  -28.8104   21.1567 C   0  0  0  0  0  0  0  0  0  0  0  0
  -24.6204  -29.0161   20.7523 C   0  0  0  0  0  0  0  0  0  0  0  0
  -25.9705  -27.5962   19.2414 C   0  0  0  0  0  0  0  0  0  0  0  0
  -28.0269  -14.3690   20.2003 C   0  0  1  0  0  0  0  0  0  0  0  0
  -25.3817  -15.3705   22.7354 C   0  0  1  0  0  0  0  0  0  0  0  0
  -27.2656  -28.2733   19.7237 C   0  0  2  0  0  0  0  0  0  0  0  0
  -19.7414  -27.2796   21.3166 C   0  0  0  0  0  0  0  0  0  0  0  0
  -18.0279  -15.1656   25.1609 C   0  0  0  0  0  0  0  0  0  0  0  0
  -21.9970  -13.7102   20.0620 C   0  0  0  0  0  0  0  0  0  0  0  0
  -19.6781  -13.9774   20.9672 C   0  0  0  0  0  0  0  0  0  0  0  0
  -21.2107  -12.2731   21.9516 C   0  0  0  0  0  0  0  0  0  0  0  0
  -22.0802  -26.2321   16.1461 C   0  0  0  0  0  0  0  0  0  0  0  0
  -21.3215  -28.5120   16.7460 C   0  0  0  0  0  0  0  0  0  0  0  0
  -20.8443  -17.2652   26.6224 C   0  0  0  0  0  0  0  0  0  0  0  0
  -23.3666  -24.9986   18.8582 C   0  0  0  0  0  0  0  0  0  0  0  0
  -23.9364  -24.1443   19.9960 C   0  0  0  0  0  0  0  0  0  0  0  0
  -25.1160  -23.2746   19.5588 C   0  0  0  0  0  0  0  0  0  0  0  0
  -25.6292  -22.4121   20.7039 C   0  0  0  0  0  0  0  0  0  1  0  0
  -23.7346  -27.8483   17.2764 C   0  0  1  0  0  0  0  0  0  0  0  0
  -21.6272  -14.7248   22.4071 C   0  0  1  0  0  0  0  0  0  0  0  0
  -19.4742  -15.5630   25.4124 C   0  0  2  0  0  0  0  0  0  0  0  0
  -21.1467  -13.6930   21.3479 C   0  0  0  0  0  0  0  0  0  0  0  0
  -22.2435  -27.3485   17.2085 C   0  0  0  0  0  0  0  0  0  0  0  0
  -24.2979  -28.4602   15.9950 C   0  0  0  0  0  0  0  0  0  0  0  0
  -28.2898  -26.0301   19.7663 N   0  0  0  0  0  0  0  0  0  0  0  0
  -21.5810  -25.8804   20.4148 N   0  0  0  0  0  0  0  0  0  0  0  0
  -20.8051  -27.6084   19.1322 N   0  0  0  0  0  0  0  0  0  0  0  0
  -28.4655  -27.3522   19.6011 N   0  0  0  0  0  0  0  0  0  0  0  0
  -21.7961  -26.9443   18.5183 N   0  0  0  0  0  0  0  0  0  0  0  0
  -23.9433  -15.5826   22.5619 N   0  0  0  0  0  0  0  0  0  0  0  0
  -24.8229  -28.5007   19.3971 N   0  0  0  0  0  0  0  0  0  0  0  0
  -30.1067  -28.9964   19.1391 N   0  0  0  0  0  0  0  0  0  0  0  0
  -32.4572  -25.1402   19.1069 N   0  0  0  0  0  0  0  0  0  0  0  0
  -27.2896  -14.7291   21.3914 N   0  0  0  0  0  0  0  0  0  0  0  0
  -20.8571  -14.7120   23.6461 N   0  0  0  0  0  0  0  0  0  0  0  0
  -19.4845  -16.7772   26.2764 N   0  3  0  0  0  0  0  0  0  0  0  0
  -32.6094  -27.4157   18.8663 O   0  0  0  0  0  0  0  0  0  0  0  0
  -25.2005  -15.0264   20.4065 O   0  0  0  0  0  0  0  0  0  0  0  0
  -23.3160  -29.9216   18.3432 O   0  0  0  0  0  0  0  0  0  0  0  0
  -23.4044  -13.4429   23.3154 O   0  0  0  0  0  0  0  0  0  0  0  0
  -20.1989  -16.9338   23.5595 O   0  0  0  0  0  0  0  0  0  0  0  0
  -30.4165  -20.0320   19.9883 O   0  0  0  0  0  0  0  0  0  0  0  0
  -24.5778  -21.5516   21.1403 O   0  0  0  0  0  0  0  0  0  1  0  0
  -26.8624  -16.6686   17.4466 F   0  0  0  0  0  0  0  0  0  0  0  0
  -31.2715  -18.2938   18.0159 F   0  0  0  0  0  0  0  0  0  0  0  0
  -24.3272  -27.5832   14.9705 F   0  0  0  0  0  0  0  0  0  0  0  0
  -23.5387  -29.5115   15.6018 F   0  0  0  0  0  0  0  0  0  0  0  0
  -25.5514  -28.9298   16.1714 F   0  0  0  0  0  0  0  0  0  0  0  0
  1  2  1  0  0  0  0
  1  5  2  0  0  0  0
  2  6  2  0  0  0  0
  3  8  2  0  0  0  0
  3 15  1  0  0  0  0
  4  9  1  0  0  0  0
  4 15  2  0  0  0  0
  5 17  1  0  0  0  0
  6 19  1  0  0  0  0
  7 10  2  0  0  0  0
  7 18  1  0  0  0  0
  8 21  1  0  0  0  0
  9 21  2  0  0  0  0
 10 22  1  0  0  0  0
 11 12  2  0  0  0  0
 11 23  1  0  0  0  0
 12 24  1  0  0  0  0
 13 20  1  0  0  0  0
 13 22  2  0  0  0  0
 14 24  2  0  0  0  0
 14 25  1  0  0  0  0
 15 26  1  0  0  0  0
 16 26  1  0  0  0  0
 16 27  2  0  0  0  0
 16 30  1  0  0  0  0
 17 19  2  0  0  0  0
 17 35  1  0  0  0  0
 18 20  2  0  0  0  0
 18 36  1  0  0  0  0
 19 44  1  0  0  0  0
 20 37  1  0  0  0  0
 21 82  1  0  0  0  0
 22 83  1  0  0  0  0
 23 25  2  0  0  0  0
 23 82  1  0  0  0  0
 24 84  1  0  0  0  0
 25 85  1  0  0  0  0
 26 65  2  0  0  0  0
 27 68  1  0  0  0  0
 27 72  1  0  0  0  0
 28 47  1  0  0  0  0
 28 66  1  0  0  0  0
 28 67  2  0  0  0  0
 29 55  1  0  0  0  0
 29 66  2  0  0  0  0
 29 69  1  0  0  0  0
 30 73  1  0  0  0  0
 30 77  2  0  0  0  0
 31 45  1  0  0  0  0
 31 74  1  0  0  0  0
 31 78  2  0  0  0  0
 32 59  1  0  0  0  0
 32 71  1  0  0  0  0
 32 79  2  0  0  0  0
 33 60  1  0  0  0  0
 33 70  1  0  0  0  0
 33 80  2  0  0  0  0
 34 61  1  0  0  0  0
 34 75  1  0  0  0  0
 34 81  2  0  0  0  0
 35 38  1  0  0  0  0
 36 45  1  0  0  0  0
 37 70  1  0  0  0  0
 38 40  1  0  0  0  0
 39 41  1  0  0  0  0
 39 42  1  0  0  0  0
 40 44  1  0  0  0  0
 41 46  1  0  0  0  0
 42 71  1  0  0  0  0
 43 46  1  0  0  0  0
 43 71  1  0  0  0  0
 44 74  1  0  0  0  0
 45 70  1  0  0  0  0
 46 68  1  0  0  0  0
 48 61  1  0  0  0  0
 49 62  1  0  0  0  0
 50 62  1  0  0  0  0
 51 62  1  0  0  0  0
 52 63  1  0  0  0  0
 53 63  1  0  0  0  0
 54 76  1  0  0  0  0
 55 56  1  0  0  0  0
 56 57  1  0  0  0  0
 57 58  1  0  0  0  0
 58 83  1  0  0  0  0
 59 63  1  0  0  0  0
 59 64  1  0  0  0  0
 60 62  1  0  0  0  0
 60 75  1  0  0  0  0
 61 76  1  0  0  0  0
 63 69  1  0  0  0  0
 64 86  1  0  0  0  0
 64 87  1  0  0  0  0
 64 88  1  0  0  0  0
 65 68  1  0  0  0  0
 67 69  1  0  0  0  0
M  CHG  1  76   1
M  ISO  4  32 100  58 101  59 100  83 101
M  END
> <Batch ID>
0066

> <Smiles>
CNC(C)C(=O)NC(C(=O)N1Cc2cc([101O:1][101CH2:1]CCCc3nc(C)nn3C(C)(C)[100CH:0]([100C:0](=O)N3CCCC(n4nc(-c5ccc(Oc6ccc(F)cc6F)cc5)c(C(N)=O)c4N)C3)C(F)(F)F)ccc2CC1C(=O)NC1CCCc2ccccc21)C(C)(C)C

> <Shape>
0.220

> <Color>
0.061

> <Negative vol penalty>
0.000

$$$$

  -OEChem-04052318093D

 98105  0     1  0  0  0  0  0999 V2000
  -34.2652   -4.9569   34.3342 C   0  0  0  0  0  0  0  0  0  0  0  0
  -33.4082   -5.4459   33.3535 C   0  0  0  0  0  0  0  0  0  0  0  0
  -23.1188   -9.8751   19.9481 C   0  0  0  0  0  0  0  0  0  0  0  0
  -23.9146   -9.8946   22.2292 C   0  0  0  0  0  0  0  0  0  0  0  0
  -34.5690   -5.7405   35.4468 C   0  0  0  0  0  0  0  0  0  0  0  0
  -32.8535   -6.7184   33.4854 C   0  0  0  0  0  0  0  0  0  0  0  0
  -30.7258  -12.3158   29.5537 C   0  0  0  0  0  0  0  0  0  0  0  0
  -22.4042   -8.7057   20.2074 C   0  0  0  0  0  0  0  0  0  0  0  0
  -23.1999   -8.7252   22.4885 C   0  0  0  0  0  0  0  0  0  0  0  0
  -29.6200  -13.1448   29.3699 C   0  0  0  0  0  0  0  0  0  0  0  0
  -19.9997   -7.8565   23.1402 C   0  0  0  0  0  0  0  0  0  0  0  0
  -19.2624   -7.7981   24.3228 C   0  0  0  0  0  0  0  0  0  0  0  0
  -30.2786  -14.4402   31.2953 C   0  0  0  0  0  0  0  0  0  0  0  0
  -20.5570   -5.8868   25.0356 C   0  0  0  0  0  0  0  0  0  0  0  0
  -23.8741  -10.4696   20.9590 C   0  0  0  0  0  0  0  0  0  0  0  0
  -24.1592  -13.0018   20.8388 C   0  0  0  0  0  0  0  0  0  0  0  0
  -34.0253   -7.0270   35.5875 C   0  0  0  0  0  0  0  0  0  0  0  0
  -31.6118  -12.5366   30.6179 C   0  0  0  0  0  0  0  0  0  0  0  0
  -33.1492   -7.5194   34.6015 C   0  0  0  0  0  0  0  0  0  0  0  0
  -31.3963  -13.6141   31.4889 C   0  0  0  0  0  0  0  0  0  0  0  0
  -22.4446   -8.1307   21.4776 C   0  0  0  0  0  0  0  0  0  0  0  0
  -29.3946  -14.2054   30.2424 C   0  0  0  0  0  0  0  0  0  0  0  0
  -21.0156   -6.9300   22.9053 C   0  0  0  0  0  0  0  0  0  0  0  0
  -19.5410   -6.8133   25.2706 C   0  0  0  0  0  0  0  0  0  0  0  0
  -21.2943   -5.9452   23.8530 C   0  0  0  0  0  0  0  0  0  0  0  0
  -24.6130  -11.6773   20.6916 C   0  0  0  0  0  0  0  0  0  0  0  0
  -25.2289  -13.7754   20.4599 C   0  0  0  0  0  0  0  0  0  0  0  0
  -22.8846  -13.4892   21.2787 C   0  0  0  0  0  0  0  0  0  0  0  0
  -32.5198  -10.8648   33.1643 C   0  0  0  0  0  0  0  0  0  0  0  0
  -34.6069  -13.3184   33.5464 C   0  0  0  0  0  0  0  0  0  0  0  0
  -35.3785  -16.5869   32.9391 C   0  0  0  0  0  0  0  0  0  0  0  0
  -30.8272  -14.6086   20.9909 C   0  0  0  0  0  0  0  0  0  0  0  0
  -34.3455   -7.8183   36.8309 C   0  0  0  0  0  0  0  0  0  0  0  0
  -32.8147  -11.6495   30.7867 C   0  0  0  0  0  0  0  0  0  0  0  0
  -32.3288  -13.9061   32.6350 C   0  0  0  0  0  0  0  0  0  0  0  0
  -34.0120   -9.3031   36.7107 C   0  0  0  0  0  0  0  0  0  0  0  0
  -29.5675  -12.5413   18.1907 C   0  0  0  0  0  0  0  0  0  0  0  0
  -32.6219   -9.4912   36.1114 C   0  0  0  0  0  0  0  0  0  0  0  0
  -28.1532  -12.1878   18.6477 C   0  0  0  0  0  0  0  0  0  0  0  0
  -30.5040  -12.7734   19.3725 C   0  0  0  0  0  0  0  0  0  0  0  0
  -28.5959  -13.4351   20.7991 C   0  0  0  0  0  0  0  0  0  0  0  0
  -32.5471   -8.9046   34.6966 C   0  0  1  0  0  0  0  0  0  0  0  0
  -33.3672  -11.6561   32.2087 C   0  0  1  0  0  0  0  0  0  0  0  0
  -27.6157  -13.2405   19.6326 C   0  0  2  0  0  0  0  0  0  0  0  0
  -28.2487  -18.6896   30.9686 C   0  0  0  0  0  0  0  0  0  0  0  0
  -37.1331  -18.3174   33.4122 C   0  0  0  0  0  0  0  0  0  0  0  0
  -30.6198  -18.7749   20.5957 C   0  0  0  0  0  0  0  0  0  0  0  0
  -32.8265  -17.6220   20.6932 C   0  0  0  0  0  0  0  0  0  0  0  0
  -33.5442  -13.6146   36.3912 C   0  0  0  0  0  0  0  0  0  0  0  0
  -34.6048  -15.8809   36.4770 C   0  0  0  0  0  0  0  0  0  0  0  0
  -36.0243  -13.8521   36.1740 C   0  0  0  0  0  0  0  0  0  0  0  0
  -31.9947  -14.5313   24.6719 C   0  0  0  0  0  0  0  0  0  0  0  0
  -30.0296  -13.4187   25.7108 C   0  0  0  0  0  0  0  0  0  0  0  0
  -30.7079  -15.6068   26.5359 C   0  0  0  0  0  0  0  0  0  0  0  0
  -30.9354  -17.7921   24.6650 C   0  0  0  0  0  0  0  0  0  0  0  0
  -28.9686  -17.9675   23.2121 C   0  0  0  0  0  0  0  0  0  0  0  0
  -30.1009  -16.1737   27.1185 C   0  0  0  0  0  0  0  0  0  0  0  0
  -28.9670  -16.2269   20.9919 C   0  0  0  0  0  0  0  0  0  0  0  0
  -35.9761  -16.9354   30.0615 C   0  0  0  0  0  0  0  0  0  0  0  0
  -27.9713  -17.1966   31.0107 C   0  0  0  0  0  0  0  0  0  0  0  0
  -34.5749  -14.6477   34.2613 C   0  0  1  0  0  0  0  0  0  0  0  0
  -36.6538  -17.2458   32.4454 C   0  0  2  0  0  0  0  0  0  0  0  0
  -31.5888  -18.0282   21.5145 C   0  0  0  0  0  0  0  0  0  0  0  0
  -29.6077  -15.5824   24.1732 C   0  0  2  0  0  0  0  0  0  0  0  0
  -31.0048  -16.7882   22.2637 C   0  0  1  0  0  0  0  0  0  0  0  0
  -28.5785  -16.4033   29.8436 C   0  0  2  0  0  0  0  0  0  1  0  0
  -27.8507  -16.4857   25.9518 C   0  0  1  0  0  0  0  0  0  0  0  0
  -34.6682  -14.4924   35.8055 C   0  0  0  0  0  0  0  0  0  0  0  0
  -30.5700  -14.7805   25.2175 C   0  0  0  0  0  0  0  0  0  0  0  0
  -30.1431  -17.0212   23.5860 C   0  0  0  0  0  0  0  0  0  0  0  0
  -28.5836  -16.0361   27.2440 C   0  0  2  0  0  0  0  0  0  0  0  0
  -28.1129  -15.6240   24.7045 C   0  0  0  0  0  0  0  0  0  0  0  0
  -28.0425  -16.8142   28.4651 C   0  0  0  0  0  0  0  0  0  0  0  0
  -25.8729  -11.6096   20.2532 N   0  0  0  0  0  0  0  0  0  0  0  0
  -26.2198  -12.9013   20.1216 N   0  0  0  0  0  0  0  0  0  0  0  0
  -33.4873  -13.0065   32.7621 N   0  0  0  0  0  0  0  0  0  0  0  0
  -29.9491  -13.7459   20.3146 N   0  0  0  0  0  0  0  0  0  0  0  0
  -25.4093  -15.1112   20.3863 N   0  0  0  0  0  0  0  0  0  0  0  0
  -21.8981  -12.5577   21.6300 N   0  0  0  0  0  0  0  0  0  0  0  0
  -33.1756   -9.7964   33.7457 N   0  0  0  0  0  0  0  0  0  0  0  0
  -35.6423  -15.4517   33.6760 N   0  0  0  0  0  0  0  0  0  0  0  0
  -30.3381  -15.8777   21.3354 N   0  0  0  0  0  0  0  0  0  0  0  0
  -36.4282  -17.8795   31.1156 N   0  3  0  0  0  0  0  0  0  0  0  0
  -22.6227  -14.7143   21.3423 O   0  0  0  0  0  0  0  0  0  0  0  0
  -31.3575  -11.1996   33.3609 O   0  0  0  0  0  0  0  0  0  0  0  0
  -35.5921  -12.5871   33.6733 O   0  0  0  0  0  0  0  0  0  0  0  0
  -34.2602  -17.0364   32.6984 O   0  0  0  0  0  0  0  0  0  0  0  0
  -31.9857  -14.2675   21.2623 O   0  0  0  0  0  0  0  0  0  0  0  0
  -21.7472   -6.9897   21.7310 O   0  0  0  0  0  0  0  0  0  0  0  0
  -28.3097  -15.0202   30.0647 O   0  0  0  0  0  0  0  0  0  1  0  0
  -18.8339   -6.7584   26.4068 F   0  0  0  0  0  0  0  0  0  0  0  0
  -22.2698   -5.0531   23.6334 F   0  0  0  0  0  0  0  0  0  0  0  0
  -26.5088  -16.4306   26.2061 F   0  0  0  0  0  0  0  0  0  0  0  0
  -28.3060  -14.7121   27.4357 F   0  0  0  0  0  0  0  0  0  0  0  0
  -27.6712  -14.3566   24.8985 F   0  0  0  0  0  0  0  0  0  0  0  0
  -27.2956  -16.1447   23.7479 F   0  0  0  0  0  0  0  0  0  0  0  0
  -28.3027  -18.1378   28.2755 F   0  0  0  0  0  0  0  0  0  0  0  0
  -26.6852  -16.6927   28.4862 F   0  0  0  0  0  0  0  0  0  0  0  0
  1  2  1  0  0  0  0
  1  5  2  0  0  0  0
  2  6  2  0  0  0  0
  3  8  2  0  0  0  0
  3 15  1  0  0  0  0
  4  9  1  0  0  0  0
  4 15  2  0  0  0  0
  5 17  1  0  0  0  0
  6 19  1  0  0  0  0
  7 10  2  0  0  0  0
  7 18  1  0  0  0  0
  8 21  1  0  0  0  0
  9 21  2  0  0  0  0
 10 22  1  0  0  0  0
 11 12  2  0  0  0  0
 11 23  1  0  0  0  0
 12 24  1  0  0  0  0
 13 20  1  0  0  0  0
 13 22  2  0  0  0  0
 14 24  2  0  0  0  0
 14 25  1  0  0  0  0
 15 26  1  0  0  0  0
 16 26  1  0  0  0  0
 16 27  2  0  0  0  0
 16 28  1  0  0  0  0
 17 19  2  0  0  0  0
 17 33  1  0  0  0  0
 18 20  2  0  0  0  0
 18 34  1  0  0  0  0
 19 42  1  0  0  0  0
 20 35  1  0  0  0  0
 21 89  1  0  0  0  0
 22 90  1  0  0  0  0
 23 25  2  0  0  0  0
 23 89  1  0  0  0  0
 24 91  1  0  0  0  0
 25 92  1  0  0  0  0
 26 74  2  0  0  0  0
 27 75  1  0  0  0  0
 27 78  1  0  0  0  0
 28 79  1  0  0  0  0
 28 84  2  0  0  0  0
 29 43  1  0  0  0  0
 29 80  1  0  0  0  0
 29 85  2  0  0  0  0
 30 61  1  0  0  0  0
 30 76  1  0  0  0  0
 30 86  2  0  0  0  0
 31 62  1  0  0  0  0
 31 81  1  0  0  0  0
 31 87  2  0  0  0  0
 32 77  1  0  0  0  0
 32 82  1  0  0  0  0
 32 88  2  0  0  0  0
 33 36  1  0  0  0  0
 34 43  1  0  0  0  0
 35 76  1  0  0  0  0
 36 38  1  0  0  0  0
 37 39  1  0  0  0  0
 37 40  1  0  0  0  0
 38 42  1  0  0  0  0
 39 44  1  0  0  0  0
 40 77  1  0  0  0  0
 41 44  1  0  0  0  0
 41 77  1  0  0  0  0
 42 80  1  0  0  0  0
 43 76  1  0  0  0  0
 44 75  1  0  0  0  0
 45 60  1  0  0  0  0
 46 62  1  0  0  0  0
 47 63  1  0  0  0  0
 48 63  1  0  0  0  0
 49 68  1  0  0  0  0
 50 68  1  0  0  0  0
 51 68  1  0  0  0  0
 52 69  1  0  0  0  0
 53 69  1  0  0  0  0
 54 69  1  0  0  0  0
 55 70  1  0  0  0  0
 56 70  1  0  0  0  0
 57 71  1  0  0  0  0
 58 82  1  0  0  0  0
 59 83  1  0  0  0  0
 60 66  1  0  0  0  0
 61 68  1  0  0  0  0
 61 81  1  0  0  0  0
 62 83  1  0  0  0  0
 63 65  1  0  0  0  0
 64 69  1  0  0  0  0
 64 70  1  0  0  0  0
 64 72  1  0  0  0  0
 65 70  1  0  0  0  0
 65 82  1  0  0  0  0
 66 73  1  0  0  0  0
 66 90  1  0  0  0  0
 67 71  1  0  0  0  0
 67 72  1  0  0  0  0
 67 93  1  0  0  0  0
 71 73  1  0  0  0  0
 71 94  1  0  0  0  0
 72 95  1  0  0  0  0
 72 96  1  0  0  0  0
 73 97  1  0  0  0  0
 73 98  1  0  0  0  0
 74 75  1  0  0  0  0
M  CHG  1  83   1
M  ISO  4  32 100  66 101  82 100  90 101
M  END
> <Batch ID>
0066

> <Smiles>
CC[101CH:1](C(F)(F)C(C)(F)C(F)C(F)(F)C(C(C)(C)C)C(C)(C)C(C(C)C)[100N:0](C)[100C:0](=O)N1CCCC(n2nc(-c3ccc(Oc4ccc(F)cc4F)cc3)c(C(N)=O)c2N)C1)[101O:1]c1ccc2c(c1)CN(C(=O)C(NC(=O)C(C)NC)C(C)(C)C)C(C(=O)NC1CCCc3ccccc31)C2

> <Shape>
0.167

> <Color>
0.173

> <Negative vol penalty>
0.000

$$$$

  -OEChem-04052318093D

 90 98  0     1  0  0  0  0  0999 V2000
  -28.9254  -24.1492   17.8633 C   0  0  0  0  0  0  0  0  0  0  0  0
  -27.7056  -24.3383   18.5051 C   0  0  0  0  0  0  0  0  0  0  0  0
  -30.4224  -17.2837   22.4219 C   0  0  0  0  0  0  0  0  0  0  0  0
  -28.6836  -17.1236   20.7522 C   0  0  0  0  0  0  0  0  0  0  0  0
  -30.0633  -24.8112   18.3223 C   0  0  0  0  0  0  0  0  0  0  0  0
  -27.6234  -25.1888   19.6071 C   0  0  0  0  0  0  0  0  0  0  0  0
  -23.5982  -28.2547   19.3987 C   0  0  0  0  0  0  0  0  0  0  0  0
  -31.1211  -16.2532   21.7932 C   0  0  0  0  0  0  0  0  0  0  0  0
  -29.3824  -16.0930   20.1234 C   0  0  0  0  0  0  0  0  0  0  0  0
  -22.3622  -27.7066   19.7386 C   0  0  0  0  0  0  0  0  0  0  0  0
  -29.8745  -12.7788   20.5758 C   0  0  0  0  0  0  0  0  0  0  0  0
  -29.1509  -11.6557   20.1750 C   0  0  0  0  0  0  0  0  0  0  0  0
  -22.5355  -28.6919   21.9336 C   0  0  0  0  0  0  0  0  0  0  0  0
  -29.8071  -12.0507   17.8836 C   0  0  0  0  0  0  0  0  0  0  0  0
  -29.2036  -17.7190   21.9014 C   0  0  0  0  0  0  0  0  0  0  0  0
  -28.5943  -20.1638   22.3003 C   0  0  0  0  0  0  0  0  0  0  0  0
  -29.9930  -25.6777   19.4245 C   0  0  0  0  0  0  0  0  0  0  0  0
  -24.3185  -29.0177   20.3291 C   0  0  0  0  0  0  0  0  0  0  0  0
  -28.7617  -25.8620   20.0821 C   0  0  0  0  0  0  0  0  0  0  0  0
  -23.7793  -29.2507   21.6023 C   0  0  0  0  0  0  0  0  0  0  0  0
  -30.6011  -15.6578   20.6439 C   0  0  0  0  0  0  0  0  0  0  0  0
  -21.8319  -27.9228   21.0071 C   0  0  0  0  0  0  0  0  0  0  0  0
  -30.5642  -13.5380   19.6305 C   0  0  0  0  0  0  0  0  0  0  0  0
  -29.1172  -11.2916   18.8289 C   0  0  0  0  0  0  0  0  0  0  0  0
  -30.5306  -13.1739   18.2844 C   0  0  0  0  0  0  0  0  0  0  0  0
  -28.4811  -18.7831   22.5508 C   0  0  0  0  0  0  0  0  0  0  0  0
  -27.7042  -20.7447   23.1702 C   0  0  0  0  0  0  0  0  0  0  0  0
  -21.2800  -19.5554   22.6136 C   0  0  0  0  0  0  0  0  0  0  0  0
  -29.4292  -20.8591   21.3648 C   0  0  0  0  0  0  0  0  0  0  0  0
  -27.1469  -28.7355   21.7518 C   0  0  0  0  0  0  0  0  0  0  0  0
  -22.7584  -18.6350   25.8537 C   0  0  0  0  0  0  0  0  0  0  0  0
  -26.4308  -31.6862   22.8932 C   0  0  0  0  0  0  0  0  0  0  0  0
  -24.0347  -33.9863   23.6776 C   0  0  0  0  0  0  0  0  0  0  0  0
  -31.2595  -26.3347   19.9134 C   0  0  0  0  0  0  0  0  0  0  0  0
  -25.6382  -29.6242   19.9380 C   0  0  0  0  0  0  0  0  0  0  0  0
  -24.5034  -30.0795   22.6306 C   0  0  0  0  0  0  0  0  0  0  0  0
  -31.0116  -27.5090   20.8567 C   0  0  0  0  0  0  0  0  0  0  0  0
  -25.6375  -20.0779   27.4249 C   0  0  0  0  0  0  0  0  0  0  0  0
  -29.9752  -27.1365   21.9121 C   0  0  0  0  0  0  0  0  0  0  0  0
  -26.7112  -20.0089   26.3397 C   0  0  0  0  0  0  0  0  0  0  0  0
  -24.7026  -18.8742   27.3628 C   0  0  0  0  0  0  0  0  0  0  0  0
  -25.1330  -18.6019   24.9416 C   0  0  0  0  0  0  0  0  0  0  0  0
  -28.6272  -26.7957   21.2654 C   0  0  1  0  0  0  0  0  0  0  0  0
  -26.5220  -29.9556   21.1365 C   0  0  1  0  0  0  0  0  0  0  0  0
  -26.0803  -19.8147   24.9495 C   0  0  2  0  0  0  0  0  0  0  0  0
  -23.7531  -36.2918   24.6277 C   0  0  0  0  0  0  0  0  0  0  0  0
  -21.6745  -20.4371   20.2870 C   0  0  0  0  0  0  0  0  0  0  0  0
  -20.5950  -18.1866   20.6126 C   0  0  0  0  0  0  0  0  0  0  0  0
  -23.0262  -18.4892   21.0356 C   0  0  0  0  0  0  0  0  0  0  0  0
  -26.9583  -30.5942   25.6931 C   0  0  0  0  0  0  0  0  0  0  0  0
  -25.7691  -32.5925   26.6209 C   0  0  0  0  0  0  0  0  0  0  0  0
  -27.8537  -32.8932   25.2842 C   0  0  0  0  0  0  0  0  0  0  0  0
  -21.9565  -23.9699   26.7667 C   0  0  0  0  0  0  0  0  0  0  0  0
  -19.5395  -24.2223   27.2502 C   0  0  0  0  0  0  0  0  0  0  0  0
  -18.5439  -26.5221   25.0522 C   0  0  0  0  0  0  0  0  0  0  0  0
  -18.1108  -24.2471   24.1226 C   0  0  0  0  0  0  0  0  0  0  0  0
  -22.7811  -34.9844   21.1894 C   0  0  0  0  0  0  0  0  0  0  0  0
  -22.2555  -18.4707   24.4416 C   0  0  0  0  0  0  0  0  0  0  0  0
  -20.3057  -22.3622   25.7520 C   0  0  0  0  0  0  0  0  0  0  0  0
  -19.5013  -25.8419   22.8211 C   0  0  0  0  0  0  0  0  0  0  0  0
  -20.4952  -24.8571   24.9433 C   0  0  0  0  0  0  0  0  0  0  0  0
  -21.2618  -21.7781   24.7026 C   0  0  0  0  0  0  0  0  0  0  0  0
  -20.4220  -27.0570   22.7155 C   0  0  0  0  0  0  0  0  0  1  0  0
  -25.7175  -32.2164   24.1135 C   0  0  1  0  0  0  0  0  0  0  0  0
  -23.9170  -35.4663   23.3611 C   0  0  2  0  0  0  0  0  0  0  0  0
  -21.6277  -19.1899   21.2414 C   0  0  0  0  0  0  0  0  0  0  0  0
  -26.5616  -32.0568   25.4094 C   0  0  0  0  0  0  0  0  0  0  0  0
  -20.5401  -23.8521   26.1410 C   0  0  0  0  0  0  0  0  0  0  0  0
  -19.1715  -25.3496   24.2696 C   0  0  0  0  0  0  0  0  0  0  0  0
  -27.5896  -18.5036   23.5052 N   0  0  0  0  0  0  0  0  0  0  0  0
  -20.1935  -20.1472   23.1083 N   0  0  0  0  0  0  0  0  0  0  0  0
  -27.1345  -19.7167   23.8622 N   0  0  0  0  0  0  0  0  0  0  0  0
  -22.0607  -19.7599   23.7981 N   0  0  0  0  0  0  0  0  0  0  0  0
  -20.9193  -20.3419   24.3862 N   0  0  0  0  0  0  0  0  0  0  0  0
  -25.7932  -30.6458   22.2026 N   0  0  0  0  0  0  0  0  0  0  0  0
  -24.1413  -18.7108   26.0206 N   0  0  0  0  0  0  0  0  0  0  0  0
  -27.3612  -22.0294   23.4032 N   0  0  0  0  0  0  0  0  0  0  0  0
  -30.2849  -20.1087   20.5468 N   0  0  0  0  0  0  0  0  0  0  0  0
  -27.9315  -28.0048   20.8801 N   0  0  0  0  0  0  0  0  0  0  0  0
  -25.3504  -33.5943   23.8054 N   0  0  0  0  0  0  0  0  0  0  0  0
  -22.7400  -35.7160   22.4817 N   0  3  0  0  0  0  0  0  0  0  0  0
  -29.4288  -22.1098   21.2689 O   0  0  0  0  0  0  0  0  0  0  0  0
  -26.9342  -28.4771   22.9307 O   0  0  0  0  0  0  0  0  0  0  0  0
  -21.9449  -18.6970   26.7791 O   0  0  0  0  0  0  0  0  0  0  0  0
  -27.5103  -32.1819   22.5608 O   0  0  0  0  0  0  0  0  0  0  0  0
  -23.0570  -33.2522   23.8030 O   0  0  0  0  0  0  0  0  0  0  0  0
  -31.2828  -14.6523   20.0300 O   0  0  0  0  0  0  0  0  0  0  0  0
  -20.6183  -27.3851   21.3437 O   0  0  0  0  0  0  0  0  0  1  0  0
  -28.4237  -10.2121   18.4444 F   0  0  0  0  0  0  0  0  0  0  0  0
  -31.1922  -13.8986   17.3718 F   0  0  0  0  0  0  0  0  0  0  0  0
  1  2  1  0  0  0  0
  1  5  2  0  0  0  0
  2  6  2  0  0  0  0
  3  8  2  0  0  0  0
  3 15  1  0  0  0  0
  4  9  1  0  0  0  0
  4 15  2  0  0  0  0
  5 17  1  0  0  0  0
  6 19  1  0  0  0  0
  7 10  2  0  0  0  0
  7 18  1  0  0  0  0
  8 21  1  0  0  0  0
  9 21  2  0  0  0  0
 10 22  1  0  0  0  0
 11 12  2  0  0  0  0
 11 23  1  0  0  0  0
 12 24  1  0  0  0  0
 13 20  1  0  0  0  0
 13 22  2  0  0  0  0
 14 24  2  0  0  0  0
 14 25  1  0  0  0  0
 15 26  1  0  0  0  0
 16 26  1  0  0  0  0
 16 27  2  0  0  0  0
 16 29  1  0  0  0  0
 17 19  2  0  0  0  0
 17 34  1  0  0  0  0
 18 20  2  0  0  0  0
 18 35  1  0  0  0  0
 19 43  1  0  0  0  0
 20 36  1  0  0  0  0
 21 87  1  0  0  0  0
 22 88  1  0  0  0  0
 23 25  2  0  0  0  0
 23 87  1  0  0  0  0
 24 89  1  0  0  0  0
 25 90  1  0  0  0  0
 26 70  2  0  0  0  0
 27 72  1  0  0  0  0
 27 77  1  0  0  0  0
 28 66  1  0  0  0  0
 28 71  2  0  0  0  0
 28 73  1  0  0  0  0
 29 78  1  0  0  0  0
 29 82  2  0  0  0  0
 30 44  1  0  0  0  0
 30 79  1  0  0  0  0
 30 83  2  0  0  0  0
 31 58  1  0  0  0  0
 31 76  1  0  0  0  0
 31 84  2  0  0  0  0
 32 64  1  0  0  0  0
 32 75  1  0  0  0  0
 32 85  2  0  0  0  0
 33 65  1  0  0  0  0
 33 80  1  0  0  0  0
 33 86  2  0  0  0  0
 34 37  1  0  0  0  0
 35 44  1  0  0  0  0
 36 75  1  0  0  0  0
 37 39  1  0  0  0  0
 38 40  1  0  0  0  0
 38 41  1  0  0  0  0
 39 43  1  0  0  0  0
 40 45  1  0  0  0  0
 41 76  1  0  0  0  0
 42 45  1  0  0  0  0
 42 76  1  0  0  0  0
 43 79  1  0  0  0  0
 44 75  1  0  0  0  0
 45 72  1  0  0  0  0
 46 65  1  0  0  0  0
 47 66  1  0  0  0  0
 48 66  1  0  0  0  0
 49 66  1  0  0  0  0
 50 67  1  0  0  0  0
 51 67  1  0  0  0  0
 52 67  1  0  0  0  0
 53 68  1  0  0  0  0
 54 68  1  0  0  0  0
 55 69  1  0  0  0  0
 56 69  1  0  0  0  0
 57 81  1  0  0  0  0
 58 73  1  0  0  0  0
 59 62  1  0  0  0  0
 59 68  1  0  0  0  0
 60 63  1  0  0  0  0
 60 69  1  0  0  0  0
 61 68  1  0  0  0  0
 61 69  1  0  0  0  0
 62 74  1  0  0  0  0
 63 88  1  0  0  0  0
 64 67  1  0  0  0  0
 64 80  1  0  0  0  0
 65 81  1  0  0  0  0
 70 72  1  0  0  0  0
 71 74  1  0  0  0  0
 73 74  1  0  0  0  0
M  CHG  1  81   1
M  ISO  4  31 100  58 100  63 101  88 101
M  END
> <Batch ID>
0066

> <Smiles>
CNC(C)C(=O)NC(C(=O)N1Cc2cc([101O:1][101CH2:1]CC(C)(C)CC(C)(C)CCn3nc(C(C)(C)C)n3[100CH2:0][100C:0](=O)N3CCCC(n4nc(-c5ccc(Oc6ccc(F)cc6F)cc5)c(C(N)=O)c4N)C3)ccc2CC1C(=O)NC1CCCc2ccccc21)C(C)(C)C

> <Shape>
0.281

> <Color>
0.065

> <Negative vol penalty>
0.000

$$$$

  -OEChem-04052318093D

 94102  0     1  0  0  0  0  0999 V2000
  -18.2309  -14.1288   20.9860 C   0  0  0  0  0  0  0  0  0  0  0  0
  -18.8321  -15.2387   21.5710 C   0  0  0  0  0  0  0  0  0  0  0  0
  -22.4347  -28.8298   20.6669 C   0  0  0  0  0  0  0  0  0  0  0  0
  -23.2844  -26.8567   21.7724 C   0  0  0  0  0  0  0  0  0  0  0  0
  -18.9825  -12.9817   20.7348 C   0  0  0  0  0  0  0  0  0  0  0  0
  -20.1851  -15.2016   21.9062 C   0  0  0  0  0  0  0  0  0  0  0  0
  -24.1635  -19.8519   21.6765 C   0  0  0  0  0  0  0  0  0  0  0  0
  -21.1474  -28.5220   21.1070 C   0  0  0  0  0  0  0  0  0  0  0  0
  -21.9971  -26.5489   22.2125 C   0  0  0  0  0  0  0  0  0  0  0  0
  -24.6529  -20.7168   22.6544 C   0  0  0  0  0  0  0  0  0  0  0  0
  -17.6947  -28.4503   22.2424 C   0  0  0  0  0  0  0  0  0  0  0  0
  -16.9254  -29.4863   22.7719 C   0  0  0  0  0  0  0  0  0  0  0  0
  -26.5933  -19.3085   22.9202 C   0  0  0  0  0  0  0  0  0  0  0  0
  -18.5858  -29.8406   24.4908 C   0  0  0  0  0  0  0  0  0  0  0  0
  -29.5749  -24.6169   18.6988 C   0  0  0  0  0  0  0  0  0  0  0  0
  -23.5032  -27.9971   20.9996 C   0  0  0  0  0  0  0  0  0  0  0  0
  -25.7940  -29.0999   21.2090 C   0  0  0  0  0  0  0  0  0  0  0  0
  -20.3477  -12.9340   21.0583 C   0  0  0  0  0  0  0  0  0  0  0  0
  -24.8812  -18.7011   21.3203 C   0  0  0  0  0  0  0  0  0  0  0  0
  -20.9554  -14.0523   21.6604 C   0  0  0  0  0  0  0  0  0  0  0  0
  -26.1120  -18.4320   21.9357 C   0  0  0  0  0  0  0  0  0  0  0  0
  -20.9286  -27.3816   21.8798 C   0  0  0  0  0  0  0  0  0  0  0  0
  -25.8666  -20.4436   23.2784 C   0  0  0  0  0  0  0  0  0  0  0  0
  -18.9096  -28.1094   22.8371 C   0  0  0  0  0  0  0  0  0  0  0  0
  -17.3710  -30.1815   23.8961 C   0  0  0  0  0  0  0  0  0  0  0  0
  -19.3551  -28.8046   23.9613 C   0  0  0  0  0  0  0  0  0  0  0  0
  -24.8332  -28.3142   20.5448 C   0  0  0  0  0  0  0  0  0  0  0  0
  -29.7445  -23.4600   19.3898 C   0  0  0  0  0  0  0  0  0  0  0  0
  -26.8807  -29.0962   20.3691 C   0  0  0  0  0  0  0  0  0  0  0  0
  -25.7116  -29.7728   22.4724 C   0  0  0  0  0  0  0  0  0  0  0  0
  -24.3147  -15.5759   21.4452 C   0  0  0  0  0  0  0  0  0  0  0  0
  -27.1296  -15.3965   19.8432 C   0  0  0  0  0  0  0  0  0  0  0  0
  -28.6616  -25.2286   16.1286 C   0  0  0  0  0  0  0  0  0  0  0  0
  -30.1249  -16.8420   19.0779 C   0  0  0  0  0  0  0  0  0  0  0  0
  -21.1080  -11.6551   20.8113 C   0  0  0  0  0  0  0  0  0  0  0  0
  -24.3526  -17.7924   20.2446 C   0  0  0  0  0  0  0  0  0  0  0  0
  -26.9310  -17.2205   21.5749 C   0  0  0  0  0  0  0  0  0  0  0  0
  -22.6239  -11.8299   20.8530 C   0  0  0  0  0  0  0  0  0  0  0  0
  -28.0534  -28.7398   15.7521 C   0  0  0  0  0  0  0  0  0  0  0  0
  -23.0331  -12.6522   22.0709 C   0  0  0  0  0  0  0  0  0  0  0  0
  -27.2219  -29.0942   16.9843 C   0  0  0  0  0  0  0  0  0  0  0  0
  -27.7273  -27.3395   15.2423 C   0  0  0  0  0  0  0  0  0  0  0  0
  -27.0395  -26.6208   17.5077 C   0  0  0  0  0  0  0  0  0  0  0  0
  -22.4264  -14.0594   22.0156 C   0  0  1  0  0  0  0  0  0  0  0  0
  -24.9176  -16.3777   20.3266 C   0  0  1  0  0  0  0  0  0  0  0  0
  -27.3601  -28.0156   18.0733 C   0  0  2  0  0  0  0  0  0  0  0  0
  -32.3419  -17.1439   17.9416 C   0  0  0  0  0  0  0  0  0  0  0  0
  -27.0726  -23.5899   26.2016 C   0  0  0  0  0  0  0  0  0  0  0  0
  -25.8362  -25.7172   24.2542 C   0  0  0  0  0  0  0  0  0  0  0  0
  -28.6293  -26.9728   23.3869 C   0  0  0  0  0  0  0  0  0  0  0  0
  -30.4608  -25.8397   25.8901 C   0  0  0  0  0  0  0  0  0  0  0  0
  -30.4833  -21.4214   20.8002 C   0  0  0  0  0  0  0  0  0  0  0  0
  -32.0910  -22.5799   19.3123 C   0  0  0  0  0  0  0  0  0  0  0  0
  -26.8494  -23.5637   16.3872 C   0  0  0  0  0  0  0  0  0  0  0  0
  -29.2507  -22.8864   16.3998 C   0  0  0  0  0  0  0  0  0  0  0  0
  -28.0878  -13.4582   21.9961 C   0  0  0  0  0  0  0  0  0  0  0  0
  -30.4297  -13.8360   21.1955 C   0  0  0  0  0  0  0  0  0  0  0  0
  -28.7368  -12.8307   19.6638 C   0  0  0  0  0  0  0  0  0  0  0  0
  -27.5569  -22.9110   20.0825 C   0  0  0  0  0  0  0  0  0  0  0  0
  -28.9005  -18.3234   16.8273 C   0  0  0  0  0  0  0  0  0  0  0  0
  -30.1936  -24.0321   22.4343 C   0  0  0  0  0  0  0  0  0  0  0  0
  -31.2976  -23.7381   21.4039 C   0  0  0  0  0  0  0  0  0  0  0  0
  -25.9948  -22.6650   24.1182 C   0  0  0  0  0  0  0  0  0  1  0  0
  -28.5815  -15.2871   20.2418 C   0  0  1  0  0  0  0  0  0  0  0  0
  -30.8363  -17.0443   17.7522 C   0  0  2  0  0  0  0  0  0  0  0  0
  -27.1332  -23.5433   24.6695 C   0  0  1  0  0  0  0  0  0  0  0  0
  -27.1571  -24.9580   24.0082 C   0  0  2  0  0  0  0  0  0  0  0  0
  -28.3866  -25.8543   24.4191 C   0  0  1  0  0  0  0  0  0  0  0  0
  -29.7186  -25.0995   24.7552 C   0  0  1  0  0  0  0  0  0  0  0  0
  -30.7171  -24.8722   23.5973 C   0  0  1  0  0  0  0  0  0  0  0  0
  -30.8612  -22.8086   20.2263 C   0  0  0  0  0  0  0  0  0  0  0  0
  -28.2573  -23.9716   16.8570 C   0  0  0  0  0  0  0  0  0  0  0  0
  -28.9428  -13.8749   20.7827 C   0  0  0  0  0  0  0  0  0  0  0  0
  -25.2709  -27.8456   19.3731 N   0  0  0  0  0  0  0  0  0  0  0  0
  -28.2450  -24.2185   18.2913 N   0  0  0  0  0  0  0  0  0  0  0  0
  -28.4608  -22.9645   18.9424 N   0  0  0  0  0  0  0  0  0  0  0  0
  -26.5187  -28.3384   19.2945 N   0  0  0  0  0  0  0  0  0  0  0  0
  -26.3687  -16.3590   20.5217 N   0  0  0  0  0  0  0  0  0  0  0  0
  -27.8484  -26.3472   16.3118 N   0  0  0  0  0  0  0  0  0  0  0  0
  -28.1010  -29.6675   20.4522 N   0  0  0  0  0  0  0  0  0  0  0  0
  -24.5219  -29.6726   23.2064 N   0  0  0  0  0  0  0  0  0  0  0  0
  -23.1664  -14.8929   21.0925 N   0  0  0  0  0  0  0  0  0  0  0  0
  -29.3570  -15.6968   19.0759 N   0  0  0  0  0  0  0  0  0  0  0  0
  -30.3615  -18.2948   17.0951 N   0  3  0  0  0  0  0  0  0  0  0  0
  -26.6590  -30.4566   22.9290 O   0  0  0  0  0  0  0  0  0  0  0  0
  -24.8525  -15.5756   22.5463 O   0  0  0  0  0  0  0  0  0  0  0  0
  -26.6886  -14.6601   18.9572 O   0  0  0  0  0  0  0  0  0  0  0  0
  -29.6720  -25.2156   15.4207 O   0  0  0  0  0  0  0  0  0  0  0  0
  -30.2419  -17.6200   20.0221 O   0  0  0  0  0  0  0  0  0  0  0  0
  -19.6726  -27.0811   22.3097 O   0  0  0  0  0  0  0  0  0  0  0  0
  -26.3493  -21.2911   24.2398 O   0  0  0  0  0  0  0  0  0  1  0  0
  -16.6328  -31.1773   24.4036 F   0  0  0  0  0  0  0  0  0  0  0  0
  -20.5219  -28.4824   24.5362 F   0  0  0  0  0  0  0  0  0  0  0  0
  -31.7917  -24.2017   24.1208 F   0  0  0  0  0  0  0  0  0  0  0  0
  1  2  1  0  0  0  0
  1  5  2  0  0  0  0
  2  6  2  0  0  0  0
  3  8  2  0  0  0  0
  3 16  1  0  0  0  0
  4  9  1  0  0  0  0
  4 16  2  0  0  0  0
  5 18  1  0  0  0  0
  6 20  1  0  0  0  0
  7 10  2  0  0  0  0
  7 19  1  0  0  0  0
  8 22  1  0  0  0  0
  9 22  2  0  0  0  0
 10 23  1  0  0  0  0
 11 12  2  0  0  0  0
 11 24  1  0  0  0  0
 12 25  1  0  0  0  0
 13 21  1  0  0  0  0
 13 23  2  0  0  0  0
 14 25  2  0  0  0  0
 14 26  1  0  0  0  0
 15 28  2  0  0  0  0
 15 75  1  0  0  0  0
 16 27  1  0  0  0  0
 17 27  1  0  0  0  0
 17 29  2  0  0  0  0
 17 30  1  0  0  0  0
 18 20  2  0  0  0  0
 18 35  1  0  0  0  0
 19 21  2  0  0  0  0
 19 36  1  0  0  0  0
 20 44  1  0  0  0  0
 21 37  1  0  0  0  0
 22 90  1  0  0  0  0
 23 91  1  0  0  0  0
 24 26  2  0  0  0  0
 24 90  1  0  0  0  0
 25 92  1  0  0  0  0
 26 93  1  0  0  0  0
 27 74  2  0  0  0  0
 28 71  1  0  0  0  0
 28 76  1  0  0  0  0
 29 77  1  0  0  0  0
 29 80  1  0  0  0  0
 30 81  1  0  0  0  0
 30 85  2  0  0  0  0
 31 45  1  0  0  0  0
 31 82  1  0  0  0  0
 31 86  2  0  0  0  0
 32 64  1  0  0  0  0
 32 78  1  0  0  0  0
 32 87  2  0  0  0  0
 33 72  1  0  0  0  0
 33 79  1  0  0  0  0
 33 88  2  0  0  0  0
 34 65  1  0  0  0  0
 34 83  1  0  0  0  0
 34 89  2  0  0  0  0
 35 38  1  0  0  0  0
 36 45  1  0  0  0  0
 37 78  1  0  0  0  0
 38 40  1  0  0  0  0
 39 41  1  0  0  0  0
 39 42  1  0  0  0  0
 40 44  1  0  0  0  0
 41 46  1  0  0  0  0
 42 79  1  0  0  0  0
 43 46  1  0  0  0  0
 43 79  1  0  0  0  0
 44 82  1  0  0  0  0
 45 78  1  0  0  0  0
 46 77  1  0  0  0  0
 47 65  1  0  0  0  0
 48 66  1  0  0  0  0
 49 67  1  0  0  0  0
 50 68  1  0  0  0  0
 51 69  1  0  0  0  0
 52 71  1  0  0  0  0
 53 71  1  0  0  0  0
 54 72  1  0  0  0  0
 55 72  1  0  0  0  0
 56 73  1  0  0  0  0
 57 73  1  0  0  0  0
 58 73  1  0  0  0  0
 59 76  1  0  0  0  0
 60 84  1  0  0  0  0
 61 62  1  0  0  0  0
 61 70  1  0  0  0  0
 62 71  1  0  0  0  0
 63 66  1  0  0  0  0
 63 91  1  0  0  0  0
 64 73  1  0  0  0  0
 64 83  1  0  0  0  0
 65 84  1  0  0  0  0
 66 67  1  0  0  0  0
 67 68  1  0  0  0  0
 68 69  1  0  0  0  0
 69 70  1  0  0  0  0
 70 94  1  0  0  0  0
 72 75  1  0  0  0  0
 74 77  1  0  0  0  0
 75 76  1  0  0  0  0
M  CHG  1  84   1
M  ISO  4  33 100  63 101  72 100  91 101
M  END
> <Batch ID>
0066

> <Smiles>
CNC(C)C(=O)NC(C(=O)N1Cc2cc([101O:1][101CH2:1]C(C)C(C)C(C)C(C)C(F)CCC(C)(C)c3cn([100C:0](C)(C)[100C:0](=O)N4CCCC(n5nc(-c6ccc(Oc7ccc(F)cc7F)cc6)c(C(N)=O)c5N)C4)n3C)ccc2CC1C(=O)NC1CCCc2ccccc21)C(C)(C)C

> <Shape>
0.228

> <Color>
0.048

> <Negative vol penalty>
0.000

$$$$

  -OEChem-04052318093D

 91 99  0     1  0  0  0  0  0999 V2000
  -28.8399  -33.4274   24.7843 C   0  0  0  0  0  0  0  0  0  0  0  0
  -28.7279  -32.1098   24.3523 C   0  0  0  0  0  0  0  0  0  0  0  0
  -24.1371   -9.3489   22.2749 C   0  0  0  0  0  0  0  0  0  0  0  0
  -23.2308  -10.1679   20.1905 C   0  0  0  0  0  0  0  0  0  0  0  0
  -27.7032  -34.1263   25.1885 C   0  0  0  0  0  0  0  0  0  0  0  0
  -27.4792  -31.4899   24.3252 C   0  0  0  0  0  0  0  0  0  0  0  0
  -26.6910  -28.8945   20.0488 C   0  0  0  0  0  0  0  0  0  0  0  0
  -23.2065   -8.3099   22.2713 C   0  0  0  0  0  0  0  0  0  0  0  0
  -22.3002   -9.1289   20.1869 C   0  0  0  0  0  0  0  0  0  0  0  0
  -27.3044  -27.6474   19.9386 C   0  0  0  0  0  0  0  0  0  0  0  0
  -22.8194   -5.3178   20.7447 C   0  0  0  0  0  0  0  0  0  0  0  0
  -23.2769   -4.0367   21.0529 C   0  0  0  0  0  0  0  0  0  0  0  0
  -25.2253  -26.5788   20.5341 C   0  0  0  0  0  0  0  0  0  0  0  0
  -21.7630   -3.9485   22.9337 C   0  0  0  0  0  0  0  0  0  0  0  0
  -29.2460  -23.0836   20.7460 C   0  0  0  0  0  0  0  0  0  0  0  0
  -24.1492  -10.2780   21.2345 C   0  0  0  0  0  0  0  0  0  0  0  0
  -26.3992  -11.3408   20.6728 C   0  0  0  0  0  0  0  0  0  0  0  0
  -26.4386  -33.5178   25.1572 C   0  0  0  0  0  0  0  0  0  0  0  0
  -25.3406  -28.9937   20.4137 C   0  0  0  0  0  0  0  0  0  0  0  0
  -26.3246  -32.1808   24.7306 C   0  0  0  0  0  0  0  0  0  0  0  0
  -24.5964  -27.8282   20.6457 C   0  0  0  0  0  0  0  0  0  0  0  0
  -22.2880   -8.1999   21.2273 C   0  0  0  0  0  0  0  0  0  0  0  0
  -26.5724  -26.4894   20.1841 C   0  0  0  0  0  0  0  0  0  0  0  0
  -21.8337   -5.9144   21.5311 C   0  0  0  0  0  0  0  0  0  0  0  0
  -22.7487   -3.3520   22.1473 C   0  0  0  0  0  0  0  0  0  0  0  0
  -21.3055   -5.2297   22.6255 C   0  0  0  0  0  0  0  0  0  0  0  0
  -25.1099  -11.3518   21.2379 C   0  0  0  0  0  0  0  0  0  0  0  0
  -29.0108  -23.8283   19.6188 C   0  0  0  0  0  0  0  0  0  0  0  0
  -26.9034  -12.5894   20.9433 C   0  0  0  0  0  0  0  0  0  0  0  0
  -29.8207  -21.3377   19.4342 C   0  0  0  0  0  0  0  0  0  0  0  0
  -27.0803  -10.2953   19.9664 C   0  0  0  0  0  0  0  0  0  0  0  0
  -23.7647  -30.2952   22.8481 C   0  0  0  0  0  0  0  0  0  0  0  0
  -21.1610  -29.4438   21.1107 C   0  0  0  0  0  0  0  0  0  0  0  0
  -19.8059  -27.4098   18.7289 C   0  0  0  0  0  0  0  0  0  0  0  0
  -26.3080  -18.1337   21.1708 C   0  0  0  0  0  0  0  0  0  0  0  0
  -25.2451  -34.2982   25.6485 C   0  0  0  0  0  0  0  0  0  0  0  0
  -24.6867  -30.3453   20.5022 C   0  0  0  0  0  0  0  0  0  0  0  0
  -23.1386  -27.8797   21.0206 C   0  0  0  0  0  0  0  0  0  0  0  0
  -23.9074  -33.6901   25.2347 C   0  0  0  0  0  0  0  0  0  0  0  0
  -25.1746  -16.2525   23.9732 C   0  0  0  0  0  0  0  0  0  0  0  0
  -23.9024  -32.1864   25.4913 C   0  0  0  0  0  0  0  0  0  0  0  0
  -25.1572  -14.8105   23.4628 C   0  0  0  0  0  0  0  0  0  0  0  0
  -24.7593  -17.2410   22.8858 C   0  0  0  0  0  0  0  0  0  0  0  0
  -25.5063  -15.6943   21.1185 C   0  0  0  0  0  0  0  0  0  0  0  0
  -24.9841  -31.4819   24.6635 C   0  0  1  0  0  0  0  0  0  0  0  0
  -23.4404  -30.3496   21.3820 C   0  0  1  0  0  0  0  0  0  0  0  0
  -25.9719  -14.6657   22.1634 C   0  0  2  0  0  0  0  0  0  0  0  0
  -17.6445  -26.9260   17.5492 C   0  0  0  0  0  0  0  0  0  0  0  0
  -20.1323  -27.9986   23.5933 C   0  0  0  0  0  0  0  0  0  0  0  0
  -18.5121  -26.7779   22.1260 C   0  0  0  0  0  0  0  0  0  0  0  0
  -18.3870  -29.2615   22.3231 C   0  0  0  0  0  0  0  0  0  0  0  0
  -20.9612  -28.0853   16.0892 C   0  0  0  0  0  0  0  0  0  0  0  0
  -28.5478  -25.2525   19.7110 C   0  0  0  0  0  0  0  0  0  1  0  0
  -27.8703  -18.8770   19.3915 C   0  0  0  0  0  0  0  0  0  0  0  0
  -20.2878  -28.2153   21.0253 C   0  0  1  0  0  0  0  0  0  0  0  0
  -18.9451  -27.7135   17.5160 C   0  0  2  0  0  0  0  0  0  0  0  0
  -30.2799  -19.9269   19.2981 C   0  0  0  0  0  0  0  0  0  0  0  0
  -19.3578  -28.0621   22.2618 C   0  0  0  0  0  0  0  0  0  0  0  0
  -29.2848  -18.8813   19.9621 C   0  0  0  0  0  0  0  0  0  0  0  0
  -30.5165  -19.4427   17.8147 C   0  0  0  0  0  0  0  0  0  0  0  0
  -31.6756  -19.7292   19.9932 C   0  0  0  0  0  0  0  0  0  0  0  0
  -29.6603  -21.8093   20.6795 N   0  0  0  0  0  0  0  0  0  0  0  0
  -24.8135  -12.5151   21.8234 N   0  0  0  0  0  0  0  0  0  0  0  0
  -29.1892  -23.3005   18.3943 N   0  0  0  0  0  0  0  0  0  0  0  0
  -29.6052  -22.0209   18.2928 N   0  0  0  0  0  0  0  0  0  0  0  0
  -25.9237  -13.2467   21.6276 N   0  0  0  0  0  0  0  0  0  0  0  0
  -22.5459  -29.2250   21.1005 N   0  0  0  0  0  0  0  0  0  0  0  0
  -25.5711  -17.0522   21.6811 N   0  0  0  0  0  0  0  0  0  0  0  0
  -28.0847  -13.1783   20.6602 N   0  0  0  0  0  0  0  0  0  0  0  0
  -26.4170   -9.0754   19.7764 N   0  0  0  0  0  0  0  0  0  0  0  0
  -24.5554  -31.3393   23.2885 N   0  0  0  0  0  0  0  0  0  0  0  0
  -19.5801  -28.3053   19.7527 N   0  0  0  0  0  0  0  0  0  0  0  0
  -27.0554  -17.8675   20.0301 N   0  0  0  0  0  0  0  0  0  0  0  0
  -19.6735  -27.3652   16.2634 N   0  3  0  0  0  0  0  0  0  0  0  0
  -28.2487  -10.4331   19.5315 O   0  0  0  0  0  0  0  0  0  0  0  0
  -23.3285  -29.3748   23.5296 O   0  0  0  0  0  0  0  0  0  0  0  0
  -20.6338  -30.5571   21.1768 O   0  0  0  0  0  0  0  0  0  0  0  0
  -20.5967  -26.4697   18.7659 O   0  0  0  0  0  0  0  0  0  0  0  0
  -26.3045  -19.2522   21.6962 O   0  0  0  0  0  0  0  0  0  0  0  0
  -21.3799   -7.1860   21.2234 O   0  0  0  0  0  0  0  0  0  0  0  0
  -27.1689  -25.2708   20.0779 O   0  0  0  0  0  0  0  0  0  1  0  0
  -23.1870   -2.1212   22.4422 F   0  0  0  0  0  0  0  0  0  0  0  0
  -20.3575   -5.7971   23.3840 F   0  0  0  0  0  0  0  0  0  0  0  0
  -29.7792  -17.6124   19.8694 F   0  0  0  0  0  0  0  0  0  0  0  0
  -29.2024  -19.1343   21.2982 F   0  0  0  0  0  0  0  0  0  0  0  0
  -31.4600  -20.1997   17.2068 F   0  0  0  0  0  0  0  0  0  0  0  0
  -30.9386  -18.1585   17.7280 F   0  0  0  0  0  0  0  0  0  0  0  0
  -29.3892  -19.5312   17.0759 F   0  0  0  0  0  0  0  0  0  0  0  0
  -31.6632  -20.0104   21.3176 F   0  0  0  0  0  0  0  0  0  0  0  0
  -32.6282  -20.5117   19.4410 F   0  0  0  0  0  0  0  0  0  0  0  0
  -32.0860  -18.4458   19.8644 F   0  0  0  0  0  0  0  0  0  0  0  0
  1  2  1  0  0  0  0
  1  5  2  0  0  0  0
  2  6  2  0  0  0  0
  3  8  2  0  0  0  0
  3 16  1  0  0  0  0
  4  9  1  0  0  0  0
  4 16  2  0  0  0  0
  5 18  1  0  0  0  0
  6 20  1  0  0  0  0
  7 10  2  0  0  0  0
  7 19  1  0  0  0  0
  8 22  1  0  0  0  0
  9 22  2  0  0  0  0
 10 23  1  0  0  0  0
 11 12  2  0  0  0  0
 11 24  1  0  0  0  0
 12 25  1  0  0  0  0
 13 21  1  0  0  0  0
 13 23  2  0  0  0  0
 14 25  2  0  0  0  0
 14 26  1  0  0  0  0
 15 28  1  0  0  0  0
 15 62  2  0  0  0  0
 16 27  1  0  0  0  0
 17 27  1  0  0  0  0
 17 29  2  0  0  0  0
 17 31  1  0  0  0  0
 18 20  2  0  0  0  0
 18 36  1  0  0  0  0
 19 21  2  0  0  0  0
 19 37  1  0  0  0  0
 20 45  1  0  0  0  0
 21 38  1  0  0  0  0
 22 80  1  0  0  0  0
 23 81  1  0  0  0  0
 24 26  2  0  0  0  0
 24 80  1  0  0  0  0
 25 82  1  0  0  0  0
 26 83  1  0  0  0  0
 27 63  2  0  0  0  0
 28 53  1  0  0  0  0
 28 64  2  0  0  0  0
 29 66  1  0  0  0  0
 29 69  1  0  0  0  0
 30 57  1  0  0  0  0
 30 62  1  0  0  0  0
 30 65  2  0  0  0  0
 31 70  1  0  0  0  0
 31 75  2  0  0  0  0
 32 46  1  0  0  0  0
 32 71  1  0  0  0  0
 32 76  2  0  0  0  0
 33 55  1  0  0  0  0
 33 67  1  0  0  0  0
 33 77  2  0  0  0  0
 34 56  1  0  0  0  0
 34 72  1  0  0  0  0
 34 78  2  0  0  0  0
 35 68  1  0  0  0  0
 35 73  1  0  0  0  0
 35 79  2  0  0  0  0
 36 39  1  0  0  0  0
 37 46  1  0  0  0  0
 38 67  1  0  0  0  0
 39 41  1  0  0  0  0
 40 42  1  0  0  0  0
 40 43  1  0  0  0  0
 41 45  1  0  0  0  0
 42 47  1  0  0  0  0
 43 68  1  0  0  0  0
 44 47  1  0  0  0  0
 44 68  1  0  0  0  0
 45 71  1  0  0  0  0
 46 67  1  0  0  0  0
 47 66  1  0  0  0  0
 48 56  1  0  0  0  0
 49 58  1  0  0  0  0
 50 58  1  0  0  0  0
 51 58  1  0  0  0  0
 52 74  1  0  0  0  0
 53 81  1  0  0  0  0
 54 59  1  0  0  0  0
 54 73  1  0  0  0  0
 55 58  1  0  0  0  0
 55 72  1  0  0  0  0
 56 74  1  0  0  0  0
 57 59  1  0  0  0  0
 57 60  1  0  0  0  0
 57 61  1  0  0  0  0
 59 84  1  0  0  0  0
 59 85  1  0  0  0  0
 60 86  1  0  0  0  0
 60 87  1  0  0  0  0
 60 88  1  0  0  0  0
 61 89  1  0  0  0  0
 61 90  1  0  0  0  0
 61 91  1  0  0  0  0
 63 66  1  0  0  0  0
 64 65  1  0  0  0  0
M  CHG  1  74   1
M  ISO  4  35 100  53 101  73 100  81 101
M  END
> <Batch ID>
0066

> <Smiles>
CNC(C)C(=O)NC(C(=O)N1Cc2cc([101O:1][101CH2:1]c3cnc(C(C(F)(F)F)(C(F)(F)F)C(F)(F)C[100NH:0][100C:0](=O)N4CCCC(n5nc(-c6ccc(Oc7ccc(F)cc7F)cc6)c(C(N)=O)c5N)C4)nn3)ccc2CC1C(=O)NC1CCCc2ccccc21)C(C)(C)C

> <Shape>
0.335

> <Color>
0.094

> <Negative vol penalty>
0.000

$$$$

  -OEChem-04052318093D

101109  0     1  0  0  0  0  0999 V2000
  -32.3736  -32.7669   23.1053 C   0  0  0  0  0  0  0  0  0  0  0  0
  -31.9138  -31.5616   22.5846 C   0  0  0  0  0  0  0  0  0  0  0  0
  -22.9863  -10.1065   19.8865 C   0  0  0  0  0  0  0  0  0  0  0  0
  -24.0248   -9.6501   22.0196 C   0  0  0  0  0  0  0  0  0  0  0  0
  -31.5413  -33.5374   23.9162 C   0  0  0  0  0  0  0  0  0  0  0  0
  -30.6217  -31.1254   22.8755 C   0  0  0  0  0  0  0  0  0  0  0  0
  -26.8721  -27.9981   19.1786 C   0  0  0  0  0  0  0  0  0  0  0  0
  -22.2644   -8.9170   19.9834 C   0  0  0  0  0  0  0  0  0  0  0  0
  -23.3028   -8.4606   22.1166 C   0  0  0  0  0  0  0  0  0  0  0  0
  -26.5670  -26.6412   19.0821 C   0  0  0  0  0  0  0  0  0  0  0  0
  -20.1643   -7.5135   22.9370 C   0  0  0  0  0  0  0  0  0  0  0  0
  -19.5579   -7.2230   24.1591 C   0  0  0  0  0  0  0  0  0  0  0  0
  -24.6203  -26.9868   20.4641 C   0  0  0  0  0  0  0  0  0  0  0  0
  -20.8560   -5.1916   24.3202 C   0  0  0  0  0  0  0  0  0  0  0  0
  -26.8518  -19.8160   19.4883 C   0  0  0  0  0  0  0  0  0  0  0  0
  -23.8666  -10.4731   20.9046 C   0  0  0  0  0  0  0  0  0  0  0  0
  -24.2235  -12.9729   21.2667 C   0  0  0  0  0  0  0  0  0  0  0  0
  -30.2350  -33.1152   24.2093 C   0  0  0  0  0  0  0  0  0  0  0  0
  -26.0583  -28.8591   19.9288 C   0  0  0  0  0  0  0  0  0  0  0  0
  -29.7716  -31.8903   23.6922 C   0  0  0  0  0  0  0  0  0  0  0  0
  -24.9158  -28.3547   20.5664 C   0  0  0  0  0  0  0  0  0  0  0  0
  -22.4226   -8.0940   21.0984 C   0  0  0  0  0  0  0  0  0  0  0  0
  -25.4426  -26.1348   19.7273 C   0  0  0  0  0  0  0  0  0  0  0  0
  -21.1164   -6.6431   22.4065 C   0  0  0  0  0  0  0  0  0  0  0  0
  -19.9038   -6.0621   24.8507 C   0  0  0  0  0  0  0  0  0  0  0  0
  -21.4623   -5.4822   23.0981 C   0  0  0  0  0  0  0  0  0  0  0  0
  -24.6131  -11.7014   20.8048 C   0  0  0  0  0  0  0  0  0  0  0  0
  -25.4931  -19.6865   19.6305 C   0  0  0  0  0  0  0  0  0  0  0  0
  -25.2717  -13.7954   20.9334 C   0  0  0  0  0  0  0  0  0  0  0  0
  -23.0215  -13.3745   21.9373 C   0  0  0  0  0  0  0  0  0  0  0  0
  -26.4903  -30.6857   22.4941 C   0  0  0  0  0  0  0  0  0  0  0  0
  -23.4717  -31.6657   21.8236 C   0  0  0  0  0  0  0  0  0  0  0  0
  -20.4689  -30.9957   20.3466 C   0  0  0  0  0  0  0  0  0  0  0  0
  -30.7492  -14.8252   20.6465 C   0  0  0  0  0  0  0  0  0  0  0  0
  -29.3885  -33.9590   25.1291 C   0  0  0  0  0  0  0  0  0  0  0  0
  -26.3862  -30.3252   20.0010 C   0  0  0  0  0  0  0  0  0  0  0  0
  -23.9984  -29.2408   21.3675 C   0  0  0  0  0  0  0  0  0  0  0  0
  -27.9037  -33.6078   25.0836 C   0  0  0  0  0  0  0  0  0  0  0  0
  -29.2937  -12.9698   17.9789 C   0  0  0  0  0  0  0  0  0  0  0  0
  -27.7099  -32.0967   25.1594 C   0  0  0  0  0  0  0  0  0  0  0  0
  -27.9174  -12.5743   18.5168 C   0  0  0  0  0  0  0  0  0  0  0  0
  -30.3555  -12.9500   19.0763 C   0  0  0  0  0  0  0  0  0  0  0  0
  -28.6499  -13.3544   20.8088 C   0  0  0  0  0  0  0  0  0  0  0  0
  -28.3676  -31.3955   23.9647 C   0  0  1  0  0  0  0  0  0  0  0  0
  -25.7732  -31.0155   21.2156 C   0  0  1  0  0  0  0  0  0  0  0  0
  -27.5351  -13.4138   19.7506 C   0  0  2  0  0  0  0  0  0  0  0  0
  -18.1829  -31.9710   20.0000 C   0  0  0  0  0  0  0  0  0  0  0  0
  -28.7202  -18.3806   23.3764 C   0  0  0  0  0  0  0  0  0  0  0  0
  -28.9467  -21.0581   22.0382 C   0  0  0  0  0  0  0  0  0  0  0  0
  -24.9580  -19.8979   17.1162 C   0  0  0  0  0  0  0  0  0  0  0  0
  -23.7660  -18.2764   18.5230 C   0  0  0  0  0  0  0  0  0  0  0  0
  -22.7387  -30.9642   24.7012 C   0  0  0  0  0  0  0  0  0  0  0  0
  -20.3272  -31.0453   24.0332 C   0  0  0  0  0  0  0  0  0  0  0  0
  -21.7374  -33.0957   23.8597 C   0  0  0  0  0  0  0  0  0  0  0  0
  -30.9690  -17.9489   20.1361 C   0  0  0  0  0  0  0  0  0  0  0  0
  -31.5809  -19.1169   22.2466 C   0  0  0  0  0  0  0  0  0  0  0  0
  -24.0433  -22.8928   17.7048 C   0  0  0  0  0  0  0  0  0  0  0  0
  -22.0151  -22.8915   19.1330 C   0  0  0  0  0  0  0  0  0  0  0  0
  -20.7964  -31.0155   17.4053 C   0  0  0  0  0  0  0  0  0  0  0  0
  -30.9957  -16.6749   22.2826 C   0  0  0  0  0  0  0  0  0  0  0  0
  -22.0873  -31.2078   22.2148 C   0  0  1  0  0  0  0  0  0  0  0  0
  -19.5872  -31.8287   19.4339 C   0  0  2  0  0  0  0  0  0  0  0  0
  -29.1193  -18.4386   21.8888 C   0  0  1  0  0  0  0  0  0  0  0  0
  -28.6851  -19.7894   21.2099 C   0  0  1  0  0  0  0  0  0  0  0  0
  -24.2862  -22.6242   20.2421 C   0  0  1  0  0  0  0  0  0  0  0  0
  -24.3972  -19.7046   18.5457 C   0  0  0  0  0  0  0  0  0  0  0  0
  -21.7408  -31.5609   23.6888 C   0  0  0  0  0  0  0  0  0  0  0  0
  -30.6377  -18.0480   21.6402 C   0  0  0  0  0  0  0  0  0  0  0  0
  -23.4350  -22.2817   18.9803 C   0  0  0  0  0  0  0  0  0  0  0  0
  -24.4622  -24.0988   20.6755 C   0  0  1  0  0  0  0  0  0  1  0  0
  -23.2286  -20.7245   18.8267 C   0  0  0  0  0  0  0  0  0  0  0  0
  -25.2699  -24.1680   21.9683 C   0  0  0  0  0  0  0  0  0  0  0  0
  -25.8150  -11.7105   20.2222 N   0  0  0  0  0  0  0  0  0  0  0  0
  -25.1831  -19.5216   20.9520 N   0  0  0  0  0  0  0  0  0  0  0  0
  -26.3173  -19.5455   21.6434 N   0  0  0  0  0  0  0  0  0  0  0  0
  -27.3166  -19.7223   20.7640 N   0  0  0  0  0  0  0  0  0  0  0  0
  -26.1896  -12.9977   20.3157 N   0  0  0  0  0  0  0  0  0  0  0  0
  -24.3651  -30.6659   21.4134 N   0  0  0  0  0  0  0  0  0  0  0  0
  -29.9323  -13.7663   20.2168 N   0  0  0  0  0  0  0  0  0  0  0  0
  -25.4886  -15.1159   21.1111 N   0  0  0  0  0  0  0  0  0  0  0  0
  -22.0476  -12.4022   22.2025 N   0  0  0  0  0  0  0  0  0  0  0  0
  -27.5440  -31.5319   22.7825 N   0  0  0  0  0  0  0  0  0  0  0  0
  -21.1746  -31.7823   21.2323 N   0  0  0  0  0  0  0  0  0  0  0  0
  -30.2711  -15.5524   21.7297 N   0  0  0  0  0  0  0  0  0  0  0  0
  -19.4895  -31.1952   18.0885 N   0  3  0  0  0  0  0  0  0  0  0  0
  -22.8101  -14.5636   22.2762 O   0  0  0  0  0  0  0  0  0  0  0  0
  -26.1146  -29.7348   23.1696 O   0  0  0  0  0  0  0  0  0  0  0  0
  -23.7479  -32.8669   21.8731 O   0  0  0  0  0  0  0  0  0  0  0  0
  -20.5233  -29.7695   20.2829 O   0  0  0  0  0  0  0  0  0  0  0  0
  -31.8223  -15.1053   20.1015 O   0  0  0  0  0  0  0  0  0  0  0  0
  -21.7181   -6.9333   21.1934 O   0  0  0  0  0  0  0  0  0  0  0  0
  -25.1419  -24.8063   19.6349 O   0  0  0  0  0  0  0  0  0  1  0  0
  -19.3226   -5.7840   26.0250 F   0  0  0  0  0  0  0  0  0  0  0  0
  -22.3772   -4.6428   22.5940 F   0  0  0  0  0  0  0  0  0  0  0  0
  -23.7283  -21.9677   21.3045 F   0  0  0  0  0  0  0  0  0  0  0  0
  -23.2299  -24.6247   20.8925 F   0  0  0  0  0  0  0  0  0  0  0  0
  -22.5642  -20.2972   19.9477 F   0  0  0  0  0  0  0  0  0  0  0  0
  -22.3156  -20.5516   17.8106 F   0  0  0  0  0  0  0  0  0  0  0  0
  -26.4961  -23.6220   21.8088 F   0  0  0  0  0  0  0  0  0  0  0  0
  -24.6706  -23.5104   22.9820 F   0  0  0  0  0  0  0  0  0  0  0  0
  -25.4442  -25.4490   22.3650 F   0  0  0  0  0  0  0  0  0  0  0  0
  1  2  1  0  0  0  0
  1  5  2  0  0  0  0
  2  6  2  0  0  0  0
  3  8  2  0  0  0  0
  3 16  1  0  0  0  0
  4  9  1  0  0  0  0
  4 16  2  0  0  0  0
  5 18  1  0  0  0  0
  6 20  1  0  0  0  0
  7 10  2  0  0  0  0
  7 19  1  0  0  0  0
  8 22  1  0  0  0  0
  9 22  2  0  0  0  0
 10 23  1  0  0  0  0
 11 12  2  0  0  0  0
 11 24  1  0  0  0  0
 12 25  1  0  0  0  0
 13 21  1  0  0  0  0
 13 23  2  0  0  0  0
 14 25  2  0  0  0  0
 14 26  1  0  0  0  0
 15 28  2  0  0  0  0
 15 76  1  0  0  0  0
 16 27  1  0  0  0  0
 17 27  1  0  0  0  0
 17 29  2  0  0  0  0
 17 30  1  0  0  0  0
 18 20  2  0  0  0  0
 18 35  1  0  0  0  0
 19 21  2  0  0  0  0
 19 36  1  0  0  0  0
 20 44  1  0  0  0  0
 21 37  1  0  0  0  0
 22 91  1  0  0  0  0
 23 92  1  0  0  0  0
 24 26  2  0  0  0  0
 24 91  1  0  0  0  0
 25 93  1  0  0  0  0
 26 94  1  0  0  0  0
 27 73  2  0  0  0  0
 28 66  1  0  0  0  0
 28 74  1  0  0  0  0
 29 77  1  0  0  0  0
 29 80  1  0  0  0  0
 30 81  1  0  0  0  0
 30 86  2  0  0  0  0
 31 45  1  0  0  0  0
 31 82  1  0  0  0  0
 31 87  2  0  0  0  0
 32 61  1  0  0  0  0
 32 78  1  0  0  0  0
 32 88  2  0  0  0  0
 33 62  1  0  0  0  0
 33 83  1  0  0  0  0
 33 89  2  0  0  0  0
 34 79  1  0  0  0  0
 34 84  1  0  0  0  0
 34 90  2  0  0  0  0
 35 38  1  0  0  0  0
 36 45  1  0  0  0  0
 37 78  1  0  0  0  0
 38 40  1  0  0  0  0
 39 41  1  0  0  0  0
 39 42  1  0  0  0  0
 40 44  1  0  0  0  0
 41 46  1  0  0  0  0
 42 79  1  0  0  0  0
 43 46  1  0  0  0  0
 43 79  1  0  0  0  0
 44 82  1  0  0  0  0
 45 78  1  0  0  0  0
 46 77  1  0  0  0  0
 47 62  1  0  0  0  0
 48 63  1  0  0  0  0
 49 64  1  0  0  0  0
 50 66  1  0  0  0  0
 51 66  1  0  0  0  0
 52 67  1  0  0  0  0
 53 67  1  0  0  0  0
 54 67  1  0  0  0  0
 55 68  1  0  0  0  0
 56 68  1  0  0  0  0
 57 69  1  0  0  0  0
 58 69  1  0  0  0  0
 59 85  1  0  0  0  0
 60 68  1  0  0  0  0
 60 84  1  0  0  0  0
 61 67  1  0  0  0  0
 61 83  1  0  0  0  0
 62 85  1  0  0  0  0
 63 64  1  0  0  0  0
 63 68  1  0  0  0  0
 64 76  1  0  0  0  0
 65 69  1  0  0  0  0
 65 70  1  0  0  0  0
 65 95  1  0  0  0  0
 66 71  1  0  0  0  0
 69 71  1  0  0  0  0
 70 72  1  0  0  0  0
 70 92  1  0  0  0  0
 70 96  1  0  0  0  0
 71 97  1  0  0  0  0
 71 98  1  0  0  0  0
 72 99  1  0  0  0  0
 72100  1  0  0  0  0
 72101  1  0  0  0  0
 73 77  1  0  0  0  0
 74 75  2  0  0  0  0
 75 76  1  0  0  0  0
M  CHG  1  85   1
M  ISO  4  34 100  70 101  84 100  92 101
M  END
> <Batch ID>
0066

> <Smiles>
CNC(C)C(=O)NC(C(=O)N1Cc2cc([101O:1][101C:1](F)(C(F)C(C)(C)C(F)(F)C(C)(C)c3cn(C(C)C(C)C(C)(C)C[100NH:0][100C:0](=O)N4CCCC(n5nc(-c6ccc(Oc7ccc(F)cc7F)cc6)c(C(N)=O)c5N)C4)nn3)C(F)(F)F)ccc2CC1C(=O)NC1CCCc2ccccc21)C(C)(C)C

> <Shape>
0.300

> <Color>
0.169

> <Negative vol penalty>
0.000

$$$$

  -OEChem-04052318093D

102110  0     1  0  0  0  0  0999 V2000
  -21.3380  -19.8135   19.9695 C   0  0  0  0  0  0  0  0  0  0  0  0
  -22.6429  -19.7721   19.4888 C   0  0  0  0  0  0  0  0  0  0  0  0
  -23.1458   -9.8482   19.9323 C   0  0  0  0  0  0  0  0  0  0  0  0
  -23.6529   -9.9798   22.2908 C   0  0  0  0  0  0  0  0  0  0  0  0
  -20.4384  -18.8043   19.6287 C   0  0  0  0  0  0  0  0  0  0  0  0
  -23.0492  -18.7207   18.6679 C   0  0  0  0  0  0  0  0  0  0  0  0
  -25.7325  -20.2996   14.6739 C   0  0  0  0  0  0  0  0  0  0  0  0
  -22.3896   -8.6983   20.1590 C   0  0  0  0  0  0  0  0  0  0  0  0
  -22.8967   -8.8298   22.5176 C   0  0  0  0  0  0  0  0  0  0  0  0
  -27.0679  -20.6330   14.8956 C   0  0  0  0  0  0  0  0  0  0  0  0
  -23.2760   -5.4888   22.1643 C   0  0  0  0  0  0  0  0  0  0  0  0
  -23.8193   -4.5093   22.9954 C   0  0  0  0  0  0  0  0  0  0  0  0
  -27.7417  -18.4839   14.0316 C   0  0  0  0  0  0  0  0  0  0  0  0
  -21.9417   -4.7427   24.4979 C   0  0  0  0  0  0  0  0  0  0  0  0
  -30.6736  -18.3192   25.0608 C   0  0  0  0  0  0  0  0  0  0  0  0
  -23.7775  -10.4890   20.9982 C   0  0  0  0  0  0  0  0  0  0  0  0
  -24.1077  -13.0097   20.7876 C   0  0  0  0  0  0  0  0  0  0  0  0
  -20.8312  -17.7451   18.7954 C   0  0  0  0  0  0  0  0  0  0  0  0
  -25.3904  -19.0494   14.1386 C   0  0  0  0  0  0  0  0  0  0  0  0
  -22.1544  -17.6956   18.3168 C   0  0  0  0  0  0  0  0  0  0  0  0
  -26.4014  -18.1380   13.8017 C   0  0  0  0  0  0  0  0  0  0  0  0
  -29.8950  -16.0965   23.7711 C   0  0  0  0  0  0  0  0  0  0  0  0
  -22.2650   -8.1891   21.4516 C   0  0  0  0  0  0  0  0  0  0  0  0
  -28.0726  -19.7241   14.5772 C   0  0  0  0  0  0  0  0  0  0  0  0
  -22.0655   -6.0954   22.4999 C   0  0  0  0  0  0  0  0  0  0  0  0
  -23.1522   -4.1362   24.1622 C   0  0  0  0  0  0  0  0  0  0  0  0
  -21.3984   -5.7223   23.6667 C   0  0  0  0  0  0  0  0  0  0  0  0
  -24.5592  -11.6766   20.7646 C   0  0  0  0  0  0  0  0  0  0  0  0
  -29.5092  -16.3670   25.0682 C   0  0  0  0  0  0  0  0  0  0  0  0
  -30.7069  -17.0429   23.1801 C   0  0  0  0  0  0  0  0  0  0  0  0
  -25.2259  -13.7559   20.5064 C   0  0  0  0  0  0  0  0  0  0  0  0
  -22.7947  -13.5273   21.0406 C   0  0  0  0  0  0  0  0  0  0  0  0
  -23.7029  -16.5573   15.1610 C   0  0  0  0  0  0  0  0  0  0  0  0
  -24.2172  -15.4686   12.1489 C   0  0  0  0  0  0  0  0  0  0  0  0
  -26.1402  -15.5422    9.3305 C   0  0  0  0  0  0  0  0  0  0  0  0
  -31.0013  -13.3362   21.7522 C   0  0  0  0  0  0  0  0  0  0  0  0
  -19.8368  -16.6522   18.4929 C   0  0  0  0  0  0  0  0  0  0  0  0
  -23.9468  -18.7153   13.8806 C   0  0  0  0  0  0  0  0  0  0  0  0
  -26.0881  -16.7907   13.2058 C   0  0  0  0  0  0  0  0  0  0  0  0
  -20.2402  -15.7711   17.3135 C   0  0  0  0  0  0  0  0  0  0  0  0
  -29.5828  -12.8629   18.3662 C   0  0  0  0  0  0  0  0  0  0  0  0
  -21.7043  -15.3593   17.4309 C   0  0  0  0  0  0  0  0  0  0  0  0
  -28.1141  -12.5618   18.6594 C   0  0  0  0  0  0  0  0  0  0  0  0
  -30.4905  -12.4307   19.5138 C   0  0  0  0  0  0  0  0  0  0  0  0
  -28.6359  -12.6982   21.1271 C   0  0  0  0  0  0  0  0  0  0  0  0
  -22.6258  -16.5847   17.4037 C   0  0  1  0  0  0  0  0  0  0  0  0
  -23.6843  -17.2142   13.8098 C   0  0  1  0  0  0  0  0  0  0  0  0
  -27.6897  -13.1639   20.0103 C   0  0  2  0  0  0  0  0  0  0  0  0
  -28.6299  -15.4147   25.8100 C   0  0  0  0  0  0  0  0  0  0  0  0
  -26.3318  -14.5148    7.0490 C   0  0  0  0  0  0  0  0  0  0  0  0
  -25.3209  -12.9118   13.3956 C   0  0  0  0  0  0  0  0  0  0  0  0
  -26.3445  -12.3558   11.1795 C   0  0  0  0  0  0  0  0  0  0  0  0
  -23.8669  -12.5524   11.3929 C   0  0  0  0  0  0  0  0  0  0  0  0
  -30.1741  -18.9942   20.8077 C   0  0  0  0  0  0  0  0  0  0  0  0
  -31.3046  -13.6641   24.1771 C   0  0  0  0  0  0  0  0  0  0  0  0
  -25.8245  -18.1648    7.9958 C   0  0  0  0  0  0  0  0  0  0  0  0
  -29.4639  -14.8650   23.0567 C   0  0  0  0  0  0  0  0  0  0  0  0
  -30.2701  -18.9726   15.0895 C   0  0  0  0  0  0  0  0  0  1  0  0
  -25.2880  -14.6417   11.4792 C   0  0  1  0  0  0  0  0  0  0  0  0
  -25.7726  -15.6711    7.8633 C   0  0  2  0  0  0  0  0  0  0  0  0
  -31.1942  -16.8554   21.7592 C   0  0  0  0  0  0  0  0  0  0  0  0
  -25.2112  -13.1400   11.8748 C   0  0  0  0  0  0  0  0  0  0  0  0
  -31.4472  -18.1481   20.9445 C   0  0  1  0  0  0  0  0  0  0  0  0
  -31.3795  -19.4673   15.9988 C   0  0  0  0  0  0  0  0  0  0  0  0
  -32.1123  -17.9925   19.5611 C   0  0  0  0  0  0  0  0  0  0  0  0
  -32.4223  -18.4259   16.3700 C   0  0  0  0  0  0  0  0  0  0  0  0
  -31.2882  -17.3188   18.4669 C   0  0  0  0  0  0  0  0  0  0  0  0
  -31.9656  -17.1760   17.1084 C   0  0  0  0  0  0  0  0  0  0  0  0
  -29.8813  -17.4727   25.7458 N   0  0  0  0  0  0  0  0  0  0  0  0
  -31.1168  -18.1701   23.7979 N   0  0  0  0  0  0  0  0  0  0  0  0
  -25.8628  -11.5783   20.4903 N   0  0  0  0  0  0  0  0  0  0  0  0
  -26.2398  -12.8593   20.3383 N   0  0  0  0  0  0  0  0  0  0  0  0
  -24.6612  -16.5082   12.9783 N   0  0  0  0  0  0  0  0  0  0  0  0
  -30.0394  -12.9819   20.7920 N   0  0  0  0  0  0  0  0  0  0  0  0
  -25.4311  -15.0850   20.3889 N   0  0  0  0  0  0  0  0  0  0  0  0
  -21.7604  -12.6215   21.3127 N   0  0  0  0  0  0  0  0  0  0  0  0
  -22.7786  -17.0723   16.0497 N   0  0  0  0  0  0  0  0  0  0  0  0
  -25.1596  -14.8897   10.0473 N   0  0  0  0  0  0  0  0  0  0  0  0
  -30.5314  -13.8717   22.9610 N   0  0  0  0  0  0  0  0  0  0  0  0
  -26.3110  -16.9433    7.3042 N   0  3  0  0  0  0  0  0  0  0  0  0
  -22.5426  -14.7557   21.0096 O   0  0  0  0  0  0  0  0  0  0  0  0
  -24.4961  -15.6493   15.3805 O   0  0  0  0  0  0  0  0  0  0  0  0
  -23.0304  -15.2065   11.9380 O   0  0  0  0  0  0  0  0  0  0  0  0
  -27.1937  -15.9738    9.7936 O   0  0  0  0  0  0  0  0  0  0  0  0
  -32.2116  -13.1915   21.5374 O   0  0  0  0  0  0  0  0  0  0  0  0
  -21.5270   -7.0671   21.6733 O   0  0  0  0  0  0  0  0  0  0  0  0
  -29.3850  -20.0488   14.7945 O   0  0  0  0  0  0  0  0  0  1  0  0
  -23.6733   -3.1945   24.9596 F   0  0  0  0  0  0  0  0  0  0  0  0
  -20.2346   -6.3006   23.9938 F   0  0  0  0  0  0  0  0  0  0  0  0
  -30.3429  -16.0678   21.0338 F   0  0  0  0  0  0  0  0  0  0  0  0
  -32.3728  -16.1510   21.7522 F   0  0  0  0  0  0  0  0  0  0  0  0
  -32.3065  -18.9063   21.7083 F   0  0  0  0  0  0  0  0  0  0  0  0
  -32.0217  -20.4948   15.3750 F   0  0  0  0  0  0  0  0  0  0  0  0
  -30.8342  -19.9931   17.1226 F   0  0  0  0  0  0  0  0  0  0  0  0
  -32.5443  -19.2052   19.1325 F   0  0  0  0  0  0  0  0  0  0  0  0
  -33.2381  -17.2360   19.7375 F   0  0  0  0  0  0  0  0  0  0  0  0
  -33.0329  -18.0175   15.2188 F   0  0  0  0  0  0  0  0  0  0  0  0
  -33.3938  -19.0393   17.0994 F   0  0  0  0  0  0  0  0  0  0  0  0
  -30.1074  -17.9596   18.3029 F   0  0  0  0  0  0  0  0  0  0  0  0
  -30.9753  -16.0569   18.8825 F   0  0  0  0  0  0  0  0  0  0  0  0
  -33.0589  -16.3729   17.2633 F   0  0  0  0  0  0  0  0  0  0  0  0
  -31.1189  -16.4801   16.2969 F   0  0  0  0  0  0  0  0  0  0  0  0
  1  2  1  0  0  0  0
  1  5  2  0  0  0  0
  2  6  2  0  0  0  0
  3  8  2  0  0  0  0
  3 16  1  0  0  0  0
  4  9  1  0  0  0  0
  4 16  2  0  0  0  0
  5 18  1  0  0  0  0
  6 20  1  0  0  0  0
  7 10  2  0  0  0  0
  7 19  1  0  0  0  0
  8 23  1  0  0  0  0
  9 23  2  0  0  0  0
 10 24  1  0  0  0  0
 11 12  2  0  0  0  0
 11 25  1  0  0  0  0
 12 26  1  0  0  0  0
 13 21  1  0  0  0  0
 13 24  2  0  0  0  0
 14 26  2  0  0  0  0
 14 27  1  0  0  0  0
 15 69  1  0  0  0  0
 15 70  2  0  0  0  0
 16 28  1  0  0  0  0
 17 28  1  0  0  0  0
 17 31  2  0  0  0  0
 17 32  1  0  0  0  0
 18 20  2  0  0  0  0
 18 37  1  0  0  0  0
 19 21  2  0  0  0  0
 19 38  1  0  0  0  0
 20 46  1  0  0  0  0
 21 39  1  0  0  0  0
 22 29  1  0  0  0  0
 22 30  2  0  0  0  0
 22 57  1  0  0  0  0
 23 86  1  0  0  0  0
 24 87  1  0  0  0  0
 25 27  2  0  0  0  0
 25 86  1  0  0  0  0
 26 88  1  0  0  0  0
 27 89  1  0  0  0  0
 28 71  2  0  0  0  0
 29 49  1  0  0  0  0
 29 69  2  0  0  0  0
 30 61  1  0  0  0  0
 30 70  1  0  0  0  0
 31 72  1  0  0  0  0
 31 75  1  0  0  0  0
 32 76  1  0  0  0  0
 32 81  2  0  0  0  0
 33 47  1  0  0  0  0
 33 77  1  0  0  0  0
 33 82  2  0  0  0  0
 34 59  1  0  0  0  0
 34 73  1  0  0  0  0
 34 83  2  0  0  0  0
 35 60  1  0  0  0  0
 35 78  1  0  0  0  0
 35 84  2  0  0  0  0
 36 74  1  0  0  0  0
 36 79  1  0  0  0  0
 36 85  2  0  0  0  0
 37 40  1  0  0  0  0
 38 47  1  0  0  0  0
 39 73  1  0  0  0  0
 40 42  1  0  0  0  0
 41 43  1  0  0  0  0
 41 44  1  0  0  0  0
 42 46  1  0  0  0  0
 43 48  1  0  0  0  0
 44 74  1  0  0  0  0
 45 48  1  0  0  0  0
 45 74  1  0  0  0  0
 46 77  1  0  0  0  0
 47 73  1  0  0  0  0
 48 72  1  0  0  0  0
 50 60  1  0  0  0  0
 51 62  1  0  0  0  0
 52 62  1  0  0  0  0
 53 62  1  0  0  0  0
 54 63  1  0  0  0  0
 55 79  1  0  0  0  0
 56 80  1  0  0  0  0
 57 79  1  0  0  0  0
 58 64  1  0  0  0  0
 58 87  1  0  0  0  0
 59 62  1  0  0  0  0
 59 78  1  0  0  0  0
 60 80  1  0  0  0  0
 61 63  1  0  0  0  0
 61 90  1  0  0  0  0
 61 91  1  0  0  0  0
 63 65  1  0  0  0  0
 63 92  1  0  0  0  0
 64 66  1  0  0  0  0
 64 93  1  0  0  0  0
 64 94  1  0  0  0  0
 65 67  1  0  0  0  0
 65 95  1  0  0  0  0
 65 96  1  0  0  0  0
 66 68  1  0  0  0  0
 66 97  1  0  0  0  0
 66 98  1  0  0  0  0
 67 68  1  0  0  0  0
 67 99  1  0  0  0  0
 67100  1  0  0  0  0
 68101  1  0  0  0  0
 68102  1  0  0  0  0
 71 72  1  0  0  0  0
M  CHG  1  80   1
M  ISO  4  36 100  58 101  79 100  87 101
M  END
> <Batch ID>
0066

> <Smiles>
CNC(C)C(=O)NC(C(=O)N1Cc2cc([101O:1][101CH2:1]C(F)(F)C(F)(F)C(F)(F)C(F)(F)C(F)(F)C(C)(F)C(F)(F)c3ncnc(C)c3C[100N:0](C)[100C:0](=O)N3CCCC(n4nc(-c5ccc(Oc6ccc(F)cc6F)cc5)c(C(N)=O)c4N)C3)ccc2CC1C(=O)NC1CCCc2ccccc21)C(C)(C)C

> <Shape>
0.175

> <Color>
0.184

> <Negative vol penalty>
0.000

$$$$

  -OEChem-04052318093D

 88 96  0     1  0  0  0  0  0999 V2000
  -16.9070  -28.2458   23.9687 C   0  0  0  0  0  0  0  0  0  0  0  0
  -17.5581  -27.5885   22.9297 C   0  0  0  0  0  0  0  0  0  0  0  0
  -23.5168  -16.2801   20.1747 C   0  0  0  0  0  0  0  0  0  0  0  0
  -24.6483  -16.3563   22.3080 C   0  0  0  0  0  0  0  0  0  0  0  0
  -17.3722  -29.4843   24.4086 C   0  0  0  0  0  0  0  0  0  0  0  0
  -18.6744  -28.1699   22.3294 C   0  0  0  0  0  0  0  0  0  0  0  0
  -22.4467  -24.8645   21.6300 C   0  0  0  0  0  0  0  0  0  0  0  0
  -22.9977  -17.5542   20.4045 C   0  0  0  0  0  0  0  0  0  0  0  0
  -24.1292  -17.6304   22.5378 C   0  0  0  0  0  0  0  0  0  0  0  0
  -22.3330  -23.9873   20.5524 C   0  0  0  0  0  0  0  0  0  0  0  0
  -24.7908  -20.7997   21.5690 C   0  0  0  0  0  0  0  0  0  0  0  0
  -25.6600  -21.7727   22.0622 C   0  0  0  0  0  0  0  0  0  0  0  0
  -23.8157  -25.3876   19.2639 C   0  0  0  0  0  0  0  0  0  0  0  0
  -24.2667  -22.0252   24.0198 C   0  0  0  0  0  0  0  0  0  0  0  0
  -28.9637  -17.8066   21.6895 C   0  0  0  0  0  0  0  0  0  0  0  0
  -24.3421  -15.6811   21.1265 C   0  0  0  0  0  0  0  0  0  0  0  0
  -24.1528  -13.1762   20.6823 C   0  0  0  0  0  0  0  0  0  0  0  0
  -18.5005  -30.0767   23.8199 C   0  0  0  0  0  0  0  0  0  0  0  0
  -23.2384  -26.0175   21.5288 C   0  0  0  0  0  0  0  0  0  0  0  0
  -19.1544  -29.4181   22.7610 C   0  0  0  0  0  0  0  0  0  0  0  0
  -23.9398  -26.2765   20.3426 C   0  0  0  0  0  0  0  0  0  0  0  0
  -23.3039  -18.2294   21.5860 C   0  0  0  0  0  0  0  0  0  0  0  0
  -23.0153  -24.2503   19.3681 C   0  0  0  0  0  0  0  0  0  0  0  0
  -23.6594  -20.4395   22.3011 C   0  0  0  0  0  0  0  0  0  0  0  0
  -25.3980  -22.3854   23.2876 C   0  0  0  0  0  0  0  0  0  0  0  0
  -23.3974  -21.0522   23.5265 C   0  0  0  0  0  0  0  0  0  0  0  0
  -24.8781  -14.3648   20.8899 C   0  0  0  0  0  0  0  0  0  0  0  0
  -25.1157  -12.2127   20.5062 C   0  0  0  0  0  0  0  0  0  0  0  0
  -28.7701  -18.0088   19.6269 C   0  0  0  0  0  0  0  0  0  0  0  0
  -22.7355  -12.9623   20.6513 C   0  0  0  0  0  0  0  0  0  0  0  0
  -22.6817  -29.1426   21.6958 C   0  0  0  0  0  0  0  0  0  0  0  0
  -25.9151  -29.3331   21.5189 C   0  0  0  0  0  0  0  0  0  0  0  0
  -28.8542  -27.8888   20.5586 C   0  0  0  0  0  0  0  0  0  0  0  0
  -29.0735  -15.3275   21.7603 C   0  0  0  0  0  0  0  0  0  0  0  0
  -18.9380  -31.4386   24.2978 C   0  0  0  0  0  0  0  0  0  0  0  0
  -23.3719  -26.9398   22.7095 C   0  0  0  0  0  0  0  0  0  0  0  0
  -24.8189  -27.4899   20.1899 C   0  0  0  0  0  0  0  0  0  0  0  0
  -20.3515  -31.8129   23.8595 C   0  0  0  0  0  0  0  0  0  0  0  0
  -28.9433  -13.4867   18.5927 C   0  0  0  0  0  0  0  0  0  0  0  0
  -20.5509  -31.5037   22.3791 C   0  0  0  0  0  0  0  0  0  0  0  0
  -28.3233  -12.1698   19.0813 C   0  0  0  0  0  0  0  0  0  0  0  0
  -29.8451  -14.1142   19.6466 C   0  0  0  0  0  0  0  0  0  0  0  0
  -28.7097  -12.9171   21.4622 C   0  0  0  0  0  0  0  0  0  0  0  0
  -20.3833  -30.0049   22.1011 C   0  0  1  0  0  0  0  0  0  0  0  0
  -23.7970  -28.3521   22.3194 C   0  0  1  0  0  0  0  0  0  0  0  0
  -27.7064  -12.2442   20.4993 C   0  0  1  0  0  0  0  0  0  0  0  0
  -31.3290  -28.3017   20.5113 C   0  0  0  0  0  0  0  0  0  0  0  0
  -25.5489  -31.2442   19.1687 C   0  0  0  0  0  0  0  0  0  0  0  0
  -27.9533  -30.8697   18.5796 C   0  0  0  0  0  0  0  0  0  0  0  0
  -27.3536  -31.8966   20.7725 C   0  0  0  0  0  0  0  0  0  0  0  0
  -28.7061  -21.7728   15.2913 C   0  0  0  0  0  0  0  0  0  0  0  0
  -29.2997  -21.3982   17.6790 C   0  0  0  0  0  0  0  0  0  0  0  0
  -27.3422  -22.7756   17.1186 C   0  0  0  0  0  0  0  0  0  0  0  0
  -25.4018  -21.0753   14.9675 C   0  0  0  0  0  0  0  0  0  0  0  0
  -24.8494  -19.0731   16.2639 C   0  0  0  0  0  0  0  0  0  0  0  0
  -29.3967  -25.5364   22.2705 C   0  0  0  0  0  0  0  0  0  0  0  0
  -28.5961  -18.6532   18.2741 C   0  0  0  0  0  0  0  0  0  0  0  0
  -27.2985  -19.4714   18.1204 C   0  0  0  0  0  0  0  0  0  0  0  0
  -23.2939  -21.1361   17.5304 C   0  0  0  0  0  0  0  0  0  0  0  0
  -24.8166  -21.3336   17.4240 C   0  0  0  0  0  0  0  0  0  0  0  0
  -22.6784  -22.0210   18.6113 C   0  0  0  0  0  0  0  0  0  1  0  0
  -26.9203  -29.4342   20.3972 C   0  0  1  0  0  0  0  0  0  0  0  0
  -30.1704  -27.6999   21.2911 C   0  0  2  0  0  0  0  0  0  0  0  0
  -27.1162  -20.2415   16.7576 C   0  0  2  0  0  0  0  0  0  0  0  0
  -26.9260  -30.8392   19.7314 C   0  0  0  0  0  0  0  0  0  0  0  0
  -28.1197  -21.4956   16.6949 C   0  0  0  0  0  0  0  0  0  0  0  0
  -25.5574  -20.4498   16.3794 C   0  0  0  0  0  0  0  0  0  0  0  0
  -28.8219  -18.7362   20.7750 N   0  0  0  0  0  0  0  0  0  0  0  0
  -26.1998  -14.1760   20.8499 N   0  0  0  0  0  0  0  0  0  0  0  0
  -28.8700  -16.6876   19.7704 N   0  0  0  0  0  0  0  0  0  0  0  0
  -29.0353  -16.5618   21.1065 N   0  0  0  0  0  0  0  0  0  0  0  0
  -26.3126  -12.8576   20.6152 N   0  0  0  0  0  0  0  0  0  0  0  0
  -24.9120  -28.3648   21.3703 N   0  0  0  0  0  0  0  0  0  0  0  0
  -29.1460  -14.2084   20.9338 N   0  0  0  0  0  0  0  0  0  0  0  0
  -25.0469  -10.8853   20.2704 N   0  0  0  0  0  0  0  0  0  0  0  0
  -22.0810  -12.6470   21.8498 N   0  0  0  0  0  0  0  0  0  0  0  0
  -21.5695  -29.2804   22.5041 N   0  0  0  0  0  0  0  0  0  0  0  0
  -28.2047  -29.0359   20.9629 N   0  0  0  0  0  0  0  0  0  0  0  0
  -30.4452  -26.2496   21.4967 N   0  3  0  0  0  0  0  0  0  0  0  0
  -22.0716  -13.0320   19.5892 O   0  0  0  0  0  0  0  0  0  0  0  0
  -22.8206  -29.5953   20.5656 O   0  0  0  0  0  0  0  0  0  0  0  0
  -26.0204  -30.0806   22.4945 O   0  0  0  0  0  0  0  0  0  0  0  0
  -28.4452  -27.0997   19.7097 O   0  0  0  0  0  0  0  0  0  0  0  0
  -28.9713  -15.3383   22.9811 O   0  0  0  0  0  0  0  0  0  0  0  0
  -22.7978  -19.4728   21.8105 O   0  0  0  0  0  0  0  0  0  0  0  0
  -22.9047  -23.3896   18.3065 O   0  0  0  0  0  0  0  0  0  1  0  0
  -26.2337  -23.3187   23.7618 F   0  0  0  0  0  0  0  0  0  0  0  0
  -22.3127  -20.7094   24.2349 F   0  0  0  0  0  0  0  0  0  0  0  0
  1  2  1  0  0  0  0
  1  5  2  0  0  0  0
  2  6  2  0  0  0  0
  3  8  2  0  0  0  0
  3 16  1  0  0  0  0
  4  9  1  0  0  0  0
  4 16  2  0  0  0  0
  5 18  1  0  0  0  0
  6 20  1  0  0  0  0
  7 10  2  0  0  0  0
  7 19  1  0  0  0  0
  8 22  1  0  0  0  0
  9 22  2  0  0  0  0
 10 23  1  0  0  0  0
 11 12  2  0  0  0  0
 11 24  1  0  0  0  0
 12 25  1  0  0  0  0
 13 21  1  0  0  0  0
 13 23  2  0  0  0  0
 14 25  2  0  0  0  0
 14 26  1  0  0  0  0
 15 68  2  0  0  0  0
 15 71  1  0  0  0  0
 16 27  1  0  0  0  0
 17 27  1  0  0  0  0
 17 28  2  0  0  0  0
 17 30  1  0  0  0  0
 18 20  2  0  0  0  0
 18 35  1  0  0  0  0
 19 21  2  0  0  0  0
 19 36  1  0  0  0  0
 20 44  1  0  0  0  0
 21 37  1  0  0  0  0
 22 85  1  0  0  0  0
 23 86  1  0  0  0  0
 24 26  2  0  0  0  0
 24 85  1  0  0  0  0
 25 87  1  0  0  0  0
 26 88  1  0  0  0  0
 27 69  2  0  0  0  0
 28 72  1  0  0  0  0
 28 75  1  0  0  0  0
 29 57  1  0  0  0  0
 29 68  1  0  0  0  0
 29 70  2  0  0  0  0
 30 76  1  0  0  0  0
 30 80  2  0  0  0  0
 31 45  1  0  0  0  0
 31 77  1  0  0  0  0
 31 81  2  0  0  0  0
 32 62  1  0  0  0  0
 32 73  1  0  0  0  0
 32 82  2  0  0  0  0
 33 63  1  0  0  0  0
 33 78  1  0  0  0  0
 33 83  2  0  0  0  0
 34 71  1  0  0  0  0
 34 74  1  0  0  0  0
 34 84  2  0  0  0  0
 35 38  1  0  0  0  0
 36 45  1  0  0  0  0
 37 73  1  0  0  0  0
 38 40  1  0  0  0  0
 39 41  1  0  0  0  0
 39 42  1  0  0  0  0
 40 44  1  0  0  0  0
 41 46  1  0  0  0  0
 42 74  1  0  0  0  0
 43 46  1  0  0  0  0
 43 74  1  0  0  0  0
 44 77  1  0  0  0  0
 45 73  1  0  0  0  0
 46 72  1  0  0  0  0
 47 63  1  0  0  0  0
 48 65  1  0  0  0  0
 49 65  1  0  0  0  0
 50 65  1  0  0  0  0
 51 66  1  0  0  0  0
 52 66  1  0  0  0  0
 53 66  1  0  0  0  0
 54 67  1  0  0  0  0
 55 67  1  0  0  0  0
 56 79  1  0  0  0  0
 57 58  1  0  0  0  0
 58 64  1  0  0  0  0
 59 60  1  0  0  0  0
 59 61  1  0  0  0  0
 60 67  1  0  0  0  0
 61 86  1  0  0  0  0
 62 65  1  0  0  0  0
 62 78  1  0  0  0  0
 63 79  1  0  0  0  0
 64 66  1  0  0  0  0
 64 67  1  0  0  0  0
 69 72  1  0  0  0  0
 70 71  1  0  0  0  0
M  CHG  1  79   1
M  ISO  4  34 100  61 101  71 100  86 101
M  END
> <Batch ID>
0066

> <Smiles>
CNC(C)C(=O)NC(C(=O)N1Cc2cc([101O:1][101CH2:1]CCC(C)(C)C(CCc3nc[100n:0]([100C:0](=O)N4CCCC(n5nc(-c6ccc(Oc7ccc(F)cc7F)cc6)c(C(N)=O)c5N)C4)n3)C(C)(C)C)ccc2CC1C(=O)NC1CCCc2ccccc21)C(C)(C)C

> <Shape>
0.254

> <Color>
0.086

> <Negative vol penalty>
0.000

$$$$

  -OEChem-04052318093D

 93101  0     1  0  0  0  0  0999 V2000
  -22.8968  -30.0016   29.0428 C   0  0  0  0  0  0  0  0  0  0  0  0
  -23.9306  -29.4625   28.2839 C   0  0  0  0  0  0  0  0  0  0  0  0
  -23.0830   -9.8708   19.9428 C   0  0  0  0  0  0  0  0  0  0  0  0
  -23.7042   -9.9578   22.2760 C   0  0  0  0  0  0  0  0  0  0  0  0
  -22.4811  -29.3594   30.2085 C   0  0  0  0  0  0  0  0  0  0  0  0
  -24.5502  -28.2815   28.6909 C   0  0  0  0  0  0  0  0  0  0  0  0
  -25.2294  -25.0278   24.8703 C   0  0  0  0  0  0  0  0  0  0  0  0
  -22.3255   -8.7254   20.1872 C   0  0  0  0  0  0  0  0  0  0  0  0
  -22.9467   -8.8123   22.5204 C   0  0  0  0  0  0  0  0  0  0  0  0
  -26.2917  -25.2775   24.0025 C   0  0  0  0  0  0  0  0  0  0  0  0
  -23.2704   -5.4738   22.0956 C   0  0  0  0  0  0  0  0  0  0  0  0
  -23.8418   -4.4749   22.8838 C   0  0  0  0  0  0  0  0  0  0  0  0
  -27.6158  -23.6245   25.1572 C   0  0  0  0  0  0  0  0  0  0  0  0
  -22.0413   -4.7033   24.4785 C   0  0  0  0  0  0  0  0  0  0  0  0
  -32.0568  -18.3669   18.1112 C   0  0  0  0  0  0  0  0  0  0  0  0
  -23.7724  -10.4870   20.9872 C   0  0  0  0  0  0  0  0  0  0  0  0
  -24.1208  -13.0073   20.8014 C   0  0  0  0  0  0  0  0  0  0  0  0
  -23.0894  -28.1647   30.6247 C   0  0  0  0  0  0  0  0  0  0  0  0
  -25.3564  -24.0807   25.8966 C   0  0  0  0  0  0  0  0  0  0  0  0
  -24.1432  -27.6234   29.8639 C   0  0  0  0  0  0  0  0  0  0  0  0
  -26.5528  -23.3628   26.0351 C   0  0  0  0  0  0  0  0  0  0  0  0
  -22.2573   -8.1961   21.4759 C   0  0  0  0  0  0  0  0  0  0  0  0
  -27.4861  -24.5779   24.1477 C   0  0  0  0  0  0  0  0  0  0  0  0
  -22.0845   -6.0876   22.4988 C   0  0  0  0  0  0  0  0  0  0  0  0
  -23.2273   -4.0897   24.0752 C   0  0  0  0  0  0  0  0  0  0  0  0
  -21.4699   -5.7023   23.6903 C   0  0  0  0  0  0  0  0  0  0  0  0
  -24.5556  -11.6700   20.7353 C   0  0  0  0  0  0  0  0  0  0  0  0
  -32.1014  -19.2806   19.1261 C   0  0  0  0  0  0  0  0  0  0  0  0
  -25.2328  -13.7461   20.4787 C   0  0  0  0  0  0  0  0  0  0  0  0
  -32.4132  -17.2715   20.0016 C   0  0  0  0  0  0  0  0  0  0  0  0
  -22.8276  -13.5345   21.1256 C   0  0  0  0  0  0  0  0  0  0  0  0
  -25.2351  -24.1836   29.0713 C   0  0  0  0  0  0  0  0  0  0  0  0
  -25.4438  -20.9583   28.7950 C   0  0  0  0  0  0  0  0  0  0  0  0
  -26.4068  -18.2664   26.9314 C   0  0  0  0  0  0  0  0  0  0  0  0
  -30.5668  -14.8181   21.0672 C   0  0  0  0  0  0  0  0  0  0  0  0
  -22.6376  -27.5320   31.9171 C   0  0  0  0  0  0  0  0  0  0  0  0
  -24.1921  -23.8038   26.8077 C   0  0  0  0  0  0  0  0  0  0  0  0
  -26.7330  -22.3212   27.1080 C   0  0  0  0  0  0  0  0  0  0  0  0
  -23.0944  -26.0844   32.0789 C   0  0  0  0  0  0  0  0  0  0  0  0
  -29.7060  -12.3169   18.5974 C   0  0  0  0  0  0  0  0  0  0  0  0
  -24.5713  -25.9477   31.7225 C   0  0  0  0  0  0  0  0  0  0  0  0
  -28.2427  -12.0373   18.9449 C   0  0  0  0  0  0  0  0  0  0  0  0
  -30.5370  -12.5551   19.8547 C   0  0  0  0  0  0  0  0  0  0  0  0
  -28.5605  -13.3631   21.0852 C   0  0  0  0  0  0  0  0  0  0  0  0
  -24.8234  -26.3307   30.2592 C   0  0  1  0  0  0  0  0  0  0  0  0
  -24.6087  -23.1857   28.1388 C   0  0  1  0  0  0  0  0  0  0  0  0
  -27.6630  -13.1362   19.8551 C   0  0  2  0  0  0  0  0  0  0  0  0
  -31.3074  -19.5731   23.8181 C   0  0  0  0  0  0  0  0  0  0  0  0
  -26.4827  -15.7587   26.9855 C   0  0  0  0  0  0  0  0  0  0  0  0
  -29.3902  -20.5909   19.5893 C   0  0  0  0  0  0  0  0  0  0  0  0
  -31.7123  -21.2263   17.6165 C   0  0  0  0  0  0  0  0  0  0  0  0
  -33.2331  -21.5650   19.5405 C   0  0  0  0  0  0  0  0  0  0  0  0
  -34.2111  -14.6063   22.2654 C   0  0  0  0  0  0  0  0  0  0  0  0
  -34.9596  -16.9571   21.8492 C   0  0  0  0  0  0  0  0  0  0  0  0
  -34.8671  -15.3153   19.9707 C   0  0  0  0  0  0  0  0  0  0  0  0
  -27.8214  -21.0740   30.7039 C   0  0  0  0  0  0  0  0  0  0  0  0
  -28.4257  -18.7544   29.9809 C   0  0  0  0  0  0  0  0  0  0  0  0
  -26.2446  -19.1769   31.1153 C   0  0  0  0  0  0  0  0  0  0  0  0
  -24.6618  -18.0464   24.5511 C   0  0  0  0  0  0  0  0  0  0  0  0
  -31.1689  -18.9582   22.4351 C   0  0  0  0  0  0  0  0  0  0  0  0
  -29.4604  -23.2564   21.0495 C   0  0  0  0  0  0  0  0  0  0  0  0
  -29.2983  -24.7763   21.0279 C   0  0  0  0  0  0  0  0  0  0  0  0
  -30.5381  -22.8001   20.0574 C   0  0  0  0  0  0  0  0  0  0  0  0
  -32.4414  -19.1471   21.6124 C   0  0  0  0  0  0  0  0  0  0  0  0
  -28.2026  -25.2382   21.9782 C   0  0  0  0  0  0  0  0  0  1  0  0
  -32.6481  -16.1650   20.9622 C   0  0  2  0  0  0  0  0  0  0  0  0
  -26.5760  -19.9615   28.7348 C   0  0  1  0  0  0  0  0  0  0  0  0
  -25.6830  -16.9827   26.5671 C   0  0  2  0  0  0  0  0  0  0  0  0
  -30.7157  -21.2576   20.0007 C   0  0  2  0  0  0  0  0  0  0  0  0
  -31.9471  -20.8220   19.0974 C   0  0  0  0  0  0  0  0  0  0  0  0
  -34.1569  -15.7796   21.2641 C   0  0  0  0  0  0  0  0  0  0  0  0
  -27.2645  -19.7626   30.1146 C   0  0  0  0  0  0  0  0  0  0  0  0
  -25.8432  -11.5625   20.3970 N   0  0  0  0  0  0  0  0  0  0  0  0
  -32.3226  -18.5751   20.2842 N   0  0  0  0  0  0  0  0  0  0  0  0
  -26.2271  -12.8417   20.2476 N   0  0  0  0  0  0  0  0  0  0  0  0
  -32.2529  -17.1323   18.6816 N   0  3  0  0  0  0  0  0  0  0  0  0
  -25.5678  -22.0910   27.9780 N   0  0  0  0  0  0  0  0  0  0  0  0
  -29.9418  -13.6252   20.6675 N   0  0  0  0  0  0  0  0  0  0  0  0
  -25.4472  -15.0748   20.3728 N   0  0  0  0  0  0  0  0  0  0  0  0
  -21.7973  -12.6353   21.4327 N   0  0  0  0  0  0  0  0  0  0  0  0
  -24.4193  -25.2557   29.3786 N   0  0  0  0  0  0  0  0  0  0  0  0
  -26.0153  -18.7409   28.1654 N   0  0  0  0  0  0  0  0  0  0  0  0
  -31.8769  -14.9862   20.6358 N   0  0  0  0  0  0  0  0  0  0  0  0
  -25.4563  -16.9154   25.0957 N   0  3  0  0  0  0  0  0  0  0  0  0
  -22.5883  -14.7659   21.1265 O   0  0  0  0  0  0  0  0  0  0  0  0
  -26.3738  -23.9941   29.4827 O   0  0  0  0  0  0  0  0  0  0  0  0
  -24.4815  -20.7365   29.5342 O   0  0  0  0  0  0  0  0  0  0  0  0
  -27.2391  -18.7934   26.1965 O   0  0  0  0  0  0  0  0  0  0  0  0
  -29.9973  -15.6734   21.7538 O   0  0  0  0  0  0  0  0  0  0  0  0
  -21.5180   -7.0786   21.7148 O   0  0  0  0  0  0  0  0  0  0  0  0
  -28.5323  -24.8220   23.2962 O   0  0  0  0  0  0  0  0  0  1  0  0
  -23.7753   -3.1293   24.8313 F   0  0  0  0  0  0  0  0  0  0  0  0
  -20.3298   -6.2874   24.0822 F   0  0  0  0  0  0  0  0  0  0  0  0
  1  2  1  0  0  0  0
  1  5  2  0  0  0  0
  2  6  2  0  0  0  0
  3  8  2  0  0  0  0
  3 16  1  0  0  0  0
  4  9  1  0  0  0  0
  4 16  2  0  0  0  0
  5 18  1  0  0  0  0
  6 20  1  0  0  0  0
  7 10  2  0  0  0  0
  7 19  1  0  0  0  0
  8 22  1  0  0  0  0
  9 22  2  0  0  0  0
 10 23  1  0  0  0  0
 11 12  2  0  0  0  0
 11 24  1  0  0  0  0
 12 25  1  0  0  0  0
 13 21  1  0  0  0  0
 13 23  2  0  0  0  0
 14 25  2  0  0  0  0
 14 26  1  0  0  0  0
 15 28  2  0  0  0  0
 15 76  1  0  0  0  0
 16 27  1  0  0  0  0
 17 27  1  0  0  0  0
 17 29  2  0  0  0  0
 17 31  1  0  0  0  0
 18 20  2  0  0  0  0
 18 36  1  0  0  0  0
 19 21  2  0  0  0  0
 19 37  1  0  0  0  0
 20 45  1  0  0  0  0
 21 38  1  0  0  0  0
 22 90  1  0  0  0  0
 23 91  1  0  0  0  0
 24 26  2  0  0  0  0
 24 90  1  0  0  0  0
 25 92  1  0  0  0  0
 26 93  1  0  0  0  0
 27 73  2  0  0  0  0
 28 70  1  0  0  0  0
 28 74  1  0  0  0  0
 29 75  1  0  0  0  0
 29 79  1  0  0  0  0
 30 66  1  0  0  0  0
 30 74  1  0  0  0  0
 30 76  2  0  0  0  0
 31 80  1  0  0  0  0
 31 85  2  0  0  0  0
 32 46  1  0  0  0  0
 32 81  1  0  0  0  0
 32 86  2  0  0  0  0
 33 67  1  0  0  0  0
 33 77  1  0  0  0  0
 33 87  2  0  0  0  0
 34 68  1  0  0  0  0
 34 82  1  0  0  0  0
 34 88  2  0  0  0  0
 35 78  1  0  0  0  0
 35 83  1  0  0  0  0
 35 89  2  0  0  0  0
 36 39  1  0  0  0  0
 37 46  1  0  0  0  0
 38 77  1  0  0  0  0
 39 41  1  0  0  0  0
 40 42  1  0  0  0  0
 40 43  1  0  0  0  0
 41 45  1  0  0  0  0
 42 47  1  0  0  0  0
 43 78  1  0  0  0  0
 44 47  1  0  0  0  0
 44 78  1  0  0  0  0
 45 81  1  0  0  0  0
 46 77  1  0  0  0  0
 47 75  1  0  0  0  0
 48 60  1  0  0  0  0
 49 68  1  0  0  0  0
 50 69  1  0  0  0  0
 51 70  1  0  0  0  0
 52 70  1  0  0  0  0
 53 71  1  0  0  0  0
 54 71  1  0  0  0  0
 55 71  1  0  0  0  0
 56 72  1  0  0  0  0
 57 72  1  0  0  0  0
 58 72  1  0  0  0  0
 59 84  1  0  0  0  0
 60 64  1  0  0  0  0
 61 62  1  0  0  0  0
 61 63  1  0  0  0  0
 62 65  1  0  0  0  0
 63 69  1  0  0  0  0
 64 74  1  0  0  0  0
 65 91  1  0  0  0  0
 66 71  1  0  0  0  0
 66 83  1  0  0  0  0
 67 72  1  0  0  0  0
 67 82  1  0  0  0  0
 68 84  1  0  0  0  0
 69 70  1  0  0  0  0
 73 75  1  0  0  0  0
M  CHG  2  76   1  84   1
M  ISO  4  35 100  65 101  83 100  91 101
M  END
> <Batch ID>
0066

> <Smiles>
CCCn1c(C(C)(C)C(C)CCC[101CH2:1][101O:1]c2ccc3c(c2)CN(C(=O)C(NC(=O)C(C)NC)C(C)(C)C)C(C(=O)NC2CCCc4ccccc42)C3)cnc1C([100NH:0][100C:0](=O)N1CCCC(n2nc(-c3ccc(Oc4ccc(F)cc4F)cc3)c(C(N)=O)c2N)C1)C(C)(C)C

> <Shape>
0.183

> <Color>
0.159

> <Negative vol penalty>
0.000

$$$$

  -OEChem-04052318093D

102110  0     1  0  0  0  0  0999 V2000
  -17.4198  -26.2531   21.5051 C   0  0  0  0  0  0  0  0  0  0  0  0
  -18.7199  -26.0638   21.0475 C   0  0  0  0  0  0  0  0  0  0  0  0
  -24.7581  -13.1702   19.4748 C   0  0  0  0  0  0  0  0  0  0  0  0
  -24.6544  -12.2566   21.7090 C   0  0  0  0  0  0  0  0  0  0  0  0
  -17.1364  -27.2982   22.3834 C   0  0  0  0  0  0  0  0  0  0  0  0
  -19.7371  -26.9203   21.4671 C   0  0  0  0  0  0  0  0  0  0  0  0
  -23.9536  -24.4366   22.7700 C   0  0  0  0  0  0  0  0  0  0  0  0
  -26.1516  -13.1571   19.5341 C   0  0  0  0  0  0  0  0  0  0  0  0
  -26.0479  -12.2435   21.7683 C   0  0  0  0  0  0  0  0  0  0  0  0
  -24.7714  -23.9839   21.7355 C   0  0  0  0  0  0  0  0  0  0  0  0
  -29.7388  -13.0269   18.9594 C   0  0  0  0  0  0  0  0  0  0  0  0
  -30.4307  -12.5441   17.8487 C   0  0  0  0  0  0  0  0  0  0  0  0
  -26.2277  -25.8784   22.0658 C   0  0  0  0  0  0  0  0  0  0  0  0
  -29.3309  -10.4068   18.0926 C   0  0  0  0  0  0  0  0  0  0  0  0
  -24.6064  -17.9746   20.9696 C   0  0  0  0  0  0  0  0  0  0  0  0
  -24.0094  -12.7200   20.5622 C   0  0  0  0  0  0  0  0  0  0  0  0
  -21.7285  -11.7033   20.0415 C   0  0  0  0  0  0  0  0  0  0  0  0
  -18.1525  -28.1620   22.8216 C   0  0  0  0  0  0  0  0  0  0  0  0
  -24.2614  -25.6214   23.4541 C   0  0  0  0  0  0  0  0  0  0  0  0
  -19.4668  -27.9787   22.3510 C   0  0  0  0  0  0  0  0  0  0  0  0
  -25.4137  -26.3427   23.1103 C   0  0  0  0  0  0  0  0  0  0  0  0
  -26.7965  -12.6937   20.6808 C   0  0  0  0  0  0  0  0  0  0  0  0
  -25.9070  -24.7064   21.3813 C   0  0  0  0  0  0  0  0  0  0  0  0
  -28.8430  -12.1996   19.6369 C   0  0  0  0  0  0  0  0  0  0  0  0
  -30.2267  -11.2341   17.4152 C   0  0  0  0  0  0  0  0  0  0  0  0
  -28.6391  -10.8895   19.2034 C   0  0  0  0  0  0  0  0  0  0  0  0
  -22.5699  -12.7338   20.5018 C   0  0  0  0  0  0  0  0  0  0  0  0
  -20.4586  -12.2055   20.1888 C   0  0  0  0  0  0  0  0  0  0  0  0
  -23.4508  -18.2565   20.2972 C   0  0  0  0  0  0  0  0  0  0  0  0
  -25.1380  -19.1035   19.1411 C   0  0  0  0  0  0  0  0  0  0  0  0
  -22.0647  -10.4080   19.5269 C   0  0  0  0  0  0  0  0  0  0  0  0
  -22.8157  -28.4248   23.8473 C   0  0  0  0  0  0  0  0  0  0  0  0
  -25.2777  -28.9680   25.8883 C   0  0  0  0  0  0  0  0  0  0  0  0
  -28.4733  -28.2324   26.8339 C   0  0  0  0  0  0  0  0  0  0  0  0
  -21.8601  -17.1712   21.8719 C   0  0  0  0  0  0  0  0  0  0  0  0
  -17.7890  -29.3063   23.7343 C   0  0  0  0  0  0  0  0  0  0  0  0
  -23.3837  -26.0821   24.5854 C   0  0  0  0  0  0  0  0  0  0  0  0
  -25.7993  -27.6100   23.8270 C   0  0  0  0  0  0  0  0  0  0  0  0
  -18.9935  -29.9410   24.4247 C   0  0  0  0  0  0  0  0  0  0  0  0
  -19.7398  -14.8878   23.5779 C   0  0  0  0  0  0  0  0  0  0  0  0
  -20.1153  -30.1878   23.4210 C   0  0  0  0  0  0  0  0  0  0  0  0
  -18.9375  -14.2092   22.4707 C   0  0  0  0  0  0  0  0  0  0  0  0
  -19.9748  -16.3587   23.2643 C   0  0  0  0  0  0  0  0  0  0  0  0
  -19.8937  -15.9241   20.8236 C   0  0  0  0  0  0  0  0  0  0  0  0
  -20.6020  -28.8716   22.8029 C   0  0  1  0  0  0  0  0  0  0  0  0
  -23.5125  -27.5750   24.8719 C   0  0  1  0  0  0  0  0  0  0  0  0
  -19.5093  -14.4480   21.0624 C   0  0  1  0  0  0  0  0  0  0  0  0
  -30.2257  -28.8665   28.5145 C   0  0  0  0  0  0  0  0  0  0  0  0
  -28.4205  -25.4939   19.2758 C   0  0  0  0  0  0  0  0  0  0  0  0
  -26.9269  -18.8479   17.3860 C   0  0  0  0  0  0  0  0  0  0  0  0
  -26.7151  -21.0083   18.6604 C   0  0  0  0  0  0  0  0  0  0  0  0
  -25.0506  -20.4093   16.9134 C   0  0  0  0  0  0  0  0  0  0  0  0
  -25.8337  -31.5355   24.3363 C   0  0  0  0  0  0  0  0  0  0  0  0
  -28.0905  -31.6177   25.4172 C   0  0  0  0  0  0  0  0  0  0  0  0
  -26.0321  -31.7540   26.8197 C   0  0  0  0  0  0  0  0  0  0  0  0
  -28.0583  -18.4250   19.3610 C   0  0  0  0  0  0  0  0  0  0  0  0
  -27.3765  -17.0615   21.3004 C   0  0  0  0  0  0  0  0  0  0  0  0
  -27.2165  -19.2978   23.0684 C   0  0  0  0  0  0  0  0  0  0  0  0
  -20.9819  -18.4934   19.9659 C   0  0  0  0  0  0  0  0  0  0  0  0
  -28.5601  -25.4927   27.9497 C   0  0  0  0  0  0  0  0  0  0  0  0
  -26.6654  -29.5481   25.7591 C   0  0  1  0  0  0  0  0  0  0  0  0
  -29.0760  -27.9244   28.1927 C   0  0  2  0  0  0  0  0  0  0  0  0
  -28.9237  -23.2726   20.5407 C   0  0  2  0  0  0  0  0  0  0  0  0
  -28.0989  -24.5948   20.4654 C   0  0  2  0  0  0  0  0  0  1  0  0
  -28.9812  -20.1175   21.4361 C   0  0  1  0  0  0  0  0  0  0  0  0
  -25.9043  -19.8040   18.0812 C   0  0  0  0  0  0  0  0  0  0  0  0
  -26.6474  -31.0910   25.5681 C   0  0  0  0  0  0  0  0  0  0  0  0
  -27.1373  -18.4357   20.6092 C   0  0  0  0  0  0  0  0  0  0  0  0
  -27.5163  -19.6261   21.5988 C   0  0  1  0  0  0  0  0  0  0  0  0
  -28.8021  -22.6724   21.9711 C   0  0  0  0  0  0  0  0  0  0  0  0
  -29.4512  -21.3226   22.2556 C   0  0  0  0  0  0  0  0  0  0  0  0
  -30.3783  -23.4835   20.1120 C   0  0  0  0  0  0  0  0  0  0  0  0
  -21.8917  -13.8094   20.9107 N   0  0  0  0  0  0  0  0  0  0  0  0
  -25.6343  -18.5099   20.2315 N   0  0  0  0  0  0  0  0  0  0  0  0
  -20.6106  -13.4575   20.7077 N   0  0  0  0  0  0  0  0  0  0  0  0
  -23.8096  -18.9557   19.1701 N   0  3  0  0  0  0  0  0  0  0  0  0
  -24.9058  -28.0227   24.9219 N   0  0  0  0  0  0  0  0  0  0  0  0
  -20.6055  -16.5340   21.9569 N   0  0  0  0  0  0  0  0  0  0  0  0
  -19.2378  -11.6937   19.9236 N   0  0  0  0  0  0  0  0  0  0  0  0
  -23.4179  -10.0528   19.4437 N   0  0  0  0  0  0  0  0  0  0  0  0
  -21.4634  -28.1669   23.7280 N   0  0  0  0  0  0  0  0  0  0  0  0
  -27.4061  -29.1000   26.9334 N   0  0  0  0  0  0  0  0  0  0  0  0
  -22.1090  -17.8942   20.6868 N   0  0  0  0  0  0  0  0  0  0  0  0
  -29.5907  -26.5262   28.2261 N   0  3  0  0  0  0  0  0  0  0  0  0
  -21.1917   -9.5961   19.1367 O   0  0  0  0  0  0  0  0  0  0  0  0
  -23.4571  -29.2543   23.2130 O   0  0  0  0  0  0  0  0  0  0  0  0
  -24.5531  -29.3346   26.8168 O   0  0  0  0  0  0  0  0  0  0  0  0
  -28.9081  -27.7544   25.7885 O   0  0  0  0  0  0  0  0  0  0  0  0
  -22.6893  -17.1106   22.7875 O   0  0  0  0  0  0  0  0  0  0  0  0
  -28.1563  -12.6806   20.7390 O   0  0  0  0  0  0  0  0  0  0  0  0
  -26.7097  -24.2653   20.3675 O   0  0  0  0  0  0  0  0  0  1  0  0
  -30.8901  -10.7711   16.3476 F   0  0  0  0  0  0  0  0  0  0  0  0
  -27.7789  -10.0904   19.8494 F   0  0  0  0  0  0  0  0  0  0  0  0
  -29.8197  -19.0886   21.7664 F   0  0  0  0  0  0  0  0  0  0  0  0
  -26.6959  -20.6770   21.2760 F   0  0  0  0  0  0  0  0  0  0  0  0
  -27.4836  -22.5601   22.2982 F   0  0  0  0  0  0  0  0  0  0  0  0
  -29.3183  -23.5681   22.8629 F   0  0  0  0  0  0  0  0  0  0  0  0
  -30.7982  -21.4427   22.0808 F   0  0  0  0  0  0  0  0  0  0  0  0
  -29.2956  -21.0522   23.5816 F   0  0  0  0  0  0  0  0  0  0  0  0
  -30.4719  -23.9796   18.8601 F   0  0  0  0  0  0  0  0  0  0  0  0
  -31.0113  -24.3755   20.9061 F   0  0  0  0  0  0  0  0  0  0  0  0
  -31.0765  -22.3286   20.1519 F   0  0  0  0  0  0  0  0  0  0  0  0
  1  2  1  0  0  0  0
  1  5  2  0  0  0  0
  2  6  2  0  0  0  0
  3  8  2  0  0  0  0
  3 16  1  0  0  0  0
  4  9  1  0  0  0  0
  4 16  2  0  0  0  0
  5 18  1  0  0  0  0
  6 20  1  0  0  0  0
  7 10  2  0  0  0  0
  7 19  1  0  0  0  0
  8 22  1  0  0  0  0
  9 22  2  0  0  0  0
 10 23  1  0  0  0  0
 11 12  2  0  0  0  0
 11 24  1  0  0  0  0
 12 25  1  0  0  0  0
 13 21  1  0  0  0  0
 13 23  2  0  0  0  0
 14 25  2  0  0  0  0
 14 26  1  0  0  0  0
 15 29  2  0  0  0  0
 15 74  1  0  0  0  0
 16 27  1  0  0  0  0
 17 27  1  0  0  0  0
 17 28  2  0  0  0  0
 17 31  1  0  0  0  0
 18 20  2  0  0  0  0
 18 36  1  0  0  0  0
 19 21  2  0  0  0  0
 19 37  1  0  0  0  0
 20 45  1  0  0  0  0
 21 38  1  0  0  0  0
 22 90  1  0  0  0  0
 23 91  1  0  0  0  0
 24 26  2  0  0  0  0
 24 90  1  0  0  0  0
 25 92  1  0  0  0  0
 26 93  1  0  0  0  0
 27 73  2  0  0  0  0
 28 75  1  0  0  0  0
 28 79  1  0  0  0  0
 29 76  1  0  0  0  0
 29 83  1  0  0  0  0
 30 66  1  0  0  0  0
 30 74  1  0  0  0  0
 30 76  2  0  0  0  0
 31 80  1  0  0  0  0
 31 85  2  0  0  0  0
 32 46  1  0  0  0  0
 32 81  1  0  0  0  0
 32 86  2  0  0  0  0
 33 61  1  0  0  0  0
 33 77  1  0  0  0  0
 33 87  2  0  0  0  0
 34 62  1  0  0  0  0
 34 82  1  0  0  0  0
 34 88  2  0  0  0  0
 35 78  1  0  0  0  0
 35 83  1  0  0  0  0
 35 89  2  0  0  0  0
 36 39  1  0  0  0  0
 37 46  1  0  0  0  0
 38 77  1  0  0  0  0
 39 41  1  0  0  0  0
 40 42  1  0  0  0  0
 40 43  1  0  0  0  0
 41 45  1  0  0  0  0
 42 47  1  0  0  0  0
 43 78  1  0  0  0  0
 44 47  1  0  0  0  0
 44 78  1  0  0  0  0
 45 81  1  0  0  0  0
 46 77  1  0  0  0  0
 47 75  1  0  0  0  0
 48 62  1  0  0  0  0
 49 64  1  0  0  0  0
 50 66  1  0  0  0  0
 51 66  1  0  0  0  0
 52 66  1  0  0  0  0
 53 67  1  0  0  0  0
 54 67  1  0  0  0  0
 55 67  1  0  0  0  0
 56 68  1  0  0  0  0
 57 68  1  0  0  0  0
 58 69  1  0  0  0  0
 59 83  1  0  0  0  0
 60 84  1  0  0  0  0
 61 67  1  0  0  0  0
 61 82  1  0  0  0  0
 62 84  1  0  0  0  0
 63 64  1  0  0  0  0
 63 70  1  0  0  0  0
 63 72  1  0  0  0  0
 64 91  1  0  0  0  0
 65 69  1  0  0  0  0
 65 71  1  0  0  0  0
 65 94  1  0  0  0  0
 68 69  1  0  0  0  0
 68 74  1  0  0  0  0
 69 95  1  0  0  0  0
 70 71  1  0  0  0  0
 70 96  1  0  0  0  0
 70 97  1  0  0  0  0
 71 98  1  0  0  0  0
 71 99  1  0  0  0  0
 72100  1  0  0  0  0
 72101  1  0  0  0  0
 72102  1  0  0  0  0
 73 75  1  0  0  0  0
M  CHG  2  76   1  84   1
M  ISO  4  35 100  64 101  83 100  91 101
M  END
> <Batch ID>
0066

> <Smiles>
CNC(C)C(=O)NC(C(=O)N1Cc2cc([101O:1][101CH:1](C)C(C(F)(F)F)C(F)(F)C(F)(F)C(F)C(C)(F)C(C)(C)n3cc([100N:0](C)[100C:0](=O)N4CCCC(n5nc(-c6ccc(Oc7ccc(F)cc7F)cc6)c(C(N)=O)c5N)C4)nc3C(C)(C)C)ccc2CC1C(=O)NC1CCCc2ccccc21)C(C)(C)C

> <Shape>
0.242

> <Color>
0.070

> <Negative vol penalty>
0.000

$$$$

  -OEChem-04052318093D

 88 96  0     1  0  0  0  0  0999 V2000
  -16.8571  -28.8847   23.7022 C   0  0  0  0  0  0  0  0  0  0  0  0
  -17.5893  -27.7018   23.6929 C   0  0  0  0  0  0  0  0  0  0  0  0
  -24.3004   -9.0988   21.5526 C   0  0  0  0  0  0  0  0  0  0  0  0
  -24.2907  -10.6888   23.3716 C   0  0  0  0  0  0  0  0  0  0  0  0
  -17.4043  -30.0462   23.1588 C   0  0  0  0  0  0  0  0  0  0  0  0
  -18.8689  -27.6795   23.1393 C   0  0  0  0  0  0  0  0  0  0  0  0
  -23.6446  -24.3493   25.0388 C   0  0  0  0  0  0  0  0  0  0  0  0
  -23.9194   -8.0875   22.4345 C   0  0  0  0  0  0  0  0  0  0  0  0
  -23.9097   -9.6775   24.2535 C   0  0  0  0  0  0  0  0  0  0  0  0
  -24.1807  -23.1408   24.5962 C   0  0  0  0  0  0  0  0  0  0  0  0
  -22.5989   -5.1614   24.1401 C   0  0  0  0  0  0  0  0  0  0  0  0
  -21.5864   -4.2929   23.7326 C   0  0  0  0  0  0  0  0  0  0  0  0
  -25.7863  -24.3488   23.2614 C   0  0  0  0  0  0  0  0  0  0  0  0
  -20.0671   -6.1603   23.5280 C   0  0  0  0  0  0  0  0  0  0  0  0
  -27.4103  -17.5079   20.5051 C   0  0  0  0  0  0  0  0  0  0  0  0
  -24.4861  -10.3994   22.0211 C   0  0  0  0  0  0  0  0  0  0  0  0
  -24.0333  -12.2890   20.3682 C   0  0  0  0  0  0  0  0  0  0  0  0
  -18.6951  -30.0404   22.6069 C   0  0  0  0  0  0  0  0  0  0  0  0
  -24.1691  -25.5686   24.5867 C   0  0  0  0  0  0  0  0  0  0  0  0
  -19.4334  -28.8417   22.5868 C   0  0  0  0  0  0  0  0  0  0  0  0
  -25.2567  -25.5714   23.7017 C   0  0  0  0  0  0  0  0  0  0  0  0
  -26.2638  -17.0927   21.1513 C   0  0  0  0  0  0  0  0  0  0  0  0
  -23.7240   -8.3768   23.7849 C   0  0  0  0  0  0  0  0  0  0  0  0
  -25.2499  -23.1404   23.7052 C   0  0  0  0  0  0  0  0  0  0  0  0
  -22.3455   -6.5293   24.2417 C   0  0  0  0  0  0  0  0  0  0  0  0
  -20.3205   -4.7924   23.4265 C   0  0  0  0  0  0  0  0  0  0  0  0
  -21.0796   -7.0287   23.9356 C   0  0  0  0  0  0  0  0  0  0  0  0
  -24.8801  -11.4444   21.1107 C   0  0  0  0  0  0  0  0  0  0  0  0
  -26.4313  -16.0783   22.0717 C   0  0  0  0  0  0  0  0  0  0  0  0
  -24.8891  -13.1006   19.6644 C   0  0  0  0  0  0  0  0  0  0  0  0
  -28.6640  -15.9983   21.6524 C   0  0  0  0  0  0  0  0  0  0  0  0
  -22.6012  -12.3358   20.3190 C   0  0  0  0  0  0  0  0  0  0  0  0
  -23.0212  -28.0295   22.9343 C   0  0  0  0  0  0  0  0  0  0  0  0
  -25.9062  -29.3399   23.6285 C   0  0  0  0  0  0  0  0  0  0  0  0
  -30.5696  -14.7795   20.6773 C   0  0  0  0  0  0  0  0  0  0  0  0
  -29.1817  -28.8608   24.4584 C   0  0  0  0  0  0  0  0  0  0  0  0
  -19.2259  -31.3096   21.9887 C   0  0  0  0  0  0  0  0  0  0  0  0
  -23.5968  -26.8637   25.0944 C   0  0  0  0  0  0  0  0  0  0  0  0
  -25.8693  -26.8534   23.2022 C   0  0  0  0  0  0  0  0  0  0  0  0
  -20.7349  -31.2903   21.7590 C   0  0  0  0  0  0  0  0  0  0  0  0
  -29.2650  -13.1764   17.7501 C   0  0  0  0  0  0  0  0  0  0  0  0
  -21.1595  -29.9764   21.1107 C   0  0  0  0  0  0  0  0  0  0  0  0
  -27.9289  -12.6029   18.2203 C   0  0  0  0  0  0  0  0  0  0  0  0
  -30.3143  -13.1263   18.8563 C   0  0  0  0  0  0  0  0  0  0  0  0
  -28.5576  -13.2249   20.5958 C   0  0  0  0  0  0  0  0  0  0  0  0
  -20.8344  -28.7834   22.0177 C   0  0  1  0  0  0  0  0  0  0  0  0
  -23.8770  -28.0441   24.1693 C   0  0  1  0  0  0  0  0  0  0  0  0
  -27.4606  -13.2848   19.5180 C   0  0  2  0  0  0  0  0  0  0  0  0
  -25.2606  -15.5484   22.8320 C   0  0  0  0  0  0  0  0  0  0  0  0
  -31.3013  -30.1218   24.9216 C   0  0  0  0  0  0  0  0  0  0  0  0
  -29.8980  -14.1111   22.8456 C   0  0  0  0  0  0  0  0  0  0  0  0
  -26.2552  -29.8462   20.6399 C   0  0  0  0  0  0  0  0  0  0  0  0
  -28.6976  -30.2060   21.0570 C   0  0  0  0  0  0  0  0  0  0  0  0
  -27.0179  -31.7191   22.1114 C   0  0  0  0  0  0  0  0  0  0  0  0
  -32.4558  -15.7479   22.8364 C   0  0  0  0  0  0  0  0  0  0  0  0
  -31.3452  -17.6124   21.5945 C   0  0  0  0  0  0  0  0  0  0  0  0
  -29.3497  -27.7960   27.2147 C   0  0  0  0  0  0  0  0  0  0  0  0
  -24.9270  -17.7232   20.8521 C   0  0  0  0  0  0  0  0  0  0  0  0
  -24.4505  -18.7046   21.9285 C   0  0  0  0  0  0  0  0  0  0  0  0
  -25.3702  -19.9167   22.0830 C   0  0  0  0  0  0  0  0  0  0  0  0
  -30.5382  -17.0028   23.9100 C   0  0  0  0  0  0  0  0  0  0  0  0
  -24.8873  -20.8478   23.1868 C   0  0  0  0  0  0  0  0  0  1  0  0
  -27.2623  -29.3520   22.9654 C   0  0  1  0  0  0  0  0  0  0  0  0
  -30.0537  -29.4965   25.5260 C   0  0  2  0  0  0  0  0  0  0  0  0
  -29.9971  -15.3908   21.9313 C   0  0  2  0  0  0  0  0  0  0  0  0
  -27.2957  -30.2565   21.7011 C   0  0  0  0  0  0  0  0  0  0  0  0
  -31.0863  -16.4285   22.5648 C   0  0  0  0  0  0  0  0  0  0  0  0
  -28.6313  -16.9808   20.7320 N   0  0  0  0  0  0  0  0  0  0  0  0
  -26.1746  -11.6961   20.8983 N   0  0  0  0  0  0  0  0  0  0  0  0
  -27.6214  -15.5058   22.3481 N   0  0  0  0  0  0  0  0  0  0  0  0
  -26.1475  -12.7079   20.0143 N   0  0  0  0  0  0  0  0  0  0  0  0
  -25.2706  -28.0937   23.7226 N   0  0  0  0  0  0  0  0  0  0  0  0
  -29.8230  -13.7644   20.0789 N   0  0  0  0  0  0  0  0  0  0  0  0
  -24.6805  -14.1047   18.7865 N   0  0  0  0  0  0  0  0  0  0  0  0
  -21.8757  -11.4305   21.1055 N   0  0  0  0  0  0  0  0  0  0  0  0
  -21.8095  -28.6770   23.0818 N   0  0  0  0  0  0  0  0  0  0  0  0
  -28.2187  -29.7340   23.9987 N   0  0  0  0  0  0  0  0  0  0  0  0
  -31.4230  -18.0384   24.5073 N   0  3  0  0  0  0  0  0  0  0  0  0
  -30.4769  -28.4750   26.5252 N   0  3  0  0  0  0  0  0  0  0  0  0
  -21.9831  -13.1451   19.5866 O   0  0  0  0  0  0  0  0  0  0  0  0
  -23.4307  -27.4732   21.9221 O   0  0  0  0  0  0  0  0  0  0  0  0
  -25.4317  -30.3960   24.0541 O   0  0  0  0  0  0  0  0  0  0  0  0
  -31.6468  -15.1951   20.2425 O   0  0  0  0  0  0  0  0  0  0  0  0
  -29.3414  -27.7063   24.0683 O   0  0  0  0  0  0  0  0  0  0  0  0
  -23.3521   -7.3903   24.6457 O   0  0  0  0  0  0  0  0  0  0  0  0
  -25.7746  -21.9622   23.2711 O   0  0  0  0  0  0  0  0  0  1  0  0
  -19.3487   -3.9584   23.0336 F   0  0  0  0  0  0  0  0  0  0  0  0
  -20.8306   -8.3421   24.0302 F   0  0  0  0  0  0  0  0  0  0  0  0
  1  2  1  0  0  0  0
  1  5  2  0  0  0  0
  2  6  2  0  0  0  0
  3  8  2  0  0  0  0
  3 16  1  0  0  0  0
  4  9  1  0  0  0  0
  4 16  2  0  0  0  0
  5 18  1  0  0  0  0
  6 20  1  0  0  0  0
  7 10  2  0  0  0  0
  7 19  1  0  0  0  0
  8 23  1  0  0  0  0
  9 23  2  0  0  0  0
 10 24  1  0  0  0  0
 11 12  2  0  0  0  0
 11 25  1  0  0  0  0
 12 26  1  0  0  0  0
 13 21  1  0  0  0  0
 13 24  2  0  0  0  0
 14 26  2  0  0  0  0
 14 27  1  0  0  0  0
 15 22  1  0  0  0  0
 15 68  2  0  0  0  0
 16 28  1  0  0  0  0
 17 28  1  0  0  0  0
 17 30  2  0  0  0  0
 17 32  1  0  0  0  0
 18 20  2  0  0  0  0
 18 37  1  0  0  0  0
 19 21  2  0  0  0  0
 19 38  1  0  0  0  0
 20 46  1  0  0  0  0
 21 39  1  0  0  0  0
 22 29  2  0  0  0  0
 22 58  1  0  0  0  0
 23 85  1  0  0  0  0
 24 86  1  0  0  0  0
 25 27  2  0  0  0  0
 25 85  1  0  0  0  0
 26 87  1  0  0  0  0
 27 88  1  0  0  0  0
 28 69  2  0  0  0  0
 29 49  1  0  0  0  0
 29 70  1  0  0  0  0
 30 71  1  0  0  0  0
 30 74  1  0  0  0  0
 31 65  1  0  0  0  0
 31 68  1  0  0  0  0
 31 70  2  0  0  0  0
 32 75  1  0  0  0  0
 32 80  2  0  0  0  0
 33 47  1  0  0  0  0
 33 76  1  0  0  0  0
 33 81  2  0  0  0  0
 34 63  1  0  0  0  0
 34 72  1  0  0  0  0
 34 82  2  0  0  0  0
 35 65  1  0  0  0  0
 35 73  1  0  0  0  0
 35 83  2  0  0  0  0
 36 64  1  0  0  0  0
 36 77  1  0  0  0  0
 36 84  2  0  0  0  0
 37 40  1  0  0  0  0
 38 47  1  0  0  0  0
 39 72  1  0  0  0  0
 40 42  1  0  0  0  0
 41 43  1  0  0  0  0
 41 44  1  0  0  0  0
 42 46  1  0  0  0  0
 43 48  1  0  0  0  0
 44 73  1  0  0  0  0
 45 48  1  0  0  0  0
 45 73  1  0  0  0  0
 46 76  1  0  0  0  0
 47 72  1  0  0  0  0
 48 71  1  0  0  0  0
 50 64  1  0  0  0  0
 51 65  1  0  0  0  0
 52 66  1  0  0  0  0
 53 66  1  0  0  0  0
 54 66  1  0  0  0  0
 55 67  1  0  0  0  0
 56 67  1  0  0  0  0
 57 79  1  0  0  0  0
 58 59  1  0  0  0  0
 59 60  1  0  0  0  0
 60 62  1  0  0  0  0
 61 67  1  0  0  0  0
 61 78  1  0  0  0  0
 62 86  1  0  0  0  0
 63 66  1  0  0  0  0
 63 77  1  0  0  0  0
 64 79  1  0  0  0  0
 65 67  1  0  0  0  0
 69 71  1  0  0  0  0
M  CHG  2  78   1  79   1
M  ISO  4  35 100  62 101  65 100  86 101
M  END
> <Batch ID>
0066

> <Smiles>
CNC(C)C(=O)NC(C(=O)N1Cc2cc([101O:1][101CH2:1]CCCc3cnc([100C:0](C)([100C:0](=O)N4CCCC(n5nc(-c6ccc(Oc7ccc(F)cc7F)cc6)c(C(N)=O)c5N)C4)C(C)(C)CN)nc3C)ccc2CC1C(=O)NC1CCCc2ccccc21)C(C)(C)C

> <Shape>
0.259

> <Color>
0.091

> <Negative vol penalty>
0.000

$$$$

  -OEChem-04052318092D

  0  0  0     0  0  0  0  0  0999 V2000
M  END
$$$$

  -OEChem-04052318093D

 88 96  0     1  0  0  0  0  0999 V2000
  -25.0159  -30.5424   24.8826 C   0  0  0  0  0  0  0  0  0  0  0  0
  -25.4217  -29.2366   24.6264 C   0  0  0  0  0  0  0  0  0  0  0  0
  -23.2508   -9.7149   19.9364 C   0  0  0  0  0  0  0  0  0  0  0  0
  -23.5375   -9.9885   22.3196 C   0  0  0  0  0  0  0  0  0  0  0  0
  -24.6935  -31.3912   23.8245 C   0  0  0  0  0  0  0  0  0  0  0  0
  -25.5044  -28.7785   23.3119 C   0  0  0  0  0  0  0  0  0  0  0  0
  -29.7549  -26.1719   22.4267 C   0  0  0  0  0  0  0  0  0  0  0  0
  -22.4994   -8.5611   20.1591 C   0  0  0  0  0  0  0  0  0  0  0  0
  -22.7860   -8.8346   22.5425 C   0  0  0  0  0  0  0  0  0  0  0  0
  -29.8002  -24.8546   22.8810 C   0  0  0  0  0  0  0  0  0  0  0  0
  -23.2606   -5.4895   22.4160 C   0  0  0  0  0  0  0  0  0  0  0  0
  -23.7445   -4.5708   23.3474 C   0  0  0  0  0  0  0  0  0  0  0  0
  -29.2976  -24.0756   20.6539 C   0  0  0  0  0  0  0  0  0  0  0  0
  -21.7332   -4.8407   24.6585 C   0  0  0  0  0  0  0  0  0  0  0  0
  -30.9380  -16.1945   23.1403 C   0  0  0  0  0  0  0  0  0  0  0  0
  -23.7699  -10.4286   21.0166 C   0  0  0  0  0  0  0  0  0  0  0  0
  -24.0691  -12.9413   20.6931 C   0  0  0  0  0  0  0  0  0  0  0  0
  -24.7815  -30.9463   22.4960 C   0  0  0  0  0  0  0  0  0  0  0  0
  -29.4693  -26.4518   21.0826 C   0  0  0  0  0  0  0  0  0  0  0  0
  -25.1816  -29.6218   22.2352 C   0  0  0  0  0  0  0  0  0  0  0  0
  -29.2518  -25.3972   20.1845 C   0  0  0  0  0  0  0  0  0  0  0  0
  -22.2670   -8.1209   21.4622 C   0  0  0  0  0  0  0  0  0  0  0  0
  -29.5687  -23.8063   21.9952 C   0  0  0  0  0  0  0  0  0  0  0  0
  -22.0130   -6.0839   22.6059 C   0  0  0  0  0  0  0  0  0  0  0  0
  -22.9808   -4.2464   24.4686 C   0  0  0  0  0  0  0  0  0  0  0  0
  -21.2493   -5.7594   23.7271 C   0  0  0  0  0  0  0  0  0  0  0  0
  -24.5466  -11.6203   20.7871 C   0  0  0  0  0  0  0  0  0  0  0  0
  -30.2490  -15.1726   23.8206 C   0  0  0  0  0  0  0  0  0  0  0  0
  -31.1890  -17.1401   24.1042 C   0  0  0  0  0  0  0  0  0  0  0  0
  -25.1938  -13.6980   20.4718 C   0  0  0  0  0  0  0  0  0  0  0  0
  -22.7288  -13.4398   20.7967 C   0  0  0  0  0  0  0  0  0  0  0  0
  -27.1598  -28.0164   19.5589 C   0  0  0  0  0  0  0  0  0  0  0  0
  -29.0204  -27.4467   16.9636 C   0  0  0  0  0  0  0  0  0  0  0  0
  -31.4254  -25.5268   15.4881 C   0  0  0  0  0  0  0  0  0  0  0  0
  -31.0224  -12.3250   21.7686 C   0  0  0  0  0  0  0  0  0  0  0  0
  -24.3773  -31.8857   21.3875 C   0  0  0  0  0  0  0  0  0  0  0  0
  -29.4504  -27.8772   20.6026 C   0  0  0  0  0  0  0  0  0  0  0  0
  -28.9611  -25.6437   18.7274 C   0  0  0  0  0  0  0  0  0  0  0  0
  -24.8512  -31.4386   20.0070 C   0  0  0  0  0  0  0  0  0  0  0  0
  -29.5665  -13.4577   18.5594 C   0  0  0  0  0  0  0  0  0  0  0  0
  -24.5592  -29.9563   19.7966 C   0  0  0  0  0  0  0  0  0  0  0  0
  -28.0802  -13.1557   18.7429 C   0  0  0  0  0  0  0  0  0  0  0  0
  -30.4423  -12.5132   19.3770 C   0  0  0  0  0  0  0  0  0  0  0  0
  -28.6154  -12.1761   21.0088 C   0  0  0  0  0  0  0  0  0  0  0  0
  -25.3075  -29.0957   20.8218 C   0  0  1  0  0  0  0  0  0  0  0  0
  -28.6427  -28.0659   19.3222 C   0  0  1  0  0  0  0  0  0  0  0  0
  -27.7036  -13.1399   20.2346 C   0  0  2  0  0  0  0  0  0  0  0  0
  -32.7132  -25.2831   13.3481 C   0  0  0  0  0  0  0  0  0  0  0  0
  -32.3710  -18.7171   22.5621 C   0  0  0  0  0  0  0  0  0  0  0  0
  -33.1757  -18.5919   24.9038 C   0  0  0  0  0  0  0  0  0  0  0  0
  -26.5659  -26.2203   15.6289 C   0  0  0  0  0  0  0  0  0  0  0  0
  -28.0925  -25.1687   13.9461 C   0  0  0  0  0  0  0  0  0  0  0  0
  -27.9625  -27.6532   14.1287 C   0  0  0  0  0  0  0  0  0  0  0  0
  -27.4025  -20.7282   23.0829 C   0  0  0  0  0  0  0  0  0  0  0  0
  -28.2182  -20.7007   25.4443 C   0  0  0  0  0  0  0  0  0  0  0  0
  -30.6650  -17.2769   26.5580 C   0  0  0  0  0  0  0  0  0  0  0  0
  -31.7840  -12.7974   24.0656 C   0  0  0  0  0  0  0  0  0  0  0  0
  -34.0111  -25.9692   16.8583 C   0  0  0  0  0  0  0  0  0  0  0  0
  -29.7347  -13.9110   23.2617 C   0  0  0  0  0  0  0  0  0  0  0  0
  -30.9432  -19.6739   24.4039 C   0  0  0  0  0  0  0  0  0  0  0  0
  -29.6554  -19.7526   23.5622 C   0  0  0  0  0  0  0  0  0  0  0  0
  -29.2436  -22.2846   23.7937 C   0  0  0  0  0  0  0  0  0  1  0  0
  -29.1255  -26.3360   15.9465 C   0  0  1  0  0  0  0  0  0  0  0  0
  -32.6919  -25.8989   14.7385 C   0  0  2  0  0  0  0  0  0  0  0  0
  -31.9057  -18.5008   24.0241 C   0  0  0  0  0  0  0  0  0  0  0  0
  -27.9401  -26.3397   14.9404 C   0  0  0  0  0  0  0  0  0  0  0  0
  -28.6532  -20.8693   23.9781 C   0  0  0  0  0  0  0  0  0  0  0  0
  -25.8714  -11.5390   20.6376 N   0  0  0  0  0  0  0  0  0  0  0  0
  -30.0736  -15.4435   25.1167 N   0  0  0  0  0  0  0  0  0  0  0  0
  -30.6561  -16.6463   25.2585 N   0  0  0  0  0  0  0  0  0  0  0  0
  -26.2360  -12.8185   20.4473 N   0  0  0  0  0  0  0  0  0  0  0  0
  -28.9472  -27.0548   18.3078 N   0  0  0  0  0  0  0  0  0  0  0  0
  -30.0352  -12.4848   20.7823 N   0  0  0  0  0  0  0  0  0  0  0  0
  -25.3831  -15.0232   20.2977 N   0  0  0  0  0  0  0  0  0  0  0  0
  -21.6917  -12.5253   21.0256 N   0  0  0  0  0  0  0  0  0  0  0  0
  -26.7006  -28.9657   20.4519 N   0  0  0  0  0  0  0  0  0  0  0  0
  -30.4378  -26.4750   15.3244 N   0  0  0  0  0  0  0  0  0  0  0  0
  -30.7847  -12.9252   23.0144 N   0  0  0  0  0  0  0  0  0  0  0  0
  -33.8926  -25.4229   15.4819 N   0  3  0  0  0  0  0  0  0  0  0  0
  -22.4569  -14.6581   20.6730 O   0  0  0  0  0  0  0  0  0  0  0  0
  -26.4821  -27.1800   18.9734 O   0  0  0  0  0  0  0  0  0  0  0  0
  -29.0110  -28.6190   16.5799 O   0  0  0  0  0  0  0  0  0  0  0  0
  -31.3212  -24.4961   16.1494 O   0  0  0  0  0  0  0  0  0  0  0  0
  -32.0614  -11.6906   21.5452 O   0  0  0  0  0  0  0  0  0  0  0  0
  -21.5337   -6.9952   21.6800 O   0  0  0  0  0  0  0  0  0  0  0  0
  -29.6121  -22.5105   22.4392 O   0  0  0  0  0  0  0  0  0  1  0  0
  -23.4449   -3.3630   25.3621 F   0  0  0  0  0  0  0  0  0  0  0  0
  -20.0495   -6.3263   23.9144 F   0  0  0  0  0  0  0  0  0  0  0  0
  1  2  1  0  0  0  0
  1  5  2  0  0  0  0
  2  6  2  0  0  0  0
  3  8  2  0  0  0  0
  3 16  1  0  0  0  0
  4  9  1  0  0  0  0
  4 16  2  0  0  0  0
  5 18  1  0  0  0  0
  6 20  1  0  0  0  0
  7 10  2  0  0  0  0
  7 19  1  0  0  0  0
  8 22  1  0  0  0  0
  9 22  2  0  0  0  0
 10 23  1  0  0  0  0
 11 12  2  0  0  0  0
 11 24  1  0  0  0  0
 12 25  1  0  0  0  0
 13 21  1  0  0  0  0
 13 23  2  0  0  0  0
 14 25  2  0  0  0  0
 14 26  1  0  0  0  0
 15 28  1  0  0  0  0
 15 29  2  0  0  0  0
 16 27  1  0  0  0  0
 17 27  1  0  0  0  0
 17 30  2  0  0  0  0
 17 31  1  0  0  0  0
 18 20  2  0  0  0  0
 18 36  1  0  0  0  0
 19 21  2  0  0  0  0
 19 37  1  0  0  0  0
 20 45  1  0  0  0  0
 21 38  1  0  0  0  0
 22 85  1  0  0  0  0
 23 86  1  0  0  0  0
 24 26  2  0  0  0  0
 24 85  1  0  0  0  0
 25 87  1  0  0  0  0
 26 88  1  0  0  0  0
 27 68  2  0  0  0  0
 28 59  1  0  0  0  0
 28 69  2  0  0  0  0
 29 65  1  0  0  0  0
 29 70  1  0  0  0  0
 30 71  1  0  0  0  0
 30 74  1  0  0  0  0
 31 75  1  0  0  0  0
 31 80  2  0  0  0  0
 32 46  1  0  0  0  0
 32 76  1  0  0  0  0
 32 81  2  0  0  0  0
 33 63  1  0  0  0  0
 33 72  1  0  0  0  0
 33 82  2  0  0  0  0
 34 64  1  0  0  0  0
 34 77  1  0  0  0  0
 34 83  2  0  0  0  0
 35 73  1  0  0  0  0
 35 78  1  0  0  0  0
 35 84  2  0  0  0  0
 36 39  1  0  0  0  0
 37 46  1  0  0  0  0
 38 72  1  0  0  0  0
 39 41  1  0  0  0  0
 40 42  1  0  0  0  0
 40 43  1  0  0  0  0
 41 45  1  0  0  0  0
 42 47  1  0  0  0  0
 43 73  1  0  0  0  0
 44 47  1  0  0  0  0
 44 73  1  0  0  0  0
 45 76  1  0  0  0  0
 46 72  1  0  0  0  0
 47 71  1  0  0  0  0
 48 64  1  0  0  0  0
 49 65  1  0  0  0  0
 50 65  1  0  0  0  0
 51 66  1  0  0  0  0
 52 66  1  0  0  0  0
 53 66  1  0  0  0  0
 54 67  1  0  0  0  0
 55 67  1  0  0  0  0
 56 70  1  0  0  0  0
 57 78  1  0  0  0  0
 58 79  1  0  0  0  0
 59 78  1  0  0  0  0
 60 61  1  0  0  0  0
 60 65  1  0  0  0  0
 61 67  1  0  0  0  0
 62 67  1  0  0  0  0
 62 86  1  0  0  0  0
 63 66  1  0  0  0  0
 63 77  1  0  0  0  0
 64 79  1  0  0  0  0
 68 71  1  0  0  0  0
 69 70  1  0  0  0  0
M  CHG  1  79   1
M  ISO  4  35 100  62 101  78 100  86 101
M  END
> <Batch ID>
0066

> <Smiles>
CNC(C)C(=O)NC(C(=O)N1Cc2cc([101O:1][101CH2:1]C(C)(C)CCC(C)(C)c3cc(C[100N:0](C)[100C:0](=O)N4CCCC(n5nc(-c6ccc(Oc7ccc(F)cc7F)cc6)c(C(N)=O)c5N)C4)nn3C)ccc2CC1C(=O)NC1CCCc2ccccc21)C(C)(C)C

> <Shape>
0.261

> <Color>
0.196

> <Negative vol penalty>
0.000

$$$$

  -OEChem-04052318093D

 90 98  0     1  0  0  0  0  0999 V2000
  -37.5967  -14.7938   23.5848 C   0  0  0  0  0  0  0  0  0  0  0  0
  -36.8143  -15.9052   23.2882 C   0  0  0  0  0  0  0  0  0  0  0  0
  -22.6764  -25.3232   24.7737 C   0  0  0  0  0  0  0  0  0  0  0  0
  -24.8000  -24.3212   24.2049 C   0  0  0  0  0  0  0  0  0  0  0  0
  -37.3112  -13.5639   22.9935 C   0  0  0  0  0  0  0  0  0  0  0  0
  -35.7464  -15.7876   22.3992 C   0  0  0  0  0  0  0  0  0  0  0  0
  -30.4015  -18.7667   22.6506 C   0  0  0  0  0  0  0  0  0  0  0  0
  -22.1174  -24.0540   24.9225 C   0  0  0  0  0  0  0  0  0  0  0  0
  -24.2410  -23.0520   24.3537 C   0  0  0  0  0  0  0  0  0  0  0  0
  -29.9278  -19.9005   21.9920 C   0  0  0  0  0  0  0  0  0  0  0  0
  -23.4676  -19.5475   24.9356 C   0  0  0  0  0  0  0  0  0  0  0  0
  -24.2008  -18.5938   25.6416 C   0  0  0  0  0  0  0  0  0  0  0  0
  -28.8584  -18.4928   20.3506 C   0  0  0  0  0  0  0  0  0  0  0  0
  -24.1651  -20.0134   27.5963 C   0  0  0  0  0  0  0  0  0  0  0  0
  -24.0178  -25.4568   24.4149 C   0  0  0  0  0  0  0  0  0  0  0  0
  -25.2267  -27.5409   25.2534 C   0  0  0  0  0  0  0  0  0  0  0  0
  -36.2334  -13.4289   22.1043 C   0  0  0  0  0  0  0  0  0  0  0  0
  -30.1160  -17.4855   22.1572 C   0  0  0  0  0  0  0  0  0  0  0  0
  -35.4470  -14.5550   21.7945 C   0  0  0  0  0  0  0  0  0  0  0  0
  -29.3276  -17.3443   21.0063 C   0  0  0  0  0  0  0  0  0  0  0  0
  -22.8997  -22.9184   24.7125 C   0  0  0  0  0  0  0  0  0  0  0  0
  -29.1585  -19.7638   20.8402 C   0  0  0  0  0  0  0  0  0  0  0  0
  -23.0831  -20.7342   25.5599 C   0  0  0  0  0  0  0  0  0  0  0  0
  -24.5495  -18.8267   26.9719 C   0  0  0  0  0  0  0  0  0  0  0  0
  -23.4319  -20.9671   26.8902 C   0  0  0  0  0  0  0  0  0  0  0  0
  -24.5957  -26.7677   24.2605 C   0  0  0  0  0  0  0  0  0  0  0  0
  -25.5983  -28.6939   24.6061 C   0  0  0  0  0  0  0  0  0  0  0  0
  -28.0689  -26.5718   18.8412 C   0  0  0  0  0  0  0  0  0  0  0  0
  -29.5148  -25.1058   18.4985 C   0  0  0  0  0  0  0  0  0  0  0  0
  -25.4564  -27.2434   26.6370 C   0  0  0  0  0  0  0  0  0  0  0  0
  -31.8595  -15.0609   21.0685 C   0  0  0  0  0  0  0  0  0  0  0  0
  -28.9981  -13.5338   21.0204 C   0  0  0  0  0  0  0  0  0  0  0  0
  -25.5962  -13.7589   20.8670 C   0  0  0  0  0  0  0  0  0  0  0  0
  -26.8199  -30.0570   19.0092 C   0  0  0  0  0  0  0  0  0  0  0  0
  -35.9925  -12.0898   21.4534 C   0  0  0  0  0  0  0  0  0  0  0  0
  -30.6120  -16.2718   22.8943 C   0  0  0  0  0  0  0  0  0  0  0  0
  -28.9758  -15.9907   20.4472 C   0  0  0  0  0  0  0  0  0  0  0  0
  -34.6136  -11.9641   20.8109 C   0  0  0  0  0  0  0  0  0  0  0  0
  -24.3567  -31.5208   20.9626 C   0  0  0  0  0  0  0  0  0  0  0  0
  -34.2973  -13.2029   19.9790 C   0  0  0  0  0  0  0  0  0  0  0  0
  -24.1879  -30.5495   22.1301 C   0  0  0  0  0  0  0  0  0  0  0  0
  -24.5372  -30.7680   19.6499 C   0  0  0  0  0  0  0  0  0  0  0  0
  -25.5337  -28.8305   20.8221 C   0  0  0  0  0  0  0  0  0  0  0  0
  -34.2649  -14.4617   20.8542 C   0  0  1  0  0  0  0  0  0  0  0  0
  -30.6917  -15.0289   22.0134 C   0  0  1  0  0  0  0  0  0  0  0  0
  -25.3481  -29.5399   22.1792 C   0  0  2  0  0  0  0  0  0  0  0  0
  -29.2143  -24.0743   21.9253 C   0  0  0  0  0  0  0  0  0  0  0  0
  -23.5287  -12.3379   20.8078 C   0  0  0  0  0  0  0  0  0  0  0  0
  -30.3292  -24.0731   16.3679 C   0  0  0  0  0  0  0  0  0  0  0  0
  -31.9813  -24.3908   18.1877 C   0  0  0  0  0  0  0  0  0  0  0  0
  -25.0920  -28.5142   17.1829 C   0  0  0  0  0  0  0  0  0  0  0  0
  -25.2909  -26.0300   17.4034 C   0  0  0  0  0  0  0  0  0  0  0  0
  -26.9199  -27.3030   16.0038 C   0  0  0  0  0  0  0  0  0  0  0  0
  -29.5495  -12.8577   18.0965 C   0  0  0  0  0  0  0  0  0  0  0  0
  -27.1217  -12.3026   17.8395 C   0  0  0  0  0  0  0  0  0  0  0  0
  -28.5370  -10.9962   19.4247 C   0  0  0  0  0  0  0  0  0  0  0  0
  -28.7689  -29.1426   17.8079 C   0  0  0  0  0  0  0  0  0  0  0  0
  -24.5764  -14.9337   23.3847 C   0  0  0  0  0  0  0  0  0  0  0  0
  -28.7538  -22.1382   18.1577 C   0  0  0  0  0  0  0  0  0  0  0  0
  -30.1796  -22.6339   18.4280 C   0  0  0  0  0  0  0  0  0  0  0  0
  -30.1341  -24.7404   20.9165 C   0  0  0  0  0  0  0  0  0  0  0  0
  -28.5158  -20.7689   18.7829 C   0  0  0  0  0  0  0  0  0  1  0  0
  -27.0282  -27.5722   18.5765 C   0  0  2  0  0  0  0  0  0  0  0  0
  -27.8907  -13.3699   20.0076 C   0  0  1  0  0  0  0  0  0  0  0  0
  -24.5049  -13.0994   21.6908 C   0  0  2  0  0  0  0  0  0  0  0  0
  -30.4923  -24.0730   17.9089 C   0  0  0  0  0  0  0  0  0  0  0  0
  -26.0900  -27.3436   17.3086 C   0  0  0  0  0  0  0  0  0  0  0  0
  -28.2828  -12.4073   18.8513 C   0  0  0  0  0  0  0  0  0  0  0  0
  -24.5661  -27.3781   23.0728 N   0  0  0  0  0  0  0  0  0  0  0  0
  -28.6754  -25.8700   17.8390 N   0  0  0  0  0  0  0  0  0  0  0  0
  -28.4802  -26.2899   20.0792 N   0  0  0  0  0  0  0  0  0  0  0  0
  -25.1831  -28.5471   23.3153 N   0  0  0  0  0  0  0  0  0  0  0  0
  -29.4048  -25.3496   19.8320 N   0  0  0  0  0  0  0  0  0  0  0  0
  -29.4896  -14.8346   21.2000 N   0  0  0  0  0  0  0  0  0  0  0  0
  -25.6438  -29.8144   19.7341 N   0  0  0  0  0  0  0  0  0  0  0  0
  -26.2363  -29.8089   25.0210 N   0  0  0  0  0  0  0  0  0  0  0  0
  -25.0097  -26.0135   27.1391 N   0  0  0  0  0  0  0  0  0  0  0  0
  -33.0228  -14.5312   21.5936 N   0  0  0  0  0  0  0  0  0  0  0  0
  -26.7102  -12.9538   20.7571 N   0  0  0  0  0  0  0  0  0  0  0  0
  -27.5461  -28.9391   18.5716 N   0  0  0  0  0  0  0  0  0  0  0  0
  -23.7432  -14.1255   22.4575 N   0  3  0  0  0  0  0  0  0  0  0  0
  -26.0259  -28.0514   27.4092 O   0  0  0  0  0  0  0  0  0  0  0  0
  -31.7155  -15.5301   19.9457 O   0  0  0  0  0  0  0  0  0  0  0  0
  -29.4069  -12.5454   21.6347 O   0  0  0  0  0  0  0  0  0  0  0  0
  -25.4713  -14.8749   20.3675 O   0  0  0  0  0  0  0  0  0  0  0  0
  -27.1977  -31.2090   18.7591 O   0  0  0  0  0  0  0  0  0  0  0  0
  -22.3546  -21.6797   24.8578 O   0  0  0  0  0  0  0  0  0  0  0  0
  -28.6954  -20.8688   20.1951 O   0  0  0  0  0  0  0  0  0  1  0  0
  -25.2523  -17.9101   27.6503 F   0  0  0  0  0  0  0  0  0  0  0  0
  -23.0644  -22.1047   27.4957 F   0  0  0  0  0  0  0  0  0  0  0  0
  1  2  1  0  0  0  0
  1  5  2  0  0  0  0
  2  6  2  0  0  0  0
  3  8  2  0  0  0  0
  3 15  1  0  0  0  0
  4  9  1  0  0  0  0
  4 15  2  0  0  0  0
  5 17  1  0  0  0  0
  6 19  1  0  0  0  0
  7 10  2  0  0  0  0
  7 18  1  0  0  0  0
  8 21  1  0  0  0  0
  9 21  2  0  0  0  0
 10 22  1  0  0  0  0
 11 12  2  0  0  0  0
 11 23  1  0  0  0  0
 12 24  1  0  0  0  0
 13 20  1  0  0  0  0
 13 22  2  0  0  0  0
 14 24  2  0  0  0  0
 14 25  1  0  0  0  0
 15 26  1  0  0  0  0
 16 26  1  0  0  0  0
 16 27  2  0  0  0  0
 16 30  1  0  0  0  0
 17 19  2  0  0  0  0
 17 35  1  0  0  0  0
 18 20  2  0  0  0  0
 18 36  1  0  0  0  0
 19 44  1  0  0  0  0
 20 37  1  0  0  0  0
 21 87  1  0  0  0  0
 22 88  1  0  0  0  0
 23 25  2  0  0  0  0
 23 87  1  0  0  0  0
 24 89  1  0  0  0  0
 25 90  1  0  0  0  0
 26 69  2  0  0  0  0
 27 72  1  0  0  0  0
 27 76  1  0  0  0  0
 28 63  1  0  0  0  0
 28 70  1  0  0  0  0
 28 71  2  0  0  0  0
 29 66  1  0  0  0  0
 29 70  2  0  0  0  0
 29 73  1  0  0  0  0
 30 77  1  0  0  0  0
 30 82  2  0  0  0  0
 31 45  1  0  0  0  0
 31 78  1  0  0  0  0
 31 83  2  0  0  0  0
 32 64  1  0  0  0  0
 32 74  1  0  0  0  0
 32 84  2  0  0  0  0
 33 65  1  0  0  0  0
 33 79  1  0  0  0  0
 33 85  2  0  0  0  0
 34 75  1  0  0  0  0
 34 80  1  0  0  0  0
 34 86  2  0  0  0  0
 35 38  1  0  0  0  0
 36 45  1  0  0  0  0
 37 74  1  0  0  0  0
 38 40  1  0  0  0  0
 39 41  1  0  0  0  0
 39 42  1  0  0  0  0
 40 44  1  0  0  0  0
 41 46  1  0  0  0  0
 42 75  1  0  0  0  0
 43 46  1  0  0  0  0
 43 75  1  0  0  0  0
 44 78  1  0  0  0  0
 45 74  1  0  0  0  0
 46 72  1  0  0  0  0
 47 61  1  0  0  0  0
 48 65  1  0  0  0  0
 49 66  1  0  0  0  0
 50 66  1  0  0  0  0
 51 67  1  0  0  0  0
 52 67  1  0  0  0  0
 53 67  1  0  0  0  0
 54 68  1  0  0  0  0
 55 68  1  0  0  0  0
 56 68  1  0  0  0  0
 57 80  1  0  0  0  0
 58 81  1  0  0  0  0
 59 60  1  0  0  0  0
 59 62  1  0  0  0  0
 60 66  1  0  0  0  0
 61 73  1  0  0  0  0
 62 88  1  0  0  0  0
 63 67  1  0  0  0  0
 63 80  1  0  0  0  0
 64 68  1  0  0  0  0
 64 79  1  0  0  0  0
 65 81  1  0  0  0  0
 69 72  1  0  0  0  0
 71 73  1  0  0  0  0
M  CHG  1  81   1
M  ISO  4  34 100  62 101  80 100  88 101
M  END
> <Batch ID>
0066

> <Smiles>
CCn1nc(C([100N:0](C)[100C:0](=O)N2CCCC(n3nc(-c4ccc(Oc5ccc(F)cc5F)cc4)c(C(N)=O)c3N)C2)C(C)(C)C)nc1C(C)(C)CC[101CH2:1][101O:1]c1ccc2c(c1)CN(C(=O)C(NC(=O)C(C)NC)C(C)(C)C)C(C(=O)NC1CCCc3ccccc31)C2

> <Shape>
0.222

> <Color>
0.069

> <Negative vol penalty>
0.000

$$$$

  -OEChem-04052318093D

 84 92  0     1  0  0  0  0  0999 V2000
  -24.1606   -5.5259   23.2878 C   0  0  0  0  0  0  0  0  0  0  0  0
  -25.3454   -6.2516   23.2173 C   0  0  0  0  0  0  0  0  0  0  0  0
  -22.6908  -28.8813   22.6778 C   0  0  0  0  0  0  0  0  0  0  0  0
  -22.8279  -26.5418   23.2652 C   0  0  0  0  0  0  0  0  0  0  0  0
  -23.0217   -5.9872   22.6289 C   0  0  0  0  0  0  0  0  0  0  0  0
  -25.3923   -7.4385   22.4868 C   0  0  0  0  0  0  0  0  0  0  0  0
  -28.5597  -13.8637   22.4731 C   0  0  0  0  0  0  0  0  0  0  0  0
  -21.3187  -28.7476   22.4654 C   0  0  0  0  0  0  0  0  0  0  0  0
  -21.4558  -26.4081   23.0529 C   0  0  0  0  0  0  0  0  0  0  0  0
  -29.2900  -14.7028   21.6326 C   0  0  0  0  0  0  0  0  0  0  0  0
  -18.5111  -28.5919   24.3432 C   0  0  0  0  0  0  0  0  0  0  0  0
  -17.6747  -29.5756   24.8706 C   0  0  0  0  0  0  0  0  0  0  0  0
  -27.2393  -15.4436   20.6005 C   0  0  0  0  0  0  0  0  0  0  0  0
  -16.8796  -30.0912   22.6482 C   0  0  0  0  0  0  0  0  0  0  0  0
  -23.4454  -27.7784   23.0776 C   0  0  0  0  0  0  0  0  0  0  0  0
  -25.5081  -28.2556   24.5006 C   0  0  0  0  0  0  0  0  0  0  0  0
  -23.0521   -7.1853   21.8980 C   0  0  0  0  0  0  0  0  0  0  0  0
  -27.1622  -13.8001   22.3761 C   0  0  0  0  0  0  0  0  0  0  0  0
  -24.2531   -7.9155   21.8164 C   0  0  0  0  0  0  0  0  0  0  0  0
  -26.4935  -14.6049   21.4427 C   0  0  0  0  0  0  0  0  0  0  0  0
  -20.7012  -27.5110   22.6530 C   0  0  0  0  0  0  0  0  0  0  0  0
  -28.6300  -15.4907   20.6941 C   0  0  0  0  0  0  0  0  0  0  0  0
  -18.5319  -28.3578   22.9682 C   0  0  0  0  0  0  0  0  0  0  0  0
  -16.8589  -30.3253   24.0231 C   0  0  0  0  0  0  0  0  0  0  0  0
  -17.7161  -29.1075   22.1207 C   0  0  0  0  0  0  0  0  0  0  0  0
  -24.8629  -27.9157   23.2965 C   0  0  0  0  0  0  0  0  0  0  0  0
  -26.8451  -28.2541   24.1861 C   0  0  0  0  0  0  0  0  0  0  0  0
  -29.4065  -21.9076   20.6636 C   0  0  0  0  0  0  0  0  0  0  0  0
  -27.8129  -20.7203   21.3023 C   0  0  0  0  0  0  0  0  0  0  0  0
  -24.9489  -28.5467   25.7884 C   0  0  0  0  0  0  0  0  0  0  0  0
  -25.0640  -11.5177   21.6751 C   0  0  0  0  0  0  0  0  0  0  0  0
  -22.9024  -13.7976   22.4823 C   0  0  0  0  0  0  0  0  0  0  0  0
  -22.1842  -17.1158   22.8295 C   0  0  0  0  0  0  0  0  0  0  0  0
  -30.0350  -25.4677   19.9539 C   0  0  0  0  0  0  0  0  0  0  0  0
  -21.8084   -7.6193   21.1634 C   0  0  0  0  0  0  0  0  0  0  0  0
  -26.3870  -12.9098   23.3083 C   0  0  0  0  0  0  0  0  0  0  0  0
  -24.9931  -14.5885   21.3123 C   0  0  0  0  0  0  0  0  0  0  0  0
  -21.8411   -9.0798   20.7203 C   0  0  0  0  0  0  0  0  0  0  0  0
  -29.8294  -28.9773   20.5170 C   0  0  0  0  0  0  0  0  0  0  0  0
  -23.1795   -9.4095   20.0669 C   0  0  0  0  0  0  0  0  0  0  0  0
  -28.5914  -29.1339   21.4019 C   0  0  0  0  0  0  0  0  0  0  0  0
  -29.6473  -27.8686   19.4828 C   0  0  0  0  0  0  0  0  0  0  0  0
  -28.0124  -26.7183   20.9242 C   0  0  0  0  0  0  0  0  0  0  0  0
  -24.3371   -9.2204   21.0546 C   0  0  1  0  0  0  0  0  0  0  0  0
  -25.0067  -12.5419   22.7730 C   0  0  1  0  0  0  0  0  0  0  0  0
  -28.1696  -27.7870   22.0193 C   0  0  2  0  0  0  0  0  0  0  0  0
  -26.6081  -20.1542   21.9350 C   0  0  0  0  0  0  0  0  0  0  0  0
  -31.4616  -23.0771   21.5412 C   0  0  0  0  0  0  0  0  0  0  0  0
  -20.3227  -18.6719   23.4706 C   0  0  0  0  0  0  0  0  0  0  0  0
  -28.1040  -18.6078   18.4257 C   0  0  0  0  0  0  0  0  0  0  0  0
  -21.5724  -13.3166   19.7787 C   0  0  0  0  0  0  0  0  0  0  0  0
  -20.3577  -15.4866   20.0685 C   0  0  0  0  0  0  0  0  0  0  0  0
  -19.9817  -13.6234   21.6839 C   0  0  0  0  0  0  0  0  0  0  0  0
  -30.9211  -18.0841   19.7187 C   0  0  0  0  0  0  0  0  0  0  0  0
  -29.7576  -17.5707   21.8588 C   0  0  0  0  0  0  0  0  0  0  0  0
  -23.7341  -18.2231   25.0946 C   0  0  0  0  0  0  0  0  0  0  0  0
  -30.2956  -23.0673   20.5276 C   0  0  2  0  0  0  0  0  0  0  0  0
  -22.1702  -14.8880   21.7381 C   0  0  1  0  0  0  0  0  0  0  0  0
  -21.5336  -17.8927   23.9599 C   0  0  2  0  0  0  0  0  0  0  0  0
  -28.4123  -18.5938   19.9329 C   0  0  1  0  0  0  0  0  0  0  0  0
  -21.0489  -14.3278   20.8182 C   0  0  0  0  0  0  0  0  0  0  0  0
  -29.5856  -17.6383   20.3326 C   0  0  0  0  0  0  0  0  0  1  0  0
  -25.7195  -27.7131   22.2919 N   0  0  0  0  0  0  0  0  0  0  0  0
  -28.3057  -21.9253   21.4714 N   0  0  0  0  0  0  0  0  0  0  0  0
  -29.6257  -20.7675   20.0052 N   0  0  0  0  0  0  0  0  0  0  0  0
  -26.9166  -27.9265   22.8641 N   0  0  0  0  0  0  0  0  0  0  0  0
  -28.5925  -20.0251   20.4313 N   0  0  0  0  0  0  0  0  0  0  0  0
  -24.2800  -13.6969   22.2419 N   0  0  0  0  0  0  0  0  0  0  0  0
  -29.2491  -26.6180   20.1335 N   0  0  0  0  0  0  0  0  0  0  0  0
  -27.9548  -28.5012   24.9141 N   0  0  0  0  0  0  0  0  0  0  0  0
  -23.5560  -28.5032   25.9372 N   0  0  0  0  0  0  0  0  0  0  0  0
  -24.4074  -10.3384   21.9709 N   0  0  0  0  0  0  0  0  0  0  0  0
  -21.6992  -15.8275   22.7500 N   0  0  0  0  0  0  0  0  0  0  0  0
  -29.5903  -24.3268   20.6106 N   0  0  0  0  0  0  0  0  0  0  0  0
  -22.5044  -18.8560   24.5521 N   0  3  0  0  0  0  0  0  0  0  0  0
  -25.6623  -28.8528   26.7737 O   0  0  0  0  0  0  0  0  0  0  0  0
  -25.6586  -11.7787   20.6358 O   0  0  0  0  0  0  0  0  0  0  0  0
  -22.2763  -13.0668   23.2542 O   0  0  0  0  0  0  0  0  0  0  0  0
  -23.0346  -17.6042   22.0887 O   0  0  0  0  0  0  0  0  0  0  0  0
  -31.0602  -25.4595   19.2641 O   0  0  0  0  0  0  0  0  0  0  0  0
  -19.3623  -27.3803   22.4462 O   0  0  0  0  0  0  0  0  0  0  0  0
  -29.3404  -16.3101   19.8720 O   0  0  0  0  0  0  0  0  0  1  0  0
  -16.0546  -31.2689   24.5299 F   0  0  0  0  0  0  0  0  0  0  0  0
  -17.7309  -28.8863   20.7991 F   0  0  0  0  0  0  0  0  0  0  0  0
  1  2  1  0  0  0  0
  1  5  2  0  0  0  0
  2  6  2  0  0  0  0
  3  8  2  0  0  0  0
  3 15  1  0  0  0  0
  4  9  1  0  0  0  0
  4 15  2  0  0  0  0
  5 17  1  0  0  0  0
  6 19  1  0  0  0  0
  7 10  2  0  0  0  0
  7 18  1  0  0  0  0
  8 21  1  0  0  0  0
  9 21  2  0  0  0  0
 10 22  1  0  0  0  0
 11 12  2  0  0  0  0
 11 23  1  0  0  0  0
 12 24  1  0  0  0  0
 13 20  1  0  0  0  0
 13 22  2  0  0  0  0
 14 24  2  0  0  0  0
 14 25  1  0  0  0  0
 15 26  1  0  0  0  0
 16 26  1  0  0  0  0
 16 27  2  0  0  0  0
 16 30  1  0  0  0  0
 17 19  2  0  0  0  0
 17 35  1  0  0  0  0
 18 20  2  0  0  0  0
 18 36  1  0  0  0  0
 19 44  1  0  0  0  0
 20 37  1  0  0  0  0
 21 81  1  0  0  0  0
 22 82  1  0  0  0  0
 23 25  2  0  0  0  0
 23 81  1  0  0  0  0
 24 83  1  0  0  0  0
 25 84  1  0  0  0  0
 26 63  2  0  0  0  0
 27 66  1  0  0  0  0
 27 70  1  0  0  0  0
 28 57  1  0  0  0  0
 28 64  1  0  0  0  0
 28 65  2  0  0  0  0
 29 47  1  0  0  0  0
 29 64  2  0  0  0  0
 29 67  1  0  0  0  0
 30 71  1  0  0  0  0
 30 76  2  0  0  0  0
 31 45  1  0  0  0  0
 31 72  1  0  0  0  0
 31 77  2  0  0  0  0
 32 58  1  0  0  0  0
 32 68  1  0  0  0  0
 32 78  2  0  0  0  0
 33 59  1  0  0  0  0
 33 73  1  0  0  0  0
 33 79  2  0  0  0  0
 34 69  1  0  0  0  0
 34 74  1  0  0  0  0
 34 80  2  0  0  0  0
 35 38  1  0  0  0  0
 36 45  1  0  0  0  0
 37 68  1  0  0  0  0
 38 40  1  0  0  0  0
 39 41  1  0  0  0  0
 39 42  1  0  0  0  0
 40 44  1  0  0  0  0
 41 46  1  0  0  0  0
 42 69  1  0  0  0  0
 43 46  1  0  0  0  0
 43 69  1  0  0  0  0
 44 72  1  0  0  0  0
 45 68  1  0  0  0  0
 46 66  1  0  0  0  0
 48 57  1  0  0  0  0
 49 59  1  0  0  0  0
 50 60  1  0  0  0  0
 51 61  1  0  0  0  0
 52 61  1  0  0  0  0
 53 61  1  0  0  0  0
 54 62  1  0  0  0  0
 55 62  1  0  0  0  0
 56 75  1  0  0  0  0
 57 74  1  0  0  0  0
 58 61  1  0  0  0  0
 58 73  1  0  0  0  0
 59 75  1  0  0  0  0
 60 62  1  0  0  0  0
 60 67  1  0  0  0  0
 62 82  1  0  0  0  0
 63 66  1  0  0  0  0
 65 67  1  0  0  0  0
M  CHG  1  75   1
M  ISO  4  34 100  62 101  74 100  82 101
M  END
> <Batch ID>
0066

> <Smiles>
CNC(C)C(=O)NC(C(=O)N1Cc2cc([101O:1][101C:1](C)(C)C(C)n3nc(C(C)[100NH:0][100C:0](=O)N4CCCC(n5nc(-c6ccc(Oc7ccc(F)cc7F)cc6)c(C(N)=O)c5N)C4)nc3C)ccc2CC1C(=O)NC1CCCc2ccccc21)C(C)(C)C

> <Shape>
0.278

> <Color>
0.079

> <Negative vol penalty>
0.000

$$$$

  -OEChem-04052318093D

 93101  0     1  0  0  0  0  0999 V2000
  -27.1727  -36.0032   17.4386 C   0  0  0  0  0  0  0  0  0  0  0  0
  -28.0190  -34.9473   17.7615 C   0  0  0  0  0  0  0  0  0  0  0  0
  -23.1873   -9.8393   19.8707 C   0  0  0  0  0  0  0  0  0  0  0  0
  -23.9381   -9.7869   22.1665 C   0  0  0  0  0  0  0  0  0  0  0  0
  -25.9415  -36.1296   18.0804 C   0  0  0  0  0  0  0  0  0  0  0  0
  -27.6349  -34.0177   18.7273 C   0  0  0  0  0  0  0  0  0  0  0  0
  -28.9054  -28.0270   18.7817 C   0  0  0  0  0  0  0  0  0  0  0  0
  -22.5063   -8.6377   20.0660 C   0  0  0  0  0  0  0  0  0  0  0  0
  -23.2571   -8.5854   22.3618 C   0  0  0  0  0  0  0  0  0  0  0  0
  -29.8800  -27.2808   19.4430 C   0  0  0  0  0  0  0  0  0  0  0  0
  -20.0751   -7.5885   22.9107 C   0  0  0  0  0  0  0  0  0  0  0  0
  -19.3176   -7.4565   24.0745 C   0  0  0  0  0  0  0  0  0  0  0  0
  -28.2977  -26.7759   21.1925 C   0  0  0  0  0  0  0  0  0  0  0  0
  -20.6599   -5.5586   24.7329 C   0  0  0  0  0  0  0  0  0  0  0  0
  -31.5225  -20.4704   23.4264 C   0  0  0  0  0  0  0  0  0  0  0  0
  -23.9033  -10.4139   20.9209 C   0  0  0  0  0  0  0  0  0  0  0  0
  -24.1079  -12.9566   20.9129 C   0  0  0  0  0  0  0  0  0  0  0  0
  -25.5379  -35.1956   19.0476 C   0  0  0  0  0  0  0  0  0  0  0  0
  -27.6207  -28.1625   19.3273 C   0  0  0  0  0  0  0  0  0  0  0  0
  -26.3976  -34.1325   19.3836 C   0  0  0  0  0  0  0  0  0  0  0  0
  -27.3079  -27.5223   20.5349 C   0  0  0  0  0  0  0  0  0  0  0  0
  -22.5412   -8.0108   21.3115 C   0  0  0  0  0  0  0  0  0  0  0  0
  -29.5770  -26.6575   20.6500 C   0  0  0  0  0  0  0  0  0  0  0  0
  -21.1250   -6.7056   22.6580 C   0  0  0  0  0  0  0  0  0  0  0  0
  -19.6100   -6.4416   24.9856 C   0  0  0  0  0  0  0  0  0  0  0  0
  -21.4174   -5.6907   23.5691 C   0  0  0  0  0  0  0  0  0  0  0  0
  -24.6074  -11.6547   20.7196 C   0  0  0  0  0  0  0  0  0  0  0  0
  -25.1589  -13.7793   20.5887 C   0  0  0  0  0  0  0  0  0  0  0  0
  -31.6902  -19.0825   21.8763 C   0  0  0  0  0  0  0  0  0  0  0  0
  -22.8099  -13.3841   21.3467 C   0  0  0  0  0  0  0  0  0  0  0  0
  -25.8647  -30.6064   20.3509 C   0  0  0  0  0  0  0  0  0  0  0  0
  -23.5713  -28.3311   20.6430 C   0  0  0  0  0  0  0  0  0  0  0  0
  -30.4960  -15.0388   21.0436 C   0  0  0  0  0  0  0  0  0  0  0  0
  -22.7981  -25.0301   21.0333 C   0  0  0  0  0  0  0  0  0  0  0  0
  -24.2182  -35.4005   19.7484 C   0  0  0  0  0  0  0  0  0  0  0  0
  -26.5729  -28.9488   18.5882 C   0  0  0  0  0  0  0  0  0  0  0  0
  -25.9377  -27.6200   21.1526 C   0  0  0  0  0  0  0  0  0  0  0  0
  -23.7241  -34.1616   20.4910 C   0  0  0  0  0  0  0  0  0  0  0  0
  -29.5742  -12.7715   18.3536 C   0  0  0  0  0  0  0  0  0  0  0  0
  -24.8530  -33.5452   21.3110 C   0  0  0  0  0  0  0  0  0  0  0  0
  -28.1612  -12.3635   18.7685 C   0  0  0  0  0  0  0  0  0  0  0  0
  -30.4798  -12.9703   19.5662 C   0  0  0  0  0  0  0  0  0  0  0  0
  -28.5307  -13.5371   20.9818 C   0  0  0  0  0  0  0  0  0  0  0  0
  -26.0057  -33.0898   20.4081 C   0  0  1  0  0  0  0  0  0  0  0  0
  -25.4492  -29.4448   19.4931 C   0  0  1  0  0  0  0  0  0  0  0  0
  -27.5773  -13.3562   19.7888 C   0  0  2  0  0  0  0  0  0  0  0  0
  -20.8387  -23.4812   21.2770 C   0  0  0  0  0  0  0  0  0  0  0  0
  -31.7875  -15.4873   19.0322 C   0  0  0  0  0  0  0  0  0  0  0  0
  -32.7012  -14.0311   20.8281 C   0  0  0  0  0  0  0  0  0  0  0  0
  -23.2205  -29.2338   23.5364 C   0  0  0  0  0  0  0  0  0  0  0  0
  -21.9919  -27.0981   23.9807 C   0  0  0  0  0  0  0  0  0  0  0  0
  -21.0855  -28.7368   22.3326 C   0  0  0  0  0  0  0  0  0  0  0  0
  -34.1795  -24.8785   20.9531 C   0  0  0  0  0  0  0  0  0  0  0  0
  -32.9009  -25.4901   22.9950 C   0  0  0  0  0  0  0  0  0  0  0  0
  -32.5341  -16.3896   22.8330 C   0  0  0  0  0  0  0  0  0  0  0  0
  -32.3041  -27.2998   20.5895 C   0  0  0  0  0  0  0  0  0  0  0  0
  -31.5886  -25.3275   19.2519 C   0  0  0  0  0  0  0  0  0  0  0  0
  -23.5067  -23.5581   18.5655 C   0  0  0  0  0  0  0  0  0  0  0  0
  -31.5982  -17.9113   21.0090 C   0  0  0  0  0  0  0  0  0  0  0  0
  -32.1855  -23.4615   21.6441 C   0  0  0  0  0  0  0  0  0  0  0  0
  -32.9581  -22.4762   22.5367 C   0  0  0  0  0  0  0  0  0  0  0  0
  -23.1371  -27.3849   21.7363 C   0  0  1  0  0  0  0  0  0  0  0  0
  -21.8113  -24.1339   20.3070 C   0  0  2  0  0  0  0  0  0  0  0  0
  -31.8975  -15.3215   20.5642 C   0  0  0  0  0  0  0  0  0  0  0  0
  -22.3852  -28.1130   22.8861 C   0  0  0  0  0  0  0  0  0  0  0  0
  -32.7556  -24.9149   21.5635 C   0  0  0  0  0  0  0  0  0  0  0  0
  -32.4958  -16.6180   21.2977 C   0  0  2  0  0  0  0  0  0  0  0  0
  -31.8121  -25.8454   20.6839 C   0  0  0  0  0  0  0  0  0  1  0  0
  -33.9513  -16.9010   20.8465 C   0  0  0  0  0  0  0  0  0  0  0  0
  -31.1253  -19.2183   23.0535 N   0  0  0  0  0  0  0  0  0  0  0  0
  -25.8770  -11.6459   20.3047 N   0  0  0  0  0  0  0  0  0  0  0  0
  -32.3896  -20.2085   21.5717 N   0  0  0  0  0  0  0  0  0  0  0  0
  -32.2977  -21.1179   22.5539 N   0  0  0  0  0  0  0  0  0  0  0  0
  -26.1841  -12.9523   20.2345 N   0  0  0  0  0  0  0  0  0  0  0  0
  -24.9492  -28.4052   20.3951 N   0  0  0  0  0  0  0  0  0  0  0  0
  -29.8756  -13.9012   20.5268 N   0  0  0  0  0  0  0  0  0  0  0  0
  -25.2970  -15.1221   20.5750 N   0  0  0  0  0  0  0  0  0  0  0  0
  -21.8477  -12.4077   21.6383 N   0  0  0  0  0  0  0  0  0  0  0  0
  -25.6750  -31.8400   19.7578 N   0  0  0  0  0  0  0  0  0  0  0  0
  -22.3601  -26.3365   21.0840 N   0  0  0  0  0  0  0  0  0  0  0  0
  -22.5334  -23.0583   19.5704 N   0  3  0  0  0  0  0  0  0  0  0  0
  -22.5070  -14.5965   21.4562 O   0  0  0  0  0  0  0  0  0  0  0  0
  -26.3221  -30.3988   21.4686 O   0  0  0  0  0  0  0  0  0  0  0  0
  -22.7186  -28.9751   20.0267 O   0  0  0  0  0  0  0  0  0  0  0  0
  -29.9693  -15.8086   21.8511 O   0  0  0  0  0  0  0  0  0  0  0  0
  -23.8504  -24.6122   21.5114 O   0  0  0  0  0  0  0  0  0  0  0  0
  -21.8766   -6.8385   21.5026 O   0  0  0  0  0  0  0  0  0  0  0  0
  -30.5266  -25.9291   21.2978 O   0  0  0  0  0  0  0  0  0  1  0  0
  -18.8834   -6.3158   26.1038 F   0  0  0  0  0  0  0  0  0  0  0  0
  -22.4256   -4.8402   23.3323 F   0  0  0  0  0  0  0  0  0  0  0  0
  -34.7791  -15.8717   21.1287 F   0  0  0  0  0  0  0  0  0  0  0  0
  -34.0318  -17.1160   19.5125 F   0  0  0  0  0  0  0  0  0  0  0  0
  -34.4575  -18.0050   21.4400 F   0  0  0  0  0  0  0  0  0  0  0  0
  1  2  1  0  0  0  0
  1  5  2  0  0  0  0
  2  6  2  0  0  0  0
  3  8  2  0  0  0  0
  3 16  1  0  0  0  0
  4  9  1  0  0  0  0
  4 16  2  0  0  0  0
  5 18  1  0  0  0  0
  6 20  1  0  0  0  0
  7 10  2  0  0  0  0
  7 19  1  0  0  0  0
  8 22  1  0  0  0  0
  9 22  2  0  0  0  0
 10 23  1  0  0  0  0
 11 12  2  0  0  0  0
 11 24  1  0  0  0  0
 12 25  1  0  0  0  0
 13 21  1  0  0  0  0
 13 23  2  0  0  0  0
 14 25  2  0  0  0  0
 14 26  1  0  0  0  0
 15 70  2  0  0  0  0
 15 73  1  0  0  0  0
 16 27  1  0  0  0  0
 17 27  1  0  0  0  0
 17 28  2  0  0  0  0
 17 30  1  0  0  0  0
 18 20  2  0  0  0  0
 18 35  1  0  0  0  0
 19 21  2  0  0  0  0
 19 36  1  0  0  0  0
 20 44  1  0  0  0  0
 21 37  1  0  0  0  0
 22 87  1  0  0  0  0
 23 88  1  0  0  0  0
 24 26  2  0  0  0  0
 24 87  1  0  0  0  0
 25 89  1  0  0  0  0
 26 90  1  0  0  0  0
 27 71  2  0  0  0  0
 28 74  1  0  0  0  0
 28 77  1  0  0  0  0
 29 59  1  0  0  0  0
 29 70  1  0  0  0  0
 29 72  2  0  0  0  0
 30 78  1  0  0  0  0
 30 82  2  0  0  0  0
 31 45  1  0  0  0  0
 31 79  1  0  0  0  0
 31 83  2  0  0  0  0
 32 62  1  0  0  0  0
 32 75  1  0  0  0  0
 32 84  2  0  0  0  0
 33 64  1  0  0  0  0
 33 76  1  0  0  0  0
 33 85  2  0  0  0  0
 34 63  1  0  0  0  0
 34 80  1  0  0  0  0
 34 86  2  0  0  0  0
 35 38  1  0  0  0  0
 36 45  1  0  0  0  0
 37 75  1  0  0  0  0
 38 40  1  0  0  0  0
 39 41  1  0  0  0  0
 39 42  1  0  0  0  0
 40 44  1  0  0  0  0
 41 46  1  0  0  0  0
 42 76  1  0  0  0  0
 43 46  1  0  0  0  0
 43 76  1  0  0  0  0
 44 79  1  0  0  0  0
 45 75  1  0  0  0  0
 46 74  1  0  0  0  0
 47 63  1  0  0  0  0
 48 64  1  0  0  0  0
 49 64  1  0  0  0  0
 50 65  1  0  0  0  0
 51 65  1  0  0  0  0
 52 65  1  0  0  0  0
 53 66  1  0  0  0  0
 54 66  1  0  0  0  0
 55 67  1  0  0  0  0
 56 68  1  0  0  0  0
 57 68  1  0  0  0  0
 58 81  1  0  0  0  0
 59 67  1  0  0  0  0
 60 61  1  0  0  0  0
 60 66  1  0  0  0  0
 61 73  1  0  0  0  0
 62 65  1  0  0  0  0
 62 80  1  0  0  0  0
 63 81  1  0  0  0  0
 64 67  1  0  0  0  0
 66 68  1  0  0  0  0
 67 69  1  0  0  0  0
 68 88  1  0  0  0  0
 69 91  1  0  0  0  0
 69 92  1  0  0  0  0
 69 93  1  0  0  0  0
 71 74  1  0  0  0  0
 72 73  1  0  0  0  0
M  CHG  1  81   1
M  ISO  4  33 100  64 100  68 101  88 101
M  END
> <Batch ID>
0066

> <Smiles>
CNC(C)C(=O)NC(C(=O)N1Cc2cc([101O:1][101C:1](C)(C)C(C)(C)CCn3cnc(CC(C)(C(F)(F)F)[100C:0](C)(C)[100C:0](=O)N4CCCC(n5nc(-c6ccc(Oc7ccc(F)cc7F)cc6)c(C(N)=O)c5N)C4)n3)ccc2CC1C(=O)NC1CCCc2ccccc21)C(C)(C)C

> <Shape>
0.282

> <Color>
0.175

> <Negative vol penalty>
0.000

$$$$

  -OEChem-04052318093D

 87 95  0     1  0  0  0  0  0999 V2000
  -29.6902  -36.4478   24.1225 C   0  0  0  0  0  0  0  0  0  0  0  0
  -29.5511  -35.2526   23.4243 C   0  0  0  0  0  0  0  0  0  0  0  0
  -24.7140   -9.3413   23.2155 C   0  0  0  0  0  0  0  0  0  0  0  0
  -24.7473   -9.6516   20.8198 C   0  0  0  0  0  0  0  0  0  0  0  0
  -28.8184  -36.7484   25.1683 C   0  0  0  0  0  0  0  0  0  0  0  0
  -28.5408  -34.3567   23.7722 C   0  0  0  0  0  0  0  0  0  0  0  0
  -25.3741  -30.7287   19.9887 C   0  0  0  0  0  0  0  0  0  0  0  0
  -23.5239   -8.6222   23.1059 C   0  0  0  0  0  0  0  0  0  0  0  0
  -23.5571   -8.9324   20.7101 C   0  0  0  0  0  0  0  0  0  0  0  0
  -25.5045  -29.3819   19.6527 C   0  0  0  0  0  0  0  0  0  0  0  0
  -22.5735   -5.4960   22.2360 C   0  0  0  0  0  0  0  0  0  0  0  0
  -22.4645   -4.3087   22.9598 C   0  0  0  0  0  0  0  0  0  0  0  0
  -23.8352  -28.8157   21.2996 C   0  0  0  0  0  0  0  0  0  0  0  0
  -20.5586   -5.2053   24.1434 C   0  0  0  0  0  0  0  0  0  0  0  0
  -29.1546  -19.5353   20.5674 C   0  0  0  0  0  0  0  0  0  0  0  0
  -30.8220  -21.0920   19.1804 C   0  0  0  0  0  0  0  0  0  0  0  0
  -25.3257   -9.8560   22.0725 C   0  0  0  0  0  0  0  0  0  0  0  0
  -27.7794  -10.1431   22.7086 C   0  0  0  0  0  0  0  0  0  0  0  0
  -27.7909  -35.8602   25.5229 C   0  0  0  0  0  0  0  0  0  0  0  0
  -24.4796  -31.1286   20.9919 C   0  0  0  0  0  0  0  0  0  0  0  0
  -27.6553  -34.6451   24.8245 C   0  0  0  0  0  0  0  0  0  0  0  0
  -23.6934  -30.1684   21.6446 C   0  0  0  0  0  0  0  0  0  0  0  0
  -22.9454   -8.4177   21.8532 C   0  0  0  0  0  0  0  0  0  0  0  0
  -24.7371  -28.4248   20.3102 C   0  0  0  0  0  0  0  0  0  0  0  0
  -21.6751   -6.5380   22.4659 C   0  0  0  0  0  0  0  0  0  0  0  0
  -21.4570   -4.1633   23.9135 C   0  0  0  0  0  0  0  0  0  0  0  0
  -20.6677   -6.3926   23.4195 C   0  0  0  0  0  0  0  0  0  0  0  0
  -26.5548  -10.5994   22.1852 C   0  0  0  0  0  0  0  0  0  0  0  0
  -30.3766  -19.0646   20.1400 C   0  0  0  0  0  0  0  0  0  0  0  0
  -29.5996  -21.5625   19.6071 C   0  0  0  0  0  0  0  0  0  0  0  0
  -28.6250  -11.2191   22.5920 C   0  0  0  0  0  0  0  0  0  0  0  0
  -28.1219   -8.8611   23.2516 C   0  0  0  0  0  0  0  0  0  0  0  0
  -24.7677  -32.5765   23.8069 C   0  0  0  0  0  0  0  0  0  0  0  0
  -21.5253  -32.5399   23.7192 C   0  0  0  0  0  0  0  0  0  0  0  0
  -30.6868  -15.3071   19.5398 C   0  0  0  0  0  0  0  0  0  0  0  0
  -18.6758  -31.1052   22.5071 C   0  0  0  0  0  0  0  0  0  0  0  0
  -26.9024  -36.2071   26.6912 C   0  0  0  0  0  0  0  0  0  0  0  0
  -24.3313  -32.5882   21.3239 C   0  0  0  0  0  0  0  0  0  0  0  0
  -22.7039  -30.5481   22.7148 C   0  0  0  0  0  0  0  0  0  0  0  0
  -25.6245  -35.3745   26.7529 C   0  0  0  0  0  0  0  0  0  0  0  0
  -27.6857  -16.0494   21.4552 C   0  0  0  0  0  0  0  0  0  0  0  0
  -25.9389  -33.8972   26.5393 C   0  0  0  0  0  0  0  0  0  0  0  0
  -27.2097  -14.6474   21.8332 C   0  0  0  0  0  0  0  0  0  0  0  0
  -28.3205  -16.0715   20.0673 C   0  0  0  0  0  0  0  0  0  0  0  0
  -28.9646  -13.6913   20.2779 C   0  0  0  0  0  0  0  0  0  0  0  0
  -26.5563  -33.6590   25.1560 C   0  0  1  0  0  0  0  0  0  0  0  0
  -23.7626  -32.8288   22.7189 C   0  0  1  0  0  0  0  0  0  0  0  0
  -28.3454  -13.6200   21.6837 C   0  0  2  0  0  0  0  0  0  0  0  0
  -31.9996  -17.6286   21.4280 C   0  0  0  0  0  0  0  0  0  0  0  0
  -16.1755  -31.2687   22.6451 C   0  0  0  0  0  0  0  0  0  0  0  0
  -32.5093  -16.7546   18.7589 C   0  0  0  0  0  0  0  0  0  0  0  0
  -21.5910  -31.1965   26.4579 C   0  0  0  0  0  0  0  0  0  0  0  0
  -19.1999  -30.5381   26.1150 C   0  0  0  0  0  0  0  0  0  0  0  0
  -19.8277  -32.9509   26.1986 C   0  0  0  0  0  0  0  0  0  0  0  0
  -18.4382  -31.6870   19.6150 C   0  0  0  0  0  0  0  0  0  0  0  0
  -26.3502  -25.2107   19.8716 C   0  0  0  0  0  0  0  0  0  0  0  0
  -27.7124  -24.7093   19.4049 C   0  0  0  0  0  0  0  0  0  0  0  0
  -30.1370  -17.0702   17.9589 C   0  0  0  0  0  0  0  0  0  0  0  0
  -26.1385  -26.6759   19.5144 C   0  0  0  0  0  0  0  0  0  1  0  0
  -27.9423  -23.2572   19.7993 C   0  0  0  0  0  0  0  0  0  0  0  0
  -30.7970  -17.6690   20.4440 C   0  0  2  0  0  0  0  0  0  0  0  0
  -20.4544  -31.5766   24.1711 C   0  0  1  0  0  0  0  0  0  0  0  0
  -17.4241  -31.7102   21.8975 C   0  0  2  0  0  0  0  0  0  0  0  0
  -31.0245  -16.7322   19.1808 C   0  0  1  0  0  0  0  0  0  0  0  0
  -20.2882  -31.5579   25.7169 C   0  0  0  0  0  0  0  0  0  0  0  0
  -31.2324  -19.8346   19.4391 N   0  0  0  0  0  0  0  0  0  0  0  0
  -28.7440  -20.7926   20.3083 N   0  0  0  0  0  0  0  0  0  0  0  0
  -26.6130  -11.8667   21.7672 N   0  0  0  0  0  0  0  0  0  0  0  0
  -27.8842  -12.2159   22.0281 N   0  0  0  0  0  0  0  0  0  0  0  0
  -22.5998  -31.9870   23.0082 N   0  0  0  0  0  0  0  0  0  0  0  0
  -29.3786  -15.0602   19.9569 N   0  0  0  0  0  0  0  0  0  0  0  0
  -29.9224  -11.4005   22.9179 N   0  0  0  0  0  0  0  0  0  0  0  0
  -28.6173   -7.8785   22.3836 N   0  0  0  0  0  0  0  0  0  0  0  0
  -25.5313  -33.6806   24.1346 N   0  0  0  0  0  0  0  0  0  0  0  0
  -19.2434  -31.9423   23.4444 N   0  0  0  0  0  0  0  0  0  0  0  0
  -29.9891  -18.5315   17.7557 N   0  3  0  0  0  0  0  0  0  0  0  0
  -17.2897  -31.2959   20.4723 N   0  3  0  0  0  0  0  0  0  0  0  0
  -27.9772   -8.5895   24.4677 O   0  0  0  0  0  0  0  0  0  0  0  0
  -24.8438  -31.4629   24.3128 O   0  0  0  0  0  0  0  0  0  0  0  0
  -21.4090  -33.7397   23.9809 O   0  0  0  0  0  0  0  0  0  0  0  0
  -31.5615  -14.4412   19.4541 O   0  0  0  0  0  0  0  0  0  0  0  0
  -19.1050  -29.9990   22.1867 O   0  0  0  0  0  0  0  0  0  0  0  0
  -21.7842   -7.7159   21.7458 O   0  0  0  0  0  0  0  0  0  0  0  0
  -24.8629  -27.1095   19.9847 O   0  0  0  0  0  0  0  0  0  1  0  0
  -29.2174  -22.8481   19.3242 O   0  0  0  0  0  0  0  0  0  0  0  0
  -21.3515   -3.0225   24.6075 F   0  0  0  0  0  0  0  0  0  0  0  0
  -19.8009   -7.3897   23.6440 F   0  0  0  0  0  0  0  0  0  0  0  0
  1  2  1  0  0  0  0
  1  5  2  0  0  0  0
  2  6  2  0  0  0  0
  3  8  2  0  0  0  0
  3 17  1  0  0  0  0
  4  9  1  0  0  0  0
  4 17  2  0  0  0  0
  5 19  1  0  0  0  0
  6 21  1  0  0  0  0
  7 10  2  0  0  0  0
  7 20  1  0  0  0  0
  8 23  1  0  0  0  0
  9 23  2  0  0  0  0
 10 24  1  0  0  0  0
 11 12  2  0  0  0  0
 11 25  1  0  0  0  0
 12 26  1  0  0  0  0
 13 22  1  0  0  0  0
 13 24  2  0  0  0  0
 14 26  2  0  0  0  0
 14 27  1  0  0  0  0
 15 29  2  0  0  0  0
 15 67  1  0  0  0  0
 16 30  1  0  0  0  0
 16 66  2  0  0  0  0
 17 28  1  0  0  0  0
 18 28  1  0  0  0  0
 18 31  2  0  0  0  0
 18 32  1  0  0  0  0
 19 21  2  0  0  0  0
 19 37  1  0  0  0  0
 20 22  2  0  0  0  0
 20 38  1  0  0  0  0
 21 46  1  0  0  0  0
 22 39  1  0  0  0  0
 23 83  1  0  0  0  0
 24 84  1  0  0  0  0
 25 27  2  0  0  0  0
 25 83  1  0  0  0  0
 26 86  1  0  0  0  0
 27 87  1  0  0  0  0
 28 68  2  0  0  0  0
 29 61  1  0  0  0  0
 29 66  1  0  0  0  0
 30 67  2  0  0  0  0
 30 85  1  0  0  0  0
 31 69  1  0  0  0  0
 31 72  1  0  0  0  0
 32 73  1  0  0  0  0
 32 78  2  0  0  0  0
 33 47  1  0  0  0  0
 33 74  1  0  0  0  0
 33 79  2  0  0  0  0
 34 62  1  0  0  0  0
 34 70  1  0  0  0  0
 34 80  2  0  0  0  0
 35 64  1  0  0  0  0
 35 71  1  0  0  0  0
 35 81  2  0  0  0  0
 36 63  1  0  0  0  0
 36 75  1  0  0  0  0
 36 82  2  0  0  0  0
 37 40  1  0  0  0  0
 38 47  1  0  0  0  0
 39 70  1  0  0  0  0
 40 42  1  0  0  0  0
 41 43  1  0  0  0  0
 41 44  1  0  0  0  0
 42 46  1  0  0  0  0
 43 48  1  0  0  0  0
 44 71  1  0  0  0  0
 45 48  1  0  0  0  0
 45 71  1  0  0  0  0
 46 74  1  0  0  0  0
 47 70  1  0  0  0  0
 48 69  1  0  0  0  0
 49 61  1  0  0  0  0
 50 63  1  0  0  0  0
 51 64  1  0  0  0  0
 52 65  1  0  0  0  0
 53 65  1  0  0  0  0
 54 65  1  0  0  0  0
 55 77  1  0  0  0  0
 56 57  1  0  0  0  0
 56 59  1  0  0  0  0
 57 60  1  0  0  0  0
 58 64  1  0  0  0  0
 58 76  1  0  0  0  0
 59 84  1  0  0  0  0
 60 85  1  0  0  0  0
 61 64  1  0  0  0  0
 62 65  1  0  0  0  0
 62 75  1  0  0  0  0
 63 77  1  0  0  0  0
 68 69  1  0  0  0  0
M  CHG  2  76   1  77   1
M  ISO  4  35 100  59 101  64 100  84 101
M  END
> <Batch ID>
0066

> <Smiles>
CNC(C)C(=O)NC(C(=O)N1Cc2cc([101O:1][101CH2:1]CCCOc3cnc(C(C)[100C:0](C)(CN)[100C:0](=O)N4CCCC(n5nc(-c6ccc(Oc7ccc(F)cc7F)cc6)c(C(N)=O)c5N)C4)cn3)ccc2CC1C(=O)NC1CCCc2ccccc21)C(C)(C)C

> <Shape>
0.269

> <Color>
0.099

> <Negative vol penalty>
0.000

$$$$

  -OEChem-04052318093D

 86 94  0     1  0  0  0  0  0999 V2000
  -32.2607  -13.9734   20.9660 C   0  0  0  0  0  0  0  0  0  0  0  0
  -31.5997  -15.1913   21.0895 C   0  0  0  0  0  0  0  0  0  0  0  0
  -29.3865  -24.5240   21.8197 C   0  0  0  0  0  0  0  0  0  0  0  0
  -29.2871  -26.0617   19.9588 C   0  0  0  0  0  0  0  0  0  0  0  0
  -31.5757  -12.8546   20.4938 C   0  0  0  0  0  0  0  0  0  0  0  0
  -30.2536  -15.2914   20.7397 C   0  0  0  0  0  0  0  0  0  0  0  0
  -26.0085  -18.8084   23.4072 C   0  0  0  0  0  0  0  0  0  0  0  0
  -29.4101  -23.4496   20.9306 C   0  0  0  0  0  0  0  0  0  0  0  0
  -29.3108  -24.9872   19.0697 C   0  0  0  0  0  0  0  0  0  0  0  0
  -25.4763  -20.0529   23.0729 C   0  0  0  0  0  0  0  0  0  0  0  0
  -27.1949  -21.7274   19.0460 C   0  0  0  0  0  0  0  0  0  0  0  0
  -26.3682  -20.6389   19.3240 C   0  0  0  0  0  0  0  0  0  0  0  0
  -23.6235  -18.9603   21.9807 C   0  0  0  0  0  0  0  0  0  0  0  0
  -28.3039  -19.1975   19.4362 C   0  0  0  0  0  0  0  0  0  0  0  0
  -24.9024  -29.5091   19.5513 C   0  0  0  0  0  0  0  0  0  0  0  0
  -23.6578  -29.6719   21.3567 C   0  0  0  0  0  0  0  0  0  0  0  0
  -29.3250  -25.8301   21.3338 C   0  0  0  0  0  0  0  0  0  0  0  0
  -30.4062  -27.6398   22.7703 C   0  0  0  0  0  0  0  0  0  0  0  0
  -30.2179  -12.9387   20.1472 C   0  0  0  0  0  0  0  0  0  0  0  0
  -25.3568  -17.6285   23.0207 C   0  0  0  0  0  0  0  0  0  0  0  0
  -29.5501  -14.1730   20.2612 C   0  0  0  0  0  0  0  0  0  0  0  0
  -24.1482  -17.7022   22.3136 C   0  0  0  0  0  0  0  0  0  0  0  0
  -23.8211  -28.9105   20.2253 C   0  0  0  0  0  0  0  0  0  0  0  0
  -29.3723  -23.6811   19.5556 C   0  0  0  0  0  0  0  0  0  0  0  0
  -24.2851  -20.1290   22.3570 C   0  0  0  0  0  0  0  0  0  0  0  0
  -28.5761  -21.5510   18.9630 C   0  0  0  0  0  0  0  0  0  0  0  0
  -26.9227  -19.3740   19.5191 C   0  0  0  0  0  0  0  0  0  0  0  0
  -29.1306  -20.2861   19.1581 C   0  0  0  0  0  0  0  0  0  0  0  0
  -29.3000  -26.9405   22.2517 C   0  0  0  0  0  0  0  0  0  0  0  0
  -29.8554  -28.5957   23.5884 C   0  0  0  0  0  0  0  0  0  0  0  0
  -31.8066  -27.4431   22.5335 C   0  0  0  0  0  0  0  0  0  0  0  0
  -26.1060  -15.1551   21.1701 C   0  0  0  0  0  0  0  0  0  0  0  0
  -23.2952  -13.9740   22.2776 C   0  0  0  0  0  0  0  0  0  0  0  0
  -24.4403  -31.2008   23.6352 C   0  0  0  0  0  0  0  0  0  0  0  0
  -20.2151  -14.5958   23.6094 C   0  0  0  0  0  0  0  0  0  0  0  0
  -29.5320  -11.7135   19.5967 C   0  0  0  0  0  0  0  0  0  0  0  0
  -25.9300  -16.2941   23.4123 C   0  0  0  0  0  0  0  0  0  0  0  0
  -23.3990  -16.4652   21.8927 C   0  0  0  0  0  0  0  0  0  0  0  0
  -28.0088  -11.8140   19.6022 C   0  0  0  0  0  0  0  0  0  0  0  0
  -26.0311  -29.4434   26.3224 C   0  0  0  0  0  0  0  0  0  0  0  0
  -27.5608  -13.1632   19.0492 C   0  0  0  0  0  0  0  0  0  0  0  0
  -27.1320  -28.6440   25.6265 C   0  0  0  0  0  0  0  0  0  0  0  0
  -24.7855  -29.5559   25.4488 C   0  0  0  0  0  0  0  0  0  0  0  0
  -26.1451  -29.3281   23.3942 C   0  0  0  0  0  0  0  0  0  0  0  0
  -28.0838  -14.3155   19.9154 C   0  0  1  0  0  0  0  0  0  0  0  0
  -25.4494  -15.1527   22.5216 C   0  0  1  0  0  0  0  0  0  0  0  0
  -27.4325  -29.2167   24.2301 C   0  0  2  0  0  0  0  0  0  0  0  0
  -18.1270  -13.4313   24.3718 C   0  0  0  0  0  0  0  0  0  0  0  0
  -23.9837  -32.9174   21.9126 C   0  0  0  0  0  0  0  0  0  0  0  0
  -26.3055  -32.1405   22.3925 C   0  0  0  0  0  0  0  0  0  0  0  0
  -22.4673  -13.5602   19.3702 C   0  0  0  0  0  0  0  0  0  0  0  0
  -20.1016  -13.3130   20.1518 C   0  0  0  0  0  0  0  0  0  0  0  0
  -21.8396  -11.6919   20.9096 C   0  0  0  0  0  0  0  0  0  0  0  0
  -22.8763  -24.9905   18.3808 C   0  0  0  0  0  0  0  0  0  0  0  0
  -21.4486  -25.1723   20.4120 C   0  0  0  0  0  0  0  0  0  0  0  0
  -20.5271  -15.5987   26.3763 C   0  0  0  0  0  0  0  0  0  0  0  0
  -23.0182  -27.7048   19.8009 C   0  0  0  0  0  0  0  0  0  0  0  0
  -23.6282  -26.4072   20.3482 C   0  0  0  0  0  0  0  0  0  0  0  0
  -23.7628  -23.7611   22.0015 C   0  0  0  0  0  0  0  0  0  0  0  0
  -23.5942  -23.8155   20.4757 C   0  0  0  0  0  0  0  0  0  0  0  0
  -24.4896  -22.4966   22.4499 C   0  0  0  0  0  0  0  0  0  1  0  0
  -21.8550  -14.0462   21.8308 C   0  0  1  0  0  0  0  0  0  0  0  0
  -19.4838  -13.9781   24.7876 C   0  0  2  0  0  0  0  0  0  0  0  0
  -24.8387  -31.6869   22.2644 C   0  0  0  0  0  0  0  0  0  0  0  0
  -21.5807  -13.1763   20.5717 C   0  0  0  0  0  0  0  0  0  0  0  0
  -22.9102  -25.0968   19.9206 C   0  0  0  0  0  0  0  0  0  0  0  0
  -25.3913  -30.5692   20.2002 N   0  0  0  0  0  0  0  0  0  0  0  0
  -28.1344  -27.4118   22.7027 N   0  0  0  0  0  0  0  0  0  0  0  0
  -24.6137  -30.6427   21.2938 N   0  0  0  0  0  0  0  0  0  0  0  0
  -28.5053  -28.4175   23.5134 N   0  0  0  0  0  0  0  0  0  0  0  0
  -24.0032  -15.1840   22.2938 N   0  0  0  0  0  0  0  0  0  0  0  0
  -25.1164  -30.0826   24.1236 N   0  0  0  0  0  0  0  0  0  0  0  0
  -30.3990  -29.5628   24.3576 N   0  0  0  0  0  0  0  0  0  0  0  0
  -32.1994  -26.4158   21.6647 N   0  0  0  0  0  0  0  0  0  0  0  0
  -27.2898  -14.4441   21.1185 N   0  0  0  0  0  0  0  0  0  0  0  0
  -21.0487  -13.6871   22.9924 N   0  0  0  0  0  0  0  0  0  0  0  0
  -19.2732  -14.9945   25.8571 N   0  3  0  0  0  0  0  0  0  0  0  0
  -32.6841  -28.1464   23.0891 O   0  0  0  0  0  0  0  0  0  0  0  0
  -25.5770  -15.7561   20.2424 O   0  0  0  0  0  0  0  0  0  0  0  0
  -23.7722  -12.8852   22.6072 O   0  0  0  0  0  0  0  0  0  0  0  0
  -23.5564  -31.8000   24.2531 O   0  0  0  0  0  0  0  0  0  0  0  0
  -20.0595  -15.7662   23.2681 O   0  0  0  0  0  0  0  0  0  0  0  0
  -29.3955  -22.6329   18.6877 O   0  0  0  0  0  0  0  0  0  0  0  0
  -23.7637  -21.3424   22.0288 O   0  0  0  0  0  0  0  0  0  1  0  0
  -26.1289  -18.3290   19.7876 F   0  0  0  0  0  0  0  0  0  0  0  0
  -30.4569  -20.1107   19.0808 F   0  0  0  0  0  0  0  0  0  0  0  0
  1  2  1  0  0  0  0
  1  5  2  0  0  0  0
  2  6  2  0  0  0  0
  3  8  2  0  0  0  0
  3 17  1  0  0  0  0
  4  9  1  0  0  0  0
  4 17  2  0  0  0  0
  5 19  1  0  0  0  0
  6 21  1  0  0  0  0
  7 10  2  0  0  0  0
  7 20  1  0  0  0  0
  8 24  1  0  0  0  0
  9 24  2  0  0  0  0
 10 25  1  0  0  0  0
 11 12  2  0  0  0  0
 11 26  1  0  0  0  0
 12 27  1  0  0  0  0
 13 22  1  0  0  0  0
 13 25  2  0  0  0  0
 14 27  2  0  0  0  0
 14 28  1  0  0  0  0
 15 23  1  0  0  0  0
 15 67  2  0  0  0  0
 16 23  2  0  0  0  0
 16 69  1  0  0  0  0
 17 29  1  0  0  0  0
 18 29  1  0  0  0  0
 18 30  2  0  0  0  0
 18 31  1  0  0  0  0
 19 21  2  0  0  0  0
 19 36  1  0  0  0  0
 20 22  2  0  0  0  0
 20 37  1  0  0  0  0
 21 45  1  0  0  0  0
 22 38  1  0  0  0  0
 23 57  1  0  0  0  0
 24 83  1  0  0  0  0
 25 84  1  0  0  0  0
 26 28  2  0  0  0  0
 26 83  1  0  0  0  0
 27 85  1  0  0  0  0
 28 86  1  0  0  0  0
 29 68  2  0  0  0  0
 30 70  1  0  0  0  0
 30 73  1  0  0  0  0
 31 74  1  0  0  0  0
 31 78  2  0  0  0  0
 32 46  1  0  0  0  0
 32 75  1  0  0  0  0
 32 79  2  0  0  0  0
 33 62  1  0  0  0  0
 33 71  1  0  0  0  0
 33 80  2  0  0  0  0
 34 64  1  0  0  0  0
 34 72  1  0  0  0  0
 34 81  2  0  0  0  0
 35 63  1  0  0  0  0
 35 76  1  0  0  0  0
 35 82  2  0  0  0  0
 36 39  1  0  0  0  0
 37 46  1  0  0  0  0
 38 71  1  0  0  0  0
 39 41  1  0  0  0  0
 40 42  1  0  0  0  0
 40 43  1  0  0  0  0
 41 45  1  0  0  0  0
 42 47  1  0  0  0  0
 43 72  1  0  0  0  0
 44 47  1  0  0  0  0
 44 72  1  0  0  0  0
 45 75  1  0  0  0  0
 46 71  1  0  0  0  0
 47 70  1  0  0  0  0
 48 63  1  0  0  0  0
 49 64  1  0  0  0  0
 50 64  1  0  0  0  0
 51 65  1  0  0  0  0
 52 65  1  0  0  0  0
 53 65  1  0  0  0  0
 54 66  1  0  0  0  0
 55 66  1  0  0  0  0
 56 77  1  0  0  0  0
 57 58  1  0  0  0  0
 58 66  1  0  0  0  0
 59 60  1  0  0  0  0
 59 61  1  0  0  0  0
 60 66  1  0  0  0  0
 61 84  1  0  0  0  0
 62 65  1  0  0  0  0
 62 76  1  0  0  0  0
 63 77  1  0  0  0  0
 64 69  1  0  0  0  0
 67 69  1  0  0  0  0
 68 70  1  0  0  0  0
M  CHG  1  77   1
M  ISO  4  34 100  61 101  64 100  84 101
M  END
> <Batch ID>
0066

> <Smiles>
CNC(C)C(=O)NC(C(=O)N1Cc2cc([101O:1][101CH2:1]CCC(C)(C)CCc3cnn([100C:0](C)(C)[100C:0](=O)N4CCCC(n5nc(-c6ccc(Oc7ccc(F)cc7F)cc6)c(C(N)=O)c5N)C4)c3)ccc2CC1C(=O)NC1CCCc2ccccc21)C(C)(C)C

> <Shape>
0.228

> <Color>
0.070

> <Negative vol penalty>
0.000

$$$$

  -OEChem-04052318093D

 90 98  0     1  0  0  0  0  0999 V2000
  -31.7324  -34.0641   20.4898 C   0  0  0  0  0  0  0  0  0  0  0  0
  -31.2063  -32.8735   19.9987 C   0  0  0  0  0  0  0  0  0  0  0  0
  -23.9591   -9.5558   22.3252 C   0  0  0  0  0  0  0  0  0  0  0  0
  -24.6882   -8.7558   20.1652 C   0  0  0  0  0  0  0  0  0  0  0  0
  -31.3600  -34.5206   21.7535 C   0  0  0  0  0  0  0  0  0  0  0  0
  -30.3084  -32.1381   20.7715 C   0  0  0  0  0  0  0  0  0  0  0  0
  -25.5608  -28.8362   18.7558 C   0  0  0  0  0  0  0  0  0  0  0  0
  -22.9459   -8.5973   22.3382 C   0  0  0  0  0  0  0  0  0  0  0  0
  -23.6749   -7.7972   20.1782 C   0  0  0  0  0  0  0  0  0  0  0  0
  -25.4022  -27.4724   18.5134 C   0  0  0  0  0  0  0  0  0  0  0  0
  -22.6560   -5.2873   22.9652 C   0  0  0  0  0  0  0  0  0  0  0  0
  -22.4623   -4.5648   24.1425 C   0  0  0  0  0  0  0  0  0  0  0  0
  -24.4264  -27.2028   20.7030 C   0  0  0  0  0  0  0  0  0  0  0  0
  -20.1996   -5.4002   24.2826 C   0  0  0  0  0  0  0  0  0  0  0  0
  -24.8303   -9.6351   21.2387 C   0  0  0  0  0  0  0  0  0  0  0  0
  -27.1874  -10.4844   21.7187 C   0  0  0  0  0  0  0  0  0  0  0  0
  -30.4496  -33.7954   22.5382 C   0  0  0  0  0  0  0  0  0  0  0  0
  -25.1627  -29.3926   19.9799 C   0  0  0  0  0  0  0  0  0  0  0  0
  -29.9245  -32.5846   22.0475 C   0  0  0  0  0  0  0  0  0  0  0  0
  -24.5786  -28.5744   20.9575 C   0  0  0  0  0  0  0  0  0  0  0  0
  -22.8038   -7.7180   21.2648 C   0  0  0  0  0  0  0  0  0  0  0  0
  -24.8376  -26.6550   19.4881 C   0  0  0  0  0  0  0  0  0  0  0  0
  -21.6216   -6.0663   22.4466 C   0  0  0  0  0  0  0  0  0  0  0  0
  -21.2340   -4.6212   24.8012 C   0  0  0  0  0  0  0  0  0  0  0  0
  -20.3934   -6.1227   23.1053 C   0  0  0  0  0  0  0  0  0  0  0  0
  -25.8768  -10.6254   21.2244 C   0  0  0  0  0  0  0  0  0  0  0  0
  -27.7809  -11.6976   21.4688 C   0  0  0  0  0  0  0  0  0  0  0  0
  -29.1221  -21.3050   17.7465 C   0  0  0  0  0  0  0  0  0  0  0  0
  -29.9321  -19.3170   17.4291 C   0  0  0  0  0  0  0  0  0  0  0  0
  -27.8123   -9.3576   22.3475 C   0  0  0  0  0  0  0  0  0  0  0  0
  -26.6536  -30.8932   22.3524 C   0  0  0  0  0  0  0  0  0  0  0  0
  -23.6363  -31.2971   23.4728 C   0  0  0  0  0  0  0  0  0  0  0  0
  -20.3983  -30.2207   23.5289 C   0  0  0  0  0  0  0  0  0  0  0  0
  -28.9003  -15.9023   18.3021 C   0  0  0  0  0  0  0  0  0  0  0  0
  -30.1134  -34.3046   23.9175 C   0  0  0  0  0  0  0  0  0  0  0  0
  -25.3159  -30.8702   20.2155 C   0  0  0  0  0  0  0  0  0  0  0  0
  -24.1161  -29.1261   22.2804 C   0  0  0  0  0  0  0  0  0  0  0  0
  -28.8685  -33.6576   24.5190 C   0  0  0  0  0  0  0  0  0  0  0  0
  -25.8038  -16.1011   19.9886 C   0  0  0  0  0  0  0  0  0  0  0  0
  -28.9106  -32.1442   24.3330 C   0  0  0  0  0  0  0  0  0  0  0  0
  -25.6448  -14.6697   20.4990 C   0  0  0  0  0  0  0  0  0  0  0  0
  -26.3888  -16.1457   18.5758 C   0  0  0  0  0  0  0  0  0  0  0  0
  -27.4975  -13.9638   18.9399 C   0  0  0  0  0  0  0  0  0  0  0  0
  -28.9287  -31.7714   22.8457 C   0  0  1  0  0  0  0  0  0  0  0  0
  -25.3473  -31.2391   21.6955 C   0  0  1  0  0  0  0  0  0  0  0  0
  -26.9677  -13.8931   20.3804 C   0  0  2  0  0  0  0  0  0  0  0  0
  -29.0669  -19.9666   20.7053 C   0  0  0  0  0  0  0  0  0  0  0  0
  -29.1046  -23.7815   18.3045 C   0  0  0  0  0  0  0  0  0  0  0  0
  -18.1708  -30.7297   24.5666 C   0  0  0  0  0  0  0  0  0  0  0  0
  -26.8355  -23.0446   16.3492 C   0  0  0  0  0  0  0  0  0  0  0  0
  -30.8651  -17.4776   18.9832 C   0  0  0  0  0  0  0  0  0  0  0  0
  -31.1568  -17.3342   16.5130 C   0  0  0  0  0  0  0  0  0  0  0  0
  -24.5801  -30.0624   26.0986 C   0  0  0  0  0  0  0  0  0  0  0  0
  -22.1790  -29.7247   26.7221 C   0  0  0  0  0  0  0  0  0  0  0  0
  -23.0589  -32.0303   26.3585 C   0  0  0  0  0  0  0  0  0  0  0  0
  -24.4276  -22.5214   18.5736 C   0  0  0  0  0  0  0  0  0  0  0  0
  -26.2088  -23.1232   20.2254 C   0  0  0  0  0  0  0  0  0  0  0  0
  -28.0480  -17.4607   16.4993 C   0  0  0  0  0  0  0  0  0  0  0  0
  -19.1530  -30.7192   20.8908 C   0  0  0  0  0  0  0  0  0  0  0  0
  -28.3972  -19.5611   19.4035 C   0  0  0  0  0  0  0  0  0  0  0  0
  -25.6283  -24.7019   18.3853 C   0  0  0  0  0  0  0  0  0  1  0  0
  -28.3303  -22.4542   18.3682 C   0  0  1  0  0  0  0  0  0  0  0  0
  -22.7144  -30.5073   24.3702 C   0  0  1  0  0  0  0  0  0  0  0  0
  -19.0857  -30.9676   23.3752 C   0  0  2  0  0  0  0  0  0  0  0  0
  -26.8679  -22.4970   17.7886 C   0  0  1  0  0  0  0  0  0  0  0  0
  -30.2038  -17.8815   17.6225 C   0  0  0  0  0  0  0  0  0  0  0  0
  -23.1435  -30.5701   25.8633 C   0  0  0  0  0  0  0  0  0  0  0  0
  -25.8106  -23.2006   18.7398 C   0  0  0  0  0  0  0  0  0  0  0  0
  -25.6505  -11.8329   20.7002 N   0  0  0  0  0  0  0  0  0  0  0  0
  -29.8942  -21.3583   16.6848 N   0  0  0  0  0  0  0  0  0  0  0  0
  -30.4096  -20.0935   16.4828 N   0  0  0  0  0  0  0  0  0  0  0  0
  -26.8269  -12.4618   20.8638 N   0  0  0  0  0  0  0  0  0  0  0  0
  -29.1168  -20.0385   18.2473 N   0  0  0  0  0  0  0  0  0  0  0  0
  -24.2932  -30.5759   22.4658 N   0  0  0  0  0  0  0  0  0  0  0  0
  -27.6238  -15.3539   18.4951 N   0  0  0  0  0  0  0  0  0  0  0  0
  -29.0206  -12.1745   21.7098 N   0  0  0  0  0  0  0  0  0  0  0  0
  -27.0588   -8.1895   22.5266 N   0  0  0  0  0  0  0  0  0  0  0  0
  -27.6033  -31.8942   22.2777 N   0  0  0  0  0  0  0  0  0  0  0  0
  -21.3681  -31.0072   24.1138 N   0  0  0  0  0  0  0  0  0  0  0  0
  -28.9835  -17.0896   17.5592 N   0  0  0  0  0  0  0  0  0  0  0  0
  -18.3772  -30.5217   22.1422 N   0  3  0  0  0  0  0  0  0  0  0  0
  -28.9987   -9.3912   22.7537 O   0  0  0  0  0  0  0  0  0  0  0  0
  -26.7893  -29.7997   22.8887 O   0  0  0  0  0  0  0  0  0  0  0  0
  -23.7633  -32.5107   23.6541 O   0  0  0  0  0  0  0  0  0  0  0  0
  -20.5473  -29.0548   23.1697 O   0  0  0  0  0  0  0  0  0  0  0  0
  -29.9125  -15.3576   18.7612 O   0  0  0  0  0  0  0  0  0  0  0  0
  -21.8153   -6.7824   21.2773 O   0  0  0  0  0  0  0  0  0  0  0  0
  -24.6823  -25.3234   19.2544 O   0  0  0  0  0  0  0  0  0  1  0  0
  -21.0476   -3.9262   25.9309 F   0  0  0  0  0  0  0  0  0  0  0  0
  -19.3955   -6.8684   22.6113 F   0  0  0  0  0  0  0  0  0  0  0  0
  1  2  1  0  0  0  0
  1  5  2  0  0  0  0
  2  6  2  0  0  0  0
  3  8  2  0  0  0  0
  3 15  1  0  0  0  0
  4  9  1  0  0  0  0
  4 15  2  0  0  0  0
  5 17  1  0  0  0  0
  6 19  1  0  0  0  0
  7 10  2  0  0  0  0
  7 18  1  0  0  0  0
  8 21  1  0  0  0  0
  9 21  2  0  0  0  0
 10 22  1  0  0  0  0
 11 12  2  0  0  0  0
 11 23  1  0  0  0  0
 12 24  1  0  0  0  0
 13 20  1  0  0  0  0
 13 22  2  0  0  0  0
 14 24  2  0  0  0  0
 14 25  1  0  0  0  0
 15 26  1  0  0  0  0
 16 26  1  0  0  0  0
 16 27  2  0  0  0  0
 16 30  1  0  0  0  0
 17 19  2  0  0  0  0
 17 35  1  0  0  0  0
 18 20  2  0  0  0  0
 18 36  1  0  0  0  0
 19 44  1  0  0  0  0
 20 37  1  0  0  0  0
 21 87  1  0  0  0  0
 22 88  1  0  0  0  0
 23 25  2  0  0  0  0
 23 87  1  0  0  0  0
 24 89  1  0  0  0  0
 25 90  1  0  0  0  0
 26 69  2  0  0  0  0
 27 72  1  0  0  0  0
 27 76  1  0  0  0  0
 28 62  1  0  0  0  0
 28 70  2  0  0  0  0
 28 73  1  0  0  0  0
 29 66  1  0  0  0  0
 29 71  2  0  0  0  0
 29 73  1  0  0  0  0
 30 77  1  0  0  0  0
 30 82  2  0  0  0  0
 31 45  1  0  0  0  0
 31 78  1  0  0  0  0
 31 83  2  0  0  0  0
 32 63  1  0  0  0  0
 32 74  1  0  0  0  0
 32 84  2  0  0  0  0
 33 64  1  0  0  0  0
 33 79  1  0  0  0  0
 33 85  2  0  0  0  0
 34 75  1  0  0  0  0
 34 80  1  0  0  0  0
 34 86  2  0  0  0  0
 35 38  1  0  0  0  0
 36 45  1  0  0  0  0
 37 74  1  0  0  0  0
 38 40  1  0  0  0  0
 39 41  1  0  0  0  0
 39 42  1  0  0  0  0
 40 44  1  0  0  0  0
 41 46  1  0  0  0  0
 42 75  1  0  0  0  0
 43 46  1  0  0  0  0
 43 75  1  0  0  0  0
 44 78  1  0  0  0  0
 45 74  1  0  0  0  0
 46 72  1  0  0  0  0
 47 60  1  0  0  0  0
 48 62  1  0  0  0  0
 49 64  1  0  0  0  0
 50 65  1  0  0  0  0
 51 66  1  0  0  0  0
 52 66  1  0  0  0  0
 53 67  1  0  0  0  0
 54 67  1  0  0  0  0
 55 67  1  0  0  0  0
 56 68  1  0  0  0  0
 57 68  1  0  0  0  0
 58 80  1  0  0  0  0
 59 81  1  0  0  0  0
 60 73  1  0  0  0  0
 61 68  1  0  0  0  0
 61 88  1  0  0  0  0
 62 65  1  0  0  0  0
 63 67  1  0  0  0  0
 63 79  1  0  0  0  0
 64 81  1  0  0  0  0
 65 68  1  0  0  0  0
 66 80  1  0  0  0  0
 69 72  1  0  0  0  0
 70 71  1  0  0  0  0
M  CHG  1  81   1
M  ISO  4  34 100  61 101  80 100  88 101
M  END
> <Batch ID>
0066

> <Smiles>
CCn1c(C(C)C(C)C(C)(C)[101CH2:1][101O:1]c2ccc3c(c2)CN(C(=O)C(NC(=O)C(C)NC)C(C)(C)C)C(C(=O)NC2CCCc4ccccc42)C3)nnc1C(C)(C)[100N:0](C)[100C:0](=O)N1CCCC(n2nc(-c3ccc(Oc4ccc(F)cc4F)cc3)c(C(N)=O)c2N)C1

> <Shape>
0.250

> <Color>
0.098

> <Negative vol penalty>
0.000

$$$$

  -OEChem-04052318093D

 93101  0     1  0  0  0  0  0999 V2000
  -32.2386  -13.1338   21.3555 C   0  0  0  0  0  0  0  0  0  0  0  0
  -31.7331  -14.4048   21.6093 C   0  0  0  0  0  0  0  0  0  0  0  0
  -28.9304  -25.8402   19.0175 C   0  0  0  0  0  0  0  0  0  0  0  0
  -27.0173  -24.3912   19.2959 C   0  0  0  0  0  0  0  0  0  0  0  0
  -31.4939  -12.2259   20.6037 C   0  0  0  0  0  0  0  0  0  0  0  0
  -30.4829  -14.7691   21.1105 C   0  0  0  0  0  0  0  0  0  0  0  0
  -24.7877  -18.8036   22.7241 C   0  0  0  0  0  0  0  0  0  0  0  0
  -29.7809  -24.7723   19.3033 C   0  0  0  0  0  0  0  0  0  0  0  0
  -27.8679  -23.3232   19.5817 C   0  0  0  0  0  0  0  0  0  0  0  0
  -23.9826  -19.7997   22.1734 C   0  0  0  0  0  0  0  0  0  0  0  0
  -29.8163  -21.1635   17.8613 C   0  0  0  0  0  0  0  0  0  0  0  0
  -29.5493  -19.9413   17.2443 C   0  0  0  0  0  0  0  0  0  0  0  0
  -22.7507  -18.1218   20.9543 C   0  0  0  0  0  0  0  0  0  0  0  0
  -29.2795  -18.9066   19.4108 C   0  0  0  0  0  0  0  0  0  0  0  0
  -19.9607  -26.9577   19.6326 C   0  0  0  0  0  0  0  0  0  0  0  0
  -27.5486  -25.6497   19.0139 C   0  0  0  0  0  0  0  0  0  0  0  0
  -26.1895  -27.1429   17.4547 C   0  0  0  0  0  0  0  0  0  0  0  0
  -30.2298  -12.5760   20.1036 C   0  0  0  0  0  0  0  0  0  0  0  0
  -24.5870  -17.4578   22.3850 C   0  0  0  0  0  0  0  0  0  0  0  0
  -29.7212  -13.8655   20.3502 C   0  0  0  0  0  0  0  0  0  0  0  0
  -23.5530  -17.1102   21.5041 C   0  0  0  0  0  0  0  0  0  0  0  0
  -29.2497  -23.5138   19.5854 C   0  0  0  0  0  0  0  0  0  0  0  0
  -22.9658  -19.4592   21.2861 C   0  0  0  0  0  0  0  0  0  0  0  0
  -29.8149  -21.2572   19.2531 C   0  0  0  0  0  0  0  0  0  0  0  0
  -29.2810  -18.8129   18.0190 C   0  0  0  0  0  0  0  0  0  0  0  0
  -29.5465  -20.1287   20.0278 C   0  0  0  0  0  0  0  0  0  0  0  0
  -26.6694  -26.7526   18.7193 C   0  0  0  0  0  0  0  0  0  0  0  0
  -20.1616  -25.5703   19.5044 C   0  0  0  0  0  0  0  0  0  0  0  0
  -19.6453  -27.1380   20.9572 C   0  0  0  0  0  0  0  0  0  0  0  0
  -25.3978  -28.2358   17.7102 C   0  0  0  0  0  0  0  0  0  0  0  0
  -26.4372  -26.5688   16.1644 C   0  0  0  0  0  0  0  0  0  0  0  0
  -26.3376  -15.2176   20.9634 C   0  0  0  0  0  0  0  0  0  0  0  0
  -23.8453  -13.3063   21.7745 C   0  0  0  0  0  0  0  0  0  0  0  0
  -20.5344  -13.0388   22.5577 C   0  0  0  0  0  0  0  0  0  0  0  0
  -22.3934  -30.0495   22.5615 C   0  0  0  0  0  0  0  0  0  0  0  0
  -29.4823  -11.5770   19.2562 C   0  0  0  0  0  0  0  0  0  0  0  0
  -25.4469  -16.3927   23.0084 C   0  0  0  0  0  0  0  0  0  0  0  0
  -23.2833  -15.6781   21.1234 C   0  0  0  0  0  0  0  0  0  0  0  0
  -28.0035  -11.9128   19.0807 C   0  0  0  0  0  0  0  0  0  0  0  0
  -24.8991  -31.8593   20.7943 C   0  0  0  0  0  0  0  0  0  0  0  0
  -27.8291  -13.3863   18.7265 C   0  0  0  0  0  0  0  0  0  0  0  0
  -25.5937  -30.7910   19.9480 C   0  0  0  0  0  0  0  0  0  0  0  0
  -24.4842  -31.3160   22.1598 C   0  0  0  0  0  0  0  0  0  0  0  0
  -24.3606  -29.0212   21.2695 C   0  0  0  0  0  0  0  0  0  0  0  0
  -28.3583  -14.2894   19.8472 C   0  0  1  0  0  0  0  0  0  0  0  0
  -25.4841  -15.1027   22.1947 C   0  0  1  0  0  0  0  0  0  0  0  0
  -24.7478  -29.5063   19.8620 C   0  0  2  0  0  0  0  0  0  0  0  0
  -18.7773  -11.3424   23.1341 C   0  0  0  0  0  0  0  0  0  0  0  0
  -20.6983  -25.0660   23.5889 C   0  0  0  0  0  0  0  0  0  0  0  0
  -17.9041  -28.3957   22.4004 C   0  0  0  0  0  0  0  0  0  0  0  0
  -19.3355  -29.6225   20.7873 C   0  0  0  0  0  0  0  0  0  0  0  0
  -23.6970  -12.4679   18.8444 C   0  0  0  0  0  0  0  0  0  0  0  0
  -21.4079  -11.5584   19.2928 C   0  0  0  0  0  0  0  0  0  0  0  0
  -23.3824  -10.6027   20.4804 C   0  0  0  0  0  0  0  0  0  0  0  0
  -16.8556  -25.2136   22.5454 C   0  0  0  0  0  0  0  0  0  0  0  0
  -17.9420  -24.3691   24.6315 C   0  0  0  0  0  0  0  0  0  0  0  0
  -18.3994  -23.2588   22.4545 C   0  0  0  0  0  0  0  0  0  0  0  0
  -22.2659  -23.8142   16.6603 C   0  0  0  0  0  0  0  0  0  0  0  0
  -22.7666  -25.9678   17.8252 C   0  0  0  0  0  0  0  0  0  0  0  0
  -20.0503  -14.2690   25.2055 C   0  0  0  0  0  0  0  0  0  0  0  0
  -20.5307  -24.8044   18.2538 C   0  0  0  0  0  0  0  0  0  0  0  0
  -22.0979  -22.3993   19.3753 C   0  0  0  0  0  0  0  0  0  0  0  0
  -22.7025  -23.7826   19.1157 C   0  0  0  0  0  0  0  0  0  0  0  0
  -20.3598  -28.6611   22.8708 C   0  0  0  0  0  0  0  0  0  0  0  0
  -22.7689  -21.7156   20.5610 C   0  0  0  0  0  0  0  0  0  1  0  0
  -22.5483  -12.9034   21.1153 C   0  0  1  0  0  0  0  0  0  0  0  0
  -19.8206  -12.3055   23.6789 C   0  0  2  0  0  0  0  0  0  0  0  0
  -19.4128  -25.5619   22.9005 C   0  0  2  0  0  0  0  0  0  0  0  0
  -19.3247  -28.3589   21.7190 C   0  0  0  0  0  0  0  0  0  0  0  0
  -22.7650  -11.9104   19.9387 C   0  0  0  0  0  0  0  0  0  0  0  0
  -18.1592  -24.6316   23.1243 C   0  0  0  0  0  0  0  0  0  0  0  0
  -22.0498  -24.6116   17.9655 C   0  0  0  0  0  0  0  0  0  0  0  0
  -26.2203  -27.5341   19.7049 N   0  0  0  0  0  0  0  0  0  0  0  0
  -19.9887  -24.9156   20.6557 N   0  0  0  0  0  0  0  0  0  0  0  0
  -19.6758  -25.8960   21.5200 N   0  0  0  0  0  0  0  0  0  0  0  0
  -25.4499  -28.4265   19.0596 N   0  0  0  0  0  0  0  0  0  0  0  0
  -24.1551  -14.6736   21.7545 N   0  0  0  0  0  0  0  0  0  0  0  0
  -23.6834  -30.0987   22.0078 N   0  0  0  0  0  0  0  0  0  0  0  0
  -24.6692  -29.0427   16.9099 N   0  0  0  0  0  0  0  0  0  0  0  0
  -27.2748  -25.4482   16.0814 N   0  0  0  0  0  0  0  0  0  0  0  0
  -27.4107  -14.3474   20.9395 N   0  0  0  0  0  0  0  0  0  0  0  0
  -21.6915  -12.3913   22.1793 N   0  0  0  0  0  0  0  0  0  0  0  0
  -21.7000  -28.8614   22.3662 N   0  0  0  0  0  0  0  0  0  0  0  0
  -19.1387  -13.2762   24.5809 N   0  3  0  0  0  0  0  0  0  0  0  0
  -25.9438  -27.0456   15.1143 O   0  0  0  0  0  0  0  0  0  0  0  0
  -26.0434  -16.0342   20.0984 O   0  0  0  0  0  0  0  0  0  0  0  0
  -24.5539  -12.4407   22.2944 O   0  0  0  0  0  0  0  0  0  0  0  0
  -20.1063  -14.0798   22.0641 O   0  0  0  0  0  0  0  0  0  0  0  0
  -21.8944  -30.9964   23.1790 O   0  0  0  0  0  0  0  0  0  0  0  0
  -30.0793  -22.4714   19.8641 O   0  0  0  0  0  0  0  0  0  0  0  0
  -22.1789  -20.4296   20.7467 O   0  0  0  0  0  0  0  0  0  1  0  0
  -29.0231  -17.6397   17.4264 F   0  0  0  0  0  0  0  0  0  0  0  0
  -29.5427  -20.2128   21.3652 F   0  0  0  0  0  0  0  0  0  0  0  0
  1  2  1  0  0  0  0
  1  5  2  0  0  0  0
  2  6  2  0  0  0  0
  3  8  2  0  0  0  0
  3 16  1  0  0  0  0
  4  9  1  0  0  0  0
  4 16  2  0  0  0  0
  5 18  1  0  0  0  0
  6 20  1  0  0  0  0
  7 10  2  0  0  0  0
  7 19  1  0  0  0  0
  8 22  1  0  0  0  0
  9 22  2  0  0  0  0
 10 23  1  0  0  0  0
 11 12  2  0  0  0  0
 11 24  1  0  0  0  0
 12 25  1  0  0  0  0
 13 21  1  0  0  0  0
 13 23  2  0  0  0  0
 14 25  2  0  0  0  0
 14 26  1  0  0  0  0
 15 28  1  0  0  0  0
 15 29  2  0  0  0  0
 16 27  1  0  0  0  0
 17 27  1  0  0  0  0
 17 30  2  0  0  0  0
 17 31  1  0  0  0  0
 18 20  2  0  0  0  0
 18 36  1  0  0  0  0
 19 21  2  0  0  0  0
 19 37  1  0  0  0  0
 20 45  1  0  0  0  0
 21 38  1  0  0  0  0
 22 90  1  0  0  0  0
 23 91  1  0  0  0  0
 24 26  2  0  0  0  0
 24 90  1  0  0  0  0
 25 92  1  0  0  0  0
 26 93  1  0  0  0  0
 27 73  2  0  0  0  0
 28 61  1  0  0  0  0
 28 74  2  0  0  0  0
 29 69  1  0  0  0  0
 29 75  1  0  0  0  0
 30 76  1  0  0  0  0
 30 79  1  0  0  0  0
 31 80  1  0  0  0  0
 31 85  2  0  0  0  0
 32 46  1  0  0  0  0
 32 81  1  0  0  0  0
 32 86  2  0  0  0  0
 33 66  1  0  0  0  0
 33 77  1  0  0  0  0
 33 87  2  0  0  0  0
 34 67  1  0  0  0  0
 34 82  1  0  0  0  0
 34 88  2  0  0  0  0
 35 78  1  0  0  0  0
 35 83  1  0  0  0  0
 35 89  2  0  0  0  0
 36 39  1  0  0  0  0
 37 46  1  0  0  0  0
 38 77  1  0  0  0  0
 39 41  1  0  0  0  0
 40 42  1  0  0  0  0
 40 43  1  0  0  0  0
 41 45  1  0  0  0  0
 42 47  1  0  0  0  0
 43 78  1  0  0  0  0
 44 47  1  0  0  0  0
 44 78  1  0  0  0  0
 45 81  1  0  0  0  0
 46 77  1  0  0  0  0
 47 76  1  0  0  0  0
 48 67  1  0  0  0  0
 49 68  1  0  0  0  0
 50 69  1  0  0  0  0
 51 69  1  0  0  0  0
 52 70  1  0  0  0  0
 53 70  1  0  0  0  0
 54 70  1  0  0  0  0
 55 71  1  0  0  0  0
 56 71  1  0  0  0  0
 57 71  1  0  0  0  0
 58 72  1  0  0  0  0
 59 72  1  0  0  0  0
 60 84  1  0  0  0  0
 61 72  1  0  0  0  0
 62 63  1  0  0  0  0
 62 65  1  0  0  0  0
 63 72  1  0  0  0  0
 64 69  1  0  0  0  0
 64 83  1  0  0  0  0
 65 91  1  0  0  0  0
 66 70  1  0  0  0  0
 66 82  1  0  0  0  0
 67 84  1  0  0  0  0
 68 71  1  0  0  0  0
 68 75  1  0  0  0  0
 73 76  1  0  0  0  0
 74 75  1  0  0  0  0
M  CHG  1  84   1
M  ISO  4  35 100  65 101  83 100  91 101
M  END
> <Batch ID>
0066

> <Smiles>
CNC(C)C(=O)NC(C(=O)N1Cc2cc([101O:1][101CH2:1]CCC(C)(C)Cc3cc(C(C)(C)C[100NH:0][100C:0](=O)N4CCCC(n5nc(-c6ccc(Oc7ccc(F)cc7F)cc6)c(C(N)=O)c5N)C4)n(C(C)C(C)(C)C)n3)ccc2CC1C(=O)NC1CCCc2ccccc21)C(C)(C)C

> <Shape>
0.268

> <Color>
0.068

> <Negative vol penalty>
0.000

$$$$

  -OEChem-04052318093D

 93101  0     1  0  0  0  0  0999 V2000
  -18.6525  -14.9481   24.8540 C   0  0  0  0  0  0  0  0  0  0  0  0
  -19.4868  -15.9933   25.2374 C   0  0  0  0  0  0  0  0  0  0  0  0
  -23.0652  -28.6963   21.9675 C   0  0  0  0  0  0  0  0  0  0  0  0
  -23.1115  -26.3468   22.5284 C   0  0  0  0  0  0  0  0  0  0  0  0
  -19.2003  -13.7699   24.3483 C   0  0  0  0  0  0  0  0  0  0  0  0
  -20.8696  -15.8604   25.1162 C   0  0  0  0  0  0  0  0  0  0  0  0
  -24.8828  -20.2689   23.7143 C   0  0  0  0  0  0  0  0  0  0  0  0
  -21.9767  -28.8786   22.8205 C   0  0  0  0  0  0  0  0  0  0  0  0
  -22.0231  -26.5290   23.3816 C   0  0  0  0  0  0  0  0  0  0  0  0
  -25.7204  -21.0594   24.5001 C   0  0  0  0  0  0  0  0  0  0  0  0
  -18.9580  -29.8915   24.5768 C   0  0  0  0  0  0  0  0  0  0  0  0
  -17.8890  -30.6576   24.1122 C   0  0  0  0  0  0  0  0  0  0  0  0
  -27.5383  -19.5267   24.0933 C   0  0  0  0  0  0  0  0  0  0  0  0
  -17.5695  -29.1055   22.2884 C   0  0  0  0  0  0  0  0  0  0  0  0
  -23.6325  -27.4304   21.8214 C   0  0  0  0  0  0  0  0  0  0  0  0
  -26.1214  -27.3465   21.2682 C   0  0  0  0  0  0  0  0  0  0  0  0
  -20.5900  -13.6262   24.2118 C   0  0  0  0  0  0  0  0  0  0  0  0
  -25.3646  -19.0937   23.1200 C   0  0  0  0  0  0  0  0  0  0  0  0
  -21.4366  -14.6787   24.6094 C   0  0  0  0  0  0  0  0  0  0  0  0
  -26.7055  -18.7245   23.2983 C   0  0  0  0  0  0  0  0  0  0  0  0
  -21.4557  -27.7950   23.5276 C   0  0  0  0  0  0  0  0  0  0  0  0
  -27.0475  -20.6868   24.6921 C   0  0  0  0  0  0  0  0  0  0  0  0
  -19.3328  -28.7324   23.8972 C   0  0  0  0  0  0  0  0  0  0  0  0
  -17.1947  -30.2646   22.9680 C   0  0  0  0  0  0  0  0  0  0  0  0
  -18.6385  -28.3394   22.7530 C   0  0  0  0  0  0  0  0  0  0  0  0
  -24.7565  -27.2414   20.9399 C   0  0  0  0  0  0  0  0  0  0  0  0
  -29.2824  -22.8779   19.9499 C   0  0  0  0  0  0  0  0  0  0  0  0
  -30.1608  -23.6530   20.6744 C   0  0  0  0  0  0  0  0  0  0  0  0
  -29.4883  -24.3041   18.1742 C   0  0  0  0  0  0  0  0  0  0  0  0
  -30.3662  -25.0797   18.8989 C   0  0  0  0  0  0  0  0  0  0  0  0
  -26.7790  -27.0780   20.0926 C   0  0  0  0  0  0  0  0  0  0  0  0
  -26.7396  -27.6589   22.5236 C   0  0  0  0  0  0  0  0  0  0  0  0
  -24.6480  -16.0057   23.3529 C   0  0  0  0  0  0  0  0  0  0  0  0
  -26.7791  -15.7276   20.9231 C   0  0  0  0  0  0  0  0  0  0  0  0
  -29.4645  -17.0226   19.2623 C   0  0  0  0  0  0  0  0  0  0  0  0
  -27.1291  -23.5966   15.6121 C   0  0  0  0  0  0  0  0  0  0  0  0
  -21.1380  -12.3160   23.7042 C   0  0  0  0  0  0  0  0  0  0  0  0
  -24.4554  -18.2662   22.2534 C   0  0  0  0  0  0  0  0  0  0  0  0
  -27.2770  -17.4830   22.6656 C   0  0  0  0  0  0  0  0  0  0  0  0
  -22.5953  -12.3975   23.2573 C   0  0  0  0  0  0  0  0  0  0  0  0
  -25.0644  -26.6587   15.3619 C   0  0  0  0  0  0  0  0  0  0  0  0
  -23.4312  -13.1397   24.2952 C   0  0  0  0  0  0  0  0  0  0  0  0
  -24.8591  -27.0425   16.8263 C   0  0  0  0  0  0  0  0  0  0  0  0
  -25.2623  -25.1555   15.1920 C   0  0  0  0  0  0  0  0  0  0  0  0
  -26.1532  -24.9778   17.4917 C   0  0  0  0  0  0  0  0  0  0  0  0
  -22.9403  -14.5820   24.4699 C   0  0  1  0  0  0  0  0  0  0  0  0
  -24.9149  -16.8179   22.1173 C   0  0  1  0  0  0  0  0  0  0  0  0
  -25.9972  -26.4913   17.7028 C   0  0  2  0  0  0  0  0  0  0  0  0
  -26.3014  -22.5202   20.3226 C   0  0  0  0  0  0  0  0  0  0  0  0
  -31.2146  -17.2401   17.4771 C   0  0  0  0  0  0  0  0  0  0  0  0
  -28.2378  -13.6432   22.6075 C   0  0  0  0  0  0  0  0  0  0  0  0
  -30.2192  -13.9142   21.1012 C   0  0  0  0  0  0  0  0  0  0  0  0
  -28.0572  -13.0802   20.1775 C   0  0  0  0  0  0  0  0  0  0  0  0
  -28.5512  -25.1643   25.7173 C   0  0  0  0  0  0  0  0  0  0  0  0
  -29.5372  -23.2874   27.0371 C   0  0  0  0  0  0  0  0  0  0  0  0
  -29.3316  -22.4883   15.6289 C   0  0  0  0  0  0  0  0  0  0  0  0
  -27.6905  -18.6717   17.5616 C   0  0  0  0  0  0  0  0  0  0  0  0
  -28.6726  -21.6468   20.5279 C   0  0  0  0  0  0  0  0  0  0  0  0
  -30.5472  -23.2922   22.0869 C   0  0  0  0  0  0  0  0  0  0  0  0
  -29.1074  -24.6598   16.7778 C   0  0  0  0  0  0  0  0  0  0  0  0
  -27.2594  -21.3898   19.9818 C   0  0  0  0  0  0  0  0  0  0  0  0
  -29.4910  -23.6684   23.1354 C   0  0  0  0  0  0  0  0  0  0  0  0
  -29.9443  -23.3627   24.5711 C   0  0  0  0  0  0  0  0  0  0  0  0
  -27.5973  -22.8570   25.4946 C   0  0  0  0  0  0  0  0  0  1  0  0
  -28.2705  -15.5139   20.8284 C   0  0  1  0  0  0  0  0  0  0  0  0
  -29.7249  -17.2395   17.7826 C   0  0  2  0  0  0  0  0  0  0  0  0
  -30.9756  -26.3109   18.3207 C   0  0  0  0  0  0  0  0  0  0  0  0
  -28.6852  -14.0603   21.1923 C   0  0  0  0  0  0  0  0  0  0  0  0
  -28.8991  -23.6656   25.6826 C   0  0  0  0  0  0  0  0  0  0  0  0
  -24.5574  -26.9305   19.6563 N   0  0  0  0  0  0  0  0  0  0  0  0
  -28.9304  -23.1894   18.6867 N   0  0  0  0  0  0  0  0  0  0  0  0
  -30.7185  -24.7679   20.1620 N   0  0  0  0  0  0  0  0  0  0  0  0
  -25.8059  -26.8380   19.1676 N   0  0  0  0  0  0  0  0  0  0  0  0
  -26.3467  -16.7036   21.8322 N   0  0  0  0  0  0  0  0  0  0  0  0
  -26.3203  -24.6507   16.0678 N   0  0  0  0  0  0  0  0  0  0  0  0
  -28.0889  -27.0261   19.7703 N   0  0  0  0  0  0  0  0  0  0  0  0
  -25.9163  -27.9077   23.6302 N   0  0  0  0  0  0  0  0  0  0  0  0
  -23.4018  -15.4090   23.3756 N   0  0  0  0  0  0  0  0  0  0  0  0
  -28.6574  -15.9268   19.4837 N   0  0  0  0  0  0  0  0  0  0  0  0
  -28.4506  -23.5554   16.0818 N   0  0  0  0  0  0  0  0  0  0  0  0
  -29.1542  -18.5437   17.3419 N   0  3  0  0  0  0  0  0  0  0  0  0
  -27.9848  -27.7319   22.6561 O   0  0  0  0  0  0  0  0  0  0  0  0
  -25.5094  -15.9250   24.2207 O   0  0  0  0  0  0  0  0  0  0  0  0
  -26.0259  -15.0584   20.2114 O   0  0  0  0  0  0  0  0  0  0  0  0
  -29.9334  -17.7503   20.1348 O   0  0  0  0  0  0  0  0  0  0  0  0
  -26.6976  -22.7466   14.8227 O   0  0  0  0  0  0  0  0  0  0  0  0
  -20.3938  -27.9725   24.3603 O   0  0  0  0  0  0  0  0  0  0  0  0
  -27.8671  -21.4561   25.4591 O   0  0  0  0  0  0  0  0  0  1  0  0
  -16.1672  -30.9996   22.5227 F   0  0  0  0  0  0  0  0  0  0  0  0
  -18.9932  -27.2263   22.0966 F   0  0  0  0  0  0  0  0  0  0  0  0
  -30.5779  -26.5699   17.0394 F   0  0  0  0  0  0  0  0  0  0  0  0
  -30.6826  -27.4474   19.0201 F   0  0  0  0  0  0  0  0  0  0  0  0
  -32.3388  -26.2514   18.2749 F   0  0  0  0  0  0  0  0  0  0  0  0
  1  2  1  0  0  0  0
  1  5  2  0  0  0  0
  2  6  2  0  0  0  0
  3  8  2  0  0  0  0
  3 15  1  0  0  0  0
  4  9  1  0  0  0  0
  4 15  2  0  0  0  0
  5 17  1  0  0  0  0
  6 19  1  0  0  0  0
  7 10  2  0  0  0  0
  7 18  1  0  0  0  0
  8 21  1  0  0  0  0
  9 21  2  0  0  0  0
 10 22  1  0  0  0  0
 11 12  2  0  0  0  0
 11 23  1  0  0  0  0
 12 24  1  0  0  0  0
 13 20  1  0  0  0  0
 13 22  2  0  0  0  0
 14 24  2  0  0  0  0
 14 25  1  0  0  0  0
 15 26  1  0  0  0  0
 16 26  1  0  0  0  0
 16 31  2  0  0  0  0
 16 32  1  0  0  0  0
 17 19  2  0  0  0  0
 17 37  1  0  0  0  0
 18 20  2  0  0  0  0
 18 38  1  0  0  0  0
 19 46  1  0  0  0  0
 20 39  1  0  0  0  0
 21 87  1  0  0  0  0
 22 88  1  0  0  0  0
 23 25  2  0  0  0  0
 23 87  1  0  0  0  0
 24 89  1  0  0  0  0
 25 90  1  0  0  0  0
 26 70  2  0  0  0  0
 27 28  2  0  0  0  0
 27 58  1  0  0  0  0
 27 71  1  0  0  0  0
 28 59  1  0  0  0  0
 28 72  1  0  0  0  0
 29 30  1  0  0  0  0
 29 60  1  0  0  0  0
 29 71  2  0  0  0  0
 30 67  1  0  0  0  0
 30 72  2  0  0  0  0
 31 73  1  0  0  0  0
 31 76  1  0  0  0  0
 32 77  1  0  0  0  0
 32 82  2  0  0  0  0
 33 47  1  0  0  0  0
 33 78  1  0  0  0  0
 33 83  2  0  0  0  0
 34 65  1  0  0  0  0
 34 74  1  0  0  0  0
 34 84  2  0  0  0  0
 35 66  1  0  0  0  0
 35 79  1  0  0  0  0
 35 85  2  0  0  0  0
 36 75  1  0  0  0  0
 36 80  1  0  0  0  0
 36 86  2  0  0  0  0
 37 40  1  0  0  0  0
 38 47  1  0  0  0  0
 39 74  1  0  0  0  0
 40 42  1  0  0  0  0
 41 43  1  0  0  0  0
 41 44  1  0  0  0  0
 42 46  1  0  0  0  0
 43 48  1  0  0  0  0
 44 75  1  0  0  0  0
 45 48  1  0  0  0  0
 45 75  1  0  0  0  0
 46 78  1  0  0  0  0
 47 74  1  0  0  0  0
 48 73  1  0  0  0  0
 49 61  1  0  0  0  0
 50 66  1  0  0  0  0
 51 68  1  0  0  0  0
 52 68  1  0  0  0  0
 53 68  1  0  0  0  0
 54 69  1  0  0  0  0
 55 69  1  0  0  0  0
 56 80  1  0  0  0  0
 57 81  1  0  0  0  0
 58 61  1  0  0  0  0
 59 62  1  0  0  0  0
 60 80  1  0  0  0  0
 62 63  1  0  0  0  0
 63 69  1  0  0  0  0
 64 69  1  0  0  0  0
 64 88  1  0  0  0  0
 65 68  1  0  0  0  0
 65 79  1  0  0  0  0
 66 81  1  0  0  0  0
 67 91  1  0  0  0  0
 67 92  1  0  0  0  0
 67 93  1  0  0  0  0
 70 73  1  0  0  0  0
M  CHG  1  81   1
M  ISO  4  36 100  64 101  80 100  88 101
M  END
> <Batch ID>
0066

> <Smiles>
CCCc1nc(C[100N:0](C)[100C:0](=O)N2CCCC(n3nc(-c4ccc(Oc5ccc(F)cc5F)cc4)c(C(N)=O)c3N)C2)c(C(F)(F)F)nc1CCCC(C)(C)[101CH2:1][101O:1]c1ccc2c(c1)CN(C(=O)C(NC(=O)C(C)NC)C(C)(C)C)C(C(=O)NC1CCCc3ccccc31)C2

> <Shape>
0.211

> <Color>
0.087

> <Negative vol penalty>
0.000

$$$$

  -OEChem-04052318093D

 87 95  0     1  0  0  0  0  0999 V2000
  -22.1225  -22.7943   17.2092 C   0  0  0  0  0  0  0  0  0  0  0  0
  -23.3201  -22.1941   17.5845 C   0  0  0  0  0  0  0  0  0  0  0  0
  -19.4545  -27.1201   19.8600 C   0  0  0  0  0  0  0  0  0  0  0  0
  -20.0027  -25.1810   21.1929 C   0  0  0  0  0  0  0  0  0  0  0  0
  -20.9229  -22.3705   17.7796 C   0  0  0  0  0  0  0  0  0  0  0  0
  -23.3190  -21.1703   18.5312 C   0  0  0  0  0  0  0  0  0  0  0  0
  -26.2606  -17.2747   17.1837 C   0  0  0  0  0  0  0  0  0  0  0  0
  -18.3404  -26.4541   19.3493 C   0  0  0  0  0  0  0  0  0  0  0  0
  -18.8886  -24.5150   20.6823 C   0  0  0  0  0  0  0  0  0  0  0  0
  -27.6357  -17.4249   17.3584 C   0  0  0  0  0  0  0  0  0  0  0  0
  -15.5500  -24.4860   21.2052 C   0  0  0  0  0  0  0  0  0  0  0  0
  -14.7443  -23.7892   22.1057 C   0  0  0  0  0  0  0  0  0  0  0  0
  -27.5101  -16.1451   19.3993 C   0  0  0  0  0  0  0  0  0  0  0  0
  -15.1788  -21.7372   20.9066 C   0  0  0  0  0  0  0  0  0  0  0  0
  -29.1916  -22.0887   18.9046 C   0  0  0  0  0  0  0  0  0  0  0  0
  -20.2857  -26.4835   20.7818 C   0  0  0  0  0  0  0  0  0  0  0  0
  -21.4914  -27.9779   22.4613 C   0  0  0  0  0  0  0  0  0  0  0  0
  -20.9060  -21.3344   18.7267 C   0  0  0  0  0  0  0  0  0  0  0  0
  -25.4970  -16.5666   18.1228 C   0  0  0  0  0  0  0  0  0  0  0  0
  -22.1182  -20.7331   19.1158 C   0  0  0  0  0  0  0  0  0  0  0  0
  -26.1259  -15.9852   19.2329 C   0  0  0  0  0  0  0  0  0  0  0  0
  -18.0574  -25.1516   19.7605 C   0  0  0  0  0  0  0  0  0  0  0  0
  -28.2601  -16.8625   18.4678 C   0  0  0  0  0  0  0  0  0  0  0  0
  -16.1700  -23.8084   20.1553 C   0  0  0  0  0  0  0  0  0  0  0  0
  -14.5588  -22.4148   21.9564 C   0  0  0  0  0  0  0  0  0  0  0  0
  -15.9845  -22.4341   20.0060 C   0  0  0  0  0  0  0  0  0  0  0  0
  -21.4371  -27.1708   21.3092 C   0  0  0  0  0  0  0  0  0  0  0  0
  -22.7990  -28.3927   22.5286 C   0  0  0  0  0  0  0  0  0  0  0  0
  -29.9049  -23.7500   19.9480 C   0  0  0  0  0  0  0  0  0  0  0  0
  -20.4527  -28.3217   23.3880 C   0  0  0  0  0  0  0  0  0  0  0  0
  -23.0915  -17.2981   20.0676 C   0  0  0  0  0  0  0  0  0  0  0  0
  -23.1143  -14.1090   20.6606 C   0  0  0  0  0  0  0  0  0  0  0  0
  -27.7750  -25.9414   20.4060 C   0  0  0  0  0  0  0  0  0  0  0  0
  -24.8629  -11.1783   20.6810 C   0  0  0  0  0  0  0  0  0  0  0  0
  -19.5900  -20.9426   19.3505 C   0  0  0  0  0  0  0  0  0  0  0  0
  -24.0190  -16.3909   17.9060 C   0  0  0  0  0  0  0  0  0  0  0  0
  -25.3543  -15.1983   20.2596 C   0  0  0  0  0  0  0  0  0  0  0  0
  -19.6335  -19.5968   20.0697 C   0  0  0  0  0  0  0  0  0  0  0  0
  -26.5881  -29.3200   19.7706 C   0  0  0  0  0  0  0  0  0  0  0  0
  -20.8721  -19.5045   20.9552 C   0  0  0  0  0  0  0  0  0  0  0  0
  -25.1192  -29.2094   20.1770 C   0  0  0  0  0  0  0  0  0  0  0  0
  -27.0915  -28.0300   19.1283 C   0  0  0  0  0  0  0  0  0  0  0  0
  -25.4213  -26.7036   20.3835 C   0  0  0  0  0  0  0  0  0  0  0  0
  -22.1552  -19.6027   20.1212 C   0  0  1  0  0  0  0  0  0  0  0  0
  -23.2581  -16.0877   19.1931 C   0  0  1  0  0  0  0  0  0  0  0  0
  -24.8833  -27.9738   21.0632 C   0  0  2  0  0  0  0  0  0  0  0  0
  -24.6249   -8.7464   21.2524 C   0  0  0  0  0  0  0  0  0  0  0  0
  -31.6697  -25.5809   19.8746 C   0  0  0  0  0  0  0  0  0  0  0  0
  -30.3834  -25.2537   21.9709 C   0  0  0  0  0  0  0  0  0  0  0  0
  -23.3159  -14.7890   23.6282 C   0  0  0  0  0  0  0  0  0  0  0  0
  -24.0224  -12.4245   24.0506 C   0  0  0  0  0  0  0  0  0  0  0  0
  -21.7680  -12.8988   23.0939 C   0  0  0  0  0  0  0  0  0  0  0  0
  -32.4446  -17.3693   19.1811 C   0  0  0  0  0  0  0  0  0  0  0  0
  -31.8494  -17.8657   21.5555 C   0  0  0  0  0  0  0  0  0  0  0  0
  -25.4214  -10.3499   17.8952 C   0  0  0  0  0  0  0  0  0  0  0  0
  -31.0589  -19.3916   19.6750 C   0  0  0  0  0  0  0  0  0  0  0  0
  -29.9369  -20.1020   20.4438 C   0  0  0  0  0  0  0  0  0  0  0  0
  -30.0849  -17.0309   19.9837 C   0  0  0  0  0  0  0  0  0  1  0  0
  -23.8185  -13.2102   21.6481 C   0  0  1  0  0  0  0  0  0  0  0  0
  -24.5181   -9.7959   20.1570 C   0  0  2  0  0  0  0  0  0  0  0  0
  -30.2592  -25.0928   20.3993 C   0  0  0  0  0  0  0  0  0  0  0  0
  -29.1872  -26.1562   19.9227 C   0  0  0  0  0  0  0  0  0  0  0  0
  -23.2457  -13.3470   23.0871 C   0  0  0  0  0  0  0  0  0  0  0  0
  -31.3384  -17.9237   20.1049 C   0  0  0  0  0  0  0  0  0  0  0  0
  -29.2543  -23.4515   18.8474 N   0  0  0  0  0  0  0  0  0  0  0  0
  -22.6164  -27.0773   20.6891 N   0  0  0  0  0  0  0  0  0  0  0  0
  -30.2108  -22.6092   20.6224 N   0  0  0  0  0  0  0  0  0  0  0  0
  -29.7624  -21.5250   19.9714 N   0  0  0  0  0  0  0  0  0  0  0  0
  -23.4240  -27.8311   21.4543 N   0  0  0  0  0  0  0  0  0  0  0  0
  -23.9106  -15.0597   20.0065 N   0  0  0  0  0  0  0  0  0  0  0  0
  -26.8233  -26.8734   19.9913 N   0  0  0  0  0  0  0  0  0  0  0  0
  -23.4636  -29.1796   23.4013 N   0  0  0  0  0  0  0  0  0  0  0  0
  -19.1665  -27.8093   23.1702 N   0  0  0  0  0  0  0  0  0  0  0  0
  -22.4250  -18.3444   19.4591 N   0  0  0  0  0  0  0  0  0  0  0  0
  -23.7401  -11.8606   21.0996 N   0  0  0  0  0  0  0  0  0  0  0  0
  -25.4414   -9.4162   19.0506 N   0  3  0  0  0  0  0  0  0  0  0  0
  -20.6554  -29.0748   24.3705 O   0  0  0  0  0  0  0  0  0  0  0  0
  -23.5335  -17.2832   21.2105 O   0  0  0  0  0  0  0  0  0  0  0  0
  -21.9036  -13.9678   20.4710 O   0  0  0  0  0  0  0  0  0  0  0  0
  -27.5278  -24.9754   21.1324 O   0  0  0  0  0  0  0  0  0  0  0  0
  -26.0136  -11.6084   20.7189 O   0  0  0  0  0  0  0  0  0  0  0  0
  -16.9702  -24.5015   19.2625 O   0  0  0  0  0  0  0  0  0  0  0  0
  -29.6020  -17.0082   18.6411 O   0  0  0  0  0  0  0  0  0  1  0  0
  -13.7863  -21.7455   22.8222 F   0  0  0  0  0  0  0  0  0  0  0  0
  -16.5785  -21.7775   19.0001 F   0  0  0  0  0  0  0  0  0  0  0  0
  -29.2011  -26.1730   18.5604 F   0  0  0  0  0  0  0  0  0  0  0  0
  -29.6109  -27.3893   20.3147 F   0  0  0  0  0  0  0  0  0  0  0  0
  1  2  1  0  0  0  0
  1  5  2  0  0  0  0
  2  6  2  0  0  0  0
  3  8  2  0  0  0  0
  3 16  1  0  0  0  0
  4  9  1  0  0  0  0
  4 16  2  0  0  0  0
  5 18  1  0  0  0  0
  6 20  1  0  0  0  0
  7 10  2  0  0  0  0
  7 19  1  0  0  0  0
  8 22  1  0  0  0  0
  9 22  2  0  0  0  0
 10 23  1  0  0  0  0
 11 12  2  0  0  0  0
 11 24  1  0  0  0  0
 12 25  1  0  0  0  0
 13 21  1  0  0  0  0
 13 23  2  0  0  0  0
 14 25  2  0  0  0  0
 14 26  1  0  0  0  0
 15 65  2  0  0  0  0
 15 68  1  0  0  0  0
 16 27  1  0  0  0  0
 17 27  1  0  0  0  0
 17 28  2  0  0  0  0
 17 30  1  0  0  0  0
 18 20  2  0  0  0  0
 18 35  1  0  0  0  0
 19 21  2  0  0  0  0
 19 36  1  0  0  0  0
 20 44  1  0  0  0  0
 21 37  1  0  0  0  0
 22 82  1  0  0  0  0
 23 83  1  0  0  0  0
 24 26  2  0  0  0  0
 24 82  1  0  0  0  0
 25 84  1  0  0  0  0
 26 85  1  0  0  0  0
 27 66  2  0  0  0  0
 28 69  1  0  0  0  0
 28 72  1  0  0  0  0
 29 61  1  0  0  0  0
 29 65  1  0  0  0  0
 29 67  2  0  0  0  0
 30 73  1  0  0  0  0
 30 77  2  0  0  0  0
 31 45  1  0  0  0  0
 31 74  1  0  0  0  0
 31 78  2  0  0  0  0
 32 59  1  0  0  0  0
 32 70  1  0  0  0  0
 32 79  2  0  0  0  0
 33 62  1  0  0  0  0
 33 71  1  0  0  0  0
 33 80  2  0  0  0  0
 34 60  1  0  0  0  0
 34 75  1  0  0  0  0
 34 81  2  0  0  0  0
 35 38  1  0  0  0  0
 36 45  1  0  0  0  0
 37 70  1  0  0  0  0
 38 40  1  0  0  0  0
 39 41  1  0  0  0  0
 39 42  1  0  0  0  0
 40 44  1  0  0  0  0
 41 46  1  0  0  0  0
 42 71  1  0  0  0  0
 43 46  1  0  0  0  0
 43 71  1  0  0  0  0
 44 74  1  0  0  0  0
 45 70  1  0  0  0  0
 46 69  1  0  0  0  0
 47 60  1  0  0  0  0
 48 61  1  0  0  0  0
 49 61  1  0  0  0  0
 50 63  1  0  0  0  0
 51 63  1  0  0  0  0
 52 63  1  0  0  0  0
 53 64  1  0  0  0  0
 54 64  1  0  0  0  0
 55 76  1  0  0  0  0
 56 57  1  0  0  0  0
 56 64  1  0  0  0  0
 57 68  1  0  0  0  0
 58 64  1  0  0  0  0
 58 83  1  0  0  0  0
 59 63  1  0  0  0  0
 59 75  1  0  0  0  0
 60 76  1  0  0  0  0
 61 62  1  0  0  0  0
 62 86  1  0  0  0  0
 62 87  1  0  0  0  0
 66 69  1  0  0  0  0
 67 68  1  0  0  0  0
M  CHG  1  76   1
M  ISO  4  33 100  58 101  62 100  83 101
M  END
> <Batch ID>
0066

> <Smiles>
CNC(C)C(=O)NC(C(=O)N1Cc2cc([101O:1][101CH2:1]C(C)(C)CCn3cnc(C(C)(C)[100C:0](F)(F)[100C:0](=O)N4CCCC(n5nc(-c6ccc(Oc7ccc(F)cc7F)cc6)c(C(N)=O)c5N)C4)n3)ccc2CC1C(=O)NC1CCCc2ccccc21)C(C)(C)C

> <Shape>
0.212

> <Color>
0.079

> <Negative vol penalty>
0.000

$$$$

  -OEChem-04052318093D

 94102  0     1  0  0  0  0  0999 V2000
  -27.3075  -34.3444   25.4823 C   0  0  0  0  0  0  0  0  0  0  0  0
  -27.6383  -33.1353   24.8788 C   0  0  0  0  0  0  0  0  0  0  0  0
  -25.4440  -14.2245   22.3286 C   0  0  0  0  0  0  0  0  0  0  0  0
  -25.3869  -13.5783   20.0013 C   0  0  0  0  0  0  0  0  0  0  0  0
  -26.0047  -34.5672   25.9261 C   0  0  0  0  0  0  0  0  0  0  0  0
  -26.6666  -32.1479   24.7198 C   0  0  0  0  0  0  0  0  0  0  0  0
  -26.7691  -30.0451   20.1141 C   0  0  0  0  0  0  0  0  0  0  0  0
  -24.5402  -13.2068   22.6334 C   0  0  0  0  0  0  0  0  0  0  0  0
  -24.4830  -12.5605   20.3061 C   0  0  0  0  0  0  0  0  0  0  0  0
  -27.7618  -29.0975   19.8687 C   0  0  0  0  0  0  0  0  0  0  0  0
  -24.5872   -9.4527   21.6292 C   0  0  0  0  0  0  0  0  0  0  0  0
  -24.8133   -8.1969   21.0658 C   0  0  0  0  0  0  0  0  0  0  0  0
  -26.1588  -27.3323   20.2339 C   0  0  0  0  0  0  0  0  0  0  0  0
  -28.4240  -24.5016   25.4997 C   0  0  0  0  0  0  0  0  0  0  0  0
  -29.2995  -22.8404   23.9968 C   0  0  0  0  0  0  0  0  0  0  0  0
  -22.6662   -8.3049   19.9633 C   0  0  0  0  0  0  0  0  0  0  0  0
  -25.8674  -14.4103   21.0125 C   0  0  0  0  0  0  0  0  0  0  0  0
  -28.2058  -15.3762   20.6859 C   0  0  0  0  0  0  0  0  0  0  0  0
  -25.0143  -33.5858   25.7638 C   0  0  0  0  0  0  0  0  0  0  0  0
  -25.4640  -29.6427   20.4324 C   0  0  0  0  0  0  0  0  0  0  0  0
  -25.3497  -32.3573   25.1631 C   0  0  0  0  0  0  0  0  0  0  0  0
  -25.1506  -28.2768   20.4803 C   0  0  0  0  0  0  0  0  0  0  0  0
  -29.4450  -23.6332   25.1298 C   0  0  0  0  0  0  0  0  0  0  0  0
  -24.0596  -12.3748   21.6222 C   0  0  0  0  0  0  0  0  0  0  0  0
  -27.4575  -27.7409   19.9314 C   0  0  0  0  0  0  0  0  0  0  0  0
  -23.4005  -10.1345   21.3598 C   0  0  0  0  0  0  0  0  0  0  0  0
  -23.8529   -7.6230   20.2328 C   0  0  0  0  0  0  0  0  0  0  0  0
  -22.4401   -9.5606   20.5268 C   0  0  0  0  0  0  0  0  0  0  0  0
  -26.8006  -15.4617   20.6969 C   0  0  0  0  0  0  0  0  0  0  0  0
  -27.2867  -24.5395   24.7092 C   0  0  0  0  0  0  0  0  0  0  0  0
  -28.1229  -22.9526   23.2737 C   0  0  0  0  0  0  0  0  0  0  0  0
  -28.6235  -16.6340   20.3255 C   0  0  0  0  0  0  0  0  0  0  0  0
  -29.0572  -14.2595   20.9755 C   0  0  0  0  0  0  0  0  0  0  0  0
  -23.5548  -30.0073   22.9475 C   0  0  0  0  0  0  0  0  0  0  0  0
  -21.3754  -28.5893   21.0080 C   0  0  0  0  0  0  0  0  0  0  0  0
  -20.7642  -26.5661   18.3285 C   0  0  0  0  0  0  0  0  0  0  0  0
  -26.8165  -22.1741   21.3033 C   0  0  0  0  0  0  0  0  0  0  0  0
  -23.6312  -33.8541   26.3022 C   0  0  0  0  0  0  0  0  0  0  0  0
  -24.3982  -30.6775   20.6682 C   0  0  0  0  0  0  0  0  0  0  0  0
  -23.7602  -27.7929   20.7979 C   0  0  0  0  0  0  0  0  0  0  0  0
  -22.5702  -32.9010   25.7580 C   0  0  0  0  0  0  0  0  0  0  0  0
  -26.5569  -20.4855   18.0335 C   0  0  0  0  0  0  0  0  0  0  0  0
  -23.0665  -31.4598   25.8170 C   0  0  0  0  0  0  0  0  0  0  0  0
  -26.6590  -19.0071   18.4047 C   0  0  0  0  0  0  0  0  0  0  0  0
  -25.9338  -21.3100   19.1560 C   0  0  0  0  0  0  0  0  0  0  0  0
  -26.7275  -19.6778   20.8400 C   0  0  0  0  0  0  0  0  0  0  0  0
  -24.3175  -31.2712   24.9504 C   0  0  1  0  0  0  0  0  0  0  0  0
  -23.2249  -30.1506   21.4887 C   0  0  1  0  0  0  0  0  0  0  0  0
  -27.3908  -18.8275   19.7460 C   0  0  1  0  0  0  0  0  0  0  0  0
  -18.8819  -25.5616   17.0074 C   0  0  0  0  0  0  0  0  0  0  0  0
  -20.8958  -26.5621   23.2375 C   0  0  0  0  0  0  0  0  0  0  0  0
  -19.7678  -25.0868   21.5584 C   0  0  0  0  0  0  0  0  0  0  0  0
  -18.8248  -27.3387   22.0704 C   0  0  0  0  0  0  0  0  0  0  0  0
  -31.4238  -25.9868   25.6838 C   0  0  0  0  0  0  0  0  0  0  0  0
  -33.0111  -24.3055   26.5959 C   0  0  0  0  0  0  0  0  0  0  0  0
  -29.1607  -21.4087   21.6016 C   0  0  0  0  0  0  0  0  0  0  0  0
  -21.6184  -27.9375   15.8488 C   0  0  0  0  0  0  0  0  0  0  0  0
  -33.0800  -24.0796   19.9905 C   0  0  0  0  0  0  0  0  0  0  0  0
  -30.7084  -23.5510   25.9565 C   0  0  0  0  0  0  0  0  0  0  0  0
  -33.2653  -25.4169   23.5441 C   0  0  0  0  0  0  0  0  0  0  0  0
  -32.4042  -24.2858   24.1261 C   0  0  0  0  0  0  0  0  0  0  0  0
  -30.5318  -25.9078   20.3948 C   0  0  0  0  0  0  0  0  0  0  0  0
  -33.7873  -25.1119   22.1433 C   0  0  0  0  0  0  0  0  0  0  0  0
  -31.9774  -26.1630   20.7941 C   0  0  0  0  0  0  0  0  0  0  0  0
  -29.7647  -27.1723   20.0283 C   0  0  0  0  0  0  0  0  0  1  0  0
  -20.9601  -27.1652   20.7279 C   0  0  1  0  0  0  0  0  0  0  0  0
  -19.8464  -26.7309   17.1305 C   0  0  2  0  0  0  0  0  0  0  0  0
  -26.1702  -25.4593   25.0764 C   0  0  0  0  0  0  0  0  0  0  0  0
  -20.1389  -26.5470   21.8944 C   0  0  0  0  0  0  0  0  0  0  0  0
  -31.8735  -24.5132   25.5715 C   0  0  0  0  0  0  0  0  0  0  0  0
  -26.3555  -16.6777   20.3696 N   0  0  0  0  0  0  0  0  0  0  0  0
  -27.1092  -23.7848   23.6018 N   0  0  0  0  0  0  0  0  0  0  0  0
  -27.4875  -17.3679   20.1497 N   0  0  0  0  0  0  0  0  0  0  0  0
  -22.7542  -28.8432   21.0269 N   0  0  0  0  0  0  0  0  0  0  0  0
  -26.6195  -21.0862   20.4292 N   0  0  0  0  0  0  0  0  0  0  0  0
  -29.8481  -17.1727   20.1451 N   0  0  0  0  0  0  0  0  0  0  0  0
  -28.4632  -13.0404   21.3294 N   0  0  0  0  0  0  0  0  0  0  0  0
  -23.9552  -31.1836   23.5520 N   0  0  0  0  0  0  0  0  0  0  0  0
  -20.2575  -27.1889   19.4495 N   0  0  0  0  0  0  0  0  0  0  0  0
  -27.9815  -22.1248   22.0991 N   0  0  0  0  0  0  0  0  0  0  0  0
  -20.6442  -26.8162   15.8747 N   0  3  0  0  0  0  0  0  0  0  0  0
  -32.6429  -24.8972   21.1821 N   0  3  1  0  0  0  0  0  0  0  0  0
  -30.3082  -14.3449   20.9380 O   0  0  0  0  0  0  0  0  0  0  0  0
  -23.4523  -28.9109   23.4853 O   0  0  0  0  0  0  0  0  0  0  0  0
  -20.5083  -29.4463   21.1959 O   0  0  0  0  0  0  0  0  0  0  0  0
  -21.8227  -25.9438   18.2760 O   0  0  0  0  0  0  0  0  0  0  0  0
  -26.0294  -23.1271   21.3465 O   0  0  0  0  0  0  0  0  0  0  0  0
  -23.1778  -11.3815   21.9193 O   0  0  0  0  0  0  0  0  0  0  0  0
  -28.4248  -26.8139   19.6930 O   0  0  0  0  0  0  0  0  0  1  0  0
  -24.0709   -6.4177   19.6906 F   0  0  0  0  0  0  0  0  0  0  0  0
  -21.2986  -10.2114   20.2633 F   0  0  0  0  0  0  0  0  0  0  0  0
  -26.4131  -26.1909   26.2036 F   0  0  0  0  0  0  0  0  0  0  0  0
  -25.8803  -26.3790   24.1096 F   0  0  0  0  0  0  0  0  0  0  0  0
  -25.0016  -24.7961   25.3142 F   0  0  0  0  0  0  0  0  0  0  0  0
  1  2  1  0  0  0  0
  1  5  2  0  0  0  0
  2  6  2  0  0  0  0
  3  8  2  0  0  0  0
  3 17  1  0  0  0  0
  4  9  1  0  0  0  0
  4 17  2  0  0  0  0
  5 19  1  0  0  0  0
  6 21  1  0  0  0  0
  7 10  2  0  0  0  0
  7 20  1  0  0  0  0
  8 24  1  0  0  0  0
  9 24  2  0  0  0  0
 10 25  1  0  0  0  0
 11 12  2  0  0  0  0
 11 26  1  0  0  0  0
 12 27  1  0  0  0  0
 13 22  1  0  0  0  0
 13 25  2  0  0  0  0
 14 23  2  0  0  0  0
 14 30  1  0  0  0  0
 15 23  1  0  0  0  0
 15 31  2  0  0  0  0
 16 27  2  0  0  0  0
 16 28  1  0  0  0  0
 17 29  1  0  0  0  0
 18 29  1  0  0  0  0
 18 32  2  0  0  0  0
 18 33  1  0  0  0  0
 19 21  2  0  0  0  0
 19 38  1  0  0  0  0
 20 22  2  0  0  0  0
 20 39  1  0  0  0  0
 21 47  1  0  0  0  0
 22 40  1  0  0  0  0
 23 59  1  0  0  0  0
 24 88  1  0  0  0  0
 25 89  1  0  0  0  0
 26 28  2  0  0  0  0
 26 88  1  0  0  0  0
 27 90  1  0  0  0  0
 28 91  1  0  0  0  0
 29 71  2  0  0  0  0
 30 68  1  0  0  0  0
 30 72  2  0  0  0  0
 31 72  1  0  0  0  0
 31 80  1  0  0  0  0
 32 73  1  0  0  0  0
 32 76  1  0  0  0  0
 33 77  1  0  0  0  0
 33 83  2  0  0  0  0
 34 48  1  0  0  0  0
 34 78  1  0  0  0  0
 34 84  2  0  0  0  0
 35 66  1  0  0  0  0
 35 74  1  0  0  0  0
 35 85  2  0  0  0  0
 36 67  1  0  0  0  0
 36 79  1  0  0  0  0
 36 86  2  0  0  0  0
 37 75  1  0  0  0  0
 37 80  1  0  0  0  0
 37 87  2  0  0  0  0
 38 41  1  0  0  0  0
 39 48  1  0  0  0  0
 40 74  1  0  0  0  0
 41 43  1  0  0  0  0
 42 44  1  0  0  0  0
 42 45  1  0  0  0  0
 43 47  1  0  0  0  0
 44 49  1  0  0  0  0
 45 75  1  0  0  0  0
 46 49  1  0  0  0  0
 46 75  1  0  0  0  0
 47 78  1  0  0  0  0
 48 74  1  0  0  0  0
 49 73  1  0  0  0  0
 50 67  1  0  0  0  0
 51 69  1  0  0  0  0
 52 69  1  0  0  0  0
 53 69  1  0  0  0  0
 54 70  1  0  0  0  0
 55 70  1  0  0  0  0
 56 80  1  0  0  0  0
 57 81  1  0  0  0  0
 58 82  1  0  0  0  0
 59 70  1  0  0  0  0
 60 61  1  0  0  0  0
 60 63  1  0  0  0  0
 61 70  1  0  0  0  0
 62 64  1  0  0  0  0
 62 65  1  0  0  0  0
 63 82  1  0  0  0  0
 64 82  1  0  0  0  0
 65 89  1  0  0  0  0
 66 69  1  0  0  0  0
 66 79  1  0  0  0  0
 67 81  1  0  0  0  0
 68 92  1  0  0  0  0
 68 93  1  0  0  0  0
 68 94  1  0  0  0  0
 71 73  1  0  0  0  0
M  CHG  2  81   1  82   1
M  ISO  4  37 100  65 101  80 100  89 101
M  END
> <Batch ID>
0066

> <Smiles>
CNC(C)C(=O)NC(C(=O)N1Cc2cc([101O:1][101CH2:1]CCN(C)CCCC(C)(C)Cc3cc([100N:0](C)[100C:0](=O)N4CCCC(n5nc(-c6ccc(Oc7ccc(F)cc7F)cc6)c(C(N)=O)c5N)C4)nc(C(F)(F)F)c3)ccc2CC1C(=O)NC1CCCc2ccccc21)C(C)(C)C

> <Shape>
0.271

> <Color>
0.083

> <Negative vol penalty>
0.000

$$$$

  -OEChem-04052318093D

 83 91  0     1  0  0  0  0  0999 V2000
  -20.7281  -25.3087   25.5015 C   0  0  0  0  0  0  0  0  0  0  0  0
  -21.7747  -25.2292   24.5884 C   0  0  0  0  0  0  0  0  0  0  0  0
  -26.1792  -13.9096   21.8171 C   0  0  0  0  0  0  0  0  0  0  0  0
  -25.9093  -14.7198   19.5570 C   0  0  0  0  0  0  0  0  0  0  0  0
  -19.6254  -26.1167   25.2277 C   0  0  0  0  0  0  0  0  0  0  0  0
  -21.7185  -25.9570   23.4002 C   0  0  0  0  0  0  0  0  0  0  0  0
  -26.0882  -28.2867   22.3406 C   0  0  0  0  0  0  0  0  0  0  0  0
  -25.7617  -12.6417   21.4124 C   0  0  0  0  0  0  0  0  0  0  0  0
  -25.4918  -13.4519   19.1524 C   0  0  0  0  0  0  0  0  0  0  0  0
  -27.1124  -27.5065   21.8059 C   0  0  0  0  0  0  0  0  0  0  0  0
  -22.8426  -11.0828   20.7248 C   0  0  0  0  0  0  0  0  0  0  0  0
  -21.9178  -10.4182   21.5301 C   0  0  0  0  0  0  0  0  0  0  0  0
  -26.5714  -28.3188   19.5999 C   0  0  0  0  0  0  0  0  0  0  0  0
  -23.4946   -8.6166   21.8541 C   0  0  0  0  0  0  0  0  0  0  0  0
  -25.7590  -24.2681   19.0475 C   0  0  0  0  0  0  0  0  0  0  0  0
  -26.2530  -14.9487   20.8893 C   0  0  0  0  0  0  0  0  0  0  0  0
  -28.0013  -16.7542   21.3269 C   0  0  0  0  0  0  0  0  0  0  0  0
  -19.5601  -26.8621   24.0400 C   0  0  0  0  0  0  0  0  0  0  0  0
  -25.2895  -29.0819   21.5062 C   0  0  0  0  0  0  0  0  0  0  0  0
  -20.6132  -26.7746   23.1096 C   0  0  0  0  0  0  0  0  0  0  0  0
  -25.5393  -29.1102   20.1268 C   0  0  0  0  0  0  0  0  0  0  0  0
  -26.9394  -23.5616   18.9385 C   0  0  0  0  0  0  0  0  0  0  0  0
  -25.4180  -12.4128   20.0801 C   0  0  0  0  0  0  0  0  0  0  0  0
  -27.3523  -27.5202   20.4350 C   0  0  0  0  0  0  0  0  0  0  0  0
  -24.0934  -10.5143   20.4840 C   0  0  0  0  0  0  0  0  0  0  0  0
  -22.2438   -9.1851   22.0948 C   0  0  0  0  0  0  0  0  0  0  0  0
  -24.4194   -9.2812   21.0487 C   0  0  0  0  0  0  0  0  0  0  0  0
  -26.6837  -16.2588   21.3068 C   0  0  0  0  0  0  0  0  0  0  0  0
  -26.8739  -22.2307   19.2971 C   0  0  0  0  0  0  0  0  0  0  0  0
  -27.8784  -18.0375   21.8007 C   0  0  0  0  0  0  0  0  0  0  0  0
  -24.6636  -22.4209   19.7923 C   0  0  0  0  0  0  0  0  0  0  0  0
  -29.2267  -16.1118   20.9507 C   0  0  0  0  0  0  0  0  0  0  0  0
  -22.1945  -29.1747   20.7876 C   0  0  0  0  0  0  0  0  0  0  0  0
  -23.0502  -31.8505   19.1657 C   0  0  0  0  0  0  0  0  0  0  0  0
  -23.2792  -21.9050   21.7644 C   0  0  0  0  0  0  0  0  0  0  0  0
  -25.5064  -33.6270   17.5979 C   0  0  0  0  0  0  0  0  0  0  0  0
  -18.3260  -27.6848   23.7662 C   0  0  0  0  0  0  0  0  0  0  0  0
  -24.2059  -29.9383   22.1019 C   0  0  0  0  0  0  0  0  0  0  0  0
  -24.7234  -29.9623   19.1905 C   0  0  0  0  0  0  0  0  0  0  0  0
  -18.5148  -28.7151   22.6557 C   0  0  0  0  0  0  0  0  0  0  0  0
  -25.1294  -20.7534   24.6087 C   0  0  0  0  0  0  0  0  0  0  0  0
  -19.2035  -28.0814   21.4511 C   0  0  0  0  0  0  0  0  0  0  0  0
  -25.8350  -19.4993   24.0943 C   0  0  0  0  0  0  0  0  0  0  0  0
  -23.7485  -20.9145   23.9809 C   0  0  0  0  0  0  0  0  0  0  0  0
  -24.4619  -19.6622   21.9698 C   0  0  0  0  0  0  0  0  0  0  0  0
  -20.6003  -27.5681   21.8211 C   0  0  1  0  0  0  0  0  0  0  0  0
  -23.1221  -30.3156   21.0966 C   0  0  1  0  0  0  0  0  0  0  0  0
  -25.8730  -19.4782   22.5559 C   0  0  2  0  0  0  0  0  0  0  0  0
  -28.0898  -21.3675   19.2193 C   0  0  0  0  0  0  0  0  0  0  0  0
  -25.8943  -35.7609   16.3356 C   0  0  0  0  0  0  0  0  0  0  0  0
  -21.7162  -30.6347   16.7055 C   0  0  0  0  0  0  0  0  0  0  0  0
  -22.9349  -32.3119   15.3019 C   0  0  0  0  0  0  0  0  0  0  0  0
  -21.2961  -33.0801   17.0187 C   0  0  0  0  0  0  0  0  0  0  0  0
  -27.4493  -34.5988   19.6078 C   0  0  0  0  0  0  0  0  0  0  0  0
  -28.2048  -24.2251   18.4566 C   0  0  0  0  0  0  0  0  0  0  0  0
  -29.1998  -24.5401   19.5756 C   0  0  0  0  0  0  0  0  0  0  0  0
  -28.6685  -25.5455   20.5907 C   0  0  0  0  0  0  0  0  0  1  0  0
  -23.5240  -32.1447   17.7628 C   0  0  1  0  0  0  0  0  0  0  0  0
  -25.9148  -35.0857   17.6981 C   0  0  2  0  0  0  0  0  0  0  0  0
  -23.3994  -21.7870   20.2659 C   0  0  0  0  0  0  0  0  0  0  0  0
  -22.3821  -32.0252   16.7144 C   0  0  0  0  0  0  0  0  0  0  0  0
  -24.5983  -23.7273   19.4724 N   0  0  0  0  0  0  0  0  0  0  0  0
  -25.7896  -17.1543   21.7341 N   0  0  0  0  0  0  0  0  0  0  0  0
  -25.7485  -21.6255   19.7300 N   0  0  0  0  0  0  0  0  0  0  0  0
  -26.5466  -18.2253   22.0271 N   0  0  0  0  0  0  0  0  0  0  0  0
  -23.6713  -30.7773   19.8201 N   0  0  0  0  0  0  0  0  0  0  0  0
  -23.8245  -20.8666   22.5197 N   0  0  0  0  0  0  0  0  0  0  0  0
  -28.7807  -19.0123   22.0416 N   0  0  0  0  0  0  0  0  0  0  0  0
  -29.1730  -14.7912   20.4845 N   0  0  0  0  0  0  0  0  0  0  0  0
  -21.5397  -28.6667   21.8933 N   0  0  0  0  0  0  0  0  0  0  0  0
  -24.1546  -33.4593   17.8123 N   0  0  0  0  0  0  0  0  0  0  0  0
  -27.2907  -35.2010   18.2590 N   0  3  0  0  0  0  0  0  0  0  0  0
  -30.3381  -16.6862   21.0414 O   0  0  0  0  0  0  0  0  0  0  0  0
  -22.0802  -28.7852   19.6313 O   0  0  0  0  0  0  0  0  0  0  0  0
  -22.1667  -32.5516   19.6651 O   0  0  0  0  0  0  0  0  0  0  0  0
  -22.7196  -22.8928   22.2475 O   0  0  0  0  0  0  0  0  0  0  0  0
  -26.3058  -32.7269   17.3504 O   0  0  0  0  0  0  0  0  0  0  0  0
  -25.0107  -11.1757   19.6849 O   0  0  0  0  0  0  0  0  0  0  0  0
  -28.3510  -26.7591   19.9104 O   0  0  0  0  0  0  0  0  0  1  0  0
  -21.3562   -8.5477   22.8695 F   0  0  0  0  0  0  0  0  0  0  0  0
  -25.6199   -8.7306   20.8220 F   0  0  0  0  0  0  0  0  0  0  0  0
  -22.2829  -22.3450   19.6943 F   0  0  0  0  0  0  0  0  0  0  0  0
  -23.3152  -20.4596   19.9257 F   0  0  0  0  0  0  0  0  0  0  0  0
  1  2  1  0  0  0  0
  1  5  2  0  0  0  0
  2  6  2  0  0  0  0
  3  8  2  0  0  0  0
  3 16  1  0  0  0  0
  4  9  1  0  0  0  0
  4 16  2  0  0  0  0
  5 18  1  0  0  0  0
  6 20  1  0  0  0  0
  7 10  2  0  0  0  0
  7 19  1  0  0  0  0
  8 23  1  0  0  0  0
  9 23  2  0  0  0  0
 10 24  1  0  0  0  0
 11 12  2  0  0  0  0
 11 25  1  0  0  0  0
 12 26  1  0  0  0  0
 13 21  1  0  0  0  0
 13 24  2  0  0  0  0
 14 26  2  0  0  0  0
 14 27  1  0  0  0  0
 15 22  1  0  0  0  0
 15 62  2  0  0  0  0
 16 28  1  0  0  0  0
 17 28  1  0  0  0  0
 17 30  2  0  0  0  0
 17 32  1  0  0  0  0
 18 20  2  0  0  0  0
 18 37  1  0  0  0  0
 19 21  2  0  0  0  0
 19 38  1  0  0  0  0
 20 46  1  0  0  0  0
 21 39  1  0  0  0  0
 22 29  2  0  0  0  0
 22 55  1  0  0  0  0
 23 78  1  0  0  0  0
 24 79  1  0  0  0  0
 25 27  2  0  0  0  0
 25 78  1  0  0  0  0
 26 80  1  0  0  0  0
 27 81  1  0  0  0  0
 28 63  2  0  0  0  0
 29 49  1  0  0  0  0
 29 64  1  0  0  0  0
 30 65  1  0  0  0  0
 30 68  1  0  0  0  0
 31 60  1  0  0  0  0
 31 62  1  0  0  0  0
 31 64  2  0  0  0  0
 32 69  1  0  0  0  0
 32 73  2  0  0  0  0
 33 47  1  0  0  0  0
 33 70  1  0  0  0  0
 33 74  2  0  0  0  0
 34 58  1  0  0  0  0
 34 66  1  0  0  0  0
 34 75  2  0  0  0  0
 35 60  1  0  0  0  0
 35 67  1  0  0  0  0
 35 76  2  0  0  0  0
 36 59  1  0  0  0  0
 36 71  1  0  0  0  0
 36 77  2  0  0  0  0
 37 40  1  0  0  0  0
 38 47  1  0  0  0  0
 39 66  1  0  0  0  0
 40 42  1  0  0  0  0
 41 43  1  0  0  0  0
 41 44  1  0  0  0  0
 42 46  1  0  0  0  0
 43 48  1  0  0  0  0
 44 67  1  0  0  0  0
 45 48  1  0  0  0  0
 45 67  1  0  0  0  0
 46 70  1  0  0  0  0
 47 66  1  0  0  0  0
 48 65  1  0  0  0  0
 50 59  1  0  0  0  0
 51 61  1  0  0  0  0
 52 61  1  0  0  0  0
 53 61  1  0  0  0  0
 54 72  1  0  0  0  0
 55 56  1  0  0  0  0
 56 57  1  0  0  0  0
 57 79  1  0  0  0  0
 58 61  1  0  0  0  0
 58 71  1  0  0  0  0
 59 72  1  0  0  0  0
 60 82  1  0  0  0  0
 60 83  1  0  0  0  0
 63 65  1  0  0  0  0
M  CHG  1  72   1
M  ISO  4  35 100  57 101  60 100  79 101
M  END
> <Batch ID>
0066

> <Smiles>
CNC(C)C(=O)NC(C(=O)N1Cc2cc([101O:1][101CH2:1]CCc3cnc([100C:0](F)(F)[100C:0](=O)N4CCCC(n5nc(-c6ccc(Oc7ccc(F)cc7F)cc6)c(C(N)=O)c5N)C4)nc3C)ccc2CC1C(=O)NC1CCCc2ccccc21)C(C)(C)C

> <Shape>
0.199

> <Color>
0.096

> <Negative vol penalty>
0.000

$$$$

  -OEChem-04052318093D

 90 98  0     1  0  0  0  0  0999 V2000
  -26.1719  -35.2531   24.8726 C   0  0  0  0  0  0  0  0  0  0  0  0
  -26.7305  -34.0692   24.4016 C   0  0  0  0  0  0  0  0  0  0  0  0
  -23.6057  -12.0921   19.1349 C   0  0  0  0  0  0  0  0  0  0  0  0
  -25.0267  -11.4590   20.9834 C   0  0  0  0  0  0  0  0  0  0  0  0
  -24.8369  -35.2815   25.2736 C   0  0  0  0  0  0  0  0  0  0  0  0
  -25.9546  -32.9127   24.3323 C   0  0  0  0  0  0  0  0  0  0  0  0
  -26.5734  -30.4165   19.9699 C   0  0  0  0  0  0  0  0  0  0  0  0
  -23.5880  -10.7686   18.6951 C   0  0  0  0  0  0  0  0  0  0  0  0
  -25.0089  -10.1354   20.5437 C   0  0  0  0  0  0  0  0  0  0  0  0
  -27.7255  -29.6428   19.8369 C   0  0  0  0  0  0  0  0  0  0  0  0
  -25.0434   -6.5255   20.1127 C   0  0  0  0  0  0  0  0  0  0  0  0
  -24.8438   -5.5272   21.0662 C   0  0  0  0  0  0  0  0  0  0  0  0
  -26.4497  -27.6636   20.3607 C   0  0  0  0  0  0  0  0  0  0  0  0
  -22.7033   -6.4947   21.6311 C   0  0  0  0  0  0  0  0  0  0  0  0
  -30.7702  -22.9627   21.8908 C   0  0  0  0  0  0  0  0  0  0  0  0
  -24.3251  -12.4374   20.2790 C   0  0  0  0  0  0  0  0  0  0  0  0
  -23.4481  -14.4146   21.6315 C   0  0  0  0  0  0  0  0  0  0  0  0
  -24.0415  -34.1271   25.2001 C   0  0  0  0  0  0  0  0  0  0  0  0
  -25.3508  -29.8200   20.3105 C   0  0  0  0  0  0  0  0  0  0  0  0
  -24.6080  -32.9253   24.7340 C   0  0  0  0  0  0  0  0  0  0  0  0
  -25.2829  -28.4316   20.4949 C   0  0  0  0  0  0  0  0  0  0  0  0
  -24.2896   -9.7902   19.3995 C   0  0  0  0  0  0  0  0  0  0  0  0
  -27.6644  -28.2665   20.0351 C   0  0  0  0  0  0  0  0  0  0  0  0
  -24.0730   -7.5085   19.9184 C   0  0  0  0  0  0  0  0  0  0  0  0
  -23.6738   -5.5118   21.8254 C   0  0  0  0  0  0  0  0  0  0  0  0
  -22.9029   -7.4931   20.6776 C   0  0  0  0  0  0  0  0  0  0  0  0
  -24.3443  -13.8046   20.7334 C   0  0  0  0  0  0  0  0  0  0  0  0
  -30.0371  -21.8315   22.1859 C   0  0  0  0  0  0  0  0  0  0  0  0
  -30.0356  -24.0703   21.5198 C   0  0  0  0  0  0  0  0  0  0  0  0
  -23.8932  -15.7099   21.7341 C   0  0  0  0  0  0  0  0  0  0  0  0
  -28.0890  -22.9197   21.7523 C   0  0  0  0  0  0  0  0  0  0  0  0
  -22.3146  -13.8599   22.3121 C   0  0  0  0  0  0  0  0  0  0  0  0
  -23.3287  -30.0836   22.7488 C   0  0  0  0  0  0  0  0  0  0  0  0
  -21.4973  -28.1125   20.9369 C   0  0  0  0  0  0  0  0  0  0  0  0
  -21.3391  -25.7571   18.4724 C   0  0  0  0  0  0  0  0  0  0  0  0
  -29.2371  -18.1040   20.9817 C   0  0  0  0  0  0  0  0  0  0  0  0
  -22.6165  -34.1950   25.6894 C   0  0  0  0  0  0  0  0  0  0  0  0
  -24.1117  -30.6650   20.4239 C   0  0  0  0  0  0  0  0  0  0  0  0
  -23.9908  -27.7400   20.8421 C   0  0  0  0  0  0  0  0  0  0  0  0
  -21.7588  -33.0178   25.2322 C   0  0  0  0  0  0  0  0  0  0  0  0
  -26.2126  -19.0804   19.2507 C   0  0  0  0  0  0  0  0  0  0  0  0
  -22.5004  -31.7021   25.4463 C   0  0  0  0  0  0  0  0  0  0  0  0
  -25.3034  -17.8817   19.5273 C   0  0  0  0  0  0  0  0  0  0  0  0
  -27.6567  -18.6397   19.0303 C   0  0  0  0  0  0  0  0  0  0  0  0
  -27.3235  -16.6323   20.4207 C   0  0  0  0  0  0  0  0  0  0  0  0
  -23.7917  -31.6561   24.6206 C   0  0  1  0  0  0  0  0  0  0  0  0
  -23.0249  -30.0201   21.2786 C   0  0  1  0  0  0  0  0  0  0  0  0
  -25.8537  -17.0138   20.6745 C   0  0  2  0  0  0  0  0  0  0  0  0
  -26.0764  -23.1622   20.2542 C   0  0  0  0  0  0  0  0  0  0  0  0
  -25.9463  -23.8826   22.6665 C   0  0  0  0  0  0  0  0  0  0  0  0
  -19.7072  -24.3052   17.2369 C   0  0  0  0  0  0  0  0  0  0  0  0
  -21.3141  -26.2633   23.3569 C   0  0  0  0  0  0  0  0  0  0  0  0
  -20.5188  -24.4505   21.8241 C   0  0  0  0  0  0  0  0  0  0  0  0
  -19.1761  -26.5362   22.0884 C   0  0  0  0  0  0  0  0  0  0  0  0
  -32.1425  -24.4619   19.2553 C   0  0  0  0  0  0  0  0  0  0  0  0
  -31.9741  -26.9235   19.5746 C   0  0  0  0  0  0  0  0  0  0  0  0
  -30.1032  -26.5655   17.4943 C   0  0  0  0  0  0  0  0  0  0  0  0
  -29.5444  -24.2331   18.1529 C   0  0  0  0  0  0  0  0  0  0  0  0
  -22.0149  -27.0068   15.8762 C   0  0  0  0  0  0  0  0  0  0  0  0
  -30.7441  -20.5838   22.5978 C   0  0  0  0  0  0  0  0  0  0  0  0
  -30.7520  -25.3610   21.1783 C   0  0  0  0  0  0  0  0  0  0  0  0
  -31.1107  -19.6699   21.4226 C   0  0  0  0  0  0  0  0  0  0  0  0
  -28.6158  -26.1616   19.4695 C   0  0  0  0  0  0  0  0  0  1  0  0
  -26.5997  -22.8975   21.6787 C   0  0  0  0  0  0  0  0  0  0  0  0
  -21.3498  -26.6164   20.7996 C   0  0  1  0  0  0  0  0  0  0  0  0
  -20.4450  -25.6349   17.2517 C   0  0  2  0  0  0  0  0  0  0  0  0
  -20.6146  -25.9796   22.0126 C   0  0  0  0  0  0  0  0  0  0  0  0
  -31.1774  -25.5981   19.6814 C   0  0  0  0  0  0  0  0  0  0  0  0
  -29.8787  -25.6391   18.7181 C   0  0  0  0  0  0  0  0  0  0  0  0
  -25.2873  -14.6435   20.2965 N   0  0  0  0  0  0  0  0  0  0  0  0
  -28.6904  -21.7745   22.1269 N   0  0  0  0  0  0  0  0  0  0  0  0
  -28.6888  -24.0842   21.4395 N   0  0  0  0  0  0  0  0  0  0  0  0
  -24.9861  -15.7939   20.9226 N   0  0  0  0  0  0  0  0  0  0  0  0
  -22.8080  -28.6102   20.9479 N   0  0  0  0  0  0  0  0  0  0  0  0
  -28.1257  -17.8335   20.1662 N   0  0  0  0  0  0  0  0  0  0  0  0
  -23.4523  -16.7739   22.4383 N   0  0  0  0  0  0  0  0  0  0  0  0
  -21.9976  -12.5123   22.0934 N   0  0  0  0  0  0  0  0  0  0  0  0
  -23.4951  -31.3667   23.2340 N   0  0  0  0  0  0  0  0  0  0  0  0
  -20.6949  -26.3868   19.5163 N   0  0  0  0  0  0  0  0  0  0  0  0
  -29.9473  -19.2568   20.6698 N   0  0  0  0  0  0  0  0  0  0  0  0
  -21.2543  -25.7371   16.0045 N   0  3  0  0  0  0  0  0  0  0  0  0
  -21.5943  -14.5434   23.0786 O   0  0  0  0  0  0  0  0  0  0  0  0
  -23.4049  -29.0454   23.3954 O   0  0  0  0  0  0  0  0  0  0  0  0
  -20.4866  -28.8144   21.0237 O   0  0  0  0  0  0  0  0  0  0  0  0
  -22.4922  -25.3327   18.4986 O   0  0  0  0  0  0  0  0  0  0  0  0
  -29.5691  -17.3745   21.9223 O   0  0  0  0  0  0  0  0  0  0  0  0
  -24.2723   -8.4985   18.9709 O   0  0  0  0  0  0  0  0  0  0  0  0
  -28.7876  -27.5091   19.9066 O   0  0  0  0  0  0  0  0  0  1  0  0
  -23.4815   -4.5522   22.7399 F   0  0  0  0  0  0  0  0  0  0  0  0
  -21.9665   -8.4340   20.4946 F   0  0  0  0  0  0  0  0  0  0  0  0
  1  2  1  0  0  0  0
  1  5  2  0  0  0  0
  2  6  2  0  0  0  0
  3  8  2  0  0  0  0
  3 16  1  0  0  0  0
  4  9  1  0  0  0  0
  4 16  2  0  0  0  0
  5 18  1  0  0  0  0
  6 20  1  0  0  0  0
  7 10  2  0  0  0  0
  7 19  1  0  0  0  0
  8 22  1  0  0  0  0
  9 22  2  0  0  0  0
 10 23  1  0  0  0  0
 11 12  2  0  0  0  0
 11 24  1  0  0  0  0
 12 25  1  0  0  0  0
 13 21  1  0  0  0  0
 13 23  2  0  0  0  0
 14 25  2  0  0  0  0
 14 26  1  0  0  0  0
 15 28  2  0  0  0  0
 15 29  1  0  0  0  0
 16 27  1  0  0  0  0
 17 27  1  0  0  0  0
 17 30  2  0  0  0  0
 17 32  1  0  0  0  0
 18 20  2  0  0  0  0
 18 37  1  0  0  0  0
 19 21  2  0  0  0  0
 19 38  1  0  0  0  0
 20 46  1  0  0  0  0
 21 39  1  0  0  0  0
 22 87  1  0  0  0  0
 23 88  1  0  0  0  0
 24 26  2  0  0  0  0
 24 87  1  0  0  0  0
 25 89  1  0  0  0  0
 26 90  1  0  0  0  0
 27 70  2  0  0  0  0
 28 60  1  0  0  0  0
 28 71  1  0  0  0  0
 29 61  1  0  0  0  0
 29 72  2  0  0  0  0
 30 73  1  0  0  0  0
 30 76  1  0  0  0  0
 31 64  1  0  0  0  0
 31 71  2  0  0  0  0
 31 72  1  0  0  0  0
 32 77  1  0  0  0  0
 32 82  2  0  0  0  0
 33 47  1  0  0  0  0
 33 78  1  0  0  0  0
 33 83  2  0  0  0  0
 34 65  1  0  0  0  0
 34 74  1  0  0  0  0
 34 84  2  0  0  0  0
 35 66  1  0  0  0  0
 35 79  1  0  0  0  0
 35 85  2  0  0  0  0
 36 75  1  0  0  0  0
 36 80  1  0  0  0  0
 36 86  2  0  0  0  0
 37 40  1  0  0  0  0
 38 47  1  0  0  0  0
 39 74  1  0  0  0  0
 40 42  1  0  0  0  0
 41 43  1  0  0  0  0
 41 44  1  0  0  0  0
 42 46  1  0  0  0  0
 43 48  1  0  0  0  0
 44 75  1  0  0  0  0
 45 48  1  0  0  0  0
 45 75  1  0  0  0  0
 46 78  1  0  0  0  0
 47 74  1  0  0  0  0
 48 73  1  0  0  0  0
 49 64  1  0  0  0  0
 50 64  1  0  0  0  0
 51 66  1  0  0  0  0
 52 67  1  0  0  0  0
 53 67  1  0  0  0  0
 54 67  1  0  0  0  0
 55 68  1  0  0  0  0
 56 68  1  0  0  0  0
 57 69  1  0  0  0  0
 58 69  1  0  0  0  0
 59 81  1  0  0  0  0
 60 62  1  0  0  0  0
 61 68  1  0  0  0  0
 62 80  1  0  0  0  0
 63 69  1  0  0  0  0
 63 88  1  0  0  0  0
 65 67  1  0  0  0  0
 65 79  1  0  0  0  0
 66 81  1  0  0  0  0
 68 69  1  0  0  0  0
 70 73  1  0  0  0  0
M  CHG  1  81   1
M  ISO  4  36 100  63 101  80 100  88 101
M  END
> <Batch ID>
0066

> <Smiles>
CNC(C)C(=O)NC(C(=O)N1Cc2cc([101O:1][101CH2:1]C(C)(C)C(C)(C)Cc3cc(CC[100NH:0][100C:0](=O)N4CCCC(n5nc(-c6ccc(Oc7ccc(F)cc7F)cc6)c(C(N)=O)c5N)C4)nc(C(C)C)n3)ccc2CC1C(=O)NC1CCCc2ccccc21)C(C)(C)C

> <Shape>
0.289

> <Color>
0.069

> <Negative vol penalty>
0.000

$$$$

  -OEChem-04052318093D

 89 97  0     1  0  0  0  0  0999 V2000
  -21.0633   -8.3904   19.5677 C   0  0  0  0  0  0  0  0  0  0  0  0
  -22.1202   -9.2231   19.2144 C   0  0  0  0  0  0  0  0  0  0  0  0
  -26.6131  -29.5247   21.1733 C   0  0  0  0  0  0  0  0  0  0  0  0
  -24.9277  -27.9098   20.5500 C   0  0  0  0  0  0  0  0  0  0  0  0
  -19.9694   -8.9095   20.2591 C   0  0  0  0  0  0  0  0  0  0  0  0
  -22.0834  -10.5757   19.5513 C   0  0  0  0  0  0  0  0  0  0  0  0
  -26.4814  -12.2272   21.4422 C   0  0  0  0  0  0  0  0  0  0  0  0
  -25.6693  -30.5471   21.0766 C   0  0  0  0  0  0  0  0  0  0  0  0
  -23.9838  -28.9322   20.4533 C   0  0  0  0  0  0  0  0  0  0  0  0
  -27.5067  -12.4886   20.5344 C   0  0  0  0  0  0  0  0  0  0  0  0
  -22.0825  -30.7716   22.5562 C   0  0  0  0  0  0  0  0  0  0  0  0
  -20.8299  -30.5514   23.1289 C   0  0  0  0  0  0  0  0  0  0  0  0
  -26.9980  -14.8439   20.6473 C   0  0  0  0  0  0  0  0  0  0  0  0
  -19.7898  -30.8490   20.9686 C   0  0  0  0  0  0  0  0  0  0  0  0
  -26.2424  -28.2060   20.9099 C   0  0  0  0  0  0  0  0  0  0  0  0
  -27.5284  -26.3844   22.1490 C   0  0  0  0  0  0  0  0  0  0  0  0
  -19.9236  -10.2671   20.6131 C   0  0  0  0  0  0  0  0  0  0  0  0
  -25.6982  -13.2728   21.9519 C   0  0  0  0  0  0  0  0  0  0  0  0
  -20.9873  -11.1137   20.2469 C   0  0  0  0  0  0  0  0  0  0  0  0
  -25.9650  -14.5934   21.5635 C   0  0  0  0  0  0  0  0  0  0  0  0
  -24.3546  -30.2509   20.7167 C   0  0  0  0  0  0  0  0  0  0  0  0
  -27.7633  -13.7968   20.1346 C   0  0  0  0  0  0  0  0  0  0  0  0
  -22.1888  -31.0306   21.1897 C   0  0  0  0  0  0  0  0  0  0  0  0
  -19.6836  -30.5900   22.3351 C   0  0  0  0  0  0  0  0  0  0  0  0
  -21.0425  -31.0692   20.3959 C   0  0  0  0  0  0  0  0  0  0  0  0
  -27.2171  -27.1495   21.0091 C   0  0  0  0  0  0  0  0  0  0  0  0
  -31.0216  -15.8013   20.5736 C   0  0  0  0  0  0  0  0  0  0  0  0
  -30.3014  -15.7982   21.7448 C   0  0  0  0  0  0  0  0  0  0  0  0
  -28.5101  -25.5219   21.7260 C   0  0  0  0  0  0  0  0  0  0  0  0
  -30.1825  -17.7511   20.7307 C   0  0  0  0  0  0  0  0  0  0  0  0
  -26.9793  -26.4475   23.4719 C   0  0  0  0  0  0  0  0  0  0  0  0
  -22.6130  -14.0282   21.8331 C   0  0  0  0  0  0  0  0  0  0  0  0
  -23.5064  -16.3677   23.8949 C   0  0  0  0  0  0  0  0  0  0  0  0
  -25.7625  -18.9228   25.0774 C   0  0  0  0  0  0  0  0  0  0  0  0
  -30.5738  -21.9762   17.9425 C   0  0  0  0  0  0  0  0  0  0  0  0
  -18.6986  -10.7923   21.3189 C   0  0  0  0  0  0  0  0  0  0  0  0
  -24.6134  -12.9770   22.9509 C   0  0  0  0  0  0  0  0  0  0  0  0
  -25.1663  -15.7536   22.0969 C   0  0  0  0  0  0  0  0  0  0  0  0
  -18.9078  -12.1585   21.9669 C   0  0  0  0  0  0  0  0  0  0  0  0
  -31.2044  -25.4450   17.4456 C   0  0  0  0  0  0  0  0  0  0  0  0
  -19.6067  -13.1074   20.9985 C   0  0  0  0  0  0  0  0  0  0  0  0
  -30.2449  -26.1340   18.4175 C   0  0  0  0  0  0  0  0  0  0  0  0
  -30.5836  -24.1912   16.8334 C   0  0  0  0  0  0  0  0  0  0  0  0
  -29.1029  -23.9067   18.7828 C   0  0  0  0  0  0  0  0  0  0  0  0
  -20.9954  -12.5812   20.6162 C   0  0  1  0  0  0  0  0  0  0  0  0
  -23.5445  -14.0638   23.0116 C   0  0  1  0  0  0  0  0  0  0  0  0
  -29.7051  -25.1452   19.4682 C   0  0  2  0  0  0  0  0  0  0  0  0
  -30.0754  -14.7512   22.7575 C   0  0  0  0  0  0  0  0  0  0  0  0
  -26.2957  -20.6103   26.8566 C   0  0  0  0  0  0  0  0  0  0  0  0
  -28.2135  -19.3235   20.3929 C   0  0  0  0  0  0  0  0  0  0  0  0
  -30.1211  -20.1043   21.7236 C   0  0  0  0  0  0  0  0  0  0  0  0
  -22.1941  -18.3664   21.9994 C   0  0  0  0  0  0  0  0  0  0  0  0
  -23.4411  -20.1926   23.1735 C   0  0  0  0  0  0  0  0  0  0  0  0
  -21.7869  -18.8087   24.4270 C   0  0  0  0  0  0  0  0  0  0  0  0
  -30.8421  -14.8242   17.6058 C   0  0  0  0  0  0  0  0  0  0  0  0
  -32.1902  -12.8462   18.2969 C   0  0  0  0  0  0  0  0  0  0  0  0
  -30.0895  -19.0612   17.8770 C   0  0  0  0  0  0  0  0  0  0  0  0
  -32.0083  -19.8111   19.2607 C   0  0  0  0  0  0  0  0  0  0  0  0
  -28.9241  -17.5515   22.8933 C   0  0  0  0  0  0  0  0  0  0  0  0
  -27.6614  -17.0870   26.4126 C   0  0  0  0  0  0  0  0  0  0  0  0
  -31.8264  -14.6780   19.9628 C   0  0  0  0  0  0  0  0  0  0  0  0
  -29.8829  -13.1703   19.2567 C   0  0  0  0  0  0  0  0  0  1  0  0
  -23.9991  -17.7875   23.7523 C   0  0  1  0  0  0  0  0  0  0  0  0
  -26.2302  -19.1318   26.5064 C   0  0  2  0  0  0  0  0  0  0  0  0
  -29.7882  -19.1553   20.4940 C   0  0  0  0  0  0  0  0  0  0  0  0
  -22.8693  -18.7669   23.3263 C   0  0  0  0  0  0  0  0  0  0  0  0
  -31.1665  -13.8937   18.7904 C   0  0  0  0  0  0  0  0  0  0  0  0
  -30.4650  -19.8204   19.1671 C   0  0  0  0  0  0  0  0  0  0  0  0
  -27.9423  -26.8037   19.9421 N   0  0  0  0  0  0  0  0  0  0  0  0
  -30.9438  -17.0200   19.9472 N   0  0  0  0  0  0  0  0  0  0  0  0
  -29.7700  -17.0541   21.8321 N   0  0  0  0  0  0  0  0  0  0  0  0
  -28.7192  -25.8118   20.4097 N   0  0  0  0  0  0  0  0  0  0  0  0
  -24.1122  -15.4125   23.0664 N   0  0  0  0  0  0  0  0  0  0  0  0
  -30.0930  -23.2946   17.8828 N   0  0  0  0  0  0  0  0  0  0  0  0
  -29.2063  -24.5514   22.3552 N   0  0  0  0  0  0  0  0  0  0  0  0
  -25.9779  -27.3920   23.7353 N   0  0  0  0  0  0  0  0  0  0  0  0
  -21.9413  -12.8299   21.6830 N   0  0  0  0  0  0  0  0  0  0  0  0
  -24.6381  -18.1270   25.0192 N   0  0  0  0  0  0  0  0  0  0  0  0
  -30.0621  -21.1953   18.9715 N   0  0  0  0  0  0  0  0  0  0  0  0
  -27.5854  -18.5426   26.6994 N   0  3  0  0  0  0  0  0  0  0  0  0
  -27.3768  -25.6999   24.3974 O   0  0  0  0  0  0  0  0  0  0  0  0
  -22.5100  -15.0152   21.1143 O   0  0  0  0  0  0  0  0  0  0  0  0
  -22.6217  -16.1142   24.7163 O   0  0  0  0  0  0  0  0  0  0  0  0
  -26.3352  -19.4192   24.1098 O   0  0  0  0  0  0  0  0  0  0  0  0
  -31.4022  -21.5299   17.1415 O   0  0  0  0  0  0  0  0  0  0  0  0
  -23.4332  -31.2482   20.6225 O   0  0  0  0  0  0  0  0  0  0  0  0
  -28.7630  -14.0547   19.2481 O   0  0  0  0  0  0  0  0  0  1  0  0
  -18.4809  -30.3770   22.8850 F   0  0  0  0  0  0  0  0  0  0  0  0
  -21.1385  -31.3164   19.0823 F   0  0  0  0  0  0  0  0  0  0  0  0
  1  2  1  0  0  0  0
  1  5  2  0  0  0  0
  2  6  2  0  0  0  0
  3  8  2  0  0  0  0
  3 15  1  0  0  0  0
  4  9  1  0  0  0  0
  4 15  2  0  0  0  0
  5 17  1  0  0  0  0
  6 19  1  0  0  0  0
  7 10  2  0  0  0  0
  7 18  1  0  0  0  0
  8 21  1  0  0  0  0
  9 21  2  0  0  0  0
 10 22  1  0  0  0  0
 11 12  2  0  0  0  0
 11 23  1  0  0  0  0
 12 24  1  0  0  0  0
 13 20  1  0  0  0  0
 13 22  2  0  0  0  0
 14 24  2  0  0  0  0
 14 25  1  0  0  0  0
 15 26  1  0  0  0  0
 16 26  1  0  0  0  0
 16 29  2  0  0  0  0
 16 31  1  0  0  0  0
 17 19  2  0  0  0  0
 17 36  1  0  0  0  0
 18 20  2  0  0  0  0
 18 37  1  0  0  0  0
 19 45  1  0  0  0  0
 20 38  1  0  0  0  0
 21 86  1  0  0  0  0
 22 87  1  0  0  0  0
 23 25  2  0  0  0  0
 23 86  1  0  0  0  0
 24 88  1  0  0  0  0
 25 89  1  0  0  0  0
 26 69  2  0  0  0  0
 27 28  2  0  0  0  0
 27 61  1  0  0  0  0
 27 70  1  0  0  0  0
 28 48  1  0  0  0  0
 28 71  1  0  0  0  0
 29 72  1  0  0  0  0
 29 75  1  0  0  0  0
 30 65  1  0  0  0  0
 30 70  2  0  0  0  0
 30 71  1  0  0  0  0
 31 76  1  0  0  0  0
 31 81  2  0  0  0  0
 32 46  1  0  0  0  0
 32 77  1  0  0  0  0
 32 82  2  0  0  0  0
 33 63  1  0  0  0  0
 33 73  1  0  0  0  0
 33 83  2  0  0  0  0
 34 64  1  0  0  0  0
 34 78  1  0  0  0  0
 34 84  2  0  0  0  0
 35 74  1  0  0  0  0
 35 79  1  0  0  0  0
 35 85  2  0  0  0  0
 36 39  1  0  0  0  0
 37 46  1  0  0  0  0
 38 73  1  0  0  0  0
 39 41  1  0  0  0  0
 40 42  1  0  0  0  0
 40 43  1  0  0  0  0
 41 45  1  0  0  0  0
 42 47  1  0  0  0  0
 43 74  1  0  0  0  0
 44 47  1  0  0  0  0
 44 74  1  0  0  0  0
 45 77  1  0  0  0  0
 46 73  1  0  0  0  0
 47 72  1  0  0  0  0
 49 64  1  0  0  0  0
 50 65  1  0  0  0  0
 51 65  1  0  0  0  0
 52 66  1  0  0  0  0
 53 66  1  0  0  0  0
 54 66  1  0  0  0  0
 55 67  1  0  0  0  0
 56 67  1  0  0  0  0
 57 68  1  0  0  0  0
 58 68  1  0  0  0  0
 59 71  1  0  0  0  0
 60 80  1  0  0  0  0
 61 67  1  0  0  0  0
 62 67  1  0  0  0  0
 62 87  1  0  0  0  0
 63 66  1  0  0  0  0
 63 78  1  0  0  0  0
 64 80  1  0  0  0  0
 65 68  1  0  0  0  0
 68 79  1  0  0  0  0
 69 72  1  0  0  0  0
M  CHG  1  80   1
M  ISO  4  35 100  62 101  79 100  87 101
M  END
> <Batch ID>
0066

> <Smiles>
CNC(C)C(=O)NC(C(=O)N1Cc2cc([101O:1][101CH2:1]C(C)(C)Cc3nc(C(C)(C)C(C)(C)[100NH:0][100C:0](=O)N4CCCC(n5nc(-c6ccc(Oc7ccc(F)cc7F)cc6)c(C(N)=O)c5N)C4)n(C)c3C)ccc2CC1C(=O)NC1CCCc2ccccc21)C(C)(C)C

> <Shape>
0.250

> <Color>
0.059

> <Negative vol penalty>
0.000

$$$$

  -OEChem-04052318093D

 95103  0     1  0  0  0  0  0999 V2000
  -35.7509  -29.4126   22.1940 C   0  0  0  0  0  0  0  0  0  0  0  0
  -34.6602  -28.7032   21.7016 C   0  0  0  0  0  0  0  0  0  0  0  0
  -24.3197   -9.8157   21.6993 C   0  0  0  0  0  0  0  0  0  0  0  0
  -24.7478  -11.0563   23.7278 C   0  0  0  0  0  0  0  0  0  0  0  0
  -35.6200  -30.1724   23.3557 C   0  0  0  0  0  0  0  0  0  0  0  0
  -33.4381  -28.7523   22.3712 C   0  0  0  0  0  0  0  0  0  0  0  0
  -27.8550  -28.6239   19.8575 C   0  0  0  0  0  0  0  0  0  0  0  0
  -28.3498  -22.5536   21.2134 C   0  0  0  0  0  0  0  0  0  0  0  0
  -23.9712   -8.6975   22.4567 C   0  0  0  0  0  0  0  0  0  0  0  0
  -24.3993   -9.9380   24.4852 C   0  0  0  0  0  0  0  0  0  0  0  0
  -26.9310  -27.5956   19.6771 C   0  0  0  0  0  0  0  0  0  0  0  0
  -25.5617   -6.2445   24.1530 C   0  0  0  0  0  0  0  0  0  0  0  0
  -26.0777   -5.0098   23.7596 C   0  0  0  0  0  0  0  0  0  0  0  0
  -28.9961  -21.4786   20.6134 C   0  0  0  0  0  0  0  0  0  0  0  0
  -25.8044  -28.2605   21.7039 C   0  0  0  0  0  0  0  0  0  0  0  0
  -23.8332   -4.1681   23.4577 C   0  0  0  0  0  0  0  0  0  0  0  0
  -26.3160  -21.3255   21.1029 C   0  0  0  0  0  0  0  0  0  0  0  0
  -24.7080  -10.9951   22.3348 C   0  0  0  0  0  0  0  0  0  0  0  0
  -24.2133  -13.1757   21.1067 C   0  0  0  0  0  0  0  0  0  0  0  0
  -34.3930  -30.2386   24.0346 C   0  0  0  0  0  0  0  0  0  0  0  0
  -27.7670  -29.4729   20.9701 C   0  0  0  0  0  0  0  0  0  0  0  0
  -33.2909  -29.5126   23.5438 C   0  0  0  0  0  0  0  0  0  0  0  0
  -26.7271  -29.3004   21.8948 C   0  0  0  0  0  0  0  0  0  0  0  0
  -26.9843  -22.4836   21.4663 C   0  0  0  0  0  0  0  0  0  0  0  0
  -24.0110   -8.7586   23.8496 C   0  0  0  0  0  0  0  0  0  0  0  0
  -25.9072  -27.4120   20.6019 C   0  0  0  0  0  0  0  0  0  0  0  0
  -24.1815   -6.4410   24.1989 C   0  0  0  0  0  0  0  0  0  0  0  0
  -25.2134   -3.9716   23.4119 C   0  0  0  0  0  0  0  0  0  0  0  0
  -23.3172   -5.4028   23.8512 C   0  0  0  0  0  0  0  0  0  0  0  0
  -25.0687  -12.1505   21.5530 C   0  0  0  0  0  0  0  0  0  0  0  0
  -28.2377  -20.3655   20.2884 C   0  0  0  0  0  0  0  0  0  0  0  0
  -25.0345  -14.0299   20.4121 C   0  0  0  0  0  0  0  0  0  0  0  0
  -22.8027  -13.3411   21.3027 C   0  0  0  0  0  0  0  0  0  0  0  0
  -29.6486  -30.1269   23.4471 C   0  0  0  0  0  0  0  0  0  0  0  0
  -29.8416  -16.8671   20.0503 C   0  0  0  0  0  0  0  0  0  0  0  0
  -27.3959  -32.3772   24.0660 C   0  0  0  0  0  0  0  0  0  0  0  0
  -24.1705  -33.4276   23.6915 C   0  0  0  0  0  0  0  0  0  0  0  0
  -34.3126  -31.0354   25.3126 C   0  0  0  0  0  0  0  0  0  0  0  0
  -28.7558  -30.5941   21.1362 C   0  0  0  0  0  0  0  0  0  0  0  0
  -26.5766  -30.1974   23.0953 C   0  0  0  0  0  0  0  0  0  0  0  0
  -32.8825  -31.3346   25.7548 C   0  0  0  0  0  0  0  0  0  0  0  0
  -29.8108  -13.4864   18.8630 C   0  0  0  0  0  0  0  0  0  0  0  0
  -32.0233  -30.0771   25.6699 C   0  0  0  0  0  0  0  0  0  0  0  0
  -28.5195  -12.9132   19.4453 C   0  0  0  0  0  0  0  0  0  0  0  0
  -30.4592  -14.4841   19.8176 C   0  0  0  0  0  0  0  0  0  0  0  0
  -28.2637  -15.0266   20.8211 C   0  0  0  0  0  0  0  0  0  0  0  0
  -31.9421  -29.5607   24.2283 C   0  0  1  0  0  0  0  0  0  0  0  0
  -28.8745  -31.0774   22.5783 C   0  0  1  0  0  0  0  0  0  0  0  0
  -27.5603  -14.0372   19.8753 C   0  0  2  0  0  0  0  0  0  0  0  0
  -29.0446  -18.1233   21.9775 C   0  0  0  0  0  0  0  0  0  0  0  0
  -22.6158  -35.2866   24.3432 C   0  0  0  0  0  0  0  0  0  0  0  0
  -27.1782  -31.2069   26.8755 C   0  0  0  0  0  0  0  0  0  0  0  0
  -25.0127  -32.4346   27.1437 C   0  0  0  0  0  0  0  0  0  0  0  0
  -27.1281  -33.7055   26.7794 C   0  0  0  0  0  0  0  0  0  0  0  0
  -27.4882  -24.3818   26.9766 C   0  0  0  0  0  0  0  0  0  0  0  0
  -28.7567  -25.6537   25.2596 C   0  0  0  0  0  0  0  0  0  0  0  0
  -26.3276  -26.0702   25.5655 C   0  0  0  0  0  0  0  0  0  0  0  0
  -25.7053  -23.1391   24.7688 C   0  0  0  0  0  0  0  0  0  0  0  0
  -28.1406  -22.6984   24.4725 C   0  0  0  0  0  0  0  0  0  0  0  0
  -23.7074  -34.1862   20.8685 C   0  0  0  0  0  0  0  0  0  0  0  0
  -24.6971  -24.0322   20.2971 C   0  0  0  0  0  0  0  0  0  0  0  0
  -24.9147  -23.8149   21.7896 C   0  0  0  0  0  0  0  0  0  0  0  0
  -27.0057  -24.4203   23.0184 C   0  0  0  0  0  0  0  0  0  0  0  0
  -25.4581  -25.2359   19.7539 C   0  0  0  0  0  0  0  0  0  1  0  0
  -28.8986  -19.1932   19.6434 C   0  0  1  0  0  0  0  0  0  0  0  0
  -28.8111  -17.8787   20.4847 C   0  0  1  0  0  0  0  0  0  0  0  0
  -26.1113  -32.4145   24.8582 C   0  0  1  0  0  0  0  0  0  0  0  0
  -23.5887  -34.7722   23.2936 C   0  0  2  0  0  0  0  0  0  0  0  0
  -26.3613  -32.4221   26.3927 C   0  0  0  0  0  0  0  0  0  0  0  0
  -27.4025  -24.9558   25.5409 C   0  0  0  0  0  0  0  0  0  0  0  0
  -27.0657  -23.8166   24.4576 C   0  0  0  0  0  0  0  0  0  0  0  0
  -28.3542  -18.9786   18.2140 C   0  0  0  0  0  0  0  0  0  0  0  0
  -26.9096  -20.2608   20.5184 N   0  0  0  0  0  0  0  0  0  0  0  0
  -26.3360  -12.3346   21.1735 N   0  0  0  0  0  0  0  0  0  0  0  0
  -26.2830  -13.4854   20.4814 N   0  0  0  0  0  0  0  0  0  0  0  0
  -27.5718  -31.2754   23.2171 N   0  0  0  0  0  0  0  0  0  0  0  0
  -29.5094  -15.5229   20.2200 N   0  0  0  0  0  0  0  0  0  0  0  0
  -24.8031  -15.1860   19.7547 N   0  0  0  0  0  0  0  0  0  0  0  0
  -22.1123  -12.3704   22.0412 N   0  0  0  0  0  0  0  0  0  0  0  0
  -31.0111  -30.3570   23.4578 N   0  0  0  0  0  0  0  0  0  0  0  0
  -25.3633  -33.5675   24.3689 N   0  0  0  0  0  0  0  0  0  0  0  0
  -26.3056  -23.5518   22.0700 N   0  0  3  0  0  0  0  0  0  0  0  0
  -22.8642  -34.6596   21.9962 N   0  3  0  0  0  0  0  0  0  0  0  0
  -22.1701  -14.3123   20.8228 O   0  0  0  0  0  0  0  0  0  0  0  0
  -29.0537  -29.2505   24.0633 O   0  0  0  0  0  0  0  0  0  0  0  0
  -30.9082  -17.2617   19.5719 O   0  0  0  0  0  0  0  0  0  0  0  0
  -28.2098  -33.2957   24.1904 O   0  0  0  0  0  0  0  0  0  0  0  0
  -23.6198  -32.3602   23.4308 O   0  0  0  0  0  0  0  0  0  0  0  0
  -23.6708   -7.6677   24.5890 O   0  0  0  0  0  0  0  0  0  0  0  0
  -25.0043  -26.4086   20.4286 O   0  0  0  0  0  0  0  0  0  1  0  0
  -25.7091   -2.7864   23.0326 F   0  0  0  0  0  0  0  0  0  0  0  0
  -21.9904   -5.5860   23.8922 F   0  0  0  0  0  0  0  0  0  0  0  0
  -28.9851  -17.9402   17.6181 F   0  0  0  0  0  0  0  0  0  0  0  0
  -27.0336  -18.6876   18.2049 F   0  0  0  0  0  0  0  0  0  0  0  0
  -28.5342  -20.0693   17.4392 F   0  0  0  0  0  0  0  0  0  0  0  0
  1  2  1  0  0  0  0
  1  5  2  0  0  0  0
  2  6  2  0  0  0  0
  3  9  2  0  0  0  0
  3 18  1  0  0  0  0
  4 10  1  0  0  0  0
  4 18  2  0  0  0  0
  5 20  1  0  0  0  0
  6 22  1  0  0  0  0
  7 11  2  0  0  0  0
  7 21  1  0  0  0  0
  8 14  2  0  0  0  0
  8 24  1  0  0  0  0
  9 25  1  0  0  0  0
 10 25  2  0  0  0  0
 11 26  1  0  0  0  0
 12 13  2  0  0  0  0
 12 27  1  0  0  0  0
 13 28  1  0  0  0  0
 14 31  1  0  0  0  0
 15 23  1  0  0  0  0
 15 26  2  0  0  0  0
 16 28  2  0  0  0  0
 16 29  1  0  0  0  0
 17 24  2  0  0  0  0
 17 73  1  0  0  0  0
 18 30  1  0  0  0  0
 19 30  1  0  0  0  0
 19 32  2  0  0  0  0
 19 33  1  0  0  0  0
 20 22  2  0  0  0  0
 20 38  1  0  0  0  0
 21 23  2  0  0  0  0
 21 39  1  0  0  0  0
 22 47  1  0  0  0  0
 23 40  1  0  0  0  0
 24 82  1  0  0  0  0
 25 89  1  0  0  0  0
 26 90  1  0  0  0  0
 27 29  2  0  0  0  0
 27 89  1  0  0  0  0
 28 91  1  0  0  0  0
 29 92  1  0  0  0  0
 30 74  2  0  0  0  0
 31 65  1  0  0  0  0
 31 73  2  0  0  0  0
 32 75  1  0  0  0  0
 32 78  1  0  0  0  0
 33 79  1  0  0  0  0
 33 84  2  0  0  0  0
 34 48  1  0  0  0  0
 34 80  1  0  0  0  0
 34 85  2  0  0  0  0
 35 66  1  0  0  0  0
 35 77  1  0  0  0  0
 35 86  2  0  0  0  0
 36 67  1  0  0  0  0
 36 76  1  0  0  0  0
 36 87  2  0  0  0  0
 37 68  1  0  0  0  0
 37 81  1  0  0  0  0
 37 88  2  0  0  0  0
 38 41  1  0  0  0  0
 39 48  1  0  0  0  0
 40 76  1  0  0  0  0
 41 43  1  0  0  0  0
 42 44  1  0  0  0  0
 42 45  1  0  0  0  0
 43 47  1  0  0  0  0
 44 49  1  0  0  0  0
 45 77  1  0  0  0  0
 46 49  1  0  0  0  0
 46 77  1  0  0  0  0
 47 80  1  0  0  0  0
 48 76  1  0  0  0  0
 49 75  1  0  0  0  0
 50 66  1  0  0  0  0
 51 68  1  0  0  0  0
 52 69  1  0  0  0  0
 53 69  1  0  0  0  0
 54 69  1  0  0  0  0
 55 70  1  0  0  0  0
 56 70  1  0  0  0  0
 57 70  1  0  0  0  0
 58 71  1  0  0  0  0
 59 71  1  0  0  0  0
 60 83  1  0  0  0  0
 61 62  1  0  0  0  0
 61 64  1  0  0  0  0
 62 82  1  0  0  0  0
 63 71  1  0  0  0  0
 63 82  1  0  0  0  0
 64 90  1  0  0  0  0
 65 66  1  0  0  0  0
 65 72  1  0  0  0  0
 67 69  1  0  0  0  0
 67 81  1  0  0  0  0
 68 83  1  0  0  0  0
 70 71  1  0  0  0  0
 72 93  1  0  0  0  0
 72 94  1  0  0  0  0
 72 95  1  0  0  0  0
 74 75  1  0  0  0  0
M  CHG  1  83   1
M  ISO  4  35 100  64 101  66 100  90 101
M  END
> <Batch ID>
0066

> <Smiles>
CNC(C)C(=O)NC(C(=O)N1Cc2cc([101O:1][101CH2:1]CCN(CC(C)(C)C(C)(C)C)c3ccc(C([100CH:0](C)[100C:0](=O)N4CCCC(n5nc(-c6ccc(Oc7ccc(F)cc7F)cc6)c(C(N)=O)c5N)C4)C(F)(F)F)nc3)ccc2CC1C(=O)NC1CCCc2ccccc21)C(C)(C)C

> <Shape>
0.255

> <Color>
0.128

> <Negative vol penalty>
0.000

$$$$

  -OEChem-04052318093D

 85 93  0     1  0  0  0  0  0999 V2000
  -27.1610  -35.1326   23.9849 C   0  0  0  0  0  0  0  0  0  0  0  0
  -27.5077  -33.8169   23.6947 C   0  0  0  0  0  0  0  0  0  0  0  0
  -28.0487  -14.0603   22.0257 C   0  0  0  0  0  0  0  0  0  0  0  0
  -26.9155  -14.9190   20.0724 C   0  0  0  0  0  0  0  0  0  0  0  0
  -25.8494  -35.4446   24.3402 C   0  0  0  0  0  0  0  0  0  0  0  0
  -26.5430  -32.8122   23.7608 C   0  0  0  0  0  0  0  0  0  0  0  0
  -26.7388  -29.6675   19.7962 C   0  0  0  0  0  0  0  0  0  0  0  0
  -27.4565  -12.8140   21.8215 C   0  0  0  0  0  0  0  0  0  0  0  0
  -26.3233  -13.6727   19.8681 C   0  0  0  0  0  0  0  0  0  0  0  0
  -27.7397  -28.6970   19.8021 C   0  0  0  0  0  0  0  0  0  0  0  0
  -23.7394  -11.9033   21.1423 C   0  0  0  0  0  0  0  0  0  0  0  0
  -22.3779  -11.8743   20.8408 C   0  0  0  0  0  0  0  0  0  0  0  0
  -26.1372  -27.0576   20.5528 C   0  0  0  0  0  0  0  0  0  0  0  0
  -22.8666  -10.7896   18.7381 C   0  0  0  0  0  0  0  0  0  0  0  0
  -26.8444  -23.0482   16.9803 C   0  0  0  0  0  0  0  0  0  0  0  0
  -28.2033  -24.8874   16.9941 C   0  0  0  0  0  0  0  0  0  0  0  0
  -27.7781  -15.1128   21.1512 C   0  0  0  0  0  0  0  0  0  0  0  0
  -29.6189  -16.8525   20.8470 C   0  0  0  0  0  0  0  0  0  0  0  0
  -24.8660  -34.4446   24.4012 C   0  0  0  0  0  0  0  0  0  0  0  0
  -25.4297  -29.3423   20.1796 C   0  0  0  0  0  0  0  0  0  0  0  0
  -25.2173  -33.1108   24.1185 C   0  0  0  0  0  0  0  0  0  0  0  0
  -25.1209  -28.0252   20.5484 C   0  0  0  0  0  0  0  0  0  0  0  0
  -26.5938  -12.6202   20.7427 C   0  0  0  0  0  0  0  0  0  0  0  0
  -27.4396  -27.3925   20.1832 C   0  0  0  0  0  0  0  0  0  0  0  0
  -24.6646  -11.3754   20.2417 C   0  0  0  0  0  0  0  0  0  0  0  0
  -21.9414  -11.3175   19.6387 C   0  0  0  0  0  0  0  0  0  0  0  0
  -24.2282  -10.8185   19.0396 C   0  0  0  0  0  0  0  0  0  0  0  0
  -28.3891  -16.4006   21.3620 C   0  0  0  0  0  0  0  0  0  0  0  0
  -27.4777  -22.5717   18.1069 C   0  0  0  0  0  0  0  0  0  0  0  0
  -28.8362  -24.4113   18.1213 C   0  0  0  0  0  0  0  0  0  0  0  0
  -29.7461  -18.1305   21.3340 C   0  0  0  0  0  0  0  0  0  0  0  0
  -30.5618  -16.1776   20.0039 C   0  0  0  0  0  0  0  0  0  0  0  0
  -23.4730  -30.2834   22.5011 C   0  0  0  0  0  0  0  0  0  0  0  0
  -21.3354  -28.4237   20.9217 C   0  0  0  0  0  0  0  0  0  0  0  0
  -20.7818  -25.8122   18.7956 C   0  0  0  0  0  0  0  0  0  0  0  0
  -25.3447  -21.9103   23.3036 C   0  0  0  0  0  0  0  0  0  0  0  0
  -23.4722  -34.8227   24.8360 C   0  0  0  0  0  0  0  0  0  0  0  0
  -24.3556  -30.3946   20.1422 C   0  0  0  0  0  0  0  0  0  0  0  0
  -23.7268  -27.6200   20.9492 C   0  0  0  0  0  0  0  0  0  0  0  0
  -22.4252  -33.7582   24.5184 C   0  0  0  0  0  0  0  0  0  0  0  0
  -28.4638  -20.8919   25.0171 C   0  0  0  0  0  0  0  0  0  0  0  0
  -22.9261  -32.3774   24.9298 C   0  0  0  0  0  0  0  0  0  0  0  0
  -28.8559  -19.6200   24.2670 C   0  0  0  0  0  0  0  0  0  0  0  0
  -26.9553  -21.1193   24.9983 C   0  0  0  0  0  0  0  0  0  0  0  0
  -26.7563  -19.8553   22.8824 C   0  0  0  0  0  0  0  0  0  0  0  0
  -24.1936  -31.9969   24.1550 C   0  0  1  0  0  0  0  0  0  0  0  0
  -23.1695  -30.0700   21.0451 C   0  0  1  0  0  0  0  0  0  0  0  0
  -28.2740  -19.6216   22.8427 C   0  0  2  0  0  0  0  0  0  0  0  0
  -18.9282  -24.5046   17.7224 C   0  0  0  0  0  0  0  0  0  0  0  0
  -31.1901  -25.4370   17.8276 C   0  0  0  0  0  0  0  0  0  0  0  0
  -30.5117  -24.4278   19.9953 C   0  0  0  0  0  0  0  0  0  0  0  0
  -20.8229  -26.9862   23.5638 C   0  0  0  0  0  0  0  0  0  0  0  0
  -19.7319  -25.1421   22.2687 C   0  0  0  0  0  0  0  0  0  0  0  0
  -18.7706  -27.4432   22.2097 C   0  0  0  0  0  0  0  0  0  0  0  0
  -24.1742  -23.2342   21.5841 C   0  0  0  0  0  0  0  0  0  0  0  0
  -21.6761  -26.5561   16.0743 C   0  0  0  0  0  0  0  0  0  0  0  0
  -27.0631  -21.2789   18.7176 C   0  0  0  0  0  0  0  0  0  0  0  0
  -25.9583  -21.4006   19.7874 C   0  0  0  0  0  0  0  0  0  0  0  0
  -26.3533  -22.2329   21.0054 C   0  0  0  0  0  0  0  0  0  0  0  0
  -29.4740  -26.5932   19.2460 C   0  0  0  0  0  0  0  0  0  1  0  0
  -20.9310  -26.9706   20.9843 C   0  0  1  0  0  0  0  0  0  0  0  0
  -19.8856  -25.6773   17.5778 C   0  0  2  0  0  0  0  0  0  0  0  0
  -29.9836  -25.2084   18.7697 C   0  0  0  0  0  0  0  0  0  0  0  0
  -20.0909  -26.6433   22.2510 C   0  0  0  0  0  0  0  0  0  0  0  0
  -27.1958  -24.2146   16.4036 N   0  0  0  0  0  0  0  0  0  0  0  0
  -27.7788  -17.3168   22.1183 N   0  0  0  0  0  0  0  0  0  0  0  0
  -28.4849  -23.2448   18.6977 N   0  0  0  0  0  0  0  0  0  0  0  0
  -28.6286  -18.3573   22.0821 N   0  0  0  0  0  0  0  0  0  0  0  0
  -22.7126  -28.6862   20.9025 N   0  0  0  0  0  0  0  0  0  0  0  0
  -26.4221  -21.0729   23.6364 N   0  0  0  0  0  0  0  0  0  0  0  0
  -30.7039  -19.0711   21.1909 N   0  0  0  0  0  0  0  0  0  0  0  0
  -30.2750  -14.8679   19.5954 N   0  0  0  0  0  0  0  0  0  0  0  0
  -23.8575  -31.5736   22.8126 N   0  0  0  0  0  0  0  0  0  0  0  0
  -20.2520  -26.6813   19.7258 N   0  0  0  0  0  0  0  0  0  0  0  0
  -25.2668  -22.3548   21.9750 N   0  0  0  0  0  0  0  0  0  0  0  0
  -20.7061  -25.4657   16.3518 N   0  3  0  0  0  0  0  0  0  0  0  0
  -31.6349  -16.7139   19.6373 O   0  0  0  0  0  0  0  0  0  0  0  0
  -23.3649  -29.3471   23.2843 O   0  0  0  0  0  0  0  0  0  0  0  0
  -20.4616  -29.2935   20.8838 O   0  0  0  0  0  0  0  0  0  0  0  0
  -21.8436  -25.2043   18.9119 O   0  0  0  0  0  0  0  0  0  0  0  0
  -24.5060  -22.2495   24.1482 O   0  0  0  0  0  0  0  0  0  0  0  0
  -26.0159  -11.4042   20.5429 O   0  0  0  0  0  0  0  0  0  0  0  0
  -28.4148  -26.4434   20.1905 O   0  0  0  0  0  0  0  0  0  1  0  0
  -20.6338  -11.2884   19.3499 F   0  0  0  0  0  0  0  0  0  0  0  0
  -25.1122  -10.3088   18.1710 F   0  0  0  0  0  0  0  0  0  0  0  0
  1  2  1  0  0  0  0
  1  5  2  0  0  0  0
  2  6  2  0  0  0  0
  3  8  2  0  0  0  0
  3 17  1  0  0  0  0
  4  9  1  0  0  0  0
  4 17  2  0  0  0  0
  5 19  1  0  0  0  0
  6 21  1  0  0  0  0
  7 10  2  0  0  0  0
  7 20  1  0  0  0  0
  8 23  1  0  0  0  0
  9 23  2  0  0  0  0
 10 24  1  0  0  0  0
 11 12  2  0  0  0  0
 11 25  1  0  0  0  0
 12 26  1  0  0  0  0
 13 22  1  0  0  0  0
 13 24  2  0  0  0  0
 14 26  2  0  0  0  0
 14 27  1  0  0  0  0
 15 29  2  0  0  0  0
 15 65  1  0  0  0  0
 16 30  1  0  0  0  0
 16 65  2  0  0  0  0
 17 28  1  0  0  0  0
 18 28  1  0  0  0  0
 18 31  2  0  0  0  0
 18 32  1  0  0  0  0
 19 21  2  0  0  0  0
 19 37  1  0  0  0  0
 20 22  2  0  0  0  0
 20 38  1  0  0  0  0
 21 46  1  0  0  0  0
 22 39  1  0  0  0  0
 23 82  1  0  0  0  0
 24 83  1  0  0  0  0
 25 27  2  0  0  0  0
 25 82  1  0  0  0  0
 26 84  1  0  0  0  0
 27 85  1  0  0  0  0
 28 66  2  0  0  0  0
 29 57  1  0  0  0  0
 29 67  1  0  0  0  0
 30 63  1  0  0  0  0
 30 67  2  0  0  0  0
 31 68  1  0  0  0  0
 31 71  1  0  0  0  0
 32 72  1  0  0  0  0
 32 77  2  0  0  0  0
 33 47  1  0  0  0  0
 33 73  1  0  0  0  0
 33 78  2  0  0  0  0
 34 61  1  0  0  0  0
 34 69  1  0  0  0  0
 34 79  2  0  0  0  0
 35 62  1  0  0  0  0
 35 74  1  0  0  0  0
 35 80  2  0  0  0  0
 36 70  1  0  0  0  0
 36 75  1  0  0  0  0
 36 81  2  0  0  0  0
 37 40  1  0  0  0  0
 38 47  1  0  0  0  0
 39 69  1  0  0  0  0
 40 42  1  0  0  0  0
 41 43  1  0  0  0  0
 41 44  1  0  0  0  0
 42 46  1  0  0  0  0
 43 48  1  0  0  0  0
 44 70  1  0  0  0  0
 45 48  1  0  0  0  0
 45 70  1  0  0  0  0
 46 73  1  0  0  0  0
 47 69  1  0  0  0  0
 48 68  1  0  0  0  0
 49 62  1  0  0  0  0
 50 63  1  0  0  0  0
 51 63  1  0  0  0  0
 52 64  1  0  0  0  0
 53 64  1  0  0  0  0
 54 64  1  0  0  0  0
 55 75  1  0  0  0  0
 56 76  1  0  0  0  0
 57 58  1  0  0  0  0
 58 59  1  0  0  0  0
 59 75  1  0  0  0  0
 60 63  1  0  0  0  0
 60 83  1  0  0  0  0
 61 64  1  0  0  0  0
 61 74  1  0  0  0  0
 62 76  1  0  0  0  0
 66 68  1  0  0  0  0
M  CHG  1  76   1
M  ISO  4  36 100  60 101  75 100  83 101
M  END
> <Batch ID>
0066

> <Smiles>
CNC(C)C(=O)NC(C(=O)N1Cc2cc([101O:1][101CH2:1]C(C)(C)c3cncc(CCC[100N:0](C)[100C:0](=O)N4CCCC(n5nc(-c6ccc(Oc7ccc(F)cc7F)cc6)c(C(N)=O)c5N)C4)n3)ccc2CC1C(=O)NC1CCCc2ccccc21)C(C)(C)C

> <Shape>
0.273

> <Color>
0.086

> <Negative vol penalty>
0.000

$$$$

  -OEChem-04052318093D

 92100  0     1  0  0  0  0  0999 V2000
  -19.8472  -29.3120   26.9936 C   0  0  0  0  0  0  0  0  0  0  0  0
  -21.0257  -28.7251   26.5441 C   0  0  0  0  0  0  0  0  0  0  0  0
  -24.3399   -9.8711   21.9462 C   0  0  0  0  0  0  0  0  0  0  0  0
  -22.8472  -10.7755   20.2756 C   0  0  0  0  0  0  0  0  0  0  0  0
  -18.8058  -29.5557   26.0991 C   0  0  0  0  0  0  0  0  0  0  0  0
  -21.1631  -28.3805   25.1999 C   0  0  0  0  0  0  0  0  0  0  0  0
  -26.2857  -28.5921   21.8502 C   0  0  0  0  0  0  0  0  0  0  0  0
  -23.4108   -8.8719   22.2355 C   0  0  0  0  0  0  0  0  0  0  0  0
  -21.9180   -9.7762   20.5649 C   0  0  0  0  0  0  0  0  0  0  0  0
  -27.2073  -27.6126   21.4829 C   0  0  0  0  0  0  0  0  0  0  0  0
  -22.4112   -5.9349   20.8909 C   0  0  0  0  0  0  0  0  0  0  0  0
  -22.8834   -4.6291   21.0229 C   0  0  0  0  0  0  0  0  0  0  0  0
  -26.0601  -27.3306   19.3796 C   0  0  0  0  0  0  0  0  0  0  0  0
  -22.0572   -4.5596   23.2921 C   0  0  0  0  0  0  0  0  0  0  0  0
  -24.5406  -21.7242   19.9320 C   0  0  0  0  0  0  0  0  0  0  0  0
  -24.0581  -10.8230   20.9662 C   0  0  0  0  0  0  0  0  0  0  0  0
  -26.0524  -11.8047   19.7145 C   0  0  0  0  0  0  0  0  0  0  0  0
  -18.9342  -29.2227   24.7414 C   0  0  0  0  0  0  0  0  0  0  0  0
  -25.2362  -28.9410   20.9881 C   0  0  0  0  0  0  0  0  0  0  0  0
  -20.1220  -28.6187   24.2867 C   0  0  0  0  0  0  0  0  0  0  0  0
  -25.1280  -28.3166   19.7373 C   0  0  0  0  0  0  0  0  0  0  0  0
  -22.1998   -8.8244   21.5449 C   0  0  0  0  0  0  0  0  0  0  0  0
  -27.0929  -26.9796   20.2486 C   0  0  0  0  0  0  0  0  0  0  0  0
  -21.7620   -6.5532   21.9596 C   0  0  0  0  0  0  0  0  0  0  0  0
  -22.7064   -3.9415   22.2234 C   0  0  0  0  0  0  0  0  0  0  0  0
  -21.5850   -5.8655   23.1602 C   0  0  0  0  0  0  0  0  0  0  0  0
  -25.0173  -11.8558   20.6673 C   0  0  0  0  0  0  0  0  0  0  0  0
  -24.3562  -20.4160   19.5834 C   0  0  0  0  0  0  0  0  0  0  0  0
  -26.6747  -13.0248   19.8177 C   0  0  0  0  0  0  0  0  0  0  0  0
  -26.1257  -21.1718   18.4888 C   0  0  0  0  0  0  0  0  0  0  0  0
  -26.4186  -10.7488   18.8164 C   0  0  0  0  0  0  0  0  0  0  0  0
  -22.0642  -28.8138   21.1494 C   0  0  0  0  0  0  0  0  0  0  0  0
  -22.2461  -30.3961   18.3235 C   0  0  0  0  0  0  0  0  0  0  0  0
  -24.0636  -31.1436   15.5334 C   0  0  0  0  0  0  0  0  0  0  0  0
  -24.8255  -18.3984   21.7033 C   0  0  0  0  0  0  0  0  0  0  0  0
  -17.7633  -29.4620   23.8214 C   0  0  0  0  0  0  0  0  0  0  0  0
  -24.2659  -30.0186   21.3880 C   0  0  0  0  0  0  0  0  0  0  0  0
  -24.0314  -28.6694   18.7670 C   0  0  0  0  0  0  0  0  0  0  0  0
  -18.1314  -29.4102   22.3409 C   0  0  0  0  0  0  0  0  0  0  0  0
  -27.5722  -16.5160   22.9636 C   0  0  0  0  0  0  0  0  0  0  0  0
  -19.0008  -28.1911   22.0493 C   0  0  0  0  0  0  0  0  0  0  0  0
  -27.3223  -15.1036   22.4320 C   0  0  0  0  0  0  0  0  0  0  0  0
  -26.2680  -17.2182   23.3350 C   0  0  0  0  0  0  0  0  0  0  0  0
  -25.0045  -15.8365   21.7325 C   0  0  0  0  0  0  0  0  0  0  0  0
  -20.3184  -28.2534   22.8313 C   0  0  1  0  0  0  0  0  0  0  0  0
  -22.9356  -29.9299   20.6466 C   0  0  1  0  0  0  0  0  0  0  0  0
  -26.2861  -15.1087   21.2920 C   0  0  2  0  0  0  0  0  0  0  0  0
  -23.9326  -32.4317   13.3837 C   0  0  0  0  0  0  0  0  0  0  0  0
  -22.4487  -18.8302   18.8655 C   0  0  0  0  0  0  0  0  0  0  0  0
  -22.3509  -20.0475   21.0371 C   0  0  0  0  0  0  0  0  0  0  0  0
  -28.3722  -22.2448   18.1047 C   0  0  0  0  0  0  0  0  0  0  0  0
  -26.9049  -21.6631   16.1440 C   0  0  0  0  0  0  0  0  0  0  0  0
  -28.0824  -19.8756   17.4087 C   0  0  0  0  0  0  0  0  0  0  0  0
  -20.4493  -28.2328   17.1396 C   0  0  0  0  0  0  0  0  0  0  0  0
  -21.1239  -29.0180   14.8600 C   0  0  0  0  0  0  0  0  0  0  0  0
  -19.9078  -30.5593   16.3989 C   0  0  0  0  0  0  0  0  0  0  0  0
  -29.5260  -23.6383   22.4062 C   0  0  0  0  0  0  0  0  0  0  0  0
  -29.8417  -26.0999   22.1581 C   0  0  0  0  0  0  0  0  0  0  0  0
  -30.5841  -24.5502   20.3384 C   0  0  0  0  0  0  0  0  0  0  0  0
  -26.2466  -24.3342   17.9658 C   0  0  0  0  0  0  0  0  0  0  0  0
  -25.3107  -24.4241   20.2559 C   0  0  0  0  0  0  0  0  0  0  0  0
  -26.3557  -32.8579   16.2859 C   0  0  0  0  0  0  0  0  0  0  0  0
  -27.6724  -23.6050   19.9348 C   0  0  0  0  0  0  0  0  0  0  0  0
  -22.3246  -29.9873   16.8724 C   0  0  1  0  0  0  0  0  0  0  0  0
  -24.3541  -32.4648   14.8445 C   0  0  2  0  0  0  0  0  0  0  0  0
  -28.0785  -24.8694   20.7299 C   0  0  1  0  0  0  0  0  0  1  0  0
  -23.3495  -19.4361   19.9992 C   0  0  0  0  0  0  0  0  0  0  0  0
  -27.3055  -21.2254   17.5898 C   0  0  0  0  0  0  0  0  0  0  0  0
  -20.9710  -29.4411   16.3366 C   0  0  0  0  0  0  0  0  0  0  0  0
  -29.4938  -24.8072   21.3962 C   0  0  0  0  0  0  0  0  0  0  0  0
  -26.2269  -23.5884   19.3220 C   0  0  0  0  0  0  0  0  0  0  0  0
  -24.9809  -13.0164   21.3274 N   0  0  0  0  0  0  0  0  0  0  0  0
  -25.6425  -22.1664   19.2404 N   0  0  0  0  0  0  0  0  0  0  0  0
  -26.0010  -13.7058   20.7885 N   0  0  0  0  0  0  0  0  0  0  0  0
  -25.3508  -20.1010   18.6892 N   0  3  0  0  0  0  0  0  0  0  0  0
  -23.1037  -29.7247   19.2065 N   0  0  0  0  0  0  0  0  0  0  0  0
  -25.3296  -17.1895   22.2106 N   0  0  0  0  0  0  0  0  0  0  0  0
  -27.7270  -13.5707   19.1720 N   0  0  0  0  0  0  0  0  0  0  0  0
  -25.6733   -9.5621   18.8410 N   0  0  0  0  0  0  0  0  0  0  0  0
  -21.2390  -29.1730   22.1980 N   0  0  0  0  0  0  0  0  0  0  0  0
  -22.8292  -31.1486   16.1478 N   0  0  0  0  0  0  0  0  0  0  0  0
  -23.9467  -18.2819   20.6333 N   0  0  0  0  0  0  0  0  0  0  0  0
  -25.8111  -32.7719   14.9064 N   0  3  0  0  0  0  0  0  0  0  0  0
  -27.3885  -10.8483   18.0272 O   0  0  0  0  0  0  0  0  0  0  0  0
  -22.1342  -27.7090   20.6239 O   0  0  0  0  0  0  0  0  0  0  0  0
  -21.4583  -31.2836   18.6600 O   0  0  0  0  0  0  0  0  0  0  0  0
  -24.8512  -30.2002   15.5239 O   0  0  0  0  0  0  0  0  0  0  0  0
  -25.1397  -19.5003   22.1660 O   0  0  0  0  0  0  0  0  0  0  0  0
  -21.2930   -7.8493   21.8268 O   0  0  0  0  0  0  0  0  0  0  0  0
  -27.9954  -26.0178   19.8860 O   0  0  0  0  0  0  0  0  0  1  0  0
  -23.1586   -2.6869   22.3495 F   0  0  0  0  0  0  0  0  0  0  0  0
  -20.9610   -6.4537   24.1900 F   0  0  0  0  0  0  0  0  0  0  0  0
  1  2  1  0  0  0  0
  1  5  2  0  0  0  0
  2  6  2  0  0  0  0
  3  8  2  0  0  0  0
  3 16  1  0  0  0  0
  4  9  1  0  0  0  0
  4 16  2  0  0  0  0
  5 18  1  0  0  0  0
  6 20  1  0  0  0  0
  7 10  2  0  0  0  0
  7 19  1  0  0  0  0
  8 22  1  0  0  0  0
  9 22  2  0  0  0  0
 10 23  1  0  0  0  0
 11 12  2  0  0  0  0
 11 24  1  0  0  0  0
 12 25  1  0  0  0  0
 13 21  1  0  0  0  0
 13 23  2  0  0  0  0
 14 25  2  0  0  0  0
 14 26  1  0  0  0  0
 15 28  2  0  0  0  0
 15 73  1  0  0  0  0
 16 27  1  0  0  0  0
 17 27  1  0  0  0  0
 17 29  2  0  0  0  0
 17 31  1  0  0  0  0
 18 20  2  0  0  0  0
 18 36  1  0  0  0  0
 19 21  2  0  0  0  0
 19 37  1  0  0  0  0
 20 45  1  0  0  0  0
 21 38  1  0  0  0  0
 22 89  1  0  0  0  0
 23 90  1  0  0  0  0
 24 26  2  0  0  0  0
 24 89  1  0  0  0  0
 25 91  1  0  0  0  0
 26 92  1  0  0  0  0
 27 72  2  0  0  0  0
 28 67  1  0  0  0  0
 28 75  1  0  0  0  0
 29 74  1  0  0  0  0
 29 78  1  0  0  0  0
 30 68  1  0  0  0  0
 30 73  1  0  0  0  0
 30 75  2  0  0  0  0
 31 79  1  0  0  0  0
 31 84  2  0  0  0  0
 32 46  1  0  0  0  0
 32 80  1  0  0  0  0
 32 85  2  0  0  0  0
 33 64  1  0  0  0  0
 33 76  1  0  0  0  0
 33 86  2  0  0  0  0
 34 65  1  0  0  0  0
 34 81  1  0  0  0  0
 34 87  2  0  0  0  0
 35 77  1  0  0  0  0
 35 82  1  0  0  0  0
 35 88  2  0  0  0  0
 36 39  1  0  0  0  0
 37 46  1  0  0  0  0
 38 76  1  0  0  0  0
 39 41  1  0  0  0  0
 40 42  1  0  0  0  0
 40 43  1  0  0  0  0
 41 45  1  0  0  0  0
 42 47  1  0  0  0  0
 43 77  1  0  0  0  0
 44 47  1  0  0  0  0
 44 77  1  0  0  0  0
 45 80  1  0  0  0  0
 46 76  1  0  0  0  0
 47 74  1  0  0  0  0
 48 65  1  0  0  0  0
 49 67  1  0  0  0  0
 50 67  1  0  0  0  0
 51 68  1  0  0  0  0
 52 68  1  0  0  0  0
 53 68  1  0  0  0  0
 54 69  1  0  0  0  0
 55 69  1  0  0  0  0
 56 69  1  0  0  0  0
 57 70  1  0  0  0  0
 58 70  1  0  0  0  0
 59 70  1  0  0  0  0
 60 71  1  0  0  0  0
 61 71  1  0  0  0  0
 62 83  1  0  0  0  0
 63 66  1  0  0  0  0
 63 71  1  0  0  0  0
 64 69  1  0  0  0  0
 64 81  1  0  0  0  0
 65 83  1  0  0  0  0
 66 70  1  0  0  0  0
 66 90  1  0  0  0  0
 67 82  1  0  0  0  0
 71 73  1  0  0  0  0
 72 74  1  0  0  0  0
M  CHG  2  75   1  83   1
M  ISO  4  35 100  66 101  82 100  90 101
M  END
> <Batch ID>
0066

> <Smiles>
CNC(C)C(=O)NC(C(=O)N1Cc2cc([101O:1][101CH:1](CC(C)(C)n3cc(C(C)(C)[100NH:0][100C:0](=O)N4CCCC(n5nc(-c6ccc(Oc7ccc(F)cc7F)cc6)c(C(N)=O)c5N)C4)nc3C(C)(C)C)C(C)(C)C)ccc2CC1C(=O)NC1CCCc2ccccc21)C(C)(C)C

> <Shape>
0.229

> <Color>
0.080

> <Negative vol penalty>
0.000

$$$$

  -OEChem-04052318093D

100108  0     1  0  0  0  0  0999 V2000
  -21.1772  -12.5061   24.6177 C   0  0  0  0  0  0  0  0  0  0  0  0
  -22.0137  -13.5615   24.9667 C   0  0  0  0  0  0  0  0  0  0  0  0
  -31.3956  -17.8282   19.7693 C   0  0  0  0  0  0  0  0  0  0  0  0
  -28.9974  -17.6043   19.5803 C   0  0  0  0  0  0  0  0  0  0  0  0
  -20.3003  -12.6395   23.5419 C   0  0  0  0  0  0  0  0  0  0  0  0
  -21.9746  -14.7506   24.2394 C   0  0  0  0  0  0  0  0  0  0  0  0
  -22.7734  -21.8226   25.0548 C   0  0  0  0  0  0  0  0  0  0  0  0
  -31.4779  -16.5274   20.2659 C   0  0  0  0  0  0  0  0  0  0  0  0
  -29.0797  -16.3034   20.0769 C   0  0  0  0  0  0  0  0  0  0  0  0
  -23.4777  -22.8966   24.5124 C   0  0  0  0  0  0  0  0  0  0  0  0
  -29.9066  -13.2414   18.9103 C   0  0  0  0  0  0  0  0  0  0  0  0
  -29.1706  -12.2524   18.2577 C   0  0  0  0  0  0  0  0  0  0  0  0
  -21.8665  -23.0416   22.7229 C   0  0  0  0  0  0  0  0  0  0  0  0
  -27.9593  -11.8063   20.3000 C   0  0  0  0  0  0  0  0  0  0  0  0
  -24.0401  -31.1454   21.3768 C   0  0  0  0  0  0  0  0  0  0  0  0
  -30.1553  -18.3667   19.4265 C   0  0  0  0  0  0  0  0  0  0  0  0
  -30.1380  -20.1126   17.5666 C   0  0  0  0  0  0  0  0  0  0  0  0
  -20.2436  -13.8342   22.8071 C   0  0  0  0  0  0  0  0  0  0  0  0
  -21.6144  -21.3422   24.4283 C   0  0  0  0  0  0  0  0  0  0  0  0
  -21.0972  -14.8996   23.1519 C   0  0  0  0  0  0  0  0  0  0  0  0
  -21.1479  -21.9630   23.2608 C   0  0  0  0  0  0  0  0  0  0  0  0
  -30.3200  -15.7650   20.4197 C   0  0  0  0  0  0  0  0  0  0  0  0
  -23.0259  -23.5044   23.3447 C   0  0  0  0  0  0  0  0  0  0  0  0
  -29.6690  -13.5128   20.2578 C   0  0  0  0  0  0  0  0  0  0  0  0
  -28.1969  -11.5349   18.9526 C   0  0  0  0  0  0  0  0  0  0  0  0
  -28.6954  -12.7953   20.9526 C   0  0  0  0  0  0  0  0  0  0  0  0
  -30.0696  -19.7106   18.9140 C   0  0  0  0  0  0  0  0  0  0  0  0
  -25.1559  -30.6174   21.9627 C   0  0  0  0  0  0  0  0  0  0  0  0
  -30.0063  -21.4791   17.6088 C   0  0  0  0  0  0  0  0  0  0  0  0
  -24.5413  -29.2652   20.3213 C   0  0  0  0  0  0  0  0  0  0  0  0
  -30.3056  -19.3214   16.3827 C   0  0  0  0  0  0  0  0  0  0  0  0
  -20.7572  -18.5787   23.1124 C   0  0  0  0  0  0  0  0  0  0  0  0
  -17.8677  -20.0340   22.8764 C   0  0  0  0  0  0  0  0  0  0  0  0
  -16.0951  -22.9455   22.7118 C   0  0  0  0  0  0  0  0  0  0  0  0
  -27.4274  -25.1313   21.2991 C   0  0  0  0  0  0  0  0  0  0  0  0
  -19.3132  -13.9146   21.6228 C   0  0  0  0  0  0  0  0  0  0  0  0
  -20.8512  -20.1999   25.0408 C   0  0  0  0  0  0  0  0  0  0  0  0
  -19.8979  -21.4982   22.5608 C   0  0  0  0  0  0  0  0  0  0  0  0
  -19.0671  -15.3408   21.1372 C   0  0  0  0  0  0  0  0  0  0  0  0
  -30.8464  -25.2463   20.4220 C   0  0  0  0  0  0  0  0  0  0  0  0
  -20.3836  -16.1042   21.0340 C   0  0  0  0  0  0  0  0  0  0  0  0
  -31.0474  -23.8625   19.8059 C   0  0  0  0  0  0  0  0  0  0  0  0
  -29.9396  -25.2008   21.6533 C   0  0  0  0  0  0  0  0  0  0  0  0
  -28.8370  -23.1584   20.7958 C   0  0  0  0  0  0  0  0  0  0  0  0
  -21.0664  -16.2140   22.4027 C   0  0  1  0  0  0  0  0  0  0  0  0
  -19.9697  -19.4637   24.0366 C   0  0  1  0  0  0  0  0  0  0  0  0
  -29.6956  -23.1850   19.5219 C   0  0  2  0  0  0  0  0  0  0  0  0
  -24.5279  -29.6918   17.2518 C   0  0  0  0  0  0  0  0  0  0  0  0
  -13.7522  -23.8152   22.4841 C   0  0  0  0  0  0  0  0  0  0  0  0
  -25.8716  -27.4887   18.9872 C   0  0  0  0  0  0  0  0  0  0  0  0
  -17.9036  -19.3452   19.9041 C   0  0  0  0  0  0  0  0  0  0  0  0
  -16.0718  -21.0181   19.5657 C   0  0  0  0  0  0  0  0  0  0  0  0
  -15.6887  -19.0291   21.0216 C   0  0  0  0  0  0  0  0  0  0  0  0
  -27.8995  -26.4369   23.4151 C   0  0  0  0  0  0  0  0  0  0  0  0
  -16.2290  -24.3247   25.3269 C   0  0  0  0  0  0  0  0  0  0  0  0
  -23.8192  -28.5559   17.9852 C   0  0  0  0  0  0  0  0  0  0  0  0
  -24.0862  -26.2899   21.1977 C   0  0  0  0  0  0  0  0  0  0  0  0
  -23.5848  -26.9407   19.9020 C   0  0  0  0  0  0  0  0  0  0  0  0
  -26.5514  -28.5631   21.5784 C   0  0  0  0  0  0  0  0  0  0  0  0
  -26.1059  -27.1326   21.8707 C   0  0  0  0  0  0  0  0  0  0  0  0
  -23.1923  -25.1277   21.6146 C   0  0  0  0  0  0  0  0  0  1  0  0
  -27.7265  -31.8109   21.2690 C   0  0  0  0  0  0  0  0  0  0  0  0
  -17.1856  -20.8947   21.8406 C   0  0  1  0  0  0  0  0  0  0  0  0
  -14.8544  -23.4127   23.4514 C   0  0  2  0  0  0  0  0  0  0  0  0
  -25.9632  -31.1076   23.0865 C   0  0  0  0  0  0  0  0  0  0  0  0
  -24.4840  -28.0899   19.3259 C   0  0  2  0  0  0  0  0  0  0  0  0
  -16.7371  -20.0795   20.5949 C   0  0  0  0  0  0  0  0  0  0  0  0
  -27.4873  -31.3908   22.7080 C   0  0  0  0  0  0  0  0  0  0  0  0
  -25.3962  -32.4680   23.6540 C   0  0  0  0  0  0  0  0  0  0  0  0
  -26.0066  -30.1672   24.3648 C   0  0  0  0  0  0  0  0  0  0  0  0
  -29.9071  -20.7386   19.7512 N   0  0  0  0  0  0  0  0  0  0  0  0
  -25.4432  -29.4543   21.2900 N   0  0  0  0  0  0  0  0  0  0  0  0
  -29.8725  -21.8001   18.9276 N   0  0  0  0  0  0  0  0  0  0  0  0
  -23.6818  -30.2884   20.3643 N   0  3  0  0  0  0  0  0  0  0  0  0
  -19.1901  -20.3738   23.1950 N   0  0  0  0  0  0  0  0  0  0  0  0
  -28.6813  -24.5048   21.3516 N   0  0  0  0  0  0  0  0  0  0  0  0
  -29.9931  -22.4254   16.6462 N   0  0  0  0  0  0  0  0  0  0  0  0
  -30.4254  -17.9317   16.5191 N   0  0  0  0  0  0  0  0  0  0  0  0
  -20.4316  -17.2388   23.2034 N   0  0  0  0  0  0  0  0  0  0  0  0
  -16.0973  -21.5786   22.5307 N   0  0  0  0  0  0  0  0  0  0  0  0
  -27.2303  -26.2444   22.1300 N   0  0  0  0  0  0  0  0  0  0  0  0
  -15.1757  -24.5859   24.3124 N   0  3  0  0  0  0  0  0  0  0  0  0
  -30.3644  -19.8333   15.2390 O   0  0  0  0  0  0  0  0  0  0  0  0
  -21.5969  -19.0748   22.3705 O   0  0  0  0  0  0  0  0  0  0  0  0
  -17.2476  -19.0990   23.3892 O   0  0  0  0  0  0  0  0  0  0  0  0
  -16.9725  -23.7166   22.3294 O   0  0  0  0  0  0  0  0  0  0  0  0
  -26.5289  -24.7148   20.5566 O   0  0  0  0  0  0  0  0  0  0  0  0
  -30.4000  -14.4955   20.9040 O   0  0  0  0  0  0  0  0  0  0  0  0
  -23.7118  -24.5525   22.8127 O   0  0  0  0  0  0  0  0  0  1  0  0
  -27.4891  -10.5863   18.3254 F   0  0  0  0  0  0  0  0  0  0  0  0
  -28.4618  -13.0523   22.2469 F   0  0  0  0  0  0  0  0  0  0  0  0
  -29.0716  -31.9549   21.0925 F   0  0  0  0  0  0  0  0  0  0  0  0
  -28.2822  -30.3116   22.9605 F   0  0  0  0  0  0  0  0  0  0  0  0
  -27.9650  -32.3819   23.5101 F   0  0  0  0  0  0  0  0  0  0  0  0
  -24.1265  -32.2917   24.0886 F   0  0  0  0  0  0  0  0  0  0  0  0
  -25.3647  -33.4268   22.7032 F   0  0  0  0  0  0  0  0  0  0  0  0
  -26.1038  -32.9745   24.6914 F   0  0  0  0  0  0  0  0  0  0  0  0
  -26.5180  -28.9538   24.0634 F   0  0  0  0  0  0  0  0  0  0  0  0
  -24.7582  -29.9718   24.8509 F   0  0  0  0  0  0  0  0  0  0  0  0
  -26.7459  -30.6574   25.3887 F   0  0  0  0  0  0  0  0  0  0  0  0
  1  2  1  0  0  0  0
  1  5  2  0  0  0  0
  2  6  2  0  0  0  0
  3  8  2  0  0  0  0
  3 16  1  0  0  0  0
  4  9  1  0  0  0  0
  4 16  2  0  0  0  0
  5 18  1  0  0  0  0
  6 20  1  0  0  0  0
  7 10  2  0  0  0  0
  7 19  1  0  0  0  0
  8 22  1  0  0  0  0
  9 22  2  0  0  0  0
 10 23  1  0  0  0  0
 11 12  2  0  0  0  0
 11 24  1  0  0  0  0
 12 25  1  0  0  0  0
 13 21  1  0  0  0  0
 13 23  2  0  0  0  0
 14 25  2  0  0  0  0
 14 26  1  0  0  0  0
 15 28  2  0  0  0  0
 15 74  1  0  0  0  0
 16 27  1  0  0  0  0
 17 27  1  0  0  0  0
 17 29  2  0  0  0  0
 17 31  1  0  0  0  0
 18 20  2  0  0  0  0
 18 36  1  0  0  0  0
 19 21  2  0  0  0  0
 19 37  1  0  0  0  0
 20 45  1  0  0  0  0
 21 38  1  0  0  0  0
 22 88  1  0  0  0  0
 23 89  1  0  0  0  0
 24 26  2  0  0  0  0
 24 88  1  0  0  0  0
 25 90  1  0  0  0  0
 26 91  1  0  0  0  0
 27 71  2  0  0  0  0
 28 65  1  0  0  0  0
 28 72  1  0  0  0  0
 29 73  1  0  0  0  0
 29 77  1  0  0  0  0
 30 66  1  0  0  0  0
 30 72  1  0  0  0  0
 30 74  2  0  0  0  0
 31 78  1  0  0  0  0
 31 83  2  0  0  0  0
 32 46  1  0  0  0  0
 32 79  1  0  0  0  0
 32 84  2  0  0  0  0
 33 63  1  0  0  0  0
 33 75  1  0  0  0  0
 33 85  2  0  0  0  0
 34 64  1  0  0  0  0
 34 80  1  0  0  0  0
 34 86  2  0  0  0  0
 35 76  1  0  0  0  0
 35 81  1  0  0  0  0
 35 87  2  0  0  0  0
 36 39  1  0  0  0  0
 37 46  1  0  0  0  0
 38 75  1  0  0  0  0
 39 41  1  0  0  0  0
 40 42  1  0  0  0  0
 40 43  1  0  0  0  0
 41 45  1  0  0  0  0
 42 47  1  0  0  0  0
 43 76  1  0  0  0  0
 44 47  1  0  0  0  0
 44 76  1  0  0  0  0
 45 79  1  0  0  0  0
 46 75  1  0  0  0  0
 47 73  1  0  0  0  0
 48 56  1  0  0  0  0
 49 64  1  0  0  0  0
 50 66  1  0  0  0  0
 51 67  1  0  0  0  0
 52 67  1  0  0  0  0
 53 67  1  0  0  0  0
 54 81  1  0  0  0  0
 55 82  1  0  0  0  0
 56 66  1  0  0  0  0
 57 58  1  0  0  0  0
 57 61  1  0  0  0  0
 58 66  1  0  0  0  0
 59 60  1  0  0  0  0
 59 72  1  0  0  0  0
 60 81  1  0  0  0  0
 61 89  1  0  0  0  0
 62 68  1  0  0  0  0
 62 92  1  0  0  0  0
 63 67  1  0  0  0  0
 63 80  1  0  0  0  0
 64 82  1  0  0  0  0
 65 68  1  0  0  0  0
 65 69  1  0  0  0  0
 65 70  1  0  0  0  0
 68 93  1  0  0  0  0
 68 94  1  0  0  0  0
 69 95  1  0  0  0  0
 69 96  1  0  0  0  0
 69 97  1  0  0  0  0
 70 98  1  0  0  0  0
 70 99  1  0  0  0  0
 70100  1  0  0  0  0
 71 73  1  0  0  0  0
M  CHG  2  74   1  82   1
M  ISO  4  35 100  61 101  81 100  89 101
M  END
> <Batch ID>
0066

> <Smiles>
CCC(C)(CC[101CH2:1][101O:1]c1ccc2c(c1)CN(C(=O)C(NC(=O)C(C)NC)C(C)(C)C)C(C(=O)NC1CCCc3ccccc31)C2)c1ncc(C(C(F)(F)F)(C(F)(F)F)C(F)(F)CF)n1CC[100N:0](C)[100C:0](=O)N1CCCC(n2nc(-c3ccc(Oc4ccc(F)cc4F)cc3)c(C(N)=O)c2N)C1

> <Shape>
0.220

> <Color>
0.047

> <Negative vol penalty>
0.000

$$$$

  -OEChem-04052318093D

 85 93  0     1  0  0  0  0  0999 V2000
  -35.3869  -30.0420   26.1354 C   0  0  0  0  0  0  0  0  0  0  0  0
  -34.7678  -28.8737   25.7028 C   0  0  0  0  0  0  0  0  0  0  0  0
  -23.1911   -9.8172   19.9311 C   0  0  0  0  0  0  0  0  0  0  0  0
  -23.5703   -9.9966   22.3104 C   0  0  0  0  0  0  0  0  0  0  0  0
  -34.7038  -31.2558   26.0730 C   0  0  0  0  0  0  0  0  0  0  0  0
  -33.4647  -28.9184   25.2084 C   0  0  0  0  0  0  0  0  0  0  0  0
  -32.9001  -26.2027   20.9715 C   0  0  0  0  0  0  0  0  0  0  0  0
  -22.4256   -8.6700   20.1396 C   0  0  0  0  0  0  0  0  0  0  0  0
  -22.8048   -8.8494   22.5189 C   0  0  0  0  0  0  0  0  0  0  0  0
  -32.7919  -24.8197   21.1114 C   0  0  0  0  0  0  0  0  0  0  0  0
  -23.2079   -5.5031   22.2530 C   0  0  0  0  0  0  0  0  0  0  0  0
  -23.7072   -4.5416   23.1315 C   0  0  0  0  0  0  0  0  0  0  0  0
  -30.3966  -24.9899   20.8811 C   0  0  0  0  0  0  0  0  0  0  0  0
  -21.7511   -4.7997   24.5258 C   0  0  0  0  0  0  0  0  0  0  0  0
  -31.0094  -16.4781   24.9249 C   0  0  0  0  0  0  0  0  0  0  0  0
  -30.6961  -15.9585   22.8114 C   0  0  0  0  0  0  0  0  0  0  0  0
  -23.7635  -10.4805   21.0166 C   0  0  0  0  0  0  0  0  0  0  0  0
  -24.1005  -12.9975   20.7739 C   0  0  0  0  0  0  0  0  0  0  0  0
  -33.3951  -31.3169   25.5686 C   0  0  0  0  0  0  0  0  0  0  0  0
  -31.7545  -26.9921   20.7961 C   0  0  0  0  0  0  0  0  0  0  0  0
  -32.7630  -30.1340   25.1404 C   0  0  0  0  0  0  0  0  0  0  0  0
  -30.4932  -26.3823   20.7368 C   0  0  0  0  0  0  0  0  0  0  0  0
  -22.2324   -8.1861   21.4335 C   0  0  0  0  0  0  0  0  0  0  0  0
  -31.5398  -24.2134   21.0691 C   0  0  0  0  0  0  0  0  0  0  0  0
  -21.9801   -6.1129   22.5109 C   0  0  0  0  0  0  0  0  0  0  0  0
  -31.2060  -16.9502   23.6133 C   0  0  0  0  0  0  0  0  0  0  0  0
  -22.9789   -4.1899   24.2679 C   0  0  0  0  0  0  0  0  0  0  0  0
  -21.2518   -5.7612   23.6473 C   0  0  0  0  0  0  0  0  0  0  0  0
  -24.5548  -11.6654   20.8018 C   0  0  0  0  0  0  0  0  0  0  0  0
  -25.2311  -13.7410   20.5385 C   0  0  0  0  0  0  0  0  0  0  0  0
  -22.7750  -13.5165   20.9456 C   0  0  0  0  0  0  0  0  0  0  0  0
  -30.3702  -29.3333   22.4411 C   0  0  0  0  0  0  0  0  0  0  0  0
  -28.4209  -29.4728   19.8520 C   0  0  0  0  0  0  0  0  0  0  0  0
  -31.0473  -12.6349   21.5680 C   0  0  0  0  0  0  0  0  0  0  0  0
  -27.0762  -27.8818   17.1488 C   0  0  0  0  0  0  0  0  0  0  0  0
  -32.6799  -32.6447   25.5648 C   0  0  0  0  0  0  0  0  0  0  0  0
  -31.8904  -28.4797   20.6200 C   0  0  0  0  0  0  0  0  0  0  0  0
  -29.2343  -27.1829   20.5302 C   0  0  0  0  0  0  0  0  0  0  0  0
  -31.4369  -32.6644   24.6788 C   0  0  0  0  0  0  0  0  0  0  0  0
  -29.5168  -13.4922   18.4435 C   0  0  0  0  0  0  0  0  0  0  0  0
  -30.5860  -31.4226   24.9251 C   0  0  0  0  0  0  0  0  0  0  0  0
  -28.0331  -13.2149   18.6825 C   0  0  0  0  0  0  0  0  0  0  0  0
  -30.3983  -12.4930   19.1862 C   0  0  0  0  0  0  0  0  0  0  0  0
  -28.6444  -12.1402   20.8953 C   0  0  0  0  0  0  0  0  0  0  0  0
  -31.3594  -30.1456   24.5747 C   0  0  1  0  0  0  0  0  0  0  0  0
  -30.6131  -29.2409   20.9612 C   0  0  1  0  0  0  0  0  0  0  0  0
  -27.7191  -13.1458   20.1875 C   0  0  2  0  0  0  0  0  0  0  0  0
  -25.4864  -28.2418   15.2408 C   0  0  0  0  0  0  0  0  0  0  0  0
  -28.4883  -13.3803   24.2670 C   0  0  0  0  0  0  0  0  0  0  0  0
  -30.0285  -11.1728   23.2579 C   0  0  0  0  0  0  0  0  0  0  0  0
  -31.9104  -12.7222   23.8294 C   0  0  0  0  0  0  0  0  0  0  0  0
  -26.0626  -29.2019   21.7690 C   0  0  0  0  0  0  0  0  0  0  0  0
  -24.6236  -28.6170   19.8055 C   0  0  0  0  0  0  0  0  0  0  0  0
  -25.7216  -30.8538   19.9225 C   0  0  0  0  0  0  0  0  0  0  0  0
  -29.1954  -27.3994   15.1401 C   0  0  0  0  0  0  0  0  0  0  0  0
  -31.8239  -20.9611   22.6399 C   0  0  0  0  0  0  0  0  0  0  0  0
  -32.8399  -20.2405   23.5192 C   0  0  0  0  0  0  0  0  0  0  0  0
  -32.4182  -22.2105   22.0032 C   0  0  0  0  0  0  0  0  0  1  0  0
  -32.2342  -19.0156   24.1899 C   0  0  0  0  0  0  0  0  0  0  0  0
  -27.1274  -28.8061   19.4505 C   0  0  1  0  0  0  0  0  0  0  0  0
  -26.9355  -28.3053   15.6979 C   0  0  2  0  0  0  0  0  0  0  0  0
  -29.6145  -13.7468   23.2810 C   0  0  2  0  0  0  0  0  0  0  0  0
  -30.6154  -12.5702   23.0113 C   0  0  0  0  0  0  0  0  0  0  0  0
  -25.9072  -29.3545   20.2427 C   0  0  0  0  0  0  0  0  0  0  0  0
  -30.4205  -15.2797   24.9588 N   0  0  0  0  0  0  0  0  0  0  0  0
  -25.8713  -11.5652   20.6000 N   0  0  0  0  0  0  0  0  0  0  0  0
  -30.2425  -14.9905   23.6585 N   0  0  0  0  0  0  0  0  0  0  0  0
  -26.2540  -12.8439   20.4430 N   0  0  0  0  0  0  0  0  0  0  0  0
  -29.4187  -28.6347   20.3695 N   0  0  0  0  0  0  0  0  0  0  0  0
  -30.0539  -12.4406   20.6081 N   0  0  0  0  0  0  0  0  0  0  0  0
  -25.4401  -15.0681   20.4059 N   0  0  0  0  0  0  0  0  0  0  0  0
  -21.7290  -12.6135   21.1797 N   0  0  0  0  0  0  0  0  0  0  0  0
  -31.3894  -29.9503   23.1411 N   0  0  0  0  0  0  0  0  0  0  0  0
  -27.0197  -28.9620   18.0039 N   0  0  0  0  0  0  0  0  0  0  0  0
  -27.7452  -27.4159   14.8179 N   0  3  0  0  0  0  0  0  0  0  0  0
  -22.5230  -14.7434   20.8767 O   0  0  0  0  0  0  0  0  0  0  0  0
  -29.3340  -28.8799   22.9128 O   0  0  0  0  0  0  0  0  0  0  0  0
  -28.5442  -30.6914   19.7050 O   0  0  0  0  0  0  0  0  0  0  0  0
  -32.2322  -12.8545   21.3035 O   0  0  0  0  0  0  0  0  0  0  0  0
  -27.2180  -26.7096   17.4899 O   0  0  0  0  0  0  0  0  0  0  0  0
  -21.4853   -7.0667   21.6374 O   0  0  0  0  0  0  0  0  0  0  0  0
  -31.4314  -22.8638   21.2059 O   0  0  0  0  0  0  0  0  0  1  0  0
  -31.7701  -18.1239   23.1856 O   0  0  0  0  0  0  0  0  0  0  0  0
  -23.4578   -3.2654   25.1106 F   0  0  0  0  0  0  0  0  0  0  0  0
  -20.0711   -6.3427   23.8998 F   0  0  0  0  0  0  0  0  0  0  0  0
  1  2  1  0  0  0  0
  1  5  2  0  0  0  0
  2  6  2  0  0  0  0
  3  8  2  0  0  0  0
  3 17  1  0  0  0  0
  4  9  1  0  0  0  0
  4 17  2  0  0  0  0
  5 19  1  0  0  0  0
  6 21  1  0  0  0  0
  7 10  2  0  0  0  0
  7 20  1  0  0  0  0
  8 23  1  0  0  0  0
  9 23  2  0  0  0  0
 10 24  1  0  0  0  0
 11 12  2  0  0  0  0
 11 25  1  0  0  0  0
 12 27  1  0  0  0  0
 13 22  1  0  0  0  0
 13 24  2  0  0  0  0
 14 27  2  0  0  0  0
 14 28  1  0  0  0  0
 15 26  1  0  0  0  0
 15 65  2  0  0  0  0
 16 26  2  0  0  0  0
 16 67  1  0  0  0  0
 17 29  1  0  0  0  0
 18 29  1  0  0  0  0
 18 30  2  0  0  0  0
 18 31  1  0  0  0  0
 19 21  2  0  0  0  0
 19 36  1  0  0  0  0
 20 22  2  0  0  0  0
 20 37  1  0  0  0  0
 21 45  1  0  0  0  0
 22 38  1  0  0  0  0
 23 81  1  0  0  0  0
 24 82  1  0  0  0  0
 25 28  2  0  0  0  0
 25 81  1  0  0  0  0
 26 83  1  0  0  0  0
 27 84  1  0  0  0  0
 28 85  1  0  0  0  0
 29 66  2  0  0  0  0
 30 68  1  0  0  0  0
 30 71  1  0  0  0  0
 31 72  1  0  0  0  0
 31 76  2  0  0  0  0
 32 46  1  0  0  0  0
 32 73  1  0  0  0  0
 32 77  2  0  0  0  0
 33 60  1  0  0  0  0
 33 69  1  0  0  0  0
 33 78  2  0  0  0  0
 34 63  1  0  0  0  0
 34 70  1  0  0  0  0
 34 79  2  0  0  0  0
 35 61  1  0  0  0  0
 35 74  1  0  0  0  0
 35 80  2  0  0  0  0
 36 39  1  0  0  0  0
 37 46  1  0  0  0  0
 38 69  1  0  0  0  0
 39 41  1  0  0  0  0
 40 42  1  0  0  0  0
 40 43  1  0  0  0  0
 41 45  1  0  0  0  0
 42 47  1  0  0  0  0
 43 70  1  0  0  0  0
 44 47  1  0  0  0  0
 44 70  1  0  0  0  0
 45 73  1  0  0  0  0
 46 69  1  0  0  0  0
 47 68  1  0  0  0  0
 48 61  1  0  0  0  0
 49 62  1  0  0  0  0
 50 63  1  0  0  0  0
 51 63  1  0  0  0  0
 52 64  1  0  0  0  0
 53 64  1  0  0  0  0
 54 64  1  0  0  0  0
 55 75  1  0  0  0  0
 56 57  1  0  0  0  0
 56 58  1  0  0  0  0
 57 59  1  0  0  0  0
 58 82  1  0  0  0  0
 59 83  1  0  0  0  0
 60 64  1  0  0  0  0
 60 74  1  0  0  0  0
 61 75  1  0  0  0  0
 62 63  1  0  0  0  0
 62 67  1  0  0  0  0
 65 67  1  0  0  0  0
 66 68  1  0  0  0  0
M  CHG  1  75   1
M  ISO  4  34 100  58 101  63 100  82 101
M  END
> <Batch ID>
0066

> <Smiles>
CNC(C)C(=O)NC(C(=O)N1Cc2cc([101O:1][101CH2:1]CCCOc3cnn(C(C)[100C:0](C)(C)[100C:0](=O)N4CCCC(n5nc(-c6ccc(Oc7ccc(F)cc7F)cc6)c(C(N)=O)c5N)C4)c3)ccc2CC1C(=O)NC1CCCc2ccccc21)C(C)(C)C

> <Shape>
0.221

> <Color>
0.182

> <Negative vol penalty>
0.000

$$$$

  -OEChem-04052318093D

 90 98  0     1  0  0  0  0  0999 V2000
  -19.6055  -31.3193   23.5747 C   0  0  0  0  0  0  0  0  0  0  0  0
  -20.9395  -30.9244   23.5743 C   0  0  0  0  0  0  0  0  0  0  0  0
  -25.9007  -12.6527   21.9613 C   0  0  0  0  0  0  0  0  0  0  0  0
  -25.8293  -13.2440   19.6199 C   0  0  0  0  0  0  0  0  0  0  0  0
  -18.6089  -30.4046   23.2370 C   0  0  0  0  0  0  0  0  0  0  0  0
  -21.2775  -29.6142   23.2373 C   0  0  0  0  0  0  0  0  0  0  0  0
  -25.2217  -29.3791   20.0698 C   0  0  0  0  0  0  0  0  0  0  0  0
  -24.7705  -11.8527   21.7938 C   0  0  0  0  0  0  0  0  0  0  0  0
  -24.6990  -12.4440   19.4524 C   0  0  0  0  0  0  0  0  0  0  0  0
  -26.4908  -29.5577   20.6188 C   0  0  0  0  0  0  0  0  0  0  0  0
  -21.4276  -12.2859   21.5445 C   0  0  0  0  0  0  0  0  0  0  0  0
  -20.4172  -12.3845   22.5010 C   0  0  0  0  0  0  0  0  0  0  0  0
  -26.8207  -27.1680   20.6180 C   0  0  0  0  0  0  0  0  0  0  0  0
  -20.6781  -10.0391   23.0185 C   0  0  0  0  0  0  0  0  0  0  0  0
  -29.4618  -24.3196   24.6382 C   0  0  0  0  0  0  0  0  0  0  0  0
  -26.4301  -13.3484   20.8744 C   0  0  0  0  0  0  0  0  0  0  0  0
  -28.9431  -13.7862   20.9073 C   0  0  0  0  0  0  0  0  0  0  0  0
  -18.9356  -29.0852   22.8863 C   0  0  0  0  0  0  0  0  0  0  0  0
  -24.7375  -28.0910   19.8004 C   0  0  0  0  0  0  0  0  0  0  0  0
  -20.2842  -28.6807   22.8958 C   0  0  0  0  0  0  0  0  0  0  0  0
  -25.5462  -26.9760   20.0631 C   0  0  0  0  0  0  0  0  0  0  0  0
  -30.1075  -25.4895   24.2938 C   0  0  0  0  0  0  0  0  0  0  0  0
  -24.1696  -11.7483   20.5394 C   0  0  0  0  0  0  0  0  0  0  0  0
  -27.2893  -28.4519   20.8957 C   0  0  0  0  0  0  0  0  0  0  0  0
  -22.0633  -11.0638   21.3249 C   0  0  0  0  0  0  0  0  0  0  0  0
  -20.0425  -11.2612   23.2380 C   0  0  0  0  0  0  0  0  0  0  0  0
  -21.6885   -9.9404   22.0620 C   0  0  0  0  0  0  0  0  0  0  0  0
  -27.5974  -14.1753   21.0469 C   0  0  0  0  0  0  0  0  0  0  0  0
  -30.8388  -25.4458   23.1243 C   0  0  0  0  0  0  0  0  0  0  0  0
  -29.6598  -14.9274   21.1728 C   0  0  0  0  0  0  0  0  0  0  0  0
  -30.2637  -23.2727   22.7867 C   0  0  0  0  0  0  0  0  0  0  0  0
  -29.4958  -12.5075   20.5680 C   0  0  0  0  0  0  0  0  0  0  0  0
  -22.2827  -26.3559   20.8332 C   0  0  0  0  0  0  0  0  0  0  0  0
  -23.2905  -24.2827   18.5511 C   0  0  0  0  0  0  0  0  0  0  0  0
  -29.2814  -20.5656   20.2322 C   0  0  0  0  0  0  0  0  0  0  0  0
  -25.8464  -23.1412   16.5988 C   0  0  0  0  0  0  0  0  0  0  0  0
  -17.8200  -28.1194   22.5744 C   0  0  0  0  0  0  0  0  0  0  0  0
  -23.3769  -27.9167   19.1833 C   0  0  0  0  0  0  0  0  0  0  0  0
  -25.0810  -25.5731   19.7736 C   0  0  0  0  0  0  0  0  0  0  0  0
  -18.2916  -26.8521   21.8661 C   0  0  0  0  0  0  0  0  0  0  0  0
  -28.7414  -19.1587   23.5422 C   0  0  0  0  0  0  0  0  0  0  0  0
  -19.5255  -26.2816   22.5580 C   0  0  0  0  0  0  0  0  0  0  0  0
  -28.4899  -17.6881   23.2119 C   0  0  0  0  0  0  0  0  0  0  0  0
  -28.1718  -20.0808   22.4672 C   0  0  0  0  0  0  0  0  0  0  0  0
  -28.4160  -18.3081   20.7577 C   0  0  0  0  0  0  0  0  0  0  0  0
  -20.6927  -27.2750   22.5119 C   0  0  1  0  0  0  0  0  0  0  0  0
  -22.7829  -26.5329   19.4275 C   0  0  1  0  0  0  0  0  0  0  0  0
  -29.0019  -17.3436   21.8024 C   0  0  2  0  0  0  0  0  0  0  0  0
  -27.3956  -26.7555   25.1588 C   0  0  0  0  0  0  0  0  0  0  0  0
  -26.3754  -21.4119   14.8589 C   0  0  0  0  0  0  0  0  0  0  0  0
  -30.1106  -28.0744   24.3861 C   0  0  0  0  0  0  0  0  0  0  0  0
  -31.1832  -26.7401   26.1785 C   0  0  0  0  0  0  0  0  0  0  0  0
  -32.6713  -27.1985   23.6346 C   0  0  0  0  0  0  0  0  0  0  0  0
  -32.3595  -26.3209   21.3373 C   0  0  0  0  0  0  0  0  0  0  0  0
  -30.1567  -22.7444   19.5283 C   0  0  0  0  0  0  0  0  0  0  0  0
  -28.0754  -22.6208   20.9073 C   0  0  0  0  0  0  0  0  0  0  0  0
  -23.3646  -22.1323   20.7144 C   0  0  0  0  0  0  0  0  0  0  0  0
  -24.7680  -20.7366   19.1812 C   0  0  0  0  0  0  0  0  0  0  0  0
  -22.4485  -21.3692   18.5160 C   0  0  0  0  0  0  0  0  0  0  0  0
  -26.5468  -25.2036   14.5951 C   0  0  0  0  0  0  0  0  0  0  0  0
  -30.3500  -22.0418   21.9491 C   0  0  0  0  0  0  0  0  0  0  0  0
  -28.6737  -26.7572   25.9927 C   0  0  0  0  0  0  0  0  0  0  0  0
  -30.6254  -27.8606   22.3126 C   0  0  0  0  0  0  0  0  0  0  0  0
  -29.2926  -27.4463   21.6905 C   0  0  0  0  0  0  0  0  0  1  0  0
  -24.2636  -23.1293   18.5090 C   0  0  1  0  0  0  0  0  0  0  0  0
  -25.9222  -22.8412   15.1126 C   0  0  2  0  0  0  0  0  0  0  0  0
  -30.0061  -26.7028   25.1441 C   0  0  0  0  0  0  0  0  0  0  0  0
  -31.6024  -26.6906   22.6373 C   0  0  0  0  0  0  0  0  0  0  0  0
  -29.4565  -21.9965   20.6746 C   0  0  0  0  0  0  0  0  0  0  0  0
  -23.7195  -21.8680   19.2375 C   0  0  0  0  0  0  0  0  0  0  0  0
  -29.5185  -23.1883   23.9052 N   0  0  0  0  0  0  0  0  0  0  0  0
  -27.4644  -15.4631   21.3756 N   0  0  0  0  0  0  0  0  0  0  0  0
  -30.9392  -24.3501   22.3435 N   0  0  0  0  0  0  0  0  0  0  0  0
  -28.7358  -15.8930   21.4450 N   0  0  0  0  0  0  0  0  0  0  0  0
  -23.7407  -25.4542   19.1761 N   0  0  0  0  0  0  0  0  0  0  0  0
  -28.6619  -19.7025   21.1364 N   0  0  0  0  0  0  0  0  0  0  0  0
  -30.9839  -15.1890   21.1977 N   0  0  0  0  0  0  0  0  0  0  0  0
  -28.6172  -11.4426   20.3266 N   0  0  0  0  0  0  0  0  0  0  0  0
  -21.3120  -27.2669   21.2040 N   0  0  0  0  0  0  0  0  0  0  0  0
  -24.5825  -22.9153   17.1016 N   0  0  0  0  0  0  0  0  0  0  0  0
  -26.8838  -23.7644   14.4462 N   0  3  0  0  0  0  0  0  0  0  0  0
  -30.7327  -12.3110   20.4974 O   0  0  0  0  0  0  0  0  0  0  0  0
  -22.7421  -25.4582   21.5295 O   0  0  0  0  0  0  0  0  0  0  0  0
  -22.1748  -24.1515   18.0416 O   0  0  0  0  0  0  0  0  0  0  0  0
  -29.6863  -20.2263   19.1172 O   0  0  0  0  0  0  0  0  0  0  0  0
  -26.8127  -23.5328   17.2494 O   0  0  0  0  0  0  0  0  0  0  0  0
  -23.0667  -10.9676   20.3755 O   0  0  0  0  0  0  0  0  0  0  0  0
  -28.5282  -28.6233   21.4322 O   0  0  0  0  0  0  0  0  0  1  0  0
  -19.0732  -11.3564   24.1576 F   0  0  0  0  0  0  0  0  0  0  0  0
  -22.2964   -8.7639   21.8563 F   0  0  0  0  0  0  0  0  0  0  0  0
  1  2  1  0  0  0  0
  1  5  2  0  0  0  0
  2  6  2  0  0  0  0
  3  8  2  0  0  0  0
  3 16  1  0  0  0  0
  4  9  1  0  0  0  0
  4 16  2  0  0  0  0
  5 18  1  0  0  0  0
  6 20  1  0  0  0  0
  7 10  2  0  0  0  0
  7 19  1  0  0  0  0
  8 23  1  0  0  0  0
  9 23  2  0  0  0  0
 10 24  1  0  0  0  0
 11 12  2  0  0  0  0
 11 25  1  0  0  0  0
 12 26  1  0  0  0  0
 13 21  1  0  0  0  0
 13 24  2  0  0  0  0
 14 26  2  0  0  0  0
 14 27  1  0  0  0  0
 15 22  1  0  0  0  0
 15 71  2  0  0  0  0
 16 28  1  0  0  0  0
 17 28  1  0  0  0  0
 17 30  2  0  0  0  0
 17 32  1  0  0  0  0
 18 20  2  0  0  0  0
 18 37  1  0  0  0  0
 19 21  2  0  0  0  0
 19 38  1  0  0  0  0
 20 46  1  0  0  0  0
 21 39  1  0  0  0  0
 22 29  2  0  0  0  0
 22 67  1  0  0  0  0
 23 87  1  0  0  0  0
 24 88  1  0  0  0  0
 25 27  2  0  0  0  0
 25 87  1  0  0  0  0
 26 89  1  0  0  0  0
 27 90  1  0  0  0  0
 28 72  2  0  0  0  0
 29 68  1  0  0  0  0
 29 73  1  0  0  0  0
 30 74  1  0  0  0  0
 30 77  1  0  0  0  0
 31 61  1  0  0  0  0
 31 71  1  0  0  0  0
 31 73  2  0  0  0  0
 32 78  1  0  0  0  0
 32 82  2  0  0  0  0
 33 47  1  0  0  0  0
 33 79  1  0  0  0  0
 33 83  2  0  0  0  0
 34 65  1  0  0  0  0
 34 75  1  0  0  0  0
 34 84  2  0  0  0  0
 35 69  1  0  0  0  0
 35 76  1  0  0  0  0
 35 85  2  0  0  0  0
 36 66  1  0  0  0  0
 36 80  1  0  0  0  0
 36 86  2  0  0  0  0
 37 40  1  0  0  0  0
 38 47  1  0  0  0  0
 39 75  1  0  0  0  0
 40 42  1  0  0  0  0
 41 43  1  0  0  0  0
 41 44  1  0  0  0  0
 42 46  1  0  0  0  0
 43 48  1  0  0  0  0
 44 76  1  0  0  0  0
 45 48  1  0  0  0  0
 45 76  1  0  0  0  0
 46 79  1  0  0  0  0
 47 75  1  0  0  0  0
 48 74  1  0  0  0  0
 49 62  1  0  0  0  0
 50 66  1  0  0  0  0
 51 67  1  0  0  0  0
 52 67  1  0  0  0  0
 53 68  1  0  0  0  0
 54 68  1  0  0  0  0
 55 69  1  0  0  0  0
 56 69  1  0  0  0  0
 57 70  1  0  0  0  0
 58 70  1  0  0  0  0
 59 70  1  0  0  0  0
 60 81  1  0  0  0  0
 61 69  1  0  0  0  0
 62 67  1  0  0  0  0
 63 64  1  0  0  0  0
 63 68  1  0  0  0  0
 64 88  1  0  0  0  0
 65 70  1  0  0  0  0
 65 80  1  0  0  0  0
 66 81  1  0  0  0  0
 72 74  1  0  0  0  0
M  CHG  1  81   1
M  ISO  4  35 100  64 101  69 100  88 101
M  END
> <Batch ID>
0066

> <Smiles>
CCC(C)(C)c1cnc(C[100C:0](C)(C)[100C:0](=O)N2CCCC(n3nc(-c4ccc(Oc5ccc(F)cc5F)cc4)c(C(N)=O)c3N)C2)nc1C(C)(C)C[101CH2:1][101O:1]c1ccc2c(c1)CN(C(=O)C(NC(=O)C(C)NC)C(C)(C)C)C(C(=O)NC1CCCc3ccccc31)C2

> <Shape>
0.251

> <Color>
0.063

> <Negative vol penalty>
0.000

$$$$
