
  -OEChem-04052318123D

 90 98  0     1  0  0  0  0  0999 V2000
  -25.8657  -32.3632   14.0429 C   0  0  0  0  0  0  0  0  0  0  0  0
  -26.3191  -31.3458   14.8764 C   0  0  0  0  0  0  0  0  0  0  0  0
  -24.7497   -8.7354   21.5029 C   0  0  0  0  0  0  0  0  0  0  0  0
  -23.2935   -9.8563   19.9343 C   0  0  0  0  0  0  0  0  0  0  0  0
  -25.6302  -33.6354   14.5622 C   0  0  0  0  0  0  0  0  0  0  0  0
  -26.5384  -31.6005   16.2298 C   0  0  0  0  0  0  0  0  0  0  0  0
  -24.6826  -27.9574   19.2178 C   0  0  0  0  0  0  0  0  0  0  0  0
  -23.6722   -7.9775   21.9615 C   0  0  0  0  0  0  0  0  0  0  0  0
  -22.2161   -9.0984   20.3929 C   0  0  0  0  0  0  0  0  0  0  0  0
  -25.4256  -26.7826   19.3259 C   0  0  0  0  0  0  0  0  0  0  0  0
  -21.9270   -5.2632   20.9518 C   0  0  0  0  0  0  0  0  0  0  0  0
  -22.1268   -3.8944   21.1310 C   0  0  0  0  0  0  0  0  0  0  0  0
  -26.3151  -27.5464   21.4341 C   0  0  0  0  0  0  0  0  0  0  0  0
  -21.5781   -4.1208   23.4729 C   0  0  0  0  0  0  0  0  0  0  0  0
  -31.8498  -20.6111   20.6933 C   0  0  0  0  0  0  0  0  0  0  0  0
  -24.5603   -9.6749   20.4893 C   0  0  0  0  0  0  0  0  0  0  0  0
  -26.5542  -10.1358   18.9663 C   0  0  0  0  0  0  0  0  0  0  0  0
  -25.8374  -33.9034   15.9245 C   0  0  0  0  0  0  0  0  0  0  0  0
  -24.7589  -28.9419   20.2134 C   0  0  0  0  0  0  0  0  0  0  0  0
  -26.3067  -32.8780   16.7676 C   0  0  0  0  0  0  0  0  0  0  0  0
  -25.5702  -28.7316   21.3375 C   0  0  0  0  0  0  0  0  0  0  0  0
  -22.4055   -8.1590   21.4065 C   0  0  0  0  0  0  0  0  0  0  0  0
  -26.2442  -26.5782   20.4328 C   0  0  0  0  0  0  0  0  0  0  0  0
  -21.5527   -6.0608   22.0333 C   0  0  0  0  0  0  0  0  0  0  0  0
  -21.9524   -3.3232   22.3915 C   0  0  0  0  0  0  0  0  0  0  0  0
  -21.3783   -5.4896   23.2938 C   0  0  0  0  0  0  0  0  0  0  0  0
  -25.6728  -10.4585   20.0155 C   0  0  0  0  0  0  0  0  0  0  0  0
  -31.0686  -21.5187   20.0354 C   0  0  0  0  0  0  0  0  0  0  0  0
  -27.4265  -11.1955   18.9126 C   0  0  0  0  0  0  0  0  0  0  0  0
  -30.5928  -19.5068   19.2438 C   0  0  0  0  0  0  0  0  0  0  0  0
  -26.5821   -8.9816   18.1163 C   0  0  0  0  0  0  0  0  0  0  0  0
  -25.6989  -31.9772   20.2992 C   0  0  0  0  0  0  0  0  0  0  0  0
  -24.5685  -31.8348   23.3363 C   0  0  0  0  0  0  0  0  0  0  0  0
  -23.7930  -29.9193   26.0522 C   0  0  0  0  0  0  0  0  0  0  0  0
  -28.5486  -16.4587   18.8956 C   0  0  0  0  0  0  0  0  0  0  0  0
  -25.6142  -35.3065   16.4306 C   0  0  0  0  0  0  0  0  0  0  0  0
  -23.9306  -30.1919   20.0949 C   0  0  0  0  0  0  0  0  0  0  0  0
  -25.6716  -29.7487   22.4438 C   0  0  0  0  0  0  0  0  0  0  0  0
  -25.5132  -35.3968   17.9511 C   0  0  0  0  0  0  0  0  0  0  0  0
  -28.1588  -15.0377   22.1051 C   0  0  0  0  0  0  0  0  0  0  0  0
  -26.6320  -34.5953   18.6089 C   0  0  0  0  0  0  0  0  0  0  0  0
  -27.5358  -13.6849   21.7635 C   0  0  0  0  0  0  0  0  0  0  0  0
  -27.6020  -16.1637   21.2319 C   0  0  0  0  0  0  0  0  0  0  0  0
  -27.0746  -14.5439   19.4373 C   0  0  0  0  0  0  0  0  0  0  0  0
  -26.5326  -33.1087   18.2460 C   0  0  1  0  0  0  0  0  0  0  0  0
  -24.4801  -31.3531   20.9177 C   0  0  1  0  0  0  0  0  0  0  0  0
  -27.6607  -13.3858   20.2595 C   0  0  2  0  0  0  0  0  0  0  0  0
  -35.5038  -16.3721   19.8424 C   0  0  0  0  0  0  0  0  0  0  0  0
  -29.5373  -18.8771   17.0414 C   0  0  0  0  0  0  0  0  0  0  0  0
  -22.9244  -30.0907   28.4003 C   0  0  0  0  0  0  0  0  0  0  0  0
  -27.2840  -32.8732   24.2625 C   0  0  0  0  0  0  0  0  0  0  0  0
  -26.6997  -32.1296   26.5807 C   0  0  0  0  0  0  0  0  0  0  0  0
  -25.3239  -33.8757   25.4488 C   0  0  0  0  0  0  0  0  0  0  0  0
  -27.6896  -22.9640   23.3108 C   0  0  0  0  0  0  0  0  0  0  0  0
  -26.0770  -22.7734   21.4133 C   0  0  0  0  0  0  0  0  0  0  0  0
  -27.9365  -18.7405   19.8030 C   0  0  0  0  0  0  0  0  0  0  0  0
  -21.4382  -28.2390   25.4273 C   0  0  0  0  0  0  0  0  0  0  0  0
  -30.9647  -23.0182   20.1581 C   0  0  0  0  0  0  0  0  0  0  0  0
  -34.1322  -16.5949   20.4592 C   0  0  0  0  0  0  0  0  0  0  0  0
  -29.9253  -23.4870   21.1860 C   0  0  0  0  0  0  0  0  0  0  0  0
  -33.5266  -17.9245   20.0124 C   0  0  0  0  0  0  0  0  0  0  0  0
  -28.5186  -22.9399   20.8998 C   0  0  0  0  0  0  0  0  0  0  0  0
  -32.1320  -18.1227   20.6043 C   0  0  0  0  0  0  0  0  0  0  0  0
  -27.2428  -24.9576   21.8584 C   0  0  0  0  0  0  0  0  0  1  0  0
  -29.9712  -18.4212   18.4451 C   0  0  2  0  0  0  0  0  0  0  0  0
  -25.1551  -31.4733   24.6795 C   0  0  1  0  0  0  0  0  0  0  0  0
  -22.5612  -29.8802   26.9386 C   0  0  2  0  0  0  0  0  0  0  0  0
  -26.1155  -32.5694   25.2213 C   0  0  0  0  0  0  0  0  0  0  0  0
  -27.4021  -23.4218   21.8698 C   0  0  0  0  0  0  0  0  0  0  0  0
  -25.9589  -11.6312   20.5872 N   0  0  0  0  0  0  0  0  0  0  0  0
  -31.5342  -19.3745   20.1839 N   0  0  0  0  0  0  0  0  0  0  0  0
  -27.0301  -12.0547   19.8948 N   0  0  0  0  0  0  0  0  0  0  0  0
  -30.3012  -20.8078   19.1445 N   0  3  0  0  0  0  0  0  0  0  0  0
  -24.8472  -30.9573   22.2789 N   0  0  0  0  0  0  0  0  0  0  0  0
  -27.6971  -15.8174   19.8072 N   0  0  0  0  0  0  0  0  0  0  0  0
  -28.4862  -11.4667   18.1215 N   0  0  0  0  0  0  0  0  0  0  0  0
  -25.6125   -7.9877   18.3073 N   0  0  0  0  0  0  0  0  0  0  0  0
  -25.4941  -32.4670   19.0234 N   0  0  0  0  0  0  0  0  0  0  0  0
  -24.0240  -31.1843   25.5545 N   0  0  0  0  0  0  0  0  0  0  0  0
  -28.8424  -17.8100   19.1324 N   0  0  0  0  0  0  0  0  0  0  0  0
  -21.8722  -28.5650   26.8102 N   0  3  0  0  0  0  0  0  0  0  0  0
  -27.4512   -8.8281   17.2249 O   0  0  0  0  0  0  0  0  0  0  0  0
  -26.7471  -32.0131   20.9330 O   0  0  0  0  0  0  0  0  0  0  0  0
  -23.8822  -32.8544   23.2308 O   0  0  0  0  0  0  0  0  0  0  0  0
  -24.4834  -28.9278   25.8272 O   0  0  0  0  0  0  0  0  0  0  0  0
  -29.0155  -15.8598   17.9181 O   0  0  0  0  0  0  0  0  0  0  0  0
  -21.3539   -7.4194   21.8537 O   0  0  0  0  0  0  0  0  0  0  0  0
  -26.9709  -25.4327   20.5406 O   0  0  0  0  0  0  0  0  0  1  0  0
  -22.1428   -2.0085   22.5630 F   0  0  0  0  0  0  0  0  0  0  0  0
  -21.0176   -6.2505   24.3362 F   0  0  0  0  0  0  0  0  0  0  0  0
  1  2  1  0  0  0  0
  1  5  2  0  0  0  0
  2  6  2  0  0  0  0
  3  8  2  0  0  0  0
  3 16  1  0  0  0  0
  4  9  1  0  0  0  0
  4 16  2  0  0  0  0
  5 18  1  0  0  0  0
  6 20  1  0  0  0  0
  7 10  2  0  0  0  0
  7 19  1  0  0  0  0
  8 22  1  0  0  0  0
  9 22  2  0  0  0  0
 10 23  1  0  0  0  0
 11 12  2  0  0  0  0
 11 24  1  0  0  0  0
 12 25  1  0  0  0  0
 13 21  1  0  0  0  0
 13 23  2  0  0  0  0
 14 25  2  0  0  0  0
 14 26  1  0  0  0  0
 15 28  2  0  0  0  0
 15 71  1  0  0  0  0
 16 27  1  0  0  0  0
 17 27  1  0  0  0  0
 17 29  2  0  0  0  0
 17 31  1  0  0  0  0
 18 20  2  0  0  0  0
 18 36  1  0  0  0  0
 19 21  2  0  0  0  0
 19 37  1  0  0  0  0
 20 45  1  0  0  0  0
 21 38  1  0  0  0  0
 22 87  1  0  0  0  0
 23 88  1  0  0  0  0
 24 26  2  0  0  0  0
 24 87  1  0  0  0  0
 25 89  1  0  0  0  0
 26 90  1  0  0  0  0
 27 70  2  0  0  0  0
 28 58  1  0  0  0  0
 28 73  1  0  0  0  0
 29 72  1  0  0  0  0
 29 76  1  0  0  0  0
 30 65  1  0  0  0  0
 30 71  1  0  0  0  0
 30 73  2  0  0  0  0
 31 77  1  0  0  0  0
 31 82  2  0  0  0  0
 32 46  1  0  0  0  0
 32 78  1  0  0  0  0
 32 83  2  0  0  0  0
 33 66  1  0  0  0  0
 33 74  1  0  0  0  0
 33 84  2  0  0  0  0
 34 67  1  0  0  0  0
 34 79  1  0  0  0  0
 34 85  2  0  0  0  0
 35 75  1  0  0  0  0
 35 80  1  0  0  0  0
 35 86  2  0  0  0  0
 36 39  1  0  0  0  0
 37 46  1  0  0  0  0
 38 74  1  0  0  0  0
 39 41  1  0  0  0  0
 40 42  1  0  0  0  0
 40 43  1  0  0  0  0
 41 45  1  0  0  0  0
 42 47  1  0  0  0  0
 43 75  1  0  0  0  0
 44 47  1  0  0  0  0
 44 75  1  0  0  0  0
 45 78  1  0  0  0  0
 46 74  1  0  0  0  0
 47 72  1  0  0  0  0
 48 59  1  0  0  0  0
 49 65  1  0  0  0  0
 50 67  1  0  0  0  0
 51 68  1  0  0  0  0
 52 68  1  0  0  0  0
 53 68  1  0  0  0  0
 54 69  1  0  0  0  0
 55 69  1  0  0  0  0
 56 80  1  0  0  0  0
 57 81  1  0  0  0  0
 58 60  1  0  0  0  0
 59 61  1  0  0  0  0
 60 62  1  0  0  0  0
 61 63  1  0  0  0  0
 62 69  1  0  0  0  0
 63 71  1  0  0  0  0
 64 69  1  0  0  0  0
 64 88  1  0  0  0  0
 65 80  1  0  0  0  0
 66 68  1  0  0  0  0
 66 79  1  0  0  0  0
 67 81  1  0  0  0  0
 70 72  1  0  0  0  0
M  CHG  2  73   1  81   1
M  ISO  4  35 100  64 101  80 100  88 101
M  END
> <Batch ID>
0067

> <Smiles>
CCCCn1cc(CCCC(C)(C)[101CH2:1][101O:1]c2ccc3c(c2)CN(C(=O)C(NC(=O)C(C)NC)C(C)(C)C)C(C(=O)NC2CCCc4ccccc42)C3)nc1C(C)[100N:0](C)[100C:0](=O)N1CCCC(n2nc(-c3ccc(Oc4ccc(F)cc4F)cc3)c(C(N)=O)c2N)C1

> <Shape>
0.267

> <Color>
0.084

> <Negative vol penalty>
0.000

$$$$

  -OEChem-04052318123D

 87 95  0     1  0  0  0  0  0999 V2000
  -30.9056  -12.3890   17.1657 C   0  0  0  0  0  0  0  0  0  0  0  0
  -30.5061  -13.7094   17.3451 C   0  0  0  0  0  0  0  0  0  0  0  0
  -20.8955  -24.3743   20.7344 C   0  0  0  0  0  0  0  0  0  0  0  0
  -19.3597  -26.0282   21.5965 C   0  0  0  0  0  0  0  0  0  0  0  0
  -30.0701  -11.3482   17.5689 C   0  0  0  0  0  0  0  0  0  0  0  0
  -29.2703  -13.9899   17.9269 C   0  0  0  0  0  0  0  0  0  0  0  0
  -29.5494  -17.6571   21.4081 C   0  0  0  0  0  0  0  0  0  0  0  0
  -20.1966  -23.3735   21.4092 C   0  0  0  0  0  0  0  0  0  0  0  0
  -18.6607  -25.0273   22.2713 C   0  0  0  0  0  0  0  0  0  0  0  0
  -29.6213  -18.9702   20.9453 C   0  0  0  0  0  0  0  0  0  0  0  0
  -17.3470  -21.6042   20.9824 C   0  0  0  0  0  0  0  0  0  0  0  0
  -17.0626  -20.4296   20.2858 C   0  0  0  0  0  0  0  0  0  0  0  0
  -27.2645  -19.2461   21.3796 C   0  0  0  0  0  0  0  0  0  0  0  0
  -18.3162  -19.1601   21.9149 C   0  0  0  0  0  0  0  0  0  0  0  0
  -29.6103  -27.4258   21.8099 C   0  0  0  0  0  0  0  0  0  0  0  0
  -20.4771  -25.7017   20.8281 C   0  0  0  0  0  0  0  0  0  0  0  0
  -20.9664  -27.2021   18.8238 C   0  0  0  0  0  0  0  0  0  0  0  0
  -28.8276  -11.6161   18.1648 C   0  0  0  0  0  0  0  0  0  0  0  0
  -28.3301  -17.1242   21.8507 C   0  0  0  0  0  0  0  0  0  0  0  0
  -28.4168  -12.9517   18.3373 C   0  0  0  0  0  0  0  0  0  0  0  0
  -27.1803  -17.9267   21.8500 C   0  0  0  0  0  0  0  0  0  0  0  0
  -19.0791  -23.6999   22.1776 C   0  0  0  0  0  0  0  0  0  0  0  0
  -28.4782  -19.7640   20.9282 C   0  0  0  0  0  0  0  0  0  0  0  0
  -18.1160  -21.5567   22.1452 C   0  0  0  0  0  0  0  0  0  0  0  0
  -17.5472  -19.2076   20.7521 C   0  0  0  0  0  0  0  0  0  0  0  0
  -18.6006  -20.3346   22.6114 C   0  0  0  0  0  0  0  0  0  0  0  0
  -21.1990  -26.7361   20.1317 C   0  0  0  0  0  0  0  0  0  0  0  0
  -31.1698  -25.9542   21.0152 C   0  0  0  0  0  0  0  0  0  0  0  0
  -30.5057  -25.9013   19.8095 C   0  0  0  0  0  0  0  0  0  0  0  0
  -28.9465  -27.3737   20.6040 C   0  0  0  0  0  0  0  0  0  0  0  0
  -21.9120  -28.1801   18.6345 C   0  0  0  0  0  0  0  0  0  0  0  0
  -19.9834  -26.7880   17.8657 C   0  0  0  0  0  0  0  0  0  0  0  0
  -26.4634  -14.7237   20.9251 C   0  0  0  0  0  0  0  0  0  0  0  0
  -24.8032  -15.4964   23.6026 C   0  0  0  0  0  0  0  0  0  0  0  0
  -23.9923  -17.8591   25.9280 C   0  0  0  0  0  0  0  0  0  0  0  0
  -27.2595  -28.9763   21.4875 C   0  0  0  0  0  0  0  0  0  0  0  0
  -27.9382  -10.4576   18.5412 C   0  0  0  0  0  0  0  0  0  0  0  0
  -28.2747  -15.7144   22.3720 C   0  0  0  0  0  0  0  0  0  0  0  0
  -25.8513  -17.4085   22.3335 C   0  0  0  0  0  0  0  0  0  0  0  0
  -26.8071  -10.8419   19.4916 C   0  0  0  0  0  0  0  0  0  0  0  0
  -24.5164  -31.3985   21.0202 C   0  0  0  0  0  0  0  0  0  0  0  0
  -26.1169  -12.1151   19.0127 C   0  0  0  0  0  0  0  0  0  0  0  0
  -23.3234  -30.5026   20.6913 C   0  0  0  0  0  0  0  0  0  0  0  0
  -25.5252  -30.6914   21.9204 C   0  0  0  0  0  0  0  0  0  0  0  0
  -24.8049  -28.4875   21.0518 C   0  0  0  0  0  0  0  0  0  0  0  0
  -27.0943  -13.2964   18.9872 C   0  0  1  0  0  0  0  0  0  0  0  0
  -26.8743  -15.1117   22.3173 C   0  0  1  0  0  0  0  0  0  0  0  0
  -23.7915  -29.1568   20.1111 C   0  0  1  0  0  0  0  0  0  0  0  0
  -32.2799  -24.2175   22.4429 C   0  0  0  0  0  0  0  0  0  0  0  0
  -30.4267  -24.3214   16.1937 C   0  0  0  0  0  0  0  0  0  0  0  0
  -22.5820  -18.2063   27.9744 C   0  0  0  0  0  0  0  0  0  0  0  0
  -32.4413  -25.3926   18.1662 C   0  0  0  0  0  0  0  0  0  0  0  0
  -22.3139  -15.6987   21.8498 C   0  0  0  0  0  0  0  0  0  0  0  0
  -21.1901  -16.9415   23.7100 C   0  0  0  0  0  0  0  0  0  0  0  0
  -21.9454  -14.5902   24.0610 C   0  0  0  0  0  0  0  0  0  0  0  0
  -27.1804  -28.3051   19.0974 C   0  0  0  0  0  0  0  0  0  0  0  0
  -26.3615  -18.4395   27.6040 C   0  0  0  0  0  0  0  0  0  0  0  0
  -32.4121  -25.1654   21.2533 C   0  0  0  0  0  0  0  0  0  0  0  0
  -30.0452  -25.1412   17.4237 C   0  0  0  0  0  0  0  0  0  0  0  0
  -29.6776  -22.9520   19.5531 C   0  0  0  0  0  0  0  0  0  0  0  0
  -31.0233  -23.5155   19.0787 C   0  0  0  0  0  0  0  0  0  0  0  0
  -29.8196  -21.5127   20.0346 C   0  0  0  0  0  0  0  0  0  1  0  0
  -23.6663  -16.4371   23.9214 C   0  0  1  0  0  0  0  0  0  0  0  0
  -23.9504  -17.8070   27.4445 C   0  0  2  0  0  0  0  0  0  0  0  0
  -31.0155  -25.0243   18.6491 C   0  0  2  0  0  0  0  0  0  0  0  0
  -22.3034  -15.9263   23.3746 C   0  0  0  0  0  0  0  0  0  0  0  0
  -30.7339  -26.7171   22.0371 N   0  0  0  0  0  0  0  0  0  0  0  0
  -22.2129  -27.3661   20.7308 N   0  0  0  0  0  0  0  0  0  0  0  0
  -29.3823  -26.6104   19.5821 N   0  0  0  0  0  0  0  0  0  0  0  0
  -22.6259  -28.2380   19.7952 N   0  0  0  0  0  0  0  0  0  0  0  0
  -25.8470  -16.0218   22.8278 N   0  0  0  0  0  0  0  0  0  0  0  0
  -25.9189  -29.3945   21.3684 N   0  0  0  0  0  0  0  0  0  0  0  0
  -22.1941  -28.9876   17.5901 N   0  0  0  0  0  0  0  0  0  0  0  0
  -19.0891  -25.7699   18.2235 N   0  0  0  0  0  0  0  0  0  0  0  0
  -27.3052  -13.8069   20.3249 N   0  0  0  0  0  0  0  0  0  0  0  0
  -23.6938  -16.6356   25.3665 N   0  0  0  0  0  0  0  0  0  0  0  0
  -27.7493  -28.1642   20.4418 N   0  0  0  0  0  0  0  0  0  0  0  0
  -24.9664  -18.7314   28.0228 N   0  3  0  0  0  0  0  0  0  0  0  0
  -19.9111  -27.2941   16.7202 O   0  0  0  0  0  0  0  0  0  0  0  0
  -25.4562  -15.2184   20.4324 O   0  0  0  0  0  0  0  0  0  0  0  0
  -24.7699  -14.3403   24.0314 O   0  0  0  0  0  0  0  0  0  0  0  0
  -24.2593  -18.8836   25.3037 O   0  0  0  0  0  0  0  0  0  0  0  0
  -27.9701  -29.3259   22.4376 O   0  0  0  0  0  0  0  0  0  0  0  0
  -18.3967  -22.7236   22.8360 O   0  0  0  0  0  0  0  0  0  0  0  0
  -28.5455  -21.0459   20.4764 O   0  0  0  0  0  0  0  0  0  1  0  0
  -17.2728  -18.0796   20.0839 F   0  0  0  0  0  0  0  0  0  0  0  0
  -19.3389  -20.2826   23.7286 F   0  0  0  0  0  0  0  0  0  0  0  0
  1  2  1  0  0  0  0
  1  5  2  0  0  0  0
  2  6  2  0  0  0  0
  3  8  2  0  0  0  0
  3 16  1  0  0  0  0
  4  9  1  0  0  0  0
  4 16  2  0  0  0  0
  5 18  1  0  0  0  0
  6 20  1  0  0  0  0
  7 10  2  0  0  0  0
  7 19  1  0  0  0  0
  8 22  1  0  0  0  0
  9 22  2  0  0  0  0
 10 23  1  0  0  0  0
 11 12  2  0  0  0  0
 11 24  1  0  0  0  0
 12 25  1  0  0  0  0
 13 21  1  0  0  0  0
 13 23  2  0  0  0  0
 14 25  2  0  0  0  0
 14 26  1  0  0  0  0
 15 30  1  0  0  0  0
 15 67  2  0  0  0  0
 16 27  1  0  0  0  0
 17 27  1  0  0  0  0
 17 31  2  0  0  0  0
 17 32  1  0  0  0  0
 18 20  2  0  0  0  0
 18 37  1  0  0  0  0
 19 21  2  0  0  0  0
 19 38  1  0  0  0  0
 20 46  1  0  0  0  0
 21 39  1  0  0  0  0
 22 84  1  0  0  0  0
 23 85  1  0  0  0  0
 24 26  2  0  0  0  0
 24 84  1  0  0  0  0
 25 86  1  0  0  0  0
 26 87  1  0  0  0  0
 27 68  2  0  0  0  0
 28 29  2  0  0  0  0
 28 58  1  0  0  0  0
 28 67  1  0  0  0  0
 29 65  1  0  0  0  0
 29 69  1  0  0  0  0
 30 69  2  0  0  0  0
 30 77  1  0  0  0  0
 31 70  1  0  0  0  0
 31 73  1  0  0  0  0
 32 74  1  0  0  0  0
 32 79  2  0  0  0  0
 33 47  1  0  0  0  0
 33 75  1  0  0  0  0
 33 80  2  0  0  0  0
 34 63  1  0  0  0  0
 34 71  1  0  0  0  0
 34 81  2  0  0  0  0
 35 64  1  0  0  0  0
 35 76  1  0  0  0  0
 35 82  2  0  0  0  0
 36 72  1  0  0  0  0
 36 77  1  0  0  0  0
 36 83  2  0  0  0  0
 37 40  1  0  0  0  0
 38 47  1  0  0  0  0
 39 71  1  0  0  0  0
 40 42  1  0  0  0  0
 41 43  1  0  0  0  0
 41 44  1  0  0  0  0
 42 46  1  0  0  0  0
 43 48  1  0  0  0  0
 44 72  1  0  0  0  0
 45 48  1  0  0  0  0
 45 72  1  0  0  0  0
 46 75  1  0  0  0  0
 47 71  1  0  0  0  0
 48 70  1  0  0  0  0
 49 58  1  0  0  0  0
 50 59  1  0  0  0  0
 51 64  1  0  0  0  0
 52 65  1  0  0  0  0
 53 66  1  0  0  0  0
 54 66  1  0  0  0  0
 55 66  1  0  0  0  0
 56 77  1  0  0  0  0
 57 78  1  0  0  0  0
 59 65  1  0  0  0  0
 60 61  1  0  0  0  0
 60 62  1  0  0  0  0
 61 65  1  0  0  0  0
 62 85  1  0  0  0  0
 63 66  1  0  0  0  0
 63 76  1  0  0  0  0
 64 78  1  0  0  0  0
 68 70  1  0  0  0  0
M  CHG  1  78   1
M  ISO  4  36 100  62 101  77 100  85 101
M  END
> <Batch ID>
0067

> <Smiles>
CCc1ncc([100N:0](C)[100C:0](=O)N2CCCC(n3nc(-c4ccc(Oc5ccc(F)cc5F)cc4)c(C(N)=O)c3N)C2)nc1C(C)(CC)CC[101CH2:1][101O:1]c1ccc2c(c1)CN(C(=O)C(NC(=O)C(C)NC)C(C)(C)C)C(C(=O)NC1CCCc3ccccc31)C2

> <Shape>
0.221

> <Color>
0.046

> <Negative vol penalty>
0.000

$$$$

  -OEChem-04052318123D

 87 95  0     1  0  0  0  0  0999 V2000
  -32.2570  -14.5128   19.0928 C   0  0  0  0  0  0  0  0  0  0  0  0
  -31.3589  -15.5752   19.0929 C   0  0  0  0  0  0  0  0  0  0  0  0
  -29.0093  -26.5139   20.8342 C   0  0  0  0  0  0  0  0  0  0  0  0
  -27.0762  -25.1946   20.2346 C   0  0  0  0  0  0  0  0  0  0  0  0
  -31.7922  -13.2085   19.2562 C   0  0  0  0  0  0  0  0  0  0  0  0
  -29.9951  -15.3338   19.2552 C   0  0  0  0  0  0  0  0  0  0  0  0
  -25.9465  -18.8937   22.1606 C   0  0  0  0  0  0  0  0  0  0  0  0
  -29.7134  -25.3471   21.1315 C   0  0  0  0  0  0  0  0  0  0  0  0
  -27.7804  -24.0277   20.5319 C   0  0  0  0  0  0  0  0  0  0  0  0
  -25.0233  -19.8321   21.7015 C   0  0  0  0  0  0  0  0  0  0  0  0
  -29.1867  -20.6849   20.7887 C   0  0  0  0  0  0  0  0  0  0  0  0
  -29.0979  -19.6252   19.8861 C   0  0  0  0  0  0  0  0  0  0  0  0
  -23.2980  -18.1467   21.7442 C   0  0  0  0  0  0  0  0  0  0  0  0
  -30.0311  -21.0243   18.1516 C   0  0  0  0  0  0  0  0  0  0  0  0
  -27.6907  -26.4376   20.3858 C   0  0  0  0  0  0  0  0  0  0  0  0
  -26.8965  -28.3032   18.8376 C   0  0  0  0  0  0  0  0  0  0  0  0
  -30.4231  -12.9518   19.4303 C   0  0  0  0  0  0  0  0  0  0  0  0
  -25.5541  -17.5698   22.4050 C   0  0  0  0  0  0  0  0  0  0  0  0
  -29.5114  -14.0247   19.4197 C   0  0  0  0  0  0  0  0  0  0  0  0
  -24.2176  -17.1941   22.2089 C   0  0  0  0  0  0  0  0  0  0  0  0
  -29.0990  -24.1041   20.9804 C   0  0  0  0  0  0  0  0  0  0  0  0
  -23.6994  -19.4580   21.4904 C   0  0  0  0  0  0  0  0  0  0  0  0
  -29.6976  -21.9144   20.3727 C   0  0  0  0  0  0  0  0  0  0  0  0
  -29.5201  -19.7948   18.5676 C   0  0  0  0  0  0  0  0  0  0  0  0
  -30.1199  -22.0840   19.0542 C   0  0  0  0  0  0  0  0  0  0  0  0
  -26.9626  -27.6426   20.0790 C   0  0  0  0  0  0  0  0  0  0  0  0
  -26.0845  -29.3867   19.0681 C   0  0  0  0  0  0  0  0  0  0  0  0
  -18.2991  -24.6256   21.4514 C   0  0  0  0  0  0  0  0  0  0  0  0
  -20.3451  -25.0927   20.6562 C   0  0  0  0  0  0  0  0  0  0  0  0
  -19.6403  -26.0390   22.5654 C   0  0  0  0  0  0  0  0  0  0  0  0
  -27.5139  -27.9674   17.5879 C   0  0  0  0  0  0  0  0  0  0  0  0
  -26.3606  -14.7351   21.2144 C   0  0  0  0  0  0  0  0  0  0  0  0
  -24.4339  -13.6295   23.5783 C   0  0  0  0  0  0  0  0  0  0  0  0
  -21.8395  -14.2197   25.7154 C   0  0  0  0  0  0  0  0  0  0  0  0
  -21.7820  -30.4762   23.0871 C   0  0  0  0  0  0  0  0  0  0  0  0
  -29.9629  -11.5210   19.5559 C   0  0  0  0  0  0  0  0  0  0  0  0
  -26.5562  -16.5762   22.9256 C   0  0  0  0  0  0  0  0  0  0  0  0
  -23.7411  -15.7904   22.4757 C   0  0  0  0  0  0  0  0  0  0  0  0
  -28.5422  -11.3834   20.0971 C   0  0  0  0  0  0  0  0  0  0  0  0
  -24.7382  -32.3849   22.5450 C   0  0  0  0  0  0  0  0  0  0  0  0
  -27.6031  -12.3506   19.3834 C   0  0  0  0  0  0  0  0  0  0  0  0
  -25.6376  -31.4455   21.7396 C   0  0  0  0  0  0  0  0  0  0  0  0
  -23.9185  -31.6262   23.5863 C   0  0  0  0  0  0  0  0  0  0  0  0
  -24.0297  -29.5600   22.2476 C   0  0  0  0  0  0  0  0  0  0  0  0
  -28.0272  -13.8054   19.6178 C   0  0  1  0  0  0  0  0  0  0  0  0
  -26.1606  -15.1287   22.6507 C   0  0  1  0  0  0  0  0  0  0  0  0
  -24.8347  -30.2719   21.1469 C   0  0  2  0  0  0  0  0  0  0  0  0
  -17.0000  -23.9045   21.3292 C   0  0  0  0  0  0  0  0  0  0  0  0
  -20.4679  -13.1128   27.5017 C   0  0  0  0  0  0  0  0  0  0  0  0
  -22.9255  -12.0571   21.4423 C   0  0  0  0  0  0  0  0  0  0  0  0
  -21.0573  -11.7568   23.0818 C   0  0  0  0  0  0  0  0  0  0  0  0
  -23.3123  -10.8116   23.5762 C   0  0  0  0  0  0  0  0  0  0  0  0
  -17.6958  -28.2652   23.5997 C   0  0  0  0  0  0  0  0  0  0  0  0
  -19.5697  -29.0949   25.0116 C   0  0  0  0  0  0  0  0  0  0  0  0
  -22.6743  -16.2027   27.7476 C   0  0  0  0  0  0  0  0  0  0  0  0
  -21.4123  -24.9069   19.6073 C   0  0  0  0  0  0  0  0  0  0  0  0
  -19.8844  -26.9439   23.7247 C   0  0  0  0  0  0  0  0  0  0  0  0
  -22.5624  -23.9950   20.0489 C   0  0  0  0  0  0  0  0  0  0  0  0
  -22.1138  -22.5610   20.3341 C   0  0  0  0  0  0  0  0  0  0  0  0
  -19.7257  -29.2198   22.4933 C   0  0  0  0  0  0  0  0  0  0  0  0
  -23.2740  -21.6960   20.8077 C   0  0  0  0  0  0  0  0  0  1  0  0
  -22.9627  -13.3126   23.6980 C   0  0  1  0  0  0  0  0  0  0  0  0
  -21.6860  -13.9738   27.2055 C   0  0  2  0  0  0  0  0  0  0  0  0
  -22.5735  -12.0106   22.9426 C   0  0  0  0  0  0  0  0  0  0  0  0
  -19.2322  -28.3697   23.6885 C   0  0  0  0  0  0  0  0  0  0  0  0
  -26.2495  -28.2553   21.0278 N   0  0  0  0  0  0  0  0  0  0  0  0
  -19.2015  -24.4116   20.4802 N   0  0  0  0  0  0  0  0  0  0  0  0
  -18.4479  -25.4232   22.5215 N   0  0  0  0  0  0  0  0  0  0  0  0
  -20.6352  -25.9226   21.6712 N   0  0  0  0  0  0  0  0  0  0  0  0
  -25.7277  -29.3123   20.3824 N   0  0  0  0  0  0  0  0  0  0  0  0
  -24.7600  -14.8537   22.9776 N   0  0  0  0  0  0  0  0  0  0  0  0
  -23.1798  -30.5275   22.9593 N   0  0  0  0  0  0  0  0  0  0  0  0
  -25.6481  -30.3863   18.2727 N   0  0  0  0  0  0  0  0  0  0  0  0
  -28.3169  -26.8203   17.5263 N   0  0  0  0  0  0  0  0  0  0  0  0
  -27.6219  -14.2439   20.9361 N   0  0  0  0  0  0  0  0  0  0  0  0
  -22.6658  -13.2864   25.1262 N   0  0  0  0  0  0  0  0  0  0  0  0
  -21.1592  -29.4056   22.4571 N   0  0  0  0  0  0  0  0  0  0  0  0
  -21.5353  -15.2668   27.9311 N   0  3  0  0  0  0  0  0  0  0  0  0
  -27.3714  -28.6729   16.5606 O   0  0  0  0  0  0  0  0  0  0  0  0
  -25.4385  -14.8658   20.4181 O   0  0  0  0  0  0  0  0  0  0  0  0
  -25.2630  -12.8238   24.0085 O   0  0  0  0  0  0  0  0  0  0  0  0
  -21.2792  -15.1450   25.1318 O   0  0  0  0  0  0  0  0  0  0  0  0
  -21.1362  -31.3247   23.7115 O   0  0  0  0  0  0  0  0  0  0  0  0
  -29.7859  -22.9653   21.2702 O   0  0  0  0  0  0  0  0  0  0  0  0
  -22.7964  -20.3718   21.0417 O   0  0  0  0  0  0  0  0  0  1  0  0
  -29.4362  -18.7766   17.7013 F   0  0  0  0  0  0  0  0  0  0  0  0
  -30.6128  -23.2625   18.6490 F   0  0  0  0  0  0  0  0  0  0  0  0
  1  2  1  0  0  0  0
  1  5  2  0  0  0  0
  2  6  2  0  0  0  0
  3  8  2  0  0  0  0
  3 15  1  0  0  0  0
  4  9  1  0  0  0  0
  4 15  2  0  0  0  0
  5 17  1  0  0  0  0
  6 19  1  0  0  0  0
  7 10  2  0  0  0  0
  7 18  1  0  0  0  0
  8 21  1  0  0  0  0
  9 21  2  0  0  0  0
 10 22  1  0  0  0  0
 11 12  2  0  0  0  0
 11 23  1  0  0  0  0
 12 24  1  0  0  0  0
 13 20  1  0  0  0  0
 13 22  2  0  0  0  0
 14 24  2  0  0  0  0
 14 25  1  0  0  0  0
 15 26  1  0  0  0  0
 16 26  1  0  0  0  0
 16 27  2  0  0  0  0
 16 31  1  0  0  0  0
 17 19  2  0  0  0  0
 17 36  1  0  0  0  0
 18 20  2  0  0  0  0
 18 37  1  0  0  0  0
 19 45  1  0  0  0  0
 20 38  1  0  0  0  0
 21 84  1  0  0  0  0
 22 85  1  0  0  0  0
 23 25  2  0  0  0  0
 23 84  1  0  0  0  0
 24 86  1  0  0  0  0
 25 87  1  0  0  0  0
 26 66  2  0  0  0  0
 27 70  1  0  0  0  0
 27 73  1  0  0  0  0
 28 48  1  0  0  0  0
 28 67  2  0  0  0  0
 28 68  1  0  0  0  0
 29 56  1  0  0  0  0
 29 67  1  0  0  0  0
 29 69  2  0  0  0  0
 30 57  1  0  0  0  0
 30 68  2  0  0  0  0
 30 69  1  0  0  0  0
 31 74  1  0  0  0  0
 31 79  2  0  0  0  0
 32 46  1  0  0  0  0
 32 75  1  0  0  0  0
 32 80  2  0  0  0  0
 33 62  1  0  0  0  0
 33 71  1  0  0  0  0
 33 81  2  0  0  0  0
 34 63  1  0  0  0  0
 34 76  1  0  0  0  0
 34 82  2  0  0  0  0
 35 72  1  0  0  0  0
 35 77  1  0  0  0  0
 35 83  2  0  0  0  0
 36 39  1  0  0  0  0
 37 46  1  0  0  0  0
 38 71  1  0  0  0  0
 39 41  1  0  0  0  0
 40 42  1  0  0  0  0
 40 43  1  0  0  0  0
 41 45  1  0  0  0  0
 42 47  1  0  0  0  0
 43 72  1  0  0  0  0
 44 47  1  0  0  0  0
 44 72  1  0  0  0  0
 45 75  1  0  0  0  0
 46 71  1  0  0  0  0
 47 70  1  0  0  0  0
 49 63  1  0  0  0  0
 50 64  1  0  0  0  0
 51 64  1  0  0  0  0
 52 64  1  0  0  0  0
 53 65  1  0  0  0  0
 54 65  1  0  0  0  0
 55 78  1  0  0  0  0
 56 58  1  0  0  0  0
 57 65  1  0  0  0  0
 58 59  1  0  0  0  0
 59 61  1  0  0  0  0
 60 65  1  0  0  0  0
 60 77  1  0  0  0  0
 61 85  1  0  0  0  0
 62 64  1  0  0  0  0
 62 76  1  0  0  0  0
 63 78  1  0  0  0  0
 66 70  1  0  0  0  0
M  CHG  1  78   1
M  ISO  4  35 100  61 101  77 100  85 101
M  END
> <Batch ID>
0067

> <Smiles>
CNC(C)C(=O)NC(C(=O)N1Cc2cc([101O:1][101CH2:1]CCCc3nc(C)nc(CC(C)(C)C[100NH:0][100C:0](=O)N4CCCC(n5nc(-c6ccc(Oc7ccc(F)cc7F)cc6)c(C(N)=O)c5N)C4)n3)ccc2CC1C(=O)NC1CCCc2ccccc21)C(C)(C)C

> <Shape>
0.250

> <Color>
0.067

> <Negative vol penalty>
0.000

$$$$

  -OEChem-04052318123D

 88 97  0     1  0  0  0  0  0999 V2000
  -24.3418  -31.6939   19.4351 C   0  0  0  0  0  0  0  0  0  0  0  0
  -24.7095  -30.3890   19.7472 C   0  0  0  0  0  0  0  0  0  0  0  0
  -23.1142   -9.9209   19.9443 C   0  0  0  0  0  0  0  0  0  0  0  0
  -23.5613  -10.0268   22.3162 C   0  0  0  0  0  0  0  0  0  0  0  0
  -23.3874  -32.3522   20.2095 C   0  0  0  0  0  0  0  0  0  0  0  0
  -24.1237  -29.7420   20.8347 C   0  0  0  0  0  0  0  0  0  0  0  0
  -22.7759  -23.7849   21.2850 C   0  0  0  0  0  0  0  0  0  0  0  0
  -29.8066  -14.3177   25.8642 C   0  0  0  0  0  0  0  0  0  0  0  0
  -22.3254   -8.7879   20.1436 C   0  0  0  0  0  0  0  0  0  0  0  0
  -22.7724   -8.8938   22.5155 C   0  0  0  0  0  0  0  0  0  0  0  0
  -23.4386  -22.7162   21.8870 C   0  0  0  0  0  0  0  0  0  0  0  0
  -23.0821   -5.5468   22.1511 C   0  0  0  0  0  0  0  0  0  0  0  0
  -23.5799   -4.5500   22.9901 C   0  0  0  0  0  0  0  0  0  0  0  0
  -28.5985  -14.8548   26.2945 C   0  0  0  0  0  0  0  0  0  0  0  0
  -22.0738  -22.9877   23.8575 C   0  0  0  0  0  0  0  0  0  0  0  0
  -21.6690   -4.8193   24.4438 C   0  0  0  0  0  0  0  0  0  0  0  0
  -29.8061  -15.8844   24.0748 C   0  0  0  0  0  0  0  0  0  0  0  0
  -26.6412  -18.7940   25.5259 C   0  0  0  0  0  0  0  0  0  0  0  0
  -25.4857  -17.2663   24.1890 C   0  0  0  0  0  0  0  0  0  0  0  0
  -23.7323  -10.5403   21.0306 C   0  0  0  0  0  0  0  0  0  0  0  0
  -24.1273  -13.0537   20.8448 C   0  0  0  0  0  0  0  0  0  0  0  0
  -22.7826  -31.7096   21.3012 C   0  0  0  0  0  0  0  0  0  0  0  0
  -21.7629  -24.4712   21.9700 C   0  0  0  0  0  0  0  0  0  0  0  0
  -23.1613  -30.3928   21.6253 C   0  0  0  0  0  0  0  0  0  0  0  0
  -21.3980  -24.0631   23.2610 C   0  0  0  0  0  0  0  0  0  0  0  0
  -30.4285  -14.8367   24.7340 C   0  0  0  0  0  0  0  0  0  0  0  0
  -22.1544   -8.2744   21.4291 C   0  0  0  0  0  0  0  0  0  0  0  0
  -23.0896  -22.3193   23.1745 C   0  0  0  0  0  0  0  0  0  0  0  0
  -21.8778   -6.1800   22.4584 C   0  0  0  0  0  0  0  0  0  0  0  0
  -26.3411  -17.4753   25.2515 C   0  0  0  0  0  0  0  0  0  0  0  0
  -22.8733   -4.1861   24.1365 C   0  0  0  0  0  0  0  0  0  0  0  0
  -21.1712   -5.8162   23.6047 C   0  0  0  0  0  0  0  0  0  0  0  0
  -24.5477  -11.7103   20.8254 C   0  0  0  0  0  0  0  0  0  0  0  0
  -28.0581  -15.9019   25.5656 C   0  0  0  0  0  0  0  0  0  0  0  0
  -25.2699  -13.7747   20.5981 C   0  0  0  0  0  0  0  0  0  0  0  0
  -25.3269  -19.5023   23.8118 C   0  0  0  0  0  0  0  0  0  0  0  0
  -22.8206  -13.6008   21.0662 C   0  0  0  0  0  0  0  0  0  0  0  0
  -21.3609  -27.4607   22.9723 C   0  0  0  0  0  0  0  0  0  0  0  0
  -18.4011  -26.3878   23.7541 C   0  0  0  0  0  0  0  0  0  0  0  0
  -16.3921  -23.7434   24.5400 C   0  0  0  0  0  0  0  0  0  0  0  0
  -31.0838  -12.6157   21.4385 C   0  0  0  0  0  0  0  0  0  0  0  0
  -21.7905  -32.4783   22.1375 C   0  0  0  0  0  0  0  0  0  0  0  0
  -21.0394  -25.6049   21.2965 C   0  0  0  0  0  0  0  0  0  0  0  0
  -20.3035  -24.7539   24.0313 C   0  0  0  0  0  0  0  0  0  0  0  0
  -20.9436  -31.5914   23.0466 C   0  0  0  0  0  0  0  0  0  0  0  0
  -29.4904  -13.4556   18.3673 C   0  0  0  0  0  0  0  0  0  0  0  0
  -21.8226  -30.5793   23.7745 C   0  0  0  0  0  0  0  0  0  0  0  0
  -28.0050  -13.2248   18.6508 C   0  0  0  0  0  0  0  0  0  0  0  0
  -30.3669  -12.4247   19.0750 C   0  0  0  0  0  0  0  0  0  0  0  0
  -28.6520  -12.0783   20.8108 C   0  0  0  0  0  0  0  0  0  0  0  0
  -22.5303  -29.6487   22.7821 C   0  0  1  0  0  0  0  0  0  0  0  0
  -20.3752  -26.5600   22.2833 C   0  0  1  0  0  0  0  0  0  0  0  0
  -27.7315  -13.1272   20.1637 C   0  0  2  0  0  0  0  0  0  0  0  0
  -32.8573  -14.4764   25.2769 C   0  0  0  0  0  0  0  0  0  0  0  0
  -14.0271  -23.1838   25.1655 C   0  0  0  0  0  0  0  0  0  0  0  0
  -18.8992  -27.4444   26.5729 C   0  0  0  0  0  0  0  0  0  0  0  0
  -16.9753  -26.0494   27.3606 C   0  0  0  0  0  0  0  0  0  0  0  0
  -16.5965  -27.8653   25.6927 C   0  0  0  0  0  0  0  0  0  0  0  0
  -16.0419  -22.0332   22.1501 C   0  0  0  0  0  0  0  0  0  0  0  0
  -24.7603  -20.6350   23.0073 C   0  0  0  0  0  0  0  0  0  1  0  0
  -31.6456  -12.7885   23.8496 C   0  0  0  0  0  0  0  0  0  0  0  0
  -31.7211  -14.2841   24.2485 C   0  0  1  0  0  0  0  0  0  0  0  0
  -17.7828  -25.7511   24.9753 C   0  0  1  0  0  0  0  0  0  0  0  0
  -15.0245  -23.3299   24.0268 C   0  0  2  0  0  0  0  0  0  0  0  0
  -17.5854  -26.7656   26.1369 C   0  0  0  0  0  0  0  0  0  0  0  0
  -28.6327  -16.4324   24.4628 N   0  0  0  0  0  0  0  0  0  0  0  0
  -26.1501  -19.8363   24.8239 N   0  0  0  0  0  0  0  0  0  0  0  0
  -24.9578  -18.2602   23.4448 N   0  0  0  0  0  0  0  0  0  0  0  0
  -25.8554  -11.5827   20.5851 N   0  0  0  0  0  0  0  0  0  0  0  0
  -26.2665  -12.8552   20.4512 N   0  0  0  0  0  0  0  0  0  0  0  0
  -19.6300  -25.8608   23.3322 N   0  0  0  0  0  0  0  0  0  0  0  0
  -30.0589  -12.3830   20.5066 N   0  0  0  0  0  0  0  0  0  0  0  0
  -25.5094  -15.0992   20.4946 N   0  0  0  0  0  0  0  0  0  0  0  0
  -21.7584  -12.7182   21.3051 N   0  0  0  0  0  0  0  0  0  0  0  0
  -21.6151  -28.6385   22.2958 N   0  0  0  0  0  0  0  0  0  0  0  0
  -16.5511  -25.1130   24.5235 N   0  0  0  0  0  0  0  0  0  0  0  0
  -30.7052  -12.5641   22.7744 N   0  0  0  0  0  0  0  0  0  0  0  0
  -15.1128  -22.0267   23.3093 N   0  3  0  0  0  0  0  0  0  0  0  0
  -22.5985  -14.8350   21.0364 O   0  0  0  0  0  0  0  0  0  0  0  0
  -21.8532  -27.1136   24.0395 O   0  0  0  0  0  0  0  0  0  0  0  0
  -17.8119  -27.3137   23.1909 O   0  0  0  0  0  0  0  0  0  0  0  0
  -17.2336  -22.9328   24.9211 O   0  0  0  0  0  0  0  0  0  0  0  0
  -32.2488  -12.8572   21.1046 O   0  0  0  0  0  0  0  0  0  0  0  0
  -21.3845   -7.1690   21.6240 O   0  0  0  0  0  0  0  0  0  0  0  0
  -26.8513  -16.4558   25.9756 O   0  0  0  0  0  0  0  0  0  0  0  0
  -23.7353  -21.2768   23.7647 O   0  0  0  0  0  0  0  0  0  1  0  0
  -23.3507   -3.2277   24.9413 F   0  0  0  0  0  0  0  0  0  0  0  0
  -20.0131   -6.4201   23.9045 F   0  0  0  0  0  0  0  0  0  0  0  0
  1  2  1  0  0  0  0
  1  5  2  0  0  0  0
  2  6  2  0  0  0  0
  3  9  2  0  0  0  0
  3 20  1  0  0  0  0
  4 10  1  0  0  0  0
  4 20  2  0  0  0  0
  5 22  1  0  0  0  0
  6 24  1  0  0  0  0
  7 11  2  0  0  0  0
  7 23  1  0  0  0  0
  8 14  2  0  0  0  0
  8 26  1  0  0  0  0
  9 27  1  0  0  0  0
 10 27  2  0  0  0  0
 11 28  1  0  0  0  0
 12 13  2  0  0  0  0
 12 29  1  0  0  0  0
 13 31  1  0  0  0  0
 14 34  1  0  0  0  0
 15 25  1  0  0  0  0
 15 28  2  0  0  0  0
 16 31  2  0  0  0  0
 16 32  1  0  0  0  0
 17 26  2  0  0  0  0
 17 66  1  0  0  0  0
 18 30  1  0  0  0  0
 18 67  2  0  0  0  0
 19 30  2  0  0  0  0
 19 68  1  0  0  0  0
 20 33  1  0  0  0  0
 21 33  1  0  0  0  0
 21 35  2  0  0  0  0
 21 37  1  0  0  0  0
 22 24  2  0  0  0  0
 22 42  1  0  0  0  0
 23 25  2  0  0  0  0
 23 43  1  0  0  0  0
 24 51  1  0  0  0  0
 25 44  1  0  0  0  0
 26 62  1  0  0  0  0
 27 84  1  0  0  0  0
 28 86  1  0  0  0  0
 29 32  2  0  0  0  0
 29 84  1  0  0  0  0
 30 85  1  0  0  0  0
 31 87  1  0  0  0  0
 32 88  1  0  0  0  0
 33 69  2  0  0  0  0
 34 66  2  0  0  0  0
 34 85  1  0  0  0  0
 35 70  1  0  0  0  0
 35 73  1  0  0  0  0
 36 60  1  0  0  0  0
 36 67  1  0  0  0  0
 36 68  2  0  0  0  0
 37 74  1  0  0  0  0
 37 79  2  0  0  0  0
 38 52  1  0  0  0  0
 38 75  1  0  0  0  0
 38 80  2  0  0  0  0
 39 63  1  0  0  0  0
 39 71  1  0  0  0  0
 39 81  2  0  0  0  0
 40 64  1  0  0  0  0
 40 76  1  0  0  0  0
 40 82  2  0  0  0  0
 41 72  1  0  0  0  0
 41 77  1  0  0  0  0
 41 83  2  0  0  0  0
 42 45  1  0  0  0  0
 43 52  1  0  0  0  0
 44 71  1  0  0  0  0
 45 47  1  0  0  0  0
 46 48  1  0  0  0  0
 46 49  1  0  0  0  0
 47 51  1  0  0  0  0
 48 53  1  0  0  0  0
 49 72  1  0  0  0  0
 50 53  1  0  0  0  0
 50 72  1  0  0  0  0
 51 75  1  0  0  0  0
 52 71  1  0  0  0  0
 53 70  1  0  0  0  0
 54 62  1  0  0  0  0
 55 64  1  0  0  0  0
 56 65  1  0  0  0  0
 57 65  1  0  0  0  0
 58 65  1  0  0  0  0
 59 78  1  0  0  0  0
 60 86  1  0  0  0  0
 61 62  1  0  0  0  0
 61 77  1  0  0  0  0
 63 65  1  0  0  0  0
 63 76  1  0  0  0  0
 64 78  1  0  0  0  0
 69 70  1  0  0  0  0
M  CHG  1  78   1
M  ISO  4  41 100  60 101  77 100  86 101
M  END
> <Batch ID>
0067

> <Smiles>
CNC(C)C(=O)NC(C(=O)N1Cc2cc([101O:1][101CH2:1]c3ncc(Oc4ccc(C(C)C[100NH:0][100C:0](=O)N5CCCC(n6nc(-c7ccc(Oc8ccc(F)cc8F)cc7)c(C(N)=O)c6N)C5)cn4)cn3)ccc2CC1C(=O)NC1CCCc2ccccc21)C(C)(C)C

> <Shape>
0.226

> <Color>
0.182

> <Negative vol penalty>
0.000

$$$$

  -OEChem-04052318123D

 88 96  0     1  0  0  0  0  0999 V2000
  -23.0213   -8.4167   20.4657 C   0  0  0  0  0  0  0  0  0  0  0  0
  -22.5534   -9.6332   19.9792 C   0  0  0  0  0  0  0  0  0  0  0  0
  -28.5281  -27.8793   20.9072 C   0  0  0  0  0  0  0  0  0  0  0  0
  -27.1346  -26.7264   19.3053 C   0  0  0  0  0  0  0  0  0  0  0  0
  -23.8242   -8.3852   21.6051 C   0  0  0  0  0  0  0  0  0  0  0  0
  -22.8874  -10.8189   20.6326 C   0  0  0  0  0  0  0  0  0  0  0  0
  -24.2370  -17.7298   19.3153 C   0  0  0  0  0  0  0  0  0  0  0  0
  -29.5568  -26.9682   20.6680 C   0  0  0  0  0  0  0  0  0  0  0  0
  -28.1633  -25.8153   19.0661 C   0  0  0  0  0  0  0  0  0  0  0  0
  -23.8405  -19.0019   19.7256 C   0  0  0  0  0  0  0  0  0  0  0  0
  -29.4712  -23.0836   20.5687 C   0  0  0  0  0  0  0  0  0  0  0  0
  -29.1388  -21.7299   20.5166 C   0  0  0  0  0  0  0  0  0  0  0  0
  -25.2993  -18.8327   21.6393 C   0  0  0  0  0  0  0  0  0  0  0  0
  -29.9603  -21.6155   18.2474 C   0  0  0  0  0  0  0  0  0  0  0  0
  -19.7002  -22.3167   22.4823 C   0  0  0  0  0  0  0  0  0  0  0  0
  -27.3169  -27.7584   20.2259 C   0  0  0  0  0  0  0  0  0  0  0  0
  -26.0204  -29.9139   19.8012 C   0  0  0  0  0  0  0  0  0  0  0  0
  -24.1761   -9.5720   22.2672 C   0  0  0  0  0  0  0  0  0  0  0  0
  -25.1610  -16.9939   20.0711 C   0  0  0  0  0  0  0  0  0  0  0  0
  -23.6946  -10.8032   21.7827 C   0  0  0  0  0  0  0  0  0  0  0  0
  -25.7078  -17.5526   21.2351 C   0  0  0  0  0  0  0  0  0  0  0  0
  -18.9360  -23.3355   21.9507 C   0  0  0  0  0  0  0  0  0  0  0  0
  -29.3744  -25.9362   19.7475 C   0  0  0  0  0  0  0  0  0  0  0  0
  -24.3695  -19.5524   20.8893 C   0  0  0  0  0  0  0  0  0  0  0  0
  -30.0480  -23.7033   19.4601 C   0  0  0  0  0  0  0  0  0  0  0  0
  -29.3834  -20.9959   19.3560 C   0  0  0  0  0  0  0  0  0  0  0  0
  -30.2926  -22.9692   18.2995 C   0  0  0  0  0  0  0  0  0  0  0  0
  -26.2537  -28.6989   20.4729 C   0  0  0  0  0  0  0  0  0  0  0  0
  -19.6403  -24.4128   21.4530 C   0  0  0  0  0  0  0  0  0  0  0  0
  -24.8993  -30.4297   20.4041 C   0  0  0  0  0  0  0  0  0  0  0  0
  -21.6183  -23.4423   22.0122 C   0  0  0  0  0  0  0  0  0  0  0  0
  -26.7517  -30.5219   18.7282 C   0  0  0  0  0  0  0  0  0  0  0  0
  -25.0865  -14.2225   21.6258 C   0  0  0  0  0  0  0  0  0  0  0  0
  -28.2514  -14.8086   22.0285 C   0  0  0  0  0  0  0  0  0  0  0  0
  -30.7788  -17.0974   22.1709 C   0  0  0  0  0  0  0  0  0  0  0  0
  -20.3488  -27.9201   23.3784 C   0  0  0  0  0  0  0  0  0  0  0  0
  -25.0074   -9.4839   23.5225 C   0  0  0  0  0  0  0  0  0  0  0  0
  -25.5986  -15.6339   19.6006 C   0  0  0  0  0  0  0  0  0  0  0  0
  -26.7183  -16.8119   22.0711 C   0  0  0  0  0  0  0  0  0  0  0  0
  -25.6242  -10.8166   23.9394 C   0  0  0  0  0  0  0  0  0  0  0  0
  -22.5608  -30.4390   24.5781 C   0  0  0  0  0  0  0  0  0  0  0  0
  -24.5828  -11.9295   23.8776 C   0  0  0  0  0  0  0  0  0  0  0  0
  -23.7370  -30.3883   23.6014 C   0  0  0  0  0  0  0  0  0  0  0  0
  -21.9922  -29.0480   24.8495 C   0  0  0  0  0  0  0  0  0  0  0  0
  -22.7966  -28.2341   22.6667 C   0  0  0  0  0  0  0  0  0  0  0  0
  -24.0556  -12.1130   22.4493 C   0  0  1  0  0  0  0  0  0  0  0  0
  -26.1579  -14.7649   20.7227 C   0  0  1  0  0  0  0  0  0  0  0  0
  -23.3679  -29.6193   22.3186 C   0  0  2  0  0  0  0  0  0  0  0  0
  -33.1285  -17.9650   22.3243 C   0  0  0  0  0  0  0  0  0  0  0  0
  -27.8160  -14.4129   25.0224 C   0  0  0  0  0  0  0  0  0  0  0  0
  -30.0278  -15.5168   25.4192 C   0  0  0  0  0  0  0  0  0  0  0  0
  -29.9134  -13.3853   24.1285 C   0  0  0  0  0  0  0  0  0  0  0  0
  -23.4770  -24.1501   19.5958 C   0  0  0  0  0  0  0  0  0  0  0  0
  -25.3888  -23.3577   20.9834 C   0  0  0  0  0  0  0  0  0  0  0  0
  -31.1433  -16.9633   19.2370 C   0  0  0  0  0  0  0  0  0  0  0  0
  -18.9185  -25.5740   20.8531 C   0  0  0  0  0  0  0  0  0  0  0  0
  -23.1276  -23.5022   22.0461 C   0  0  0  0  0  0  0  0  0  0  0  0
  -18.8184  -26.7832   21.7897 C   0  0  0  0  0  0  0  0  0  0  0  0
  -23.6096  -21.7202   20.2738 C   0  0  0  0  0  0  0  0  0  1  0  0
  -29.0827  -15.5237   23.0660 C   0  0  1  0  0  0  0  0  0  0  0  0
  -32.1487  -17.1272   21.5175 C   0  0  2  0  0  0  0  0  0  0  0  0
  -17.4534  -23.2533   21.9285 C   0  0  0  0  0  0  0  0  0  0  0  0
  -29.1895  -14.7231   24.3946 C   0  0  0  0  0  0  0  0  0  0  0  0
  -23.8766  -23.1755   20.7205 C   0  0  0  0  0  0  0  0  0  0  0  0
  -21.0484  -22.3372   22.5294 N   0  0  0  0  0  0  0  0  0  0  0  0
  -25.3533  -28.4574   21.4294 N   0  0  0  0  0  0  0  0  0  0  0  0
  -20.9866  -24.4997   21.4678 N   0  0  0  0  0  0  0  0  0  0  0  0
  -24.5433  -29.5277   21.3631 N   0  0  0  0  0  0  0  0  0  0  0  0
  -27.1097  -15.4829   21.5728 N   0  0  0  0  0  0  0  0  0  0  0  0
  -21.6612  -28.3728   23.5922 N   0  0  0  0  0  0  0  0  0  0  0  0
  -24.1931  -31.5624   20.2022 N   0  0  0  0  0  0  0  0  0  0  0  0
  -27.8791  -29.8569   18.2271 N   0  0  0  0  0  0  0  0  0  0  0  0
  -25.0137  -12.8427   21.6468 N   0  0  0  0  0  0  0  0  0  0  0  0
  -30.3669  -15.8082   22.4349 N   0  0  0  0  0  0  0  0  0  0  0  0
  -20.1189  -27.2967   22.1581 N   0  0  0  0  0  0  0  0  0  0  0  0
  -32.0561  -17.7031   20.1461 N   0  3  0  0  0  0  0  0  0  0  0  0
  -26.4248  -31.6300   18.2396 O   0  0  0  0  0  0  0  0  0  0  0  0
  -24.3792  -14.9983   22.2579 O   0  0  0  0  0  0  0  0  0  0  0  0
  -28.6060  -13.6958   21.6315 O   0  0  0  0  0  0  0  0  0  0  0  0
  -30.1398  -18.1159   22.4254 O   0  0  0  0  0  0  0  0  0  0  0  0
  -19.4475  -28.0658   24.2111 O   0  0  0  0  0  0  0  0  0  0  0  0
  -30.3781  -25.0471   19.5137 O   0  0  0  0  0  0  0  0  0  0  0  0
  -23.9837  -20.7935   21.2925 O   0  0  0  0  0  0  0  0  0  1  0  0
  -29.0657  -19.6956   19.3067 F   0  0  0  0  0  0  0  0  0  0  0  0
  -30.8477  -23.5588   17.2317 F   0  0  0  0  0  0  0  0  0  0  0  0
  -16.9544  -22.1008   22.4722 F   0  0  0  0  0  0  0  0  0  0  0  0
  -16.8332  -24.2616   22.6150 F   0  0  0  0  0  0  0  0  0  0  0  0
  -16.9370  -23.3078   20.6635 F   0  0  0  0  0  0  0  0  0  0  0  0
  1  2  1  0  0  0  0
  1  5  2  0  0  0  0
  2  6  2  0  0  0  0
  3  8  2  0  0  0  0
  3 16  1  0  0  0  0
  4  9  1  0  0  0  0
  4 16  2  0  0  0  0
  5 18  1  0  0  0  0
  6 20  1  0  0  0  0
  7 10  2  0  0  0  0
  7 19  1  0  0  0  0
  8 23  1  0  0  0  0
  9 23  2  0  0  0  0
 10 24  1  0  0  0  0
 11 12  2  0  0  0  0
 11 25  1  0  0  0  0
 12 26  1  0  0  0  0
 13 21  1  0  0  0  0
 13 24  2  0  0  0  0
 14 26  2  0  0  0  0
 14 27  1  0  0  0  0
 15 22  1  0  0  0  0
 15 65  2  0  0  0  0
 16 28  1  0  0  0  0
 17 28  1  0  0  0  0
 17 30  2  0  0  0  0
 17 32  1  0  0  0  0
 18 20  2  0  0  0  0
 18 37  1  0  0  0  0
 19 21  2  0  0  0  0
 19 38  1  0  0  0  0
 20 46  1  0  0  0  0
 21 39  1  0  0  0  0
 22 29  2  0  0  0  0
 22 62  1  0  0  0  0
 23 82  1  0  0  0  0
 24 83  1  0  0  0  0
 25 27  2  0  0  0  0
 25 82  1  0  0  0  0
 26 84  1  0  0  0  0
 27 85  1  0  0  0  0
 28 66  2  0  0  0  0
 29 56  1  0  0  0  0
 29 67  1  0  0  0  0
 30 68  1  0  0  0  0
 30 71  1  0  0  0  0
 31 57  1  0  0  0  0
 31 65  1  0  0  0  0
 31 67  2  0  0  0  0
 32 72  1  0  0  0  0
 32 77  2  0  0  0  0
 33 47  1  0  0  0  0
 33 73  1  0  0  0  0
 33 78  2  0  0  0  0
 34 60  1  0  0  0  0
 34 69  1  0  0  0  0
 34 79  2  0  0  0  0
 35 61  1  0  0  0  0
 35 74  1  0  0  0  0
 35 80  2  0  0  0  0
 36 70  1  0  0  0  0
 36 75  1  0  0  0  0
 36 81  2  0  0  0  0
 37 40  1  0  0  0  0
 38 47  1  0  0  0  0
 39 69  1  0  0  0  0
 40 42  1  0  0  0  0
 41 43  1  0  0  0  0
 41 44  1  0  0  0  0
 42 46  1  0  0  0  0
 43 48  1  0  0  0  0
 44 70  1  0  0  0  0
 45 48  1  0  0  0  0
 45 70  1  0  0  0  0
 46 73  1  0  0  0  0
 47 69  1  0  0  0  0
 48 68  1  0  0  0  0
 49 61  1  0  0  0  0
 50 63  1  0  0  0  0
 51 63  1  0  0  0  0
 52 63  1  0  0  0  0
 53 64  1  0  0  0  0
 54 64  1  0  0  0  0
 55 76  1  0  0  0  0
 56 58  1  0  0  0  0
 57 64  1  0  0  0  0
 58 75  1  0  0  0  0
 59 64  1  0  0  0  0
 59 83  1  0  0  0  0
 60 63  1  0  0  0  0
 60 74  1  0  0  0  0
 61 76  1  0  0  0  0
 62 86  1  0  0  0  0
 62 87  1  0  0  0  0
 62 88  1  0  0  0  0
 66 68  1  0  0  0  0
M  CHG  1  76   1
M  ISO  4  36 100  59 101  75 100  83 101
M  END
> <Batch ID>
0067

> <Smiles>
CNC(C)C(=O)NC(C(=O)N1Cc2cc([101O:1][101CH2:1]C(C)(C)Cc3ncc(C(F)(F)F)c(CC[100NH:0][100C:0](=O)N4CCCC(n5nc(-c6ccc(Oc7ccc(F)cc7F)cc6)c(C(N)=O)c5N)C4)n3)ccc2CC1C(=O)NC1CCCc2ccccc21)C(C)(C)C

> <Shape>
0.261

> <Color>
0.038

> <Negative vol penalty>
0.000

$$$$

  -OEChem-04052318123D

 90 98  0     1  0  0  0  0  0999 V2000
  -23.5788  -30.7669   21.3609 C   0  0  0  0  0  0  0  0  0  0  0  0
  -23.4662  -29.4889   20.8227 C   0  0  0  0  0  0  0  0  0  0  0  0
  -23.6028   -9.7988   21.3005 C   0  0  0  0  0  0  0  0  0  0  0  0
  -24.0619  -10.7463   23.4751 C   0  0  0  0  0  0  0  0  0  0  0  0
  -24.8292  -31.2563   21.7362 C   0  0  0  0  0  0  0  0  0  0  0  0
  -24.6043  -28.7001   20.6585 C   0  0  0  0  0  0  0  0  0  0  0  0
  -26.7264  -21.8599   20.8181 C   0  0  0  0  0  0  0  0  0  0  0  0
  -22.9752   -8.7108   21.9070 C   0  0  0  0  0  0  0  0  0  0  0  0
  -23.4342   -9.6582   24.0816 C   0  0  0  0  0  0  0  0  0  0  0  0
  -27.4121  -20.9266   20.0419 C   0  0  0  0  0  0  0  0  0  0  0  0
  -20.2732   -8.6352   24.6995 C   0  0  0  0  0  0  0  0  0  0  0  0
  -19.3851   -8.8998   25.7420 C   0  0  0  0  0  0  0  0  0  0  0  0
  -29.5095  -21.8466   20.7992 C   0  0  0  0  0  0  0  0  0  0  0  0
  -31.4617  -16.6635   21.9224 C   0  0  0  0  0  0  0  0  0  0  0  0
  -20.7445   -7.5748   27.2365 C   0  0  0  0  0  0  0  0  0  0  0  0
  -33.4495  -17.9686   21.9681 C   0  0  0  0  0  0  0  0  0  0  0  0
  -24.1463  -10.8166   22.0845 C   0  0  0  0  0  0  0  0  0  0  0  0
  -24.1992  -13.1510   21.0573 C   0  0  0  0  0  0  0  0  0  0  0  0
  -25.9819  -30.4694   21.5854 C   0  0  0  0  0  0  0  0  0  0  0  0
  -27.4283  -22.8023   21.5835 C   0  0  0  0  0  0  0  0  0  0  0  0
  -25.8715  -29.1800   21.0309 C   0  0  0  0  0  0  0  0  0  0  0  0
  -28.8304  -22.7892   21.5862 C   0  0  0  0  0  0  0  0  0  0  0  0
  -32.4278  -17.3885   21.2336 C   0  0  0  0  0  0  0  0  0  0  0  0
  -31.5457  -16.5424   23.3050 C   0  0  0  0  0  0  0  0  0  0  0  0
  -22.8909   -8.6405   23.2975 C   0  0  0  0  0  0  0  0  0  0  0  0
  -28.8038  -20.9216   20.0301 C   0  0  0  0  0  0  0  0  0  0  0  0
  -21.3970   -7.8403   24.9255 C   0  0  0  0  0  0  0  0  0  0  0  0
  -19.6207   -8.3696   27.0105 C   0  0  0  0  0  0  0  0  0  0  0  0
  -21.6326   -7.3102   26.1940 C   0  0  0  0  0  0  0  0  0  0  0  0
  -24.7953  -11.9404   21.4586 C   0  0  0  0  0  0  0  0  0  0  0  0
  -32.6070  -17.1602   23.9467 C   0  0  0  0  0  0  0  0  0  0  0  0
  -25.2319  -13.8813   20.5220 C   0  0  0  0  0  0  0  0  0  0  0  0
  -22.8340  -13.5772   21.1593 C   0  0  0  0  0  0  0  0  0  0  0  0
  -27.6153  -25.9752   21.6153 C   0  0  0  0  0  0  0  0  0  0  0  0
  -29.4074  -25.4541   24.2684 C   0  0  0  0  0  0  0  0  0  0  0  0
  -31.4001  -23.3301   26.0474 C   0  0  0  0  0  0  0  0  0  0  0  0
  -31.2449  -13.2791   21.5318 C   0  0  0  0  0  0  0  0  0  0  0  0
  -27.3179  -31.0594   21.9616 C   0  0  0  0  0  0  0  0  0  0  0  0
  -26.6740  -23.7852   22.4362 C   0  0  0  0  0  0  0  0  0  0  0  0
  -29.6310  -23.7666   22.4062 C   0  0  0  0  0  0  0  0  0  0  0  0
  -28.4255  -30.0185   22.1024 C   0  0  0  0  0  0  0  0  0  0  0  0
  -29.4348  -13.3772   18.3045 C   0  0  0  0  0  0  0  0  0  0  0  0
  -28.4048  -29.0537   20.9211 C   0  0  0  0  0  0  0  0  0  0  0  0
  -28.0006  -13.0502   18.7170 C   0  0  0  0  0  0  0  0  0  0  0  0
  -30.4539  -12.7541   19.2536 C   0  0  0  0  0  0  0  0  0  0  0  0
  -28.8050  -12.7791   21.0960 C   0  0  0  0  0  0  0  0  0  0  0  0
  -27.0795  -28.2847   20.8601 C   0  0  1  0  0  0  0  0  0  0  0  0
  -27.4885  -25.0297   22.7761 C   0  0  1  0  0  0  0  0  0  0  0  0
  -27.7522  -13.4307   20.1869 C   0  0  2  0  0  0  0  0  0  0  0  0
  -29.3679  -16.6713   24.5558 C   0  0  0  0  0  0  0  0  0  0  0  0
  -32.7489  -23.1995   28.1595 C   0  0  0  0  0  0  0  0  0  0  0  0
  -33.5223  -18.3804   19.1103 C   0  0  0  0  0  0  0  0  0  0  0  0
  -32.4770  -16.1331   19.0673 C   0  0  0  0  0  0  0  0  0  0  0  0
  -31.5840  -27.1615   22.9811 C   0  0  0  0  0  0  0  0  0  0  0  0
  -33.2040  -26.2277   24.6460 C   0  0  0  0  0  0  0  0  0  0  0  0
  -31.2495  -27.5671   25.4261 C   0  0  0  0  0  0  0  0  0  0  0  0
  -31.8333  -13.2066   23.9251 C   0  0  0  0  0  0  0  0  0  0  0  0
  -29.7656  -21.0941   27.0903 C   0  0  0  0  0  0  0  0  0  0  0  0
  -31.0110  -18.1690   19.2539 C   0  0  0  0  0  0  0  0  0  0  0  0
  -29.9144  -14.5949   23.2351 C   0  0  0  0  0  0  0  0  0  0  0  0
  -30.7558  -19.5936   19.7441 C   0  0  0  0  0  0  0  0  0  1  0  0
  -30.5129  -15.7686   24.0493 C   0  0  1  0  0  0  0  0  0  0  0  0
  -30.8753  -25.2291   24.5398 C   0  0  1  0  0  0  0  0  0  0  0  0
  -31.3973  -22.9372   27.5137 C   0  0  2  0  0  0  0  0  0  0  0  0
  -32.3649  -17.5413   19.7031 C   0  0  0  0  0  0  0  0  0  0  0  0
  -32.7486  -17.0632   25.4306 C   0  0  0  0  0  0  0  0  0  0  0  0
  -31.7134  -26.5291   24.3812 C   0  0  0  0  0  0  0  0  0  0  0  0
  -33.5644  -17.8728   23.3117 N   0  0  0  0  0  0  0  0  0  0  0  0
  -26.1051  -11.9001   21.2002 N   0  0  0  0  0  0  0  0  0  0  0  0
  -26.3405  -13.0944   20.6307 N   0  0  0  0  0  0  0  0  0  0  0  0
  -28.8477  -24.7121   23.2186 N   0  0  0  0  0  0  0  0  0  0  0  0
  -30.1691  -13.0964   20.6474 N   0  0  0  0  0  0  0  0  0  0  0  0
  -25.2908  -15.1135   19.9735 N   0  0  0  0  0  0  0  0  0  0  0  0
  -21.9025  -12.7031   21.7359 N   0  0  0  0  0  0  0  0  0  0  0  0
  -27.0658  -27.2225   21.8430 N   0  0  0  0  0  0  0  0  0  0  0  0
  -30.9574  -24.6231   25.8643 N   0  0  0  0  0  0  0  0  0  0  0  0
  -30.9329  -13.6175   22.8573 N   0  0  0  0  0  0  0  0  0  0  0  0
  -31.0791  -21.4888   27.6612 N   0  3  0  0  0  0  0  0  0  0  0  0
  -22.4485  -14.6934   20.7362 O   0  0  0  0  0  0  0  0  0  0  0  0
  -28.1719  -25.6014   20.5895 O   0  0  0  0  0  0  0  0  0  0  0  0
  -28.7789  -26.2533   24.9669 O   0  0  0  0  0  0  0  0  0  0  0  0
  -31.7625  -22.5677   25.1542 O   0  0  0  0  0  0  0  0  0  0  0  0
  -32.4177  -13.1566   21.1556 O   0  0  0  0  0  0  0  0  0  0  0  0
  -22.2782   -7.5791   23.8897 O   0  0  0  0  0  0  0  0  0  0  0  0
  -29.4755  -20.0121   19.2729 O   0  0  0  0  0  0  0  0  0  1  0  0
  -18.7685   -8.6251   28.0118 F   0  0  0  0  0  0  0  0  0  0  0  0
  -22.7111   -6.5468   26.4175 F   0  0  0  0  0  0  0  0  0  0  0  0
  -31.7598  -16.3345   26.0261 F   0  0  0  0  0  0  0  0  0  0  0  0
  -33.9150  -16.4767   25.8289 F   0  0  0  0  0  0  0  0  0  0  0  0
  -32.7236  -18.2837   26.0390 F   0  0  0  0  0  0  0  0  0  0  0  0
  1  2  1  0  0  0  0
  1  5  2  0  0  0  0
  2  6  2  0  0  0  0
  3  8  2  0  0  0  0
  3 17  1  0  0  0  0
  4  9  1  0  0  0  0
  4 17  2  0  0  0  0
  5 19  1  0  0  0  0
  6 21  1  0  0  0  0
  7 10  2  0  0  0  0
  7 20  1  0  0  0  0
  8 25  1  0  0  0  0
  9 25  2  0  0  0  0
 10 26  1  0  0  0  0
 11 12  2  0  0  0  0
 11 27  1  0  0  0  0
 12 28  1  0  0  0  0
 13 22  1  0  0  0  0
 13 26  2  0  0  0  0
 14 23  2  0  0  0  0
 14 24  1  0  0  0  0
 15 28  2  0  0  0  0
 15 29  1  0  0  0  0
 16 23  1  0  0  0  0
 16 68  2  0  0  0  0
 17 30  1  0  0  0  0
 18 30  1  0  0  0  0
 18 32  2  0  0  0  0
 18 33  1  0  0  0  0
 19 21  2  0  0  0  0
 19 38  1  0  0  0  0
 20 22  2  0  0  0  0
 20 39  1  0  0  0  0
 21 47  1  0  0  0  0
 22 40  1  0  0  0  0
 23 65  1  0  0  0  0
 24 31  2  0  0  0  0
 24 62  1  0  0  0  0
 25 84  1  0  0  0  0
 26 85  1  0  0  0  0
 27 29  2  0  0  0  0
 27 84  1  0  0  0  0
 28 86  1  0  0  0  0
 29 87  1  0  0  0  0
 30 69  2  0  0  0  0
 31 66  1  0  0  0  0
 31 68  1  0  0  0  0
 32 70  1  0  0  0  0
 32 73  1  0  0  0  0
 33 74  1  0  0  0  0
 33 79  2  0  0  0  0
 34 48  1  0  0  0  0
 34 75  1  0  0  0  0
 34 80  2  0  0  0  0
 35 63  1  0  0  0  0
 35 71  1  0  0  0  0
 35 81  2  0  0  0  0
 36 64  1  0  0  0  0
 36 76  1  0  0  0  0
 36 82  2  0  0  0  0
 37 72  1  0  0  0  0
 37 77  1  0  0  0  0
 37 83  2  0  0  0  0
 38 41  1  0  0  0  0
 39 48  1  0  0  0  0
 40 71  1  0  0  0  0
 41 43  1  0  0  0  0
 42 44  1  0  0  0  0
 42 45  1  0  0  0  0
 43 47  1  0  0  0  0
 44 49  1  0  0  0  0
 45 72  1  0  0  0  0
 46 49  1  0  0  0  0
 46 72  1  0  0  0  0
 47 75  1  0  0  0  0
 48 71  1  0  0  0  0
 49 70  1  0  0  0  0
 50 62  1  0  0  0  0
 51 64  1  0  0  0  0
 52 65  1  0  0  0  0
 53 65  1  0  0  0  0
 54 67  1  0  0  0  0
 55 67  1  0  0  0  0
 56 67  1  0  0  0  0
 57 77  1  0  0  0  0
 58 78  1  0  0  0  0
 59 61  1  0  0  0  0
 59 65  1  0  0  0  0
 60 62  1  0  0  0  0
 60 77  1  0  0  0  0
 61 85  1  0  0  0  0
 63 67  1  0  0  0  0
 63 76  1  0  0  0  0
 64 78  1  0  0  0  0
 66 88  1  0  0  0  0
 66 89  1  0  0  0  0
 66 90  1  0  0  0  0
 69 70  1  0  0  0  0
M  CHG  1  78   1
M  ISO  4  37 100  61 101  77 100  85 101
M  END
> <Batch ID>
0067

> <Smiles>
CNC(C)C(=O)NC(C(=O)N1Cc2cc([101O:1][101CH2:1]CC(C)(C)c3cnc(C(F)(F)F)c(C(C)C[100N:0](C)[100C:0](=O)N4CCCC(n5nc(-c6ccc(Oc7ccc(F)cc7F)cc6)c(C(N)=O)c5N)C4)c3)ccc2CC1C(=O)NC1CCCc2ccccc21)C(C)(C)C

> <Shape>
0.230

> <Color>
0.158

> <Negative vol penalty>
0.000

$$$$

  -OEChem-04052318123D

 91100  0     1  0  0  0  0  0999 V2000
  -25.3009  -31.6195   20.4594 C   0  0  0  0  0  0  0  0  0  0  0  0
  -25.8253  -30.3673   20.1555 C   0  0  0  0  0  0  0  0  0  0  0  0
  -29.9805  -22.7501   19.2233 C   0  0  0  0  0  0  0  0  0  0  0  0
  -28.0175  -22.0063   18.0272 C   0  0  0  0  0  0  0  0  0  0  0  0
  -24.1924  -31.7249   21.2984 C   0  0  0  0  0  0  0  0  0  0  0  0
  -25.2421  -29.2197   20.6915 C   0  0  0  0  0  0  0  0  0  0  0  0
  -23.9705  -22.3477   19.1183 C   0  0  0  0  0  0  0  0  0  0  0  0
  -30.2191  -23.7069   18.2368 C   0  0  0  0  0  0  0  0  0  0  0  0
  -28.2561  -22.9631   17.0407 C   0  0  0  0  0  0  0  0  0  0  0  0
  -24.1510  -21.0704   19.6473 C   0  0  0  0  0  0  0  0  0  0  0  0
  -29.0315  -26.7559   17.3848 C   0  0  0  0  0  0  0  0  0  0  0  0
  -29.3631  -28.0457   17.7994 C   0  0  0  0  0  0  0  0  0  0  0  0
  -22.1908  -21.3691   21.0213 C   0  0  0  0  0  0  0  0  0  0  0  0
  -24.8642  -13.7588   20.0501 C   0  0  0  0  0  0  0  0  0  0  0  0
  -24.2141  -12.1345   21.7004 C   0  0  0  0  0  0  0  0  0  0  0  0
  -31.4723  -27.8784   16.6331 C   0  0  0  0  0  0  0  0  0  0  0  0
  -28.8797  -21.8997   19.1185 C   0  0  0  0  0  0  0  0  0  0  0  0
  -27.8622  -21.0669   21.3045 C   0  0  0  0  0  0  0  0  0  0  0  0
  -23.5894  -30.5774   21.8372 C   0  0  0  0  0  0  0  0  0  0  0  0
  -22.9033  -23.1508   19.5456 C   0  0  0  0  0  0  0  0  0  0  0  0
  -24.1253  -29.3099   21.5397 C   0  0  0  0  0  0  0  0  0  0  0  0
  -21.9975  -22.6551   20.4943 C   0  0  0  0  0  0  0  0  0  0  0  0
  -23.9667  -13.3200   21.0173 C   0  0  0  0  0  0  0  0  0  0  0  0
  -29.3569  -23.8134   17.1455 C   0  0  0  0  0  0  0  0  0  0  0  0
  -23.2627  -20.5820   20.6011 C   0  0  0  0  0  0  0  0  0  0  0  0
  -29.9203  -26.0272   16.5943 C   0  0  0  0  0  0  0  0  0  0  0  0
  -30.5835  -28.6070   17.4236 C   0  0  0  0  0  0  0  0  0  0  0  0
  -31.1407  -26.5885   16.2184 C   0  0  0  0  0  0  0  0  0  0  0  0
  -28.6330  -20.9108   20.1369 C   0  0  0  0  0  0  0  0  0  0  0  0
  -25.9851  -12.9819   19.8054 C   0  0  0  0  0  0  0  0  0  0  0  0
  -25.3640  -11.4302   21.3817 C   0  0  0  0  0  0  0  0  0  0  0  0
  -27.9401  -19.8480   21.9329 C   0  0  0  0  0  0  0  0  0  0  0  0
  -23.7348  -16.1748   24.1295 C   0  0  0  0  0  0  0  0  0  0  0  0
  -22.9744  -15.3112   22.2026 C   0  0  0  0  0  0  0  0  0  0  0  0
  -22.8662  -17.5241   22.5604 C   0  0  0  0  0  0  0  0  0  0  0  0
  -27.1402  -22.2113   21.7786 C   0  0  0  0  0  0  0  0  0  0  0  0
  -22.6570  -25.9606   21.0111 C   0  0  0  0  0  0  0  0  0  0  0  0
  -19.4920  -25.5443   20.4353 C   0  0  0  0  0  0  0  0  0  0  0  0
  -16.9164  -23.3889   19.8295 C   0  0  0  0  0  0  0  0  0  0  0  0
  -28.9772  -14.2955   19.9466 C   0  0  0  0  0  0  0  0  0  0  0  0
  -22.4218  -30.7443   22.7771 C   0  0  0  0  0  0  0  0  0  0  0  0
  -22.7070  -24.5160   18.9456 C   0  0  0  0  0  0  0  0  0  0  0  0
  -20.8239  -23.4697   20.9714 C   0  0  0  0  0  0  0  0  0  0  0  0
  -21.6333  -29.4569   23.0035 C   0  0  0  0  0  0  0  0  0  0  0  0
  -30.8278  -16.0647   22.4209 C   0  0  0  0  0  0  0  0  0  0  0  0
  -22.5796  -28.2925   23.2779 C   0  0  0  0  0  0  0  0  0  0  0  0
  -30.4056  -17.5213   22.2215 C   0  0  0  0  0  0  0  0  0  0  0  0
  -30.9213  -15.3172   21.0925 C   0  0  0  0  0  0  0  0  0  0  0  0
  -29.2860  -16.8428   20.0570 C   0  0  0  0  0  0  0  0  0  0  0  0
  -23.5054  -28.0403   22.0817 C   0  0  1  0  0  0  0  0  0  0  0  0
  -21.8825  -25.4450   19.8313 C   0  0  1  0  0  0  0  0  0  0  0  0
  -29.1237  -17.6225   21.3731 C   0  0  2  0  0  0  0  0  0  0  0  0
  -24.3594  -15.9885   25.4702 C   0  0  0  0  0  0  0  0  0  0  0  0
  -14.4379  -23.3411   19.4396 C   0  0  0  0  0  0  0  0  0  0  0  0
  -19.0169  -26.0077   23.4135 C   0  0  0  0  0  0  0  0  0  0  0  0
  -16.7308  -25.0272   23.1303 C   0  0  0  0  0  0  0  0  0  0  0  0
  -17.3525  -27.1107   21.9076 C   0  0  0  0  0  0  0  0  0  0  0  0
  -17.2454  -22.1985   17.1400 C   0  0  0  0  0  0  0  0  0  0  0  0
  -22.7243  -14.1313   21.3263 C   0  0  0  0  0  0  0  0  0  0  0  0
  -26.9708  -13.4226   18.7754 C   0  0  0  0  0  0  0  0  0  0  0  0
  -22.4892  -18.8991   22.0928 C   0  0  0  0  0  0  0  0  0  1  0  0
  -18.3454  -24.9027   21.1788 C   0  0  1  0  0  0  0  0  0  0  0  0
  -15.8110  -23.4072   18.7892 C   0  0  2  0  0  0  0  0  0  0  0  0
  -25.6600  -10.1528   22.0939 C   0  0  0  0  0  0  0  0  0  0  0  0
  -17.8845  -25.7472   22.4002 C   0  0  0  0  0  0  0  0  0  0  0  0
  -29.1619  -19.6891   20.0277 N   0  0  0  0  0  0  0  0  0  0  0  0
  -26.2591  -11.8248   20.4485 N   0  0  0  0  0  0  0  0  0  0  0  0
  -23.5398  -15.0671   23.3957 N   0  0  0  0  0  0  0  0  0  0  0  0
  -23.4243  -17.4332   23.7783 N   0  0  0  0  0  0  0  0  0  0  0  0
  -22.6112  -16.5097   21.7184 N   0  0  0  0  0  0  0  0  0  0  0  0
  -28.7227  -19.0665   21.1348 N   0  0  0  0  0  0  0  0  0  0  0  0
  -20.6783  -24.8009   20.3595 N   0  0  0  0  0  0  0  0  0  0  0  0
  -29.6731  -15.4513   20.3374 N   0  0  0  0  0  0  0  0  0  0  0  0
  -27.4149  -19.3793   23.0848 N   0  0  0  0  0  0  0  0  0  0  0  0
  -27.1656  -23.3829   21.0098 N   0  0  0  0  0  0  0  0  0  0  0  0
  -22.7975  -27.3351   21.0348 N   0  0  0  0  0  0  0  0  0  0  0  0
  -17.3004  -24.6633   20.1893 N   0  0  0  0  0  0  0  0  0  0  0  0
  -27.8004  -14.5119   19.2401 N   0  0  0  0  0  0  0  0  0  0  0  0
  -15.9498  -22.2462   17.8653 N   0  3  0  0  0  0  0  0  0  0  0  0
  -26.5052  -22.2004   22.8604 O   0  0  0  0  0  0  0  0  0  0  0  0
  -23.0934  -25.1701   21.8395 O   0  0  0  0  0  0  0  0  0  0  0  0
  -19.3383  -26.6609   19.9340 O   0  0  0  0  0  0  0  0  0  0  0  0
  -17.3891  -22.3480   20.2808 O   0  0  0  0  0  0  0  0  0  0  0  0
  -29.3722  -13.1553   20.2126 O   0  0  0  0  0  0  0  0  0  0  0  0
  -29.5893  -24.7471   16.1828 O   0  0  0  0  0  0  0  0  0  0  0  0
  -23.4369  -19.3359   21.1195 O   0  0  0  0  0  0  0  0  0  1  0  0
  -30.9011  -29.8462   17.8205 F   0  0  0  0  0  0  0  0  0  0  0  0
  -31.9981  -25.8938   15.4582 F   0  0  0  0  0  0  0  0  0  0  0  0
  -24.7166   -9.8123   23.0207 F   0  0  0  0  0  0  0  0  0  0  0  0
  -25.7499   -9.0727   21.2631 F   0  0  0  0  0  0  0  0  0  0  0  0
  -26.8432  -10.1929   22.7726 F   0  0  0  0  0  0  0  0  0  0  0  0
  1  2  1  0  0  0  0
  1  5  2  0  0  0  0
  2  6  2  0  0  0  0
  3  8  2  0  0  0  0
  3 17  1  0  0  0  0
  4  9  1  0  0  0  0
  4 17  2  0  0  0  0
  5 19  1  0  0  0  0
  6 21  1  0  0  0  0
  7 10  2  0  0  0  0
  7 20  1  0  0  0  0
  8 24  1  0  0  0  0
  9 24  2  0  0  0  0
 10 25  1  0  0  0  0
 11 12  2  0  0  0  0
 11 26  1  0  0  0  0
 12 27  1  0  0  0  0
 13 22  1  0  0  0  0
 13 25  2  0  0  0  0
 14 23  1  0  0  0  0
 14 30  2  0  0  0  0
 15 23  2  0  0  0  0
 15 31  1  0  0  0  0
 16 27  2  0  0  0  0
 16 28  1  0  0  0  0
 17 29  1  0  0  0  0
 18 29  1  0  0  0  0
 18 32  2  0  0  0  0
 18 36  1  0  0  0  0
 19 21  2  0  0  0  0
 19 41  1  0  0  0  0
 20 22  2  0  0  0  0
 20 42  1  0  0  0  0
 21 50  1  0  0  0  0
 22 43  1  0  0  0  0
 23 59  1  0  0  0  0
 24 85  1  0  0  0  0
 25 86  1  0  0  0  0
 26 28  2  0  0  0  0
 26 85  1  0  0  0  0
 27 87  1  0  0  0  0
 28 88  1  0  0  0  0
 29 66  2  0  0  0  0
 30 60  1  0  0  0  0
 30 67  1  0  0  0  0
 31 64  1  0  0  0  0
 31 67  2  0  0  0  0
 32 71  1  0  0  0  0
 32 74  1  0  0  0  0
 33 53  1  0  0  0  0
 33 68  1  0  0  0  0
 33 69  2  0  0  0  0
 34 59  1  0  0  0  0
 34 68  2  0  0  0  0
 34 70  1  0  0  0  0
 35 61  1  0  0  0  0
 35 69  1  0  0  0  0
 35 70  2  0  0  0  0
 36 75  1  0  0  0  0
 36 80  2  0  0  0  0
 37 51  1  0  0  0  0
 37 76  1  0  0  0  0
 37 81  2  0  0  0  0
 38 62  1  0  0  0  0
 38 72  1  0  0  0  0
 38 82  2  0  0  0  0
 39 63  1  0  0  0  0
 39 77  1  0  0  0  0
 39 83  2  0  0  0  0
 40 73  1  0  0  0  0
 40 78  1  0  0  0  0
 40 84  2  0  0  0  0
 41 44  1  0  0  0  0
 42 51  1  0  0  0  0
 43 72  1  0  0  0  0
 44 46  1  0  0  0  0
 45 47  1  0  0  0  0
 45 48  1  0  0  0  0
 46 50  1  0  0  0  0
 47 52  1  0  0  0  0
 48 73  1  0  0  0  0
 49 52  1  0  0  0  0
 49 73  1  0  0  0  0
 50 76  1  0  0  0  0
 51 72  1  0  0  0  0
 52 71  1  0  0  0  0
 54 63  1  0  0  0  0
 55 65  1  0  0  0  0
 56 65  1  0  0  0  0
 57 65  1  0  0  0  0
 58 79  1  0  0  0  0
 60 78  1  0  0  0  0
 61 86  1  0  0  0  0
 62 65  1  0  0  0  0
 62 77  1  0  0  0  0
 63 79  1  0  0  0  0
 64 89  1  0  0  0  0
 64 90  1  0  0  0  0
 64 91  1  0  0  0  0
 66 71  1  0  0  0  0
M  CHG  1  79   1
M  ISO  4  40 100  61 101  78 100  86 101
M  END
> <Batch ID>
0067

> <Smiles>
CNC(C)C(=O)NC(C(=O)N1Cc2cc([101O:1][101CH2:1]c3nc(C)nc(Cc4cc(C[100NH:0][100C:0](=O)N5CCCC(n6nc(-c7ccc(Oc8ccc(F)cc8F)cc7)c(C(N)=O)c6N)C5)nc(C(F)(F)F)c4)n3)ccc2CC1C(=O)NC1CCCc2ccccc21)C(C)(C)C

> <Shape>
0.230

> <Color>
0.059

> <Negative vol penalty>
0.000

$$$$

  -OEChem-04052318123D

 92100  0     1  0  0  0  0  0999 V2000
  -29.9513  -12.7165   20.8961 C   0  0  0  0  0  0  0  0  0  0  0  0
  -29.3968  -13.8359   21.5062 C   0  0  0  0  0  0  0  0  0  0  0  0
  -30.1344  -23.5030   20.6872 C   0  0  0  0  0  0  0  0  0  0  0  0
  -28.5364  -23.6861   18.8845 C   0  0  0  0  0  0  0  0  0  0  0  0
  -29.4667  -12.2881   19.6621 C   0  0  0  0  0  0  0  0  0  0  0  0
  -28.3496  -14.5203   20.8883 C   0  0  0  0  0  0  0  0  0  0  0  0
  -24.2150  -20.3701   21.1971 C   0  0  0  0  0  0  0  0  0  0  0  0
  -30.1729  -22.1197   20.5126 C   0  0  0  0  0  0  0  0  0  0  0  0
  -28.5749  -22.3027   18.7098 C   0  0  0  0  0  0  0  0  0  0  0  0
  -23.8115  -21.5145   20.5107 C   0  0  0  0  0  0  0  0  0  0  0  0
  -30.4191  -18.5013   20.7780 C   0  0  0  0  0  0  0  0  0  0  0  0
  -30.3613  -17.7003   21.9184 C   0  0  0  0  0  0  0  0  0  0  0  0
  -22.3330  -20.1735   19.1561 C   0  0  0  0  0  0  0  0  0  0  0  0
  -28.2097  -18.6479   22.4750 C   0  0  0  0  0  0  0  0  0  0  0  0
  -23.1071  -25.1908   19.8039 C   0  0  0  0  0  0  0  0  0  0  0  0
  -29.3161  -24.2862   19.8732 C   0  0  0  0  0  0  0  0  0  0  0  0
  -30.0926  -26.6747   19.4263 C   0  0  0  0  0  0  0  0  0  0  0  0
  -28.4213  -12.9755   19.0235 C   0  0  0  0  0  0  0  0  0  0  0  0
  -23.6877  -19.1151   20.8603 C   0  0  0  0  0  0  0  0  0  0  0  0
  -27.8305  -14.0894   19.6540 C   0  0  0  0  0  0  0  0  0  0  0  0
  -22.7296  -19.0150   19.8414 C   0  0  0  0  0  0  0  0  0  0  0  0
  -23.9543  -25.1468   18.7154 C   0  0  0  0  0  0  0  0  0  0  0  0
  -29.3932  -21.5195   19.5239 C   0  0  0  0  0  0  0  0  0  0  0  0
  -22.8726  -21.4160   19.4881 C   0  0  0  0  0  0  0  0  0  0  0  0
  -29.3722  -19.3757   20.4861 C   0  0  0  0  0  0  0  0  0  0  0  0
  -29.2566  -17.7735   22.7669 C   0  0  0  0  0  0  0  0  0  0  0  0
  -28.2675  -19.4490   21.3345 C   0  0  0  0  0  0  0  0  0  0  0  0
  -29.2754  -25.7152   20.0534 C   0  0  0  0  0  0  0  0  0  0  0  0
  -24.3786  -26.3705   18.2393 C   0  0  0  0  0  0  0  0  0  0  0  0
  -29.6599  -27.8767   19.9308 C   0  0  0  0  0  0  0  0  0  0  0  0
  -23.1821  -27.4625   19.8340 C   0  0  0  0  0  0  0  0  0  0  0  0
  -31.1483  -26.4956   18.4728 C   0  0  0  0  0  0  0  0  0  0  0  0
  -24.9057  -16.3907   19.7657 C   0  0  0  0  0  0  0  0  0  0  0  0
  -21.8848  -15.3054   20.2331 C   0  0  0  0  0  0  0  0  0  0  0  0
  -18.5600  -16.0219   20.5152 C   0  0  0  0  0  0  0  0  0  0  0  0
  -24.2463  -29.1540   22.3761 C   0  0  0  0  0  0  0  0  0  0  0  0
  -27.9301  -12.4638   17.6923 C   0  0  0  0  0  0  0  0  0  0  0  0
  -24.1135  -17.8938   21.6282 C   0  0  0  0  0  0  0  0  0  0  0  0
  -22.1180  -17.6940   19.4549 C   0  0  0  0  0  0  0  0  0  0  0  0
  -27.1298  -13.5034   16.9144 C   0  0  0  0  0  0  0  0  0  0  0  0
  -27.6418  -29.8190   23.7975 C   0  0  0  0  0  0  0  0  0  0  0  0
  -26.0673  -14.1196   17.8120 C   0  0  0  0  0  0  0  0  0  0  0  0
  -28.4965  -28.8584   22.9722 C   0  0  0  0  0  0  0  0  0  0  0  0
  -26.2174  -29.2989   23.9492 C   0  0  0  0  0  0  0  0  0  0  0  0
  -26.3853  -28.0535   21.8191 C   0  0  0  0  0  0  0  0  0  0  0  0
  -26.7111  -14.8676   18.9863 C   0  0  1  0  0  0  0  0  0  0  0  0
  -23.8934  -16.5962   20.8568 C   0  0  1  0  0  0  0  0  0  0  0  0
  -27.8280  -28.5482   21.6221 C   0  0  2  0  0  0  0  0  0  0  0  0
  -25.8992  -27.8371   16.8890 C   0  0  0  0  0  0  0  0  0  0  0  0
  -24.6811  -21.7706   15.8202 C   0  0  0  0  0  0  0  0  0  0  0  0
  -21.0819  -22.6712   16.1945 C   0  0  0  0  0  0  0  0  0  0  0  0
  -16.3301  -14.9227   20.8566 C   0  0  0  0  0  0  0  0  0  0  0  0
  -20.2491  -28.0009   18.5884 C   0  0  0  0  0  0  0  0  0  0  0  0
  -19.7609  -29.4760   20.5397 C   0  0  0  0  0  0  0  0  0  0  0  0
  -19.8963  -30.4584   18.2492 C   0  0  0  0  0  0  0  0  0  0  0  0
  -21.9098  -14.3590   17.3324 C   0  0  0  0  0  0  0  0  0  0  0  0
  -19.4174  -14.1542   17.4508 C   0  0  0  0  0  0  0  0  0  0  0  0
  -20.8536  -12.7624   18.9416 C   0  0  0  0  0  0  0  0  0  0  0  0
  -24.7380  -30.1746   20.1142 C   0  0  0  0  0  0  0  0  0  0  0  0
  -18.0858  -17.5023   23.0336 C   0  0  0  0  0  0  0  0  0  0  0  0
  -24.3751  -23.8276   18.1021 C   0  0  0  0  0  0  0  0  0  0  0  0
  -25.2981  -26.4458   17.0653 C   0  0  0  0  0  0  0  0  0  0  0  0
  -23.7928  -21.5785   17.0459 C   0  0  0  0  0  0  0  0  0  0  0  0
  -22.2310  -23.5506   16.6664 C   0  0  0  0  0  0  0  0  0  0  0  0
  -22.0072  -29.6669   19.4472 C   0  0  0  0  0  0  0  0  0  0  0  0
  -22.7539  -28.7487   20.4557 C   0  0  2  0  0  0  0  0  0  0  0  0
  -20.6308  -15.2396   19.3951 C   0  0  1  0  0  0  0  0  0  0  0  0
  -17.5190  -15.5888   21.5316 C   0  0  2  0  0  0  0  0  0  0  0  0
  -20.4961  -29.3945   19.1851 C   0  0  0  0  0  0  0  0  0  0  0  0
  -20.7157  -14.1536   18.2857 C   0  0  0  0  0  0  0  0  0  0  0  0
  -23.2242  -22.8879   17.6535 C   0  0  0  0  0  0  0  0  0  1  0  0
  -22.6992  -26.3352   20.3905 N   0  0  0  0  0  0  0  0  0  0  0  0
  -28.3907  -26.2605   20.8924 N   0  0  0  0  0  0  0  0  0  0  0  0
  -24.0107  -27.5523   18.7763 N   0  0  0  0  0  0  0  0  0  0  0  0
  -28.6495  -27.5757   20.7960 N   0  0  0  0  0  0  0  0  0  0  0  0
  -22.5712  -16.5279   20.2310 N   0  0  0  0  0  0  0  0  0  0  0  0
  -25.6138  -28.9828   22.6477 N   0  0  0  0  0  0  0  0  0  0  0  0
  -30.0491  -29.1511   19.7143 N   0  0  0  0  0  0  0  0  0  0  0  0
  -31.4637  -25.1932   18.0620 N   0  0  0  0  0  0  0  0  0  0  0  0
  -25.6787  -15.2560   19.9217 N   0  0  0  0  0  0  0  0  0  0  0  0
  -19.5251  -15.0549   20.3288 N   0  0  0  0  0  0  0  0  0  0  0  0
  -23.8895  -29.4397   21.0496 N   0  0  0  0  0  0  0  0  0  0  0  0
  -17.0243  -16.7659   22.3001 N   0  3  0  0  0  0  0  0  0  0  0  0
  -31.8039  -27.4605   18.0116 O   0  0  0  0  0  0  0  0  0  0  0  0
  -24.9790  -17.2009   18.8492 O   0  0  0  0  0  0  0  0  0  0  0  0
  -22.2382  -14.3110   20.8718 O   0  0  0  0  0  0  0  0  0  0  0  0
  -18.5190  -17.1077   19.9410 O   0  0  0  0  0  0  0  0  0  0  0  0
  -23.3928  -29.0467   23.2660 O   0  0  0  0  0  0  0  0  0  0  0  0
  -29.4307  -20.1697   19.3530 O   0  0  0  0  0  0  0  0  0  0  0  0
  -22.4775  -22.5314   18.8161 O   0  0  0  0  0  0  0  0  0  1  0  0
  -29.2005  -17.0031   23.8612 F   0  0  0  0  0  0  0  0  0  0  0  0
  -27.2582  -20.2862   21.0587 F   0  0  0  0  0  0  0  0  0  0  0  0
  1  2  1  0  0  0  0
  1  5  2  0  0  0  0
  2  6  2  0  0  0  0
  3  8  2  0  0  0  0
  3 16  1  0  0  0  0
  4  9  1  0  0  0  0
  4 16  2  0  0  0  0
  5 18  1  0  0  0  0
  6 20  1  0  0  0  0
  7 10  2  0  0  0  0
  7 19  1  0  0  0  0
  8 23  1  0  0  0  0
  9 23  2  0  0  0  0
 10 24  1  0  0  0  0
 11 12  2  0  0  0  0
 11 25  1  0  0  0  0
 12 26  1  0  0  0  0
 13 21  1  0  0  0  0
 13 24  2  0  0  0  0
 14 26  2  0  0  0  0
 14 27  1  0  0  0  0
 15 22  1  0  0  0  0
 15 72  2  0  0  0  0
 16 28  1  0  0  0  0
 17 28  1  0  0  0  0
 17 30  2  0  0  0  0
 17 32  1  0  0  0  0
 18 20  2  0  0  0  0
 18 37  1  0  0  0  0
 19 21  2  0  0  0  0
 19 38  1  0  0  0  0
 20 46  1  0  0  0  0
 21 39  1  0  0  0  0
 22 29  2  0  0  0  0
 22 61  1  0  0  0  0
 23 89  1  0  0  0  0
 24 90  1  0  0  0  0
 25 27  2  0  0  0  0
 25 89  1  0  0  0  0
 26 91  1  0  0  0  0
 27 92  1  0  0  0  0
 28 73  2  0  0  0  0
 29 62  1  0  0  0  0
 29 74  1  0  0  0  0
 30 75  1  0  0  0  0
 30 78  1  0  0  0  0
 31 66  1  0  0  0  0
 31 72  1  0  0  0  0
 31 74  2  0  0  0  0
 32 79  1  0  0  0  0
 32 84  2  0  0  0  0
 33 47  1  0  0  0  0
 33 80  1  0  0  0  0
 33 85  2  0  0  0  0
 34 67  1  0  0  0  0
 34 76  1  0  0  0  0
 34 86  2  0  0  0  0
 35 68  1  0  0  0  0
 35 81  1  0  0  0  0
 35 87  2  0  0  0  0
 36 77  1  0  0  0  0
 36 82  1  0  0  0  0
 36 88  2  0  0  0  0
 37 40  1  0  0  0  0
 38 47  1  0  0  0  0
 39 76  1  0  0  0  0
 40 42  1  0  0  0  0
 41 43  1  0  0  0  0
 41 44  1  0  0  0  0
 42 46  1  0  0  0  0
 43 48  1  0  0  0  0
 44 77  1  0  0  0  0
 45 48  1  0  0  0  0
 45 77  1  0  0  0  0
 46 80  1  0  0  0  0
 47 76  1  0  0  0  0
 48 75  1  0  0  0  0
 49 62  1  0  0  0  0
 50 63  1  0  0  0  0
 51 64  1  0  0  0  0
 52 68  1  0  0  0  0
 53 69  1  0  0  0  0
 54 69  1  0  0  0  0
 55 69  1  0  0  0  0
 56 70  1  0  0  0  0
 57 70  1  0  0  0  0
 58 70  1  0  0  0  0
 59 82  1  0  0  0  0
 60 83  1  0  0  0  0
 61 71  1  0  0  0  0
 63 71  1  0  0  0  0
 64 71  1  0  0  0  0
 65 66  1  0  0  0  0
 65 69  1  0  0  0  0
 66 82  1  0  0  0  0
 67 70  1  0  0  0  0
 67 81  1  0  0  0  0
 68 83  1  0  0  0  0
 71 90  1  0  0  0  0
 73 75  1  0  0  0  0
M  CHG  1  83   1
M  ISO  4  36 100  71 101  82 100  90 101
M  END
> <Batch ID>
0067

> <Smiles>
CCc1nc(C(CC(C)(C)C)[100N:0](C)[100C:0](=O)N2CCCC(n3nc(-c4ccc(Oc5ccc(F)cc5F)cc4)c(C(N)=O)c3N)C2)ncc1C[101C:1](CC)(CC)[101O:1]c1ccc2c(c1)CN(C(=O)C(NC(=O)C(C)NC)C(C)(C)C)C(C(=O)NC1CCCc3ccccc31)C2

> <Shape>
0.215

> <Color>
0.072

> <Negative vol penalty>
0.000

$$$$

  -OEChem-04052318123D

 94102  0     1  0  0  0  0  0999 V2000
  -32.5900  -26.8349   17.3384 C   0  0  0  0  0  0  0  0  0  0  0  0
  -31.2007  -26.8473   17.2869 C   0  0  0  0  0  0  0  0  0  0  0  0
  -24.6162   -9.1677   21.6772 C   0  0  0  0  0  0  0  0  0  0  0  0
  -23.5565  -11.0172   22.8145 C   0  0  0  0  0  0  0  0  0  0  0  0
  -33.2425  -27.1598   18.5258 C   0  0  0  0  0  0  0  0  0  0  0  0
  -30.4637  -27.1960   18.4192 C   0  0  0  0  0  0  0  0  0  0  0  0
  -24.4449  -27.2488   19.3670 C   0  0  0  0  0  0  0  0  0  0  0  0
  -24.0292   -8.2780   22.5769 C   0  0  0  0  0  0  0  0  0  0  0  0
  -22.9694  -10.1275   23.7142 C   0  0  0  0  0  0  0  0  0  0  0  0
  -23.4717  -26.3758   19.8514 C   0  0  0  0  0  0  0  0  0  0  0  0
  -22.5202   -5.4892   24.3546 C   0  0  0  0  0  0  0  0  0  0  0  0
  -21.9383   -4.3323   23.8364 C   0  0  0  0  0  0  0  0  0  0  0  0
  -23.6412  -27.4037   22.0271 C   0  0  0  0  0  0  0  0  0  0  0  0
  -28.5294  -21.1246   19.3011 C   0  0  0  0  0  0  0  0  0  0  0  0
  -20.4225   -5.6819   22.5257 C   0  0  0  0  0  0  0  0  0  0  0  0
  -26.9584  -19.9769   20.4345 C   0  0  0  0  0  0  0  0  0  0  0  0
  -24.3800  -10.5373   21.7961 C   0  0  0  0  0  0  0  0  0  0  0  0
  -24.4538  -11.9044   19.6436 C   0  0  0  0  0  0  0  0  0  0  0  0
  -32.5122  -27.5004   19.6762 C   0  0  0  0  0  0  0  0  0  0  0  0
  -25.0324  -28.2002   20.2133 C   0  0  0  0  0  0  0  0  0  0  0  0
  -31.1044  -27.5503   19.6203 C   0  0  0  0  0  0  0  0  0  0  0  0
  -24.6198  -28.2893   21.5504 C   0  0  0  0  0  0  0  0  0  0  0  0
  -27.8427  -19.8881   19.3821 C   0  0  0  0  0  0  0  0  0  0  0  0
  -23.2057   -8.7579   23.5954 C   0  0  0  0  0  0  0  0  0  0  0  0
  -23.0718  -26.4512   21.1823 C   0  0  0  0  0  0  0  0  0  0  0  0
  -22.0532   -6.7425   23.9585 C   0  0  0  0  0  0  0  0  0  0  0  0
  -20.8894   -4.4287   22.9219 C   0  0  0  0  0  0  0  0  0  0  0  0
  -21.0044   -6.8388   23.0440 C   0  0  0  0  0  0  0  0  0  0  0  0
  -24.9866  -11.4568   20.8674 C   0  0  0  0  0  0  0  0  0  0  0  0
  -28.0440  -21.9314   20.3065 C   0  0  0  0  0  0  0  0  0  0  0  0
  -25.4075  -12.7581   19.1456 C   0  0  0  0  0  0  0  0  0  0  0  0
  -23.2081  -11.5776   19.0133 C   0  0  0  0  0  0  0  0  0  0  0  0
  -27.9839  -28.7600   21.2518 C   0  0  0  0  0  0  0  0  0  0  0  0
  -26.6110  -31.4006   22.5420 C   0  0  0  0  0  0  0  0  0  0  0  0
  -23.7818  -32.9322   23.6809 C   0  0  0  0  0  0  0  0  0  0  0  0
  -29.0680  -16.9110   19.8529 C   0  0  0  0  0  0  0  0  0  0  0  0
  -33.2696  -27.8510   20.9327 C   0  0  0  0  0  0  0  0  0  0  0  0
  -26.0616  -29.1523   19.6686 C   0  0  0  0  0  0  0  0  0  0  0  0
  -25.2049  -29.3063   22.4948 C   0  0  0  0  0  0  0  0  0  0  0  0
  -32.4069  -27.7733   22.1881 C   0  0  0  0  0  0  0  0  0  0  0  0
  -30.1624  -13.6163   20.6428 C   0  0  0  0  0  0  0  0  0  0  0  0
  -31.1068  -28.5335   21.9732 C   0  0  0  0  0  0  0  0  0  0  0  0
  -28.8693  -12.7997   20.6768 C   0  0  0  0  0  0  0  0  0  0  0  0
  -29.9544  -15.0256   21.1930 C   0  0  0  0  0  0  0  0  0  0  0  0
  -27.5645  -14.9652   20.5943 C   0  0  0  0  0  0  0  0  0  0  0  0
  -30.2814  -27.8967   20.8479 C   0  0  1  0  0  0  0  0  0  0  0  0
  -26.9624  -29.7410   20.7499 C   0  0  1  0  0  0  0  0  0  0  0  0
  -27.7111  -13.5550   19.9976 C   0  0  2  0  0  0  0  0  0  0  0  0
  -22.9806  -35.0757   24.7109 C   0  0  0  0  0  0  0  0  0  0  0  0
  -26.6005  -20.8892   23.4262 C   0  0  0  0  0  0  0  0  0  0  0  0
  -29.5236  -23.8874   19.7316 C   0  0  0  0  0  0  0  0  0  0  0  0
  -28.9565  -23.4036   22.1358 C   0  0  0  0  0  0  0  0  0  0  0  0
  -27.2484  -24.3708   20.6099 C   0  0  0  0  0  0  0  0  0  0  0  0
  -27.4807  -17.3508   16.4070 C   0  0  0  0  0  0  0  0  0  0  0  0
  -27.4078  -19.8464   16.2438 C   0  0  0  0  0  0  0  0  0  0  0  0
  -25.6504  -18.6176   17.5225 C   0  0  0  0  0  0  0  0  0  0  0  0
  -27.7881  -30.5486   25.2250 C   0  0  0  0  0  0  0  0  0  0  0  0
  -26.2097  -32.1381   26.3433 C   0  0  0  0  0  0  0  0  0  0  0  0
  -27.9293  -33.0009   24.7554 C   0  0  0  0  0  0  0  0  0  0  0  0
  -21.7856  -23.4726   24.7828 C   0  0  0  0  0  0  0  0  0  0  0  0
  -20.1922  -23.7238   22.8802 C   0  0  0  0  0  0  0  0  0  0  0  0
  -21.9827  -33.4916   21.3986 C   0  0  0  0  0  0  0  0  0  0  0  0
  -24.0302  -22.7734   22.8001 C   0  0  0  0  0  0  0  0  0  0  0  0
  -24.7685  -21.7552   21.9185 C   0  0  0  0  0  0  0  0  0  0  0  0
  -22.5264  -22.7748   22.4949 C   0  0  0  0  0  0  0  0  0  0  0  0
  -22.2016  -25.2450   23.0380 C   0  0  0  0  0  0  0  0  0  1  0  0
  -28.0375  -18.7201   18.5022 C   0  0  2  0  0  0  0  0  0  0  0  0
  -25.9414  -31.7238   23.8559 C   0  0  1  0  0  0  0  0  0  0  0  0
  -23.2068  -34.3118   23.4155 C   0  0  2  0  0  0  0  0  0  0  0  0
  -26.2899  -21.7255   22.1790 C   0  0  2  0  0  0  0  0  0  0  0  0
  -28.4103  -23.3155   20.6716 C   0  0  0  0  0  0  0  0  0  0  0  0
  -27.1584  -18.6479   17.1790 C   0  0  0  0  0  0  0  0  0  0  0  0
  -26.9573  -31.8323   25.0279 C   0  0  0  0  0  0  0  0  0  0  0  0
  -21.6770  -23.8127   23.2804 C   0  0  0  0  0  0  0  0  0  0  0  0
  -26.1858  -11.9827   21.1307 N   0  0  0  0  0  0  0  0  0  0  0  0
  -27.0897  -21.2232   20.9892 N   0  0  0  0  0  0  0  0  0  0  0  0
  -26.4145  -12.7694   20.0654 N   0  0  0  0  0  0  0  0  0  0  0  0
  -26.2124  -30.2108   21.9165 N   0  0  0  0  0  0  0  0  0  0  0  0
  -28.8431  -15.6878   20.5057 N   0  0  0  0  0  0  0  0  0  0  0  0
  -25.4747  -13.4928   18.0150 N   0  0  0  0  0  0  0  0  0  0  0  0
  -22.3455  -10.6835   19.6619 N   0  0  0  0  0  0  0  0  0  0  0  0
  -29.1649  -28.7609   20.5343 N   0  0  0  0  0  0  0  0  0  0  0  0
  -25.1597  -32.9345   23.6287 N   0  0  0  0  0  0  0  0  0  0  0  0
  -27.9627  -17.4677   19.2211 N   0  0  0  0  0  0  0  0  0  0  0  0
  -21.9033  -34.2010   22.7015 N   0  3  0  0  0  0  0  0  0  0  0  0
  -22.8774  -12.0514   17.8999 O   0  0  0  0  0  0  0  0  0  0  0  0
  -27.7208  -28.0556   22.2194 O   0  0  0  0  0  0  0  0  0  0  0  0
  -27.4513  -32.1788   22.0840 O   0  0  0  0  0  0  0  0  0  0  0  0
  -23.0792  -31.9514   23.9151 O   0  0  0  0  0  0  0  0  0  0  0  0
  -30.1732  -17.4632   19.8300 O   0  0  0  0  0  0  0  0  0  0  0  0
  -22.6325   -7.8901   24.4733 O   0  0  0  0  0  0  0  0  0  0  0  0
  -22.1164  -25.5943   21.6610 O   0  0  0  0  0  0  0  0  0  1  0  0
  -20.3318   -3.3176   22.4231 F   0  0  0  0  0  0  0  0  0  0  0  0
  -20.5522   -8.0401   22.6588 F   0  0  0  0  0  0  0  0  0  0  0  0
  1  2  1  0  0  0  0
  1  5  2  0  0  0  0
  2  6  2  0  0  0  0
  3  8  2  0  0  0  0
  3 17  1  0  0  0  0
  4  9  1  0  0  0  0
  4 17  2  0  0  0  0
  5 19  1  0  0  0  0
  6 21  1  0  0  0  0
  7 10  2  0  0  0  0
  7 20  1  0  0  0  0
  8 24  1  0  0  0  0
  9 24  2  0  0  0  0
 10 25  1  0  0  0  0
 11 12  2  0  0  0  0
 11 26  1  0  0  0  0
 12 27  1  0  0  0  0
 13 22  1  0  0  0  0
 13 25  2  0  0  0  0
 14 23  1  0  0  0  0
 14 30  2  0  0  0  0
 15 27  2  0  0  0  0
 15 28  1  0  0  0  0
 16 23  2  0  0  0  0
 16 76  1  0  0  0  0
 17 29  1  0  0  0  0
 18 29  1  0  0  0  0
 18 31  2  0  0  0  0
 18 32  1  0  0  0  0
 19 21  2  0  0  0  0
 19 37  1  0  0  0  0
 20 22  2  0  0  0  0
 20 38  1  0  0  0  0
 21 46  1  0  0  0  0
 22 39  1  0  0  0  0
 23 67  1  0  0  0  0
 24 91  1  0  0  0  0
 25 92  1  0  0  0  0
 26 28  2  0  0  0  0
 26 91  1  0  0  0  0
 27 93  1  0  0  0  0
 28 94  1  0  0  0  0
 29 75  2  0  0  0  0
 30 71  1  0  0  0  0
 30 76  1  0  0  0  0
 31 77  1  0  0  0  0
 31 80  1  0  0  0  0
 32 81  1  0  0  0  0
 32 86  2  0  0  0  0
 33 47  1  0  0  0  0
 33 82  1  0  0  0  0
 33 87  2  0  0  0  0
 34 68  1  0  0  0  0
 34 78  1  0  0  0  0
 34 88  2  0  0  0  0
 35 69  1  0  0  0  0
 35 83  1  0  0  0  0
 35 89  2  0  0  0  0
 36 79  1  0  0  0  0
 36 84  1  0  0  0  0
 36 90  2  0  0  0  0
 37 40  1  0  0  0  0
 38 47  1  0  0  0  0
 39 78  1  0  0  0  0
 40 42  1  0  0  0  0
 41 43  1  0  0  0  0
 41 44  1  0  0  0  0
 42 46  1  0  0  0  0
 43 48  1  0  0  0  0
 44 79  1  0  0  0  0
 45 48  1  0  0  0  0
 45 79  1  0  0  0  0
 46 82  1  0  0  0  0
 47 78  1  0  0  0  0
 48 77  1  0  0  0  0
 49 69  1  0  0  0  0
 50 70  1  0  0  0  0
 51 71  1  0  0  0  0
 52 71  1  0  0  0  0
 53 71  1  0  0  0  0
 54 72  1  0  0  0  0
 55 72  1  0  0  0  0
 56 72  1  0  0  0  0
 57 73  1  0  0  0  0
 58 73  1  0  0  0  0
 59 73  1  0  0  0  0
 60 74  1  0  0  0  0
 61 74  1  0  0  0  0
 62 85  1  0  0  0  0
 63 64  1  0  0  0  0
 63 65  1  0  0  0  0
 64 70  1  0  0  0  0
 65 74  1  0  0  0  0
 66 74  1  0  0  0  0
 66 92  1  0  0  0  0
 67 72  1  0  0  0  0
 67 84  1  0  0  0  0
 68 73  1  0  0  0  0
 68 83  1  0  0  0  0
 69 85  1  0  0  0  0
 70 76  1  0  0  0  0
 75 77  1  0  0  0  0
M  CHG  1  85   1
M  ISO  4  36 100  66 101  84 100  92 101
M  END
> <Batch ID>
0067

> <Smiles>
CNC(C)C(=O)NC(C(=O)N1Cc2cc([101O:1][101CH2:1]C(C)(C)CCCC(C)n3cc(C([100NH:0][100C:0](=O)N4CCCC(n5nc(-c6ccc(Oc7ccc(F)cc7F)cc6)c(C(N)=O)c5N)C4)C(C)(C)C)cc3C(C)(C)C)ccc2CC1C(=O)NC1CCCc2ccccc21)C(C)(C)C

> <Shape>
0.305

> <Color>
0.093

> <Negative vol penalty>
0.000

$$$$

  -OEChem-04052318123D

 87 95  0     1  0  0  0  0  0999 V2000
  -30.6360  -23.5907   15.4987 C   0  0  0  0  0  0  0  0  0  0  0  0
  -29.7168  -24.4951   16.0184 C   0  0  0  0  0  0  0  0  0  0  0  0
  -26.9444  -13.3169   21.0493 C   0  0  0  0  0  0  0  0  0  0  0  0
  -26.9361  -13.5017   18.6404 C   0  0  0  0  0  0  0  0  0  0  0  0
  -31.3762  -22.7828   16.3593 C   0  0  0  0  0  0  0  0  0  0  0  0
  -29.5462  -24.6004   17.3992 C   0  0  0  0  0  0  0  0  0  0  0  0
  -26.6358  -28.2199   19.0218 C   0  0  0  0  0  0  0  0  0  0  0  0
  -26.2382  -12.1174   20.9597 C   0  0  0  0  0  0  0  0  0  0  0  0
  -26.2300  -12.3021   18.5508 C   0  0  0  0  0  0  0  0  0  0  0  0
  -25.2498  -28.1967   18.8728 C   0  0  0  0  0  0  0  0  0  0  0  0
  -24.1238   -9.1888   21.3793 C   0  0  0  0  0  0  0  0  0  0  0  0
  -23.0458   -9.0029   22.2447 C   0  0  0  0  0  0  0  0  0  0  0  0
  -25.0159  -27.5993   21.1983 C   0  0  0  0  0  0  0  0  0  0  0  0
  -21.9632  -10.9525   21.3151 C   0  0  0  0  0  0  0  0  0  0  0  0
  -27.2933  -14.0091   19.8896 C   0  0  0  0  0  0  0  0  0  0  0  0
  -29.4202  -15.4141   19.9892 C   0  0  0  0  0  0  0  0  0  0  0  0
  -31.2049  -22.8701   17.7507 C   0  0  0  0  0  0  0  0  0  0  0  0
  -27.2237  -27.9218   20.2595 C   0  0  0  0  0  0  0  0  0  0  0  0
  -30.3011  -23.8107   18.2852 C   0  0  0  0  0  0  0  0  0  0  0  0
  -26.4095  -27.6220   21.3610 C   0  0  0  0  0  0  0  0  0  0  0  0
  -25.8810  -11.6100   19.7105 C   0  0  0  0  0  0  0  0  0  0  0  0
  -24.4397  -27.8835   19.9604 C   0  0  0  0  0  0  0  0  0  0  0  0
  -24.1215  -10.2566   20.4818 C   0  0  0  0  0  0  0  0  0  0  0  0
  -21.9655   -9.8847   22.2126 C   0  0  0  0  0  0  0  0  0  0  0  0
  -23.0413  -11.1384   20.4497 C   0  0  0  0  0  0  0  0  0  0  0  0
  -28.0222  -15.2486   19.9815 C   0  0  0  0  0  0  0  0  0  0  0  0
  -29.6048  -16.7712   20.0919 C   0  0  0  0  0  0  0  0  0  0  0  0
  -22.3905  -22.0548   18.3482 C   0  0  0  0  0  0  0  0  0  0  0  0
  -23.7771  -22.3674   16.6114 C   0  0  0  0  0  0  0  0  0  0  0  0
  -22.6586  -24.1077   17.4817 C   0  0  0  0  0  0  0  0  0  0  0  0
  -30.4591  -14.4291   19.9106 C   0  0  0  0  0  0  0  0  0  0  0  0
  -29.2097  -25.6765   21.3169 C   0  0  0  0  0  0  0  0  0  0  0  0
  -29.1360  -27.4419   24.0372 C   0  0  0  0  0  0  0  0  0  0  0  0
  -27.4691  -29.6949   25.9846 C   0  0  0  0  0  0  0  0  0  0  0  0
  -26.2058  -21.4721   18.6084 C   0  0  0  0  0  0  0  0  0  0  0  0
  -32.0378  -21.9774   18.6364 C   0  0  0  0  0  0  0  0  0  0  0  0
  -28.7192  -27.9773   20.4105 C   0  0  0  0  0  0  0  0  0  0  0  0
  -26.9903  -27.3143   22.7161 C   0  0  0  0  0  0  0  0  0  0  0  0
  -31.4728  -21.8452   20.0469 C   0  0  0  0  0  0  0  0  0  0  0  0
  -27.5215  -20.7127   21.8285 C   0  0  0  0  0  0  0  0  0  0  0  0
  -31.1605  -23.2224   20.6129 C   0  0  0  0  0  0  0  0  0  0  0  0
  -27.9252  -19.2411   21.7210 C   0  0  0  0  0  0  0  0  0  0  0  0
  -26.2466  -21.0071   21.0413 C   0  0  0  0  0  0  0  0  0  0  0  0
  -26.6856  -19.1191   19.5193 C   0  0  0  0  0  0  0  0  0  0  0  0
  -30.0765  -23.9211   19.7825 C   0  0  1  0  0  0  0  0  0  0  0  0
  -29.2318  -27.1542   21.5882 C   0  0  1  0  0  0  0  0  0  0  0  0
  -27.9968  -18.7853   20.2512 C   0  0  2  0  0  0  0  0  0  0  0  0
  -21.7571  -21.1478   19.3477 C   0  0  0  0  0  0  0  0  0  0  0  0
  -27.6414  -30.9183   28.1689 C   0  0  0  0  0  0  0  0  0  0  0  0
  -22.3463  -29.6690   18.4257 C   0  0  0  0  0  0  0  0  0  0  0  0
  -24.7826  -22.5751   14.2360 C   0  0  0  0  0  0  0  0  0  0  0  0
  -24.3605  -20.3468   15.2423 C   0  0  0  0  0  0  0  0  0  0  0  0
  -28.3711  -24.8897   25.5242 C   0  0  0  0  0  0  0  0  0  0  0  0
  -27.6423  -26.3134   27.4504 C   0  0  0  0  0  0  0  0  0  0  0  0
  -30.0265  -26.3358   26.7170 C   0  0  0  0  0  0  0  0  0  0  0  0
  -27.4561  -32.3321   24.6414 C   0  0  0  0  0  0  0  0  0  0  0  0
  -21.2562  -27.4011   18.3198 C   0  0  0  0  0  0  0  0  0  0  0  0
  -26.2132  -21.7837   16.1463 C   0  0  0  0  0  0  0  0  0  0  0  0
  -21.4342  -25.8936   18.4651 C   0  0  0  0  0  0  0  0  0  0  0  0
  -28.2766  -27.4581   25.2782 C   0  0  1  0  0  0  0  0  0  0  0  0
  -27.9314  -30.9645   26.6767 C   0  0  2  0  0  0  0  0  0  0  0  0
  -22.5644  -28.1653   18.5252 C   0  0  2  0  0  0  0  0  0  1  0  0
  -24.7365  -21.8198   15.6104 C   0  0  0  0  0  0  0  0  0  0  0  0
  -28.5680  -26.2531   26.2166 C   0  0  0  0  0  0  0  0  0  0  0  0
  -27.3653  -16.4080   20.0722 N   0  0  0  0  0  0  0  0  0  0  0  0
  -23.2453  -21.4915   17.4789 N   0  0  0  0  0  0  0  0  0  0  0  0
  -22.0494  -23.3521   18.4096 N   0  0  0  0  0  0  0  0  0  0  0  0
  -23.5316  -23.6862   16.5526 N   0  0  0  0  0  0  0  0  0  0  0  0
  -28.3548  -17.3150   20.1379 N   0  0  0  0  0  0  0  0  0  0  0  0
  -28.4582  -27.3753   22.8116 N   0  0  0  0  0  0  0  0  0  0  0  0
  -26.3807  -20.5520   19.6553 N   0  0  0  0  0  0  0  0  0  0  0  0
  -30.7127  -17.5406   20.1464 N   0  0  0  0  0  0  0  0  0  0  0  0
  -30.0941  -13.0797   19.8091 N   0  0  0  0  0  0  0  0  0  0  0  0
  -29.9585  -25.2946   20.2201 N   0  0  0  0  0  0  0  0  0  0  0  0
  -28.4811  -28.7622   25.8994 N   0  0  0  0  0  0  0  0  0  0  0  0
  -26.3565  -20.9595   17.3257 N   0  0  0  0  0  0  0  0  0  0  0  0
  -27.2381  -32.1508   26.0997 N   0  3  0  0  0  0  0  0  0  0  0  0
  -31.6751  -14.7352   19.9463 O   0  0  0  0  0  0  0  0  0  0  0  0
  -28.5625  -24.9373   22.0493 O   0  0  0  0  0  0  0  0  0  0  0  0
  -30.3632  -27.4940   24.1507 O   0  0  0  0  0  0  0  0  0  0  0  0
  -26.3238  -29.5442   25.5651 O   0  0  0  0  0  0  0  0  0  0  0  0
  -25.9408  -22.6633   18.8027 O   0  0  0  0  0  0  0  0  0  0  0  0
  -25.1922  -10.4394   19.6227 O   0  0  0  0  0  0  0  0  0  0  0  0
  -23.0866  -27.8595   19.8176 O   0  0  0  0  0  0  0  0  0  1  0  0
  -22.3585  -25.4449   17.4828 O   0  0  0  0  0  0  0  0  0  0  0  0
  -20.9297   -9.7052   23.0427 F   0  0  0  0  0  0  0  0  0  0  0  0
  -23.0329  -12.1654   19.5888 F   0  0  0  0  0  0  0  0  0  0  0  0
  1  2  1  0  0  0  0
  1  5  2  0  0  0  0
  2  6  2  0  0  0  0
  3  8  2  0  0  0  0
  3 15  1  0  0  0  0
  4  9  1  0  0  0  0
  4 15  2  0  0  0  0
  5 17  1  0  0  0  0
  6 19  1  0  0  0  0
  7 10  2  0  0  0  0
  7 18  1  0  0  0  0
  8 21  1  0  0  0  0
  9 21  2  0  0  0  0
 10 22  1  0  0  0  0
 11 12  2  0  0  0  0
 11 23  1  0  0  0  0
 12 24  1  0  0  0  0
 13 20  1  0  0  0  0
 13 22  2  0  0  0  0
 14 24  2  0  0  0  0
 14 25  1  0  0  0  0
 15 26  1  0  0  0  0
 16 26  1  0  0  0  0
 16 27  2  0  0  0  0
 16 31  1  0  0  0  0
 17 19  2  0  0  0  0
 17 36  1  0  0  0  0
 18 20  2  0  0  0  0
 18 37  1  0  0  0  0
 19 45  1  0  0  0  0
 20 38  1  0  0  0  0
 21 83  1  0  0  0  0
 22 84  1  0  0  0  0
 23 25  2  0  0  0  0
 23 83  1  0  0  0  0
 24 86  1  0  0  0  0
 25 87  1  0  0  0  0
 26 65  2  0  0  0  0
 27 69  1  0  0  0  0
 27 72  1  0  0  0  0
 28 48  1  0  0  0  0
 28 66  1  0  0  0  0
 28 67  2  0  0  0  0
 29 63  1  0  0  0  0
 29 66  2  0  0  0  0
 29 68  1  0  0  0  0
 30 67  1  0  0  0  0
 30 68  2  0  0  0  0
 30 85  1  0  0  0  0
 31 73  1  0  0  0  0
 31 78  2  0  0  0  0
 32 46  1  0  0  0  0
 32 74  1  0  0  0  0
 32 79  2  0  0  0  0
 33 60  1  0  0  0  0
 33 70  1  0  0  0  0
 33 80  2  0  0  0  0
 34 61  1  0  0  0  0
 34 75  1  0  0  0  0
 34 81  2  0  0  0  0
 35 71  1  0  0  0  0
 35 76  1  0  0  0  0
 35 82  2  0  0  0  0
 36 39  1  0  0  0  0
 37 46  1  0  0  0  0
 38 70  1  0  0  0  0
 39 41  1  0  0  0  0
 40 42  1  0  0  0  0
 40 43  1  0  0  0  0
 41 45  1  0  0  0  0
 42 47  1  0  0  0  0
 43 71  1  0  0  0  0
 44 47  1  0  0  0  0
 44 71  1  0  0  0  0
 45 74  1  0  0  0  0
 46 70  1  0  0  0  0
 47 69  1  0  0  0  0
 49 61  1  0  0  0  0
 50 62  1  0  0  0  0
 51 63  1  0  0  0  0
 52 63  1  0  0  0  0
 53 64  1  0  0  0  0
 54 64  1  0  0  0  0
 55 64  1  0  0  0  0
 56 77  1  0  0  0  0
 57 59  1  0  0  0  0
 57 62  1  0  0  0  0
 58 63  1  0  0  0  0
 58 76  1  0  0  0  0
 59 85  1  0  0  0  0
 60 64  1  0  0  0  0
 60 75  1  0  0  0  0
 61 77  1  0  0  0  0
 62 84  1  0  0  0  0
 65 69  1  0  0  0  0
M  CHG  1  77   1
M  ISO  4  35 100  62 101  76 100  84 101
M  END
> <Batch ID>
0067

> <Smiles>
CNC(C)C(=O)NC(C(=O)N1Cc2cc([101O:1][101CH:1](C)CCOc3nc(C)nc(C(C)(C)C[100NH:0][100C:0](=O)N4CCCC(n5nc(-c6ccc(Oc7ccc(F)cc7F)cc6)c(C(N)=O)c5N)C4)n3)ccc2CC1C(=O)NC1CCCc2ccccc21)C(C)(C)C

> <Shape>
0.217

> <Color>
0.058

> <Negative vol penalty>
0.000

$$$$

  -OEChem-04052318123D

 87 95  0     1  0  0  0  0  0999 V2000
  -17.5939  -15.3704   21.3251 C   0  0  0  0  0  0  0  0  0  0  0  0
  -18.7232  -16.1315   21.6094 C   0  0  0  0  0  0  0  0  0  0  0  0
  -26.6271  -30.1577   20.9014 C   0  0  0  0  0  0  0  0  0  0  0  0
  -25.2371  -28.2019   21.1837 C   0  0  0  0  0  0  0  0  0  0  0  0
  -17.6268  -13.9867   21.4931 C   0  0  0  0  0  0  0  0  0  0  0  0
  -19.8858  -15.5094   22.0628 C   0  0  0  0  0  0  0  0  0  0  0  0
  -24.0445  -17.2398   19.7485 C   0  0  0  0  0  0  0  0  0  0  0  0
  -25.5054  -30.9751   21.0402 C   0  0  0  0  0  0  0  0  0  0  0  0
  -24.1153  -29.0193   21.3226 C   0  0  0  0  0  0  0  0  0  0  0  0
  -24.5451  -18.4694   20.1741 C   0  0  0  0  0  0  0  0  0  0  0  0
  -22.7043  -30.9208   23.7338 C   0  0  0  0  0  0  0  0  0  0  0  0
  -21.8123  -30.6249   24.7644 C   0  0  0  0  0  0  0  0  0  0  0  0
  -26.2063  -17.3276   21.4992 C   0  0  0  0  0  0  0  0  0  0  0  0
  -20.0473  -30.3066   23.1455 C   0  0  0  0  0  0  0  0  0  0  0  0
  -29.8849  -20.4430   21.1495 C   0  0  0  0  0  0  0  0  0  0  0  0
  -26.4930  -28.7711   20.9730 C   0  0  0  0  0  0  0  0  0  0  0  0
  -28.8029  -27.9174   21.6386 C   0  0  0  0  0  0  0  0  0  0  0  0
  -18.7934  -13.3463   21.9396 C   0  0  0  0  0  0  0  0  0  0  0  0
  -24.6151  -16.0427   20.2043 C   0  0  0  0  0  0  0  0  0  0  0  0
  -19.9340  -14.1160   22.2382 C   0  0  0  0  0  0  0  0  0  0  0  0
  -25.7127  -16.0841   21.0758 C   0  0  0  0  0  0  0  0  0  0  0  0
  -24.2495  -30.4059   21.2509 C   0  0  0  0  0  0  0  0  0  0  0  0
  -25.6243  -18.5135   21.0519 C   0  0  0  0  0  0  0  0  0  0  0  0
  -22.2678  -30.9098   22.4089 C   0  0  0  0  0  0  0  0  0  0  0  0
  -20.4838  -30.3177   24.4703 C   0  0  0  0  0  0  0  0  0  0  0  0
  -20.9393  -30.6027   22.1149 C   0  0  0  0  0  0  0  0  0  0  0  0
  -27.6512  -27.9263   20.8290 C   0  0  0  0  0  0  0  0  0  0  0  0
  -29.2938  -21.4591   21.9134 C   0  0  0  0  0  0  0  0  0  0  0  0
  -29.6007  -26.9432   21.0900 C   0  0  0  0  0  0  0  0  0  0  0  0
  -29.1229  -28.7181   22.7841 C   0  0  0  0  0  0  0  0  0  0  0  0
  -23.5703  -13.5596   21.8915 C   0  0  0  0  0  0  0  0  0  0  0  0
  -26.4891  -12.3403   21.1729 C   0  0  0  0  0  0  0  0  0  0  0  0
  -28.3176  -22.1200   17.7429 C   0  0  0  0  0  0  0  0  0  0  0  0
  -29.7364  -12.9213   20.2987 C   0  0  0  0  0  0  0  0  0  0  0  0
  -18.7663  -11.8532   22.1511 C   0  0  0  0  0  0  0  0  0  0  0  0
  -24.0805  -14.7247   19.7148 C   0  0  0  0  0  0  0  0  0  0  0  0
  -26.3740  -14.8278   21.5787 C   0  0  0  0  0  0  0  0  0  0  0  0
  -20.1544  -11.2307   22.2779 C   0  0  0  0  0  0  0  0  0  0  0  0
  -30.5733  -24.7861   16.9404 C   0  0  0  0  0  0  0  0  0  0  0  0
  -21.0207  -12.0475   23.2314 C   0  0  0  0  0  0  0  0  0  0  0  0
  -30.1655  -25.9027   17.9007 C   0  0  0  0  0  0  0  0  0  0  0  0
  -29.3658  -23.9728   16.4848 C   0  0  0  0  0  0  0  0  0  0  0  0
  -28.1482  -24.5205   18.5679 C   0  0  0  0  0  0  0  0  0  0  0  0
  -21.2217  -13.4750   22.7085 C   0  0  1  0  0  0  0  0  0  0  0  0
  -24.4112  -13.5627   20.6463 C   0  0  1  0  0  0  0  0  0  0  0  0
  -29.3424  -25.3473   19.0765 C   0  0  2  0  0  0  0  0  0  0  0  0
  -31.8914  -11.7277   19.8201 C   0  0  0  0  0  0  0  0  0  0  0  0
  -24.9606  -21.3672   23.5795 C   0  0  0  0  0  0  0  0  0  0  0  0
  -31.1260  -21.6101   23.5732 C   0  0  0  0  0  0  0  0  0  0  0  0
  -29.4472  -23.4197   23.5961 C   0  0  0  0  0  0  0  0  0  0  0  0
  -26.8909  -11.8725   24.1612 C   0  0  0  0  0  0  0  0  0  0  0  0
  -29.3387  -11.5909   23.7172 C   0  0  0  0  0  0  0  0  0  0  0  0
  -27.6981  -10.0132   22.6964 C   0  0  0  0  0  0  0  0  0  0  0  0
  -27.0442  -22.7324   25.3426 C   0  0  0  0  0  0  0  0  0  0  0  0
  -26.8342  -20.2993   25.8480 C   0  0  0  0  0  0  0  0  0  0  0  0
  -29.8354  -13.9665   17.5317 C   0  0  0  0  0  0  0  0  0  0  0  0
  -28.8297  -21.0862   24.4492 C   0  0  0  0  0  0  0  0  0  0  0  0
  -26.7043  -19.7534   22.7700 C   0  0  0  0  0  0  0  0  0  1  0  0
  -27.8528  -12.3794   21.8194 C   0  0  1  0  0  0  0  0  0  0  0  0
  -27.5253  -21.6900   18.9518 C   0  0  2  0  0  0  0  0  0  0  0  0
  -30.6164  -12.3056   19.2258 C   0  0  2  0  0  0  0  0  0  0  0  0
  -26.4768  -21.1260   23.4408 C   0  0  2  0  0  0  0  0  0  0  0  0
  -29.6121  -21.9035   23.3548 C   0  0  0  0  0  0  0  0  0  0  0  0
  -27.9316  -11.4878   23.0908 C   0  0  0  0  0  0  0  0  0  0  0  0
  -27.3055  -21.3198   24.7871 C   0  0  0  0  0  0  0  0  0  0  0  0
  -29.3093  -20.3884   19.9452 N   0  0  0  0  0  0  0  0  0  0  0  0
  -27.7084  -27.0290   19.8412 N   0  0  0  0  0  0  0  0  0  0  0  0
  -28.3370  -22.0620   21.2022 N   0  0  0  0  0  0  0  0  0  0  0  0
  -28.9056  -26.4473   20.0265 N   0  0  0  0  0  0  0  0  0  0  0  0
  -28.4045  -21.3749   20.0506 N   0  0  0  0  0  0  0  0  0  0  0  0
  -25.8109  -13.5636   21.0762 N   0  0  0  0  0  0  0  0  0  0  0  0
  -28.5976  -23.4820   17.6304 N   0  0  0  0  0  0  0  0  0  0  0  0
  -30.8220  -26.4710   21.4184 N   0  0  0  0  0  0  0  0  0  0  0  0
  -28.7498  -28.2504   24.0515 N   0  0  0  0  0  0  0  0  0  0  0  0
  -22.2110  -13.4918   21.6524 N   0  0  0  0  0  0  0  0  0  0  0  0
  -28.8089  -12.0204   20.7776 N   0  0  0  0  0  0  0  0  0  0  0  0
  -30.9930  -13.3318   18.2129 N   0  3  0  0  0  0  0  0  0  0  0  0
  -29.7073  -29.8236   22.6852 O   0  0  0  0  0  0  0  0  0  0  0  0
  -24.1146  -13.6132   22.9882 O   0  0  0  0  0  0  0  0  0  0  0  0
  -26.0452  -11.2652   20.7622 O   0  0  0  0  0  0  0  0  0  0  0  0
  -28.6786  -21.2690   16.9258 O   0  0  0  0  0  0  0  0  0  0  0  0
  -29.8620  -14.0839   20.6770 O   0  0  0  0  0  0  0  0  0  0  0  0
  -23.1548  -31.2031   21.3867 O   0  0  0  0  0  0  0  0  0  0  0  0
  -26.1173  -19.7195   21.4719 O   0  0  0  0  0  0  0  0  0  1  0  0
  -19.6277  -30.0320   25.4601 F   0  0  0  0  0  0  0  0  0  0  0  0
  -20.5145  -30.5893   20.8440 F   0  0  0  0  0  0  0  0  0  0  0  0
  -26.7067  -20.6501   18.6189 F   0  0  0  0  0  0  0  0  0  0  0  0
  1  2  1  0  0  0  0
  1  5  2  0  0  0  0
  2  6  2  0  0  0  0
  3  8  2  0  0  0  0
  3 16  1  0  0  0  0
  4  9  1  0  0  0  0
  4 16  2  0  0  0  0
  5 18  1  0  0  0  0
  6 20  1  0  0  0  0
  7 10  2  0  0  0  0
  7 19  1  0  0  0  0
  8 22  1  0  0  0  0
  9 22  2  0  0  0  0
 10 23  1  0  0  0  0
 11 12  2  0  0  0  0
 11 24  1  0  0  0  0
 12 25  1  0  0  0  0
 13 21  1  0  0  0  0
 13 23  2  0  0  0  0
 14 25  2  0  0  0  0
 14 26  1  0  0  0  0
 15 28  1  0  0  0  0
 15 66  2  0  0  0  0
 16 27  1  0  0  0  0
 17 27  1  0  0  0  0
 17 29  2  0  0  0  0
 17 30  1  0  0  0  0
 18 20  2  0  0  0  0
 18 35  1  0  0  0  0
 19 21  2  0  0  0  0
 19 36  1  0  0  0  0
 20 44  1  0  0  0  0
 21 37  1  0  0  0  0
 22 83  1  0  0  0  0
 23 84  1  0  0  0  0
 24 26  2  0  0  0  0
 24 83  1  0  0  0  0
 25 85  1  0  0  0  0
 26 86  1  0  0  0  0
 27 67  2  0  0  0  0
 28 63  1  0  0  0  0
 28 68  2  0  0  0  0
 29 69  1  0  0  0  0
 29 73  1  0  0  0  0
 30 74  1  0  0  0  0
 30 78  2  0  0  0  0
 31 45  1  0  0  0  0
 31 75  1  0  0  0  0
 31 79  2  0  0  0  0
 32 59  1  0  0  0  0
 32 71  1  0  0  0  0
 32 80  2  0  0  0  0
 33 60  1  0  0  0  0
 33 72  1  0  0  0  0
 33 81  2  0  0  0  0
 34 61  1  0  0  0  0
 34 76  1  0  0  0  0
 34 82  2  0  0  0  0
 35 38  1  0  0  0  0
 36 45  1  0  0  0  0
 37 71  1  0  0  0  0
 38 40  1  0  0  0  0
 39 41  1  0  0  0  0
 39 42  1  0  0  0  0
 40 44  1  0  0  0  0
 41 46  1  0  0  0  0
 42 72  1  0  0  0  0
 43 46  1  0  0  0  0
 43 72  1  0  0  0  0
 44 75  1  0  0  0  0
 45 71  1  0  0  0  0
 46 69  1  0  0  0  0
 47 61  1  0  0  0  0
 48 62  1  0  0  0  0
 49 63  1  0  0  0  0
 50 63  1  0  0  0  0
 51 64  1  0  0  0  0
 52 64  1  0  0  0  0
 53 64  1  0  0  0  0
 54 65  1  0  0  0  0
 55 65  1  0  0  0  0
 56 77  1  0  0  0  0
 57 63  1  0  0  0  0
 57 65  1  0  0  0  0
 58 62  1  0  0  0  0
 58 84  1  0  0  0  0
 59 64  1  0  0  0  0
 59 76  1  0  0  0  0
 60 70  1  0  0  0  0
 60 87  1  0  0  0  0
 61 77  1  0  0  0  0
 62 65  1  0  0  0  0
 66 70  1  0  0  0  0
 67 69  1  0  0  0  0
 68 70  1  0  0  0  0
M  CHG  1  77   1
M  ISO  4  33 100  58 101  60 100  84 101
M  END
> <Batch ID>
0067

> <Smiles>
CNC(C)C(=O)NC(C(=O)N1Cc2cc([101O:1][101CH2:1]C(C)C(C)(C)CC(C)(C)c3cnn([100CH:0](F)[100C:0](=O)N4CCCC(n5nc(-c6ccc(Oc7ccc(F)cc7F)cc6)c(C(N)=O)c5N)C4)n3)ccc2CC1C(=O)NC1CCCc2ccccc21)C(C)(C)C

> <Shape>
0.246

> <Color>
0.062

> <Negative vol penalty>
0.000

$$$$

  -OEChem-04052318123D

 87 95  0     1  0  0  0  0  0999 V2000
  -28.3899  -33.3659   25.2037 C   0  0  0  0  0  0  0  0  0  0  0  0
  -28.4462  -31.9822   25.0708 C   0  0  0  0  0  0  0  0  0  0  0  0
  -22.9857  -17.9203   23.8901 C   0  0  0  0  0  0  0  0  0  0  0  0
  -24.6910  -19.0408   22.5964 C   0  0  0  0  0  0  0  0  0  0  0  0
  -27.1878  -34.0377   24.9858 C   0  0  0  0  0  0  0  0  0  0  0  0
  -27.3000  -31.2693   24.7209 C   0  0  0  0  0  0  0  0  0  0  0  0
  -28.1944  -27.7768   21.1646 C   0  0  0  0  0  0  0  0  0  0  0  0
  -23.1210  -18.8764   24.8966 C   0  0  0  0  0  0  0  0  0  0  0  0
  -24.8263  -19.9970   23.6029 C   0  0  0  0  0  0  0  0  0  0  0  0
  -28.7986  -26.5895   21.5759 C   0  0  0  0  0  0  0  0  0  0  0  0
  -23.1800  -22.7548   24.6539 C   0  0  0  0  0  0  0  0  0  0  0  0
  -23.2453  -24.0939   24.2691 C   0  0  0  0  0  0  0  0  0  0  0  0
  -26.6455  -25.5017   21.5781 C   0  0  0  0  0  0  0  0  0  0  0  0
  -25.4298  -24.2791   25.2845 C   0  0  0  0  0  0  0  0  0  0  0  0
  -23.7707  -18.0024   22.7400 C   0  0  0  0  0  0  0  0  0  0  0  0
  -22.7623  -17.0614   20.5940 C   0  0  0  0  0  0  0  0  0  0  0  0
  -26.0285  -33.3337   24.6236 C   0  0  0  0  0  0  0  0  0  0  0  0
  -26.8075  -27.8385   20.9672 C   0  0  0  0  0  0  0  0  0  0  0  0
  -26.0809  -31.9322   24.4992 C   0  0  0  0  0  0  0  0  0  0  0  0
  -26.0265  -26.6903   21.1618 C   0  0  0  0  0  0  0  0  0  0  0  0
  -24.0413  -19.9147   24.7531 C   0  0  0  0  0  0  0  0  0  0  0  0
  -28.0237  -25.4525   21.7855 C   0  0  0  0  0  0  0  0  0  0  0  0
  -24.2395  -22.1778   25.3542 C   0  0  0  0  0  0  0  0  0  0  0  0
  -24.3702  -24.8560   24.5843 C   0  0  0  0  0  0  0  0  0  0  0  0
  -25.3643  -22.9400   25.6695 C   0  0  0  0  0  0  0  0  0  0  0  0
  -23.6318  -17.0147   21.7002 C   0  0  0  0  0  0  0  0  0  0  0  0
  -23.0118  -15.8958   19.9117 C   0  0  0  0  0  0  0  0  0  0  0  0
  -31.6346  -16.4313   19.7916 C   0  0  0  0  0  0  0  0  0  0  0  0
  -29.9569  -15.0651   20.3879 C   0  0  0  0  0  0  0  0  0  0  0  0
  -29.6504  -17.2883   20.3962 C   0  0  0  0  0  0  0  0  0  0  0  0
  -21.8139  -18.0684   20.2170 C   0  0  0  0  0  0  0  0  0  0  0  0
  -24.4264  -29.4877   22.2766 C   0  0  0  0  0  0  0  0  0  0  0  0
  -22.6802  -28.0776   19.9347 C   0  0  0  0  0  0  0  0  0  0  0  0
  -22.3293  -25.4833   17.7453 C   0  0  0  0  0  0  0  0  0  0  0  0
  -27.6480  -12.2897   19.4892 C   0  0  0  0  0  0  0  0  0  0  0  0
  -24.7410  -34.0984   24.4446 C   0  0  0  0  0  0  0  0  0  0  0  0
  -26.1745  -29.1196   20.4977 C   0  0  0  0  0  0  0  0  0  0  0  0
  -24.5362  -26.6986   20.9441 C   0  0  0  0  0  0  0  0  0  0  0  0
  -23.6603  -33.3084   23.7109 C   0  0  0  0  0  0  0  0  0  0  0  0
  -24.4767  -11.3986   20.5731 C   0  0  0  0  0  0  0  0  0  0  0  0
  -23.5518  -31.8971   24.2796 C   0  0  0  0  0  0  0  0  0  0  0  0
  -23.8055  -12.7356   20.8844 C   0  0  0  0  0  0  0  0  0  0  0  0
  -25.9299  -11.3990   21.0324 C   0  0  0  0  0  0  0  0  0  0  0  0
  -26.0887  -13.8511   20.7446 C   0  0  0  0  0  0  0  0  0  0  0  0
  -24.8648  -31.1263   24.0969 C   0  0  1  0  0  0  0  0  0  0  0  0
  -24.6867  -29.2057   20.8239 C   0  0  1  0  0  0  0  0  0  0  0  0
  -24.6130  -13.9072   20.2989 C   0  0  2  0  0  0  0  0  0  0  0  0
  -33.0385  -16.6266   19.3295 C   0  0  0  0  0  0  0  0  0  0  0  0
  -31.1989  -13.0826   22.3748 C   0  0  0  0  0  0  0  0  0  0  0  0
  -20.7803  -24.5852   15.9871 C   0  0  0  0  0  0  0  0  0  0  0  0
  -20.7758  -27.1066   22.1119 C   0  0  0  0  0  0  0  0  0  0  0  0
  -19.8339  -25.4749   20.4631 C   0  0  0  0  0  0  0  0  0  0  0  0
  -19.6527  -27.9254   20.0328 C   0  0  0  0  0  0  0  0  0  0  0  0
  -29.3918  -13.4200   18.1628 C   0  0  0  0  0  0  0  0  0  0  0  0
  -24.4077  -25.6821   15.6477 C   0  0  0  0  0  0  0  0  0  0  0  0
  -30.5357  -12.6989   21.0577 C   0  0  0  0  0  0  0  0  0  0  0  0
  -29.0411  -21.9780   21.6506 C   0  0  0  0  0  0  0  0  0  0  0  0
  -28.4257  -20.6605   21.1921 C   0  0  0  0  0  0  0  0  0  0  0  0
  -27.9917  -23.0745   21.7758 C   0  0  0  0  0  0  0  0  0  1  0  0
  -29.4802  -19.5755   21.0253 C   0  0  0  0  0  0  0  0  0  0  0  0
  -29.4315  -13.6885   20.6150 C   0  0  2  0  0  0  0  0  0  0  0  0
  -21.9010  -26.7907   19.8097 C   0  0  1  0  0  0  0  0  0  0  0  0
  -21.9981  -25.4530   16.2642 C   0  0  2  0  0  0  0  0  0  0  0  0
  -20.5687  -26.8244   20.6105 C   0  0  0  0  0  0  0  0  0  0  0  0
  -24.3778  -15.9071   21.7232 N   0  0  0  0  0  0  0  0  0  0  0  0
  -31.2302  -15.1637   19.9735 N   0  0  0  0  0  0  0  0  0  0  0  0
  -30.9025  -17.5408   19.9823 N   0  0  0  0  0  0  0  0  0  0  0  0
  -29.1090  -16.0801   20.6200 N   0  0  0  0  0  0  0  0  0  0  0  0
  -23.9777  -15.2469   20.6231 N   0  0  0  0  0  0  0  0  0  0  0  0
  -23.9631  -27.9769   20.4911 N   0  0  0  0  0  0  0  0  0  0  0  0
  -26.6653  -12.5278   20.4616 N   0  0  0  0  0  0  0  0  0  0  0  0
  -22.4969  -15.3728   18.7787 N   0  0  0  0  0  0  0  0  0  0  0  0
  -21.6846  -19.2025   21.0303 N   0  0  0  0  0  0  0  0  0  0  0  0
  -24.9932  -30.6628   22.7320 N   0  0  0  0  0  0  0  0  0  0  0  0
  -21.7331  -26.5523   18.3803 N   0  0  0  0  0  0  0  0  0  0  0  0
  -28.7288  -13.1829   19.4372 N   0  0  0  0  0  0  0  0  0  0  0  0
  -23.1483  -24.9106   15.4871 N   0  3  0  0  0  0  0  0  0  0  0  0
  -21.0905  -17.9579   19.1982 O   0  0  0  0  0  0  0  0  0  0  0  0
  -23.7595  -28.6983   22.9353 O   0  0  0  0  0  0  0  0  0  0  0  0
  -22.1721  -29.1324   19.5461 O   0  0  0  0  0  0  0  0  0  0  0  0
  -23.0424  -24.6407   18.2858 O   0  0  0  0  0  0  0  0  0  0  0  0
  -27.5692  -11.3277   18.7143 O   0  0  0  0  0  0  0  0  0  0  0  0
  -24.1734  -20.8481   25.7349 O   0  0  0  0  0  0  0  0  0  0  0  0
  -28.6108  -24.2925   22.1875 O   0  0  0  0  0  0  0  0  0  1  0  0
  -28.8427  -18.3744   20.6127 O   0  0  0  0  0  0  0  0  0  0  0  0
  -24.4335  -26.1415   24.2133 F   0  0  0  0  0  0  0  0  0  0  0  0
  -26.3858  -22.3909   26.3410 F   0  0  0  0  0  0  0  0  0  0  0  0
  1  2  1  0  0  0  0
  1  5  2  0  0  0  0
  2  6  2  0  0  0  0
  3  8  2  0  0  0  0
  3 15  1  0  0  0  0
  4  9  1  0  0  0  0
  4 15  2  0  0  0  0
  5 17  1  0  0  0  0
  6 19  1  0  0  0  0
  7 10  2  0  0  0  0
  7 18  1  0  0  0  0
  8 21  1  0  0  0  0
  9 21  2  0  0  0  0
 10 22  1  0  0  0  0
 11 12  2  0  0  0  0
 11 23  1  0  0  0  0
 12 24  1  0  0  0  0
 13 20  1  0  0  0  0
 13 22  2  0  0  0  0
 14 24  2  0  0  0  0
 14 25  1  0  0  0  0
 15 26  1  0  0  0  0
 16 26  1  0  0  0  0
 16 27  2  0  0  0  0
 16 31  1  0  0  0  0
 17 19  2  0  0  0  0
 17 36  1  0  0  0  0
 18 20  2  0  0  0  0
 18 37  1  0  0  0  0
 19 45  1  0  0  0  0
 20 38  1  0  0  0  0
 21 83  1  0  0  0  0
 22 84  1  0  0  0  0
 23 25  2  0  0  0  0
 23 83  1  0  0  0  0
 24 86  1  0  0  0  0
 25 87  1  0  0  0  0
 26 65  2  0  0  0  0
 27 69  1  0  0  0  0
 27 72  1  0  0  0  0
 28 48  1  0  0  0  0
 28 66  2  0  0  0  0
 28 67  1  0  0  0  0
 29 61  1  0  0  0  0
 29 66  1  0  0  0  0
 29 68  2  0  0  0  0
 30 67  2  0  0  0  0
 30 68  1  0  0  0  0
 30 85  1  0  0  0  0
 31 73  1  0  0  0  0
 31 78  2  0  0  0  0
 32 46  1  0  0  0  0
 32 74  1  0  0  0  0
 32 79  2  0  0  0  0
 33 62  1  0  0  0  0
 33 70  1  0  0  0  0
 33 80  2  0  0  0  0
 34 63  1  0  0  0  0
 34 75  1  0  0  0  0
 34 81  2  0  0  0  0
 35 71  1  0  0  0  0
 35 76  1  0  0  0  0
 35 82  2  0  0  0  0
 36 39  1  0  0  0  0
 37 46  1  0  0  0  0
 38 70  1  0  0  0  0
 39 41  1  0  0  0  0
 40 42  1  0  0  0  0
 40 43  1  0  0  0  0
 41 45  1  0  0  0  0
 42 47  1  0  0  0  0
 43 71  1  0  0  0  0
 44 47  1  0  0  0  0
 44 71  1  0  0  0  0
 45 74  1  0  0  0  0
 46 70  1  0  0  0  0
 47 69  1  0  0  0  0
 49 56  1  0  0  0  0
 50 63  1  0  0  0  0
 51 64  1  0  0  0  0
 52 64  1  0  0  0  0
 53 64  1  0  0  0  0
 54 76  1  0  0  0  0
 55 77  1  0  0  0  0
 56 61  1  0  0  0  0
 57 58  1  0  0  0  0
 57 59  1  0  0  0  0
 58 60  1  0  0  0  0
 59 84  1  0  0  0  0
 60 85  1  0  0  0  0
 61 76  1  0  0  0  0
 62 64  1  0  0  0  0
 62 75  1  0  0  0  0
 63 77  1  0  0  0  0
 65 69  1  0  0  0  0
M  CHG  1  77   1
M  ISO  4  35 100  59 101  76 100  84 101
M  END
> <Batch ID>
0067

> <Smiles>
CCC(c1nc(C)nc(OCCC[101CH2:1][101O:1]c2ccc3c(c2)CN(C(=O)C(NC(=O)C(C)NC)C(C)(C)C)C(C(=O)NC2CCCc4ccccc42)C3)n1)[100N:0](C)[100C:0](=O)N1CCCC(n2nc(-c3ccc(Oc4ccc(F)cc4F)cc3)c(C(N)=O)c2N)C1

> <Shape>
0.246

> <Color>
0.065

> <Negative vol penalty>
0.000

$$$$

  -OEChem-04052318123D

 88 96  0     1  0  0  0  0  0999 V2000
  -21.0313  -23.1119   23.1790 C   0  0  0  0  0  0  0  0  0  0  0  0
  -22.3545  -23.4818   22.9605 C   0  0  0  0  0  0  0  0  0  0  0  0
  -26.7902  -13.7570   21.5543 C   0  0  0  0  0  0  0  0  0  0  0  0
  -26.6030  -13.7858   19.1458 C   0  0  0  0  0  0  0  0  0  0  0  0
  -20.0072  -24.0350   22.9717 C   0  0  0  0  0  0  0  0  0  0  0  0
  -22.6543  -24.7749   22.5335 C   0  0  0  0  0  0  0  0  0  0  0  0
  -26.5522  -26.7986   25.0546 C   0  0  0  0  0  0  0  0  0  0  0  0
  -25.9702  -12.6298   21.6047 C   0  0  0  0  0  0  0  0  0  0  0  0
  -25.7830  -12.6585   19.1961 C   0  0  0  0  0  0  0  0  0  0  0  0
  -27.8320  -26.3875   24.6847 C   0  0  0  0  0  0  0  0  0  0  0  0
  -22.6669  -11.9423   21.4053 C   0  0  0  0  0  0  0  0  0  0  0  0
  -21.6499  -11.9237   22.3597 C   0  0  0  0  0  0  0  0  0  0  0  0
  -28.0998  -28.4057   23.3908 C   0  0  0  0  0  0  0  0  0  0  0  0
  -22.6136   -9.9408   23.3478 C   0  0  0  0  0  0  0  0  0  0  0  0
  -29.7041  -23.8416   19.5765 C   0  0  0  0  0  0  0  0  0  0  0  0
  -28.3083  -25.4412   20.5509 C   0  0  0  0  0  0  0  0  0  0  0  0
  -27.1066  -14.3350   20.3249 C   0  0  0  0  0  0  0  0  0  0  0  0
  -29.3564  -15.5266   20.1634 C   0  0  0  0  0  0  0  0  0  0  0  0
  -20.2953  -25.3430   22.5512 C   0  0  0  0  0  0  0  0  0  0  0  0
  -26.0315  -28.0133   24.5857 C   0  0  0  0  0  0  0  0  0  0  0  0
  -21.6330  -25.7161   22.3191 C   0  0  0  0  0  0  0  0  0  0  0  0
  -26.8141  -28.8312   23.7582 C   0  0  0  0  0  0  0  0  0  0  0  0
  -29.5921  -24.9731   20.3586 C   0  0  0  0  0  0  0  0  0  0  0  0
  -25.4666  -12.0805   20.4255 C   0  0  0  0  0  0  0  0  0  0  0  0
  -28.6050  -27.1897   23.8504 C   0  0  0  0  0  0  0  0  0  0  0  0
  -23.6572  -10.9601   21.4220 C   0  0  0  0  0  0  0  0  0  0  0  0
  -21.6233  -10.9230   23.3310 C   0  0  0  0  0  0  0  0  0  0  0  0
  -23.6305   -9.9594   22.3933 C   0  0  0  0  0  0  0  0  0  0  0  0
  -27.9532  -15.4998   20.2723 C   0  0  0  0  0  0  0  0  0  0  0  0
  -29.6747  -16.8626   20.1537 C   0  0  0  0  0  0  0  0  0  0  0  0
  -27.4517  -23.7614   19.2815 C   0  0  0  0  0  0  0  0  0  0  0  0
  -30.2889  -14.4408   20.0784 C   0  0  0  0  0  0  0  0  0  0  0  0
  -23.5452  -28.8429   22.7874 C   0  0  0  0  0  0  0  0  0  0  0  0
  -24.4711  -31.8489   23.5804 C   0  0  0  0  0  0  0  0  0  0  0  0
  -26.4977  -21.6095   18.5261 C   0  0  0  0  0  0  0  0  0  0  0  0
  -26.9725  -33.9374   24.5943 C   0  0  0  0  0  0  0  0  0  0  0  0
  -19.1513  -26.2917   22.2949 C   0  0  0  0  0  0  0  0  0  0  0  0
  -24.6594  -28.4551   25.0154 C   0  0  0  0  0  0  0  0  0  0  0  0
  -26.3092  -30.1537   23.2441 C   0  0  0  0  0  0  0  0  0  0  0  0
  -19.5812  -27.7536   22.2028 C   0  0  0  0  0  0  0  0  0  0  0  0
  -28.1321  -21.0988   21.7346 C   0  0  0  0  0  0  0  0  0  0  0  0
  -20.8082  -27.8937   21.3075 C   0  0  0  0  0  0  0  0  0  0  0  0
  -28.3728  -19.5899   21.7183 C   0  0  0  0  0  0  0  0  0  0  0  0
  -26.8216  -21.4657   21.0432 C   0  0  0  0  0  0  0  0  0  0  0  0
  -26.9533  -19.4409   19.6265 C   0  0  0  0  0  0  0  0  0  0  0  0
  -22.0002  -27.1168   21.8795 C   0  0  1  0  0  0  0  0  0  0  0  0
  -24.0327  -29.4690   24.0634 C   0  0  1  0  0  0  0  0  0  0  0  0
  -28.2802  -19.0317   20.2874 C   0  0  2  0  0  0  0  0  0  0  0  0
  -27.4352  -36.3473   25.1193 C   0  0  0  0  0  0  0  0  0  0  0  0
  -24.5157  -32.4877   20.5971 C   0  0  0  0  0  0  0  0  0  0  0  0
  -25.8637  -34.5302   21.1255 C   0  0  0  0  0  0  0  0  0  0  0  0
  -23.5534  -34.2926   22.0361 C   0  0  0  0  0  0  0  0  0  0  0  0
  -27.7018  -33.3082   27.3928 C   0  0  0  0  0  0  0  0  0  0  0  0
  -30.7946  -25.6545   20.9613 C   0  0  0  0  0  0  0  0  0  0  0  0
  -31.1656  -25.1333   22.3513 C   0  0  0  0  0  0  0  0  0  0  0  0
  -30.0869  -25.3854   23.3984 C   0  0  0  0  0  0  0  0  0  1  0  0
  -25.4133  -32.8687   22.9877 C   0  0  1  0  0  0  0  0  0  0  0  0
  -27.0224  -34.9959   25.6813 C   0  0  2  0  0  0  0  0  0  0  0  0
  -26.2628  -23.0910   18.6810 C   0  0  0  0  0  0  0  0  0  0  0  0
  -24.8456  -33.5190   21.6946 C   0  0  0  0  0  0  0  0  0  0  0  0
  -24.9427  -23.1680   19.5059 C   0  0  0  0  0  0  0  0  0  0  0  0
  -25.9568  -23.6512   17.2665 C   0  0  0  0  0  0  0  0  0  0  0  0
  -28.6511  -23.2077   19.0201 N   0  0  0  0  0  0  0  0  0  0  0  0
  -27.2111  -24.8580   20.0252 N   0  0  0  0  0  0  0  0  0  0  0  0
  -27.4169  -16.7218   20.3281 N   0  0  0  0  0  0  0  0  0  0  0  0
  -28.4888  -17.5290   20.2540 N   0  0  0  0  0  0  0  0  0  0  0  0
  -24.9591  -30.5389   23.6872 N   0  0  0  0  0  0  0  0  0  0  0  0
  -26.7607  -20.8923   19.6934 N   0  0  0  0  0  0  0  0  0  0  0  0
  -30.8503  -17.5208   20.0695 N   0  0  0  0  0  0  0  0  0  0  0  0
  -29.7925  -13.1303   20.1021 N   0  0  0  0  0  0  0  0  0  0  0  0
  -22.6031  -27.8491   22.9725 N   0  0  0  0  0  0  0  0  0  0  0  0
  -25.7094  -33.8192   24.0542 N   0  0  0  0  0  0  0  0  0  0  0  0
  -27.9995  -34.6079   26.7377 N   0  3  0  0  0  0  0  0  0  0  0  0
  -31.5270  -14.6269   20.0007 O   0  0  0  0  0  0  0  0  0  0  0  0
  -23.9897  -29.2336   21.7144 O   0  0  0  0  0  0  0  0  0  0  0  0
  -23.3462  -32.2032   23.9420 O   0  0  0  0  0  0  0  0  0  0  0  0
  -26.4510  -21.1071   17.4002 O   0  0  0  0  0  0  0  0  0  0  0  0
  -27.9565  -33.2836   24.2556 O   0  0  0  0  0  0  0  0  0  0  0  0
  -24.6666  -10.9804   20.4742 O   0  0  0  0  0  0  0  0  0  0  0  0
  -29.8542  -26.7905   23.4873 O   0  0  0  0  0  0  0  0  0  1  0  0
  -20.6475  -10.9061   24.2485 F   0  0  0  0  0  0  0  0  0  0  0  0
  -24.5799   -9.0138   22.4152 F   0  0  0  0  0  0  0  0  0  0  0  0
  -24.5339  -24.4428   19.7175 F   0  0  0  0  0  0  0  0  0  0  0  0
  -23.9348  -22.5306   18.8682 F   0  0  0  0  0  0  0  0  0  0  0  0
  -25.0848  -22.6005   20.7246 F   0  0  0  0  0  0  0  0  0  0  0  0
  -26.9812  -23.4798   16.3987 F   0  0  0  0  0  0  0  0  0  0  0  0
  -24.8761  -23.0346   16.7343 F   0  0  0  0  0  0  0  0  0  0  0  0
  -25.6864  -24.9750   17.3039 F   0  0  0  0  0  0  0  0  0  0  0  0
  1  2  1  0  0  0  0
  1  5  2  0  0  0  0
  2  6  2  0  0  0  0
  3  8  2  0  0  0  0
  3 17  1  0  0  0  0
  4  9  1  0  0  0  0
  4 17  2  0  0  0  0
  5 19  1  0  0  0  0
  6 21  1  0  0  0  0
  7 10  2  0  0  0  0
  7 20  1  0  0  0  0
  8 24  1  0  0  0  0
  9 24  2  0  0  0  0
 10 25  1  0  0  0  0
 11 12  2  0  0  0  0
 11 26  1  0  0  0  0
 12 27  1  0  0  0  0
 13 22  1  0  0  0  0
 13 25  2  0  0  0  0
 14 27  2  0  0  0  0
 14 28  1  0  0  0  0
 15 23  1  0  0  0  0
 15 63  2  0  0  0  0
 16 23  2  0  0  0  0
 16 64  1  0  0  0  0
 17 29  1  0  0  0  0
 18 29  1  0  0  0  0
 18 30  2  0  0  0  0
 18 32  1  0  0  0  0
 19 21  2  0  0  0  0
 19 37  1  0  0  0  0
 20 22  2  0  0  0  0
 20 38  1  0  0  0  0
 21 46  1  0  0  0  0
 22 39  1  0  0  0  0
 23 54  1  0  0  0  0
 24 79  1  0  0  0  0
 25 80  1  0  0  0  0
 26 28  2  0  0  0  0
 26 79  1  0  0  0  0
 27 81  1  0  0  0  0
 28 82  1  0  0  0  0
 29 65  2  0  0  0  0
 30 66  1  0  0  0  0
 30 69  1  0  0  0  0
 31 59  1  0  0  0  0
 31 63  1  0  0  0  0
 31 64  2  0  0  0  0
 32 70  1  0  0  0  0
 32 74  2  0  0  0  0
 33 47  1  0  0  0  0
 33 71  1  0  0  0  0
 33 75  2  0  0  0  0
 34 57  1  0  0  0  0
 34 67  1  0  0  0  0
 34 76  2  0  0  0  0
 35 59  1  0  0  0  0
 35 68  1  0  0  0  0
 35 77  2  0  0  0  0
 36 58  1  0  0  0  0
 36 72  1  0  0  0  0
 36 78  2  0  0  0  0
 37 40  1  0  0  0  0
 38 47  1  0  0  0  0
 39 67  1  0  0  0  0
 40 42  1  0  0  0  0
 41 43  1  0  0  0  0
 41 44  1  0  0  0  0
 42 46  1  0  0  0  0
 43 48  1  0  0  0  0
 44 68  1  0  0  0  0
 45 48  1  0  0  0  0
 45 68  1  0  0  0  0
 46 71  1  0  0  0  0
 47 67  1  0  0  0  0
 48 66  1  0  0  0  0
 49 58  1  0  0  0  0
 50 60  1  0  0  0  0
 51 60  1  0  0  0  0
 52 60  1  0  0  0  0
 53 73  1  0  0  0  0
 54 55  1  0  0  0  0
 55 56  1  0  0  0  0
 56 80  1  0  0  0  0
 57 60  1  0  0  0  0
 57 72  1  0  0  0  0
 58 73  1  0  0  0  0
 59 61  1  0  0  0  0
 59 62  1  0  0  0  0
 61 83  1  0  0  0  0
 61 84  1  0  0  0  0
 61 85  1  0  0  0  0
 62 86  1  0  0  0  0
 62 87  1  0  0  0  0
 62 88  1  0  0  0  0
 65 66  1  0  0  0  0
M  CHG  1  73   1
M  ISO  4  35 100  56 101  59 100  80 101
M  END
> <Batch ID>
0067

> <Smiles>
CNC(C)C(=O)NC(C(=O)N1Cc2cc([101O:1][101CH2:1]CCc3cnc([100C:0]([100C:0](=O)N4CCCC(n5nc(-c6ccc(Oc7ccc(F)cc7F)cc6)c(C(N)=O)c5N)C4)(C(F)(F)F)C(F)(F)F)nc3)ccc2CC1C(=O)NC1CCCc2ccccc21)C(C)(C)C

> <Shape>
0.249

> <Color>
0.098

> <Negative vol penalty>
0.000

$$$$

  -OEChem-04052318123D

 96104  0     1  0  0  0  0  0999 V2000
  -21.9254   -8.4071   20.9182 C   0  0  0  0  0  0  0  0  0  0  0  0
  -22.2503   -9.6113   21.5344 C   0  0  0  0  0  0  0  0  0  0  0  0
  -26.1460  -31.8020   22.6130 C   0  0  0  0  0  0  0  0  0  0  0  0
  -26.6095  -32.2667   20.2878 C   0  0  0  0  0  0  0  0  0  0  0  0
  -22.9368   -7.5745   20.4409 C   0  0  0  0  0  0  0  0  0  0  0  0
  -23.5869   -9.9832   21.6745 C   0  0  0  0  0  0  0  0  0  0  0  0
  -24.3913  -14.8337   20.4620 C   0  0  0  0  0  0  0  0  0  0  0  0
  -26.2673  -33.1597   22.9085 C   0  0  0  0  0  0  0  0  0  0  0  0
  -26.7308  -33.6244   20.5834 C   0  0  0  0  0  0  0  0  0  0  0  0
  -24.0326  -15.7941   21.4068 C   0  0  0  0  0  0  0  0  0  0  0  0
  -24.3782  -35.9495   22.6240 C   0  0  0  0  0  0  0  0  0  0  0  0
  -23.4121  -36.5216   23.4516 C   0  0  0  0  0  0  0  0  0  0  0  0
  -26.3378  -15.9687   22.0957 C   0  0  0  0  0  0  0  0  0  0  0  0
  -25.1296  -37.1223   25.0411 C   0  0  0  0  0  0  0  0  0  0  0  0
  -26.6470  -22.2493   21.0409 C   0  0  0  0  0  0  0  0  0  0  0  0
  -26.3171  -31.3554   21.3026 C   0  0  0  0  0  0  0  0  0  0  0  0
  -25.0218  -29.2645   20.6257 C   0  0  0  0  0  0  0  0  0  0  0  0
  -24.2861   -7.9408   20.5665 C   0  0  0  0  0  0  0  0  0  0  0  0
  -25.7266  -14.4250   20.3342 C   0  0  0  0  0  0  0  0  0  0  0  0
  -24.6173   -9.1541   21.1995 C   0  0  0  0  0  0  0  0  0  0  0  0
  -26.7113  -15.0048   21.1467 C   0  0  0  0  0  0  0  0  0  0  0  0
  -26.3949  -20.8966   20.9364 C   0  0  0  0  0  0  0  0  0  0  0  0
  -26.5597  -34.0710   21.8937 C   0  0  0  0  0  0  0  0  0  0  0  0
  -25.0054  -16.3597   22.2258 C   0  0  0  0  0  0  0  0  0  0  0  0
  -25.7200  -35.9637   23.0049 C   0  0  0  0  0  0  0  0  0  0  0  0
  -23.7878  -37.1080   24.6601 C   0  0  0  0  0  0  0  0  0  0  0  0
  -26.0957  -36.5501   24.2134 C   0  0  0  0  0  0  0  0  0  0  0  0
  -26.1924  -29.9529   20.9968 C   0  0  0  0  0  0  0  0  0  0  0  0
  -27.4208  -20.1369   20.4124 C   0  0  0  0  0  0  0  0  0  0  0  0
  -25.4298  -27.9653   20.4464 C   0  0  0  0  0  0  0  0  0  0  0  0
  -28.7294  -21.9797   20.1704 C   0  0  0  0  0  0  0  0  0  0  0  0
  -23.6853  -29.7556   20.4578 C   0  0  0  0  0  0  0  0  0  0  0  0
  -27.2741  -11.6720   20.6951 C   0  0  0  0  0  0  0  0  0  0  0  0
  -29.7819  -13.3795   19.5474 C   0  0  0  0  0  0  0  0  0  0  0  0
  -29.0164  -24.3856   18.3017 C   0  0  0  0  0  0  0  0  0  0  0  0
  -31.2396  -16.4301   19.0827 C   0  0  0  0  0  0  0  0  0  0  0  0
  -25.3461   -6.9860   20.0774 C   0  0  0  0  0  0  0  0  0  0  0  0
  -26.1013  -13.4073   19.2918 C   0  0  0  0  0  0  0  0  0  0  0  0
  -28.1619  -14.6152   21.0353 C   0  0  0  0  0  0  0  0  0  0  0  0
  -26.7231   -7.6282   19.9297 C   0  0  0  0  0  0  0  0  0  0  0  0
  -29.7784  -25.6782   21.6146 C   0  0  0  0  0  0  0  0  0  0  0  0
  -27.0592   -8.4601   21.1634 C   0  0  0  0  0  0  0  0  0  0  0  0
  -28.8302  -26.8734   21.7019 C   0  0  0  0  0  0  0  0  0  0  0  0
  -30.3075  -25.4839   20.1961 C   0  0  0  0  0  0  0  0  0  0  0  0
  -28.2844  -26.5503   19.2503 C   0  0  0  0  0  0  0  0  0  0  0  0
  -26.0546   -9.6038   21.3480 C   0  0  1  0  0  0  0  0  0  0  0  0
  -27.4127  -12.6914   19.6000 C   0  0  1  0  0  0  0  0  0  0  0  0
  -27.7045  -26.7622   20.6588 C   0  0  2  0  0  0  0  0  0  0  0  0
  -26.9886  -18.2613   18.8056 C   0  0  0  0  0  0  0  0  0  0  0  0
  -32.9098  -18.1111   18.2567 C   0  0  0  0  0  0  0  0  0  0  0  0
  -31.1955  -21.5703   19.9147 C   0  0  0  0  0  0  0  0  0  0  0  0
  -31.3544  -12.4847   22.0043 C   0  0  0  0  0  0  0  0  0  0  0  0
  -33.0102  -14.2989   21.5192 C   0  0  0  0  0  0  0  0  0  0  0  0
  -32.6551  -12.4628   19.8684 C   0  0  0  0  0  0  0  0  0  0  0  0
  -22.4683  -20.3903   23.1018 C   0  0  0  0  0  0  0  0  0  0  0  0
  -23.7725  -19.3795   24.9898 C   0  0  0  0  0  0  0  0  0  0  0  0
  -29.7766  -16.8059   16.5376 C   0  0  0  0  0  0  0  0  0  0  0  0
  -25.0736  -20.3116   21.3738 C   0  0  0  0  0  0  0  0  0  0  0  0
  -27.2611  -18.6609   20.2527 C   0  0  0  0  0  0  0  0  0  0  0  0
  -24.9964  -20.1859   22.9018 C   0  0  0  0  0  0  0  0  0  0  0  0
  -23.5360  -18.1243   22.8445 C   0  0  0  0  0  0  0  0  0  1  0  0
  -30.8688  -14.2277   20.1625 C   0  0  1  0  0  0  0  0  0  0  0  0
  -31.8789  -17.0654   17.8611 C   0  0  2  0  0  0  0  0  0  0  0  0
  -30.0264  -22.5810   19.7456 C   0  0  1  0  0  0  0  0  0  0  0  0
  -30.0323  -23.2713   18.3087 C   0  0  0  0  0  0  0  0  0  0  0  0
  -31.9446  -13.3746   20.8923 C   0  0  0  0  0  0  0  0  0  0  0  0
  -23.6983  -19.5358   23.4605 C   0  0  0  0  0  0  0  0  0  0  0  0
  -29.5773  -22.2839   17.2159 C   0  0  0  0  0  0  0  0  0  0  0  0
  -31.3765  -23.8864   17.8887 C   0  0  0  0  0  0  0  0  0  0  0  0
  -27.8074  -22.8267   20.6661 N   0  0  0  0  0  0  0  0  0  0  0  0
  -27.2636  -29.1568   21.0507 N   0  0  0  0  0  0  0  0  0  0  0  0
  -28.6056  -20.6474   20.0175 N   0  0  0  0  0  0  0  0  0  0  0  0
  -26.7677  -27.9548   20.7111 N   0  0  0  0  0  0  0  0  0  0  0  0
  -28.4773  -13.6115   20.0054 N   0  0  0  0  0  0  0  0  0  0  0  0
  -29.2055  -25.4103   19.2293 N   0  0  0  0  0  0  0  0  0  0  0  0
  -24.7709  -26.8423   20.0899 N   0  0  0  0  0  0  0  0  0  0  0  0
  -23.4408  -31.1174   20.6820 N   0  0  0  0  0  0  0  0  0  0  0  0
  -26.3447  -10.6844   20.4300 N   0  0  0  0  0  0  0  0  0  0  0  0
  -31.3953  -15.0601   19.0863 N   0  0  0  0  0  0  0  0  0  0  0  0
  -30.8419  -17.7236   17.0170 N   0  3  0  0  0  0  0  0  0  0  0  0
  -22.7328  -29.0058   20.1351 O   0  0  0  0  0  0  0  0  0  0  0  0
  -27.9606  -11.7731   21.7051 O   0  0  0  0  0  0  0  0  0  0  0  0
  -30.0786  -12.5470   18.6869 O   0  0  0  0  0  0  0  0  0  0  0  0
  -28.0820  -24.3434   17.4972 O   0  0  0  0  0  0  0  0  0  0  0  0
  -30.6633  -17.0842   19.9490 O   0  0  0  0  0  0  0  0  0  0  0  0
  -26.6780  -35.3960   22.1817 O   0  0  0  0  0  0  0  0  0  0  0  0
  -24.6579  -17.2968   23.1493 O   0  0  0  0  0  0  0  0  0  1  0  0
  -22.8602  -37.6588   25.4541 F   0  0  0  0  0  0  0  0  0  0  0  0
  -27.3833  -36.5679   24.5842 F   0  0  0  0  0  0  0  0  0  0  0  0
  -30.4035  -23.6102   20.6131 F   0  0  0  0  0  0  0  0  0  0  0  0
  -29.5320  -22.8668   15.9974 F   0  0  0  0  0  0  0  0  0  0  0  0
  -28.3349  -21.8072   17.4673 F   0  0  0  0  0  0  0  0  0  0  0  0
  -30.4025  -21.2171   17.1240 F   0  0  0  0  0  0  0  0  0  0  0  0
  -31.7543  -24.8630   18.7499 F   0  0  0  0  0  0  0  0  0  0  0  0
  -32.3748  -22.9785   17.8656 F   0  0  0  0  0  0  0  0  0  0  0  0
  -31.3137  -24.4558   16.6656 F   0  0  0  0  0  0  0  0  0  0  0  0
  1  2  1  0  0  0  0
  1  5  2  0  0  0  0
  2  6  2  0  0  0  0
  3  8  2  0  0  0  0
  3 16  1  0  0  0  0
  4  9  1  0  0  0  0
  4 16  2  0  0  0  0
  5 18  1  0  0  0  0
  6 20  1  0  0  0  0
  7 10  2  0  0  0  0
  7 19  1  0  0  0  0
  8 23  1  0  0  0  0
  9 23  2  0  0  0  0
 10 24  1  0  0  0  0
 11 12  2  0  0  0  0
 11 25  1  0  0  0  0
 12 26  1  0  0  0  0
 13 21  1  0  0  0  0
 13 24  2  0  0  0  0
 14 26  2  0  0  0  0
 14 27  1  0  0  0  0
 15 22  1  0  0  0  0
 15 70  2  0  0  0  0
 16 28  1  0  0  0  0
 17 28  1  0  0  0  0
 17 30  2  0  0  0  0
 17 32  1  0  0  0  0
 18 20  2  0  0  0  0
 18 37  1  0  0  0  0
 19 21  2  0  0  0  0
 19 38  1  0  0  0  0
 20 46  1  0  0  0  0
 21 39  1  0  0  0  0
 22 29  2  0  0  0  0
 22 58  1  0  0  0  0
 23 86  1  0  0  0  0
 24 87  1  0  0  0  0
 25 27  2  0  0  0  0
 25 86  1  0  0  0  0
 26 88  1  0  0  0  0
 27 89  1  0  0  0  0
 28 71  2  0  0  0  0
 29 59  1  0  0  0  0
 29 72  1  0  0  0  0
 30 73  1  0  0  0  0
 30 76  1  0  0  0  0
 31 64  1  0  0  0  0
 31 70  1  0  0  0  0
 31 72  2  0  0  0  0
 32 77  1  0  0  0  0
 32 81  2  0  0  0  0
 33 47  1  0  0  0  0
 33 78  1  0  0  0  0
 33 82  2  0  0  0  0
 34 62  1  0  0  0  0
 34 74  1  0  0  0  0
 34 83  2  0  0  0  0
 35 65  1  0  0  0  0
 35 75  1  0  0  0  0
 35 84  2  0  0  0  0
 36 63  1  0  0  0  0
 36 79  1  0  0  0  0
 36 85  2  0  0  0  0
 37 40  1  0  0  0  0
 38 47  1  0  0  0  0
 39 74  1  0  0  0  0
 40 42  1  0  0  0  0
 41 43  1  0  0  0  0
 41 44  1  0  0  0  0
 42 46  1  0  0  0  0
 43 48  1  0  0  0  0
 44 75  1  0  0  0  0
 45 48  1  0  0  0  0
 45 75  1  0  0  0  0
 46 78  1  0  0  0  0
 47 74  1  0  0  0  0
 48 73  1  0  0  0  0
 49 59  1  0  0  0  0
 50 63  1  0  0  0  0
 51 64  1  0  0  0  0
 52 66  1  0  0  0  0
 53 66  1  0  0  0  0
 54 66  1  0  0  0  0
 55 67  1  0  0  0  0
 56 67  1  0  0  0  0
 57 80  1  0  0  0  0
 58 60  1  0  0  0  0
 60 67  1  0  0  0  0
 61 67  1  0  0  0  0
 61 87  1  0  0  0  0
 62 66  1  0  0  0  0
 62 79  1  0  0  0  0
 63 80  1  0  0  0  0
 64 65  1  0  0  0  0
 64 90  1  0  0  0  0
 65 68  1  0  0  0  0
 65 69  1  0  0  0  0
 68 91  1  0  0  0  0
 68 92  1  0  0  0  0
 68 93  1  0  0  0  0
 69 94  1  0  0  0  0
 69 95  1  0  0  0  0
 69 96  1  0  0  0  0
 71 73  1  0  0  0  0
M  CHG  1  80   1
M  ISO  4  35 100  61 101  65 100  87 101
M  END
> <Batch ID>
0067

> <Smiles>
CCc1nc(C(C)(F)[100C:0]([100C:0](=O)N2CCCC(n3nc(-c4ccc(Oc5ccc(F)cc5F)cc4)c(C(N)=O)c3N)C2)(C(F)(F)F)C(F)(F)F)ncc1CCC(C)(C)[101CH2:1][101O:1]c1ccc2c(c1)CN(C(=O)C(NC(=O)C(C)NC)C(C)(C)C)C(C(=O)NC1CCCc3ccccc31)C2

> <Shape>
0.335

> <Color>
0.060

> <Negative vol penalty>
0.000

$$$$

  -OEChem-04052318123D

 87 95  0     1  0  0  0  0  0999 V2000
  -23.9574   -7.8757   21.4393 C   0  0  0  0  0  0  0  0  0  0  0  0
  -24.4621   -8.9161   20.6659 C   0  0  0  0  0  0  0  0  0  0  0  0
  -22.5622  -28.4454   22.7236 C   0  0  0  0  0  0  0  0  0  0  0  0
  -22.7080  -29.3311   20.4806 C   0  0  0  0  0  0  0  0  0  0  0  0
  -22.7424   -8.0299   22.1056 C   0  0  0  0  0  0  0  0  0  0  0  0
  -23.7515  -10.1110   20.5574 C   0  0  0  0  0  0  0  0  0  0  0  0
  -26.7170  -14.1863   21.0503 C   0  0  0  0  0  0  0  0  0  0  0  0
  -21.4538  -29.2551   22.9713 C   0  0  0  0  0  0  0  0  0  0  0  0
  -21.5996  -30.1408   20.7283 C   0  0  0  0  0  0  0  0  0  0  0  0
  -27.4858  -14.5517   19.9460 C   0  0  0  0  0  0  0  0  0  0  0  0
  -18.1470  -29.2353   22.2660 C   0  0  0  0  0  0  0  0  0  0  0  0
  -17.0508  -28.6560   22.9050 C   0  0  0  0  0  0  0  0  0  0  0  0
  -25.8686  -16.2534   19.3908 C   0  0  0  0  0  0  0  0  0  0  0  0
  -17.2667  -30.2429   24.7139 C   0  0  0  0  0  0  0  0  0  0  0  0
  -31.2813  -23.1317   19.4939 C   0  0  0  0  0  0  0  0  0  0  0  0
  -23.1893  -28.4834   21.4783 C   0  0  0  0  0  0  0  0  0  0  0  0
  -24.3329  -26.3383   20.7047 C   0  0  0  0  0  0  0  0  0  0  0  0
  -22.0213   -9.2308   22.0131 C   0  0  0  0  0  0  0  0  0  0  0  0
  -25.5108  -14.8456   21.3273 C   0  0  0  0  0  0  0  0  0  0  0  0
  -22.5251  -10.2809   21.2220 C   0  0  0  0  0  0  0  0  0  0  0  0
  -25.0877  -15.8962   20.5006 C   0  0  0  0  0  0  0  0  0  0  0  0
  -20.9725  -30.1028   21.9737 C   0  0  0  0  0  0  0  0  0  0  0  0
  -27.0602  -15.5834   19.1145 C   0  0  0  0  0  0  0  0  0  0  0  0
  -18.8031  -30.3184   22.8510 C   0  0  0  0  0  0  0  0  0  0  0  0
  -16.6106  -29.1598   24.1289 C   0  0  0  0  0  0  0  0  0  0  0  0
  -18.3629  -30.8222   24.0749 C   0  0  0  0  0  0  0  0  0  0  0  0
  -24.3347  -27.6476   21.2220 C   0  0  0  0  0  0  0  0  0  0  0  0
  -30.0600  -22.5106   19.4385 C   0  0  0  0  0  0  0  0  0  0  0  0
  -25.6600  -25.9882   20.6518 C   0  0  0  0  0  0  0  0  0  0  0  0
  -30.3306  -25.0048   18.6649 C   0  0  0  0  0  0  0  0  0  0  0  0
  -23.2303  -25.5124   20.3074 C   0  0  0  0  0  0  0  0  0  0  0  0
  -22.4616  -13.9648   21.5013 C   0  0  0  0  0  0  0  0  0  0  0  0
  -22.0447  -17.0125   22.5310 C   0  0  0  0  0  0  0  0  0  0  0  0
  -30.9419  -27.2909   19.3501 C   0  0  0  0  0  0  0  0  0  0  0  0
  -23.1903  -20.2262   22.6097 C   0  0  0  0  0  0  0  0  0  0  0  0
  -20.6894   -9.3336   22.7132 C   0  0  0  0  0  0  0  0  0  0  0  0
  -24.7065  -14.4574   22.5376 C   0  0  0  0  0  0  0  0  0  0  0  0
  -23.8106  -16.6492   20.7661 C   0  0  0  0  0  0  0  0  0  0  0  0
  -20.1817  -10.7668   22.8490 C   0  0  0  0  0  0  0  0  0  0  0  0
  -29.7461  -28.2333   22.5939 C   0  0  0  0  0  0  0  0  0  0  0  0
  -20.3254  -11.5116   21.5256 C   0  0  0  0  0  0  0  0  0  0  0  0
  -28.2297  -28.0864   22.4741 C   0  0  0  0  0  0  0  0  0  0  0  0
  -30.3652  -28.7169   21.2862 C   0  0  0  0  0  0  0  0  0  0  0  0
  -28.5150  -27.7173   19.9827 C   0  0  0  0  0  0  0  0  0  0  0  0
  -21.7958  -11.6012   21.0998 C   0  0  1  0  0  0  0  0  0  0  0  0
  -23.2373  -14.8544   22.4311 C   0  0  1  0  0  0  0  0  0  0  0  0
  -27.8533  -27.2014   21.2727 C   0  0  2  0  0  0  0  0  0  0  0  0
  -23.2973  -22.6445   23.2715 C   0  0  0  0  0  0  0  0  0  0  0  0
  -19.9326  -17.3272   20.3516 C   0  0  0  0  0  0  0  0  0  0  0  0
  -20.0886  -19.8074   20.6558 C   0  0  0  0  0  0  0  0  0  0  0  0
  -19.3307  -18.3660   22.5455 C   0  0  0  0  0  0  0  0  0  0  0  0
  -30.5553  -19.2999   15.7693 C   0  0  0  0  0  0  0  0  0  0  0  0
  -28.0910  -19.4501   15.4424 C   0  0  0  0  0  0  0  0  0  0  0  0
  -24.8807  -19.6271   24.9639 C   0  0  0  0  0  0  0  0  0  0  0  0
  -29.8915  -21.0784   19.8799 C   0  0  0  0  0  0  0  0  0  0  0  0
  -30.1025  -20.0519   18.7581 C   0  0  0  0  0  0  0  0  0  0  0  0
  -29.0696  -20.1853   17.6287 C   0  0  0  0  0  0  0  0  0  0  0  0
  -29.0688  -17.6780   16.9667 C   0  0  0  0  0  0  0  0  0  0  0  0
  -27.7427  -17.3063   17.6239 C   0  0  0  0  0  0  0  0  0  1  0  0
  -21.7652  -18.3375   21.8639 C   0  0  1  0  0  0  0  0  0  0  0  0
  -23.3668  -21.2049   23.7567 C   0  0  2  0  0  0  0  0  0  0  0  0
  -30.4535  -26.4211   18.2193 C   0  0  0  0  0  0  0  0  0  0  0  0
  -20.3024  -18.4443   21.3478 C   0  0  0  0  0  0  0  0  0  0  0  0
  -29.1936  -19.1455   16.4792 C   0  0  0  0  0  0  0  0  0  0  0  0
  -31.4467  -24.4050   19.1049 N   0  0  0  0  0  0  0  0  0  0  0  0
  -25.5652  -28.0986   21.4795 N   0  0  0  0  0  0  0  0  0  0  0  0
  -28.9741  -23.1639   18.9869 N   0  0  0  0  0  0  0  0  0  0  0  0
  -29.1068  -24.4459   18.5878 N   0  0  0  0  0  0  0  0  0  0  0  0
  -26.3491  -27.0669   21.1227 N   0  0  0  0  0  0  0  0  0  0  0  0
  -23.0559  -16.2283   21.9580 N   0  0  0  0  0  0  0  0  0  0  0  0
  -29.9657  -27.8632   20.1660 N   0  0  0  0  0  0  0  0  0  0  0  0
  -26.2930  -24.8660   20.2491 N   0  0  0  0  0  0  0  0  0  0  0  0
  -21.9324  -26.0277   20.4272 N   0  0  0  0  0  0  0  0  0  0  0  0
  -22.4790  -12.6292   21.8554 N   0  0  0  0  0  0  0  0  0  0  0  0
  -22.1347  -19.3667   22.8296 N   0  0  0  0  0  0  0  0  0  0  0  0
  -24.6856  -20.9950   24.4183 N   0  3  0  0  0  0  0  0  0  0  0  0
  -23.3902  -24.3459   19.8747 O   0  0  0  0  0  0  0  0  0  0  0  0
  -21.8884  -14.4541   20.5350 O   0  0  0  0  0  0  0  0  0  0  0  0
  -21.3949  -16.6884   23.5282 O   0  0  0  0  0  0  0  0  0  0  0  0
  -32.1552  -27.4533   19.5040 O   0  0  0  0  0  0  0  0  0  0  0  0
  -23.9139  -20.2268   21.6163 O   0  0  0  0  0  0  0  0  0  0  0  0
  -19.8908  -30.8929   22.2149 O   0  0  0  0  0  0  0  0  0  0  0  0
  -27.8083  -15.9415   18.0356 O   0  0  0  0  0  0  0  0  0  1  0  0
  -15.5570  -28.6044   24.7417 F   0  0  0  0  0  0  0  0  0  0  0  0
  -18.9884  -31.8632   24.6413 F   0  0  0  0  0  0  0  0  0  0  0  0
  -31.3107  -26.5691   17.1565 F   0  0  0  0  0  0  0  0  0  0  0  0
  -29.2666  -26.9355   17.7576 F   0  0  0  0  0  0  0  0  0  0  0  0
  1  2  1  0  0  0  0
  1  5  2  0  0  0  0
  2  6  2  0  0  0  0
  3  8  2  0  0  0  0
  3 16  1  0  0  0  0
  4  9  1  0  0  0  0
  4 16  2  0  0  0  0
  5 18  1  0  0  0  0
  6 20  1  0  0  0  0
  7 10  2  0  0  0  0
  7 19  1  0  0  0  0
  8 22  1  0  0  0  0
  9 22  2  0  0  0  0
 10 23  1  0  0  0  0
 11 12  2  0  0  0  0
 11 24  1  0  0  0  0
 12 25  1  0  0  0  0
 13 21  1  0  0  0  0
 13 23  2  0  0  0  0
 14 25  2  0  0  0  0
 14 26  1  0  0  0  0
 15 28  1  0  0  0  0
 15 65  2  0  0  0  0
 16 27  1  0  0  0  0
 17 27  1  0  0  0  0
 17 29  2  0  0  0  0
 17 31  1  0  0  0  0
 18 20  2  0  0  0  0
 18 36  1  0  0  0  0
 19 21  2  0  0  0  0
 19 37  1  0  0  0  0
 20 45  1  0  0  0  0
 21 38  1  0  0  0  0
 22 82  1  0  0  0  0
 23 83  1  0  0  0  0
 24 26  2  0  0  0  0
 24 82  1  0  0  0  0
 25 84  1  0  0  0  0
 26 85  1  0  0  0  0
 27 66  2  0  0  0  0
 28 55  1  0  0  0  0
 28 67  2  0  0  0  0
 29 69  1  0  0  0  0
 29 72  1  0  0  0  0
 30 62  1  0  0  0  0
 30 65  1  0  0  0  0
 30 68  2  0  0  0  0
 31 73  1  0  0  0  0
 31 77  2  0  0  0  0
 32 46  1  0  0  0  0
 32 74  1  0  0  0  0
 32 78  2  0  0  0  0
 33 60  1  0  0  0  0
 33 70  1  0  0  0  0
 33 79  2  0  0  0  0
 34 62  1  0  0  0  0
 34 71  1  0  0  0  0
 34 80  2  0  0  0  0
 35 61  1  0  0  0  0
 35 75  1  0  0  0  0
 35 81  2  0  0  0  0
 36 39  1  0  0  0  0
 37 46  1  0  0  0  0
 38 70  1  0  0  0  0
 39 41  1  0  0  0  0
 40 42  1  0  0  0  0
 40 43  1  0  0  0  0
 41 45  1  0  0  0  0
 42 47  1  0  0  0  0
 43 71  1  0  0  0  0
 44 47  1  0  0  0  0
 44 71  1  0  0  0  0
 45 74  1  0  0  0  0
 46 70  1  0  0  0  0
 47 69  1  0  0  0  0
 48 61  1  0  0  0  0
 49 63  1  0  0  0  0
 50 63  1  0  0  0  0
 51 63  1  0  0  0  0
 52 64  1  0  0  0  0
 53 64  1  0  0  0  0
 54 76  1  0  0  0  0
 55 56  1  0  0  0  0
 56 57  1  0  0  0  0
 57 64  1  0  0  0  0
 58 59  1  0  0  0  0
 58 64  1  0  0  0  0
 59 83  1  0  0  0  0
 60 63  1  0  0  0  0
 60 75  1  0  0  0  0
 61 76  1  0  0  0  0
 62 86  1  0  0  0  0
 62 87  1  0  0  0  0
 66 69  1  0  0  0  0
 67 68  1  0  0  0  0
M  CHG  1  76   1
M  ISO  4  34 100  59 101  62 100  83 101
M  END
> <Batch ID>
0067

> <Smiles>
CNC(C)C(=O)NC(C(=O)N1Cc2cc([101O:1][101CH2:1]CC(C)(C)CCCc3cnc([100C:0](F)(F)[100C:0](=O)N4CCCC(n5nc(-c6ccc(Oc7ccc(F)cc7F)cc6)c(C(N)=O)c5N)C4)nn3)ccc2CC1C(=O)NC1CCCc2ccccc21)C(C)(C)C

> <Shape>
0.231

> <Color>
0.089

> <Negative vol penalty>
0.000

$$$$

  -OEChem-04052318123D

 87 95  0     1  0  0  0  0  0999 V2000
  -26.0020  -37.3546   23.4684 C   0  0  0  0  0  0  0  0  0  0  0  0
  -26.7394  -36.3320   22.8804 C   0  0  0  0  0  0  0  0  0  0  0  0
  -27.2438  -12.3519   23.1364 C   0  0  0  0  0  0  0  0  0  0  0  0
  -26.1498  -12.7589   21.0211 C   0  0  0  0  0  0  0  0  0  0  0  0
  -24.9792  -37.0483   24.3651 C   0  0  0  0  0  0  0  0  0  0  0  0
  -26.4552  -35.0023   23.1895 C   0  0  0  0  0  0  0  0  0  0  0  0
  -26.8344  -30.1855   19.4265 C   0  0  0  0  0  0  0  0  0  0  0  0
  -26.1962  -11.5132   23.5168 C   0  0  0  0  0  0  0  0  0  0  0  0
  -25.1022  -11.9202   21.4015 C   0  0  0  0  0  0  0  0  0  0  0  0
  -27.8164  -29.2127   19.2441 C   0  0  0  0  0  0  0  0  0  0  0  0
  -24.5117   -8.5974   21.5766 C   0  0  0  0  0  0  0  0  0  0  0  0
  -24.0510   -7.6726   20.6395 C   0  0  0  0  0  0  0  0  0  0  0  0
  -28.6092  -22.3805   15.5839 C   0  0  0  0  0  0  0  0  0  0  0  0
  -26.6162  -27.7325   20.7231 C   0  0  0  0  0  0  0  0  0  0  0  0
  -21.8546   -8.6750   20.7304 C   0  0  0  0  0  0  0  0  0  0  0  0
  -28.5732  -21.0542   15.9388 C   0  0  0  0  0  0  0  0  0  0  0  0
  -27.2206  -12.9748   21.8885 C   0  0  0  0  0  0  0  0  0  0  0  0
  -29.4799  -13.4770   20.8156 C   0  0  0  0  0  0  0  0  0  0  0  0
  -24.6760  -35.7138   24.6781 C   0  0  0  0  0  0  0  0  0  0  0  0
  -25.7397  -29.9427   20.2686 C   0  0  0  0  0  0  0  0  0  0  0  0
  -25.4283  -34.6778   24.0923 C   0  0  0  0  0  0  0  0  0  0  0  0
  -25.6204  -28.7028   20.9125 C   0  0  0  0  0  0  0  0  0  0  0  0
  -25.1254  -11.2973   22.6494 C   0  0  0  0  0  0  0  0  0  0  0  0
  -27.7089  -27.9871   19.8947 C   0  0  0  0  0  0  0  0  0  0  0  0
  -23.6439   -9.5609   22.0906 C   0  0  0  0  0  0  0  0  0  0  0  0
  -22.7224   -7.7114   20.2164 C   0  0  0  0  0  0  0  0  0  0  0  0
  -22.3154   -9.5997   21.6675 C   0  0  0  0  0  0  0  0  0  0  0  0
  -28.3021  -13.8417   21.4951 C   0  0  0  0  0  0  0  0  0  0  0  0
  -29.5292  -22.9594   16.4786 C   0  0  0  0  0  0  0  0  0  0  0  0
  -30.1766  -14.6529   20.6806 C   0  0  0  0  0  0  0  0  0  0  0  0
  -29.9059  -12.1902   20.3482 C   0  0  0  0  0  0  0  0  0  0  0  0
  -24.6295  -31.2591   22.9403 C   0  0  0  0  0  0  0  0  0  0  0  0
  -22.1606  -29.2102   22.4619 C   0  0  0  0  0  0  0  0  0  0  0  0
  -28.3890  -20.3897   20.6021 C   0  0  0  0  0  0  0  0  0  0  0  0
  -21.0319  -26.3108   21.0597 C   0  0  0  0  0  0  0  0  0  0  0  0
  -23.5926  -35.4335   25.6892 C   0  0  0  0  0  0  0  0  0  0  0  0
  -24.6752  -30.9924   20.4338 C   0  0  0  0  0  0  0  0  0  0  0  0
  -24.4542  -28.3850   21.8111 C   0  0  0  0  0  0  0  0  0  0  0  0
  -23.1076  -33.9861   25.6769 C   0  0  0  0  0  0  0  0  0  0  0  0
  -30.8153  -18.8977   22.7762 C   0  0  0  0  0  0  0  0  0  0  0  0
  -24.2928  -33.0262   25.6507 C   0  0  0  0  0  0  0  0  0  0  0  0
  -30.5342  -17.4006   22.6542 C   0  0  0  0  0  0  0  0  0  0  0  0
  -29.5308  -19.7159   22.6893 C   0  0  0  0  0  0  0  0  0  0  0  0
  -28.4414  -17.9544   21.3358 C   0  0  0  0  0  0  0  0  0  0  0  0
  -25.1337  -33.2223   24.3834 C   0  0  1  0  0  0  0  0  0  0  0  0
  -23.8687  -30.8285   21.7183 C   0  0  1  0  0  0  0  0  0  0  0  0
  -29.7157  -17.0933   21.3877 C   0  0  2  0  0  0  0  0  0  0  0  0
  -18.9778  -24.8812   20.8750 C   0  0  0  0  0  0  0  0  0  0  0  0
  -26.3177  -19.2851   19.8314 C   0  0  0  0  0  0  0  0  0  0  0  0
  -27.2480  -21.2756   18.6557 C   0  0  0  0  0  0  0  0  0  0  0  0
  -22.6074  -28.2047   25.3079 C   0  0  0  0  0  0  0  0  0  0  0  0
  -21.2188  -26.1995   24.7430 C   0  0  0  0  0  0  0  0  0  0  0  0
  -20.2066  -28.4780   24.6629 C   0  0  0  0  0  0  0  0  0  0  0  0
  -30.7819  -20.0884   18.7930 C   0  0  0  0  0  0  0  0  0  0  0  0
  -30.4292  -18.6297   16.8314 C   0  0  0  0  0  0  0  0  0  0  0  0
  -20.9448  -26.6133   18.1170 C   0  0  0  0  0  0  0  0  0  0  0  0
  -29.9592  -24.4031   16.5469 C   0  0  0  0  0  0  0  0  0  0  0  0
  -29.0928  -25.2640   17.4727 C   0  0  0  0  0  0  0  0  0  0  0  0
  -29.1567  -24.8214   18.9353 C   0  0  0  0  0  0  0  0  0  0  0  0
  -28.2540  -25.6735   19.8171 C   0  0  0  0  0  0  0  0  0  1  0  0
  -21.8547  -27.7903   22.8732 C   0  0  1  0  0  0  0  0  0  0  0  0
  -19.7884  -26.0032   20.2451 C   0  0  2  0  0  0  0  0  0  0  0  0
  -28.4885  -19.1014   18.4287 C   0  0  2  0  0  0  0  0  0  0  0  0
  -27.6123  -19.9644   19.3814 C   0  0  0  0  0  0  0  0  0  0  0  0
  -21.4950  -27.6745   24.3814 C   0  0  0  0  0  0  0  0  0  0  0  0
  -29.7420  -19.7079   17.6995 C   0  0  0  0  0  0  0  0  0  0  0  0
  -28.2502  -15.1472   21.7726 N   0  0  0  0  0  0  0  0  0  0  0  0
  -30.0406  -22.0734   17.3373 N   0  0  0  0  0  0  0  0  0  0  0  0
  -29.4398  -20.9243   16.9840 N   0  0  0  0  0  0  0  0  0  0  0  0
  -29.4041  -15.6131   21.2650 N   0  0  0  0  0  0  0  0  0  0  0  0
  -23.4426  -29.4461   21.9456 N   0  0  0  0  0  0  0  0  0  0  0  0
  -28.7710  -19.3788   21.4842 N   0  0  0  0  0  0  0  0  0  0  0  0
  -31.3685  -14.9489   20.1202 N   0  0  0  0  0  0  0  0  0  0  0  0
  -29.0690  -11.0881   20.5698 N   0  0  0  0  0  0  0  0  0  0  0  0
  -24.4889  -32.5990   23.2475 N   0  0  0  0  0  0  0  0  0  0  0  0
  -20.8083  -27.3206   21.9716 N   0  0  0  0  0  0  0  0  0  0  0  0
  -20.1633  -25.5932   18.8623 N   0  3  0  0  0  0  0  0  0  0  0  0
  -31.0040  -12.0200   19.7662 O   0  0  0  0  0  0  0  0  0  0  0  0
  -25.2938  -30.4363   23.5595 O   0  0  0  0  0  0  0  0  0  0  0  0
  -21.2916  -30.0767   22.5874 O   0  0  0  0  0  0  0  0  0  0  0  0
  -28.6499  -21.5847   20.7635 O   0  0  0  0  0  0  0  0  0  0  0  0
  -22.0942  -25.7124   20.9053 O   0  0  0  0  0  0  0  0  0  0  0  0
  -24.1031  -10.4788   23.0202 O   0  0  0  0  0  0  0  0  0  0  0  0
  -28.6663  -27.0361   19.7189 O   0  0  0  0  0  0  0  0  0  1  0  0
  -22.2804   -6.8242   19.3154 F   0  0  0  0  0  0  0  0  0  0  0  0
  -21.4773  -10.5238   22.1568 F   0  0  0  0  0  0  0  0  0  0  0  0
  -27.6487  -18.6113   17.4562 F   0  0  0  0  0  0  0  0  0  0  0  0
  1  2  1  0  0  0  0
  1  5  2  0  0  0  0
  2  6  2  0  0  0  0
  3  8  2  0  0  0  0
  3 17  1  0  0  0  0
  4  9  1  0  0  0  0
  4 17  2  0  0  0  0
  5 19  1  0  0  0  0
  6 21  1  0  0  0  0
  7 10  2  0  0  0  0
  7 20  1  0  0  0  0
  8 23  1  0  0  0  0
  9 23  2  0  0  0  0
 10 24  1  0  0  0  0
 11 12  2  0  0  0  0
 11 25  1  0  0  0  0
 12 26  1  0  0  0  0
 13 16  2  0  0  0  0
 13 29  1  0  0  0  0
 14 22  1  0  0  0  0
 14 24  2  0  0  0  0
 15 26  2  0  0  0  0
 15 27  1  0  0  0  0
 16 69  1  0  0  0  0
 17 28  1  0  0  0  0
 18 28  1  0  0  0  0
 18 30  2  0  0  0  0
 18 31  1  0  0  0  0
 19 21  2  0  0  0  0
 19 36  1  0  0  0  0
 20 22  2  0  0  0  0
 20 37  1  0  0  0  0
 21 45  1  0  0  0  0
 22 38  1  0  0  0  0
 23 83  1  0  0  0  0
 24 84  1  0  0  0  0
 25 27  2  0  0  0  0
 25 83  1  0  0  0  0
 26 85  1  0  0  0  0
 27 86  1  0  0  0  0
 28 67  2  0  0  0  0
 29 57  1  0  0  0  0
 29 68  2  0  0  0  0
 30 70  1  0  0  0  0
 30 73  1  0  0  0  0
 31 74  1  0  0  0  0
 31 78  2  0  0  0  0
 32 46  1  0  0  0  0
 32 75  1  0  0  0  0
 32 79  2  0  0  0  0
 33 61  1  0  0  0  0
 33 71  1  0  0  0  0
 33 80  2  0  0  0  0
 34 64  1  0  0  0  0
 34 72  1  0  0  0  0
 34 81  2  0  0  0  0
 35 62  1  0  0  0  0
 35 76  1  0  0  0  0
 35 82  2  0  0  0  0
 36 39  1  0  0  0  0
 37 46  1  0  0  0  0
 38 71  1  0  0  0  0
 39 41  1  0  0  0  0
 40 42  1  0  0  0  0
 40 43  1  0  0  0  0
 41 45  1  0  0  0  0
 42 47  1  0  0  0  0
 43 72  1  0  0  0  0
 44 47  1  0  0  0  0
 44 72  1  0  0  0  0
 45 75  1  0  0  0  0
 46 71  1  0  0  0  0
 47 70  1  0  0  0  0
 48 62  1  0  0  0  0
 49 64  1  0  0  0  0
 50 64  1  0  0  0  0
 51 65  1  0  0  0  0
 52 65  1  0  0  0  0
 53 65  1  0  0  0  0
 54 66  1  0  0  0  0
 55 66  1  0  0  0  0
 56 77  1  0  0  0  0
 57 58  1  0  0  0  0
 58 59  1  0  0  0  0
 59 60  1  0  0  0  0
 60 84  1  0  0  0  0
 61 65  1  0  0  0  0
 61 76  1  0  0  0  0
 62 77  1  0  0  0  0
 63 64  1  0  0  0  0
 63 66  1  0  0  0  0
 63 87  1  0  0  0  0
 66 69  1  0  0  0  0
 67 70  1  0  0  0  0
 68 69  1  0  0  0  0
M  CHG  1  77   1
M  ISO  4  34 100  60 101  64 100  84 101
M  END
> <Batch ID>
0067

> <Smiles>
CNC(C)C(=O)NC(C(=O)N1Cc2cc([101O:1][101CH2:1]CCCc3ccn(C(C)(C)C(F)[100C:0](C)(C)[100C:0](=O)N4CCCC(n5nc(-c6ccc(Oc7ccc(F)cc7F)cc6)c(C(N)=O)c5N)C4)n3)ccc2CC1C(=O)NC1CCCc2ccccc21)C(C)(C)C

> <Shape>
0.345

> <Color>
0.069

> <Negative vol penalty>
0.000

$$$$

  -OEChem-04052318123D

 88 96  0     1  0  0  0  0  0999 V2000
  -34.7758  -17.7384   22.7931 C   0  0  0  0  0  0  0  0  0  0  0  0
  -33.6523  -18.4741   23.1562 C   0  0  0  0  0  0  0  0  0  0  0  0
  -28.3854  -26.1666   18.6221 C   0  0  0  0  0  0  0  0  0  0  0  0
  -26.2885  -24.9713   18.5158 C   0  0  0  0  0  0  0  0  0  0  0  0
  -34.7411  -16.9298   21.6578 C   0  0  0  0  0  0  0  0  0  0  0  0
  -32.4937  -18.4025   22.3836 C   0  0  0  0  0  0  0  0  0  0  0  0
  -26.7119  -18.6688   24.3850 C   0  0  0  0  0  0  0  0  0  0  0  0
  -20.3065  -24.9212   22.6259 C   0  0  0  0  0  0  0  0  0  0  0  0
  -29.0724  -24.9549   18.6952 C   0  0  0  0  0  0  0  0  0  0  0  0
  -26.9755  -23.7596   18.5889 C   0  0  0  0  0  0  0  0  0  0  0  0
  -25.7849  -19.7088   24.4388 C   0  0  0  0  0  0  0  0  0  0  0  0
  -31.3547  -22.1833   19.2724 C   0  0  0  0  0  0  0  0  0  0  0  0
  -32.3770  -22.0715   20.2147 C   0  0  0  0  0  0  0  0  0  0  0  0
  -19.8205  -26.2147   22.7807 C   0  0  0  0  0  0  0  0  0  0  0  0
  -24.8358  -18.9628   22.3503 C   0  0  0  0  0  0  0  0  0  0  0  0
  -30.7929  -22.5107   21.9853 C   0  0  0  0  0  0  0  0  0  0  0  0
  -26.9934  -26.1748   18.5324 C   0  0  0  0  0  0  0  0  0  0  0  0
  -25.9361  -28.1383   17.2936 C   0  0  0  0  0  0  0  0  0  0  0  0
  -33.5783  -16.8408   20.8763 C   0  0  0  0  0  0  0  0  0  0  0  0
  -26.7148  -17.7731   23.3061 C   0  0  0  0  0  0  0  0  0  0  0  0
  -32.4438  -17.5930   21.2361 C   0  0  0  0  0  0  0  0  0  0  0  0
  -25.7622  -17.9108   22.2864 C   0  0  0  0  0  0  0  0  0  0  0  0
  -21.2872  -24.4451   23.4891 C   0  0  0  0  0  0  0  0  0  0  0  0
  -28.3675  -23.7514   18.6786 C   0  0  0  0  0  0  0  0  0  0  0  0
  -24.8485  -19.8577   23.4199 C   0  0  0  0  0  0  0  0  0  0  0  0
  -30.0515  -22.4589   19.6865 C   0  0  0  0  0  0  0  0  0  0  0  0
  -32.0961  -22.2352   21.5712 C   0  0  0  0  0  0  0  0  0  0  0  0
  -29.7706  -22.6225   21.0429 C   0  0  0  0  0  0  0  0  0  0  0  0
  -26.2831  -27.4262   18.4574 C   0  0  0  0  0  0  0  0  0  0  0  0
  -20.3437  -26.9858   23.8060 C   0  0  0  0  0  0  0  0  0  0  0  0
  -21.7449  -25.2955   24.4826 C   0  0  0  0  0  0  0  0  0  0  0  0
  -25.2772  -29.2513   17.7558 C   0  0  0  0  0  0  0  0  0  0  0  0
  -26.1867  -27.8218   15.9178 C   0  0  0  0  0  0  0  0  0  0  0  0
  -28.8018  -17.0027   21.0357 C   0  0  0  0  0  0  0  0  0  0  0  0
  -26.5922  -14.7395   20.3160 C   0  0  0  0  0  0  0  0  0  0  0  0
  -23.3369  -13.7233   20.4477 C   0  0  0  0  0  0  0  0  0  0  0  0
  -22.2384  -30.3953   22.7865 C   0  0  0  0  0  0  0  0  0  0  0  0
  -33.6038  -15.9899   19.6313 C   0  0  0  0  0  0  0  0  0  0  0  0
  -27.7042  -16.6405   23.2762 C   0  0  0  0  0  0  0  0  0  0  0  0
  -25.7102  -16.9636   21.1165 C   0  0  0  0  0  0  0  0  0  0  0  0
  -32.2157  -15.6794   19.0772 C   0  0  0  0  0  0  0  0  0  0  0  0
  -25.0599  -32.1726   21.5386 C   0  0  0  0  0  0  0  0  0  0  0  0
  -31.3638  -16.9439   19.0320 C   0  0  0  0  0  0  0  0  0  0  0  0
  -25.6620  -31.2220   20.5024 C   0  0  0  0  0  0  0  0  0  0  0  0
  -24.4954  -31.4153   22.7385 C   0  0  0  0  0  0  0  0  0  0  0  0
  -24.1328  -29.4011   21.3654 C   0  0  0  0  0  0  0  0  0  0  0  0
  -31.1603  -17.5226   20.4374 C   0  0  1  0  0  0  0  0  0  0  0  0
  -27.9454  -16.0947   21.8722 C   0  0  1  0  0  0  0  0  0  0  0  0
  -24.6649  -30.1148   20.1109 C   0  0  2  0  0  0  0  0  0  0  0  0
  -21.8292  -11.8461   19.7405 C   0  0  0  0  0  0  0  0  0  0  0  0
  -20.4999  -29.1685   25.1874 C   0  0  0  0  0  0  0  0  0  0  0  0
  -18.3154  -28.3699   24.3237 C   0  0  0  0  0  0  0  0  0  0  0  0
  -26.6341  -15.7885   17.4510 C   0  0  0  0  0  0  0  0  0  0  0  0
  -24.4898  -14.5617   17.0445 C   0  0  0  0  0  0  0  0  0  0  0  0
  -26.5531  -13.2967   17.6486 C   0  0  0  0  0  0  0  0  0  0  0  0
  -24.2769  -23.6941   22.8184 C   0  0  0  0  0  0  0  0  0  0  0  0
  -22.6404  -23.3962   20.9676 C   0  0  0  0  0  0  0  0  0  0  0  0
  -22.6196  -13.0899   23.2482 C   0  0  0  0  0  0  0  0  0  0  0  0
  -20.0281  -29.2688   22.7197 C   0  0  0  0  0  0  0  0  0  0  0  0
  -23.4825  -21.3935   22.2236 C   0  0  0  0  0  0  0  0  0  1  0  0
  -21.8349  -23.0374   23.3418 C   0  0  2  0  0  0  0  0  0  0  0  0
  -25.3823  -14.6749   19.4155 C   0  0  1  0  0  0  0  0  0  0  0  0
  -22.7102  -12.4003   20.8493 C   0  0  2  0  0  0  0  0  0  0  0  0
  -19.8453  -28.3789   24.0010 C   0  0  0  0  0  0  0  0  0  0  0  0
  -25.7668  -14.5996   17.9108 C   0  0  0  0  0  0  0  0  0  0  0  0
  -23.0522  -22.8733   22.3661 C   0  0  0  0  0  0  0  0  0  0  0  0
  -25.8784  -28.0358   19.5748 N   0  0  0  0  0  0  0  0  0  0  0  0
  -21.2969  -26.5581   24.6640 N   0  0  0  0  0  0  0  0  0  0  0  0
  -25.2703  -29.1427   19.1153 N   0  0  0  0  0  0  0  0  0  0  0  0
  -26.7025  -15.8762   21.1295 N   0  0  0  0  0  0  0  0  0  0  0  0
  -23.5556  -30.3811   22.2988 N   0  0  0  0  0  0  0  0  0  0  0  0
  -24.7090  -30.3026   17.1278 N   0  0  0  0  0  0  0  0  0  0  0  0
  -26.8769  -26.6391   15.6193 N   0  0  0  0  0  0  0  0  0  0  0  0
  -30.1578  -16.7652   21.1556 N   0  0  0  0  0  0  0  0  0  0  0  0
  -24.5836  -13.5480   19.8852 N   0  0  0  0  0  0  0  0  0  0  0  0
  -21.4113  -29.3834   22.3145 N   0  0  0  0  0  0  0  0  0  0  0  0
  -21.8749  -12.5726   22.0714 N   0  3  0  0  0  0  0  0  0  0  0  0
  -25.8242  -28.5741   14.9818 O   0  0  0  0  0  0  0  0  0  0  0  0
  -28.2716  -17.8547   20.3324 O   0  0  0  0  0  0  0  0  0  0  0  0
  -27.4056  -13.8123   20.3035 O   0  0  0  0  0  0  0  0  0  0  0  0
  -22.7751  -14.8039   20.6128 O   0  0  0  0  0  0  0  0  0  0  0  0
  -21.8283  -31.2497   23.5794 O   0  0  0  0  0  0  0  0  0  0  0  0
  -20.7528  -22.1831   22.9558 O   0  0  0  0  0  0  0  0  0  0  0  0
  -29.0375  -22.5688   18.7497 O   0  0  0  0  0  0  0  0  0  0  0  0
  -23.9430  -20.8723   23.4697 O   0  0  0  0  0  0  0  0  0  1  0  0
  -33.0776  -22.1262   22.4761 F   0  0  0  0  0  0  0  0  0  0  0  0
  -28.5204  -22.8862   21.4468 F   0  0  0  0  0  0  0  0  0  0  0  0
  -22.6910  -24.8563   25.3284 F   0  0  0  0  0  0  0  0  0  0  0  0
  1  2  1  0  0  0  0
  1  5  2  0  0  0  0
  2  6  2  0  0  0  0
  3  9  2  0  0  0  0
  3 17  1  0  0  0  0
  4 10  1  0  0  0  0
  4 17  2  0  0  0  0
  5 19  1  0  0  0  0
  6 21  1  0  0  0  0
  7 11  2  0  0  0  0
  7 20  1  0  0  0  0
  8 14  2  0  0  0  0
  8 23  1  0  0  0  0
  9 24  1  0  0  0  0
 10 24  2  0  0  0  0
 11 25  1  0  0  0  0
 12 13  2  0  0  0  0
 12 26  1  0  0  0  0
 13 27  1  0  0  0  0
 14 30  1  0  0  0  0
 15 22  1  0  0  0  0
 15 25  2  0  0  0  0
 16 27  2  0  0  0  0
 16 28  1  0  0  0  0
 17 29  1  0  0  0  0
 18 29  1  0  0  0  0
 18 32  2  0  0  0  0
 18 33  1  0  0  0  0
 19 21  2  0  0  0  0
 19 38  1  0  0  0  0
 20 22  2  0  0  0  0
 20 39  1  0  0  0  0
 21 47  1  0  0  0  0
 22 40  1  0  0  0  0
 23 31  2  0  0  0  0
 23 61  1  0  0  0  0
 24 84  1  0  0  0  0
 25 85  1  0  0  0  0
 26 28  2  0  0  0  0
 26 84  1  0  0  0  0
 27 86  1  0  0  0  0
 28 87  1  0  0  0  0
 29 67  2  0  0  0  0
 30 64  1  0  0  0  0
 30 68  2  0  0  0  0
 31 68  1  0  0  0  0
 31 88  1  0  0  0  0
 32 69  1  0  0  0  0
 32 72  1  0  0  0  0
 33 73  1  0  0  0  0
 33 78  2  0  0  0  0
 34 48  1  0  0  0  0
 34 74  1  0  0  0  0
 34 79  2  0  0  0  0
 35 62  1  0  0  0  0
 35 70  1  0  0  0  0
 35 80  2  0  0  0  0
 36 63  1  0  0  0  0
 36 75  1  0  0  0  0
 36 81  2  0  0  0  0
 37 71  1  0  0  0  0
 37 76  1  0  0  0  0
 37 82  2  0  0  0  0
 38 41  1  0  0  0  0
 39 48  1  0  0  0  0
 40 70  1  0  0  0  0
 41 43  1  0  0  0  0
 42 44  1  0  0  0  0
 42 45  1  0  0  0  0
 43 47  1  0  0  0  0
 44 49  1  0  0  0  0
 45 71  1  0  0  0  0
 46 49  1  0  0  0  0
 46 71  1  0  0  0  0
 47 74  1  0  0  0  0
 48 70  1  0  0  0  0
 49 69  1  0  0  0  0
 50 63  1  0  0  0  0
 51 64  1  0  0  0  0
 52 64  1  0  0  0  0
 53 65  1  0  0  0  0
 54 65  1  0  0  0  0
 55 65  1  0  0  0  0
 56 66  1  0  0  0  0
 57 66  1  0  0  0  0
 58 77  1  0  0  0  0
 59 64  1  0  0  0  0
 59 76  1  0  0  0  0
 60 66  1  0  0  0  0
 60 85  1  0  0  0  0
 61 66  1  0  0  0  0
 61 83  1  0  0  0  0
 62 65  1  0  0  0  0
 62 75  1  0  0  0  0
 63 77  1  0  0  0  0
 67 69  1  0  0  0  0
M  CHG  1  77   1
M  ISO  4  37 100  60 101  76 100  85 101
M  END
> <Batch ID>
0067

> <Smiles>
CNC(C)C(=O)NC(C(=O)N1Cc2cc([101O:1][101CH2:1]C(C)(C)C(O)c3ccc(C(C)(C)C[100NH:0][100C:0](=O)N4CCCC(n5nc(-c6ccc(Oc7ccc(F)cc7F)cc6)c(C(N)=O)c5N)C4)nc3F)ccc2CC1C(=O)NC1CCCc2ccccc21)C(C)(C)C

> <Shape>
0.206

> <Color>
0.076

> <Negative vol penalty>
0.000

$$$$

  -OEChem-04052318123D

 87 95  0     1  0  0  0  0  0999 V2000
  -29.8405  -12.4238   19.4807 C   0  0  0  0  0  0  0  0  0  0  0  0
  -29.5794  -13.7891   19.4227 C   0  0  0  0  0  0  0  0  0  0  0  0
  -20.2493  -28.2148   23.2985 C   0  0  0  0  0  0  0  0  0  0  0  0
  -21.4069  -26.4941   22.0589 C   0  0  0  0  0  0  0  0  0  0  0  0
  -28.7916  -11.5214   19.6524 C   0  0  0  0  0  0  0  0  0  0  0  0
  -28.2691  -14.2527   19.5352 C   0  0  0  0  0  0  0  0  0  0  0  0
  -27.8765  -18.2324   22.6421 C   0  0  0  0  0  0  0  0  0  0  0  0
  -19.0645  -27.8956   22.6352 C   0  0  0  0  0  0  0  0  0  0  0  0
  -20.2221  -26.1749   21.3956 C   0  0  0  0  0  0  0  0  0  0  0  0
  -28.2648  -19.4734   22.1392 C   0  0  0  0  0  0  0  0  0  0  0  0
  -17.4218  -24.6648   19.6360 C   0  0  0  0  0  0  0  0  0  0  0  0
  -17.0960  -23.3152   19.5022 C   0  0  0  0  0  0  0  0  0  0  0  0
  -25.9516  -20.0276   21.7377 C   0  0  0  0  0  0  0  0  0  0  0  0
  -17.0708  -23.0828   21.9069 C   0  0  0  0  0  0  0  0  0  0  0  0
  -21.4205  -27.5141   23.0103 C   0  0  0  0  0  0  0  0  0  0  0  0
  -23.1192  -27.2938   24.9007 C   0  0  0  0  0  0  0  0  0  0  0  0
  -27.4689  -11.9748   19.7768 C   0  0  0  0  0  0  0  0  0  0  0  0
  -26.5214  -17.8747   22.6865 C   0  0  0  0  0  0  0  0  0  0  0  0
  -27.2014  -13.3554   19.7074 C   0  0  0  0  0  0  0  0  0  0  0  0
  -25.5486  -18.7824   22.2439 C   0  0  0  0  0  0  0  0  0  0  0  0
  -19.0509  -26.8756   21.6838 C   0  0  0  0  0  0  0  0  0  0  0  0
  -27.3024  -20.3701   21.6842 C   0  0  0  0  0  0  0  0  0  0  0  0
  -17.5722  -25.2235   20.9053 C   0  0  0  0  0  0  0  0  0  0  0  0
  -16.9205  -22.5242   20.6376 C   0  0  0  0  0  0  0  0  0  0  0  0
  -17.3967  -24.4325   22.0407 C   0  0  0  0  0  0  0  0  0  0  0  0
  -22.6448  -27.8438   23.6947 C   0  0  0  0  0  0  0  0  0  0  0  0
  -29.4417  -26.3700   17.5996 C   0  0  0  0  0  0  0  0  0  0  0  0
  -30.0691  -25.3703   18.2978 C   0  0  0  0  0  0  0  0  0  0  0  0
  -24.3132  -27.9349   25.1242 C   0  0  0  0  0  0  0  0  0  0  0  0
  -29.7589  -27.7527   19.3566 C   0  0  0  0  0  0  0  0  0  0  0  0
  -22.5330  -26.2930   25.7435 C   0  0  0  0  0  0  0  0  0  0  0  0
  -24.7613  -15.5846   21.3593 C   0  0  0  0  0  0  0  0  0  0  0  0
  -22.4369  -16.8062   23.2639 C   0  0  0  0  0  0  0  0  0  0  0  0
  -28.1792  -30.6311   21.3965 C   0  0  0  0  0  0  0  0  0  0  0  0
  -21.2291  -19.4775   25.0109 C   0  0  0  0  0  0  0  0  0  0  0  0
  -26.3630  -10.9584   19.9136 C   0  0  0  0  0  0  0  0  0  0  0  0
  -26.1171  -16.5428   23.2565 C   0  0  0  0  0  0  0  0  0  0  0  0
  -24.0792  -18.4547   22.2889 C   0  0  0  0  0  0  0  0  0  0  0  0
  -25.0446  -11.5546   20.4002 C   0  0  0  0  0  0  0  0  0  0  0  0
  -26.5786  -32.0527   24.2700 C   0  0  0  0  0  0  0  0  0  0  0  0
  -24.7188  -12.8300   19.6295 C   0  0  0  0  0  0  0  0  0  0  0  0
  -25.4147  -31.1002   24.5405 C   0  0  0  0  0  0  0  0  0  0  0  0
  -26.8486  -32.1940   22.7752 C   0  0  0  0  0  0  0  0  0  0  0  0
  -25.9215  -29.9410   22.3441 C   0  0  0  0  0  0  0  0  0  0  0  0
  -25.7962  -13.8985   19.8504 C   0  0  1  0  0  0  0  0  0  0  0  0
  -24.7446  -16.0797   22.7779 C   0  0  1  0  0  0  0  0  0  0  0  0
  -25.6352  -29.7459   23.8435 C   0  0  2  0  0  0  0  0  0  0  0  0
  -28.9157  -26.1452   16.2234 C   0  0  0  0  0  0  0  0  0  0  0  0
  -19.2885  -20.1845   26.4363 C   0  0  0  0  0  0  0  0  0  0  0  0
  -20.7002  -17.0617   20.7683 C   0  0  0  0  0  0  0  0  0  0  0  0
  -19.2047  -18.6057   22.0520 C   0  0  0  0  0  0  0  0  0  0  0  0
  -19.4930  -16.2435   22.8000 C   0  0  0  0  0  0  0  0  0  0  0  0
  -22.9799  -19.9997   27.3392 C   0  0  0  0  0  0  0  0  0  0  0  0
  -30.2647  -23.9908   17.7211 C   0  0  0  0  0  0  0  0  0  0  0  0
  -30.2543  -22.8738   18.7706 C   0  0  0  0  0  0  0  0  0  0  0  0
  -28.9157  -22.7499   19.4998 C   0  0  0  0  0  0  0  0  0  0  0  0
  -28.9559  -21.6582   20.5605 C   0  0  0  0  0  0  0  0  0  1  0  0
  -21.3905  -17.8842   23.1163 C   0  0  1  0  0  0  0  0  0  0  0  0
  -20.6907  -19.5959   26.4254 C   0  0  2  0  0  0  0  0  0  0  0  0
  -29.5974  -29.0946   19.9833 C   0  0  0  0  0  0  0  0  0  0  0  0
  -28.2970  -29.2588   20.7824 C   0  0  0  0  0  0  0  0  0  0  0  0
  -20.2248  -17.4545   22.1814 C   0  0  0  0  0  0  0  0  0  0  0  0
  -23.4701  -28.7635   23.1877 N   0  0  0  0  0  0  0  0  0  0  0  0
  -29.2705  -27.5958   18.1173 N   0  0  0  0  0  0  0  0  0  0  0  0
  -30.5391  -25.5869   19.5396 N   0  0  0  0  0  0  0  0  0  0  0  0
  -30.3826  -26.8092   20.0893 N   0  0  0  0  0  0  0  0  0  0  0  0
  -24.4749  -28.7965   24.0794 N   0  0  0  0  0  0  0  0  0  0  0  0
  -23.7346  -17.1375   22.8491 N   0  0  0  0  0  0  0  0  0  0  0  0
  -27.0303  -30.8848   22.1459 N   0  0  0  0  0  0  0  0  0  0  0  0
  -25.2299  -27.8400   26.1106 N   0  0  0  0  0  0  0  0  0  0  0  0
  -21.3025  -25.7384   25.3657 N   0  0  0  0  0  0  0  0  0  0  0  0
  -25.6257  -14.5287   21.1420 N   0  0  0  0  0  0  0  0  0  0  0  0
  -20.9728  -18.2357   24.4692 N   0  0  0  0  0  0  0  0  0  0  0  0
  -21.5748  -20.4725   27.2444 N   0  3  0  0  0  0  0  0  0  0  0  0
  -23.0761  -25.9138   26.8088 O   0  0  0  0  0  0  0  0  0  0  0  0
  -24.0419  -16.1200   20.5241 O   0  0  0  0  0  0  0  0  0  0  0  0
  -22.1164  -15.7129   23.7368 O   0  0  0  0  0  0  0  0  0  0  0  0
  -29.0838  -31.4506   21.2168 O   0  0  0  0  0  0  0  0  0  0  0  0
  -21.8149  -20.3961   24.4421 O   0  0  0  0  0  0  0  0  0  0  0  0
  -17.8949  -26.5637   21.0365 O   0  0  0  0  0  0  0  0  0  0  0  0
  -27.6787  -21.5819   21.1924 O   0  0  0  0  0  0  0  0  0  1  0  0
  -16.6061  -21.2285   20.5089 F   0  0  0  0  0  0  0  0  0  0  0  0
  -17.5387  -24.9638   23.2627 F   0  0  0  0  0  0  0  0  0  0  0  0
  -29.6044  -30.1051   19.0494 F   0  0  0  0  0  0  0  0  0  0  0  0
  -30.6301  -29.4228   20.8296 F   0  0  0  0  0  0  0  0  0  0  0  0
  -27.2409  -29.0329   19.9523 F   0  0  0  0  0  0  0  0  0  0  0  0
  -28.2324  -28.2954   21.7391 F   0  0  0  0  0  0  0  0  0  0  0  0
  1  2  1  0  0  0  0
  1  5  2  0  0  0  0
  2  6  2  0  0  0  0
  3  8  2  0  0  0  0
  3 15  1  0  0  0  0
  4  9  1  0  0  0  0
  4 15  2  0  0  0  0
  5 17  1  0  0  0  0
  6 19  1  0  0  0  0
  7 10  2  0  0  0  0
  7 18  1  0  0  0  0
  8 21  1  0  0  0  0
  9 21  2  0  0  0  0
 10 22  1  0  0  0  0
 11 12  2  0  0  0  0
 11 23  1  0  0  0  0
 12 24  1  0  0  0  0
 13 20  1  0  0  0  0
 13 22  2  0  0  0  0
 14 24  2  0  0  0  0
 14 25  1  0  0  0  0
 15 26  1  0  0  0  0
 16 26  1  0  0  0  0
 16 29  2  0  0  0  0
 16 31  1  0  0  0  0
 17 19  2  0  0  0  0
 17 36  1  0  0  0  0
 18 20  2  0  0  0  0
 18 37  1  0  0  0  0
 19 45  1  0  0  0  0
 20 38  1  0  0  0  0
 21 80  1  0  0  0  0
 22 81  1  0  0  0  0
 23 25  2  0  0  0  0
 23 80  1  0  0  0  0
 24 82  1  0  0  0  0
 25 83  1  0  0  0  0
 26 63  2  0  0  0  0
 27 28  2  0  0  0  0
 27 48  1  0  0  0  0
 27 64  1  0  0  0  0
 28 54  1  0  0  0  0
 28 65  1  0  0  0  0
 29 67  1  0  0  0  0
 29 70  1  0  0  0  0
 30 60  1  0  0  0  0
 30 64  2  0  0  0  0
 30 66  1  0  0  0  0
 31 71  1  0  0  0  0
 31 75  2  0  0  0  0
 32 46  1  0  0  0  0
 32 72  1  0  0  0  0
 32 76  2  0  0  0  0
 33 58  1  0  0  0  0
 33 68  1  0  0  0  0
 33 77  2  0  0  0  0
 34 61  1  0  0  0  0
 34 69  1  0  0  0  0
 34 78  2  0  0  0  0
 35 59  1  0  0  0  0
 35 73  1  0  0  0  0
 35 79  2  0  0  0  0
 36 39  1  0  0  0  0
 37 46  1  0  0  0  0
 38 68  1  0  0  0  0
 39 41  1  0  0  0  0
 40 42  1  0  0  0  0
 40 43  1  0  0  0  0
 41 45  1  0  0  0  0
 42 47  1  0  0  0  0
 43 69  1  0  0  0  0
 44 47  1  0  0  0  0
 44 69  1  0  0  0  0
 45 72  1  0  0  0  0
 46 68  1  0  0  0  0
 47 67  1  0  0  0  0
 49 59  1  0  0  0  0
 50 62  1  0  0  0  0
 51 62  1  0  0  0  0
 52 62  1  0  0  0  0
 53 74  1  0  0  0  0
 54 55  1  0  0  0  0
 55 56  1  0  0  0  0
 56 57  1  0  0  0  0
 57 81  1  0  0  0  0
 58 62  1  0  0  0  0
 58 73  1  0  0  0  0
 59 74  1  0  0  0  0
 60 61  1  0  0  0  0
 60 84  1  0  0  0  0
 60 85  1  0  0  0  0
 61 86  1  0  0  0  0
 61 87  1  0  0  0  0
 63 67  1  0  0  0  0
 65 66  2  0  0  0  0
M  CHG  1  74   1
M  ISO  4  34 100  57 101  61 100  81 101
M  END
> <Batch ID>
0067

> <Smiles>
CNC(C)C(=O)NC(C(=O)N1Cc2cc([101O:1][101CH2:1]CCCc3nnc(C(F)(F)[100C:0](F)(F)[100C:0](=O)N4CCCC(n5nc(-c6ccc(Oc7ccc(F)cc7F)cc6)c(C(N)=O)c5N)C4)nc3C)ccc2CC1C(=O)NC1CCCc2ccccc21)C(C)(C)C

> <Shape>
0.234

> <Color>
0.071

> <Negative vol penalty>
0.000

$$$$

  -OEChem-04052318123D

 90 98  0     1  0  0  0  0  0999 V2000
  -16.5502  -30.8730   23.2441 C   0  0  0  0  0  0  0  0  0  0  0  0
  -17.6393  -30.8243   22.3798 C   0  0  0  0  0  0  0  0  0  0  0  0
  -25.6823  -12.6678   21.9932 C   0  0  0  0  0  0  0  0  0  0  0  0
  -25.8908  -13.3107   19.6736 C   0  0  0  0  0  0  0  0  0  0  0  0
  -16.5146  -30.0461   24.3661 C   0  0  0  0  0  0  0  0  0  0  0  0
  -18.6940  -29.9494   22.6377 C   0  0  0  0  0  0  0  0  0  0  0  0
  -22.0970  -26.9678   18.5102 C   0  0  0  0  0  0  0  0  0  0  0  0
  -24.6444  -11.7980   21.6588 C   0  0  0  0  0  0  0  0  0  0  0  0
  -24.8530  -12.4407   19.3392 C   0  0  0  0  0  0  0  0  0  0  0  0
  -23.3543  -27.2284   17.9668 C   0  0  0  0  0  0  0  0  0  0  0  0
  -24.3152   -8.7156   20.3084 C   0  0  0  0  0  0  0  0  0  0  0  0
  -24.3372   -7.4364   20.8639 C   0  0  0  0  0  0  0  0  0  0  0  0
  -24.3554  -25.7515   19.5903 C   0  0  0  0  0  0  0  0  0  0  0  0
  -22.2049   -7.8578   21.9188 C   0  0  0  0  0  0  0  0  0  0  0  0
  -26.3054  -13.4243   21.0006 C   0  0  0  0  0  0  0  0  0  0  0  0
  -28.7532  -14.0294   21.3874 C   0  0  0  0  0  0  0  0  0  0  0  0
  -17.5650  -29.1537   24.6326 C   0  0  0  0  0  0  0  0  0  0  0  0
  -21.9605  -26.1042   19.6065 C   0  0  0  0  0  0  0  0  0  0  0  0
  -18.6731  -29.1107   23.7650 C   0  0  0  0  0  0  0  0  0  0  0  0
  -23.0950  -25.4796   20.1442 C   0  0  0  0  0  0  0  0  0  0  0  0
  -24.2298  -11.6844   20.3319 C   0  0  0  0  0  0  0  0  0  0  0  0
  -24.4840  -26.6224   18.5087 C   0  0  0  0  0  0  0  0  0  0  0  0
  -23.2380   -9.5660   20.5581 C   0  0  0  0  0  0  0  0  0  0  0  0
  -23.2821   -7.0074   21.6691 C   0  0  0  0  0  0  0  0  0  0  0  0
  -22.1829   -9.1371   21.3633 C   0  0  0  0  0  0  0  0  0  0  0  0
  -27.3772  -14.3234   21.3454 C   0  0  0  0  0  0  0  0  0  0  0  0
  -29.3451  -15.2093   21.7668 C   0  0  0  0  0  0  0  0  0  0  0  0
  -33.0448  -25.9913   20.7492 C   0  0  0  0  0  0  0  0  0  0  0  0
  -31.2304  -25.0518   21.1764 C   0  0  0  0  0  0  0  0  0  0  0  0
  -29.4355  -12.7996   21.1084 C   0  0  0  0  0  0  0  0  0  0  0  0
  -20.9126  -26.4163   22.5912 C   0  0  0  0  0  0  0  0  0  0  0  0
  -21.3361  -23.2011   22.6626 C   0  0  0  0  0  0  0  0  0  0  0  0
  -22.9202  -20.4585   21.3915 C   0  0  0  0  0  0  0  0  0  0  0  0
  -28.8006  -20.8119   20.9145 C   0  0  0  0  0  0  0  0  0  0  0  0
  -17.5038  -28.3134   25.8835 C   0  0  0  0  0  0  0  0  0  0  0  0
  -20.5943  -25.8127   20.1642 C   0  0  0  0  0  0  0  0  0  0  0  0
  -23.0000  -24.5287   21.3082 C   0  0  0  0  0  0  0  0  0  0  0  0
  -18.4879  -27.1464   25.8820 C   0  0  0  0  0  0  0  0  0  0  0  0
  -27.7917  -19.3117   24.0496 C   0  0  0  0  0  0  0  0  0  0  0  0
  -19.8682  -27.6126   25.4303 C   0  0  0  0  0  0  0  0  0  0  0  0
  -27.7171  -17.8320   23.6686 C   0  0  0  0  0  0  0  0  0  0  0  0
  -27.3043  -20.2013   22.9098 C   0  0  0  0  0  0  0  0  0  0  0  0
  -27.9390  -18.5101   21.2333 C   0  0  0  0  0  0  0  0  0  0  0  0
  -19.8250  -28.1572   23.9974 C   0  0  1  0  0  0  0  0  0  0  0  0
  -20.6310  -25.3169   21.6064 C   0  0  1  0  0  0  0  0  0  0  0  0
  -28.4395  -17.5594   22.3359 C   0  0  2  0  0  0  0  0  0  0  0  0
  -34.4551  -26.3829   20.8570 C   0  0  0  0  0  0  0  0  0  0  0  0
  -30.4356  -24.0024   17.8182 C   0  0  0  0  0  0  0  0  0  0  0  0
  -23.0884  -17.9713   21.6789 C   0  0  0  0  0  0  0  0  0  0  0  0
  -27.4454  -29.1840   18.3407 C   0  0  0  0  0  0  0  0  0  0  0  0
  -28.8559  -25.0565   22.2051 C   0  0  0  0  0  0  0  0  0  0  0  0
  -30.5828  -23.4685   23.0125 C   0  0  0  0  0  0  0  0  0  0  0  0
  -23.0445  -23.6073   25.1579 C   0  0  0  0  0  0  0  0  0  0  0  0
  -23.9362  -21.2896   24.8398 C   0  0  0  0  0  0  0  0  0  0  0  0
  -21.5023  -21.6411   25.2582 C   0  0  0  0  0  0  0  0  0  0  0  0
  -30.4079  -28.5125   18.6269 C   0  0  0  0  0  0  0  0  0  0  0  0
  -29.0895  -28.0861   20.6877 C   0  0  0  0  0  0  0  0  0  0  0  0
  -21.9584  -19.9587   18.6376 C   0  0  0  0  0  0  0  0  0  0  0  0
  -30.0431  -25.4789   17.7993 C   0  0  0  0  0  0  0  0  0  0  0  0
  -29.5861  -23.1582   20.7268 C   0  0  0  0  0  0  0  0  0  0  0  0
  -26.8263  -26.8126   18.8739 C   0  0  0  0  0  0  0  0  0  1  0  0
  -22.4795  -22.2809   23.0160 C   0  0  1  0  0  0  0  0  0  0  0  0
  -22.3923  -19.1070   20.9452 C   0  0  2  0  0  0  0  0  0  0  0  0
  -27.9730  -27.7374   18.4027 C   0  0  2  0  0  0  0  0  0  0  0  0
  -29.8518  -26.0809   19.2225 C   0  0  2  0  0  0  0  0  0  0  0  0
  -30.1245  -24.2503   21.7304 C   0  0  0  0  0  0  0  0  0  0  0  0
  -22.7430  -22.2241   24.5473 C   0  0  0  0  0  0  0  0  0  0  0  0
  -29.3183  -27.5912   19.2388 C   0  0  0  0  0  0  0  0  0  0  0  0
  -27.1105  -15.5908   21.6721 N   0  0  0  0  0  0  0  0  0  0  0  0
  -32.4612  -25.1236   21.6273 N   0  0  0  0  0  0  0  0  0  0  0  0
  -32.2524  -26.4610   19.7833 N   0  0  0  0  0  0  0  0  0  0  0  0
  -28.3272  -16.1035   21.9231 N   0  0  0  0  0  0  0  0  0  0  0  0
  -31.0980  -25.8448   20.0794 N   0  0  0  0  0  0  0  0  0  0  0  0
  -21.6429  -24.2807   21.8224 N   0  0  0  0  0  0  0  0  0  0  0  0
  -28.0447  -19.9046   21.6753 N   0  0  0  0  0  0  0  0  0  0  0  0
  -30.6317  -15.5588   21.9786 N   0  0  0  0  0  0  0  0  0  0  0  0
  -28.6750  -11.6842   20.7317 N   0  0  0  0  0  0  0  0  0  0  0  0
  -19.7820  -27.0690   23.0442 N   0  0  0  0  0  0  0  0  0  0  0  0
  -22.1645  -20.9892   22.4155 N   0  0  0  0  0  0  0  0  0  0  0  0
  -28.8442  -22.1140   21.3977 N   0  0  0  0  0  0  0  0  0  0  0  0
  -22.6086  -18.9238   19.4821 N   0  3  0  0  0  0  0  0  0  0  0  0
  -30.6811  -12.6886   21.2067 O   0  0  0  0  0  0  0  0  0  0  0  0
  -22.0698  -26.6539   22.9170 O   0  0  0  0  0  0  0  0  0  0  0  0
  -20.2106  -22.9663   23.1097 O   0  0  0  0  0  0  0  0  0  0  0  0
  -23.9066  -20.9886   20.8851 O   0  0  0  0  0  0  0  0  0  0  0  0
  -29.3974  -20.4847   19.8831 O   0  0  0  0  0  0  0  0  0  0  0  0
  -23.2173  -10.8355   20.0052 O   0  0  0  0  0  0  0  0  0  0  0  0
  -25.7195  -26.8769   17.9776 O   0  0  0  0  0  0  0  0  0  1  0  0
  -23.3026   -5.7784   22.2012 F   0  0  0  0  0  0  0  0  0  0  0  0
  -21.1448   -9.9491   21.6058 F   0  0  0  0  0  0  0  0  0  0  0  0
  1  2  1  0  0  0  0
  1  5  2  0  0  0  0
  2  6  2  0  0  0  0
  3  8  2  0  0  0  0
  3 15  1  0  0  0  0
  4  9  1  0  0  0  0
  4 15  2  0  0  0  0
  5 17  1  0  0  0  0
  6 19  1  0  0  0  0
  7 10  2  0  0  0  0
  7 18  1  0  0  0  0
  8 21  1  0  0  0  0
  9 21  2  0  0  0  0
 10 22  1  0  0  0  0
 11 12  2  0  0  0  0
 11 23  1  0  0  0  0
 12 24  1  0  0  0  0
 13 20  1  0  0  0  0
 13 22  2  0  0  0  0
 14 24  2  0  0  0  0
 14 25  1  0  0  0  0
 15 26  1  0  0  0  0
 16 26  1  0  0  0  0
 16 27  2  0  0  0  0
 16 30  1  0  0  0  0
 17 19  2  0  0  0  0
 17 35  1  0  0  0  0
 18 20  2  0  0  0  0
 18 36  1  0  0  0  0
 19 44  1  0  0  0  0
 20 37  1  0  0  0  0
 21 87  1  0  0  0  0
 22 88  1  0  0  0  0
 23 25  2  0  0  0  0
 23 87  1  0  0  0  0
 24 89  1  0  0  0  0
 25 90  1  0  0  0  0
 26 69  2  0  0  0  0
 27 72  1  0  0  0  0
 27 76  1  0  0  0  0
 28 47  1  0  0  0  0
 28 70  1  0  0  0  0
 28 71  2  0  0  0  0
 29 66  1  0  0  0  0
 29 70  2  0  0  0  0
 29 73  1  0  0  0  0
 30 77  1  0  0  0  0
 30 82  2  0  0  0  0
 31 45  1  0  0  0  0
 31 78  1  0  0  0  0
 31 83  2  0  0  0  0
 32 62  1  0  0  0  0
 32 74  1  0  0  0  0
 32 84  2  0  0  0  0
 33 63  1  0  0  0  0
 33 79  1  0  0  0  0
 33 85  2  0  0  0  0
 34 75  1  0  0  0  0
 34 80  1  0  0  0  0
 34 86  2  0  0  0  0
 35 38  1  0  0  0  0
 36 45  1  0  0  0  0
 37 74  1  0  0  0  0
 38 40  1  0  0  0  0
 39 41  1  0  0  0  0
 39 42  1  0  0  0  0
 40 44  1  0  0  0  0
 41 46  1  0  0  0  0
 42 75  1  0  0  0  0
 43 46  1  0  0  0  0
 43 75  1  0  0  0  0
 44 78  1  0  0  0  0
 45 74  1  0  0  0  0
 46 72  1  0  0  0  0
 48 59  1  0  0  0  0
 49 63  1  0  0  0  0
 50 64  1  0  0  0  0
 51 66  1  0  0  0  0
 52 66  1  0  0  0  0
 53 67  1  0  0  0  0
 54 67  1  0  0  0  0
 55 67  1  0  0  0  0
 56 68  1  0  0  0  0
 57 68  1  0  0  0  0
 58 81  1  0  0  0  0
 59 65  1  0  0  0  0
 60 66  1  0  0  0  0
 60 80  1  0  0  0  0
 61 64  1  0  0  0  0
 61 88  1  0  0  0  0
 62 67  1  0  0  0  0
 62 79  1  0  0  0  0
 63 81  1  0  0  0  0
 64 68  1  0  0  0  0
 65 68  1  0  0  0  0
 65 73  1  0  0  0  0
 69 72  1  0  0  0  0
 71 73  1  0  0  0  0
M  CHG  1  81   1
M  ISO  4  34 100  61 101  80 100  88 101
M  END
> <Batch ID>
0067

> <Smiles>
CCC(n1nc(C)nc1C(C)(C)C[100NH:0][100C:0](=O)N1CCCC(n2nc(-c3ccc(Oc4ccc(F)cc4F)cc3)c(C(N)=O)c2N)C1)C(C)(C)C(C)[101CH2:1][101O:1]c1ccc2c(c1)CN(C(=O)C(NC(=O)C(C)NC)C(C)(C)C)C(C(=O)NC1CCCc3ccccc31)C2

> <Shape>
0.240

> <Color>
0.055

> <Negative vol penalty>
0.000

$$$$

  -OEChem-04052318123D

 87 95  0     1  0  0  0  0  0999 V2000
  -17.6142  -25.0564   25.0346 C   0  0  0  0  0  0  0  0  0  0  0  0
  -18.8253  -24.4368   24.7438 C   0  0  0  0  0  0  0  0  0  0  0  0
  -26.7266  -13.9636   21.6832 C   0  0  0  0  0  0  0  0  0  0  0  0
  -24.7984  -14.1311   20.2372 C   0  0  0  0  0  0  0  0  0  0  0  0
  -17.3072  -26.2889   24.4595 C   0  0  0  0  0  0  0  0  0  0  0  0
  -19.7299  -25.0489   23.8769 C   0  0  0  0  0  0  0  0  0  0  0  0
  -26.7670  -25.7553   22.7384 C   0  0  0  0  0  0  0  0  0  0  0  0
  -26.1339  -12.8912   22.3495 C   0  0  0  0  0  0  0  0  0  0  0  0
  -24.2056  -13.0586   20.9036 C   0  0  0  0  0  0  0  0  0  0  0  0
  -27.7145  -25.6077   21.7264 C   0  0  0  0  0  0  0  0  0  0  0  0
  -22.3397  -10.1333   21.9894 C   0  0  0  0  0  0  0  0  0  0  0  0
  -21.7388   -9.1403   21.2157 C   0  0  0  0  0  0  0  0  0  0  0  0
  -27.1113  -27.7743   20.8538 C   0  0  0  0  0  0  0  0  0  0  0  0
  -23.8574   -8.6935   20.1437 C   0  0  0  0  0  0  0  0  0  0  0  0
  -26.0324  -25.4085   17.5961 C   0  0  0  0  0  0  0  0  0  0  0  0
  -26.0589  -14.5837   20.6270 C   0  0  0  0  0  0  0  0  0  0  0  0
  -27.5108  -15.6329   18.8108 C   0  0  0  0  0  0  0  0  0  0  0  0
  -18.2126  -26.9210   23.5927 C   0  0  0  0  0  0  0  0  0  0  0  0
  -25.9756  -26.9108   22.8094 C   0  0  0  0  0  0  0  0  0  0  0  0
  -19.4342  -26.2904   23.2886 C   0  0  0  0  0  0  0  0  0  0  0  0
  -26.1562  -27.9353   21.8693 C   0  0  0  0  0  0  0  0  0  0  0  0
  -27.1617  -25.0003   16.9160 C   0  0  0  0  0  0  0  0  0  0  0  0
  -24.8733  -12.4386   21.9597 C   0  0  0  0  0  0  0  0  0  0  0  0
  -27.8848  -26.6160   20.7822 C   0  0  0  0  0  0  0  0  0  0  0  0
  -23.6994  -10.4064   21.8401 C   0  0  0  0  0  0  0  0  0  0  0  0
  -22.4976   -8.4204   20.2929 C   0  0  0  0  0  0  0  0  0  0  0  0
  -24.4582   -9.6865   20.9173 C   0  0  0  0  0  0  0  0  0  0  0  0
  -26.6704  -15.6919   19.9387 C   0  0  0  0  0  0  0  0  0  0  0  0
  -27.0354  -23.8284   16.1984 C   0  0  0  0  0  0  0  0  0  0  0  0
  -27.8224  -16.9440   18.5458 C   0  0  0  0  0  0  0  0  0  0  0  0
  -24.8683  -23.6054   16.8473 C   0  0  0  0  0  0  0  0  0  0  0  0
  -27.9688  -14.4946   18.0690 C   0  0  0  0  0  0  0  0  0  0  0  0
  -22.8591  -27.5097   22.6284 C   0  0  0  0  0  0  0  0  0  0  0  0
  -23.7889  -30.5202   23.3997 C   0  0  0  0  0  0  0  0  0  0  0  0
  -26.2635  -32.8701   23.4293 C   0  0  0  0  0  0  0  0  0  0  0  0
  -25.0538  -22.1157   19.7456 C   0  0  0  0  0  0  0  0  0  0  0  0
  -17.8164  -28.2306   22.9582 C   0  0  0  0  0  0  0  0  0  0  0  0
  -24.9765  -27.0664   23.9230 C   0  0  0  0  0  0  0  0  0  0  0  0
  -25.3460  -29.2041   21.9135 C   0  0  0  0  0  0  0  0  0  0  0  0
  -18.9899  -28.9893   22.3437 C   0  0  0  0  0  0  0  0  0  0  0  0
  -28.3506  -21.1784   20.7097 C   0  0  0  0  0  0  0  0  0  0  0  0
  -19.8536  -28.0504   21.5075 C   0  0  0  0  0  0  0  0  0  0  0  0
  -28.3697  -19.6606   20.5196 C   0  0  0  0  0  0  0  0  0  0  0  0
  -26.9955  -21.6666   21.2169 C   0  0  0  0  0  0  0  0  0  0  0  0
  -25.8592  -19.7226   20.2153 C   0  0  0  0  0  0  0  0  0  0  0  0
  -20.4520  -26.9344   22.3724 C   0  0  1  0  0  0  0  0  0  0  0  0
  -23.8675  -28.0616   23.5961 C   0  0  1  0  0  0  0  0  0  0  0  0
  -27.1875  -19.1893   19.6516 C   0  0  2  0  0  0  0  0  0  0  0  0
  -27.9065  -23.2250   13.9114 C   0  0  0  0  0  0  0  0  0  0  0  0
  -28.6476  -21.9093   15.9300 C   0  0  0  0  0  0  0  0  0  0  0  0
  -26.7129  -35.2493   24.0886 C   0  0  0  0  0  0  0  0  0  0  0  0
  -23.6267  -21.5225   15.9437 C   0  0  0  0  0  0  0  0  0  0  0  0
  -22.4501  -23.6938   16.1827 C   0  0  0  0  0  0  0  0  0  0  0  0
  -22.2616  -31.4873   20.9416 C   0  0  0  0  0  0  0  0  0  0  0  0
  -23.5050  -33.6540   21.1078 C   0  0  0  0  0  0  0  0  0  0  0  0
  -22.0042  -32.9336   22.9655 C   0  0  0  0  0  0  0  0  0  0  0  0
  -28.3604  -32.0622   25.3552 C   0  0  0  0  0  0  0  0  0  0  0  0
  -28.4381  -25.8012   16.9706 C   0  0  0  0  0  0  0  0  0  0  0  0
  -29.5056  -25.1969   17.8854 C   0  0  0  0  0  0  0  0  0  0  0  0
  -23.1032  -22.4056   18.2390 C   0  0  0  0  0  0  0  0  0  0  0  0
  -29.0874  -25.1466   19.3503 C   0  0  0  0  0  0  0  0  0  1  0  0
  -28.1923  -23.2901   15.4230 C   0  0  0  0  0  0  0  0  0  0  0  0
  -24.2074  -31.7428   22.6193 C   0  0  1  0  0  0  0  0  0  0  0  0
  -26.7625  -33.7936   24.5259 C   0  0  2  0  0  0  0  0  0  0  0  0
  -23.5944  -22.8309   16.8085 C   0  0  0  0  0  0  0  0  0  0  0  0
  -23.0086  -32.4298   21.9063 C   0  0  0  0  0  0  0  0  0  0  0  0
  -24.8647  -24.7329   17.5837 N   0  0  0  0  0  0  0  0  0  0  0  0
  -26.4616  -16.9417   20.3612 N   0  0  0  0  0  0  0  0  0  0  0  0
  -25.8995  -23.1026   16.1419 N   0  0  0  0  0  0  0  0  0  0  0  0
  -27.1752  -17.6800   19.4943 N   0  0  0  0  0  0  0  0  0  0  0  0
  -24.3775  -29.3064   23.0177 N   0  0  0  0  0  0  0  0  0  0  0  0
  -25.9175  -21.1867   20.3489 N   0  0  0  0  0  0  0  0  0  0  0  0
  -28.5842  -17.5277   17.5963 N   0  0  0  0  0  0  0  0  0  0  0  0
  -27.5530  -13.2198   18.4770 N   0  0  0  0  0  0  0  0  0  0  0  0
  -21.5759  -27.4338   23.1353 N   0  0  0  0  0  0  0  0  0  0  0  0
  -24.9168  -32.6039   23.5593 N   0  0  0  0  0  0  0  0  0  0  0  0
  -24.0636  -21.5771   18.9332 N   0  0  0  0  0  0  0  0  0  0  0  0
  -28.1696  -33.4584   24.8850 N   0  3  0  0  0  0  0  0  0  0  0  0
  -28.7375  -14.6035   17.0837 O   0  0  0  0  0  0  0  0  0  0  0  0
  -23.2185  -27.1787   21.5046 O   0  0  0  0  0  0  0  0  0  0  0  0
  -22.9752  -30.6389   24.3192 O   0  0  0  0  0  0  0  0  0  0  0  0
  -26.9943  -32.4319   22.5437 O   0  0  0  0  0  0  0  0  0  0  0  0
  -25.1609  -23.3352   19.9140 O   0  0  0  0  0  0  0  0  0  0  0  0
  -24.2947  -11.3920   22.6095 O   0  0  0  0  0  0  0  0  0  0  0  0
  -28.8084  -26.4742   19.7929 O   0  0  0  0  0  0  0  0  0  1  0  0
  -21.9208   -7.4659   19.5511 F   0  0  0  0  0  0  0  0  0  0  0  0
  -25.7652   -9.9436   20.7704 F   0  0  0  0  0  0  0  0  0  0  0  0
  1  2  1  0  0  0  0
  1  5  2  0  0  0  0
  2  6  2  0  0  0  0
  3  8  2  0  0  0  0
  3 16  1  0  0  0  0
  4  9  1  0  0  0  0
  4 16  2  0  0  0  0
  5 18  1  0  0  0  0
  6 20  1  0  0  0  0
  7 10  2  0  0  0  0
  7 19  1  0  0  0  0
  8 23  1  0  0  0  0
  9 23  2  0  0  0  0
 10 24  1  0  0  0  0
 11 12  2  0  0  0  0
 11 25  1  0  0  0  0
 12 26  1  0  0  0  0
 13 21  1  0  0  0  0
 13 24  2  0  0  0  0
 14 26  2  0  0  0  0
 14 27  1  0  0  0  0
 15 22  1  0  0  0  0
 15 67  2  0  0  0  0
 16 28  1  0  0  0  0
 17 28  1  0  0  0  0
 17 30  2  0  0  0  0
 17 32  1  0  0  0  0
 18 20  2  0  0  0  0
 18 37  1  0  0  0  0
 19 21  2  0  0  0  0
 19 38  1  0  0  0  0
 20 46  1  0  0  0  0
 21 39  1  0  0  0  0
 22 29  2  0  0  0  0
 22 58  1  0  0  0  0
 23 84  1  0  0  0  0
 24 85  1  0  0  0  0
 25 27  2  0  0  0  0
 25 84  1  0  0  0  0
 26 86  1  0  0  0  0
 27 87  1  0  0  0  0
 28 68  2  0  0  0  0
 29 62  1  0  0  0  0
 29 69  1  0  0  0  0
 30 70  1  0  0  0  0
 30 73  1  0  0  0  0
 31 65  1  0  0  0  0
 31 67  1  0  0  0  0
 31 69  2  0  0  0  0
 32 74  1  0  0  0  0
 32 79  2  0  0  0  0
 33 47  1  0  0  0  0
 33 75  1  0  0  0  0
 33 80  2  0  0  0  0
 34 63  1  0  0  0  0
 34 71  1  0  0  0  0
 34 81  2  0  0  0  0
 35 64  1  0  0  0  0
 35 76  1  0  0  0  0
 35 82  2  0  0  0  0
 36 72  1  0  0  0  0
 36 77  1  0  0  0  0
 36 83  2  0  0  0  0
 37 40  1  0  0  0  0
 38 47  1  0  0  0  0
 39 71  1  0  0  0  0
 40 42  1  0  0  0  0
 41 43  1  0  0  0  0
 41 44  1  0  0  0  0
 42 46  1  0  0  0  0
 43 48  1  0  0  0  0
 44 72  1  0  0  0  0
 45 48  1  0  0  0  0
 45 72  1  0  0  0  0
 46 75  1  0  0  0  0
 47 71  1  0  0  0  0
 48 70  1  0  0  0  0
 49 62  1  0  0  0  0
 50 62  1  0  0  0  0
 51 64  1  0  0  0  0
 52 65  1  0  0  0  0
 53 65  1  0  0  0  0
 54 66  1  0  0  0  0
 55 66  1  0  0  0  0
 56 66  1  0  0  0  0
 57 78  1  0  0  0  0
 58 59  1  0  0  0  0
 59 61  1  0  0  0  0
 60 65  1  0  0  0  0
 60 77  1  0  0  0  0
 61 85  1  0  0  0  0
 63 66  1  0  0  0  0
 63 76  1  0  0  0  0
 64 78  1  0  0  0  0
 68 70  1  0  0  0  0
M  CHG  1  78   1
M  ISO  4  36 100  61 101  77 100  85 101
M  END
> <Batch ID>
0067

> <Smiles>
CNC(C)C(=O)NC(C(=O)N1Cc2cc([101O:1][101CH2:1]CCc3cnc(C(C)(C)C[100NH:0][100C:0](=O)N4CCCC(n5nc(-c6ccc(Oc7ccc(F)cc7F)cc6)c(C(N)=O)c5N)C4)nc3C(C)C)ccc2CC1C(=O)NC1CCCc2ccccc21)C(C)(C)C

> <Shape>
0.240

> <Color>
0.057

> <Negative vol penalty>
0.000

$$$$

  -OEChem-04052318123D

 82 90  0     1  0  0  0  0  0999 V2000
  -22.1778  -34.0246   21.8115 C   0  0  0  0  0  0  0  0  0  0  0  0
  -23.2351  -33.1211   21.7766 C   0  0  0  0  0  0  0  0  0  0  0  0
  -26.7328  -13.8913   22.0161 C   0  0  0  0  0  0  0  0  0  0  0  0
  -25.5726  -13.7154   19.9042 C   0  0  0  0  0  0  0  0  0  0  0  0
  -20.9597  -33.6488   22.3762 C   0  0  0  0  0  0  0  0  0  0  0  0
  -23.0753  -31.8416   22.3075 C   0  0  0  0  0  0  0  0  0  0  0  0
  -24.9613  -28.2373   19.2915 C   0  0  0  0  0  0  0  0  0  0  0  0
  -25.7752  -13.0697   22.6106 C   0  0  0  0  0  0  0  0  0  0  0  0
  -24.6149  -12.8938   20.4987 C   0  0  0  0  0  0  0  0  0  0  0  0
  -26.3441  -28.0599   19.2992 C   0  0  0  0  0  0  0  0  0  0  0  0
  -22.0633  -10.4568   21.3752 C   0  0  0  0  0  0  0  0  0  0  0  0
  -21.6741   -9.3088   20.6851 C   0  0  0  0  0  0  0  0  0  0  0  0
  -26.0875  -26.1709   20.7774 C   0  0  0  0  0  0  0  0  0  0  0  0
  -23.9521   -8.5055   20.7363 C   0  0  0  0  0  0  0  0  0  0  0  0
  -31.9935  -23.2390   19.5004 C   0  0  0  0  0  0  0  0  0  0  0  0
  -26.6315  -14.2142   20.6628 C   0  0  0  0  0  0  0  0  0  0  0  0
  -28.8163  -14.6615   19.4243 C   0  0  0  0  0  0  0  0  0  0  0  0
  -20.7817  -32.3609   22.9055 C   0  0  0  0  0  0  0  0  0  0  0  0
  -24.1306  -27.3881   20.0367 C   0  0  0  0  0  0  0  0  0  0  0  0
  -21.8540  -31.4488   22.8810 C   0  0  0  0  0  0  0  0  0  0  0  0
  -24.6942  -26.3381   20.7755 C   0  0  0  0  0  0  0  0  0  0  0  0
  -24.7162  -12.5709   21.8519 C   0  0  0  0  0  0  0  0  0  0  0  0
  -26.9076  -27.0284   20.0445 C   0  0  0  0  0  0  0  0  0  0  0  0
  -23.3970  -10.6291   21.7459 C   0  0  0  0  0  0  0  0  0  0  0  0
  -22.6184   -8.3332   20.3657 C   0  0  0  0  0  0  0  0  0  0  0  0
  -24.3413   -9.6535   21.4265 C   0  0  0  0  0  0  0  0  0  0  0  0
  -27.6201  -15.0634   20.0482 C   0  0  0  0  0  0  0  0  0  0  0  0
  -31.1130  -22.2153   19.2560 C   0  0  0  0  0  0  0  0  0  0  0  0
  -29.3967  -15.8343   19.0069 C   0  0  0  0  0  0  0  0  0  0  0  0
  -29.3548  -13.3457   19.2386 C   0  0  0  0  0  0  0  0  0  0  0  0
  -30.9183  -21.0051   20.0640 C   0  0  0  0  0  0  0  0  0  0  0  0
  -22.1016  -27.7873   22.4507 C   0  0  0  0  0  0  0  0  0  0  0  0
  -21.4538  -24.6546   21.9130 C   0  0  0  0  0  0  0  0  0  0  0  0
  -22.4984  -21.6514   20.6736 C   0  0  0  0  0  0  0  0  0  0  0  0
  -19.4616  -32.0162   23.5482 C   0  0  0  0  0  0  0  0  0  0  0  0
  -22.6388  -27.5763   19.9966 C   0  0  0  0  0  0  0  0  0  0  0  0
  -23.8447  -25.3866   21.5763 C   0  0  0  0  0  0  0  0  0  0  0  0
  -19.2561  -30.5173   23.7515 C   0  0  0  0  0  0  0  0  0  0  0  0
  -27.5520  -20.5358   18.7932 C   0  0  0  0  0  0  0  0  0  0  0  0
  -20.5050  -29.8845   24.3571 C   0  0  0  0  0  0  0  0  0  0  0  0
  -27.3655  -19.0291   18.9762 C   0  0  0  0  0  0  0  0  0  0  0  0
  -28.3776  -21.1356   19.9273 C   0  0  0  0  0  0  0  0  0  0  0  0
  -29.5241  -18.9779   20.3055 C   0  0  0  0  0  0  0  0  0  0  0  0
  -21.7117  -30.0435   23.4244 C   0  0  1  0  0  0  0  0  0  0  0  0
  -21.9274  -26.9698   21.2021 C   0  0  1  0  0  0  0  0  0  0  0  0
  -28.7183  -18.3201   19.1718 C   0  0  1  0  0  0  0  0  0  0  0  0
  -21.7652  -19.2657   20.4124 C   0  0  0  0  0  0  0  0  0  0  0  0
  -22.0230  -24.1585   24.8693 C   0  0  0  0  0  0  0  0  0  0  0  0
  -22.2115  -21.7163   24.3515 C   0  0  0  0  0  0  0  0  0  0  0  0
  -20.0557  -22.9093   23.9617 C   0  0  0  0  0  0  0  0  0  0  0  0
  -31.2522  -29.1355   20.3781 C   0  0  0  0  0  0  0  0  0  0  0  0
  -30.1920  -27.6756   22.1055 C   0  0  0  0  0  0  0  0  0  0  0  0
  -22.6483  -21.8069   17.7219 C   0  0  0  0  0  0  0  0  0  0  0  0
  -31.6366  -26.6417   18.6124 C   0  0  0  0  0  0  0  0  0  0  0  0
  -31.2074  -26.6050   20.0869 C   0  0  0  0  0  0  0  0  0  0  0  0
  -32.4653  -25.4152   18.2053 C   0  0  0  0  0  0  0  0  0  0  0  0
  -29.0643  -28.0177   19.8839 C   0  0  0  0  0  0  0  0  0  1  0  0
  -22.0104  -23.3457   22.4187 C   0  0  1  0  0  0  0  0  0  0  0  0
  -21.8147  -20.6425   19.7684 C   0  0  2  0  0  0  0  0  0  0  0  0
  -21.5916  -23.0514   23.8869 C   0  0  0  0  0  0  0  0  0  0  0  0
  -30.4274  -27.8534   20.5897 C   0  0  0  0  0  0  0  0  0  0  0  0
  -27.4494  -16.3880   20.0312 N   0  0  0  0  0  0  0  0  0  0  0  0
  -30.4089  -22.4777   18.1137 N   0  0  0  0  0  0  0  0  0  0  0  0
  -30.8277  -23.6440   17.6348 N   0  0  0  0  0  0  0  0  0  0  0  0
  -31.7778  -24.0988   18.4678 N   0  0  0  0  0  0  0  0  0  0  0  0
  -28.5460  -16.8286   19.3915 N   0  0  0  0  0  0  0  0  0  0  0  0
  -29.6503  -20.4188   20.0778 N   0  0  0  0  0  0  0  0  0  0  0  0
  -22.3918  -25.6156   21.5101 N   0  0  0  0  0  0  0  0  0  0  0  0
  -30.5465  -16.1017   18.3521 N   0  0  0  0  0  0  0  0  0  0  0  0
  -28.6292  -12.2515   19.7291 N   0  0  0  0  0  0  0  0  0  0  0  0
  -21.6429  -29.0862   22.3413 N   0  0  0  0  0  0  0  0  0  0  0  0
  -21.5912  -22.3270   21.4622 N   0  0  0  0  0  0  0  0  0  0  0  0
  -22.5446  -20.5299   18.4740 N   0  3  0  0  0  0  0  0  0  0  0  0
  -30.4549  -13.1474   18.6694 O   0  0  0  0  0  0  0  0  0  0  0  0
  -31.9071  -20.5906   20.6670 O   0  0  0  0  0  0  0  0  0  0  0  0
  -22.6128  -27.2770   23.4406 O   0  0  0  0  0  0  0  0  0  0  0  0
  -20.2316  -24.8157   21.8700 O   0  0  0  0  0  0  0  0  0  0  0  0
  -23.7157  -21.8203   20.6830 O   0  0  0  0  0  0  0  0  0  0  0  0
  -23.7817  -11.7690   22.4317 O   0  0  0  0  0  0  0  0  0  0  0  0
  -28.2571  -26.8533   20.0543 O   0  0  0  0  0  0  0  0  0  1  0  0
  -22.2442   -7.2302   19.7043 F   0  0  0  0  0  0  0  0  0  0  0  0
  -25.6238   -9.8130   21.7810 F   0  0  0  0  0  0  0  0  0  0  0  0
  1  2  1  0  0  0  0
  1  5  2  0  0  0  0
  2  6  2  0  0  0  0
  3  8  2  0  0  0  0
  3 16  1  0  0  0  0
  4  9  1  0  0  0  0
  4 16  2  0  0  0  0
  5 18  1  0  0  0  0
  6 20  1  0  0  0  0
  7 10  2  0  0  0  0
  7 19  1  0  0  0  0
  8 22  1  0  0  0  0
  9 22  2  0  0  0  0
 10 23  1  0  0  0  0
 11 12  2  0  0  0  0
 11 24  1  0  0  0  0
 12 25  1  0  0  0  0
 13 21  1  0  0  0  0
 13 23  2  0  0  0  0
 14 25  2  0  0  0  0
 14 26  1  0  0  0  0
 15 28  2  0  0  0  0
 15 65  1  0  0  0  0
 16 27  1  0  0  0  0
 17 27  1  0  0  0  0
 17 29  2  0  0  0  0
 17 30  1  0  0  0  0
 18 20  2  0  0  0  0
 18 35  1  0  0  0  0
 19 21  2  0  0  0  0
 19 36  1  0  0  0  0
 20 44  1  0  0  0  0
 21 37  1  0  0  0  0
 22 79  1  0  0  0  0
 23 80  1  0  0  0  0
 24 26  2  0  0  0  0
 24 79  1  0  0  0  0
 25 81  1  0  0  0  0
 26 82  1  0  0  0  0
 27 62  2  0  0  0  0
 28 31  1  0  0  0  0
 28 63  1  0  0  0  0
 29 66  1  0  0  0  0
 29 69  1  0  0  0  0
 30 70  1  0  0  0  0
 30 74  2  0  0  0  0
 31 67  1  0  0  0  0
 31 75  2  0  0  0  0
 32 45  1  0  0  0  0
 32 71  1  0  0  0  0
 32 76  2  0  0  0  0
 33 58  1  0  0  0  0
 33 68  1  0  0  0  0
 33 77  2  0  0  0  0
 34 59  1  0  0  0  0
 34 72  1  0  0  0  0
 34 78  2  0  0  0  0
 35 38  1  0  0  0  0
 36 45  1  0  0  0  0
 37 68  1  0  0  0  0
 38 40  1  0  0  0  0
 39 41  1  0  0  0  0
 39 42  1  0  0  0  0
 40 44  1  0  0  0  0
 41 46  1  0  0  0  0
 42 67  1  0  0  0  0
 43 46  1  0  0  0  0
 43 67  1  0  0  0  0
 44 71  1  0  0  0  0
 45 68  1  0  0  0  0
 46 66  1  0  0  0  0
 47 59  1  0  0  0  0
 48 60  1  0  0  0  0
 49 60  1  0  0  0  0
 50 60  1  0  0  0  0
 51 61  1  0  0  0  0
 52 61  1  0  0  0  0
 53 73  1  0  0  0  0
 54 55  1  0  0  0  0
 54 56  1  0  0  0  0
 55 61  1  0  0  0  0
 56 65  1  0  0  0  0
 57 61  1  0  0  0  0
 57 80  1  0  0  0  0
 58 60  1  0  0  0  0
 58 72  1  0  0  0  0
 59 73  1  0  0  0  0
 62 66  1  0  0  0  0
 63 64  2  0  0  0  0
 64 65  1  0  0  0  0
M  CHG  1  73   1
M  ISO  4  28 100  31 100  57 101  80 101
M  END
> <Batch ID>
0067

> <Smiles>
CNC(C)C(=O)NC(C(=O)N1Cc2cc([101O:1][101CH2:1]C(C)(C)CCCn3c[100c:0]([100C:0](=O)N4CCCC(n5nc(-c6ccc(Oc7ccc(F)cc7F)cc6)c(C(N)=O)c5N)C4)nn3)ccc2CC1C(=O)NC1CCCc2ccccc21)C(C)(C)C

> <Shape>
0.250

> <Color>
0.065

> <Negative vol penalty>
0.000

$$$$

  -OEChem-04052318123D

100108  0     1  0  0  0  0  0999 V2000
  -19.1038  -24.3014   22.0563 C   0  0  0  0  0  0  0  0  0  0  0  0
  -20.3378  -24.5832   21.4790 C   0  0  0  0  0  0  0  0  0  0  0  0
  -23.4243  -11.0046   23.6953 C   0  0  0  0  0  0  0  0  0  0  0  0
  -21.4205  -11.9474   22.7295 C   0  0  0  0  0  0  0  0  0  0  0  0
  -18.2796  -25.3430   22.4803 C   0  0  0  0  0  0  0  0  0  0  0  0
  -20.7478  -25.9070   21.3242 C   0  0  0  0  0  0  0  0  0  0  0  0
  -25.5688  -26.6209   22.7003 C   0  0  0  0  0  0  0  0  0  0  0  0
  -22.6818   -9.9318   24.1887 C   0  0  0  0  0  0  0  0  0  0  0  0
  -20.6779  -10.8746   23.2228 C   0  0  0  0  0  0  0  0  0  0  0  0
  -26.5542  -26.2181   21.8001 C   0  0  0  0  0  0  0  0  0  0  0  0
  -21.3641   -7.0560   22.9945 C   0  0  0  0  0  0  0  0  0  0  0  0
  -21.8904   -5.7744   22.8325 C   0  0  0  0  0  0  0  0  0  0  0  0
  -26.8116  -28.5024   21.0689 C   0  0  0  0  0  0  0  0  0  0  0  0
  -21.9023   -5.4762   25.2300 C   0  0  0  0  0  0  0  0  0  0  0  0
  -27.0160  -21.1153   23.7924 C   0  0  0  0  0  0  0  0  0  0  0  0
  -22.7936  -12.0125   22.9658 C   0  0  0  0  0  0  0  0  0  0  0  0
  -24.2027  -13.2077   21.2069 C   0  0  0  0  0  0  0  0  0  0  0  0
  -18.6840  -26.6799   22.3395 C   0  0  0  0  0  0  0  0  0  0  0  0
  -25.1890  -27.9683   22.7840 C   0  0  0  0  0  0  0  0  0  0  0  0
  -19.9277  -26.9675   21.7455 C   0  0  0  0  0  0  0  0  0  0  0  0
  -25.8229  -28.9202   21.9728 C   0  0  0  0  0  0  0  0  0  0  0  0
  -21.3087   -9.8668   23.9524 C   0  0  0  0  0  0  0  0  0  0  0  0
  -27.1738  -27.1584   20.9822 C   0  0  0  0  0  0  0  0  0  0  0  0
  -21.1071   -7.5477   24.2743 C   0  0  0  0  0  0  0  0  0  0  0  0
  -22.1595   -4.9845   23.9502 C   0  0  0  0  0  0  0  0  0  0  0  0
  -21.3761   -6.7579   25.3920 C   0  0  0  0  0  0  0  0  0  0  0  0
  -23.5600  -13.1212   22.4564 C   0  0  0  0  0  0  0  0  0  0  0  0
  -25.6665  -21.2090   24.0228 C   0  0  0  0  0  0  0  0  0  0  0  0
  -24.7867  -14.4508   21.2065 C   0  0  0  0  0  0  0  0  0  0  0  0
  -24.2660  -12.2500   20.1418 C   0  0  0  0  0  0  0  0  0  0  0  0
  -22.4908  -29.5733   22.2868 C   0  0  0  0  0  0  0  0  0  0  0  0
  -24.2168  -32.0643   23.4436 C   0  0  0  0  0  0  0  0  0  0  0  0
  -23.3810  -19.4135   24.1511 C   0  0  0  0  0  0  0  0  0  0  0  0
  -27.2836  -33.4579   23.9911 C   0  0  0  0  0  0  0  0  0  0  0  0
  -17.7385  -27.7734   22.7695 C   0  0  0  0  0  0  0  0  0  0  0  0
  -24.1432  -28.3907   23.7791 C   0  0  0  0  0  0  0  0  0  0  0  0
  -25.4658  -30.3819   22.0383 C   0  0  0  0  0  0  0  0  0  0  0  0
  -18.4090  -29.1374   22.9116 C   0  0  0  0  0  0  0  0  0  0  0  0
  -26.6104  -17.7408   24.1516 C   0  0  0  0  0  0  0  0  0  0  0  0
  -19.2940  -29.4256   21.7031 C   0  0  0  0  0  0  0  0  0  0  0  0
  -26.2374  -16.3559   23.6245 C   0  0  0  0  0  0  0  0  0  0  0  0
  -25.5046  -18.3249   25.0269 C   0  0  0  0  0  0  0  0  0  0  0  0
  -23.7956  -16.9958   23.8279 C   0  0  0  0  0  0  0  0  0  0  0  0
  -20.4184  -28.3898   21.5831 C   0  0  1  0  0  0  0  0  0  0  0  0
  -23.4721  -29.7118   23.4162 C   0  0  1  0  0  0  0  0  0  0  0  0
  -24.8721  -16.3846   22.9154 C   0  0  2  0  0  0  0  0  0  0  0  0
  -28.3734  -35.5186   24.9202 C   0  0  0  0  0  0  0  0  0  0  0  0
  -23.4530  -33.6025   20.9217 C   0  0  0  0  0  0  0  0  0  0  0  0
  -25.2888  -35.2244   21.4388 C   0  0  0  0  0  0  0  0  0  0  0  0
  -23.3845  -34.9508   23.0268 C   0  0  0  0  0  0  0  0  0  0  0  0
  -23.8989  -18.6293   27.0143 C   0  0  0  0  0  0  0  0  0  0  0  0
  -22.9765  -20.8019   27.7903 C   0  0  0  0  0  0  0  0  0  0  0  0
  -21.5331  -19.2295   26.5231 C   0  0  0  0  0  0  0  0  0  0  0  0
  -33.9352  -23.4885   20.6357 C   0  0  0  0  0  0  0  0  0  0  0  0
  -33.7906  -25.3934   22.2054 C   0  0  0  0  0  0  0  0  0  0  0  0
  -30.5490  -22.9977   19.9790 C   0  0  0  0  0  0  0  0  0  0  0  0
  -31.3715  -21.1737   21.4092 C   0  0  0  0  0  0  0  0  0  0  0  0
  -32.5504  -22.8606   23.3505 C   0  0  0  0  0  0  0  0  0  0  0  0
  -30.9429  -24.7100   22.9986 C   0  0  0  0  0  0  0  0  0  0  0  0
  -28.7086  -31.9074   26.0706 C   0  0  0  0  0  0  0  0  0  0  0  0
  -24.9263  -21.0105   25.2756 C   0  0  0  0  0  0  0  0  0  0  0  0
  -30.9507  -26.0649   20.5714 C   0  0  0  0  0  0  0  0  0  0  0  0
  -30.4369  -26.9688   19.4451 C   0  0  0  0  0  0  0  0  0  0  0  0
  -32.2650  -25.3489   20.2093 C   0  0  0  0  0  0  0  0  0  0  0  0
  -29.3973  -22.4722   22.2139 C   0  0  0  0  0  0  0  0  0  0  0  0
  -28.3987  -21.4502   21.6424 C   0  0  0  0  0  0  0  0  0  0  0  0
  -29.1551  -27.7151   19.7903 C   0  0  0  0  0  0  0  0  0  1  0  0
  -25.1140  -33.1163   22.8376 C   0  0  1  0  0  0  0  0  0  0  0  0
  -27.8890  -34.1088   25.2216 C   0  0  2  0  0  0  0  0  0  0  0  0
  -23.4284  -20.4729   25.2232 C   0  0  2  0  0  0  0  0  0  0  0  0
  -24.3156  -34.1957   22.0534 C   0  0  0  0  0  0  0  0  0  0  0  0
  -22.9727  -19.7989   26.6070 C   0  0  0  0  0  0  0  0  0  0  0  0
  -32.9223  -24.4522   21.3102 C   0  0  0  0  0  0  0  0  0  0  0  0
  -30.7701  -22.6181   21.4585 C   0  0  0  0  0  0  0  0  0  0  0  0
  -31.7996  -23.6533   22.2295 C   0  0  0  0  0  0  0  0  0  0  0  0
  -22.4851  -21.6091   24.7679 C   0  0  0  0  0  0  0  0  0  0  0  0
  -23.7206  -14.2217   23.1961 N   0  0  0  0  0  0  0  0  0  0  0  0
  -25.0241  -21.5393   22.8619 N   0  0  0  0  0  0  0  0  0  0  0  0
  -25.9404  -21.6544   21.9068 N   0  0  0  0  0  0  0  0  0  0  0  0
  -27.1340  -21.3996   22.4668 N   0  0  0  0  0  0  0  0  0  0  0  0
  -24.4710  -15.0114   22.4090 N   0  0  0  0  0  0  0  0  0  0  0  0
  -24.4329  -30.7444   23.0228 N   0  0  0  0  0  0  0  0  0  0  0  0
  -24.2152  -18.3090   24.3256 N   0  0  0  0  0  0  0  0  0  0  0  0
  -25.5345  -15.1081   20.2948 N   0  0  0  0  0  0  0  0  0  0  0  0
  -23.6098  -11.0226   20.3070 N   0  0  0  0  0  0  0  0  0  0  0  0
  -21.4712  -28.6742   22.5345 N   0  0  0  0  0  0  0  0  0  0  0  0
  -25.9189  -33.6465   23.9327 N   0  0  0  0  0  0  0  0  0  0  0  0
  -29.0464  -33.3094   25.7140 N   0  3  0  0  0  0  0  0  0  0  0  0
  -24.8998  -12.4694   19.0818 O   0  0  0  0  0  0  0  0  0  0  0  0
  -22.6463  -30.2344   21.2668 O   0  0  0  0  0  0  0  0  0  0  0  0
  -23.3607  -32.4002   24.2657 O   0  0  0  0  0  0  0  0  0  0  0  0
  -22.6264  -19.5661   23.1870 O   0  0  0  0  0  0  0  0  0  0  0  0
  -27.9546  -32.8467   23.1625 O   0  0  0  0  0  0  0  0  0  0  0  0
  -20.5839   -8.8200   24.4334 O   0  0  0  0  0  0  0  0  0  0  0  0
  -28.1422  -26.7650   20.0960 O   0  0  0  0  0  0  0  0  0  1  0  0
  -22.6634   -3.7533   23.7944 F   0  0  0  0  0  0  0  0  0  0  0  0
  -21.1301   -7.2244   26.6239 F   0  0  0  0  0  0  0  0  0  0  0  0
  -21.2121  -21.1743   24.6111 F   0  0  0  0  0  0  0  0  0  0  0  0
  -22.4301  -22.6234   25.6569 F   0  0  0  0  0  0  0  0  0  0  0  0
  -22.8702  -22.1314   23.5820 F   0  0  0  0  0  0  0  0  0  0  0  0
  1  2  1  0  0  0  0
  1  5  2  0  0  0  0
  2  6  2  0  0  0  0
  3  8  2  0  0  0  0
  3 16  1  0  0  0  0
  4  9  1  0  0  0  0
  4 16  2  0  0  0  0
  5 18  1  0  0  0  0
  6 20  1  0  0  0  0
  7 10  2  0  0  0  0
  7 19  1  0  0  0  0
  8 22  1  0  0  0  0
  9 22  2  0  0  0  0
 10 23  1  0  0  0  0
 11 12  2  0  0  0  0
 11 24  1  0  0  0  0
 12 25  1  0  0  0  0
 13 21  1  0  0  0  0
 13 23  2  0  0  0  0
 14 25  2  0  0  0  0
 14 26  1  0  0  0  0
 15 28  2  0  0  0  0
 15 80  1  0  0  0  0
 16 27  1  0  0  0  0
 17 27  1  0  0  0  0
 17 29  2  0  0  0  0
 17 30  1  0  0  0  0
 18 20  2  0  0  0  0
 18 35  1  0  0  0  0
 19 21  2  0  0  0  0
 19 36  1  0  0  0  0
 20 44  1  0  0  0  0
 21 37  1  0  0  0  0
 22 94  1  0  0  0  0
 23 95  1  0  0  0  0
 24 26  2  0  0  0  0
 24 94  1  0  0  0  0
 25 96  1  0  0  0  0
 26 97  1  0  0  0  0
 27 77  2  0  0  0  0
 28 61  1  0  0  0  0
 28 78  1  0  0  0  0
 29 81  1  0  0  0  0
 29 84  1  0  0  0  0
 30 85  1  0  0  0  0
 30 89  2  0  0  0  0
 31 45  1  0  0  0  0
 31 86  1  0  0  0  0
 31 90  2  0  0  0  0
 32 68  1  0  0  0  0
 32 82  1  0  0  0  0
 32 91  2  0  0  0  0
 33 70  1  0  0  0  0
 33 83  1  0  0  0  0
 33 92  2  0  0  0  0
 34 69  1  0  0  0  0
 34 87  1  0  0  0  0
 34 93  2  0  0  0  0
 35 38  1  0  0  0  0
 36 45  1  0  0  0  0
 37 82  1  0  0  0  0
 38 40  1  0  0  0  0
 39 41  1  0  0  0  0
 39 42  1  0  0  0  0
 40 44  1  0  0  0  0
 41 46  1  0  0  0  0
 42 83  1  0  0  0  0
 43 46  1  0  0  0  0
 43 83  1  0  0  0  0
 44 86  1  0  0  0  0
 45 82  1  0  0  0  0
 46 81  1  0  0  0  0
 47 69  1  0  0  0  0
 48 71  1  0  0  0  0
 49 71  1  0  0  0  0
 50 71  1  0  0  0  0
 51 72  1  0  0  0  0
 52 72  1  0  0  0  0
 53 72  1  0  0  0  0
 54 73  1  0  0  0  0
 55 73  1  0  0  0  0
 56 74  1  0  0  0  0
 57 74  1  0  0  0  0
 58 75  1  0  0  0  0
 59 75  1  0  0  0  0
 60 88  1  0  0  0  0
 61 70  1  0  0  0  0
 62 63  1  0  0  0  0
 62 64  1  0  0  0  0
 63 67  1  0  0  0  0
 64 73  1  0  0  0  0
 65 66  1  0  0  0  0
 65 74  1  0  0  0  0
 66 80  1  0  0  0  0
 67 95  1  0  0  0  0
 68 71  1  0  0  0  0
 68 87  1  0  0  0  0
 69 88  1  0  0  0  0
 70 72  1  0  0  0  0
 70 76  1  0  0  0  0
 73 75  1  0  0  0  0
 74 75  1  0  0  0  0
 76 98  1  0  0  0  0
 76 99  1  0  0  0  0
 76100  1  0  0  0  0
 77 81  1  0  0  0  0
 78 79  2  0  0  0  0
 79 80  1  0  0  0  0
M  CHG  1  88   1
M  ISO  4  33 100  67 101  70 100  95 101
M  END
> <Batch ID>
0067

> <Smiles>
CNC(C)C(=O)NC(C(=O)N1Cc2cc([101O:1][101CH2:1]CCCC(C)(C)C(C)(C)C(C)(C)CCn3cc(C[100C:0]([100C:0](=O)N4CCCC(n5nc(-c6ccc(Oc7ccc(F)cc7F)cc6)c(C(N)=O)c5N)C4)(C(C)(C)C)C(F)(F)F)nn3)ccc2CC1C(=O)NC1CCCc2ccccc21)C(C)(C)C

> <Shape>
0.247

> <Color>
0.112

> <Negative vol penalty>
0.000

$$$$

  -OEChem-04052318123D

 86 94  0     1  0  0  0  0  0999 V2000
  -31.0042  -25.4139   18.2408 C   0  0  0  0  0  0  0  0  0  0  0  0
  -29.6159  -25.3321   18.2757 C   0  0  0  0  0  0  0  0  0  0  0  0
  -24.9104  -15.8924   21.6845 C   0  0  0  0  0  0  0  0  0  0  0  0
  -27.1276  -15.7547   22.6342 C   0  0  0  0  0  0  0  0  0  0  0  0
  -31.6915  -26.0311   19.2851 C   0  0  0  0  0  0  0  0  0  0  0  0
  -28.9140  -25.8666   19.3555 C   0  0  0  0  0  0  0  0  0  0  0  0
  -23.4090  -28.5459   19.2052 C   0  0  0  0  0  0  0  0  0  0  0  0
  -25.0941  -14.6511   21.0755 C   0  0  0  0  0  0  0  0  0  0  0  0
  -27.3114  -14.5134   22.0252 C   0  0  0  0  0  0  0  0  0  0  0  0
  -22.1287  -28.0752   19.4931 C   0  0  0  0  0  0  0  0  0  0  0  0
  -28.5017  -11.4736   20.4275 C   0  0  0  0  0  0  0  0  0  0  0  0
  -29.7166  -11.2413   19.7828 C   0  0  0  0  0  0  0  0  0  0  0  0
  -22.3052  -28.9771   21.7235 C   0  0  0  0  0  0  0  0  0  0  0  0
  -29.2873  -13.1025   18.3033 C   0  0  0  0  0  0  0  0  0  0  0  0
  -20.9227  -23.5932   22.7907 C   0  0  0  0  0  0  0  0  0  0  0  0
  -25.9271  -16.4443   22.4639 C   0  0  0  0  0  0  0  0  0  0  0  0
  -25.2059  -17.9761   24.3720 C   0  0  0  0  0  0  0  0  0  0  0  0
  -30.9971  -26.5820   20.3737 C   0  0  0  0  0  0  0  0  0  0  0  0
  -24.1527  -29.2273   20.1795 C   0  0  0  0  0  0  0  0  0  0  0  0
  -29.5927  -26.4906   20.4161 C   0  0  0  0  0  0  0  0  0  0  0  0
  -23.5938  -29.4576   21.4447 C   0  0  0  0  0  0  0  0  0  0  0  0
  -26.2946  -13.9616   21.2458 C   0  0  0  0  0  0  0  0  0  0  0  0
  -21.5776  -28.2883   20.7533 C   0  0  0  0  0  0  0  0  0  0  0  0
  -27.6796  -12.5203   20.0102 C   0  0  0  0  0  0  0  0  0  0  0  0
  -30.1094  -12.0557   18.7207 C   0  0  0  0  0  0  0  0  0  0  0  0
  -28.0724  -13.3347   18.9481 C   0  0  0  0  0  0  0  0  0  0  0  0
  -25.7381  -17.7268   23.0928 C   0  0  0  0  0  0  0  0  0  0  0  0
  -25.2383  -19.3435   24.4968 C   0  0  0  0  0  0  0  0  0  0  0  0
  -22.9104  -24.2226   22.6915 C   0  0  0  0  0  0  0  0  0  0  0  0
  -24.7253  -17.0541   25.3592 C   0  0  0  0  0  0  0  0  0  0  0  0
  -24.3321  -24.4120   22.3757 C   0  0  0  0  0  0  0  0  0  0  0  0
  -26.9119  -28.7038   21.6682 C   0  0  0  0  0  0  0  0  0  0  0  0
  -26.3679  -31.6603   22.8870 C   0  0  0  0  0  0  0  0  0  0  0  0
  -24.1143  -34.0967   23.6820 C   0  0  0  0  0  0  0  0  0  0  0  0
  -31.7864  -27.1975   21.5019 C   0  0  0  0  0  0  0  0  0  0  0  0
  -25.5219  -29.7520   19.8446 C   0  0  0  0  0  0  0  0  0  0  0  0
  -24.3428  -30.2012   22.5191 C   0  0  0  0  0  0  0  0  0  0  0  0
  -30.9445  -28.0705   22.4289 C   0  0  0  0  0  0  0  0  0  0  0  0
  -27.4677  -22.8724   21.6413 C   0  0  0  0  0  0  0  0  0  0  0  0
  -29.6482  -27.3582   22.8014 C   0  0  0  0  0  0  0  0  0  0  0  0
  -27.2503  -21.4114   22.0394 C   0  0  0  0  0  0  0  0  0  0  0  0
  -26.2030  -23.4894   21.0495 C   0  0  0  0  0  0  0  0  0  0  0  0
  -24.7831  -21.9042   22.3048 C   0  0  0  0  0  0  0  0  0  0  0  0
  -28.7943  -27.0805   21.5583 C   0  0  1  0  0  0  0  0  0  0  0  0
  -26.3910  -29.9832   21.0770 C   0  0  1  0  0  0  0  0  0  0  0  0
  -26.0194  -21.2595   22.9527 C   0  0  1  0  0  0  0  0  0  0  0  0
  -20.5382  -23.5154   26.5898 C   0  0  0  0  0  0  0  0  0  0  0  0
  -23.9647  -36.3855   24.7001 C   0  0  0  0  0  0  0  0  0  0  0  0
  -26.7366  -30.4473   25.6623 C   0  0  0  0  0  0  0  0  0  0  0  0
  -25.6614  -32.4939   26.6234 C   0  0  0  0  0  0  0  0  0  0  0  0
  -27.8000  -32.6897   25.3543 C   0  0  0  0  0  0  0  0  0  0  0  0
  -17.5296  -24.6918   23.5850 C   0  0  0  0  0  0  0  0  0  0  0  0
  -17.9123  -26.9112   24.6316 C   0  0  0  0  0  0  0  0  0  0  0  0
  -20.5409  -26.3395   25.5044 C   0  0  0  0  0  0  0  0  0  0  0  0
  -23.0061  -35.2571   21.1953 C   0  0  0  0  0  0  0  0  0  0  0  0
  -19.4343  -24.1146   25.7146 C   0  0  0  0  0  0  0  0  0  0  0  0
  -20.0649  -27.4706   22.3961 C   0  0  0  0  0  0  0  0  0  1  0  0
  -25.6575  -32.2007   24.1044 C   0  0  1  0  0  0  0  0  0  0  0  0
  -24.1084  -35.5904   23.4117 C   0  0  2  0  0  0  0  0  0  0  0  0
  -26.4503  -31.9422   25.4167 C   0  0  0  0  0  0  0  0  0  0  0  0
  -18.6075  -25.7840   23.8175 C   0  0  0  0  0  0  0  0  0  0  0  0
  -19.8961  -25.1957   24.6542 C   0  0  1  0  0  0  0  0  0  0  0  0
  -19.0077  -26.3700   22.4116 C   0  0  0  0  0  0  0  0  0  0  0  0
  -22.1010  -23.3440   22.1471 N   0  0  0  0  0  0  0  0  0  0  0  0
  -26.0832  -18.8461   22.4508 N   0  0  0  0  0  0  0  0  0  0  0  0
  -22.2346  -24.9565   23.6159 N   0  0  0  0  0  0  0  0  0  0  0  0
  -20.9521  -24.5707   23.6991 N   0  0  0  0  0  0  0  0  0  0  0  0
  -25.7670  -19.8119   23.3301 N   0  0  0  0  0  0  0  0  0  0  0  0
  -25.0658  -23.3021   21.9498 N   0  0  0  0  0  0  0  0  0  0  0  0
  -25.6806  -30.6891   22.1452 N   0  0  0  0  0  0  0  0  0  0  0  0
  -24.8657  -20.1789   25.4896 N   0  0  0  0  0  0  0  0  0  0  0  0
  -24.7640  -15.6836   25.0684 N   0  0  0  0  0  0  0  0  0  0  0  0
  -28.1149  -28.2852   21.1324 N   0  0  0  0  0  0  0  0  0  0  0  0
  -25.3956  -33.6099   23.8323 N   0  0  0  0  0  0  0  0  0  0  0  0
  -22.9777  -35.9491   22.5096 N   0  3  0  0  0  0  0  0  0  0  0  0
  -24.2597  -17.4352   26.4599 O   0  0  0  0  0  0  0  0  0  0  0  0
  -24.7751  -25.5498   22.5251 O   0  0  0  0  0  0  0  0  0  0  0  0
  -26.2706  -28.1390   22.5466 O   0  0  0  0  0  0  0  0  0  0  0  0
  -27.4884  -32.0895   22.6005 O   0  0  0  0  0  0  0  0  0  0  0  0
  -23.0850  -33.4291   23.7565 O   0  0  0  0  0  0  0  0  0  0  0  0
  -26.4741  -12.7501   20.6519 O   0  0  0  0  0  0  0  0  0  0  0  0
  -20.3216  -27.8269   21.0387 O   0  0  0  0  0  0  0  0  0  1  0  0
  -31.2767  -11.8334   18.1026 F   0  0  0  0  0  0  0  0  0  0  0  0
  -27.2873  -14.3426   18.5434 F   0  0  0  0  0  0  0  0  0  0  0  0
  -17.9015  -26.8753   21.7974 F   0  0  0  0  0  0  0  0  0  0  0  0
  -19.4653  -25.3701   21.6107 F   0  0  0  0  0  0  0  0  0  0  0  0
  1  2  1  0  0  0  0
  1  5  2  0  0  0  0
  2  6  2  0  0  0  0
  3  8  2  0  0  0  0
  3 16  1  0  0  0  0
  4  9  1  0  0  0  0
  4 16  2  0  0  0  0
  5 18  1  0  0  0  0
  6 20  1  0  0  0  0
  7 10  2  0  0  0  0
  7 19  1  0  0  0  0
  8 22  1  0  0  0  0
  9 22  2  0  0  0  0
 10 23  1  0  0  0  0
 11 12  2  0  0  0  0
 11 24  1  0  0  0  0
 12 25  1  0  0  0  0
 13 21  1  0  0  0  0
 13 23  2  0  0  0  0
 14 25  2  0  0  0  0
 14 26  1  0  0  0  0
 15 64  2  0  0  0  0
 15 67  1  0  0  0  0
 16 27  1  0  0  0  0
 17 27  1  0  0  0  0
 17 28  2  0  0  0  0
 17 30  1  0  0  0  0
 18 20  2  0  0  0  0
 18 35  1  0  0  0  0
 19 21  2  0  0  0  0
 19 36  1  0  0  0  0
 20 44  1  0  0  0  0
 21 37  1  0  0  0  0
 22 81  1  0  0  0  0
 23 82  1  0  0  0  0
 24 26  2  0  0  0  0
 24 81  1  0  0  0  0
 25 83  1  0  0  0  0
 26 84  1  0  0  0  0
 27 65  2  0  0  0  0
 28 68  1  0  0  0  0
 28 71  1  0  0  0  0
 29 31  1  0  0  0  0
 29 64  1  0  0  0  0
 29 66  2  0  0  0  0
 30 72  1  0  0  0  0
 30 76  2  0  0  0  0
 31 69  1  0  0  0  0
 31 77  2  0  0  0  0
 32 45  1  0  0  0  0
 32 73  1  0  0  0  0
 32 78  2  0  0  0  0
 33 58  1  0  0  0  0
 33 70  1  0  0  0  0
 33 79  2  0  0  0  0
 34 59  1  0  0  0  0
 34 74  1  0  0  0  0
 34 80  2  0  0  0  0
 35 38  1  0  0  0  0
 36 45  1  0  0  0  0
 37 70  1  0  0  0  0
 38 40  1  0  0  0  0
 39 41  1  0  0  0  0
 39 42  1  0  0  0  0
 40 44  1  0  0  0  0
 41 46  1  0  0  0  0
 42 69  1  0  0  0  0
 43 46  1  0  0  0  0
 43 69  1  0  0  0  0
 44 73  1  0  0  0  0
 45 70  1  0  0  0  0
 46 68  1  0  0  0  0
 47 56  1  0  0  0  0
 48 59  1  0  0  0  0
 49 60  1  0  0  0  0
 50 60  1  0  0  0  0
 51 60  1  0  0  0  0
 52 61  1  0  0  0  0
 53 61  1  0  0  0  0
 54 62  1  0  0  0  0
 55 75  1  0  0  0  0
 56 62  1  0  0  0  0
 57 63  1  0  0  0  0
 57 82  1  0  0  0  0
 58 60  1  0  0  0  0
 58 74  1  0  0  0  0
 59 75  1  0  0  0  0
 61 62  1  0  0  0  0
 61 63  1  0  0  0  0
 62 67  1  0  0  0  0
 63 85  1  0  0  0  0
 63 86  1  0  0  0  0
 65 68  1  0  0  0  0
 66 67  1  0  0  0  0
M  CHG  1  75   1
M  ISO  4  29 100  31 100  57 101  82 101
M  END
> <Batch ID>
0067

> <Smiles>
CCC(C)(n1cn[100c:0]([100C:0](=O)N2CCCC(n3nc(-c4ccc(Oc5ccc(F)cc5F)cc4)c(C(N)=O)c3N)C2)n1)C(C)(C)C(F)(F)[101CH2:1][101O:1]c1ccc2c(c1)CN(C(=O)C(NC(=O)C(C)NC)C(C)(C)C)C(C(=O)NC1CCCc3ccccc31)C2

> <Shape>
0.280

> <Color>
0.065

> <Negative vol penalty>
0.000

$$$$

  -OEChem-04052318123D

 96104  0     1  0  0  0  0  0999 V2000
  -23.9277  -25.6769   27.1177 C   0  0  0  0  0  0  0  0  0  0  0  0
  -24.4087  -25.0562   25.9693 C   0  0  0  0  0  0  0  0  0  0  0  0
  -23.3188   -9.8478   19.9029 C   0  0  0  0  0  0  0  0  0  0  0  0
  -23.5397  -10.1029   22.2952 C   0  0  0  0  0  0  0  0  0  0  0  0
  -23.0796  -26.7783   27.0102 C   0  0  0  0  0  0  0  0  0  0  0  0
  -24.0409  -25.5359   24.7127 C   0  0  0  0  0  0  0  0  0  0  0  0
  -27.9646  -25.8437   21.5260 C   0  0  0  0  0  0  0  0  0  0  0  0
  -22.5691   -8.6875   20.0958 C   0  0  0  0  0  0  0  0  0  0  0  0
  -22.7900   -8.9426   22.4881 C   0  0  0  0  0  0  0  0  0  0  0  0
  -28.4014  -24.6577   20.9375 C   0  0  0  0  0  0  0  0  0  0  0  0
  -23.2893   -5.6017   22.3466 C   0  0  0  0  0  0  0  0  0  0  0  0
  -23.7540   -4.6781   23.2830 C   0  0  0  0  0  0  0  0  0  0  0  0
  -27.1976  -25.2205   18.9242 C   0  0  0  0  0  0  0  0  0  0  0  0
  -21.7066   -4.9243   24.5418 C   0  0  0  0  0  0  0  0  0  0  0  0
  -31.6213  -18.5041   18.6386 C   0  0  0  0  0  0  0  0  0  0  0  0
  -30.4174  -16.1303   18.8459 C   0  0  0  0  0  0  0  0  0  0  0  0
  -23.8041  -10.5555   21.0026 C   0  0  0  0  0  0  0  0  0  0  0  0
  -24.0958  -13.0727   20.7081 C   0  0  0  0  0  0  0  0  0  0  0  0
  -22.7090  -27.2777   25.7517 C   0  0  0  0  0  0  0  0  0  0  0  0
  -27.1307  -26.7233   20.8207 C   0  0  0  0  0  0  0  0  0  0  0  0
  -23.1860  -26.6442   24.5883 C   0  0  0  0  0  0  0  0  0  0  0  0
  -26.7537  -26.4182   19.5051 C   0  0  0  0  0  0  0  0  0  0  0  0
  -22.3047   -8.2349   21.3884 C   0  0  0  0  0  0  0  0  0  0  0  0
  -28.0156  -24.3446   19.6374 C   0  0  0  0  0  0  0  0  0  0  0  0
  -22.0333   -6.1866   22.5079 C   0  0  0  0  0  0  0  0  0  0  0  0
  -22.9626   -4.3394   24.3806 C   0  0  0  0  0  0  0  0  0  0  0  0
  -21.2419   -5.8479   23.6055 C   0  0  0  0  0  0  0  0  0  0  0  0
  -24.5790  -11.7539   20.8039 C   0  0  0  0  0  0  0  0  0  0  0  0
  -30.4202  -18.2589   18.0102 C   0  0  0  0  0  0  0  0  0  0  0  0
  -31.6188  -16.3751   19.4737 C   0  0  0  0  0  0  0  0  0  0  0  0
  -25.2211  -13.8382   20.5234 C   0  0  0  0  0  0  0  0  0  0  0  0
  -22.7500  -13.5619   20.7798 C   0  0  0  0  0  0  0  0  0  0  0  0
  -24.1844  -27.8409   21.2381 C   0  0  0  0  0  0  0  0  0  0  0  0
  -24.9381  -29.6806   18.6749 C   0  0  0  0  0  0  0  0  0  0  0  0
  -30.3659  -15.1191   21.9958 C   0  0  0  0  0  0  0  0  0  0  0  0
  -26.8474  -30.1119   15.8793 C   0  0  0  0  0  0  0  0  0  0  0  0
  -21.7521  -28.4416   25.6856 C   0  0  0  0  0  0  0  0  0  0  0  0
  -26.6899  -28.0114   21.4602 C   0  0  0  0  0  0  0  0  0  0  0  0
  -25.8762  -27.3386   18.6980 C   0  0  0  0  0  0  0  0  0  0  0  0
  -21.7102  -29.1188   24.3182 C   0  0  0  0  0  0  0  0  0  0  0  0
  -29.9832  -12.5132   19.4877 C   0  0  0  0  0  0  0  0  0  0  0  0
  -21.6073  -28.0766   23.2092 C   0  0  0  0  0  0  0  0  0  0  0  0
  -28.4998  -12.1728   19.6246 C   0  0  0  0  0  0  0  0  0  0  0  0
  -30.6040  -12.8696   20.8359 C   0  0  0  0  0  0  0  0  0  0  0  0
  -28.4110  -13.6334   21.6914 C   0  0  0  0  0  0  0  0  0  0  0  0
  -22.8295  -27.1504   23.2074 C   0  0  1  0  0  0  0  0  0  0  0  0
  -25.4240  -28.5872   20.8331 C   0  0  1  0  0  0  0  0  0  0  0  0
  -27.7400  -13.2977   20.3491 C   0  0  2  0  0  0  0  0  0  0  0  0
  -27.2089  -31.6944   13.9656 C   0  0  0  0  0  0  0  0  0  0  0  0
  -30.7382  -19.7251   16.0333 C   0  0  0  0  0  0  0  0  0  0  0  0
  -28.4550  -18.8858   16.4523 C   0  0  0  0  0  0  0  0  0  0  0  0
  -22.3945  -28.6475   17.3433 C   0  0  0  0  0  0  0  0  0  0  0  0
  -23.2851  -29.4791   15.1561 C   0  0  0  0  0  0  0  0  0  0  0  0
  -22.8306  -31.0872   17.0082 C   0  0  0  0  0  0  0  0  0  0  0  0
  -26.9991  -20.6951   18.7005 C   0  0  0  0  0  0  0  0  0  0  0  0
  -28.6730  -19.6097   20.2156 C   0  0  0  0  0  0  0  0  0  0  0  0
  -29.6526  -30.6175   16.6757 C   0  0  0  0  0  0  0  0  0  0  0  0
  -29.4632  -20.6744   17.9796 C   0  0  0  0  0  0  0  0  0  0  0  0
  -28.6804  -22.0797   19.9278 C   0  0  0  0  0  0  0  0  0  1  0  0
  -24.8152  -29.5301   17.1778 C   0  0  1  0  0  0  0  0  0  0  0  0
  -27.6361  -31.3059   15.3725 C   0  0  2  0  0  0  0  0  0  0  0  0
  -29.7389  -19.3563   17.1682 C   0  0  0  0  0  0  0  0  0  0  0  0
  -32.2764  -15.3157   20.2871 C   0  0  2  0  0  0  0  0  0  0  0  0
  -31.8480  -15.3267   21.8104 C   0  0  1  0  0  0  0  0  0  0  0  0
  -23.3463  -29.6675   16.6870 C   0  0  0  0  0  0  0  0  0  0  0  0
  -28.4639  -20.7287   19.1864 C   0  0  0  0  0  0  0  0  0  0  0  0
  -33.8260  -15.3852   20.1520 C   0  0  0  0  0  0  0  0  0  0  0  0
  -32.2111  -16.6115   22.5507 C   0  0  0  0  0  0  0  0  0  0  0  0
  -29.7965  -17.0678   18.1028 N   0  0  0  0  0  0  0  0  0  0  0  0
  -32.2423  -17.5664   19.3814 N   0  0  0  0  0  0  0  0  0  0  0  0
  -25.9079  -11.6821   20.6893 N   0  0  0  0  0  0  0  0  0  0  0  0
  -26.2691  -12.9654   20.5196 N   0  0  0  0  0  0  0  0  0  0  0  0
  -25.4660  -28.5830   19.3694 N   0  0  0  0  0  0  0  0  0  0  0  0
  -29.8354  -13.9253   21.5062 N   0  0  0  0  0  0  0  0  0  0  0  0
  -25.4064  -15.1660   20.3655 N   0  0  0  0  0  0  0  0  0  0  0  0
  -21.7130  -12.6391   20.9732 N   0  0  0  0  0  0  0  0  0  0  0  0
  -23.9649  -27.8129   22.6021 N   0  0  0  0  0  0  0  0  0  0  0  0
  -25.7338  -30.5011   16.5932 N   0  0  0  0  0  0  0  0  0  0  0  0
  -29.0931  -30.9933   15.3519 N   0  3  0  0  0  0  0  0  0  0  0  0
  -22.4736  -14.7795   20.6590 O   0  0  0  0  0  0  0  0  0  0  0  0
  -23.4786  -27.3295   20.3767 O   0  0  0  0  0  0  0  0  0  0  0  0
  -24.5855  -30.7358   19.2076 O   0  0  0  0  0  0  0  0  0  0  0  0
  -29.7010  -15.9940   22.5566 O   0  0  0  0  0  0  0  0  0  0  0  0
  -27.1834  -28.9501   15.6604 O   0  0  0  0  0  0  0  0  0  0  0  0
  -31.9354  -13.9979   19.7766 O   0  0  0  0  0  0  0  0  0  0  0  0
  -21.5731   -7.1028   21.5770 O   0  0  0  0  0  0  0  0  0  0  0  0
  -28.4400  -23.1873   19.0608 O   0  0  0  0  0  0  0  0  0  1  0  0
  -23.4083   -3.4514   25.2788 F   0  0  0  0  0  0  0  0  0  0  0  0
  -20.0339   -6.4057   23.7651 F   0  0  0  0  0  0  0  0  0  0  0  0
  -32.4999  -14.3048   22.4398 F   0  0  0  0  0  0  0  0  0  0  0  0
  -34.2786  -16.5882   20.5767 F   0  0  0  0  0  0  0  0  0  0  0  0
  -34.4390  -14.4336   20.8881 F   0  0  0  0  0  0  0  0  0  0  0  0
  -34.2539  -15.2367   18.8764 F   0  0  0  0  0  0  0  0  0  0  0  0
  -31.9156  -16.5058   23.8678 F   0  0  0  0  0  0  0  0  0  0  0  0
  -31.5417  -17.6813   22.0700 F   0  0  0  0  0  0  0  0  0  0  0  0
  -33.5311  -16.8837   22.4660 F   0  0  0  0  0  0  0  0  0  0  0  0
  1  2  1  0  0  0  0
  1  5  2  0  0  0  0
  2  6  2  0  0  0  0
  3  8  2  0  0  0  0
  3 17  1  0  0  0  0
  4  9  1  0  0  0  0
  4 17  2  0  0  0  0
  5 19  1  0  0  0  0
  6 21  1  0  0  0  0
  7 10  2  0  0  0  0
  7 20  1  0  0  0  0
  8 23  1  0  0  0  0
  9 23  2  0  0  0  0
 10 24  1  0  0  0  0
 11 12  2  0  0  0  0
 11 25  1  0  0  0  0
 12 26  1  0  0  0  0
 13 22  1  0  0  0  0
 13 24  2  0  0  0  0
 14 26  2  0  0  0  0
 14 27  1  0  0  0  0
 15 29  1  0  0  0  0
 15 70  2  0  0  0  0
 16 30  2  0  0  0  0
 16 69  1  0  0  0  0
 17 28  1  0  0  0  0
 18 28  1  0  0  0  0
 18 31  2  0  0  0  0
 18 32  1  0  0  0  0
 19 21  2  0  0  0  0
 19 37  1  0  0  0  0
 20 22  2  0  0  0  0
 20 38  1  0  0  0  0
 21 46  1  0  0  0  0
 22 39  1  0  0  0  0
 23 86  1  0  0  0  0
 24 87  1  0  0  0  0
 25 27  2  0  0  0  0
 25 86  1  0  0  0  0
 26 88  1  0  0  0  0
 27 89  1  0  0  0  0
 28 71  2  0  0  0  0
 29 62  1  0  0  0  0
 29 69  2  0  0  0  0
 30 63  1  0  0  0  0
 30 70  1  0  0  0  0
 31 72  1  0  0  0  0
 31 75  1  0  0  0  0
 32 76  1  0  0  0  0
 32 80  2  0  0  0  0
 33 47  1  0  0  0  0
 33 77  1  0  0  0  0
 33 81  2  0  0  0  0
 34 60  1  0  0  0  0
 34 73  1  0  0  0  0
 34 82  2  0  0  0  0
 35 64  1  0  0  0  0
 35 74  1  0  0  0  0
 35 83  2  0  0  0  0
 36 61  1  0  0  0  0
 36 78  1  0  0  0  0
 36 84  2  0  0  0  0
 37 40  1  0  0  0  0
 38 47  1  0  0  0  0
 39 73  1  0  0  0  0
 40 42  1  0  0  0  0
 41 43  1  0  0  0  0
 41 44  1  0  0  0  0
 42 46  1  0  0  0  0
 43 48  1  0  0  0  0
 44 74  1  0  0  0  0
 45 48  1  0  0  0  0
 45 74  1  0  0  0  0
 46 77  1  0  0  0  0
 47 73  1  0  0  0  0
 48 72  1  0  0  0  0
 49 61  1  0  0  0  0
 50 62  1  0  0  0  0
 51 62  1  0  0  0  0
 52 65  1  0  0  0  0
 53 65  1  0  0  0  0
 54 65  1  0  0  0  0
 55 66  1  0  0  0  0
 56 66  1  0  0  0  0
 57 79  1  0  0  0  0
 58 62  1  0  0  0  0
 58 66  1  0  0  0  0
 59 66  1  0  0  0  0
 59 87  1  0  0  0  0
 60 65  1  0  0  0  0
 60 78  1  0  0  0  0
 61 79  1  0  0  0  0
 63 64  1  0  0  0  0
 63 67  1  0  0  0  0
 63 85  1  0  0  0  0
 64 68  1  0  0  0  0
 64 90  1  0  0  0  0
 67 91  1  0  0  0  0
 67 92  1  0  0  0  0
 67 93  1  0  0  0  0
 68 94  1  0  0  0  0
 68 95  1  0  0  0  0
 68 96  1  0  0  0  0
 71 72  1  0  0  0  0
M  CHG  1  79   1
M  ISO  4  35 100  59 101  64 100  87 101
M  END
> <Batch ID>
0067

> <Smiles>
CNC(C)C(=O)NC(C(=O)N1Cc2cc([101O:1][101CH2:1]C(C)(C)CC(C)(C)c3cnc(C(O)(C(F)(F)F)[100C:0](F)([100C:0](=O)N4CCCC(n5nc(-c6ccc(Oc7ccc(F)cc7F)cc6)c(C(N)=O)c5N)C4)C(F)(F)F)cn3)ccc2CC1C(=O)NC1CCCc2ccccc21)C(C)(C)C

> <Shape>
0.267

> <Color>
0.201

> <Negative vol penalty>
0.000

$$$$

  -OEChem-04052318123D

 86 94  0     1  0  0  0  0  0999 V2000
  -32.6936  -16.3311   21.6784 C   0  0  0  0  0  0  0  0  0  0  0  0
  -31.7007  -17.2650   21.4005 C   0  0  0  0  0  0  0  0  0  0  0  0
  -29.3198  -23.7790   21.3912 C   0  0  0  0  0  0  0  0  0  0  0  0
  -27.6315  -23.6723   19.6662 C   0  0  0  0  0  0  0  0  0  0  0  0
  -32.4720  -14.9802   21.4139 C   0  0  0  0  0  0  0  0  0  0  0  0
  -30.4860  -16.8487   20.8568 C   0  0  0  0  0  0  0  0  0  0  0  0
  -24.9527  -19.2348   21.9503 C   0  0  0  0  0  0  0  0  0  0  0  0
  -29.6332  -22.4384   21.1674 C   0  0  0  0  0  0  0  0  0  0  0  0
  -27.9450  -22.3316   19.4424 C   0  0  0  0  0  0  0  0  0  0  0  0
  -24.1678  -20.1456   21.2445 C   0  0  0  0  0  0  0  0  0  0  0  0
  -30.3383  -20.5700   17.8333 C   0  0  0  0  0  0  0  0  0  0  0  0
  -30.4673  -20.1484   16.5100 C   0  0  0  0  0  0  0  0  0  0  0  0
  -22.9758  -18.3155   20.2203 C   0  0  0  0  0  0  0  0  0  0  0  0
  -28.6777  -18.5596   16.8417 C   0  0  0  0  0  0  0  0  0  0  0  0
  -20.9536  -24.9346   19.8046 C   0  0  0  0  0  0  0  0  0  0  0  0
  -19.8331  -23.8997   21.5736 C   0  0  0  0  0  0  0  0  0  0  0  0
  -28.3189  -24.3960   20.6406 C   0  0  0  0  0  0  0  0  0  0  0  0
  -28.5648  -26.9038   20.2435 C   0  0  0  0  0  0  0  0  0  0  0  0
  -31.2504  -14.5459   20.8757 C   0  0  0  0  0  0  0  0  0  0  0  0
  -24.7620  -17.8551   21.7879 C   0  0  0  0  0  0  0  0  0  0  0  0
  -30.2484  -15.4909   20.5836 C   0  0  0  0  0  0  0  0  0  0  0  0
  -23.7578  -17.3893   20.9272 C   0  0  0  0  0  0  0  0  0  0  0  0
  -20.5412  -23.7588   20.3976 C   0  0  0  0  0  0  0  0  0  0  0  0
  -28.9459  -21.7147   20.1930 C   0  0  0  0  0  0  0  0  0  0  0  0
  -23.1811  -19.6860   20.3771 C   0  0  0  0  0  0  0  0  0  0  0  0
  -29.3790  -19.9864   18.6609 C   0  0  0  0  0  0  0  0  0  0  0  0
  -29.6370  -19.1432   16.0141 C   0  0  0  0  0  0  0  0  0  0  0  0
  -28.5487  -18.9812   18.1650 C   0  0  0  0  0  0  0  0  0  0  0  0
  -27.9942  -25.7806   20.8717 C   0  0  0  0  0  0  0  0  0  0  0  0
  -27.9196  -27.9773   20.8074 C   0  0  0  0  0  0  0  0  0  0  0  0
  -20.0010  -26.1639   21.4624 C   0  0  0  0  0  0  0  0  0  0  0  0
  -29.5866  -26.9709   19.2399 C   0  0  0  0  0  0  0  0  0  0  0  0
  -26.5568  -15.4507   20.7385 C   0  0  0  0  0  0  0  0  0  0  0  0
  -24.0364  -13.6568   21.7139 C   0  0  0  0  0  0  0  0  0  0  0  0
  -20.7007  -13.4854   22.4143 C   0  0  0  0  0  0  0  0  0  0  0  0
  -22.5670  -28.6071   23.4158 C   0  0  0  0  0  0  0  0  0  0  0  0
  -31.0748  -13.0810   20.5629 C   0  0  0  0  0  0  0  0  0  0  0  0
  -25.5991  -16.8858   22.5767 C   0  0  0  0  0  0  0  0  0  0  0  0
  -23.4994  -15.9183   20.7328 C   0  0  0  0  0  0  0  0  0  0  0  0
  -29.6204  -12.6769   20.3354 C   0  0  0  0  0  0  0  0  0  0  0  0
  -25.7445  -29.3401   24.8450 C   0  0  0  0  0  0  0  0  0  0  0  0
  -28.9298  -13.6692   19.4052 C   0  0  0  0  0  0  0  0  0  0  0  0
  -26.7329  -28.6124   23.9321 C   0  0  0  0  0  0  0  0  0  0  0  0
  -24.4514  -28.5475   25.0226 C   0  0  0  0  0  0  0  0  0  0  0  0
  -24.7770  -27.4261   22.8523 C   0  0  0  0  0  0  0  0  0  0  0  0
  -28.9082  -15.0753   20.0167 C   0  0  1  0  0  0  0  0  0  0  0  0
  -25.6622  -15.4987   21.9448 C   0  0  1  0  0  0  0  0  0  0  0  0
  -26.0742  -28.2127   22.5980 C   0  0  2  0  0  0  0  0  0  0  0  0
  -18.9231  -11.8756   23.1532 C   0  0  0  0  0  0  0  0  0  0  0  0
  -19.5866  -27.5155   23.6230 C   0  0  0  0  0  0  0  0  0  0  0  0
  -23.9860  -12.4333   18.9192 C   0  0  0  0  0  0  0  0  0  0  0  0
  -21.6820  -11.5844   19.4081 C   0  0  0  0  0  0  0  0  0  0  0  0
  -23.6142  -10.8028   20.7786 C   0  0  0  0  0  0  0  0  0  0  0  0
  -20.1289  -15.0573   24.8559 C   0  0  0  0  0  0  0  0  0  0  0  0
  -20.8471  -22.4070   19.7999 C   0  0  0  0  0  0  0  0  0  0  0  0
  -20.7766  -28.5936   21.6972 C   0  0  0  0  0  0  0  0  0  0  0  0
  -22.1694  -21.8369   20.3018 C   0  0  0  0  0  0  0  0  0  1  0  0
  -22.7619  -13.1649   21.0715 C   0  0  1  0  0  0  0  0  0  0  0  0
  -19.9486  -12.9064   23.5989 C   0  0  2  0  0  0  0  0  0  0  0  0
  -19.7034  -27.4989   22.0560 C   0  0  1  0  0  0  0  0  0  0  0  0
  -23.0169  -12.0241   20.0463 C   0  0  0  0  0  0  0  0  0  0  0  0
  -18.3303  -28.0313   21.5391 C   0  0  0  0  0  0  0  0  0  0  0  0
  -20.7000  -26.1590   20.3114 N   0  0  0  0  0  0  0  0  0  0  0  0
  -19.5441  -25.0913   22.1366 N   0  0  0  0  0  0  0  0  0  0  0  0
  -27.0587  -26.1100   21.7663 N   0  0  0  0  0  0  0  0  0  0  0  0
  -27.0365  -27.4522   21.7043 N   0  0  0  0  0  0  0  0  0  0  0  0
  -24.3483  -15.0101   21.5216 N   0  0  0  0  0  0  0  0  0  0  0  0
  -23.8768  -28.2013   23.7203 N   0  0  0  0  0  0  0  0  0  0  0  0
  -28.0273  -29.3096   20.6185 N   0  0  0  0  0  0  0  0  0  0  0  0
  -30.1423  -25.7727   18.7712 N   0  0  0  0  0  0  0  0  0  0  0  0
  -27.8784  -15.1705   21.0291 N   0  0  0  0  0  0  0  0  0  0  0  0
  -21.8691  -12.7970   22.1651 N   0  0  0  0  0  0  0  0  0  0  0  0
  -22.1016  -28.2433   22.1581 N   0  0  0  0  0  0  0  0  0  0  0  0
  -19.2377  -13.9867   24.3395 N   0  3  0  0  0  0  0  0  0  0  0  0
  -30.0063  -28.0618   18.7846 O   0  0  0  0  0  0  0  0  0  0  0  0
  -26.0829  -15.6514   19.6264 O   0  0  0  0  0  0  0  0  0  0  0  0
  -24.7260  -12.8709   22.3685 O   0  0  0  0  0  0  0  0  0  0  0  0
  -20.2906  -14.4496   21.7717 O   0  0  0  0  0  0  0  0  0  0  0  0
  -21.8662  -29.2509   24.2041 O   0  0  0  0  0  0  0  0  0  0  0  0
  -29.2516  -20.4066   19.9742 O   0  0  0  0  0  0  0  0  0  0  0  0
  -22.4141  -20.5729   19.6865 O   0  0  0  0  0  0  0  0  0  1  0  0
  -29.7600  -18.7395   14.7429 F   0  0  0  0  0  0  0  0  0  0  0  0
  -27.6245  -18.4176   18.9550 F   0  0  0  0  0  0  0  0  0  0  0  0
  -17.3340  -27.1810   21.8773 F   0  0  0  0  0  0  0  0  0  0  0  0
  -18.3206  -28.1535   20.1935 F   0  0  0  0  0  0  0  0  0  0  0  0
  -18.0097  -29.2448   22.0474 F   0  0  0  0  0  0  0  0  0  0  0  0
  1  2  1  0  0  0  0
  1  5  2  0  0  0  0
  2  6  2  0  0  0  0
  3  8  2  0  0  0  0
  3 17  1  0  0  0  0
  4  9  1  0  0  0  0
  4 17  2  0  0  0  0
  5 19  1  0  0  0  0
  6 21  1  0  0  0  0
  7 10  2  0  0  0  0
  7 20  1  0  0  0  0
  8 24  1  0  0  0  0
  9 24  2  0  0  0  0
 10 25  1  0  0  0  0
 11 12  2  0  0  0  0
 11 26  1  0  0  0  0
 12 27  1  0  0  0  0
 13 22  1  0  0  0  0
 13 25  2  0  0  0  0
 14 27  2  0  0  0  0
 14 28  1  0  0  0  0
 15 23  1  0  0  0  0
 15 63  2  0  0  0  0
 16 23  2  0  0  0  0
 16 64  1  0  0  0  0
 17 29  1  0  0  0  0
 18 29  1  0  0  0  0
 18 30  2  0  0  0  0
 18 32  1  0  0  0  0
 19 21  2  0  0  0  0
 19 37  1  0  0  0  0
 20 22  2  0  0  0  0
 20 38  1  0  0  0  0
 21 46  1  0  0  0  0
 22 39  1  0  0  0  0
 23 55  1  0  0  0  0
 24 80  1  0  0  0  0
 25 81  1  0  0  0  0
 26 28  2  0  0  0  0
 26 80  1  0  0  0  0
 27 82  1  0  0  0  0
 28 83  1  0  0  0  0
 29 65  2  0  0  0  0
 30 66  1  0  0  0  0
 30 69  1  0  0  0  0
 31 60  1  0  0  0  0
 31 63  1  0  0  0  0
 31 64  2  0  0  0  0
 32 70  1  0  0  0  0
 32 75  2  0  0  0  0
 33 47  1  0  0  0  0
 33 71  1  0  0  0  0
 33 76  2  0  0  0  0
 34 58  1  0  0  0  0
 34 67  1  0  0  0  0
 34 77  2  0  0  0  0
 35 59  1  0  0  0  0
 35 72  1  0  0  0  0
 35 78  2  0  0  0  0
 36 68  1  0  0  0  0
 36 73  1  0  0  0  0
 36 79  2  0  0  0  0
 37 40  1  0  0  0  0
 38 47  1  0  0  0  0
 39 67  1  0  0  0  0
 40 42  1  0  0  0  0
 41 43  1  0  0  0  0
 41 44  1  0  0  0  0
 42 46  1  0  0  0  0
 43 48  1  0  0  0  0
 44 68  1  0  0  0  0
 45 48  1  0  0  0  0
 45 68  1  0  0  0  0
 46 71  1  0  0  0  0
 47 67  1  0  0  0  0
 48 66  1  0  0  0  0
 49 59  1  0  0  0  0
 50 60  1  0  0  0  0
 51 61  1  0  0  0  0
 52 61  1  0  0  0  0
 53 61  1  0  0  0  0
 54 74  1  0  0  0  0
 55 57  1  0  0  0  0
 56 60  1  0  0  0  0
 56 73  1  0  0  0  0
 57 81  1  0  0  0  0
 58 61  1  0  0  0  0
 58 72  1  0  0  0  0
 59 74  1  0  0  0  0
 60 62  1  0  0  0  0
 62 84  1  0  0  0  0
 62 85  1  0  0  0  0
 62 86  1  0  0  0  0
 65 66  1  0  0  0  0
M  CHG  1  74   1
M  ISO  4  36 100  57 101  73 100  81 101
M  END
> <Batch ID>
0067

> <Smiles>
CNC(C)C(=O)NC(C(=O)N1Cc2cc([101O:1][101CH2:1]Cc3cnc(C(C)(C[100NH:0][100C:0](=O)N4CCCC(n5nc(-c6ccc(Oc7ccc(F)cc7F)cc6)c(C(N)=O)c5N)C4)C(F)(F)F)nc3)ccc2CC1C(=O)NC1CCCc2ccccc21)C(C)(C)C

> <Shape>
0.251

> <Color>
0.045

> <Negative vol penalty>
0.000

$$$$

  -OEChem-04052318123D

 96104  0     1  0  0  0  0  0999 V2000
  -17.7322  -25.6979   22.6395 C   0  0  0  0  0  0  0  0  0  0  0  0
  -19.0544  -25.3123   22.4435 C   0  0  0  0  0  0  0  0  0  0  0  0
  -25.7774  -17.4453   23.6250 C   0  0  0  0  0  0  0  0  0  0  0  0
  -25.6830  -18.7614   21.6012 C   0  0  0  0  0  0  0  0  0  0  0  0
  -17.3479  -27.0155   22.3945 C   0  0  0  0  0  0  0  0  0  0  0  0
  -19.9930  -26.2439   22.0013 C   0  0  0  0  0  0  0  0  0  0  0  0
  -25.9132  -26.5219   23.5437 C   0  0  0  0  0  0  0  0  0  0  0  0
  -25.8125  -18.6149   24.3841 C   0  0  0  0  0  0  0  0  0  0  0  0
  -25.7180  -19.9311   22.3603 C   0  0  0  0  0  0  0  0  0  0  0  0
  -27.0708  -26.0805   22.9043 C   0  0  0  0  0  0  0  0  0  0  0  0
  -25.5628  -21.2541   26.8716 C   0  0  0  0  0  0  0  0  0  0  0  0
  -24.7421  -21.3214   27.9974 C   0  0  0  0  0  0  0  0  0  0  0  0
  -27.3950  -28.2858   21.9819 C   0  0  0  0  0  0  0  0  0  0  0  0
  -22.7969  -21.0142   26.5978 C   0  0  0  0  0  0  0  0  0  0  0  0
  -25.7127  -17.5185   22.2335 C   0  0  0  0  0  0  0  0  0  0  0  0
  -24.5351  -15.5972   21.0379 C   0  0  0  0  0  0  0  0  0  0  0  0
  -18.2842  -27.9661   21.9584 C   0  0  0  0  0  0  0  0  0  0  0  0
  -25.4811  -27.8480   23.3979 C   0  0  0  0  0  0  0  0  0  0  0  0
  -19.6206  -27.5752   21.7490 C   0  0  0  0  0  0  0  0  0  0  0  0
  -26.2330  -28.7422   22.6226 C   0  0  0  0  0  0  0  0  0  0  0  0
  -25.7828  -19.8579   23.7517 C   0  0  0  0  0  0  0  0  0  0  0  0
  -27.8103  -26.9617   22.1209 C   0  0  0  0  0  0  0  0  0  0  0  0
  -25.0005  -21.0669   25.6088 C   0  0  0  0  0  0  0  0  0  0  0  0
  -23.3591  -21.2015   27.8605 C   0  0  0  0  0  0  0  0  0  0  0  0
  -23.6176  -20.9469   25.4719 C   0  0  0  0  0  0  0  0  0  0  0  0
  -25.6770  -16.3106   21.4488 C   0  0  0  0  0  0  0  0  0  0  0  0
  -30.4748  -16.1638   17.8851 C   0  0  0  0  0  0  0  0  0  0  0  0
  -31.4903  -16.2909   18.8433 C   0  0  0  0  0  0  0  0  0  0  0  0
  -25.0325  -14.5351   20.3230 C   0  0  0  0  0  0  0  0  0  0  0  0
  -23.1486  -15.8702   21.2807 C   0  0  0  0  0  0  0  0  0  0  0  0
  -22.8858  -29.2433   22.2059 C   0  0  0  0  0  0  0  0  0  0  0  0
  -24.2652  -31.9320   23.3851 C   0  0  0  0  0  0  0  0  0  0  0  0
  -30.2097  -13.7564   17.3731 C   0  0  0  0  0  0  0  0  0  0  0  0
  -27.1146  -33.5395   24.3565 C   0  0  0  0  0  0  0  0  0  0  0  0
  -17.8118  -29.3673   21.6614 C   0  0  0  0  0  0  0  0  0  0  0  0
  -24.2449  -28.3155   24.1159 C   0  0  0  0  0  0  0  0  0  0  0  0
  -25.8230  -30.1812   22.4505 C   0  0  0  0  0  0  0  0  0  0  0  0
  -18.9465  -30.3828   21.5540 C   0  0  0  0  0  0  0  0  0  0  0  0
  -28.8659  -11.7050   19.9858 C   0  0  0  0  0  0  0  0  0  0  0  0
  -20.0726  -29.8348   20.6833 C   0  0  0  0  0  0  0  0  0  0  0  0
  -27.8119  -12.5989   20.6379 C   0  0  0  0  0  0  0  0  0  0  0  0
  -30.0664  -12.5153   19.5070 C   0  0  0  0  0  0  0  0  0  0  0  0
  -28.6597  -14.5324   19.2350 C   0  0  0  0  0  0  0  0  0  0  0  0
  -20.6731  -28.5628   21.2939 C   0  0  1  0  0  0  0  0  0  0  0  0
  -23.6173  -29.5528   23.4813 C   0  0  1  0  0  0  0  0  0  0  0  0
  -27.4161  -13.7574   19.7054 C   0  0  2  0  0  0  0  0  0  0  0  0
  -27.9302  -35.7424   25.2391 C   0  0  0  0  0  0  0  0  0  0  0  0
  -31.4921  -15.0467   15.7989 C   0  0  0  0  0  0  0  0  0  0  0  0
  -23.9702  -33.1526   20.6043 C   0  0  0  0  0  0  0  0  0  0  0  0
  -25.6127  -34.9170   21.2807 C   0  0  0  0  0  0  0  0  0  0  0  0
  -23.4400  -34.7092   22.4885 C   0  0  0  0  0  0  0  0  0  0  0  0
  -29.9595  -25.6087   17.9566 C   0  0  0  0  0  0  0  0  0  0  0  0
  -31.3410  -25.6715   20.0460 C   0  0  0  0  0  0  0  0  0  0  0  0
  -28.1458  -32.2959   26.8362 C   0  0  0  0  0  0  0  0  0  0  0  0
  -29.3778  -21.5790   19.8043 C   0  0  0  0  0  0  0  0  0  0  0  0
  -30.0795  -22.8728   19.3770 C   0  0  0  0  0  0  0  0  0  0  0  0
  -30.0953  -20.3472   19.2430 C   0  0  0  0  0  0  0  0  0  0  0  0
  -29.3356  -24.1037   19.9121 C   0  0  0  0  0  0  0  0  0  0  0  0
  -29.4246  -19.0285   19.6440 C   0  0  0  0  0  0  0  0  0  0  0  0
  -25.2307  -32.9614   22.8494 C   0  0  1  0  0  0  0  0  0  0  0  0
  -27.4413  -34.3481   25.5990 C   0  0  2  0  0  0  0  0  0  0  0  0
  -30.3122  -15.1580   16.8263 C   0  0  2  0  0  0  0  0  0  0  0  0
  -32.6788  -15.4536   19.0596 C   0  0  0  0  0  0  0  0  0  0  0  0
  -24.5703  -33.9075   21.8072 C   0  0  0  0  0  0  0  0  0  0  0  0
  -29.9164  -25.4853   19.4918 C   0  0  0  0  0  0  0  0  0  0  0  0
  -29.0156  -26.6063   20.0684 C   0  0  0  0  0  0  0  0  0  1  0  0
  -29.0223  -15.3994   15.9894 C   0  0  0  0  0  0  0  0  0  0  0  0
  -26.8142  -15.7490   21.0300 N   0  0  0  0  0  0  0  0  0  0  0  0
  -29.5788  -17.1423   18.0421 N   0  0  0  0  0  0  0  0  0  0  0  0
  -31.2512  -17.3523   19.6185 N   0  0  0  0  0  0  0  0  0  0  0  0
  -26.3893  -14.6714   20.3485 N   0  0  0  0  0  0  0  0  0  0  0  0
  -30.1051  -17.8044   19.0851 N   0  0  0  0  0  0  0  0  0  0  0  0
  -24.6034  -30.5888   23.1674 N   0  0  0  0  0  0  0  0  0  0  0  0
  -29.6467  -13.6194   18.6421 N   0  0  0  0  0  0  0  0  0  0  0  0
  -24.4372  -13.5073   19.6815 N   0  0  0  0  0  0  0  0  0  0  0  0
  -22.8127  -17.0033   22.0341 N   0  0  0  0  0  0  0  0  0  0  0  0
  -21.5604  -28.8972   22.3873 N   0  0  0  0  0  0  0  0  0  0  0  0
  -25.7836  -33.6467   24.0126 N   0  0  0  0  0  0  0  0  0  0  0  0
  -28.5024  -33.6688   26.3949 N   0  3  0  0  0  0  0  0  0  0  0  0
  -22.2354  -15.1223   20.8563 O   0  0  0  0  0  0  0  0  0  0  0  0
  -23.4795  -29.3147   21.1363 O   0  0  0  0  0  0  0  0  0  0  0  0
  -23.2520  -32.3057   23.9813 O   0  0  0  0  0  0  0  0  0  0  0  0
  -30.6156  -12.8125   16.6901 O   0  0  0  0  0  0  0  0  0  0  0  0
  -27.9568  -32.8817   23.7493 O   0  0  0  0  0  0  0  0  0  0  0  0
  -25.8167  -20.9994   24.4921 O   0  0  0  0  0  0  0  0  0  0  0  0
  -28.9458  -26.5311   21.4920 O   0  0  0  0  0  0  0  0  0  1  0  0
  -22.5712  -21.2646   28.9419 F   0  0  0  0  0  0  0  0  0  0  0  0
  -23.0718  -20.7657   24.2615 F   0  0  0  0  0  0  0  0  0  0  0  0
  -32.7970  -14.3972   18.1878 F   0  0  0  0  0  0  0  0  0  0  0  0
  -33.8741  -16.1222   18.9415 F   0  0  0  0  0  0  0  0  0  0  0  0
  -32.7241  -14.8803   20.3067 F   0  0  0  0  0  0  0  0  0  0  0  0
  -27.7636  -26.4969   19.5541 F   0  0  0  0  0  0  0  0  0  0  0  0
  -29.5107  -27.8178   19.7059 F   0  0  0  0  0  0  0  0  0  0  0  0
  -29.0665  -16.6169   15.4006 F   0  0  0  0  0  0  0  0  0  0  0  0
  -28.8398  -14.4871   15.0062 F   0  0  0  0  0  0  0  0  0  0  0  0
  -27.9210  -15.3689   16.7723 F   0  0  0  0  0  0  0  0  0  0  0  0
  1  2  1  0  0  0  0
  1  5  2  0  0  0  0
  2  6  2  0  0  0  0
  3  8  2  0  0  0  0
  3 15  1  0  0  0  0
  4  9  1  0  0  0  0
  4 15  2  0  0  0  0
  5 17  1  0  0  0  0
  6 19  1  0  0  0  0
  7 10  2  0  0  0  0
  7 18  1  0  0  0  0
  8 21  1  0  0  0  0
  9 21  2  0  0  0  0
 10 22  1  0  0  0  0
 11 12  2  0  0  0  0
 11 23  1  0  0  0  0
 12 24  1  0  0  0  0
 13 20  1  0  0  0  0
 13 22  2  0  0  0  0
 14 24  2  0  0  0  0
 14 25  1  0  0  0  0
 15 26  1  0  0  0  0
 16 26  1  0  0  0  0
 16 29  2  0  0  0  0
 16 30  1  0  0  0  0
 17 19  2  0  0  0  0
 17 35  1  0  0  0  0
 18 20  2  0  0  0  0
 18 36  1  0  0  0  0
 19 44  1  0  0  0  0
 20 37  1  0  0  0  0
 21 85  1  0  0  0  0
 22 86  1  0  0  0  0
 23 25  2  0  0  0  0
 23 85  1  0  0  0  0
 24 87  1  0  0  0  0
 25 88  1  0  0  0  0
 26 68  2  0  0  0  0
 27 28  1  0  0  0  0
 27 62  1  0  0  0  0
 27 69  2  0  0  0  0
 28 63  1  0  0  0  0
 28 70  2  0  0  0  0
 29 71  1  0  0  0  0
 29 75  1  0  0  0  0
 30 76  1  0  0  0  0
 30 80  2  0  0  0  0
 31 45  1  0  0  0  0
 31 77  1  0  0  0  0
 31 81  2  0  0  0  0
 32 60  1  0  0  0  0
 32 73  1  0  0  0  0
 32 82  2  0  0  0  0
 33 62  1  0  0  0  0
 33 74  1  0  0  0  0
 33 83  2  0  0  0  0
 34 61  1  0  0  0  0
 34 78  1  0  0  0  0
 34 84  2  0  0  0  0
 35 38  1  0  0  0  0
 36 45  1  0  0  0  0
 37 73  1  0  0  0  0
 38 40  1  0  0  0  0
 39 41  1  0  0  0  0
 39 42  1  0  0  0  0
 40 44  1  0  0  0  0
 41 46  1  0  0  0  0
 42 74  1  0  0  0  0
 43 46  1  0  0  0  0
 43 74  1  0  0  0  0
 44 77  1  0  0  0  0
 45 73  1  0  0  0  0
 46 71  1  0  0  0  0
 47 61  1  0  0  0  0
 48 62  1  0  0  0  0
 49 64  1  0  0  0  0
 50 64  1  0  0  0  0
 51 64  1  0  0  0  0
 52 65  1  0  0  0  0
 53 65  1  0  0  0  0
 54 79  1  0  0  0  0
 55 56  1  0  0  0  0
 55 57  1  0  0  0  0
 56 58  1  0  0  0  0
 57 59  1  0  0  0  0
 58 65  1  0  0  0  0
 59 72  1  0  0  0  0
 60 64  1  0  0  0  0
 60 78  1  0  0  0  0
 61 79  1  0  0  0  0
 62 67  1  0  0  0  0
 63 89  1  0  0  0  0
 63 90  1  0  0  0  0
 63 91  1  0  0  0  0
 65 66  1  0  0  0  0
 66 86  1  0  0  0  0
 66 92  1  0  0  0  0
 66 93  1  0  0  0  0
 67 94  1  0  0  0  0
 67 95  1  0  0  0  0
 67 96  1  0  0  0  0
 68 71  1  0  0  0  0
 69 72  1  0  0  0  0
 70 72  1  0  0  0  0
M  CHG  1  79   1
M  ISO  4  33 100  62 100  66 101  86 101
M  END
> <Batch ID>
0067

> <Smiles>
CNC(C)C(=O)NC(C(=O)N1Cc2cc([101O:1][101C:1](F)(F)C(C)(C)CCCCCn3nc(C(F)(F)F)c([100C:0](C)([100C:0](=O)N4CCCC(n5nc(-c6ccc(Oc7ccc(F)cc7F)cc6)c(C(N)=O)c5N)C4)C(F)(F)F)n3)ccc2CC1C(=O)NC1CCCc2ccccc21)C(C)(C)C

> <Shape>
0.273

> <Color>
0.091

> <Negative vol penalty>
0.000

$$$$

  -OEChem-04052318123D

 96104  0     1  0  0  0  0  0999 V2000
  -18.7040  -29.0570   19.1391 C   0  0  0  0  0  0  0  0  0  0  0  0
  -19.9674  -28.4887   19.0116 C   0  0  0  0  0  0  0  0  0  0  0  0
  -26.3817  -12.3663   21.6631 C   0  0  0  0  0  0  0  0  0  0  0  0
  -25.7282  -13.6838   19.7463 C   0  0  0  0  0  0  0  0  0  0  0  0
  -18.0152  -28.9583   20.3473 C   0  0  0  0  0  0  0  0  0  0  0  0
  -20.5433  -27.8223   20.0927 C   0  0  0  0  0  0  0  0  0  0  0  0
  -22.6695  -23.4250   18.7555 C   0  0  0  0  0  0  0  0  0  0  0  0
  -25.1232  -11.7651   21.6789 C   0  0  0  0  0  0  0  0  0  0  0  0
  -24.4697  -13.0826   19.7621 C   0  0  0  0  0  0  0  0  0  0  0  0
  -23.9172  -23.4834   18.1362 C   0  0  0  0  0  0  0  0  0  0  0  0
  -22.0028  -12.5464   22.7169 C   0  0  0  0  0  0  0  0  0  0  0  0
  -21.3613  -12.4199   23.9490 C   0  0  0  0  0  0  0  0  0  0  0  0
  -24.9767  -22.9339   20.2325 C   0  0  0  0  0  0  0  0  0  0  0  0
  -21.3171  -10.0194   23.6795 C   0  0  0  0  0  0  0  0  0  0  0  0
  -26.6842  -13.3257   20.6968 C   0  0  0  0  0  0  0  0  0  0  0  0
  -29.1279  -13.5078   19.9877 C   0  0  0  0  0  0  0  0  0  0  0  0
  -18.5788  -28.2820   21.4407 C   0  0  0  0  0  0  0  0  0  0  0  0
  -22.5666  -23.1309   20.1227 C   0  0  0  0  0  0  0  0  0  0  0  0
  -19.8619  -27.7156   21.3171 C   0  0  0  0  0  0  0  0  0  0  0  0
  -23.7264  -22.8699   20.8662 C   0  0  0  0  0  0  0  0  0  0  0  0
  -24.1672  -12.1232   20.7284 C   0  0  0  0  0  0  0  0  0  0  0  0
  -25.0712  -23.2407   18.8753 C   0  0  0  0  0  0  0  0  0  0  0  0
  -22.3014  -11.4094   21.9661 C   0  0  0  0  0  0  0  0  0  0  0  0
  -21.0184  -11.1565   24.4303 C   0  0  0  0  0  0  0  0  0  0  0  0
  -21.9586  -10.1459   22.4474 C   0  0  0  0  0  0  0  0  0  0  0  0
  -27.9839  -13.9476   20.6802 C   0  0  0  0  0  0  0  0  0  0  0  0
  -28.5556  -27.4910   21.1876 C   0  0  0  0  0  0  0  0  0  0  0  0
  -29.6011  -26.9989   21.9327 C   0  0  0  0  0  0  0  0  0  0  0  0
  -30.0931  -14.4354   20.2952 C   0  0  0  0  0  0  0  0  0  0  0  0
  -29.3711  -25.8952   20.0391 C   0  0  0  0  0  0  0  0  0  0  0  0
  -29.3025  -12.3633   19.1420 C   0  0  0  0  0  0  0  0  0  0  0  0
  -21.4697  -24.6779   22.6737 C   0  0  0  0  0  0  0  0  0  0  0  0
  -22.0623  -21.8546   24.1569 C   0  0  0  0  0  0  0  0  0  0  0  0
  -23.8040  -18.9203   24.2117 C   0  0  0  0  0  0  0  0  0  0  0  0
  -30.3294  -20.1722   21.2289 C   0  0  0  0  0  0  0  0  0  0  0  0
  -17.8161  -28.2422   22.7412 C   0  0  0  0  0  0  0  0  0  0  0  0
  -21.2115  -23.0454   20.7699 C   0  0  0  0  0  0  0  0  0  0  0  0
  -23.6687  -22.5298   22.3323 C   0  0  0  0  0  0  0  0  0  0  0  0
  -18.3385  -27.1955   23.7220 C   0  0  0  0  0  0  0  0  0  0  0  0
  -29.3642  -17.6313   23.9475 C   0  0  0  0  0  0  0  0  0  0  0  0
  -19.8595  -27.2636   23.8154 C   0  0  0  0  0  0  0  0  0  0  0  0
  -30.1431  -16.4939   23.2937 C   0  0  0  0  0  0  0  0  0  0  0  0
  -29.8232  -18.9848   23.4139 C   0  0  0  0  0  0  0  0  0  0  0  0
  -29.4519  -17.8503   21.2235 C   0  0  0  0  0  0  0  0  0  0  0  0
  -20.5095  -26.9633   22.4594 C   0  0  1  0  0  0  0  0  0  0  0  0
  -21.2580  -23.2429   22.2820 C   0  0  1  0  0  0  0  0  0  0  0  0
  -30.1221  -16.5695   21.7513 C   0  0  2  0  0  0  0  0  0  0  0  0
  -24.1006  -16.8306   25.5693 C   0  0  0  0  0  0  0  0  0  0  0  0
  -28.3838  -29.9621   21.7088 C   0  0  0  0  0  0  0  0  0  0  0  0
  -26.7784  -28.3309   22.7829 C   0  0  0  0  0  0  0  0  0  0  0  0
  -23.7184  -23.4138   26.1906 C   0  0  0  0  0  0  0  0  0  0  0  0
  -24.7353  -21.2457   26.9207 C   0  0  0  0  0  0  0  0  0  0  0  0
  -22.2816  -21.6178   27.1725 C   0  0  0  0  0  0  0  0  0  0  0  0
  -31.4087  -23.6311   23.6819 C   0  0  0  0  0  0  0  0  0  0  0  0
  -29.2198  -23.7924   22.5108 C   0  0  0  0  0  0  0  0  0  0  0  0
  -32.2378  -25.9402   22.4284 C   0  0  0  0  0  0  0  0  0  0  0  0
  -32.0702  -24.8277   20.2560 C   0  0  0  0  0  0  0  0  0  0  0  0
  -22.9013  -17.2019   21.9776 C   0  0  0  0  0  0  0  0  0  0  0  0
  -27.2387  -29.3978   19.1866 C   0  0  0  0  0  0  0  0  0  0  0  0
  -25.6582  -27.7910   20.2453 C   0  0  0  0  0  0  0  0  0  0  0  0
  -29.6568  -24.8740   18.9672 C   0  0  0  0  0  0  0  0  0  0  0  0
  -28.4114  -24.4170   18.2044 C   0  0  0  0  0  0  0  0  0  0  0  0
  -31.1163  -22.5190   21.4407 C   0  0  0  0  0  0  0  0  0  0  0  0
  -27.3964  -23.6949   19.0829 C   0  0  0  0  0  0  0  0  0  1  0  0
  -23.2489  -21.2479   24.8661 C   0  0  1  0  0  0  0  0  0  0  0  0
  -23.3536  -17.4853   24.4177 C   0  0  2  0  0  0  0  0  0  0  0  0
  -27.6443  -28.6003   21.5107 C   0  0  0  0  0  0  0  0  0  0  0  0
  -30.1444  -27.3927   23.2451 C   0  0  0  0  0  0  0  0  0  0  0  0
  -23.4976  -21.8896   26.2603 C   0  0  0  0  0  0  0  0  0  0  0  0
  -30.7554  -23.7847   22.2828 C   0  0  0  0  0  0  0  0  0  0  0  0
  -31.2367  -25.1390   21.5384 C   0  0  0  0  0  0  0  0  0  0  0  0
  -28.2006  -15.0673   21.3754 N   0  0  0  0  0  0  0  0  0  0  0  0
  -28.4174  -26.7995   20.0102 N   0  0  0  0  0  0  0  0  0  0  0  0
  -30.1135  -25.9768   21.1843 N   0  0  0  0  0  0  0  0  0  0  0  0
  -29.4920  -15.3390   21.1213 N   0  0  0  0  0  0  0  0  0  0  0  0
  -22.3209  -22.4645   22.9212 N   0  0  0  0  0  0  0  0  0  0  0  0
  -29.9081  -19.0374   21.9488 N   0  0  0  0  0  0  0  0  0  0  0  0
  -31.3888  -14.5581   19.9368 N   0  0  0  0  0  0  0  0  0  0  0  0
  -28.2074  -11.5140   18.9326 N   0  0  0  0  0  0  0  0  0  0  0  0
  -20.4998  -25.5398   22.1984 N   0  0  0  0  0  0  0  0  0  0  0  0
  -23.0097  -19.8093   24.9045 N   0  0  0  0  0  0  0  0  0  0  0  0
  -30.6665  -21.2713   22.0148 N   0  0  0  0  0  0  0  0  0  0  0  0
  -23.5959  -16.6843   23.1845 N   0  3  0  0  0  0  0  0  0  0  0  0
  -26.5867  -28.9372   20.4425 N   0  3  0  0  0  0  0  0  0  0  0  0
  -30.4017  -12.0924   18.6017 O   0  0  0  0  0  0  0  0  0  0  0  0
  -22.4404  -24.9806   23.3577 O   0  0  0  0  0  0  0  0  0  0  0  0
  -20.9459  -21.7835   24.6767 O   0  0  0  0  0  0  0  0  0  0  0  0
  -24.7666  -19.2220   23.5097 O   0  0  0  0  0  0  0  0  0  0  0  0
  -30.3963  -20.2032   19.9964 O   0  0  0  0  0  0  0  0  0  0  0  0
  -22.9391  -11.5365   20.7434 O   0  0  0  0  0  0  0  0  0  0  0  0
  -26.2904  -23.2977   18.2734 O   0  0  0  0  0  0  0  0  0  1  0  0
  -20.4037  -11.0351   25.6142 F   0  0  0  0  0  0  0  0  0  0  0  0
  -22.2439   -9.0498   21.7312 F   0  0  0  0  0  0  0  0  0  0  0  0
  -29.4881  -28.4443   23.8357 F   0  0  0  0  0  0  0  0  0  0  0  0
  -30.1121  -26.3976   24.1906 F   0  0  0  0  0  0  0  0  0  0  0  0
  -31.4579  -27.7843   23.1933 F   0  0  0  0  0  0  0  0  0  0  0  0
  1  2  1  0  0  0  0
  1  5  2  0  0  0  0
  2  6  2  0  0  0  0
  3  8  2  0  0  0  0
  3 15  1  0  0  0  0
  4  9  1  0  0  0  0
  4 15  2  0  0  0  0
  5 17  1  0  0  0  0
  6 19  1  0  0  0  0
  7 10  2  0  0  0  0
  7 18  1  0  0  0  0
  8 21  1  0  0  0  0
  9 21  2  0  0  0  0
 10 22  1  0  0  0  0
 11 12  2  0  0  0  0
 11 23  1  0  0  0  0
 12 24  1  0  0  0  0
 13 20  1  0  0  0  0
 13 22  2  0  0  0  0
 14 24  2  0  0  0  0
 14 25  1  0  0  0  0
 15 26  1  0  0  0  0
 16 26  1  0  0  0  0
 16 29  2  0  0  0  0
 16 31  1  0  0  0  0
 17 19  2  0  0  0  0
 17 36  1  0  0  0  0
 18 20  2  0  0  0  0
 18 37  1  0  0  0  0
 19 45  1  0  0  0  0
 20 38  1  0  0  0  0
 21 90  1  0  0  0  0
 22 91  1  0  0  0  0
 23 25  2  0  0  0  0
 23 90  1  0  0  0  0
 24 92  1  0  0  0  0
 25 93  1  0  0  0  0
 26 72  2  0  0  0  0
 27 28  2  0  0  0  0
 27 67  1  0  0  0  0
 27 73  1  0  0  0  0
 28 68  1  0  0  0  0
 28 74  1  0  0  0  0
 29 75  1  0  0  0  0
 29 78  1  0  0  0  0
 30 61  1  0  0  0  0
 30 73  2  0  0  0  0
 30 74  1  0  0  0  0
 31 79  1  0  0  0  0
 31 85  2  0  0  0  0
 32 46  1  0  0  0  0
 32 80  1  0  0  0  0
 32 86  2  0  0  0  0
 33 65  1  0  0  0  0
 33 76  1  0  0  0  0
 33 87  2  0  0  0  0
 34 66  1  0  0  0  0
 34 81  1  0  0  0  0
 34 88  2  0  0  0  0
 35 77  1  0  0  0  0
 35 82  1  0  0  0  0
 35 89  2  0  0  0  0
 36 39  1  0  0  0  0
 37 46  1  0  0  0  0
 38 76  1  0  0  0  0
 39 41  1  0  0  0  0
 40 42  1  0  0  0  0
 40 43  1  0  0  0  0
 41 45  1  0  0  0  0
 42 47  1  0  0  0  0
 43 77  1  0  0  0  0
 44 47  1  0  0  0  0
 44 77  1  0  0  0  0
 45 80  1  0  0  0  0
 46 76  1  0  0  0  0
 47 75  1  0  0  0  0
 48 66  1  0  0  0  0
 49 67  1  0  0  0  0
 50 67  1  0  0  0  0
 51 69  1  0  0  0  0
 52 69  1  0  0  0  0
 53 69  1  0  0  0  0
 54 70  1  0  0  0  0
 55 70  1  0  0  0  0
 56 71  1  0  0  0  0
 57 71  1  0  0  0  0
 58 83  1  0  0  0  0
 59 84  1  0  0  0  0
 60 84  1  0  0  0  0
 61 62  1  0  0  0  0
 62 64  1  0  0  0  0
 63 70  1  0  0  0  0
 63 82  1  0  0  0  0
 64 91  1  0  0  0  0
 65 69  1  0  0  0  0
 65 81  1  0  0  0  0
 66 83  1  0  0  0  0
 67 84  1  0  0  0  0
 68 94  1  0  0  0  0
 68 95  1  0  0  0  0
 68 96  1  0  0  0  0
 70 71  1  0  0  0  0
 71 74  1  0  0  0  0
 72 75  1  0  0  0  0
M  CHG  2  83   1  84   1
M  ISO  4  35 100  64 101  82 100  91 101
M  END
> <Batch ID>
0067

> <Smiles>
CNC(C)C(=O)NC(C(=O)N1Cc2cc([101O:1][101CH2:1]CCc3nc(C(C)(C)N(C)C)c(C(F)(F)F)n3C(C)(C)C(C)(C)C[100NH:0][100C:0](=O)N3CCCC(n4nc(-c5ccc(Oc6ccc(F)cc6F)cc5)c(C(N)=O)c4N)C3)ccc2CC1C(=O)NC1CCCc2ccccc21)C(C)(C)C

> <Shape>
0.221

> <Color>
0.072

> <Negative vol penalty>
0.000

$$$$

  -OEChem-04052318123D

 90 98  0     1  0  0  0  0  0999 V2000
  -25.0769  -38.5211   21.3534 C   0  0  0  0  0  0  0  0  0  0  0  0
  -25.7070  -37.5931   20.5305 C   0  0  0  0  0  0  0  0  0  0  0  0
  -23.1054  -14.9678   23.9053 C   0  0  0  0  0  0  0  0  0  0  0  0
  -22.9327  -15.9257   21.6940 C   0  0  0  0  0  0  0  0  0  0  0  0
  -24.7092  -38.1648   22.6503 C   0  0  0  0  0  0  0  0  0  0  0  0
  -25.9708  -36.3085   21.0044 C   0  0  0  0  0  0  0  0  0  0  0  0
  -26.4094  -29.5155   18.7729 C   0  0  0  0  0  0  0  0  0  0  0  0
  -22.1505  -15.8715   24.3713 C   0  0  0  0  0  0  0  0  0  0  0  0
  -21.9778  -16.8294   22.1601 C   0  0  0  0  0  0  0  0  0  0  0  0
  -27.2783  -28.4256   18.8040 C   0  0  0  0  0  0  0  0  0  0  0  0
  -21.9304  -19.7241   23.9063 C   0  0  0  0  0  0  0  0  0  0  0  0
  -22.0589  -21.0586   23.5215 C   0  0  0  0  0  0  0  0  0  0  0  0
  -26.5266  -27.8977   21.0346 C   0  0  0  0  0  0  0  0  0  0  0  0
  -19.8890  -20.9625   22.4635 C   0  0  0  0  0  0  0  0  0  0  0  0
  -28.9093  -19.0722   16.9371 C   0  0  0  0  0  0  0  0  0  0  0  0
  -31.4109  -18.2993   17.4583 C   0  0  0  0  0  0  0  0  0  0  0  0
  -23.4965  -14.9949   22.5666 C   0  0  0  0  0  0  0  0  0  0  0  0
  -24.2516  -12.7815   21.5478 C   0  0  0  0  0  0  0  0  0  0  0  0
  -24.9599  -36.8722   23.1370 C   0  0  0  0  0  0  0  0  0  0  0  0
  -25.5992  -29.8116   19.8785 C   0  0  0  0  0  0  0  0  0  0  0  0
  -25.6073  -35.9350   22.3094 C   0  0  0  0  0  0  0  0  0  0  0  0
  -25.6465  -28.9904   21.0140 C   0  0  0  0  0  0  0  0  0  0  0  0
  -21.5867  -16.8023   23.4987 C   0  0  0  0  0  0  0  0  0  0  0  0
  -27.3391  -27.6182   19.9360 C   0  0  0  0  0  0  0  0  0  0  0  0
  -20.7812  -19.0087   23.5697 C   0  0  0  0  0  0  0  0  0  0  0  0
  -21.0382  -21.6778   22.8001 C   0  0  0  0  0  0  0  0  0  0  0  0
  -19.7605  -19.6279   22.8483 C   0  0  0  0  0  0  0  0  0  0  0  0
  -24.4832  -14.0620   22.0847 C   0  0  0  0  0  0  0  0  0  0  0  0
  -29.9429  -19.9823   16.9664 C   0  0  0  0  0  0  0  0  0  0  0  0
  -30.3773  -17.3893   17.4297 C   0  0  0  0  0  0  0  0  0  0  0  0
  -25.5034  -12.3055   21.2429 C   0  0  0  0  0  0  0  0  0  0  0  0
  -23.0155  -12.0845   21.3429 C   0  0  0  0  0  0  0  0  0  0  0  0
  -25.3312  -32.2770   21.8670 C   0  0  0  0  0  0  0  0  0  0  0  0
  -22.7901  -30.5988   22.9845 C   0  0  0  0  0  0  0  0  0  0  0  0
  -21.2496  -27.5757   23.3515 C   0  0  0  0  0  0  0  0  0  0  0  0
  -30.6977  -15.0054   19.9855 C   0  0  0  0  0  0  0  0  0  0  0  0
  -24.5867  -36.5479   24.5618 C   0  0  0  0  0  0  0  0  0  0  0  0
  -24.6479  -30.9752   19.8190 C   0  0  0  0  0  0  0  0  0  0  0  0
  -24.7827  -29.2535   22.2195 C   0  0  0  0  0  0  0  0  0  0  0  0
  -24.5647  -35.0510   24.8601 C   0  0  0  0  0  0  0  0  0  0  0  0
  -30.0783  -12.6652   22.5963 C   0  0  0  0  0  0  0  0  0  0  0  0
  -25.8150  -34.3773   24.3035 C   0  0  0  0  0  0  0  0  0  0  0  0
  -28.5532  -12.6423   22.7128 C   0  0  0  0  0  0  0  0  0  0  0  0
  -30.5988  -14.0644   22.2748 C   0  0  0  0  0  0  0  0  0  0  0  0
  -28.4628  -14.6724   21.2064 C   0  0  0  0  0  0  0  0  0  0  0  0
  -25.8882  -34.5240   22.7788 C   0  0  1  0  0  0  0  0  0  0  0  0
  -24.2425  -31.4867   21.1979 C   0  0  1  0  0  0  0  0  0  0  0  0
  -27.8868  -13.2715   21.4746 C   0  0  2  0  0  0  0  0  0  0  0  0
  -19.2022  -26.5156   24.3422 C   0  0  0  0  0  0  0  0  0  0  0  0
  -24.0182  -30.8334   25.7677 C   0  0  0  0  0  0  0  0  0  0  0  0
  -22.4874  -29.0014   26.5216 C   0  0  0  0  0  0  0  0  0  0  0  0
  -21.5392  -31.1540   25.6910 C   0  0  0  0  0  0  0  0  0  0  0  0
  -32.3290  -13.5836   16.3720 C   0  0  0  0  0  0  0  0  0  0  0  0
  -30.1908  -12.8296   15.3103 C   0  0  0  0  0  0  0  0  0  0  0  0
  -20.3244  -26.6188   20.7082 C   0  0  0  0  0  0  0  0  0  0  0  0
  -29.6837  -21.4436   16.7027 C   0  0  0  0  0  0  0  0  0  0  0  0
  -29.3627  -22.2028   17.9924 C   0  0  0  0  0  0  0  0  0  0  0  0
  -29.0656  -23.6778   17.7078 C   0  0  0  0  0  0  0  0  0  0  0  0
  -30.2309  -15.0530   16.4839 C   0  0  0  0  0  0  0  0  0  0  0  0
  -28.4758  -25.9150   18.7265 C   0  0  0  0  0  0  0  0  0  1  0  0
  -30.6333  -15.9460   17.6898 C   0  0  2  0  0  0  0  0  0  0  0  0
  -22.5882  -29.5453   24.0467 C   0  0  1  0  0  0  0  0  0  0  0  0
  -19.8185  -27.1372   23.0986 C   0  0  2  0  0  0  0  0  0  0  0  0
  -22.6761  -30.1294   25.4849 C   0  0  0  0  0  0  0  0  0  0  0  0
  -30.8069  -13.6232   16.4620 C   0  0  0  0  0  0  0  0  0  0  0  0
  -28.7727  -24.4506   18.9887 C   0  0  0  0  0  0  0  0  0  0  0  0
  -31.2123  -19.6122   17.2273 N   0  0  0  0  0  0  0  0  0  0  0  0
  -29.1079  -17.7594   17.1685 N   0  0  0  0  0  0  0  0  0  0  0  0
  -25.7801  -14.3794   22.1203 N   0  0  0  0  0  0  0  0  0  0  0  0
  -26.3748  -13.2913   21.6021 N   0  0  0  0  0  0  0  0  0  0  0  0
  -23.8734  -30.4067   22.1153 N   0  0  0  0  0  0  0  0  0  0  0  0
  -29.9278  -14.6035   21.0895 N   0  0  0  0  0  0  0  0  0  0  0  0
  -25.9328  -11.1439   20.7054 N   0  0  0  0  0  0  0  0  0  0  0  0
  -21.8216  -12.7191   21.7118 N   0  0  0  0  0  0  0  0  0  0  0  0
  -24.9897  -33.5883   22.1373 N   0  0  0  0  0  0  0  0  0  0  0  0
  -21.3176  -28.8965   23.7419 N   0  0  0  0  0  0  0  0  0  0  0  0
  -29.9826  -15.4988   18.9011 N   0  0  0  0  0  0  0  0  0  0  0  0
  -19.7712  -26.1330   21.9985 N   0  3  0  0  0  0  0  0  0  0  0  0
  -22.9722  -10.9266   20.8625 O   0  0  0  0  0  0  0  0  0  0  0  0
  -26.4014  -31.7366   22.1206 O   0  0  0  0  0  0  0  0  0  0  0  0
  -22.0110  -31.5532   22.9235 O   0  0  0  0  0  0  0  0  0  0  0  0
  -22.2107  -26.8211   23.2199 O   0  0  0  0  0  0  0  0  0  0  0  0
  -31.9306  -14.9251   19.9655 O   0  0  0  0  0  0  0  0  0  0  0  0
  -20.6548  -17.6841   23.9531 O   0  0  0  0  0  0  0  0  0  0  0  0
  -28.1867  -26.5541   19.9692 O   0  0  0  0  0  0  0  0  0  1  0  0
  -21.1611  -22.9598   22.4320 F   0  0  0  0  0  0  0  0  0  0  0  0
  -18.6536  -18.9461   22.5231 F   0  0  0  0  0  0  0  0  0  0  0  0
  -30.4435  -12.9924   17.6174 F   0  0  0  0  0  0  0  0  0  0  0  0
  -27.7135  -23.8875   19.6239 F   0  0  0  0  0  0  0  0  0  0  0  0
  -29.8352  -24.3542   19.8279 F   0  0  0  0  0  0  0  0  0  0  0  0
  1  2  1  0  0  0  0
  1  5  2  0  0  0  0
  2  6  2  0  0  0  0
  3  8  2  0  0  0  0
  3 17  1  0  0  0  0
  4  9  1  0  0  0  0
  4 17  2  0  0  0  0
  5 19  1  0  0  0  0
  6 21  1  0  0  0  0
  7 10  2  0  0  0  0
  7 20  1  0  0  0  0
  8 23  1  0  0  0  0
  9 23  2  0  0  0  0
 10 24  1  0  0  0  0
 11 12  2  0  0  0  0
 11 25  1  0  0  0  0
 12 26  1  0  0  0  0
 13 22  1  0  0  0  0
 13 24  2  0  0  0  0
 14 26  2  0  0  0  0
 14 27  1  0  0  0  0
 15 29  1  0  0  0  0
 15 68  2  0  0  0  0
 16 30  2  0  0  0  0
 16 67  1  0  0  0  0
 17 28  1  0  0  0  0
 18 28  1  0  0  0  0
 18 31  2  0  0  0  0
 18 32  1  0  0  0  0
 19 21  2  0  0  0  0
 19 37  1  0  0  0  0
 20 22  2  0  0  0  0
 20 38  1  0  0  0  0
 21 46  1  0  0  0  0
 22 39  1  0  0  0  0
 23 84  1  0  0  0  0
 24 85  1  0  0  0  0
 25 27  2  0  0  0  0
 25 84  1  0  0  0  0
 26 86  1  0  0  0  0
 27 87  1  0  0  0  0
 28 69  2  0  0  0  0
 29 56  1  0  0  0  0
 29 67  2  0  0  0  0
 30 61  1  0  0  0  0
 30 68  1  0  0  0  0
 31 70  1  0  0  0  0
 31 73  1  0  0  0  0
 32 74  1  0  0  0  0
 32 79  2  0  0  0  0
 33 47  1  0  0  0  0
 33 75  1  0  0  0  0
 33 80  2  0  0  0  0
 34 62  1  0  0  0  0
 34 71  1  0  0  0  0
 34 81  2  0  0  0  0
 35 63  1  0  0  0  0
 35 76  1  0  0  0  0
 35 82  2  0  0  0  0
 36 72  1  0  0  0  0
 36 77  1  0  0  0  0
 36 83  2  0  0  0  0
 37 40  1  0  0  0  0
 38 47  1  0  0  0  0
 39 71  1  0  0  0  0
 40 42  1  0  0  0  0
 41 43  1  0  0  0  0
 41 44  1  0  0  0  0
 42 46  1  0  0  0  0
 43 48  1  0  0  0  0
 44 72  1  0  0  0  0
 45 48  1  0  0  0  0
 45 72  1  0  0  0  0
 46 75  1  0  0  0  0
 47 71  1  0  0  0  0
 48 70  1  0  0  0  0
 49 63  1  0  0  0  0
 50 64  1  0  0  0  0
 51 64  1  0  0  0  0
 52 64  1  0  0  0  0
 53 65  1  0  0  0  0
 54 65  1  0  0  0  0
 55 78  1  0  0  0  0
 56 57  1  0  0  0  0
 57 58  1  0  0  0  0
 58 66  1  0  0  0  0
 59 61  1  0  0  0  0
 59 65  1  0  0  0  0
 60 66  1  0  0  0  0
 60 85  1  0  0  0  0
 61 77  1  0  0  0  0
 62 64  1  0  0  0  0
 62 76  1  0  0  0  0
 63 78  1  0  0  0  0
 65 88  1  0  0  0  0
 66 89  1  0  0  0  0
 66 90  1  0  0  0  0
 69 70  1  0  0  0  0
M  CHG  1  78   1
M  ISO  4  36 100  60 101  77 100  85 101
M  END
> <Batch ID>
0067

> <Smiles>
CNC(C)C(=O)NC(C(=O)N1Cc2cc([101O:1][101CH2:1]C(F)(F)CCCc3cnc(C(CC(C)(C)F)[100NH:0][100C:0](=O)N4CCCC(n5nc(-c6ccc(Oc7ccc(F)cc7F)cc6)c(C(N)=O)c5N)C4)cn3)ccc2CC1C(=O)NC1CCCc2ccccc21)C(C)(C)C

> <Shape>
0.254

> <Color>
0.106

> <Negative vol penalty>
0.000

$$$$

  -OEChem-04052318123D

 91 99  0     1  0  0  0  0  0999 V2000
  -28.9946  -35.0683   23.9059 C   0  0  0  0  0  0  0  0  0  0  0  0
  -28.9632  -33.6913   23.7102 C   0  0  0  0  0  0  0  0  0  0  0  0
  -28.7769  -10.9015   21.8284 C   0  0  0  0  0  0  0  0  0  0  0  0
  -29.9914  -12.8050   22.6880 C   0  0  0  0  0  0  0  0  0  0  0  0
  -27.8115  -35.7633   24.1529 C   0  0  0  0  0  0  0  0  0  0  0  0
  -27.7487  -33.0083   23.7624 C   0  0  0  0  0  0  0  0  0  0  0  0
  -27.2353  -29.6667   19.9921 C   0  0  0  0  0  0  0  0  0  0  0  0
  -29.6361  -10.0434   22.5145 C   0  0  0  0  0  0  0  0  0  0  0  0
  -30.8506  -11.9468   23.3742 C   0  0  0  0  0  0  0  0  0  0  0  0
  -27.9137  -28.4553   20.1182 C   0  0  0  0  0  0  0  0  0  0  0  0
  -30.0360   -8.9268   25.6809 C   0  0  0  0  0  0  0  0  0  0  0  0
  -29.4665   -7.8657   26.3847 C   0  0  0  0  0  0  0  0  0  0  0  0
  -25.8718  -27.3941   20.8419 C   0  0  0  0  0  0  0  0  0  0  0  0
  -30.7178   -6.2996   25.0361 C   0  0  0  0  0  0  0  0  0  0  0  0
  -28.9545  -12.2824   21.9151 C   0  0  0  0  0  0  0  0  0  0  0  0
  -26.8634  -13.7243   21.6791 C   0  0  0  0  0  0  0  0  0  0  0  0
  -26.5806  -35.0899   24.1986 C   0  0  0  0  0  0  0  0  0  0  0  0
  -25.8702  -29.7536   20.3009 C   0  0  0  0  0  0  0  0  0  0  0  0
  -26.5481  -33.6947   24.0115 C   0  0  0  0  0  0  0  0  0  0  0  0
  -25.1778  -28.6072   20.7164 C   0  0  0  0  0  0  0  0  0  0  0  0
  -30.6730  -10.5659   23.2874 C   0  0  0  0  0  0  0  0  0  0  0  0
  -27.2326  -27.3194   20.5459 C   0  0  0  0  0  0  0  0  0  0  0  0
  -30.9464   -8.6743   24.6546 C   0  0  0  0  0  0  0  0  0  0  0  0
  -29.8074   -6.5521   26.0623 C   0  0  0  0  0  0  0  0  0  0  0  0
  -31.2873   -7.3607   24.3322 C   0  0  0  0  0  0  0  0  0  0  0  0
  -28.0676  -13.1694   21.2061 C   0  0  0  0  0  0  0  0  0  0  0  0
  -26.4046  -14.4897   20.6350 C   0  0  0  0  0  0  0  0  0  0  0  0
  -30.8686  -17.9855   20.8242 C   0  0  0  0  0  0  0  0  0  0  0  0
  -29.5719  -18.2907   19.2172 C   0  0  0  0  0  0  0  0  0  0  0  0
  -26.2174  -13.5625   22.9488 C   0  0  0  0  0  0  0  0  0  0  0  0
  -24.1503  -31.3712   22.4290 C   0  0  0  0  0  0  0  0  0  0  0  0
  -21.6522  -30.0873   20.8061 C   0  0  0  0  0  0  0  0  0  0  0  0
  -20.4813  -27.5971   18.7875 C   0  0  0  0  0  0  0  0  0  0  0  0
  -29.5877  -16.8690   15.9719 C   0  0  0  0  0  0  0  0  0  0  0  0
  -25.3338  -35.8770   24.5157 C   0  0  0  0  0  0  0  0  0  0  0  0
  -25.1468  -31.0617   20.1340 C   0  0  0  0  0  0  0  0  0  0  0  0
  -23.7075  -28.6429   21.0408 C   0  0  0  0  0  0  0  0  0  0  0  0
  -24.0428  -35.1332   24.1832 C   0  0  0  0  0  0  0  0  0  0  0  0
  -26.5219  -14.7975   15.8678 C   0  0  0  0  0  0  0  0  0  0  0  0
  -24.1044  -33.6995   24.7003 C   0  0  0  0  0  0  0  0  0  0  0  0
  -26.5170  -14.1402   17.2469 C   0  0  0  0  0  0  0  0  0  0  0  0
  -27.9368  -15.1255   15.4008 C   0  0  0  0  0  0  0  0  0  0  0  0
  -28.7080  -15.2947   17.7440 C   0  0  0  0  0  0  0  0  0  0  0  0
  -25.2471  -32.9220   24.0360 C   0  0  1  0  0  0  0  0  0  0  0  0
  -23.8730  -31.1509   20.9688 C   0  0  1  0  0  0  0  0  0  0  0  0
  -27.2944  -14.9936   18.2641 C   0  0  2  0  0  0  0  0  0  0  0  0
  -32.0423  -17.5419   21.5855 C   0  0  0  0  0  0  0  0  0  0  0  0
  -18.3876  -26.7964   17.6593 C   0  0  0  0  0  0  0  0  0  0  0  0
  -20.6143  -29.0433   23.4786 C   0  0  0  0  0  0  0  0  0  0  0  0
  -19.1074  -27.4977   22.2104 C   0  0  0  0  0  0  0  0  0  0  0  0
  -18.8517  -29.9668   21.9639 C   0  0  0  0  0  0  0  0  0  0  0  0
  -29.1389  -23.1107   23.2126 C   0  0  0  0  0  0  0  0  0  0  0  0
  -31.0836  -22.5565   21.7710 C   0  0  0  0  0  0  0  0  0  0  0  0
  -30.3867  -24.9065   22.0049 C   0  0  0  0  0  0  0  0  0  0  0  0
  -27.9926  -24.2345   18.3002 C   0  0  0  0  0  0  0  0  0  0  0  0
  -30.4519  -24.2168   18.6689 C   0  0  0  0  0  0  0  0  0  0  0  0
  -30.7075  -19.0265   16.3855 C   0  0  0  0  0  0  0  0  0  0  0  0
  -21.6893  -27.8641   16.0989 C   0  0  0  0  0  0  0  0  0  0  0  0
  -28.8933  -18.3404   17.9097 C   0  0  0  0  0  0  0  0  0  0  0  0
  -27.9198  -21.0191   21.0333 C   0  0  0  0  0  0  0  0  0  0  0  0
  -28.7591  -21.9031   20.0938 C   0  0  0  0  0  0  0  0  0  0  0  0
  -27.7512  -19.5863   20.5122 C   0  0  0  0  0  0  0  0  0  0  0  0
  -28.9963  -25.9110   19.7962 C   0  0  0  0  0  0  0  0  0  1  0  0
  -20.8449  -28.8165   20.9171 C   0  0  1  0  0  0  0  0  0  0  0  0
  -19.6476  -27.6365   17.5195 C   0  0  2  0  0  0  0  0  0  0  0  0
  -28.8805  -23.3883   20.5957 C   0  0  1  0  0  0  0  0  0  0  0  0
  -19.8827  -28.8305   22.1383 C   0  0  0  0  0  0  0  0  0  0  0  0
  -29.8387  -23.4548   21.8781 C   0  0  0  0  0  0  0  0  0  0  0  0
  -29.1016  -24.4156   19.3784 C   0  0  0  0  0  0  0  0  0  0  0  0
  -28.3556  -13.5497   19.9585 N   0  0  0  0  0  0  0  0  0  0  0  0
  -30.7291  -17.7337   19.4894 N   0  0  0  0  0  0  0  0  0  0  0  0
  -29.8704  -18.6631   21.3951 N   0  0  0  0  0  0  0  0  0  0  0  0
  -27.3258  -14.3518   19.6387 N   0  0  0  0  0  0  0  0  0  0  0  0
  -29.0544  -18.8459   20.3458 N   0  0  0  0  0  0  0  0  0  0  0  0
  -23.0459  -29.9468   20.8681 N   0  0  0  0  0  0  0  0  0  0  0  0
  -28.6675  -15.9001   16.4045 N   0  0  0  0  0  0  0  0  0  0  0  0
  -25.3070  -15.2605   20.4811 N   0  0  0  0  0  0  0  0  0  0  0  0
  -26.8251  -12.7407   23.9077 N   0  0  0  0  0  0  0  0  0  0  0  0
  -24.8726  -32.5181   22.6977 N   0  0  0  0  0  0  0  0  0  0  0  0
  -20.1767  -28.6438   19.6318 N   0  0  0  0  0  0  0  0  0  0  0  0
  -29.7725  -17.9890   16.7967 N   0  0  0  0  0  0  0  0  0  0  0  0
  -20.4342  -27.1156   16.3659 N   0  3  0  0  0  0  0  0  0  0  0  0
  -25.1250  -14.1168   23.2189 O   0  0  0  0  0  0  0  0  0  0  0  0
  -23.7380  -30.5613   23.2511 O   0  0  0  0  0  0  0  0  0  0  0  0
  -21.0681  -31.1642   20.6622 O   0  0  0  0  0  0  0  0  0  0  0  0
  -21.3165  -26.7230   19.0087 O   0  0  0  0  0  0  0  0  0  0  0  0
  -30.2017  -16.7450   14.9044 O   0  0  0  0  0  0  0  0  0  0  0  0
  -31.5115   -9.7288   23.9573 O   0  0  0  0  0  0  0  0  0  0  0  0
  -27.8973  -26.1273   20.6714 O   0  0  0  0  0  0  0  0  0  1  0  0
  -29.2616   -5.5333   26.7393 F   0  0  0  0  0  0  0  0  0  0  0  0
  -32.1621   -7.1119   23.3481 F   0  0  0  0  0  0  0  0  0  0  0  0
  1  2  1  0  0  0  0
  1  5  2  0  0  0  0
  2  6  2  0  0  0  0
  3  8  2  0  0  0  0
  3 15  1  0  0  0  0
  4  9  1  0  0  0  0
  4 15  2  0  0  0  0
  5 17  1  0  0  0  0
  6 19  1  0  0  0  0
  7 10  2  0  0  0  0
  7 18  1  0  0  0  0
  8 21  1  0  0  0  0
  9 21  2  0  0  0  0
 10 22  1  0  0  0  0
 11 12  2  0  0  0  0
 11 23  1  0  0  0  0
 12 24  1  0  0  0  0
 13 20  1  0  0  0  0
 13 22  2  0  0  0  0
 14 24  2  0  0  0  0
 14 25  1  0  0  0  0
 15 26  1  0  0  0  0
 16 26  1  0  0  0  0
 16 27  2  0  0  0  0
 16 30  1  0  0  0  0
 17 19  2  0  0  0  0
 17 35  1  0  0  0  0
 18 20  2  0  0  0  0
 18 36  1  0  0  0  0
 19 44  1  0  0  0  0
 20 37  1  0  0  0  0
 21 88  1  0  0  0  0
 22 89  1  0  0  0  0
 23 25  2  0  0  0  0
 23 88  1  0  0  0  0
 24 90  1  0  0  0  0
 25 91  1  0  0  0  0
 26 70  2  0  0  0  0
 27 73  1  0  0  0  0
 27 77  1  0  0  0  0
 28 47  1  0  0  0  0
 28 71  1  0  0  0  0
 28 72  2  0  0  0  0
 29 59  1  0  0  0  0
 29 71  2  0  0  0  0
 29 74  1  0  0  0  0
 30 78  1  0  0  0  0
 30 83  2  0  0  0  0
 31 45  1  0  0  0  0
 31 79  1  0  0  0  0
 31 84  2  0  0  0  0
 32 64  1  0  0  0  0
 32 75  1  0  0  0  0
 32 85  2  0  0  0  0
 33 65  1  0  0  0  0
 33 80  1  0  0  0  0
 33 86  2  0  0  0  0
 34 76  1  0  0  0  0
 34 81  1  0  0  0  0
 34 87  2  0  0  0  0
 35 38  1  0  0  0  0
 36 45  1  0  0  0  0
 37 75  1  0  0  0  0
 38 40  1  0  0  0  0
 39 41  1  0  0  0  0
 39 42  1  0  0  0  0
 40 44  1  0  0  0  0
 41 46  1  0  0  0  0
 42 76  1  0  0  0  0
 43 46  1  0  0  0  0
 43 76  1  0  0  0  0
 44 79  1  0  0  0  0
 45 75  1  0  0  0  0
 46 73  1  0  0  0  0
 48 65  1  0  0  0  0
 49 67  1  0  0  0  0
 50 67  1  0  0  0  0
 51 67  1  0  0  0  0
 52 68  1  0  0  0  0
 53 68  1  0  0  0  0
 54 68  1  0  0  0  0
 55 69  1  0  0  0  0
 56 69  1  0  0  0  0
 57 81  1  0  0  0  0
 58 82  1  0  0  0  0
 59 81  1  0  0  0  0
 60 61  1  0  0  0  0
 60 62  1  0  0  0  0
 61 66  1  0  0  0  0
 62 74  1  0  0  0  0
 63 69  1  0  0  0  0
 63 89  1  0  0  0  0
 64 67  1  0  0  0  0
 64 80  1  0  0  0  0
 65 82  1  0  0  0  0
 66 68  1  0  0  0  0
 66 69  1  0  0  0  0
 70 73  1  0  0  0  0
 72 74  1  0  0  0  0
M  CHG  1  82   1
M  ISO  4  34 100  63 101  81 100  89 101
M  END
> <Batch ID>
0067

> <Smiles>
CNC(C)C(=O)NC(C(=O)N1Cc2cc([101O:1][101CH2:1]C(C)(C)C(CCCn3nc(C)nc3C[100N:0](C)[100C:0](=O)N3CCCC(n4nc(-c5ccc(Oc6ccc(F)cc6F)cc5)c(C(N)=O)c4N)C3)C(C)(C)C)ccc2CC1C(=O)NC1CCCc2ccccc21)C(C)(C)C

> <Shape>
0.267

> <Color>
0.080

> <Negative vol penalty>
0.000

$$$$

  -OEChem-04052318123D

 91 99  0     1  0  0  0  0  0999 V2000
  -23.8748  -32.1708   19.5110 C   0  0  0  0  0  0  0  0  0  0  0  0
  -23.8821  -30.8343   19.1248 C   0  0  0  0  0  0  0  0  0  0  0  0
  -23.2325   -9.7532   19.9855 C   0  0  0  0  0  0  0  0  0  0  0  0
  -23.9368   -9.8926   22.2924 C   0  0  0  0  0  0  0  0  0  0  0  0
  -25.0367  -32.7570   20.0114 C   0  0  0  0  0  0  0  0  0  0  0  0
  -25.0517  -30.0835   19.2376 C   0  0  0  0  0  0  0  0  0  0  0  0
  -25.4879  -24.1343   20.6242 C   0  0  0  0  0  0  0  0  0  0  0  0
  -22.5651   -8.5599   20.2614 C   0  0  0  0  0  0  0  0  0  0  0  0
  -23.2693   -8.6993   22.5683 C   0  0  0  0  0  0  0  0  0  0  0  0
  -25.6530  -22.9969   19.8350 C   0  0  0  0  0  0  0  0  0  0  0  0
  -20.0914   -7.6976   23.1323 C   0  0  0  0  0  0  0  0  0  0  0  0
  -19.3122   -7.6449   24.2879 C   0  0  0  0  0  0  0  0  0  0  0  0
  -28.0317  -23.0765   20.2283 C   0  0  0  0  0  0  0  0  0  0  0  0
  -20.6680   -5.8261   25.1191 C   0  0  0  0  0  0  0  0  0  0  0  0
  -27.0773  -18.1688   23.2528 C   0  0  0  0  0  0  0  0  0  0  0  0
  -23.9184  -10.4196   21.0010 C   0  0  0  0  0  0  0  0  0  0  0  0
  -24.0864  -12.9569   20.7973 C   0  0  0  0  0  0  0  0  0  0  0  0
  -26.2185  -32.0103   20.1394 C   0  0  0  0  0  0  0  0  0  0  0  0
  -26.5967  -24.7588   21.2135 C   0  0  0  0  0  0  0  0  0  0  0  0
  -26.2308  -30.6606   19.7389 C   0  0  0  0  0  0  0  0  0  0  0  0
  -27.8777  -24.2202   21.0266 C   0  0  0  0  0  0  0  0  0  0  0  0
  -22.5834   -8.0330   21.5528 C   0  0  0  0  0  0  0  0  0  0  0  0
  -26.9253  -22.4695   19.6346 C   0  0  0  0  0  0  0  0  0  0  0  0
  -21.1589   -6.8146   22.9700 C   0  0  0  0  0  0  0  0  0  0  0  0
  -19.6005   -6.7092   25.2814 C   0  0  0  0  0  0  0  0  0  0  0  0
  -21.4472   -5.8788   23.9634 C   0  0  0  0  0  0  0  0  0  0  0  0
  -24.6085  -11.6520   20.7165 C   0  0  0  0  0  0  0  0  0  0  0  0
  -27.9003  -17.7458   24.2766 C   0  0  0  0  0  0  0  0  0  0  0  0
  -27.6484  -18.1869   21.9966 C   0  0  0  0  0  0  0  0  0  0  0  0
  -25.1319  -13.7684   20.4299 C   0  0  0  0  0  0  0  0  0  0  0  0
  -29.6234  -17.4291   22.8284 C   0  0  0  0  0  0  0  0  0  0  0  0
  -22.7738  -13.3962   21.1710 C   0  0  0  0  0  0  0  0  0  0  0  0
  -27.9415  -27.6293   20.9790 C   0  0  0  0  0  0  0  0  0  0  0  0
  -29.8023  -26.5250   23.3957 C   0  0  0  0  0  0  0  0  0  0  0  0
  -31.1216  -23.8433   25.0432 C   0  0  0  0  0  0  0  0  0  0  0  0
  -30.8882  -14.1393   20.9213 C   0  0  0  0  0  0  0  0  0  0  0  0
  -27.4622  -32.7002   20.6413 C   0  0  0  0  0  0  0  0  0  0  0  0
  -26.3988  -25.9694   22.0839 C   0  0  0  0  0  0  0  0  0  0  0  0
  -29.0982  -24.8413   21.6537 C   0  0  0  0  0  0  0  0  0  0  0  0
  -28.5598  -31.7341   21.0798 C   0  0  0  0  0  0  0  0  0  0  0  0
  -29.3237  -13.1158   17.8912 C   0  0  0  0  0  0  0  0  0  0  0  0
  -28.7518  -30.6361   20.0385 C   0  0  0  0  0  0  0  0  0  0  0  0
  -27.8998  -12.7553   18.3184 C   0  0  0  0  0  0  0  0  0  0  0  0
  -30.3473  -12.7304   18.9569 C   0  0  0  0  0  0  0  0  0  0  0  0
  -28.6454  -12.9024   20.7311 C   0  0  0  0  0  0  0  0  0  0  0  0
  -27.4733  -29.8065   19.8693 C   0  0  1  0  0  0  0  0  0  0  0  0
  -27.6562  -26.8233   22.2146 C   0  0  1  0  0  0  0  0  0  0  0  0
  -27.5720  -13.3228   19.7126 C   0  0  2  0  0  0  0  0  0  0  0  0
  -28.1253  -18.6398   26.6227 C   0  0  0  0  0  0  0  0  0  0  0  0
  -27.3723  -16.2636   26.2460 C   0  0  0  0  0  0  0  0  0  0  0  0
  -32.3730  -22.5864   26.8185 C   0  0  0  0  0  0  0  0  0  0  0  0
  -32.2278  -27.2649   21.6989 C   0  0  0  0  0  0  0  0  0  0  0  0
  -33.6262  -25.8237   23.1941 C   0  0  0  0  0  0  0  0  0  0  0  0
  -32.4480  -27.8138   24.1288 C   0  0  0  0  0  0  0  0  0  0  0  0
  -33.0797  -20.1119   23.9570 C   0  0  0  0  0  0  0  0  0  0  0  0
  -32.2856  -19.7401   21.6133 C   0  0  0  0  0  0  0  0  0  0  0  0
  -28.7177  -23.6404   26.7574 C   0  0  0  0  0  0  0  0  0  0  0  0
  -26.5481  -19.0254   18.5824 C   0  0  0  0  0  0  0  0  0  0  0  0
  -32.0875  -17.8792   23.3645 C   0  0  0  0  0  0  0  0  0  0  0  0
  -31.2783  -15.5241   22.9435 C   0  0  0  0  0  0  0  0  0  0  0  0
  -26.0109  -20.4257   18.8329 C   0  0  0  0  0  0  0  0  0  1  0  0
  -27.5344  -18.5939   19.6563 C   0  0  0  0  0  0  0  0  0  0  0  0
  -27.3714  -17.6924   25.6705 C   0  0  0  0  0  0  0  0  0  0  0  0
  -31.0373  -17.0182   22.5927 C   0  0  1  0  0  0  0  0  0  0  0  0
  -31.1071  -25.7706   23.4813 C   0  0  1  0  0  0  0  0  0  0  0  0
  -31.2008  -23.5087   26.5218 C   0  0  2  0  0  0  0  0  0  0  0  0
  -32.3297  -26.6574   23.1123 C   0  0  0  0  0  0  0  0  0  0  0  0
  -32.0527  -19.3950   23.0808 C   0  0  0  0  0  0  0  0  0  0  0  0
  -25.8863  -11.6310   20.3282 N   0  0  0  0  0  0  0  0  0  0  0  0
  -29.1831  -17.3673   24.0995 N   0  0  0  0  0  0  0  0  0  0  0  0
  -28.9233  -17.8225   21.7474 N   0  0  0  0  0  0  0  0  0  0  0  0
  -26.1759  -12.9328   20.1616 N   0  0  0  0  0  0  0  0  0  0  0  0
  -28.8538  -26.0273   22.4910 N   0  0  0  0  0  0  0  0  0  0  0  0
  -29.9791  -13.3013   20.2547 N   0  0  0  0  0  0  0  0  0  0  0  0
  -25.2508  -15.1080   20.3134 N   0  0  0  0  0  0  0  0  0  0  0  0
  -21.8200  -12.4302   21.5198 N   0  0  0  0  0  0  0  0  0  0  0  0
  -27.3309  -28.8688   20.9625 N   0  0  0  0  0  0  0  0  0  0  0  0
  -31.1636  -25.2040   24.8245 N   0  0  0  0  0  0  0  0  0  0  0  0
  -30.4578  -14.6431   22.1426 N   0  0  0  0  0  0  0  0  0  0  0  0
  -29.9484  -22.8355   26.9683 N   0  3  0  0  0  0  0  0  0  0  0  0
  -22.4512  -14.6084   21.1791 O   0  0  0  0  0  0  0  0  0  0  0  0
  -28.6634  -27.1619   20.1060 O   0  0  0  0  0  0  0  0  0  0  0  0
  -29.6282  -27.5151   24.1105 O   0  0  0  0  0  0  0  0  0  0  0  0
  -31.0353  -22.9833   24.1694 O   0  0  0  0  0  0  0  0  0  0  0  0
  -31.9990  -14.4221   20.4595 O   0  0  0  0  0  0  0  0  0  0  0  0
  -21.9321   -6.8687   21.8224 O   0  0  0  0  0  0  0  0  0  0  0  0
  -27.0893  -21.3598   18.8642 O   0  0  0  0  0  0  0  0  0  1  0  0
  -26.8960  -18.5949   20.9261 O   0  0  0  0  0  0  0  0  0  0  0  0
  -18.8530   -6.6597   26.3918 F   0  0  0  0  0  0  0  0  0  0  0  0
  -22.4722   -5.0287   23.8137 F   0  0  0  0  0  0  0  0  0  0  0  0
  -30.8269  -19.8809   23.4326 F   0  0  0  0  0  0  0  0  0  0  0  0
  1  2  1  0  0  0  0
  1  5  2  0  0  0  0
  2  6  2  0  0  0  0
  3  8  2  0  0  0  0
  3 16  1  0  0  0  0
  4  9  1  0  0  0  0
  4 16  2  0  0  0  0
  5 18  1  0  0  0  0
  6 20  1  0  0  0  0
  7 10  2  0  0  0  0
  7 19  1  0  0  0  0
  8 22  1  0  0  0  0
  9 22  2  0  0  0  0
 10 23  1  0  0  0  0
 11 12  2  0  0  0  0
 11 24  1  0  0  0  0
 12 25  1  0  0  0  0
 13 21  1  0  0  0  0
 13 23  2  0  0  0  0
 14 25  2  0  0  0  0
 14 26  1  0  0  0  0
 15 28  2  0  0  0  0
 15 29  1  0  0  0  0
 16 27  1  0  0  0  0
 17 27  1  0  0  0  0
 17 30  2  0  0  0  0
 17 32  1  0  0  0  0
 18 20  2  0  0  0  0
 18 37  1  0  0  0  0
 19 21  2  0  0  0  0
 19 38  1  0  0  0  0
 20 46  1  0  0  0  0
 21 39  1  0  0  0  0
 22 86  1  0  0  0  0
 23 87  1  0  0  0  0
 24 26  2  0  0  0  0
 24 86  1  0  0  0  0
 25 89  1  0  0  0  0
 26 90  1  0  0  0  0
 27 69  2  0  0  0  0
 28 63  1  0  0  0  0
 28 70  1  0  0  0  0
 29 71  2  0  0  0  0
 29 88  1  0  0  0  0
 30 72  1  0  0  0  0
 30 75  1  0  0  0  0
 31 64  1  0  0  0  0
 31 70  2  0  0  0  0
 31 71  1  0  0  0  0
 32 76  1  0  0  0  0
 32 81  2  0  0  0  0
 33 47  1  0  0  0  0
 33 77  1  0  0  0  0
 33 82  2  0  0  0  0
 34 65  1  0  0  0  0
 34 73  1  0  0  0  0
 34 83  2  0  0  0  0
 35 66  1  0  0  0  0
 35 78  1  0  0  0  0
 35 84  2  0  0  0  0
 36 74  1  0  0  0  0
 36 79  1  0  0  0  0
 36 85  2  0  0  0  0
 37 40  1  0  0  0  0
 38 47  1  0  0  0  0
 39 73  1  0  0  0  0
 40 42  1  0  0  0  0
 41 43  1  0  0  0  0
 41 44  1  0  0  0  0
 42 46  1  0  0  0  0
 43 48  1  0  0  0  0
 44 74  1  0  0  0  0
 45 48  1  0  0  0  0
 45 74  1  0  0  0  0
 46 77  1  0  0  0  0
 47 73  1  0  0  0  0
 48 72  1  0  0  0  0
 49 63  1  0  0  0  0
 50 63  1  0  0  0  0
 51 66  1  0  0  0  0
 52 67  1  0  0  0  0
 53 67  1  0  0  0  0
 54 67  1  0  0  0  0
 55 68  1  0  0  0  0
 56 68  1  0  0  0  0
 57 80  1  0  0  0  0
 58 61  1  0  0  0  0
 58 62  1  0  0  0  0
 59 64  1  0  0  0  0
 59 68  1  0  0  0  0
 60 64  1  0  0  0  0
 60 79  1  0  0  0  0
 61 87  1  0  0  0  0
 62 88  1  0  0  0  0
 65 67  1  0  0  0  0
 65 78  1  0  0  0  0
 66 80  1  0  0  0  0
 68 91  1  0  0  0  0
 69 72  1  0  0  0  0
M  CHG  1  80   1
M  ISO  4  36 100  61 101  79 100  87 101
M  END
> <Batch ID>
0067

> <Smiles>
CNC(C)C(=O)NC(C(=O)N1Cc2cc([101O:1][101CH2:1]CCOc3cc(C(C)C)nc(C(C[100NH:0][100C:0](=O)N4CCCC(n5nc(-c6ccc(Oc7ccc(F)cc7F)cc6)c(C(N)=O)c5N)C4)CC(C)(C)F)n3)ccc2CC1C(=O)NC1CCCc2ccccc21)C(C)(C)C

> <Shape>
0.242

> <Color>
0.191

> <Negative vol penalty>
0.000

$$$$

  -OEChem-04052318123D

 89 97  0     1  0  0  0  0  0999 V2000
  -16.8625  -28.7592   24.2338 C   0  0  0  0  0  0  0  0  0  0  0  0
  -17.4582  -27.7853   23.4388 C   0  0  0  0  0  0  0  0  0  0  0  0
  -28.5924  -17.1180   19.0447 C   0  0  0  0  0  0  0  0  0  0  0  0
  -27.1328  -17.8635   20.8197 C   0  0  0  0  0  0  0  0  0  0  0  0
  -17.3544  -30.0637   24.2221 C   0  0  0  0  0  0  0  0  0  0  0  0
  -18.5456  -28.1156   22.6308 C   0  0  0  0  0  0  0  0  0  0  0  0
  -22.2643  -24.6872   22.8810 C   0  0  0  0  0  0  0  0  0  0  0  0
  -29.2542  -18.3455   19.0733 C   0  0  0  0  0  0  0  0  0  0  0  0
  -27.7946  -19.0911   20.8484 C   0  0  0  0  0  0  0  0  0  0  0  0
  -22.0933  -23.5084   22.1564 C   0  0  0  0  0  0  0  0  0  0  0  0
  -30.6802  -20.3347   22.0922 C   0  0  0  0  0  0  0  0  0  0  0  0
  -31.0194  -20.8574   23.3401 C   0  0  0  0  0  0  0  0  0  0  0  0
  -23.5159  -24.3800   20.4141 C   0  0  0  0  0  0  0  0  0  0  0  0
  -29.6729  -22.8117   22.8875 C   0  0  0  0  0  0  0  0  0  0  0  0
  -23.8510  -14.9970   21.5942 C   0  0  0  0  0  0  0  0  0  0  0  0
  -27.5316  -16.8770   19.9179 C   0  0  0  0  0  0  0  0  0  0  0  0
  -27.1617  -14.4560   20.6317 C   0  0  0  0  0  0  0  0  0  0  0  0
  -18.4544  -30.4080   23.4209 C   0  0  0  0  0  0  0  0  0  0  0  0
  -23.0549  -25.7274   22.3716 C   0  0  0  0  0  0  0  0  0  0  0  0
  -19.0519  -29.4263   22.6074 C   0  0  0  0  0  0  0  0  0  0  0  0
  -23.6974  -25.5700   21.1353 C   0  0  0  0  0  0  0  0  0  0  0  0
  -28.8553  -19.3320   19.9752 C   0  0  0  0  0  0  0  0  0  0  0  0
  -22.7168  -23.3558   20.9215 C   0  0  0  0  0  0  0  0  0  0  0  0
  -29.8375  -21.0505   21.2418 C   0  0  0  0  0  0  0  0  0  0  0  0
  -30.5157  -22.0959   23.7378 C   0  0  0  0  0  0  0  0  0  0  0  0
  -29.3338  -22.2890   21.6395 C   0  0  0  0  0  0  0  0  0  0  0  0
  -26.8472  -15.6094   19.8884 C   0  0  0  0  0  0  0  0  0  0  0  0
  -26.2207  -13.5324   20.2470 C   0  0  0  0  0  0  0  0  0  0  0  0
  -22.0949  -13.8707   21.5256 C   0  0  0  0  0  0  0  0  0  0  0  0
  -28.2106  -14.2389   21.5848 C   0  0  0  0  0  0  0  0  0  0  0  0
  -22.5206  -28.7460   21.5312 C   0  0  0  0  0  0  0  0  0  0  0  0
  -20.8901  -12.2600   19.1270 C   0  0  0  0  0  0  0  0  0  0  0  0
  -25.7419  -28.8023   21.1542 C   0  0  0  0  0  0  0  0  0  0  0  0
  -28.6233  -27.0639   20.5866 C   0  0  0  0  0  0  0  0  0  0  0  0
  -18.9210  -31.8421   23.4059 C   0  0  0  0  0  0  0  0  0  0  0  0
  -23.2509  -26.9820   23.1778 C   0  0  0  0  0  0  0  0  0  0  0  0
  -24.5729  -26.6487   20.5536 C   0  0  0  0  0  0  0  0  0  0  0  0
  -20.3125  -32.0237   22.8051 C   0  0  0  0  0  0  0  0  0  0  0  0
  -22.8741  -13.6083   16.4651 C   0  0  0  0  0  0  0  0  0  0  0  0
  -20.4365  -31.2436   21.5002 C   0  0  0  0  0  0  0  0  0  0  0  0
  -24.0958  -14.1811   17.1826 C   0  0  0  0  0  0  0  0  0  0  0  0
  -21.6093  -13.7668   17.3031 C   0  0  0  0  0  0  0  0  0  0  0  0
  -22.9326  -13.7528   19.3936 C   0  0  0  0  0  0  0  0  0  0  0  0
  -20.2489  -29.7401   21.7363 C   0  0  1  0  0  0  0  0  0  0  0  0
  -23.6622  -28.1802   22.3277 C   0  0  1  0  0  0  0  0  0  0  0  0
  -24.2372  -13.5855   18.5946 C   0  0  2  0  0  0  0  0  0  0  0  0
  -31.0875  -26.6567   20.3432 C   0  0  0  0  0  0  0  0  0  0  0  0
  -19.5678  -13.3719   21.6998 C   0  0  0  0  0  0  0  0  0  0  0  0
  -21.2110  -12.0964   23.0522 C   0  0  0  0  0  0  0  0  0  0  0  0
  -25.2672  -29.8472   18.3270 C   0  0  0  0  0  0  0  0  0  0  0  0
  -27.6376  -29.2518   17.7839 C   0  0  0  0  0  0  0  0  0  0  0  0
  -27.1524  -30.9512   19.5444 C   0  0  0  0  0  0  0  0  0  0  0  0
  -21.0458  -18.2094   21.1377 C   0  0  0  0  0  0  0  0  0  0  0  0
  -23.1395  -18.4376   22.4607 C   0  0  0  0  0  0  0  0  0  0  0  0
  -24.4543  -19.9893   20.0833 C   0  0  0  0  0  0  0  0  0  0  0  0
  -22.3544  -19.7520   18.7826 C   0  0  0  0  0  0  0  0  0  0  0  0
  -28.9383  -26.5282   23.4801 C   0  0  0  0  0  0  0  0  0  0  0  0
  -23.1836  -17.1571   20.2577 C   0  0  0  0  0  0  0  0  0  0  0  0
  -22.4889  -10.9848   20.5195 C   0  0  0  0  0  0  0  0  0  0  0  0
  -22.3329  -21.0090   20.9568 C   0  0  0  0  0  0  0  0  0  1  0  0
  -21.1456  -11.7289   20.5150 C   0  0  1  0  0  0  0  0  0  0  0  0
  -26.6904  -28.5107   20.0165 C   0  0  1  0  0  0  0  0  0  0  0  0
  -29.9735  -27.0981   21.2796 C   0  0  2  0  0  0  0  0  0  0  0  0
  -21.0643  -12.8458   21.6669 C   0  0  0  0  0  0  0  0  0  0  0  0
  -26.6689  -29.6205   18.9278 C   0  0  0  0  0  0  0  0  0  0  0  0
  -22.5800  -18.3975   21.0151 C   0  0  0  0  0  0  0  0  0  0  0  0
  -22.9241  -19.7666   20.2258 C   0  0  0  0  0  0  0  0  0  0  0  0
  -23.3171  -13.8078   22.0008 N   0  0  0  0  0  0  0  0  0  0  0  0
  -25.7892  -15.4368   19.0916 N   0  0  0  0  0  0  0  0  0  0  0  0
  -21.9197  -15.0480   20.8678 N   0  0  0  0  0  0  0  0  0  0  0  0
  -23.0360  -15.7918   20.8974 N   0  0  0  0  0  0  0  0  0  0  0  0
  -25.4308  -14.1641   19.3320 N   0  0  0  0  0  0  0  0  0  0  0  0
  -24.7285  -27.8593   21.3769 N   0  0  0  0  0  0  0  0  0  0  0  0
  -21.7916  -13.2088   18.6442 N   0  0  0  0  0  0  0  0  0  0  0  0
  -26.0003  -12.2497   20.6055 N   0  0  0  0  0  0  0  0  0  0  0  0
  -29.0895  -15.2946   21.8631 N   0  0  0  0  0  0  0  0  0  0  0  0
  -21.4506  -29.1631   22.2997 N   0  0  0  0  0  0  0  0  0  0  0  0
  -27.9997  -28.2932   20.6222 N   0  0  0  0  0  0  0  0  0  0  0  0
  -22.4198   -9.8178   19.5980 N   0  3  0  0  0  0  0  0  0  0  0  0
  -29.9703  -26.1947   22.4649 N   0  3  0  0  0  0  0  0  0  0  0  0
  -28.3740  -13.1362   22.1600 O   0  0  0  0  0  0  0  0  0  0  0  0
  -22.6049  -28.8014   20.3100 O   0  0  0  0  0  0  0  0  0  0  0  0
  -19.9194  -11.8407   18.4912 O   0  0  0  0  0  0  0  0  0  0  0  0
  -25.8988  -29.8254   21.8253 O   0  0  0  0  0  0  0  0  0  0  0  0
  -28.1691  -26.0492   20.0625 O   0  0  0  0  0  0  0  0  0  0  0  0
  -29.5011  -20.5299   20.0035 O   0  0  0  0  0  0  0  0  0  0  0  0
  -22.5510  -22.2065   20.2119 O   0  0  0  0  0  0  0  0  0  1  0  0
  -30.8402  -22.5971   24.9368 F   0  0  0  0  0  0  0  0  0  0  0  0
  -28.5228  -22.9807   20.8274 F   0  0  0  0  0  0  0  0  0  0  0  0
  1  2  1  0  0  0  0
  1  5  2  0  0  0  0
  2  6  2  0  0  0  0
  3  8  2  0  0  0  0
  3 16  1  0  0  0  0
  4  9  1  0  0  0  0
  4 16  2  0  0  0  0
  5 18  1  0  0  0  0
  6 20  1  0  0  0  0
  7 10  2  0  0  0  0
  7 19  1  0  0  0  0
  8 22  1  0  0  0  0
  9 22  2  0  0  0  0
 10 23  1  0  0  0  0
 11 12  2  0  0  0  0
 11 24  1  0  0  0  0
 12 25  1  0  0  0  0
 13 21  1  0  0  0  0
 13 23  2  0  0  0  0
 14 25  2  0  0  0  0
 14 26  1  0  0  0  0
 15 68  2  0  0  0  0
 15 71  1  0  0  0  0
 16 27  1  0  0  0  0
 17 27  1  0  0  0  0
 17 28  2  0  0  0  0
 17 30  1  0  0  0  0
 18 20  2  0  0  0  0
 18 35  1  0  0  0  0
 19 21  2  0  0  0  0
 19 36  1  0  0  0  0
 20 44  1  0  0  0  0
 21 37  1  0  0  0  0
 22 86  1  0  0  0  0
 23 87  1  0  0  0  0
 24 26  2  0  0  0  0
 24 86  1  0  0  0  0
 25 88  1  0  0  0  0
 26 89  1  0  0  0  0
 27 69  2  0  0  0  0
 28 72  1  0  0  0  0
 28 75  1  0  0  0  0
 29 64  1  0  0  0  0
 29 68  1  0  0  0  0
 29 70  2  0  0  0  0
 30 76  1  0  0  0  0
 30 81  2  0  0  0  0
 31 45  1  0  0  0  0
 31 77  1  0  0  0  0
 31 82  2  0  0  0  0
 32 61  1  0  0  0  0
 32 74  1  0  0  0  0
 32 83  2  0  0  0  0
 33 62  1  0  0  0  0
 33 73  1  0  0  0  0
 33 84  2  0  0  0  0
 34 63  1  0  0  0  0
 34 78  1  0  0  0  0
 34 85  2  0  0  0  0
 35 38  1  0  0  0  0
 36 45  1  0  0  0  0
 37 73  1  0  0  0  0
 38 40  1  0  0  0  0
 39 41  1  0  0  0  0
 39 42  1  0  0  0  0
 40 44  1  0  0  0  0
 41 46  1  0  0  0  0
 42 74  1  0  0  0  0
 43 46  1  0  0  0  0
 43 74  1  0  0  0  0
 44 77  1  0  0  0  0
 45 73  1  0  0  0  0
 46 72  1  0  0  0  0
 47 63  1  0  0  0  0
 48 64  1  0  0  0  0
 49 64  1  0  0  0  0
 50 65  1  0  0  0  0
 51 65  1  0  0  0  0
 52 65  1  0  0  0  0
 53 66  1  0  0  0  0
 54 66  1  0  0  0  0
 55 67  1  0  0  0  0
 56 67  1  0  0  0  0
 57 80  1  0  0  0  0
 58 66  1  0  0  0  0
 58 71  1  0  0  0  0
 59 61  1  0  0  0  0
 59 79  1  0  0  0  0
 60 67  1  0  0  0  0
 60 87  1  0  0  0  0
 61 64  1  0  0  0  0
 62 65  1  0  0  0  0
 62 78  1  0  0  0  0
 63 80  1  0  0  0  0
 66 67  1  0  0  0  0
 69 72  1  0  0  0  0
 70 71  1  0  0  0  0
M  CHG  2  79   1  80   1
M  ISO  4  32 100  60 101  61 100  87 101
M  END
> <Batch ID>
0067

> <Smiles>
CNC(C)C(=O)NC(C(=O)N1Cc2cc([101O:1][101CH2:1]C(C)(C)C(C)(C)Cn3cnc(C(C)(C)[100CH:0](CN)[100C:0](=O)N4CCCC(n5nc(-c6ccc(Oc7ccc(F)cc7F)cc6)c(C(N)=O)c5N)C4)n3)ccc2CC1C(=O)NC1CCCc2ccccc21)C(C)(C)C

> <Shape>
0.235

> <Color>
0.089

> <Negative vol penalty>
0.000

$$$$

  -OEChem-04052318123D

 88 96  0     1  0  0  0  0  0999 V2000
  -26.9348  -27.5292   20.5106 C   0  0  0  0  0  0  0  0  0  0  0  0
  -26.5940  -27.1875   19.2067 C   0  0  0  0  0  0  0  0  0  0  0  0
  -20.2406  -25.4183   24.0874 C   0  0  0  0  0  0  0  0  0  0  0  0
  -20.8462  -25.1570   21.7632 C   0  0  0  0  0  0  0  0  0  0  0  0
  -28.2174  -27.2619   20.9846 C   0  0  0  0  0  0  0  0  0  0  0  0
  -27.5319  -26.5677   18.3803 C   0  0  0  0  0  0  0  0  0  0  0  0
  -30.7557  -19.6788   17.1945 C   0  0  0  0  0  0  0  0  0  0  0  0
  -20.0282  -26.7810   23.8788 C   0  0  0  0  0  0  0  0  0  0  0  0
  -20.6337  -26.5197   21.5545 C   0  0  0  0  0  0  0  0  0  0  0  0
  -31.0516  -18.6807   18.1219 C   0  0  0  0  0  0  0  0  0  0  0  0
  -18.9778  -30.2612   23.8751 C   0  0  0  0  0  0  0  0  0  0  0  0
  -17.8261  -30.8288   24.4201 C   0  0  0  0  0  0  0  0  0  0  0  0
  -28.9155  -19.0417   19.1829 C   0  0  0  0  0  0  0  0  0  0  0  0
  -16.4643  -29.3227   23.1109 C   0  0  0  0  0  0  0  0  0  0  0  0
  -26.0204  -15.9278   18.6492 C   0  0  0  0  0  0  0  0  0  0  0  0
  -20.6497  -24.6063   23.0296 C   0  0  0  0  0  0  0  0  0  0  0  0
  -19.9271  -22.1613   23.1153 C   0  0  0  0  0  0  0  0  0  0  0  0
  -29.1747  -26.6498   20.1588 C   0  0  0  0  0  0  0  0  0  0  0  0
  -29.5399  -20.3744   17.2610 C   0  0  0  0  0  0  0  0  0  0  0  0
  -28.8243  -26.2679   18.8478 C   0  0  0  0  0  0  0  0  0  0  0  0
  -28.6054  -20.0464   18.2536 C   0  0  0  0  0  0  0  0  0  0  0  0
  -20.2247  -27.3317   22.6124 C   0  0  0  0  0  0  0  0  0  0  0  0
  -30.1327  -18.3641   19.1181 C   0  0  0  0  0  0  0  0  0  0  0  0
  -18.8728  -29.2243   22.9480 C   0  0  0  0  0  0  0  0  0  0  0  0
  -16.5694  -30.3596   24.0380 C   0  0  0  0  0  0  0  0  0  0  0  0
  -17.6161  -28.7551   22.5659 C   0  0  0  0  0  0  0  0  0  0  0  0
  -20.8700  -23.1987   23.2445 C   0  0  0  0  0  0  0  0  0  0  0  0
  -20.6270  -21.0207   23.4250 C   0  0  0  0  0  0  0  0  0  0  0  0
  -25.1186  -15.7223   20.5204 C   0  0  0  0  0  0  0  0  0  0  0  0
  -18.5426  -22.2230   22.7481 C   0  0  0  0  0  0  0  0  0  0  0  0
  -28.7148  -23.4111   17.7104 C   0  0  0  0  0  0  0  0  0  0  0  0
  -25.7371  -22.2886   17.0816 C   0  0  0  0  0  0  0  0  0  0  0  0
  -23.5917  -19.6349   17.0323 C   0  0  0  0  0  0  0  0  0  0  0  0
  -25.1958  -17.8454   22.9907 C   0  0  0  0  0  0  0  0  0  0  0  0
  -30.5457  -26.3765   20.7255 C   0  0  0  0  0  0  0  0  0  0  0  0
  -29.2246  -21.4299   16.2368 C   0  0  0  0  0  0  0  0  0  0  0  0
  -27.2775  -20.7496   18.3560 C   0  0  0  0  0  0  0  0  0  0  0  0
  -31.5955  -26.1269   19.6477 C   0  0  0  0  0  0  0  0  0  0  0  0
  -25.2272  -20.4267   25.4428 C   0  0  0  0  0  0  0  0  0  0  0  0
  -31.0822  -25.0994   18.6501 C   0  0  0  0  0  0  0  0  0  0  0  0
  -24.0229  -21.2952   25.0751 C   0  0  0  0  0  0  0  0  0  0  0  0
  -25.9279  -19.8787   24.2016 C   0  0  0  0  0  0  0  0  0  0  0  0
  -23.8446  -20.0274   22.8934 C   0  0  0  0  0  0  0  0  0  0  0  0
  -29.8373  -25.6207   17.9209 C   0  0  1  0  0  0  0  0  0  0  0  0
  -28.1729  -22.4279   16.7117 C   0  0  1  0  0  0  0  0  0  0  0  0
  -23.0720  -20.5572   24.1136 C   0  0  2  0  0  0  0  0  0  0  0  0
  -21.2124  -19.0349   16.5068 C   0  0  0  0  0  0  0  0  0  0  0  0
  -22.1943  -15.5512   23.1223 C   0  0  0  0  0  0  0  0  0  0  0  0
  -22.9375  -13.6891   21.6257 C   0  0  0  0  0  0  0  0  0  0  0  0
  -21.9704  -15.7749   20.6528 C   0  0  0  0  0  0  0  0  0  0  0  0
  -24.8392  -23.5610   19.7054 C   0  0  0  0  0  0  0  0  0  0  0  0
  -22.7697  -22.1560   19.5979 C   0  0  0  0  0  0  0  0  0  0  0  0
  -23.2307  -23.8333   17.8099 C   0  0  0  0  0  0  0  0  0  0  0  0
  -31.8515  -13.9000   19.8084 C   0  0  0  0  0  0  0  0  0  0  0  0
  -31.1360  -15.1851   21.8274 C   0  0  0  0  0  0  0  0  0  0  0  0
  -24.4153  -17.7470   14.9072 C   0  0  0  0  0  0  0  0  0  0  0  0
  -29.0195  -14.2738   18.6574 C   0  0  0  0  0  0  0  0  0  0  0  0
  -29.4210  -14.6044   20.1030 C   0  0  0  0  0  0  0  0  0  0  0  0
  -27.5606  -13.8112   18.5383 C   0  0  0  0  0  0  0  0  0  0  0  0
  -31.2650  -16.3267   19.5904 C   0  0  0  0  0  0  0  0  0  1  0  0
  -24.3264  -15.8888   21.7357 C   0  0  2  0  0  0  0  0  0  0  0  0
  -24.6123  -21.7183   17.9113 C   0  0  1  0  0  0  0  0  0  0  0  0
  -22.6310  -19.1360   15.9681 C   0  0  2  0  0  0  0  0  0  0  0  0
  -22.8762  -15.2208   21.7777 C   0  0  0  0  0  0  0  0  0  0  0  0
  -23.8887  -22.8050   18.7557 C   0  0  0  0  0  0  0  0  0  0  0  0
  -30.9087  -15.0084   20.3102 C   0  0  0  0  0  0  0  0  0  0  0  0
  -25.1298  -16.5337   19.4885 N   0  0  0  0  0  0  0  0  0  0  0  0
  -22.0767  -22.7564   23.6082 N   0  0  0  0  0  0  0  0  0  0  0  0
  -25.9674  -14.6837   20.2953 N   0  0  0  0  0  0  0  0  0  0  0  0
  -26.5609  -14.7925   19.0969 N   0  0  0  0  0  0  0  0  0  0  0  0
  -21.8969  -21.4285   23.7102 N   0  0  0  0  0  0  0  0  0  0  0  0
  -27.0182  -21.7784   17.3353 N   0  0  0  0  0  0  0  0  0  0  0  0
  -24.9712  -19.1892   23.3325 N   0  0  0  0  0  0  0  0  0  0  0  0
  -20.2738  -19.7189   23.4787 N   0  0  0  0  0  0  0  0  0  0  0  0
  -17.9824  -23.4755   22.4621 N   0  0  0  0  0  0  0  0  0  0  0  0
  -29.2615  -24.5462   17.1427 N   0  0  0  0  0  0  0  0  0  0  0  0
  -23.7416  -21.0048   16.9833 N   0  0  0  0  0  0  0  0  0  0  0  0
  -24.2374  -17.2656   22.1684 N   0  0  0  0  0  0  0  0  0  0  0  0
  -23.0473  -17.7891   15.4849 N   0  3  0  0  0  0  0  0  0  0  0  0
  -17.8193  -21.1997   22.6917 O   0  0  0  0  0  0  0  0  0  0  0  0
  -28.6411  -23.1592   18.9074 O   0  0  0  0  0  0  0  0  0  0  0  0
  -25.4872  -23.1497   16.2344 O   0  0  0  0  0  0  0  0  0  0  0  0
  -24.1503  -18.8850   17.8299 O   0  0  0  0  0  0  0  0  0  0  0  0
  -26.1748  -17.2079   23.3932 O   0  0  0  0  0  0  0  0  0  0  0  0
  -20.0172  -28.6613   22.4084 O   0  0  0  0  0  0  0  0  0  0  0  0
  -30.4193  -17.3908   20.0250 O   0  0  0  0  0  0  0  0  0  1  0  0
  -15.4635  -30.9037   24.5625 F   0  0  0  0  0  0  0  0  0  0  0  0
  -17.5088  -27.7584   21.6765 F   0  0  0  0  0  0  0  0  0  0  0  0
  1  2  1  0  0  0  0
  1  5  2  0  0  0  0
  2  6  2  0  0  0  0
  3  8  2  0  0  0  0
  3 16  1  0  0  0  0
  4  9  1  0  0  0  0
  4 16  2  0  0  0  0
  5 18  1  0  0  0  0
  6 20  1  0  0  0  0
  7 10  2  0  0  0  0
  7 19  1  0  0  0  0
  8 22  1  0  0  0  0
  9 22  2  0  0  0  0
 10 23  1  0  0  0  0
 11 12  2  0  0  0  0
 11 24  1  0  0  0  0
 12 25  1  0  0  0  0
 13 21  1  0  0  0  0
 13 23  2  0  0  0  0
 14 25  2  0  0  0  0
 14 26  1  0  0  0  0
 15 67  2  0  0  0  0
 15 70  1  0  0  0  0
 16 27  1  0  0  0  0
 17 27  1  0  0  0  0
 17 28  2  0  0  0  0
 17 30  1  0  0  0  0
 18 20  2  0  0  0  0
 18 35  1  0  0  0  0
 19 21  2  0  0  0  0
 19 36  1  0  0  0  0
 20 44  1  0  0  0  0
 21 37  1  0  0  0  0
 22 85  1  0  0  0  0
 23 86  1  0  0  0  0
 24 26  2  0  0  0  0
 24 85  1  0  0  0  0
 25 87  1  0  0  0  0
 26 88  1  0  0  0  0
 27 68  2  0  0  0  0
 28 71  1  0  0  0  0
 28 74  1  0  0  0  0
 29 61  1  0  0  0  0
 29 67  1  0  0  0  0
 29 69  2  0  0  0  0
 30 75  1  0  0  0  0
 30 80  2  0  0  0  0
 31 45  1  0  0  0  0
 31 76  1  0  0  0  0
 31 81  2  0  0  0  0
 32 62  1  0  0  0  0
 32 72  1  0  0  0  0
 32 82  2  0  0  0  0
 33 63  1  0  0  0  0
 33 77  1  0  0  0  0
 33 83  2  0  0  0  0
 34 73  1  0  0  0  0
 34 78  1  0  0  0  0
 34 84  2  0  0  0  0
 35 38  1  0  0  0  0
 36 45  1  0  0  0  0
 37 72  1  0  0  0  0
 38 40  1  0  0  0  0
 39 41  1  0  0  0  0
 39 42  1  0  0  0  0
 40 44  1  0  0  0  0
 41 46  1  0  0  0  0
 42 73  1  0  0  0  0
 43 46  1  0  0  0  0
 43 73  1  0  0  0  0
 44 76  1  0  0  0  0
 45 72  1  0  0  0  0
 46 71  1  0  0  0  0
 47 63  1  0  0  0  0
 48 64  1  0  0  0  0
 49 64  1  0  0  0  0
 50 64  1  0  0  0  0
 51 65  1  0  0  0  0
 52 65  1  0  0  0  0
 53 65  1  0  0  0  0
 54 66  1  0  0  0  0
 55 66  1  0  0  0  0
 56 79  1  0  0  0  0
 57 58  1  0  0  0  0
 57 59  1  0  0  0  0
 58 66  1  0  0  0  0
 59 70  1  0  0  0  0
 60 66  1  0  0  0  0
 60 86  1  0  0  0  0
 61 64  1  0  0  0  0
 61 78  1  0  0  0  0
 62 65  1  0  0  0  0
 62 77  1  0  0  0  0
 63 79  1  0  0  0  0
 68 71  1  0  0  0  0
 69 70  1  0  0  0  0
M  CHG  1  79   1
M  ISO  4  34 100  60 101  78 100  86 101
M  END
> <Batch ID>
0067

> <Smiles>
CNC(C)C(=O)NC(C(=O)N1Cc2cc([101O:1][101CH2:1]C(C)(C)CCCn3cnc(C([100NH:0][100C:0](=O)N4CCCC(n5nc(-c6ccc(Oc7ccc(F)cc7F)cc6)c(C(N)=O)c5N)C4)C(C)(C)C)n3)ccc2CC1C(=O)NC1CCCc2ccccc21)C(C)(C)C

> <Shape>
0.208

> <Color>
0.060

> <Negative vol penalty>
0.000

$$$$

  -OEChem-04052318123D

 88 96  0     1  0  0  0  0  0999 V2000
  -33.3335  -27.5256   17.5238 C   0  0  0  0  0  0  0  0  0  0  0  0
  -32.1152  -26.8551   17.5653 C   0  0  0  0  0  0  0  0  0  0  0  0
  -24.3815  -12.2154   19.6976 C   0  0  0  0  0  0  0  0  0  0  0  0
  -25.3894  -12.3575   21.8887 C   0  0  0  0  0  0  0  0  0  0  0  0
  -33.7091  -28.3527   18.5815 C   0  0  0  0  0  0  0  0  0  0  0  0
  -31.2723  -27.0105   18.6651 C   0  0  0  0  0  0  0  0  0  0  0  0
  -25.1485  -27.0707   18.6306 C   0  0  0  0  0  0  0  0  0  0  0  0
  -24.5798  -10.8348   19.6959 C   0  0  0  0  0  0  0  0  0  0  0  0
  -25.5876  -10.9768   21.8870 C   0  0  0  0  0  0  0  0  0  0  0  0
  -24.1992  -26.0893   18.9126 C   0  0  0  0  0  0  0  0  0  0  0  0
  -26.0324   -7.4423   22.6135 C   0  0  0  0  0  0  0  0  0  0  0  0
  -25.7064   -6.7382   23.7726 C   0  0  0  0  0  0  0  0  0  0  0  0
  -24.0135  -26.9256   21.1677 C   0  0  0  0  0  0  0  0  0  0  0  0
  -23.4178   -7.4897   23.5855 C   0  0  0  0  0  0  0  0  0  0  0  0
  -24.9901  -21.3932   22.5301 C   0  0  0  0  0  0  0  0  0  0  0  0
  -24.7863  -12.9768   20.7940 C   0  0  0  0  0  0  0  0  0  0  0  0
  -23.4545  -15.0999   21.2699 C   0  0  0  0  0  0  0  0  0  0  0  0
  -32.8660  -28.5258   19.6905 C   0  0  0  0  0  0  0  0  0  0  0  0
  -25.5461  -27.9816   19.6198 C   0  0  0  0  0  0  0  0  0  0  0  0
  -31.6375  -27.8396   19.7393 C   0  0  0  0  0  0  0  0  0  0  0  0
  -24.9662  -27.9192   20.8949 C   0  0  0  0  0  0  0  0  0  0  0  0
  -25.1828  -10.2154   20.7906 C   0  0  0  0  0  0  0  0  0  0  0  0
  -23.6337  -26.0149   20.1822 C   0  0  0  0  0  0  0  0  0  0  0  0
  -25.0512   -8.1702   21.9404 C   0  0  0  0  0  0  0  0  0  0  0  0
  -24.3991   -6.7618   24.2586 C   0  0  0  0  0  0  0  0  0  0  0  0
  -23.7439   -8.1939   22.4264 C   0  0  0  0  0  0  0  0  0  0  0  0
  -24.5823  -14.4032   20.7961 C   0  0  0  0  0  0  0  0  0  0  0  0
  -24.5675  -22.2455   21.5425 C   0  0  0  0  0  0  0  0  0  0  0  0
  -23.7504  -16.4228   21.0489 C   0  0  0  0  0  0  0  0  0  0  0  0
  -27.0416  -22.3304   22.4170 C   0  0  0  0  0  0  0  0  0  0  0  0
  -22.2474  -14.5963   21.8573 C   0  0  0  0  0  0  0  0  0  0  0  0
  -28.2905  -28.6572   21.0743 C   0  0  0  0  0  0  0  0  0  0  0  0
  -28.2845  -19.9166   21.2757 C   0  0  0  0  0  0  0  0  0  0  0  0
  -26.5542  -31.0639   22.3841 C   0  0  0  0  0  0  0  0  0  0  0  0
  -23.4888  -32.2773   23.2660 C   0  0  0  0  0  0  0  0  0  0  0  0
  -33.3360  -29.3931   20.8314 C   0  0  0  0  0  0  0  0  0  0  0  0
  -26.5516  -29.0510   19.2918 C   0  0  0  0  0  0  0  0  0  0  0  0
  -25.3439  -28.8862   21.9861 C   0  0  0  0  0  0  0  0  0  0  0  0
  -32.2186  -29.7977   21.7894 C   0  0  0  0  0  0  0  0  0  0  0  0
  -26.8659  -18.8611   18.0976 C   0  0  0  0  0  0  0  0  0  0  0  0
  -31.3601  -28.5892   22.1491 C   0  0  0  0  0  0  0  0  0  0  0  0
  -26.0431  -17.6444   18.5192 C   0  0  0  0  0  0  0  0  0  0  0  0
  -28.1489  -18.9819   18.9157 C   0  0  0  0  0  0  0  0  0  0  0  0
  -27.0990  -17.7942   20.8161 C   0  0  0  0  0  0  0  0  0  0  0  0
  -30.6848  -28.0020   20.9038 C   0  0  1  0  0  0  0  0  0  0  0  0
  -27.2604  -29.6031   20.5248 C   0  0  1  0  0  0  0  0  0  0  0  0
  -25.7815  -17.6536   20.0355 C   0  0  2  0  0  0  0  0  0  0  0  0
  -28.7219  -23.7310   23.6540 C   0  0  0  0  0  0  0  0  0  0  0  0
  -22.3913  -34.2552   24.3527 C   0  0  0  0  0  0  0  0  0  0  0  0
  -27.4591  -30.0599   25.1196 C   0  0  0  0  0  0  0  0  0  0  0  0
  -25.6284  -31.4232   26.1482 C   0  0  0  0  0  0  0  0  0  0  0  0
  -27.4524  -32.5484   24.8716 C   0  0  0  0  0  0  0  0  0  0  0  0
  -30.8289  -21.4195   22.4828 C   0  0  0  0  0  0  0  0  0  0  0  0
  -21.9438  -32.9094   20.8222 C   0  0  0  0  0  0  0  0  0  0  0  0
  -23.1494  -22.2067   21.0316 C   0  0  0  0  0  0  0  0  0  0  0  0
  -29.1030  -21.0609   20.7328 C   0  0  0  0  0  0  0  0  0  0  0  0
  -22.1950  -23.1293   21.7929 C   0  0  0  0  0  0  0  0  0  0  0  0
  -22.6449  -24.5856   21.8056 C   0  0  0  0  0  0  0  0  0  1  0  0
  -28.4514  -22.4021   22.8933 C   0  0  2  0  0  0  0  0  0  0  0  0
  -25.7035  -31.2175   23.6217 C   0  0  1  0  0  0  0  0  0  0  0  0
  -22.8379  -33.6300   23.0403 C   0  0  2  0  0  0  0  0  0  0  0  0
  -26.5549  -31.2927   24.9205 C   0  0  0  0  0  0  0  0  0  0  0  0
  -29.5912  -22.0671   21.8189 C   0  0  1  0  0  0  0  0  0  0  0  0
  -30.0669  -23.3600   21.1168 C   0  0  0  0  0  0  0  0  0  0  0  0
  -26.2485  -21.4160   22.9949 N   0  0  0  0  0  0  0  0  0  0  0  0
  -25.5243  -15.2162   20.3106 N   0  0  0  0  0  0  0  0  0  0  0  0
  -25.4097  -23.1432   20.9996 N   0  0  0  0  0  0  0  0  0  0  0  0
  -26.6825  -23.1916   21.4447 N   0  0  0  0  0  0  0  0  0  0  0  0
  -24.9890  -16.4375   20.4781 N   0  0  0  0  0  0  0  0  0  0  0  0
  -26.3360  -29.9099   21.6182 N   0  0  0  0  0  0  0  0  0  0  0  0
  -27.8593  -18.9592   20.3545 N   0  0  0  0  0  0  0  0  0  0  0  0
  -23.0692  -17.5633   21.2891 N   0  0  0  0  0  0  0  0  0  0  0  0
  -22.1069  -13.2103   22.0110 N   0  0  0  0  0  0  0  0  0  0  0  0
  -29.5466  -28.8084   20.5184 N   0  0  0  0  0  0  0  0  0  0  0  0
  -24.8577  -32.3840   23.3933 N   0  0  0  0  0  0  0  0  0  0  0  0
  -21.6461  -33.4904   22.1567 N   0  3  0  0  0  0  0  0  0  0  0  0
  -21.3141  -15.3519   22.2196 O   0  0  0  0  0  0  0  0  0  0  0  0
  -27.9699  -27.8509   21.9396 O   0  0  0  0  0  0  0  0  0  0  0  0
  -28.0295  -19.8782   22.4822 O   0  0  0  0  0  0  0  0  0  0  0  0
  -27.3768  -31.9391   22.1032 O   0  0  0  0  0  0  0  0  0  0  0  0
  -22.8468  -31.2311   23.3273 O   0  0  0  0  0  0  0  0  0  0  0  0
  -25.3762   -8.8682   20.7894 O   0  0  0  0  0  0  0  0  0  0  0  0
  -22.7074  -25.0575   20.4604 O   0  0  0  0  0  0  0  0  0  1  0  0
  -24.0858   -6.0843   25.3708 F   0  0  0  0  0  0  0  0  0  0  0  0
  -22.7967   -8.8904   21.7834 F   0  0  0  0  0  0  0  0  0  0  0  0
  -31.0001  -23.1063   20.1730 F   0  0  0  0  0  0  0  0  0  0  0  0
  -29.0501  -24.0138   20.5121 F   0  0  0  0  0  0  0  0  0  0  0  0
  -30.6144  -24.2259   22.0020 F   0  0  0  0  0  0  0  0  0  0  0  0
  1  2  1  0  0  0  0
  1  5  2  0  0  0  0
  2  6  2  0  0  0  0
  3  8  2  0  0  0  0
  3 16  1  0  0  0  0
  4  9  1  0  0  0  0
  4 16  2  0  0  0  0
  5 18  1  0  0  0  0
  6 20  1  0  0  0  0
  7 10  2  0  0  0  0
  7 19  1  0  0  0  0
  8 22  1  0  0  0  0
  9 22  2  0  0  0  0
 10 23  1  0  0  0  0
 11 12  2  0  0  0  0
 11 24  1  0  0  0  0
 12 25  1  0  0  0  0
 13 21  1  0  0  0  0
 13 23  2  0  0  0  0
 14 25  2  0  0  0  0
 14 26  1  0  0  0  0
 15 28  1  0  0  0  0
 15 65  2  0  0  0  0
 16 27  1  0  0  0  0
 17 27  1  0  0  0  0
 17 29  2  0  0  0  0
 17 31  1  0  0  0  0
 18 20  2  0  0  0  0
 18 36  1  0  0  0  0
 19 21  2  0  0  0  0
 19 37  1  0  0  0  0
 20 45  1  0  0  0  0
 21 38  1  0  0  0  0
 22 82  1  0  0  0  0
 23 83  1  0  0  0  0
 24 26  2  0  0  0  0
 24 82  1  0  0  0  0
 25 84  1  0  0  0  0
 26 85  1  0  0  0  0
 27 66  2  0  0  0  0
 28 55  1  0  0  0  0
 28 67  2  0  0  0  0
 29 69  1  0  0  0  0
 29 72  1  0  0  0  0
 30 59  1  0  0  0  0
 30 65  1  0  0  0  0
 30 68  2  0  0  0  0
 31 73  1  0  0  0  0
 31 77  2  0  0  0  0
 32 46  1  0  0  0  0
 32 74  1  0  0  0  0
 32 78  2  0  0  0  0
 33 56  1  0  0  0  0
 33 71  1  0  0  0  0
 33 79  2  0  0  0  0
 34 60  1  0  0  0  0
 34 70  1  0  0  0  0
 34 80  2  0  0  0  0
 35 61  1  0  0  0  0
 35 75  1  0  0  0  0
 35 81  2  0  0  0  0
 36 39  1  0  0  0  0
 37 46  1  0  0  0  0
 38 70  1  0  0  0  0
 39 41  1  0  0  0  0
 40 42  1  0  0  0  0
 40 43  1  0  0  0  0
 41 45  1  0  0  0  0
 42 47  1  0  0  0  0
 43 71  1  0  0  0  0
 44 47  1  0  0  0  0
 44 71  1  0  0  0  0
 45 74  1  0  0  0  0
 46 70  1  0  0  0  0
 47 69  1  0  0  0  0
 48 59  1  0  0  0  0
 49 61  1  0  0  0  0
 50 62  1  0  0  0  0
 51 62  1  0  0  0  0
 52 62  1  0  0  0  0
 53 63  1  0  0  0  0
 54 76  1  0  0  0  0
 55 57  1  0  0  0  0
 56 63  1  0  0  0  0
 57 58  1  0  0  0  0
 58 83  1  0  0  0  0
 59 63  1  0  0  0  0
 60 62  1  0  0  0  0
 60 75  1  0  0  0  0
 61 76  1  0  0  0  0
 63 64  1  0  0  0  0
 64 86  1  0  0  0  0
 64 87  1  0  0  0  0
 64 88  1  0  0  0  0
 66 69  1  0  0  0  0
 67 68  1  0  0  0  0
M  CHG  1  76   1
M  ISO  4  33 100  56 100  58 101  83 101
M  END
> <Batch ID>
0067

> <Smiles>
CNC(C)C(=O)NC(C(=O)N1Cc2cc([101O:1][101CH2:1]CCc3cnc(C(C)C(C)([100CH2:0][100C:0](=O)N4CCCC(n5nc(-c6ccc(Oc7ccc(F)cc7F)cc6)c(C(N)=O)c5N)C4)C(F)(F)F)nn3)ccc2CC1C(=O)NC1CCCc2ccccc21)C(C)(C)C

> <Shape>
0.237

> <Color>
0.072

> <Negative vol penalty>
0.000

$$$$

  -OEChem-04052318123D

 86 94  0     1  0  0  0  0  0999 V2000
  -16.1688  -26.7970   24.2257 C   0  0  0  0  0  0  0  0  0  0  0  0
  -16.8213  -25.7814   23.5343 C   0  0  0  0  0  0  0  0  0  0  0  0
  -25.4872  -13.1937   19.7421 C   0  0  0  0  0  0  0  0  0  0  0  0
  -24.9549  -14.2603   21.8436 C   0  0  0  0  0  0  0  0  0  0  0  0
  -16.5304  -28.1268   24.0138 C   0  0  0  0  0  0  0  0  0  0  0  0
  -17.8352  -26.0950   22.6297 C   0  0  0  0  0  0  0  0  0  0  0  0
  -24.0057  -23.5289   20.0498 C   0  0  0  0  0  0  0  0  0  0  0  0
  -25.3236  -11.9422   20.3359 C   0  0  0  0  0  0  0  0  0  0  0  0
  -24.7913  -13.0088   22.4373 C   0  0  0  0  0  0  0  0  0  0  0  0
  -24.6317  -23.2474   18.8362 C   0  0  0  0  0  0  0  0  0  0  0  0
  -22.7614   -9.9236   21.2266 C   0  0  0  0  0  0  0  0  0  0  0  0
  -22.0303   -8.9643   20.5260 C   0  0  0  0  0  0  0  0  0  0  0  0
  -25.2259  -25.5744   18.6100 C   0  0  0  0  0  0  0  0  0  0  0  0
  -23.9588   -7.5091   20.5060 C   0  0  0  0  0  0  0  0  0  0  0  0
  -30.7560  -23.5794   19.7870 C   0  0  0  0  0  0  0  0  0  0  0  0
  -25.3029  -14.3528   20.4960 C   0  0  0  0  0  0  0  0  0  0  0  0
  -24.4858  -16.4184   19.2417 C   0  0  0  0  0  0  0  0  0  0  0  0
  -17.5558  -28.4562   23.1134 C   0  0  0  0  0  0  0  0  0  0  0  0
  -23.9756  -24.8393   20.5481 C   0  0  0  0  0  0  0  0  0  0  0  0
  -18.2099  -27.4305   22.4046 C   0  0  0  0  0  0  0  0  0  0  0  0
  -24.6011  -25.8694   19.8313 C   0  0  0  0  0  0  0  0  0  0  0  0
  -24.9756  -11.8497   21.6834 C   0  0  0  0  0  0  0  0  0  0  0  0
  -25.2393  -24.2707   18.1147 C   0  0  0  0  0  0  0  0  0  0  0  0
  -24.0913   -9.6756   21.5668 C   0  0  0  0  0  0  0  0  0  0  0  0
  -22.6289   -7.7571   20.1657 C   0  0  0  0  0  0  0  0  0  0  0  0
  -24.6899   -8.4684   21.2065 C   0  0  0  0  0  0  0  0  0  0  0  0
  -25.4724  -15.6459   19.8834 C   0  0  0  0  0  0  0  0  0  0  0  0
  -29.4578  -23.1334   19.9013 C   0  0  0  0  0  0  0  0  0  0  0  0
  -30.5822  -23.5018   17.5082 C   0  0  0  0  0  0  0  0  0  0  0  0
  -29.2842  -23.0551   17.6223 C   0  0  0  0  0  0  0  0  0  0  0  0
  -25.1474  -17.5513   18.8352 C   0  0  0  0  0  0  0  0  0  0  0  0
  -23.0957  -16.1371   19.0318 C   0  0  0  0  0  0  0  0  0  0  0  0
  -21.6781  -26.9260   21.2342 C   0  0  0  0  0  0  0  0  0  0  0  0
  -24.1519  -28.6792   22.3871 C   0  0  0  0  0  0  0  0  0  0  0  0
  -27.4966  -29.3553   22.3339 C   0  0  0  0  0  0  0  0  0  0  0  0
  -30.3511  -19.9190   21.0386 C   0  0  0  0  0  0  0  0  0  0  0  0
  -17.8794  -29.9111   22.8824 C   0  0  0  0  0  0  0  0  0  0  0  0
  -23.3195  -25.1218   21.8718 C   0  0  0  0  0  0  0  0  0  0  0  0
  -24.6144  -27.2896   20.3327 C   0  0  0  0  0  0  0  0  0  0  0  0
  -19.2191  -30.1339   22.1855 C   0  0  0  0  0  0  0  0  0  0  0  0
  -29.4723  -19.1129   17.5343 C   0  0  0  0  0  0  0  0  0  0  0  0
  -19.3615  -29.1967   20.9904 C   0  0  0  0  0  0  0  0  0  0  0  0
  -28.3059  -18.1399   17.6988 C   0  0  0  0  0  0  0  0  0  0  0  0
  -30.4250  -19.0627   18.7249 C   0  0  0  0  0  0  0  0  0  0  0  0
  -28.5931  -18.3052   20.2029 C   0  0  0  0  0  0  0  0  0  0  0  0
  -19.3316  -27.7290   21.4336 C   0  0  1  0  0  0  0  0  0  0  0  0
  -22.9030  -26.5805   22.0329 C   0  0  1  0  0  0  0  0  0  0  0  0
  -27.5893  -18.3645   19.0417 C   0  0  2  0  0  0  0  0  0  0  0  0
  -32.7304  -23.8961   16.2767 C   0  0  0  0  0  0  0  0  0  0  0  0
  -27.6375  -23.8702   21.4723 C   0  0  0  0  0  0  0  0  0  0  0  0
  -29.2173  -30.8670   23.3592 C   0  0  0  0  0  0  0  0  0  0  0  0
  -23.1883  -30.9713   20.6187 C   0  0  0  0  0  0  0  0  0  0  0  0
  -25.4157  -32.0670   20.9448 C   0  0  0  0  0  0  0  0  0  0  0  0
  -23.9292  -31.6590   22.9061 C   0  0  0  0  0  0  0  0  0  0  0  0
  -29.9662  -20.8062   23.3067 C   0  0  0  0  0  0  0  0  0  0  0  0
  -28.9774  -27.0724   23.4978 C   0  0  0  0  0  0  0  0  0  0  0  0
  -31.2183  -23.7102   16.1763 C   0  0  0  0  0  0  0  0  0  0  0  0
  -28.4458  -22.7560   16.4052 C   0  0  0  0  0  0  0  0  0  0  0  0
  -27.9121  -24.0061   15.7025 C   0  0  0  0  0  0  0  0  0  0  0  0
  -28.4094  -21.4708   21.5122 C   0  0  0  0  0  0  0  0  0  0  0  0
  -26.9573  -24.8227   16.5655 C   0  0  0  0  0  0  0  0  0  1  0  0
  -28.8431  -22.9333   21.2422 C   0  0  1  0  0  0  0  0  0  0  0  0
  -25.0973  -29.7039   21.8083 C   0  0  1  0  0  0  0  0  0  0  0  0
  -28.5078  -29.5252   23.4533 C   0  0  2  0  0  0  0  0  0  0  0  0
  -24.4059  -31.0740   21.5588 C   0  0  0  0  0  0  0  0  0  0  0  0
  -31.3416  -23.7717   18.5884 N   0  0  0  0  0  0  0  0  0  0  0  0
  -26.6696  -16.2380   19.8867 N   0  0  0  0  0  0  0  0  0  0  0  0
  -28.6985  -22.8632   18.8209 N   0  0  0  0  0  0  0  0  0  0  0  0
  -26.4398  -17.3945   19.2420 N   0  0  0  0  0  0  0  0  0  0  0  0
  -23.9542  -27.5165   21.6289 N   0  0  0  0  0  0  0  0  0  0  0  0
  -29.7119  -19.2358   19.9909 N   0  0  0  0  0  0  0  0  0  0  0  0
  -24.7440  -18.6564   18.1730 N   0  0  0  0  0  0  0  0  0  0  0  0
  -22.5787  -14.9270   19.5142 N   0  0  0  0  0  0  0  0  0  0  0  0
  -20.6072  -27.3459   21.9998 N   0  0  0  0  0  0  0  0  0  0  0  0
  -26.2373  -29.7665   22.7165 N   0  0  0  0  0  0  0  0  0  0  0  0
  -29.5348  -20.6359   21.9265 N   0  0  0  0  0  0  0  0  0  0  0  0
  -29.5337  -28.4459   23.3929 N   0  3  0  0  0  0  0  0  0  0  0  0
  -22.3382  -16.9278   18.4199 O   0  0  0  0  0  0  0  0  0  0  0  0
  -21.7033  -26.8209   20.0135 O   0  0  0  0  0  0  0  0  0  0  0  0
  -23.6143  -28.8990   23.4754 O   0  0  0  0  0  0  0  0  0  0  0  0
  -27.7948  -28.9063   21.2294 O   0  0  0  0  0  0  0  0  0  0  0  0
  -31.5819  -19.8976   21.1670 O   0  0  0  0  0  0  0  0  0  0  0  0
  -24.8156  -10.6287   22.2631 O   0  0  0  0  0  0  0  0  0  0  0  0
  -25.8505  -23.9989   16.9296 O   0  0  0  0  0  0  0  0  0  1  0  0
  -21.9262   -6.8353   19.4943 F   0  0  0  0  0  0  0  0  0  0  0  0
  -25.9668   -8.2240   21.5317 F   0  0  0  0  0  0  0  0  0  0  0  0
  1  2  1  0  0  0  0
  1  5  2  0  0  0  0
  2  6  2  0  0  0  0
  3  8  2  0  0  0  0
  3 16  1  0  0  0  0
  4  9  1  0  0  0  0
  4 16  2  0  0  0  0
  5 18  1  0  0  0  0
  6 20  1  0  0  0  0
  7 10  2  0  0  0  0
  7 19  1  0  0  0  0
  8 22  1  0  0  0  0
  9 22  2  0  0  0  0
 10 23  1  0  0  0  0
 11 12  2  0  0  0  0
 11 24  1  0  0  0  0
 12 25  1  0  0  0  0
 13 21  1  0  0  0  0
 13 23  2  0  0  0  0
 14 25  2  0  0  0  0
 14 26  1  0  0  0  0
 15 28  1  0  0  0  0
 15 66  2  0  0  0  0
 16 27  1  0  0  0  0
 17 27  1  0  0  0  0
 17 31  2  0  0  0  0
 17 32  1  0  0  0  0
 18 20  2  0  0  0  0
 18 37  1  0  0  0  0
 19 21  2  0  0  0  0
 19 38  1  0  0  0  0
 20 46  1  0  0  0  0
 21 39  1  0  0  0  0
 22 83  1  0  0  0  0
 23 84  1  0  0  0  0
 24 26  2  0  0  0  0
 24 83  1  0  0  0  0
 25 85  1  0  0  0  0
 26 86  1  0  0  0  0
 27 67  2  0  0  0  0
 28 62  1  0  0  0  0
 28 68  2  0  0  0  0
 29 30  2  0  0  0  0
 29 57  1  0  0  0  0
 29 66  1  0  0  0  0
 30 58  1  0  0  0  0
 30 68  1  0  0  0  0
 31 69  1  0  0  0  0
 31 72  1  0  0  0  0
 32 73  1  0  0  0  0
 32 78  2  0  0  0  0
 33 47  1  0  0  0  0
 33 74  1  0  0  0  0
 33 79  2  0  0  0  0
 34 63  1  0  0  0  0
 34 70  1  0  0  0  0
 34 80  2  0  0  0  0
 35 64  1  0  0  0  0
 35 75  1  0  0  0  0
 35 81  2  0  0  0  0
 36 71  1  0  0  0  0
 36 76  1  0  0  0  0
 36 82  2  0  0  0  0
 37 40  1  0  0  0  0
 38 47  1  0  0  0  0
 39 70  1  0  0  0  0
 40 42  1  0  0  0  0
 41 43  1  0  0  0  0
 41 44  1  0  0  0  0
 42 46  1  0  0  0  0
 43 48  1  0  0  0  0
 44 71  1  0  0  0  0
 45 48  1  0  0  0  0
 45 71  1  0  0  0  0
 46 74  1  0  0  0  0
 47 70  1  0  0  0  0
 48 69  1  0  0  0  0
 49 57  1  0  0  0  0
 50 62  1  0  0  0  0
 51 64  1  0  0  0  0
 52 65  1  0  0  0  0
 53 65  1  0  0  0  0
 54 65  1  0  0  0  0
 55 76  1  0  0  0  0
 56 77  1  0  0  0  0
 58 59  1  0  0  0  0
 59 61  1  0  0  0  0
 60 62  1  0  0  0  0
 60 76  1  0  0  0  0
 61 84  1  0  0  0  0
 63 65  1  0  0  0  0
 63 75  1  0  0  0  0
 64 77  1  0  0  0  0
 67 69  1  0  0  0  0
M  CHG  1  77   1
M  ISO  4  36 100  61 101  76 100  84 101
M  END
> <Batch ID>
0067

> <Smiles>
CCc1ncc(C(C)C[100N:0](C)[100C:0](=O)N2CCCC(n3nc(-c4ccc(Oc5ccc(F)cc5F)cc4)c(C(N)=O)c3N)C2)nc1CC[101CH2:1][101O:1]c1ccc2c(c1)CN(C(=O)C(NC(=O)C(C)NC)C(C)(C)C)C(C(=O)NC1CCCc3ccccc31)C2

> <Shape>
0.263

> <Color>
0.065

> <Negative vol penalty>
0.000

$$$$

  -OEChem-04052318123D

 97105  0     1  0  0  0  0  0999 V2000
  -27.9692  -36.2241   20.9816 C   0  0  0  0  0  0  0  0  0  0  0  0
  -28.2828  -34.8690   21.0064 C   0  0  0  0  0  0  0  0  0  0  0  0
  -25.1398  -14.1824   22.6717 C   0  0  0  0  0  0  0  0  0  0  0  0
  -23.7473  -15.0066   20.8775 C   0  0  0  0  0  0  0  0  0  0  0  0
  -26.8724  -36.6979   21.7003 C   0  0  0  0  0  0  0  0  0  0  0  0
  -27.5004  -33.9869   21.7508 C   0  0  0  0  0  0  0  0  0  0  0  0
  -26.4176  -29.7380   19.2171 C   0  0  0  0  0  0  0  0  0  0  0  0
  -25.8594  -13.4113   21.7589 C   0  0  0  0  0  0  0  0  0  0  0  0
  -24.4669  -14.2354   19.9648 C   0  0  0  0  0  0  0  0  0  0  0  0
  -27.4190  -28.7713   19.1376 C   0  0  0  0  0  0  0  0  0  0  0  0
  -28.2940  -11.5030   19.8495 C   0  0  0  0  0  0  0  0  0  0  0  0
  -29.6852  -11.5093   19.9500 C   0  0  0  0  0  0  0  0  0  0  0  0
  -26.4518  -19.9585   23.4400 C   0  0  0  0  0  0  0  0  0  0  0  0
  -26.7097  -19.7229   22.0671 C   0  0  0  0  0  0  0  0  0  0  0  0
  -26.3617  -27.5381   20.9211 C   0  0  0  0  0  0  0  0  0  0  0  0
  -29.7013  -13.8965   19.5783 C   0  0  0  0  0  0  0  0  0  0  0  0
  -24.0837  -14.9800   22.2310 C   0  0  0  0  0  0  0  0  0  0  0  0
  -22.6079  -15.3159   24.2845 C   0  0  0  0  0  0  0  0  0  0  0  0
  -26.0704  -35.8197   22.4462 C   0  0  0  0  0  0  0  0  0  0  0  0
  -25.3849  -29.6174   20.1581 C   0  0  0  0  0  0  0  0  0  0  0  0
  -26.3927  -34.4495   22.4812 C   0  0  0  0  0  0  0  0  0  0  0  0
  -25.3470  -28.5034   21.0087 C   0  0  0  0  0  0  0  0  0  0  0  0
  -25.5230  -13.4378   20.4055 C   0  0  0  0  0  0  0  0  0  0  0  0
  -27.3928  -27.6726   19.9916 C   0  0  0  0  0  0  0  0  0  0  0  0
  -27.6064  -12.6934   19.6133 C   0  0  0  0  0  0  0  0  0  0  0  0
  -30.3889  -12.7060   19.8144 C   0  0  0  0  0  0  0  0  0  0  0  0
  -28.3101  -13.8902   19.4777 C   0  0  0  0  0  0  0  0  0  0  0  0
  -23.3395  -15.7764   23.1734 C   0  0  0  0  0  0  0  0  0  0  0  0
  -25.8392  -21.1883   23.5383 C   0  0  0  0  0  0  0  0  0  0  0  0
  -26.2471  -20.8160   21.3681 C   0  0  0  0  0  0  0  0  0  0  0  0
  -22.0916  -16.4553   24.8517 C   0  0  0  0  0  0  0  0  0  0  0  0
  -22.4126  -13.9780   24.7613 C   0  0  0  0  0  0  0  0  0  0  0  0
  -24.3951  -31.3449   22.6360 C   0  0  0  0  0  0  0  0  0  0  0  0
  -21.9725  -29.1881   22.6738 C   0  0  0  0  0  0  0  0  0  0  0  0
  -23.8780  -22.1902   24.6745 C   0  0  0  0  0  0  0  0  0  0  0  0
  -20.8596  -26.0665   21.8589 C   0  0  0  0  0  0  0  0  0  0  0  0
  -24.9231  -36.3855   23.2450 C   0  0  0  0  0  0  0  0  0  0  0  0
  -24.2975  -30.6552   20.2130 C   0  0  0  0  0  0  0  0  0  0  0  0
  -24.2490  -28.3169   22.0227 C   0  0  0  0  0  0  0  0  0  0  0  0
  -23.9231  -35.3288   23.7071 C   0  0  0  0  0  0  0  0  0  0  0  0
  -20.6718  -20.8820   23.7532 C   0  0  0  0  0  0  0  0  0  0  0  0
  -24.6519  -34.1276   24.3011 C   0  0  0  0  0  0  0  0  0  0  0  0
  -20.9323  -19.3870   23.5733 C   0  0  0  0  0  0  0  0  0  0  0  0
  -21.8708  -21.7149   23.3108 C   0  0  0  0  0  0  0  0  0  0  0  0
  -23.4146  -19.8453   23.8039 C   0  0  0  0  0  0  0  0  0  0  0  0
  -25.5533  -33.4577   23.2570 C   0  0  1  0  0  0  0  0  0  0  0  0
  -23.5765  -30.6945   21.5569 C   0  0  1  0  0  0  0  0  0  0  0  0
  -22.2396  -18.9662   24.2677 C   0  0  2  0  0  0  0  0  0  0  0  0
  -27.0274  -20.0388   17.5152 C   0  0  0  0  0  0  0  0  0  0  0  0
  -26.1765  -24.0361   21.6361 C   0  0  0  0  0  0  0  0  0  0  0  0
  -19.2404  -24.1682   21.5907 C   0  0  0  0  0  0  0  0  0  0  0  0
  -24.3964  -22.2897   18.3120 C   0  0  0  0  0  0  0  0  0  0  0  0
  -24.0102  -19.9431   19.0982 C   0  0  0  0  0  0  0  0  0  0  0  0
  -25.9782  -23.3338   24.9571 C   0  0  0  0  0  0  0  0  0  0  0  0
  -22.6253  -28.6940   25.6132 C   0  0  0  0  0  0  0  0  0  0  0  0
  -21.2736  -26.5903   25.4877 C   0  0  0  0  0  0  0  0  0  0  0  0
  -20.1818  -28.7977   25.0903 C   0  0  0  0  0  0  0  0  0  0  0  0
  -28.7365  -22.6606   21.5131 C   0  0  0  0  0  0  0  0  0  0  0  0
  -29.4889  -21.8255   19.3130 C   0  0  0  0  0  0  0  0  0  0  0  0
  -28.6718  -24.5556   18.0011 C   0  0  0  0  0  0  0  0  0  0  0  0
  -30.3740  -24.6725   19.7961 C   0  0  0  0  0  0  0  0  0  0  0  0
  -20.0308  -26.9997   19.1754 C   0  0  0  0  0  0  0  0  0  0  0  0
  -26.9260  -19.9244   19.0320 C   0  0  0  0  0  0  0  0  0  0  0  0
  -27.0235  -22.4752   19.5473 C   0  0  0  0  0  0  0  0  0  0  0  0
  -25.1286  -22.9798   21.9420 C   0  0  0  0  0  0  0  0  0  0  0  0
  -28.0065  -25.3921   20.2717 C   0  0  0  0  0  0  0  0  0  1  0  0
  -21.7404  -27.8526   23.3383 C   0  0  1  0  0  0  0  0  0  0  0  0
  -19.5800  -25.5958   21.1914 C   0  0  2  0  0  0  0  0  0  0  0  0
  -24.7147  -21.2725   19.4199 C   0  0  0  0  0  0  0  0  0  0  0  0
  -25.3593  -21.9141   24.7324 C   0  0  2  0  0  0  0  0  0  0  0  0
  -26.2659  -21.1042   19.8272 C   0  0  2  0  0  0  0  0  0  0  0  0
  -21.4772  -27.9878   24.8647 C   0  0  0  0  0  0  0  0  0  0  0  0
  -28.5113  -22.8219   19.9950 C   0  0  0  0  0  0  0  0  0  0  0  0
  -28.8813  -24.3384   19.5255 C   0  0  0  0  0  0  0  0  0  0  0  0
  -25.6127  -21.1052   26.0343 C   0  0  0  0  0  0  0  0  0  0  0  0
  -23.2943  -17.1047   23.0408 N   0  0  0  0  0  0  0  0  0  0  0  0
  -25.7203  -21.7005   22.2727 N   0  0  0  0  0  0  0  0  0  0  0  0
  -22.5280  -17.4886   24.0759 N   0  0  0  0  0  0  0  0  0  0  0  0
  -23.2121  -29.3618   22.0420 N   0  0  0  0  0  0  0  0  0  0  0  0
  -23.0967  -21.2696   23.9759 N   0  0  0  0  0  0  0  0  0  0  0  0
  -21.3112  -16.6640   25.9333 N   0  0  0  0  0  0  0  0  0  0  0  0
  -21.3167  -13.2499   24.2785 N   0  0  0  0  0  0  0  0  0  0  0  0
  -24.7648  -32.6463   22.3546 N   0  0  0  0  0  0  0  0  0  0  0  0
  -20.6577  -27.2118   22.5997 N   0  0  0  0  0  0  0  0  0  0  0  0
  -19.7196  -25.6485   19.7086 N   0  3  0  0  0  0  0  0  0  0  0  0
  -23.1777  -13.4497   25.6034 O   0  0  0  0  0  0  0  0  0  0  0  0
  -24.6698  -30.7133   23.6496 O   0  0  0  0  0  0  0  0  0  0  0  0
  -21.0839  -30.0430   22.7078 O   0  0  0  0  0  0  0  0  0  0  0  0
  -23.4301  -23.1931   25.2366 O   0  0  0  0  0  0  0  0  0  0  0  0
  -21.9302  -25.4752   21.7384 O   0  0  0  0  0  0  0  0  0  0  0  0
  -26.2252  -12.6857   19.5145 O   0  0  0  0  0  0  0  0  0  0  0  0
  -28.3751  -26.7224   19.9162 O   0  0  0  0  0  0  0  0  0  1  0  0
  -31.7247  -12.7121   19.9125 F   0  0  0  0  0  0  0  0  0  0  0  0
  -27.6549  -15.0372   19.2519 F   0  0  0  0  0  0  0  0  0  0  0  0
  -26.9359  -20.8710   26.1941 F   0  0  0  0  0  0  0  0  0  0  0  0
  -25.1827  -21.7417   27.1489 F   0  0  0  0  0  0  0  0  0  0  0  0
  -24.9919  -19.9054   25.9946 F   0  0  0  0  0  0  0  0  0  0  0  0
  1  2  1  0  0  0  0
  1  5  2  0  0  0  0
  2  6  2  0  0  0  0
  3  8  2  0  0  0  0
  3 17  1  0  0  0  0
  4  9  1  0  0  0  0
  4 17  2  0  0  0  0
  5 19  1  0  0  0  0
  6 21  1  0  0  0  0
  7 10  2  0  0  0  0
  7 20  1  0  0  0  0
  8 23  1  0  0  0  0
  9 23  2  0  0  0  0
 10 24  1  0  0  0  0
 11 12  2  0  0  0  0
 11 25  1  0  0  0  0
 12 26  1  0  0  0  0
 13 14  1  0  0  0  0
 13 29  2  0  0  0  0
 14 30  2  0  0  0  0
 15 22  1  0  0  0  0
 15 24  2  0  0  0  0
 16 26  2  0  0  0  0
 16 27  1  0  0  0  0
 17 28  1  0  0  0  0
 18 28  1  0  0  0  0
 18 31  2  0  0  0  0
 18 32  1  0  0  0  0
 19 21  2  0  0  0  0
 19 37  1  0  0  0  0
 20 22  2  0  0  0  0
 20 38  1  0  0  0  0
 21 46  1  0  0  0  0
 22 39  1  0  0  0  0
 23 91  1  0  0  0  0
 24 92  1  0  0  0  0
 25 27  2  0  0  0  0
 25 91  1  0  0  0  0
 26 93  1  0  0  0  0
 27 94  1  0  0  0  0
 28 76  2  0  0  0  0
 29 70  1  0  0  0  0
 29 77  1  0  0  0  0
 30 71  1  0  0  0  0
 30 77  1  0  0  0  0
 31 78  1  0  0  0  0
 31 81  1  0  0  0  0
 32 82  1  0  0  0  0
 32 86  2  0  0  0  0
 33 47  1  0  0  0  0
 33 83  1  0  0  0  0
 33 87  2  0  0  0  0
 34 67  1  0  0  0  0
 34 79  1  0  0  0  0
 34 88  2  0  0  0  0
 35 70  1  0  0  0  0
 35 80  1  0  0  0  0
 35 89  2  0  0  0  0
 36 68  1  0  0  0  0
 36 84  1  0  0  0  0
 36 90  2  0  0  0  0
 37 40  1  0  0  0  0
 38 47  1  0  0  0  0
 39 79  1  0  0  0  0
 40 42  1  0  0  0  0
 41 43  1  0  0  0  0
 41 44  1  0  0  0  0
 42 46  1  0  0  0  0
 43 48  1  0  0  0  0
 44 80  1  0  0  0  0
 45 48  1  0  0  0  0
 45 80  1  0  0  0  0
 46 83  1  0  0  0  0
 47 79  1  0  0  0  0
 48 78  1  0  0  0  0
 49 63  1  0  0  0  0
 50 65  1  0  0  0  0
 51 68  1  0  0  0  0
 52 69  1  0  0  0  0
 53 69  1  0  0  0  0
 54 70  1  0  0  0  0
 55 72  1  0  0  0  0
 56 72  1  0  0  0  0
 57 72  1  0  0  0  0
 58 73  1  0  0  0  0
 59 73  1  0  0  0  0
 60 74  1  0  0  0  0
 61 74  1  0  0  0  0
 62 85  1  0  0  0  0
 63 71  1  0  0  0  0
 64 71  1  0  0  0  0
 64 73  1  0  0  0  0
 65 77  1  0  0  0  0
 66 74  1  0  0  0  0
 66 92  1  0  0  0  0
 67 72  1  0  0  0  0
 67 84  1  0  0  0  0
 68 85  1  0  0  0  0
 69 71  1  0  0  0  0
 70 75  1  0  0  0  0
 73 74  1  0  0  0  0
 75 95  1  0  0  0  0
 75 96  1  0  0  0  0
 75 97  1  0  0  0  0
 76 78  1  0  0  0  0
M  CHG  1  85   1
M  ISO  4  35 100  66 101  70 100  92 101
M  END
> <Batch ID>
0067

> <Smiles>
CCn1c(C(CC)(CC(C)(C)C(C)(C)[101CH2:1][101O:1]c2ccc3c(c2)CN(C(=O)C(NC(=O)C(C)NC)C(C)(C)C)C(C(=O)NC2CCCc4ccccc42)C3)C(C)C)ccc1[100C:0](C)([100C:0](=O)N1CCCC(n2nc(-c3ccc(Oc4ccc(F)cc4F)cc3)c(C(N)=O)c2N)C1)C(F)(F)F

> <Shape>
0.241

> <Color>
0.061

> <Negative vol penalty>
0.000

$$$$

  -OEChem-04052318123D

 89 97  0     1  0  0  0  0  0999 V2000
  -25.6530  -19.7868   24.3388 C   0  0  0  0  0  0  0  0  0  0  0  0
  -25.8764  -21.0718   23.8546 C   0  0  0  0  0  0  0  0  0  0  0  0
  -24.2780  -13.0960   21.2985 C   0  0  0  0  0  0  0  0  0  0  0  0
  -26.2536  -12.7057   19.9637 C   0  0  0  0  0  0  0  0  0  0  0  0
  -24.4635  -19.1258   24.0353 C   0  0  0  0  0  0  0  0  0  0  0  0
  -24.9109  -21.6961   23.0657 C   0  0  0  0  0  0  0  0  0  0  0  0
  -24.1150  -26.5114   24.4164 C   0  0  0  0  0  0  0  0  0  0  0  0
  -23.7775  -11.8495   20.9223 C   0  0  0  0  0  0  0  0  0  0  0  0
  -25.7532  -11.4592   19.5875 C   0  0  0  0  0  0  0  0  0  0  0  0
  -25.0545  -27.4533   23.9993 C   0  0  0  0  0  0  0  0  0  0  0  0
  -24.2596   -8.6123   21.7713 C   0  0  0  0  0  0  0  0  0  0  0  0
  -23.7080   -7.8075   22.7680 C   0  0  0  0  0  0  0  0  0  0  0  0
  -23.5913  -28.1049   22.1955 C   0  0  0  0  0  0  0  0  0  0  0  0
  -21.5930   -7.8106   21.6001 C   0  0  0  0  0  0  0  0  0  0  0  0
  -29.5157  -27.2241   21.9671 C   0  0  0  0  0  0  0  0  0  0  0  0
  -25.5160  -13.5241   20.8192 C   0  0  0  0  0  0  0  0  0  0  0  0
  -26.8434  -15.1021   22.3210 C   0  0  0  0  0  0  0  0  0  0  0  0
  -23.4788  -19.7461   23.2503 C   0  0  0  0  0  0  0  0  0  0  0  0
  -22.9093  -26.3513   23.7185 C   0  0  0  0  0  0  0  0  0  0  0  0
  -23.7077  -21.0422   22.7503 C   0  0  0  0  0  0  0  0  0  0  0  0
  -22.6371  -27.1620   22.6073 C   0  0  0  0  0  0  0  0  0  0  0  0
  -24.5152  -11.0311   20.0668 C   0  0  0  0  0  0  0  0  0  0  0  0
  -24.7940  -28.2482   22.8869 C   0  0  0  0  0  0  0  0  0  0  0  0
  -23.4779   -9.0163   20.6889 C   0  0  0  0  0  0  0  0  0  0  0  0
  -22.3747   -7.4066   22.6825 C   0  0  0  0  0  0  0  0  0  0  0  0
  -22.1446   -8.6155   20.6033 C   0  0  0  0  0  0  0  0  0  0  0  0
  -26.0332  -14.8118   21.2070 C   0  0  0  0  0  0  0  0  0  0  0  0
  -29.2862  -26.7211   20.7176 C   0  0  0  0  0  0  0  0  0  0  0  0
  -27.0602  -16.4562   22.2444 C   0  0  0  0  0  0  0  0  0  0  0  0
  -28.1272  -28.5960   20.9228 C   0  0  0  0  0  0  0  0  0  0  0  0
  -27.3545  -14.2260   23.3344 C   0  0  0  0  0  0  0  0  0  0  0  0
  -21.5438  -23.9695   22.1167 C   0  0  0  0  0  0  0  0  0  0  0  0
  -19.0424  -26.0287   21.9576 C   0  0  0  0  0  0  0  0  0  0  0  0
  -17.9373  -29.2565   22.0394 C   0  0  0  0  0  0  0  0  0  0  0  0
  -28.4022  -20.9024   19.3500 C   0  0  0  0  0  0  0  0  0  0  0  0
  -22.2291  -18.9736   22.9094 C   0  0  0  0  0  0  0  0  0  0  0  0
  -21.8948  -25.3494   24.1972 C   0  0  0  0  0  0  0  0  0  0  0  0
  -21.3491  -27.0435   21.8357 C   0  0  0  0  0  0  0  0  0  0  0  0
  -21.0973  -19.8496   22.3784 C   0  0  0  0  0  0  0  0  0  0  0  0
  -24.9033  -19.9779   19.3225 C   0  0  0  0  0  0  0  0  0  0  0  0
  -21.6215  -20.8162   21.3212 C   0  0  0  0  0  0  0  0  0  0  0  0
  -24.9574  -18.5653   19.9072 C   0  0  0  0  0  0  0  0  0  0  0  0
  -26.1015  -20.2476   18.4170 C   0  0  0  0  0  0  0  0  0  0  0  0
  -27.4815  -18.6212   19.6514 C   0  0  0  0  0  0  0  0  0  0  0  0
  -22.6738  -21.7623   21.9120 C   0  0  1  0  0  0  0  0  0  0  0  0
  -20.9222  -24.9153   23.1049 C   0  0  1  0  0  0  0  0  0  0  0  0
  -26.3091  -18.2946   20.5941 C   0  0  2  0  0  0  0  0  0  0  0  0
  -15.8447  -30.6277   21.8437 C   0  0  0  0  0  0  0  0  0  0  0  0
  -27.7698  -23.9740   20.9050 C   0  0  0  0  0  0  0  0  0  0  0  0
  -28.3576  -28.5912   17.8356 C   0  0  0  0  0  0  0  0  0  0  0  0
  -26.3880  -27.2757   18.7279 C   0  0  0  0  0  0  0  0  0  0  0  0
  -30.6340  -25.7451   18.7434 C   0  0  0  0  0  0  0  0  0  0  0  0
  -30.8390  -24.7896   21.0183 C   0  0  0  0  0  0  0  0  0  0  0  0
  -27.1608  -30.1998   19.1415 C   0  0  0  0  0  0  0  0  0  0  0  0
  -27.6980  -31.0215   21.4249 C   0  0  0  0  0  0  0  0  0  0  0  0
  -19.0623  -25.6228   18.9335 C   0  0  0  0  0  0  0  0  0  0  0  0
  -17.6441  -27.6749   18.7189 C   0  0  0  0  0  0  0  0  0  0  0  0
  -16.7837  -25.6907   19.9621 C   0  0  0  0  0  0  0  0  0  0  0  0
  -18.2455  -30.3296   24.7803 C   0  0  0  0  0  0  0  0  0  0  0  0
  -29.1927  -23.2234   18.9687 C   0  0  0  0  0  0  0  0  0  0  0  0
  -25.7506  -29.4667   21.0825 C   0  0  0  0  0  0  0  0  0  1  0  0
  -18.6049  -27.1071   20.9960 C   0  0  1  0  0  0  0  0  0  0  0  0
  -16.7927  -29.9105   22.7922 C   0  0  2  0  0  0  0  0  0  0  0  0
  -28.6339  -24.4515   19.7223 C   0  0  2  0  0  0  0  0  0  0  0  0
  -27.9082  -27.4459   18.7450 C   0  0  0  0  0  0  0  0  0  0  0  0
  -29.8024  -25.5091   20.0700 C   0  0  0  0  0  0  0  0  0  0  0  0
  -27.1990  -29.7906   20.6337 C   0  0  0  0  0  0  0  0  0  0  0  0
  -18.0490  -26.5250   19.6658 C   0  0  0  0  0  0  0  0  0  0  0  0
  -25.7540  -15.8945   20.4763 N   0  0  0  0  0  0  0  0  0  0  0  0
  -28.4233  -27.5897   20.0938 N   0  0  0  0  0  0  0  0  0  0  0  0
  -26.3923  -16.8783   21.1326 N   0  0  0  0  0  0  0  0  0  0  0  0
  -28.7864  -28.3844   22.0665 N   0  3  0  0  0  0  0  0  0  0  0  0
  -20.3915  -26.0450   22.3392 N   0  0  0  0  0  0  0  0  0  0  0  0
  -27.3565  -19.9889   19.1367 N   0  0  0  0  0  0  0  0  0  0  0  0
  -27.7549  -17.3151   23.0203 N   0  0  0  0  0  0  0  0  0  0  0  0
  -27.0357  -12.8631   23.2622 N   0  0  0  0  0  0  0  0  0  0  0  0
  -22.0370  -22.8091   22.6820 N   0  0  0  0  0  0  0  0  0  0  0  0
  -17.6573  -27.9436   21.7245 N   0  0  0  0  0  0  0  0  0  0  0  0
  -28.2082  -22.1741   18.8247 N   0  0  0  0  0  0  0  0  0  0  0  0
  -17.3174  -30.9033   23.7720 N   0  3  0  0  0  0  0  0  0  0  0  0
  -28.0591  -14.6422   24.2851 O   0  0  0  0  0  0  0  0  0  0  0  0
  -21.5725  -24.2696   20.9289 O   0  0  0  0  0  0  0  0  0  0  0  0
  -18.2160  -25.2065   22.3610 O   0  0  0  0  0  0  0  0  0  0  0  0
  -18.9743  -29.8519   21.7557 O   0  0  0  0  0  0  0  0  0  0  0  0
  -29.4310  -20.6082   19.9681 O   0  0  0  0  0  0  0  0  0  0  0  0
  -24.0273   -9.8147   19.6997 O   0  0  0  0  0  0  0  0  0  0  0  0
  -25.7095  -29.1679   22.4772 O   0  0  0  0  0  0  0  0  0  1  0  0
  -21.8455   -6.6325   23.6390 F   0  0  0  0  0  0  0  0  0  0  0  0
  -21.3891   -8.9995   19.5653 F   0  0  0  0  0  0  0  0  0  0  0  0
  1  2  1  0  0  0  0
  1  5  2  0  0  0  0
  2  6  2  0  0  0  0
  3  8  2  0  0  0  0
  3 16  1  0  0  0  0
  4  9  1  0  0  0  0
  4 16  2  0  0  0  0
  5 18  1  0  0  0  0
  6 20  1  0  0  0  0
  7 10  2  0  0  0  0
  7 19  1  0  0  0  0
  8 22  1  0  0  0  0
  9 22  2  0  0  0  0
 10 23  1  0  0  0  0
 11 12  2  0  0  0  0
 11 24  1  0  0  0  0
 12 25  1  0  0  0  0
 13 21  1  0  0  0  0
 13 23  2  0  0  0  0
 14 25  2  0  0  0  0
 14 26  1  0  0  0  0
 15 28  2  0  0  0  0
 15 72  1  0  0  0  0
 16 27  1  0  0  0  0
 17 27  1  0  0  0  0
 17 29  2  0  0  0  0
 17 31  1  0  0  0  0
 18 20  2  0  0  0  0
 18 36  1  0  0  0  0
 19 21  2  0  0  0  0
 19 37  1  0  0  0  0
 20 45  1  0  0  0  0
 21 38  1  0  0  0  0
 22 86  1  0  0  0  0
 23 87  1  0  0  0  0
 24 26  2  0  0  0  0
 24 86  1  0  0  0  0
 25 88  1  0  0  0  0
 26 89  1  0  0  0  0
 27 69  2  0  0  0  0
 28 66  1  0  0  0  0
 28 70  1  0  0  0  0
 29 71  1  0  0  0  0
 29 75  1  0  0  0  0
 30 67  1  0  0  0  0
 30 70  1  0  0  0  0
 30 72  2  0  0  0  0
 31 76  1  0  0  0  0
 31 81  2  0  0  0  0
 32 46  1  0  0  0  0
 32 77  1  0  0  0  0
 32 82  2  0  0  0  0
 33 62  1  0  0  0  0
 33 73  1  0  0  0  0
 33 83  2  0  0  0  0
 34 63  1  0  0  0  0
 34 78  1  0  0  0  0
 34 84  2  0  0  0  0
 35 74  1  0  0  0  0
 35 79  1  0  0  0  0
 35 85  2  0  0  0  0
 36 39  1  0  0  0  0
 37 46  1  0  0  0  0
 38 73  1  0  0  0  0
 39 41  1  0  0  0  0
 40 42  1  0  0  0  0
 40 43  1  0  0  0  0
 41 45  1  0  0  0  0
 42 47  1  0  0  0  0
 43 74  1  0  0  0  0
 44 47  1  0  0  0  0
 44 74  1  0  0  0  0
 45 77  1  0  0  0  0
 46 73  1  0  0  0  0
 47 71  1  0  0  0  0
 48 63  1  0  0  0  0
 49 64  1  0  0  0  0
 50 65  1  0  0  0  0
 51 65  1  0  0  0  0
 52 66  1  0  0  0  0
 53 66  1  0  0  0  0
 54 67  1  0  0  0  0
 55 67  1  0  0  0  0
 56 68  1  0  0  0  0
 57 68  1  0  0  0  0
 58 68  1  0  0  0  0
 59 80  1  0  0  0  0
 60 64  1  0  0  0  0
 60 79  1  0  0  0  0
 61 67  1  0  0  0  0
 61 87  1  0  0  0  0
 62 68  1  0  0  0  0
 62 78  1  0  0  0  0
 63 80  1  0  0  0  0
 64 66  1  0  0  0  0
 65 70  1  0  0  0  0
 69 71  1  0  0  0  0
M  CHG  2  72   1  80   1
M  ISO  4  35 100  61 101  79 100  87 101
M  END
> <Batch ID>
0067

> <Smiles>
CNC(C)C(=O)NC(C(=O)N1Cc2cc([101O:1][101CH2:1]C(C)(C)c3ncc(C(C)(C)C(C)C[100NH:0][100C:0](=O)N4CCCC(n5nc(-c6ccc(Oc7ccc(F)cc7F)cc6)c(C(N)=O)c5N)C4)n3C(C)C)ccc2CC1C(=O)NC1CCCc2ccccc21)C(C)(C)C

> <Shape>
0.251

> <Color>
0.044

> <Negative vol penalty>
0.000

$$$$

  -OEChem-04052318123D

 85 93  0     1  0  0  0  0  0999 V2000
  -39.6940  -24.3159   17.3024 C   0  0  0  0  0  0  0  0  0  0  0  0
  -38.6469  -24.8278   18.0619 C   0  0  0  0  0  0  0  0  0  0  0  0
  -23.0786   -9.8688   19.9574 C   0  0  0  0  0  0  0  0  0  0  0  0
  -23.8222   -9.8997   22.2559 C   0  0  0  0  0  0  0  0  0  0  0  0
  -39.7925  -22.9415   17.0898 C   0  0  0  0  0  0  0  0  0  0  0  0
  -37.6969  -23.9657   18.6083 C   0  0  0  0  0  0  0  0  0  0  0  0
  -33.4588  -23.2375   24.3376 C   0  0  0  0  0  0  0  0  0  0  0  0
  -22.3198   -8.7279   20.2182 C   0  0  0  0  0  0  0  0  0  0  0  0
  -23.0633   -8.7588   22.5167 C   0  0  0  0  0  0  0  0  0  0  0  0
  -32.1232  -23.0113   24.6676 C   0  0  0  0  0  0  0  0  0  0  0  0
  -19.3523   -7.9857   21.6591 C   0  0  0  0  0  0  0  0  0  0  0  0
  -18.0485   -7.9474   21.1651 C   0  0  0  0  0  0  0  0  0  0  0  0
  -32.4390  -20.6481   24.3004 C   0  0  0  0  0  0  0  0  0  0  0  0
  -18.5951   -5.9795   19.8745 C   0  0  0  0  0  0  0  0  0  0  0  0
  -28.8910  -18.2959   21.1963 C   0  0  0  0  0  0  0  0  0  0  0  0
  -23.8299  -10.4547   20.9762 C   0  0  0  0  0  0  0  0  0  0  0  0
  -24.2016  -12.9738   20.8230 C   0  0  0  0  0  0  0  0  0  0  0  0
  -38.8487  -22.0612   17.6420 C   0  0  0  0  0  0  0  0  0  0  0  0
  -34.2930  -22.1701   23.9754 C   0  0  0  0  0  0  0  0  0  0  0  0
  -37.7821  -22.5783   18.4018 C   0  0  0  0  0  0  0  0  0  0  0  0
  -33.7854  -20.8631   23.9687 C   0  0  0  0  0  0  0  0  0  0  0  0
  -27.7001  -18.2401   21.8914 C   0  0  0  0  0  0  0  0  0  0  0  0
  -22.3121   -8.1728   21.4978 C   0  0  0  0  0  0  0  0  0  0  0  0
  -31.6124  -21.7169   24.6462 C   0  0  0  0  0  0  0  0  0  0  0  0
  -20.2777   -7.0208   21.2608 C   0  0  0  0  0  0  0  0  0  0  0  0
  -17.6699   -6.9444   20.2728 C   0  0  0  0  0  0  0  0  0  0  0  0
  -19.8990   -6.0178   20.3685 C   0  0  0  0  0  0  0  0  0  0  0  0
  -24.6145  -11.6329   20.7072 C   0  0  0  0  0  0  0  0  0  0  0  0
  -27.5148  -17.1150   22.6687 C   0  0  0  0  0  0  0  0  0  0  0  0
  -25.3049  -13.7055   20.4571 C   0  0  0  0  0  0  0  0  0  0  0  0
  -29.5368  -16.2871   22.0418 C   0  0  0  0  0  0  0  0  0  0  0  0
  -22.9342  -13.5100   21.2253 C   0  0  0  0  0  0  0  0  0  0  0  0
  -35.9205  -21.3824   21.3610 C   0  0  0  0  0  0  0  0  0  0  0  0
  -37.0488  -19.0012   23.2530 C   0  0  0  0  0  0  0  0  0  0  0  0
  -30.8179  -14.5992   20.7689 C   0  0  0  0  0  0  0  0  0  0  0  0
  -36.5877  -17.0039   25.9815 C   0  0  0  0  0  0  0  0  0  0  0  0
  -38.9700  -20.5874   17.3453 C   0  0  0  0  0  0  0  0  0  0  0  0
  -35.7384  -22.4276   23.6480 C   0  0  0  0  0  0  0  0  0  0  0  0
  -34.6448  -19.6804   23.6066 C   0  0  0  0  0  0  0  0  0  0  0  0
  -38.1334  -19.7087   18.2718 C   0  0  0  0  0  0  0  0  0  0  0  0
  -29.6445  -12.2809   18.3015 C   0  0  0  0  0  0  0  0  0  0  0  0
  -36.7224  -20.2712   18.4107 C   0  0  0  0  0  0  0  0  0  0  0  0
  -28.2075  -11.9927   18.7343 C   0  0  0  0  0  0  0  0  0  0  0  0
  -30.5587  -12.4901   19.5046 C   0  0  0  0  0  0  0  0  0  0  0  0
  -28.6541  -13.2663   20.8799 C   0  0  0  0  0  0  0  0  0  0  0  0
  -36.7459  -21.6730   19.0319 C   0  0  1  0  0  0  0  0  0  0  0  0
  -36.3632  -21.3273   22.7958 C   0  0  1  0  0  0  0  0  0  0  0  0
  -27.6910  -13.0790   19.6943 C   0  0  2  0  0  0  0  0  0  0  0  0
  -26.2634  -16.9463   23.4656 C   0  0  0  0  0  0  0  0  0  0  0  0
  -37.6635  -15.1269   27.2532 C   0  0  0  0  0  0  0  0  0  0  0  0
  -31.8973  -15.6949   22.6994 C   0  0  0  0  0  0  0  0  0  0  0  0
  -36.1743  -17.0367   21.0883 C   0  0  0  0  0  0  0  0  0  0  0  0
  -36.3854  -15.1956   22.7717 C   0  0  0  0  0  0  0  0  0  0  0  0
  -38.3927  -16.5276   22.1246 C   0  0  0  0  0  0  0  0  0  0  0  0
  -36.8011  -18.6374   28.4402 C   0  0  0  0  0  0  0  0  0  0  0  0
  -26.6841  -19.3499   21.7901 C   0  0  0  0  0  0  0  0  0  0  0  0
  -26.6930  -20.3089   22.9858 C   0  0  0  0  0  0  0  0  0  0  0  0
  -28.0613  -20.9543   23.2265 C   0  0  0  0  0  0  0  0  0  0  0  0
  -28.0160  -21.9237   24.4064 C   0  0  0  0  0  0  0  0  0  0  0  0
  -29.3810  -22.5389   24.6806 C   0  0  0  0  0  0  0  0  0  1  0  0
  -36.6131  -17.5914   23.5714 C   0  0  1  0  0  0  0  0  0  0  0  0
  -37.5124  -16.6350   27.1275 C   0  0  2  0  0  0  0  0  0  0  0  0
  -30.5571  -15.2027   22.1260 C   0  0  1  0  0  0  0  0  0  0  0  0
  -36.8744  -16.6101   22.3940 C   0  0  0  0  0  0  0  0  0  0  0  0
  -29.8352  -17.3336   21.2486 N   0  0  0  0  0  0  0  0  0  0  0  0
  -25.8811  -11.5167   20.2996 N   0  0  0  0  0  0  0  0  0  0  0  0
  -28.4154  -16.1153   22.7675 N   0  0  0  0  0  0  0  0  0  0  0  0
  -26.2736  -12.7939   20.1558 N   0  0  0  0  0  0  0  0  0  0  0  0
  -36.0497  -19.9843   23.2881 N   0  0  0  0  0  0  0  0  0  0  0  0
  -30.0220  -13.5134   20.4034 N   0  0  0  0  0  0  0  0  0  0  0  0
  -25.5311  -15.0333   20.3668 N   0  0  0  0  0  0  0  0  0  0  0  0
  -21.9095  -12.6173   21.5681 N   0  0  0  0  0  0  0  0  0  0  0  0
  -36.9496  -21.5887   20.4622 N   0  0  0  0  0  0  0  0  0  0  0  0
  -37.2859  -17.2269   24.8135 N   0  0  0  0  0  0  0  0  0  0  0  0
  -36.9779  -17.1626   28.4147 N   0  3  0  0  0  0  0  0  0  0  0  0
  -22.7117  -14.7439   21.2636 O   0  0  0  0  0  0  0  0  0  0  0  0
  -34.7333  -21.2462   21.0894 O   0  0  0  0  0  0  0  0  0  0  0  0
  -38.2333  -19.2233   22.9900 O   0  0  0  0  0  0  0  0  0  0  0  0
  -31.7011  -15.0817   20.0551 O   0  0  0  0  0  0  0  0  0  0  0  0
  -35.3678  -17.0825   26.1087 O   0  0  0  0  0  0  0  0  0  0  0  0
  -21.5715   -7.0597   21.7528 O   0  0  0  0  0  0  0  0  0  0  0  0
  -30.3089  -21.4934   24.9673 O   0  0  0  0  0  0  0  0  0  1  0  0
  -16.4173   -6.9069   19.7997 F   0  0  0  0  0  0  0  0  0  0  0  0
  -20.7832   -5.0874   19.9832 F   0  0  0  0  0  0  0  0  0  0  0  0
  -30.1746  -14.1697   22.9580 F   0  0  0  0  0  0  0  0  0  0  0  0
  1  2  1  0  0  0  0
  1  5  2  0  0  0  0
  2  6  2  0  0  0  0
  3  8  2  0  0  0  0
  3 16  1  0  0  0  0
  4  9  1  0  0  0  0
  4 16  2  0  0  0  0
  5 18  1  0  0  0  0
  6 20  1  0  0  0  0
  7 10  2  0  0  0  0
  7 19  1  0  0  0  0
  8 23  1  0  0  0  0
  9 23  2  0  0  0  0
 10 24  1  0  0  0  0
 11 12  2  0  0  0  0
 11 25  1  0  0  0  0
 12 26  1  0  0  0  0
 13 21  1  0  0  0  0
 13 24  2  0  0  0  0
 14 26  2  0  0  0  0
 14 27  1  0  0  0  0
 15 22  1  0  0  0  0
 15 65  2  0  0  0  0
 16 28  1  0  0  0  0
 17 28  1  0  0  0  0
 17 30  2  0  0  0  0
 17 32  1  0  0  0  0
 18 20  2  0  0  0  0
 18 37  1  0  0  0  0
 19 21  2  0  0  0  0
 19 38  1  0  0  0  0
 20 46  1  0  0  0  0
 21 39  1  0  0  0  0
 22 29  2  0  0  0  0
 22 56  1  0  0  0  0
 23 81  1  0  0  0  0
 24 82  1  0  0  0  0
 25 27  2  0  0  0  0
 25 81  1  0  0  0  0
 26 83  1  0  0  0  0
 27 84  1  0  0  0  0
 28 66  2  0  0  0  0
 29 49  1  0  0  0  0
 29 67  1  0  0  0  0
 30 68  1  0  0  0  0
 30 71  1  0  0  0  0
 31 63  1  0  0  0  0
 31 65  1  0  0  0  0
 31 67  2  0  0  0  0
 32 72  1  0  0  0  0
 32 76  2  0  0  0  0
 33 47  1  0  0  0  0
 33 73  1  0  0  0  0
 33 77  2  0  0  0  0
 34 61  1  0  0  0  0
 34 69  1  0  0  0  0
 34 78  2  0  0  0  0
 35 63  1  0  0  0  0
 35 70  1  0  0  0  0
 35 79  2  0  0  0  0
 36 62  1  0  0  0  0
 36 74  1  0  0  0  0
 36 80  2  0  0  0  0
 37 40  1  0  0  0  0
 38 47  1  0  0  0  0
 39 69  1  0  0  0  0
 40 42  1  0  0  0  0
 41 43  1  0  0  0  0
 41 44  1  0  0  0  0
 42 46  1  0  0  0  0
 43 48  1  0  0  0  0
 44 70  1  0  0  0  0
 45 48  1  0  0  0  0
 45 70  1  0  0  0  0
 46 73  1  0  0  0  0
 47 69  1  0  0  0  0
 48 68  1  0  0  0  0
 50 62  1  0  0  0  0
 51 63  1  0  0  0  0
 52 64  1  0  0  0  0
 53 64  1  0  0  0  0
 54 64  1  0  0  0  0
 55 75  1  0  0  0  0
 56 57  1  0  0  0  0
 57 58  1  0  0  0  0
 58 59  1  0  0  0  0
 59 60  1  0  0  0  0
 60 82  1  0  0  0  0
 61 64  1  0  0  0  0
 61 74  1  0  0  0  0
 62 75  1  0  0  0  0
 63 85  1  0  0  0  0
 66 68  1  0  0  0  0
M  CHG  1  75   1
M  ISO  4  35 100  60 101  63 100  82 101
M  END
> <Batch ID>
0067

> <Smiles>
CNC(C)C(=O)NC(C(=O)N1Cc2cc([101O:1][101CH2:1]CCCCc3cnc([100C:0](C)(F)[100C:0](=O)N4CCCC(n5nc(-c6ccc(Oc7ccc(F)cc7F)cc6)c(C(N)=O)c5N)C4)nc3C)ccc2CC1C(=O)NC1CCCc2ccccc21)C(C)(C)C

> <Shape>
0.159

> <Color>
0.191

> <Negative vol penalty>
0.000

$$$$

  -OEChem-04052318123D

 99107  0     1  0  0  0  0  0999 V2000
  -17.0423  -27.0917   22.4491 C   0  0  0  0  0  0  0  0  0  0  0  0
  -18.1544  -26.2974   22.7093 C   0  0  0  0  0  0  0  0  0  0  0  0
  -23.8699   -9.8089   22.0920 C   0  0  0  0  0  0  0  0  0  0  0  0
  -22.2993  -10.3139   20.3270 C   0  0  0  0  0  0  0  0  0  0  0  0
  -17.2089  -28.4370   22.1230 C   0  0  0  0  0  0  0  0  0  0  0  0
  -19.4339  -26.8477   22.6424 C   0  0  0  0  0  0  0  0  0  0  0  0
  -22.3495  -25.4660   26.5457 C   0  0  0  0  0  0  0  0  0  0  0  0
  -23.4956   -8.4662   22.0410 C   0  0  0  0  0  0  0  0  0  0  0  0
  -21.9250   -8.9711   20.2760 C   0  0  0  0  0  0  0  0  0  0  0  0
  -22.9049  -24.1879   26.5044 C   0  0  0  0  0  0  0  0  0  0  0  0
  -20.9438   -6.5483   23.1519 C   0  0  0  0  0  0  0  0  0  0  0  0
  -20.7160   -5.8934   24.3622 C   0  0  0  0  0  0  0  0  0  0  0  0
  -25.4803  -22.3167   17.4258 C   0  0  0  0  0  0  0  0  0  0  0  0
  -26.6419  -22.9004   16.9516 C   0  0  0  0  0  0  0  0  0  0  0  0
  -24.9959  -25.1273   25.7531 C   0  0  0  0  0  0  0  0  0  0  0  0
  -22.4655   -4.3125   23.8359 C   0  0  0  0  0  0  0  0  0  0  0  0
  -23.2717  -10.7328   21.2350 C   0  0  0  0  0  0  0  0  0  0  0  0
  -24.6831  -12.7456   20.5537 C   0  0  0  0  0  0  0  0  0  0  0  0
  -18.4906  -29.0064   22.0615 C   0  0  0  0  0  0  0  0  0  0  0  0
  -23.1111  -26.5852   26.1799 C   0  0  0  0  0  0  0  0  0  0  0  0
  -19.6179  -28.2015   22.3138 C   0  0  0  0  0  0  0  0  0  0  0  0
  -24.4486  -26.4188   25.7930 C   0  0  0  0  0  0  0  0  0  0  0  0
  -22.5232   -8.0473   21.1330 C   0  0  0  0  0  0  0  0  0  0  0  0
  -24.2274  -24.0181   26.1054 C   0  0  0  0  0  0  0  0  0  0  0  0
  -21.9324   -6.0853   22.2836 C   0  0  0  0  0  0  0  0  0  0  0  0
  -21.4769   -4.7755   24.7042 C   0  0  0  0  0  0  0  0  0  0  0  0
  -22.6933   -4.9674   22.6256 C   0  0  0  0  0  0  0  0  0  0  0  0
  -23.6575  -12.1200   21.2876 C   0  0  0  0  0  0  0  0  0  0  0  0
  -25.0865  -22.6156   18.7146 C   0  0  0  0  0  0  0  0  0  0  0  0
  -27.3327  -23.7446   17.7976 C   0  0  0  0  0  0  0  0  0  0  0  0
  -24.6459  -14.0568   20.9608 C   0  0  0  0  0  0  0  0  0  0  0  0
  -25.5883  -12.1910   19.5900 C   0  0  0  0  0  0  0  0  0  0  0  0
  -22.8956  -28.8008   23.9109 C   0  0  0  0  0  0  0  0  0  0  0  0
  -25.4058  -30.1098   25.4945 C   0  0  0  0  0  0  0  0  0  0  0  0
  -28.0672  -29.6593   27.5828 C   0  0  0  0  0  0  0  0  0  0  0  0
  -21.7892  -18.6836   22.2169 C   0  0  0  0  0  0  0  0  0  0  0  0
  -18.6233  -30.4537   21.6585 C   0  0  0  0  0  0  0  0  0  0  0  0
  -22.5054  -27.9598   26.2554 C   0  0  0  0  0  0  0  0  0  0  0  0
  -25.3148  -27.5898   25.4099 C   0  0  0  0  0  0  0  0  0  0  0  0
  -19.9918  -31.0512   21.9755 C   0  0  0  0  0  0  0  0  0  0  0  0
  -22.1650  -16.2475   24.7860 C   0  0  0  0  0  0  0  0  0  0  0  0
  -21.1031  -30.1058   21.5305 C   0  0  0  0  0  0  0  0  0  0  0  0
  -22.6651  -15.0071   24.0436 C   0  0  0  0  0  0  0  0  0  0  0  0
  -21.1555  -17.0347   23.9535 C   0  0  0  0  0  0  0  0  0  0  0  0
  -22.1194  -16.1617   21.8601 C   0  0  0  0  0  0  0  0  0  0  0  0
  -21.0207  -28.7680   22.2755 C   0  0  1  0  0  0  0  0  0  0  0  0
  -23.2175  -28.9762   25.3681 C   0  0  1  0  0  0  0  0  0  0  0  0
  -23.1817  -15.3656   22.6373 C   0  0  2  0  0  0  0  0  0  0  0  0
  -29.9553  -30.9085   28.6652 C   0  0  0  0  0  0  0  0  0  0  0  0
  -24.3937  -21.8415   22.2877 C   0  0  0  0  0  0  0  0  0  0  0  0
  -26.9037  -30.1440   22.8365 C   0  0  0  0  0  0  0  0  0  0  0  0
  -29.0275  -30.4856   24.1175 C   0  0  0  0  0  0  0  0  0  0  0  0
  -27.2136  -32.1940   24.2351 C   0  0  0  0  0  0  0  0  0  0  0  0
  -28.2614  -20.4428   24.3725 C   0  0  0  0  0  0  0  0  0  0  0  0
  -27.1319  -21.7478   22.5844 C   0  0  0  0  0  0  0  0  0  0  0  0
  -26.3020  -18.0882   23.9157 C   0  0  0  0  0  0  0  0  0  0  0  0
  -27.5602  -18.7616   21.8814 C   0  0  0  0  0  0  0  0  0  0  0  0
  -24.5183  -19.5844   19.0316 C   0  0  0  0  0  0  0  0  0  0  0  0
  -27.0845  -29.0217   30.3007 C   0  0  0  0  0  0  0  0  0  0  0  0
  -23.8247  -22.0022   19.2832 C   0  0  0  0  0  0  0  0  0  0  0  0
  -25.8166  -21.0697   24.6554 C   0  0  0  0  0  0  0  0  0  0  0  0
  -25.1002  -19.4230   22.1237 C   0  0  0  0  0  0  0  0  0  0  0  0
  -22.4861  -20.2119   20.3899 C   0  0  0  0  0  0  0  0  0  0  0  0
  -25.7925  -22.5357   25.1008 C   0  0  0  0  0  0  0  0  0  1  0  0
  -26.9074  -29.9780   25.4130 C   0  0  1  0  0  0  0  0  0  0  0  0
  -28.5221  -30.4222   28.8138 C   0  0  2  0  0  0  0  0  0  0  0  0
  -24.8840  -20.7467   21.3175 C   0  0  1  0  0  0  0  0  0  0  0  0
  -28.5876  -24.4011   17.3336 C   0  0  0  0  0  0  0  0  0  0  0  0
  -27.4964  -30.6779   24.1558 C   0  0  0  0  0  0  0  0  0  0  0  0
  -26.9153  -20.6168   23.6223 C   0  0  0  0  0  0  0  0  0  0  0  0
  -26.4724  -19.2322   22.8796 C   0  0  0  0  0  0  0  0  0  0  0  0
  -23.9497  -20.6192   20.0367 C   0  0  1  0  0  0  0  0  0  0  0  0
  -29.8253  -23.5667   17.6305 C   0  0  0  0  0  0  0  0  0  0  0  0
  -23.0158  -12.9644   22.0996 N   0  0  0  0  0  0  0  0  0  0  0  0
  -25.7823  -23.4454   19.5205 N   0  0  0  0  0  0  0  0  0  0  0  0
  -26.9238  -24.0194   19.0543 N   0  0  0  0  0  0  0  0  0  0  0  0
  -23.6398  -14.1339   21.8783 N   0  0  0  0  0  0  0  0  0  0  0  0
  -24.6751  -28.9131   25.4939 N   0  0  0  0  0  0  0  0  0  0  0  0
  -21.7076  -17.3443   22.6324 N   0  0  0  0  0  0  0  0  0  0  0  0
  -25.3761  -15.1399   20.6198 N   0  0  0  0  0  0  0  0  0  0  0  0
  -25.4893  -10.8258   19.2886 N   0  0  0  0  0  0  0  0  0  0  0  0
  -21.5494  -28.9026   23.6160 N   0  0  0  0  0  0  0  0  0  0  0  0
  -27.4307  -30.4824   26.6780 N   0  0  0  0  0  0  0  0  0  0  0  0
  -22.3308  -18.8896   20.9539 N   0  0  0  0  0  0  0  0  0  0  0  0
  -28.4438  -29.5518   30.0210 N   0  3  0  0  0  0  0  0  0  0  0  0
  -26.4700  -12.8820   19.0255 O   0  0  0  0  0  0  0  0  0  0  0  0
  -23.8015  -28.5903   23.1130 O   0  0  0  0  0  0  0  0  0  0  0  0
  -24.9001  -31.2328   25.5636 O   0  0  0  0  0  0  0  0  0  0  0  0
  -28.2606  -28.4544   27.4367 O   0  0  0  0  0  0  0  0  0  0  0  0
  -21.4126  -19.6263   22.9214 O   0  0  0  0  0  0  0  0  0  0  0  0
  -22.1578   -6.7371   21.0827 O   0  0  0  0  0  0  0  0  0  0  0  0
  -24.7764  -22.7610   26.0632 O   0  0  0  0  0  0  0  0  0  1  0  0
  -21.2590   -4.1476   25.8671 F   0  0  0  0  0  0  0  0  0  0  0  0
  -23.6452   -4.5187   21.7960 F   0  0  0  0  0  0  0  0  0  0  0  0
  -28.5905  -24.6517   15.9842 F   0  0  0  0  0  0  0  0  0  0  0  0
  -28.7896  -25.6312   17.9079 F   0  0  0  0  0  0  0  0  0  0  0  0
  -29.7564  -22.3628   17.0187 F   0  0  0  0  0  0  0  0  0  0  0  0
  -29.9604  -23.3420   18.9551 F   0  0  0  0  0  0  0  0  0  0  0  0
  -30.9470  -24.1796   17.1956 F   0  0  0  0  0  0  0  0  0  0  0  0
  1  2  1  0  0  0  0
  1  5  2  0  0  0  0
  2  6  2  0  0  0  0
  3  8  2  0  0  0  0
  3 17  1  0  0  0  0
  4  9  1  0  0  0  0
  4 17  2  0  0  0  0
  5 19  1  0  0  0  0
  6 21  1  0  0  0  0
  7 10  2  0  0  0  0
  7 20  1  0  0  0  0
  8 23  1  0  0  0  0
  9 23  2  0  0  0  0
 10 24  1  0  0  0  0
 11 12  2  0  0  0  0
 11 25  1  0  0  0  0
 12 26  1  0  0  0  0
 13 14  2  0  0  0  0
 13 29  1  0  0  0  0
 14 30  1  0  0  0  0
 15 22  1  0  0  0  0
 15 24  2  0  0  0  0
 16 26  2  0  0  0  0
 16 27  1  0  0  0  0
 17 28  1  0  0  0  0
 18 28  1  0  0  0  0
 18 31  2  0  0  0  0
 18 32  1  0  0  0  0
 19 21  2  0  0  0  0
 19 37  1  0  0  0  0
 20 22  2  0  0  0  0
 20 38  1  0  0  0  0
 21 46  1  0  0  0  0
 22 39  1  0  0  0  0
 23 91  1  0  0  0  0
 24 92  1  0  0  0  0
 25 27  2  0  0  0  0
 25 91  1  0  0  0  0
 26 93  1  0  0  0  0
 27 94  1  0  0  0  0
 28 74  2  0  0  0  0
 29 60  1  0  0  0  0
 29 75  2  0  0  0  0
 30 68  1  0  0  0  0
 30 76  2  0  0  0  0
 31 77  1  0  0  0  0
 31 80  1  0  0  0  0
 32 81  1  0  0  0  0
 32 86  2  0  0  0  0
 33 47  1  0  0  0  0
 33 82  1  0  0  0  0
 33 87  2  0  0  0  0
 34 65  1  0  0  0  0
 34 78  1  0  0  0  0
 34 88  2  0  0  0  0
 35 66  1  0  0  0  0
 35 83  1  0  0  0  0
 35 89  2  0  0  0  0
 36 79  1  0  0  0  0
 36 84  1  0  0  0  0
 36 90  2  0  0  0  0
 37 40  1  0  0  0  0
 38 47  1  0  0  0  0
 39 78  1  0  0  0  0
 40 42  1  0  0  0  0
 41 43  1  0  0  0  0
 41 44  1  0  0  0  0
 42 46  1  0  0  0  0
 43 48  1  0  0  0  0
 44 79  1  0  0  0  0
 45 48  1  0  0  0  0
 45 79  1  0  0  0  0
 46 82  1  0  0  0  0
 47 78  1  0  0  0  0
 48 77  1  0  0  0  0
 49 66  1  0  0  0  0
 50 67  1  0  0  0  0
 51 69  1  0  0  0  0
 52 69  1  0  0  0  0
 53 69  1  0  0  0  0
 54 70  1  0  0  0  0
 55 70  1  0  0  0  0
 56 71  1  0  0  0  0
 57 71  1  0  0  0  0
 58 72  1  0  0  0  0
 59 85  1  0  0  0  0
 60 72  1  0  0  0  0
 61 64  1  0  0  0  0
 61 70  1  0  0  0  0
 62 67  1  0  0  0  0
 62 71  1  0  0  0  0
 63 72  1  0  0  0  0
 63 84  1  0  0  0  0
 64 92  1  0  0  0  0
 65 69  1  0  0  0  0
 65 83  1  0  0  0  0
 66 85  1  0  0  0  0
 67 72  1  0  0  0  0
 68 73  1  0  0  0  0
 68 95  1  0  0  0  0
 68 96  1  0  0  0  0
 70 71  1  0  0  0  0
 73 97  1  0  0  0  0
 73 98  1  0  0  0  0
 73 99  1  0  0  0  0
 74 77  1  0  0  0  0
 75 76  1  0  0  0  0
M  CHG  1  85   1
M  ISO  4  36 100  64 101  84 100  92 101
M  END
> <Batch ID>
0067

> <Smiles>
CNC(C)C(=O)NC(C(=O)N1Cc2cc([101O:1][101CH2:1]CC(C)(C)C(C)(C)CC(C)C(C)(C[100NH:0][100C:0](=O)N3CCCC(n4nc(-c5ccc(Oc6ccc(F)cc6F)cc5)c(C(N)=O)c4N)C3)Cc3ccc(C(F)(F)C(F)(F)F)nn3)ccc2CC1C(=O)NC1CCCc2ccccc21)C(C)(C)C

> <Shape>
0.236

> <Color>
0.108

> <Negative vol penalty>
0.000

$$$$

  -OEChem-04052318123D

 80 88  0     1  0  0  0  0  0999 V2000
  -24.9924  -35.2629   23.3358 C   0  0  0  0  0  0  0  0  0  0  0  0
  -25.7170  -34.1001   23.0948 C   0  0  0  0  0  0  0  0  0  0  0  0
  -24.3519  -13.0130   21.5176 C   0  0  0  0  0  0  0  0  0  0  0  0
  -26.0947  -12.6301   19.8887 C   0  0  0  0  0  0  0  0  0  0  0  0
  -23.6810  -35.1817   23.8023 C   0  0  0  0  0  0  0  0  0  0  0  0
  -25.1308  -32.8552   23.3210 C   0  0  0  0  0  0  0  0  0  0  0  0
  -26.0144  -29.5797   19.5613 C   0  0  0  0  0  0  0  0  0  0  0  0
  -23.8223  -11.7512   21.2476 C   0  0  0  0  0  0  0  0  0  0  0  0
  -25.5651  -11.3683   19.6187 C   0  0  0  0  0  0  0  0  0  0  0  0
  -27.2697  -28.9742   19.5262 C   0  0  0  0  0  0  0  0  0  0  0  0
  -24.4983   -8.5397   22.0613 C   0  0  0  0  0  0  0  0  0  0  0  0
  -24.1301   -7.7454   23.1470 C   0  0  0  0  0  0  0  0  0  0  0  0
  -26.3356  -26.9929   20.5366 C   0  0  0  0  0  0  0  0  0  0  0  0
  -21.8553   -7.6901   22.3351 C   0  0  0  0  0  0  0  0  0  0  0  0
  -30.5279  -22.7182   19.7623 C   0  0  0  0  0  0  0  0  0  0  0  0
  -25.4881  -13.4525   20.8381 C   0  0  0  0  0  0  0  0  0  0  0  0
  -27.0082  -15.0816   22.0803 C   0  0  0  0  0  0  0  0  0  0  0  0
  -23.0752  -33.9351   24.0251 C   0  0  0  0  0  0  0  0  0  0  0  0
  -24.9106  -28.8992   20.0952 C   0  0  0  0  0  0  0  0  0  0  0  0
  -23.8105  -32.7572   23.7921 C   0  0  0  0  0  0  0  0  0  0  0  0
  -25.0668  -27.5910   20.5749 C   0  0  0  0  0  0  0  0  0  0  0  0
  -24.4289  -10.9288   20.2981 C   0  0  0  0  0  0  0  0  0  0  0  0
  -27.4311  -27.6817   20.0165 C   0  0  0  0  0  0  0  0  0  0  0  0
  -23.5451   -8.9094   21.1124 C   0  0  0  0  0  0  0  0  0  0  0  0
  -22.8086   -7.3205   23.2839 C   0  0  0  0  0  0  0  0  0  0  0  0
  -22.2236   -8.4846   21.2493 C   0  0  0  0  0  0  0  0  0  0  0  0
  -26.0354  -14.7561   21.1162 C   0  0  0  0  0  0  0  0  0  0  0  0
  -30.2140  -21.6591   18.9480 C   0  0  0  0  0  0  0  0  0  0  0  0
  -27.1831  -16.4374   21.9474 C   0  0  0  0  0  0  0  0  0  0  0  0
  -27.6928  -14.2342   23.0125 C   0  0  0  0  0  0  0  0  0  0  0  0
  -22.9398  -29.3917   22.5400 C   0  0  0  0  0  0  0  0  0  0  0  0
  -27.8730  -20.9105   18.6603 C   0  0  0  0  0  0  0  0  0  0  0  0
  -21.3919  -26.8224   21.3049 C   0  0  0  0  0  0  0  0  0  0  0  0
  -21.5383  -23.9856   19.4133 C   0  0  0  0  0  0  0  0  0  0  0  0
  -21.6712  -33.8981   24.5747 C   0  0  0  0  0  0  0  0  0  0  0  0
  -23.5576  -29.5564   20.1013 C   0  0  0  0  0  0  0  0  0  0  0  0
  -23.9095  -26.8100   21.1397 C   0  0  0  0  0  0  0  0  0  0  0  0
  -20.9970  -32.5360   24.4321 C   0  0  0  0  0  0  0  0  0  0  0  0
  -24.5189  -19.8731   19.3771 C   0  0  0  0  0  0  0  0  0  0  0  0
  -21.9417  -31.4237   24.8760 C   0  0  0  0  0  0  0  0  0  0  0  0
  -24.6922  -18.4648   19.9443 C   0  0  0  0  0  0  0  0  0  0  0  0
  -25.5448  -20.1661   18.2867 C   0  0  0  0  0  0  0  0  0  0  0  0
  -27.1376  -18.5563   19.2834 C   0  0  0  0  0  0  0  0  0  0  0  0
  -23.2011  -31.3880   24.0019 C   0  0  1  0  0  0  0  0  0  0  0  0
  -22.6096  -28.9623   21.1384 C   0  0  1  0  0  0  0  0  0  0  0  0
  -26.1404  -18.2305   20.4093 C   0  0  2  0  0  0  0  0  0  0  0  0
  -20.1216  -22.0733   18.6176 C   0  0  0  0  0  0  0  0  0  0  0  0
  -21.5680  -25.5445   24.0700 C   0  0  0  0  0  0  0  0  0  0  0  0
  -21.0258  -23.3421   23.0101 C   0  0  0  0  0  0  0  0  0  0  0  0
  -19.3798  -25.2135   22.9053 C   0  0  0  0  0  0  0  0  0  0  0  0
  -21.9380  -24.7194   16.5742 C   0  0  0  0  0  0  0  0  0  0  0  0
  -29.2506  -20.5738   19.1728 C   0  0  0  0  0  0  0  0  0  0  0  0
  -31.2524  -25.8301   19.7785 C   0  0  0  0  0  0  0  0  0  0  0  0
  -30.4277  -26.2913   18.5757 C   0  0  0  0  0  0  0  0  0  0  0  0
  -32.1893  -24.6619   19.4512 C   0  0  0  0  0  0  0  0  0  0  0  0
  -29.5361  -27.4740   18.9294 C   0  0  0  0  0  0  0  0  0  1  0  0
  -21.4777  -25.3278   21.4989 C   0  0  1  0  0  0  0  0  0  0  0  0
  -20.6414  -23.4676   18.3036 C   0  0  2  0  0  0  0  0  0  0  0  0
  -20.8852  -24.8721   22.8623 C   0  0  0  0  0  0  0  0  0  0  0  0
  -25.6211  -15.8194   20.4223 N   0  0  0  0  0  0  0  0  0  0  0  0
  -30.9548  -21.7263   17.8008 N   0  0  0  0  0  0  0  0  0  0  0  0
  -31.7282  -22.8039   17.8767 N   0  0  0  0  0  0  0  0  0  0  0  0
  -31.4708  -23.3971   19.0536 N   0  0  0  0  0  0  0  0  0  0  0  0
  -26.3370  -16.8265   20.9509 N   0  0  0  0  0  0  0  0  0  0  0  0
  -22.6079  -27.4980   21.1297 N   0  0  0  0  0  0  0  0  0  0  0  0
  -26.9060  -19.9100   18.7606 N   0  0  0  0  0  0  0  0  0  0  0  0
  -27.9764  -17.3229   22.5869 N   0  0  0  0  0  0  0  0  0  0  0  0
  -27.3934  -12.8650   23.0152 N   0  0  0  0  0  0  0  0  0  0  0  0
  -22.9157  -30.7602   22.7295 N   0  0  0  0  0  0  0  0  0  0  0  0
  -20.8321  -24.7276   20.3364 N   0  0  0  0  0  0  0  0  0  0  0  0
  -21.3902  -23.4111   17.0162 N   0  3  0  0  0  0  0  0  0  0  0  0
  -28.5326  -14.6807   23.8303 O   0  0  0  0  0  0  0  0  0  0  0  0
  -23.1960  -28.5440   23.3870 O   0  0  0  0  0  0  0  0  0  0  0  0
  -27.6636  -22.0309   18.1879 O   0  0  0  0  0  0  0  0  0  0  0  0
  -20.2863  -27.3694   21.3017 O   0  0  0  0  0  0  0  0  0  0  0  0
  -22.7441  -23.7522   19.4590 O   0  0  0  0  0  0  0  0  0  0  0  0
  -23.9124   -9.6974   20.0346 O   0  0  0  0  0  0  0  0  0  0  0  0
  -28.6555  -27.0886   19.9841 O   0  0  0  0  0  0  0  0  0  1  0  0
  -22.4554   -6.5564   24.3258 F   0  0  0  0  0  0  0  0  0  0  0  0
  -21.3036   -8.8355   20.3403 F   0  0  0  0  0  0  0  0  0  0  0  0
  1  2  1  0  0  0  0
  1  5  2  0  0  0  0
  2  6  2  0  0  0  0
  3  8  2  0  0  0  0
  3 16  1  0  0  0  0
  4  9  1  0  0  0  0
  4 16  2  0  0  0  0
  5 18  1  0  0  0  0
  6 20  1  0  0  0  0
  7 10  2  0  0  0  0
  7 19  1  0  0  0  0
  8 22  1  0  0  0  0
  9 22  2  0  0  0  0
 10 23  1  0  0  0  0
 11 12  2  0  0  0  0
 11 24  1  0  0  0  0
 12 25  1  0  0  0  0
 13 21  1  0  0  0  0
 13 23  2  0  0  0  0
 14 25  2  0  0  0  0
 14 26  1  0  0  0  0
 15 28  2  0  0  0  0
 15 63  1  0  0  0  0
 16 27  1  0  0  0  0
 17 27  1  0  0  0  0
 17 29  2  0  0  0  0
 17 30  1  0  0  0  0
 18 20  2  0  0  0  0
 18 35  1  0  0  0  0
 19 21  2  0  0  0  0
 19 36  1  0  0  0  0
 20 44  1  0  0  0  0
 21 37  1  0  0  0  0
 22 77  1  0  0  0  0
 23 78  1  0  0  0  0
 24 26  2  0  0  0  0
 24 77  1  0  0  0  0
 25 79  1  0  0  0  0
 26 80  1  0  0  0  0
 27 60  2  0  0  0  0
 28 52  1  0  0  0  0
 28 61  1  0  0  0  0
 29 64  1  0  0  0  0
 29 67  1  0  0  0  0
 30 68  1  0  0  0  0
 30 72  2  0  0  0  0
 31 45  1  0  0  0  0
 31 69  1  0  0  0  0
 31 73  2  0  0  0  0
 32 52  1  0  0  0  0
 32 66  1  0  0  0  0
 32 74  2  0  0  0  0
 33 57  1  0  0  0  0
 33 65  1  0  0  0  0
 33 75  2  0  0  0  0
 34 58  1  0  0  0  0
 34 70  1  0  0  0  0
 34 76  2  0  0  0  0
 35 38  1  0  0  0  0
 36 45  1  0  0  0  0
 37 65  1  0  0  0  0
 38 40  1  0  0  0  0
 39 41  1  0  0  0  0
 39 42  1  0  0  0  0
 40 44  1  0  0  0  0
 41 46  1  0  0  0  0
 42 66  1  0  0  0  0
 43 46  1  0  0  0  0
 43 66  1  0  0  0  0
 44 69  1  0  0  0  0
 45 65  1  0  0  0  0
 46 64  1  0  0  0  0
 47 58  1  0  0  0  0
 48 59  1  0  0  0  0
 49 59  1  0  0  0  0
 50 59  1  0  0  0  0
 51 71  1  0  0  0  0
 53 54  1  0  0  0  0
 53 55  1  0  0  0  0
 54 56  1  0  0  0  0
 55 63  1  0  0  0  0
 56 78  1  0  0  0  0
 57 59  1  0  0  0  0
 57 70  1  0  0  0  0
 58 71  1  0  0  0  0
 60 64  1  0  0  0  0
 61 62  2  0  0  0  0
 62 63  1  0  0  0  0
M  CHG  1  71   1
M  ISO  4  32 100  52 100  56 101  78 101
M  END
> <Batch ID>
0067

> <Smiles>
CNC(C)C(=O)NC(C(=O)N1Cc2cc([101O:1][101CH2:1]CCCn3cc([100CH2:0][100C:0](=O)N4CCCC(n5nc(-c6ccc(Oc7ccc(F)cc7F)cc6)c(C(N)=O)c5N)C4)nn3)ccc2CC1C(=O)NC1CCCc2ccccc21)C(C)(C)C

> <Shape>
0.256

> <Color>
0.083

> <Negative vol penalty>
0.000

$$$$

  -OEChem-04052318123D

 85 93  0     1  0  0  0  0  0999 V2000
  -23.0816  -23.8308   21.5158 C   0  0  0  0  0  0  0  0  0  0  0  0
  -24.2450  -23.0684   21.5426 C   0  0  0  0  0  0  0  0  0  0  0  0
  -23.7704  -28.4724   20.3428 C   0  0  0  0  0  0  0  0  0  0  0  0
  -24.9456  -28.9902   22.3893 C   0  0  0  0  0  0  0  0  0  0  0  0
  -21.8772  -23.2781   21.9493 C   0  0  0  0  0  0  0  0  0  0  0  0
  -24.2048  -21.7531   22.0040 C   0  0  0  0  0  0  0  0  0  0  0  0
  -26.7921  -18.5719   19.0323 C   0  0  0  0  0  0  0  0  0  0  0  0
  -22.5581  -28.7763   20.9621 C   0  0  0  0  0  0  0  0  0  0  0  0
  -23.7332  -29.2942   23.0085 C   0  0  0  0  0  0  0  0  0  0  0  0
  -28.1803  -18.5671   19.1611 C   0  0  0  0  0  0  0  0  0  0  0  0
  -19.1207  -29.0704   22.1117 C   0  0  0  0  0  0  0  0  0  0  0  0
  -18.0530  -28.1947   21.9153 C   0  0  0  0  0  0  0  0  0  0  0  0
  -29.6759  -19.1578   23.2848 C   0  0  0  0  0  0  0  0  0  0  0  0
  -28.0402  -16.5866   20.5313 C   0  0  0  0  0  0  0  0  0  0  0  0
  -19.3392  -26.4046   22.9043 C   0  0  0  0  0  0  0  0  0  0  0  0
  -28.9389  -20.1135   23.9656 C   0  0  0  0  0  0  0  0  0  0  0  0
  -24.9642  -28.5793   21.0564 C   0  0  0  0  0  0  0  0  0  0  0  0
  -27.0564  -29.1477   19.7122 C   0  0  0  0  0  0  0  0  0  0  0  0
  -21.8204  -21.9523   22.4072 C   0  0  0  0  0  0  0  0  0  0  0  0
  -26.0154  -17.5888   19.6621 C   0  0  0  0  0  0  0  0  0  0  0  0
  -22.9988  -21.1826   22.4453 C   0  0  0  0  0  0  0  0  0  0  0  0
  -26.6425  -16.5797   20.4069 C   0  0  0  0  0  0  0  0  0  0  0  0
  -31.0178  -19.4252   23.0375 C   0  0  0  0  0  0  0  0  0  0  0  0
  -22.5395  -29.1872   22.2949 C   0  0  0  0  0  0  0  0  0  0  0  0
  -28.8044  -17.5760   19.9131 C   0  0  0  0  0  0  0  0  0  0  0  0
  -20.2978  -28.6132   22.7044 C   0  0  0  0  0  0  0  0  0  0  0  0
  -18.1622  -26.8618   22.3116 C   0  0  0  0  0  0  0  0  0  0  0  0
  -20.4070  -27.2803   23.1007 C   0  0  0  0  0  0  0  0  0  0  0  0
  -31.5738  -20.6231   23.4723 C   0  0  0  0  0  0  0  0  0  0  0  0
  -26.2168  -28.2649   20.4175 C   0  0  0  0  0  0  0  0  0  0  0  0
  -30.7519  -21.5133   24.1444 C   0  0  0  0  0  0  0  0  0  0  0  0
  -28.1108  -28.3673   19.3052 C   0  0  0  0  0  0  0  0  0  0  0  0
  -26.8975  -30.5480   19.4486 C   0  0  0  0  0  0  0  0  0  0  0  0
  -23.7498  -17.6074   21.8916 C   0  0  0  0  0  0  0  0  0  0  0  0
  -23.5580  -14.4508   21.1694 C   0  0  0  0  0  0  0  0  0  0  0  0
  -25.0825  -11.6687   19.9115 C   0  0  0  0  0  0  0  0  0  0  0  0
  -30.4774  -23.2883   21.4157 C   0  0  0  0  0  0  0  0  0  0  0  0
  -20.5045  -21.4137   22.9101 C   0  0  0  0  0  0  0  0  0  0  0  0
  -24.5210  -17.5925   19.4914 C   0  0  0  0  0  0  0  0  0  0  0  0
  -25.8555  -15.4899   21.0861 C   0  0  0  0  0  0  0  0  0  0  0  0
  -20.4758  -19.8924   23.0324 C   0  0  0  0  0  0  0  0  0  0  0  0
  -29.2001  -23.8562   18.1412 C   0  0  0  0  0  0  0  0  0  0  0  0
  -21.7380  -19.3887   23.7252 C   0  0  0  0  0  0  0  0  0  0  0  0
  -28.3664  -25.1302   18.2896 C   0  0  0  0  0  0  0  0  0  0  0  0
  -29.1015  -22.9696   19.3806 C   0  0  0  0  0  0  0  0  0  0  0  0
  -28.5903  -24.9182   20.8003 C   0  0  0  0  0  0  0  0  0  0  0  0
  -22.9909  -19.7443   22.9157 C   0  0  1  0  0  0  0  0  0  0  0  0
  -23.7911  -16.8406   20.6001 C   0  0  1  0  0  0  0  0  0  0  0  0
  -28.7025  -25.8710   19.5979 C   0  0  2  0  0  0  0  0  0  0  0  0
  -24.6864   -9.2273   19.4868 C   0  0  0  0  0  0  0  0  0  0  0  0
  -32.4537  -22.7233   25.6729 C   0  0  0  0  0  0  0  0  0  0  0  0
  -30.1527  -23.6075   25.3907 C   0  0  0  0  0  0  0  0  0  0  0  0
  -23.9268  -13.8761   24.1432 C   0  0  0  0  0  0  0  0  0  0  0  0
  -24.4710  -11.5063   23.5465 C   0  0  0  0  0  0  0  0  0  0  0  0
  -22.2222  -12.4416   23.0071 C   0  0  0  0  0  0  0  0  0  0  0  0
  -25.4672  -11.9948   16.9953 C   0  0  0  0  0  0  0  0  0  0  0  0
  -31.8291  -18.3922   22.2970 C   0  0  0  0  0  0  0  0  0  0  0  0
  -32.0922  -18.7496   20.8326 C   0  0  0  0  0  0  0  0  0  0  0  0
  -31.7774  -23.7488   23.4790 C   0  0  0  0  0  0  0  0  0  0  0  0
  -30.8223  -18.8320   19.9936 C   0  0  0  0  0  0  0  0  0  1  0  0
  -24.2316  -13.1964   21.6712 C   0  0  1  0  0  0  0  0  0  0  0  0
  -24.6150  -10.6313   18.9066 C   0  0  2  0  0  0  0  0  0  0  0  0
  -31.2768  -22.8209   24.6423 C   0  0  0  0  0  0  0  0  0  0  0  0
  -23.7279  -12.7766   23.0809 C   0  0  0  0  0  0  0  0  0  0  0  0
  -29.4442  -21.2886   24.4033 N   0  0  0  0  0  0  0  0  0  0  0  0
  -26.6963  -27.0189   20.4580 N   0  0  0  0  0  0  0  0  0  0  0  0
  -27.8487  -27.1132   19.7730 N   0  0  0  0  0  0  0  0  0  0  0  0
  -24.3966  -15.5403   20.8947 N   0  0  0  0  0  0  0  0  0  0  0  0
  -29.4339  -23.7318   20.5866 N   0  0  0  0  0  0  0  0  0  0  0  0
  -29.2273  -28.6382   18.5964 N   0  0  0  0  0  0  0  0  0  0  0  0
  -25.7554  -31.1950   19.9398 N   0  0  0  0  0  0  0  0  0  0  0  0
  -23.1398  -18.8433   21.7929 N   0  0  0  0  0  0  0  0  0  0  0  0
  -24.0311  -12.1848   20.6393 N   0  0  0  0  0  0  0  0  0  0  0  0
  -30.7312  -24.0721   22.5346 N   0  0  0  0  0  0  0  0  0  0  0  0
  -25.4630  -10.6774   17.6820 N   0  3  0  0  0  0  0  0  0  0  0  0
  -27.7352  -31.2025   18.7826 O   0  0  0  0  0  0  0  0  0  0  0  0
  -24.2342  -17.1136   22.9032 O   0  0  0  0  0  0  0  0  0  0  0  0
  -22.3336  -14.4612   21.0198 O   0  0  0  0  0  0  0  0  0  0  0  0
  -26.2626  -11.9865   20.0407 O   0  0  0  0  0  0  0  0  0  0  0  0
  -31.1376  -22.2722   21.1737 O   0  0  0  0  0  0  0  0  0  0  0  0
  -21.3567  -29.4841   22.8994 O   0  0  0  0  0  0  0  0  0  0  0  0
  -30.1592  -17.5693   20.0409 O   0  0  0  0  0  0  0  0  0  1  0  0
  -17.1362  -26.0213   22.1243 F   0  0  0  0  0  0  0  0  0  0  0  0
  -21.5348  -26.8356   23.6717 F   0  0  0  0  0  0  0  0  0  0  0  0
  -33.2358  -20.9852   23.1812 Cl  0  0  0  0  0  0  0  0  0  0  0  0
  1  2  1  0  0  0  0
  1  5  2  0  0  0  0
  2  6  2  0  0  0  0
  3  8  2  0  0  0  0
  3 17  1  0  0  0  0
  4  9  1  0  0  0  0
  4 17  2  0  0  0  0
  5 19  1  0  0  0  0
  6 21  1  0  0  0  0
  7 10  2  0  0  0  0
  7 20  1  0  0  0  0
  8 24  1  0  0  0  0
  9 24  2  0  0  0  0
 10 25  1  0  0  0  0
 11 12  2  0  0  0  0
 11 26  1  0  0  0  0
 12 27  1  0  0  0  0
 13 16  2  0  0  0  0
 13 23  1  0  0  0  0
 14 22  1  0  0  0  0
 14 25  2  0  0  0  0
 15 27  2  0  0  0  0
 15 28  1  0  0  0  0
 16 65  1  0  0  0  0
 17 30  1  0  0  0  0
 18 30  1  0  0  0  0
 18 32  2  0  0  0  0
 18 33  1  0  0  0  0
 19 21  2  0  0  0  0
 19 38  1  0  0  0  0
 20 22  2  0  0  0  0
 20 39  1  0  0  0  0
 21 47  1  0  0  0  0
 22 40  1  0  0  0  0
 23 29  2  0  0  0  0
 23 57  1  0  0  0  0
 24 81  1  0  0  0  0
 25 82  1  0  0  0  0
 26 28  2  0  0  0  0
 26 81  1  0  0  0  0
 27 83  1  0  0  0  0
 28 84  1  0  0  0  0
 29 31  1  0  0  0  0
 29 85  1  0  0  0  0
 30 66  2  0  0  0  0
 31 63  1  0  0  0  0
 31 65  2  0  0  0  0
 32 67  1  0  0  0  0
 32 70  1  0  0  0  0
 33 71  1  0  0  0  0
 33 76  2  0  0  0  0
 34 48  1  0  0  0  0
 34 72  1  0  0  0  0
 34 77  2  0  0  0  0
 35 61  1  0  0  0  0
 35 68  1  0  0  0  0
 35 78  2  0  0  0  0
 36 62  1  0  0  0  0
 36 73  1  0  0  0  0
 36 79  2  0  0  0  0
 37 69  1  0  0  0  0
 37 74  1  0  0  0  0
 37 80  2  0  0  0  0
 38 41  1  0  0  0  0
 39 48  1  0  0  0  0
 40 68  1  0  0  0  0
 41 43  1  0  0  0  0
 42 44  1  0  0  0  0
 42 45  1  0  0  0  0
 43 47  1  0  0  0  0
 44 49  1  0  0  0  0
 45 69  1  0  0  0  0
 46 49  1  0  0  0  0
 46 69  1  0  0  0  0
 47 72  1  0  0  0  0
 48 68  1  0  0  0  0
 49 67  1  0  0  0  0
 50 62  1  0  0  0  0
 51 63  1  0  0  0  0
 52 63  1  0  0  0  0
 53 64  1  0  0  0  0
 54 64  1  0  0  0  0
 55 64  1  0  0  0  0
 56 75  1  0  0  0  0
 57 58  1  0  0  0  0
 58 60  1  0  0  0  0
 59 63  1  0  0  0  0
 59 74  1  0  0  0  0
 60 82  1  0  0  0  0
 61 64  1  0  0  0  0
 61 73  1  0  0  0  0
 62 75  1  0  0  0  0
 66 67  1  0  0  0  0
M  CHG  1  75   1
M  ISO  4  37 100  60 101  74 100  82 101
M  END
> <Batch ID>
0067

> <Smiles>
CNC(C)C(=O)NC(C(=O)N1Cc2cc([101O:1][101CH2:1]CCc3ccnc(C(C)(C)C[100NH:0][100C:0](=O)N4CCCC(n5nc(-c6ccc(Oc7ccc(F)cc7F)cc6)c(C(N)=O)c5N)C4)c3Cl)ccc2CC1C(=O)NC1CCCc2ccccc21)C(C)(C)C

> <Shape>
0.213

> <Color>
0.071

> <Negative vol penalty>
0.000

$$$$

  -OEChem-04052318123D

 88 96  0     1  0  0  0  0  0999 V2000
  -16.8902  -28.8606   23.7125 C   0  0  0  0  0  0  0  0  0  0  0  0
  -17.6221  -27.6775   23.7017 C   0  0  0  0  0  0  0  0  0  0  0  0
  -24.3015   -9.1129   21.5566 C   0  0  0  0  0  0  0  0  0  0  0  0
  -24.3239  -10.6766   23.3981 C   0  0  0  0  0  0  0  0  0  0  0  0
  -17.4409  -30.0245   23.1777 C   0  0  0  0  0  0  0  0  0  0  0  0
  -18.9047  -27.6574   23.1550 C   0  0  0  0  0  0  0  0  0  0  0  0
  -23.6687  -24.3163   25.0649 C   0  0  0  0  0  0  0  0  0  0  0  0
  -23.9270   -8.0909   22.4289 C   0  0  0  0  0  0  0  0  0  0  0  0
  -23.9494   -9.6547   24.2705 C   0  0  0  0  0  0  0  0  0  0  0  0
  -24.2068  -23.1097   24.6195 C   0  0  0  0  0  0  0  0  0  0  0  0
  -22.6140   -5.1472   24.1099 C   0  0  0  0  0  0  0  0  0  0  0  0
  -21.5917   -4.2898   23.7035 C   0  0  0  0  0  0  0  0  0  0  0  0
  -25.8202  -24.3236   23.2993 C   0  0  0  0  0  0  0  0  0  0  0  0
  -20.0795   -6.1674   23.5458 C   0  0  0  0  0  0  0  0  0  0  0  0
  -27.4569  -17.4953   20.5194 C   0  0  0  0  0  0  0  0  0  0  0  0
  -24.5000  -10.4057   22.0412 C   0  0  0  0  0  0  0  0  0  0  0  0
  -24.0353  -12.3211   20.4216 C   0  0  0  0  0  0  0  0  0  0  0  0
  -18.7347  -30.0209   22.6330 C   0  0  0  0  0  0  0  0  0  0  0  0
  -24.1961  -25.5376   24.6215 C   0  0  0  0  0  0  0  0  0  0  0  0
  -19.4727  -28.8220   22.6112 C   0  0  0  0  0  0  0  0  0  0  0  0
  -25.2886  -25.5442   23.7426 C   0  0  0  0  0  0  0  0  0  0  0  0
  -26.3067  -17.0774   21.1573 C   0  0  0  0  0  0  0  0  0  0  0  0
  -23.7509   -8.3618   23.7858 C   0  0  0  0  0  0  0  0  0  0  0  0
  -25.2809  -23.1132   23.7344 C   0  0  0  0  0  0  0  0  0  0  0  0
  -22.3690   -6.5148   24.2344 C   0  0  0  0  0  0  0  0  0  0  0  0
  -20.3244   -4.7998   23.4214 C   0  0  0  0  0  0  0  0  0  0  0  0
  -21.1018   -7.0249   23.9523 C   0  0  0  0  0  0  0  0  0  0  0  0
  -24.8875  -11.4617   21.1407 C   0  0  0  0  0  0  0  0  0  0  0  0
  -26.4688  -16.0586   22.0737 C   0  0  0  0  0  0  0  0  0  0  0  0
  -24.8859  -13.1384   19.7182 C   0  0  0  0  0  0  0  0  0  0  0  0
  -28.7038  -15.9797   21.6663 C   0  0  0  0  0  0  0  0  0  0  0  0
  -22.6029  -12.3756   20.3921 C   0  0  0  0  0  0  0  0  0  0  0  0
  -23.0582  -28.0067   22.9746 C   0  0  0  0  0  0  0  0  0  0  0  0
  -25.9398  -29.3127   23.6910 C   0  0  0  0  0  0  0  0  0  0  0  0
  -30.5878  -14.7743   20.6796 C   0  0  0  0  0  0  0  0  0  0  0  0
  -29.2105  -28.8285   24.5365 C   0  0  0  0  0  0  0  0  0  0  0  0
  -19.2693  -31.2927   22.0238 C   0  0  0  0  0  0  0  0  0  0  0  0
  -23.6215  -26.8305   25.1322 C   0  0  0  0  0  0  0  0  0  0  0  0
  -25.9044  -26.8284   23.2525 C   0  0  0  0  0  0  0  0  0  0  0  0
  -20.7796  -31.2740   21.8023 C   0  0  0  0  0  0  0  0  0  0  0  0
  -29.2365  -13.2200   17.7474 C   0  0  0  0  0  0  0  0  0  0  0  0
  -21.2073  -29.9631   21.1501 C   0  0  0  0  0  0  0  0  0  0  0  0
  -27.9038  -12.6464   18.2269 C   0  0  0  0  0  0  0  0  0  0  0  0
  -30.3001  -13.1488   18.8386 C   0  0  0  0  0  0  0  0  0  0  0  0
  -28.5670  -13.2311   20.6025 C   0  0  0  0  0  0  0  0  0  0  0  0
  -20.8768  -28.7659   22.0495 C   0  0  1  0  0  0  0  0  0  0  0  0
  -23.9072  -28.0151   24.2143 C   0  0  1  0  0  0  0  0  0  0  0  0
  -27.4562  -13.3119   19.5404 C   0  0  2  0  0  0  0  0  0  0  0  0
  -25.4711  -15.6426   24.3360 C   0  0  0  0  0  0  0  0  0  0  0  0
  -31.7907  -18.1648   24.1249 C   0  0  0  0  0  0  0  0  0  0  0  0
  -31.3279  -30.0865   25.0174 C   0  0  0  0  0  0  0  0  0  0  0  0
  -26.3055  -29.8332   20.7068 C   0  0  0  0  0  0  0  0  0  0  0  0
  -28.7456  -30.1901   21.1390 C   0  0  0  0  0  0  0  0  0  0  0  0
  -27.0606  -31.6988   22.1913 C   0  0  0  0  0  0  0  0  0  0  0  0
  -29.3629  -27.7505   27.2886 C   0  0  0  0  0  0  0  0  0  0  0  0
  -24.9719  -17.7098   20.8536 C   0  0  0  0  0  0  0  0  0  0  0  0
  -25.2938  -15.5255   22.8250 C   0  0  0  0  0  0  0  0  0  0  0  0
  -30.7108  -17.1741   23.7140 C   0  0  0  0  0  0  0  0  0  0  0  0
  -24.4897  -18.6863   21.9322 C   0  0  0  0  0  0  0  0  0  0  0  0
  -25.4090  -19.8973   22.0975 C   0  0  0  0  0  0  0  0  0  0  0  0
  -31.0874  -16.4493   22.4156 C   0  0  0  0  0  0  0  0  0  0  0  0
  -30.0068  -14.1690   22.9640 C   0  0  0  0  0  0  0  0  0  0  0  0
  -24.9203  -20.8233   23.2030 C   0  0  0  0  0  0  0  0  0  1  0  0
  -27.2996  -29.3276   23.0353 C   0  0  1  0  0  0  0  0  0  0  0  0
  -30.0768  -29.4588   25.6120 C   0  0  2  0  0  0  0  0  0  0  0  0
  -30.0351  -15.3704   21.9497 C   0  0  1  0  0  0  0  0  0  0  0  0
  -27.3402  -30.2380   21.7756 C   0  0  0  0  0  0  0  0  0  0  0  0
  -28.6765  -16.9666   20.7505 N   0  0  0  0  0  0  0  0  0  0  0  0
  -26.1803  -11.7099   20.9147 N   0  0  0  0  0  0  0  0  0  0  0  0
  -27.6571  -15.4843   22.3539 N   0  0  0  0  0  0  0  0  0  0  0  0
  -26.1468  -12.7345   20.0457 N   0  0  0  0  0  0  0  0  0  0  0  0
  -25.3032  -28.0664   23.7755 N   0  0  0  0  0  0  0  0  0  0  0  0
  -29.8282  -13.7716   20.0766 N   0  0  0  0  0  0  0  0  0  0  0  0
  -24.6709  -14.1561   18.8576 N   0  0  0  0  0  0  0  0  0  0  0  0
  -21.8832  -11.4628   21.1751 N   0  0  0  0  0  0  0  0  0  0  0  0
  -21.8459  -28.6541   23.1185 N   0  0  0  0  0  0  0  0  0  0  0  0
  -28.2503  -29.7043   24.0758 N   0  0  0  0  0  0  0  0  0  0  0  0
  -31.3446  -13.5791   23.2403 N   0  3  0  0  0  0  0  0  0  0  0  0
  -30.4942  -28.4323   26.6086 N   0  3  0  0  0  0  0  0  0  0  0  0
  -21.9794  -13.1985   19.6795 O   0  0  0  0  0  0  0  0  0  0  0  0
  -23.4731  -27.4552   21.9620 O   0  0  0  0  0  0  0  0  0  0  0  0
  -25.4633  -30.3670   24.1189 O   0  0  0  0  0  0  0  0  0  0  0  0
  -31.6614  -15.1908   20.2365 O   0  0  0  0  0  0  0  0  0  0  0  0
  -29.3719  -27.6758   24.1418 O   0  0  0  0  0  0  0  0  0  0  0  0
  -23.3852   -7.3649   24.6373 O   0  0  0  0  0  0  0  0  0  0  0  0
  -25.8076  -21.9369   23.2976 O   0  0  0  0  0  0  0  0  0  1  0  0
  -19.3432   -3.9765   23.0296 F   0  0  0  0  0  0  0  0  0  0  0  0
  -20.8608   -8.3379   24.0690 F   0  0  0  0  0  0  0  0  0  0  0  0
  1  2  1  0  0  0  0
  1  5  2  0  0  0  0
  2  6  2  0  0  0  0
  3  8  2  0  0  0  0
  3 16  1  0  0  0  0
  4  9  1  0  0  0  0
  4 16  2  0  0  0  0
  5 18  1  0  0  0  0
  6 20  1  0  0  0  0
  7 10  2  0  0  0  0
  7 19  1  0  0  0  0
  8 23  1  0  0  0  0
  9 23  2  0  0  0  0
 10 24  1  0  0  0  0
 11 12  2  0  0  0  0
 11 25  1  0  0  0  0
 12 26  1  0  0  0  0
 13 21  1  0  0  0  0
 13 24  2  0  0  0  0
 14 26  2  0  0  0  0
 14 27  1  0  0  0  0
 15 22  1  0  0  0  0
 15 68  2  0  0  0  0
 16 28  1  0  0  0  0
 17 28  1  0  0  0  0
 17 30  2  0  0  0  0
 17 32  1  0  0  0  0
 18 20  2  0  0  0  0
 18 37  1  0  0  0  0
 19 21  2  0  0  0  0
 19 38  1  0  0  0  0
 20 46  1  0  0  0  0
 21 39  1  0  0  0  0
 22 29  2  0  0  0  0
 22 56  1  0  0  0  0
 23 85  1  0  0  0  0
 24 86  1  0  0  0  0
 25 27  2  0  0  0  0
 25 85  1  0  0  0  0
 26 87  1  0  0  0  0
 27 88  1  0  0  0  0
 28 69  2  0  0  0  0
 29 57  1  0  0  0  0
 29 70  1  0  0  0  0
 30 71  1  0  0  0  0
 30 74  1  0  0  0  0
 31 66  1  0  0  0  0
 31 68  1  0  0  0  0
 31 70  2  0  0  0  0
 32 75  1  0  0  0  0
 32 80  2  0  0  0  0
 33 47  1  0  0  0  0
 33 76  1  0  0  0  0
 33 81  2  0  0  0  0
 34 64  1  0  0  0  0
 34 72  1  0  0  0  0
 34 82  2  0  0  0  0
 35 66  1  0  0  0  0
 35 73  1  0  0  0  0
 35 83  2  0  0  0  0
 36 65  1  0  0  0  0
 36 77  1  0  0  0  0
 36 84  2  0  0  0  0
 37 40  1  0  0  0  0
 38 47  1  0  0  0  0
 39 72  1  0  0  0  0
 40 42  1  0  0  0  0
 41 43  1  0  0  0  0
 41 44  1  0  0  0  0
 42 46  1  0  0  0  0
 43 48  1  0  0  0  0
 44 73  1  0  0  0  0
 45 48  1  0  0  0  0
 45 73  1  0  0  0  0
 46 76  1  0  0  0  0
 47 72  1  0  0  0  0
 48 71  1  0  0  0  0
 49 57  1  0  0  0  0
 50 58  1  0  0  0  0
 51 65  1  0  0  0  0
 52 67  1  0  0  0  0
 53 67  1  0  0  0  0
 54 67  1  0  0  0  0
 55 79  1  0  0  0  0
 56 59  1  0  0  0  0
 58 61  1  0  0  0  0
 59 60  1  0  0  0  0
 60 63  1  0  0  0  0
 61 66  1  0  0  0  0
 62 66  1  0  0  0  0
 62 78  1  0  0  0  0
 63 86  1  0  0  0  0
 64 67  1  0  0  0  0
 64 77  1  0  0  0  0
 65 79  1  0  0  0  0
 69 71  1  0  0  0  0
M  CHG  2  78   1  79   1
M  ISO  4  35 100  63 101  66 100  86 101
M  END
> <Batch ID>
0067

> <Smiles>
CCC[100C:0](CN)(c1ncc(CCC[101CH2:1][101O:1]c2ccc3c(c2)CN(C(=O)C(NC(=O)C(C)NC)C(C)(C)C)C(C(=O)NC2CCCc4ccccc42)C3)c(CC)n1)[100C:0](=O)N1CCCC(n2nc(-c3ccc(Oc4ccc(F)cc4F)cc3)c(C(N)=O)c2N)C1

> <Shape>
0.253

> <Color>
0.092

> <Negative vol penalty>
0.000

$$$$

  -OEChem-04052318122D

  0  0  0     0  0  0  0  0  0999 V2000
M  END
$$$$

  -OEChem-04052318123D

 86 94  0     1  0  0  0  0  0999 V2000
  -16.8859  -28.9253   24.3059 C   0  0  0  0  0  0  0  0  0  0  0  0
  -17.5201  -27.9476   23.5461 C   0  0  0  0  0  0  0  0  0  0  0  0
  -26.4339  -12.6036   20.0007 C   0  0  0  0  0  0  0  0  0  0  0  0
  -24.9056  -14.4382   20.3686 C   0  0  0  0  0  0  0  0  0  0  0  0
  -17.3120  -30.2507   24.2303 C   0  0  0  0  0  0  0  0  0  0  0  0
  -18.5801  -28.2949   22.7094 C   0  0  0  0  0  0  0  0  0  0  0  0
  -22.4678  -25.0685   23.0574 C   0  0  0  0  0  0  0  0  0  0  0  0
  -25.6415  -11.7825   20.8028 C   0  0  0  0  0  0  0  0  0  0  0  0
  -24.1131  -13.6172   21.1707 C   0  0  0  0  0  0  0  0  0  0  0  0
  -22.3473  -23.8517   22.3876 C   0  0  0  0  0  0  0  0  0  0  0  0
  -23.8291   -9.1025   22.4605 C   0  0  0  0  0  0  0  0  0  0  0  0
  -23.5547   -7.8151   21.9993 C   0  0  0  0  0  0  0  0  0  0  0  0
  -23.7040  -24.7142   20.5891 C   0  0  0  0  0  0  0  0  0  0  0  0
  -22.4892   -8.7441   20.0400 C   0  0  0  0  0  0  0  0  0  0  0  0
  -25.6630  -20.3556   21.2060 C   0  0  0  0  0  0  0  0  0  0  0  0
  -26.0661  -13.9315   19.7836 C   0  0  0  0  0  0  0  0  0  0  0  0
  -26.7773  -14.9700   17.5648 C   0  0  0  0  0  0  0  0  0  0  0  0
  -18.3840  -30.6129   23.3995 C   0  0  0  0  0  0  0  0  0  0  0  0
  -23.1995  -26.1228   22.4920 C   0  0  0  0  0  0  0  0  0  0  0  0
  -19.0200  -29.6266   22.6215 C   0  0  0  0  0  0  0  0  0  0  0  0
  -23.8344  -25.9425   21.2549 C   0  0  0  0  0  0  0  0  0  0  0  0
  -24.7182  -20.2469   20.2060 C   0  0  0  0  0  0  0  0  0  0  0  0
  -24.4810  -12.2893   21.3878 C   0  0  0  0  0  0  0  0  0  0  0  0
  -22.9630  -23.6753   21.1520 C   0  0  0  0  0  0  0  0  0  0  0  0
  -23.4335  -10.2108   21.7115 C   0  0  0  0  0  0  0  0  0  0  0  0
  -22.8848   -7.6358   20.7890 C   0  0  0  0  0  0  0  0  0  0  0  0
  -22.7636  -10.0316   20.5012 C   0  0  0  0  0  0  0  0  0  0  0  0
  -26.8846  -14.7803   18.9555 C   0  0  0  0  0  0  0  0  0  0  0  0
  -25.2075  -20.2807   18.9162 C   0  0  0  0  0  0  0  0  0  0  0  0
  -27.7756  -15.8635   17.2621 C   0  0  0  0  0  0  0  0  0  0  0  0
  -27.3377  -20.5072   19.6764 C   0  0  0  0  0  0  0  0  0  0  0  0
  -25.8574  -14.3906   16.6300 C   0  0  0  0  0  0  0  0  0  0  0  0
  -22.5054  -29.0710   21.5277 C   0  0  0  0  0  0  0  0  0  0  0  0
  -25.7152  -29.2694   21.1036 C   0  0  0  0  0  0  0  0  0  0  0  0
  -28.6729  -27.6517   20.5724 C   0  0  0  0  0  0  0  0  0  0  0  0
  -30.5794  -19.8438   20.9816 C   0  0  0  0  0  0  0  0  0  0  0  0
  -18.7782  -32.0662   23.3151 C   0  0  0  0  0  0  0  0  0  0  0  0
  -23.3422  -27.4202   23.2396 C   0  0  0  0  0  0  0  0  0  0  0  0
  -24.6481  -27.0361   20.6144 C   0  0  0  0  0  0  0  0  0  0  0  0
  -20.1518  -32.2893   22.6876 C   0  0  0  0  0  0  0  0  0  0  0  0
  -32.0837  -17.3211   18.7288 C   0  0  0  0  0  0  0  0  0  0  0  0
  -20.2991  -31.4590   21.4165 C   0  0  0  0  0  0  0  0  0  0  0  0
  -30.9202  -16.3636   18.4769 C   0  0  0  0  0  0  0  0  0  0  0  0
  -31.9674  -18.0105   20.0849 C   0  0  0  0  0  0  0  0  0  0  0  0
  -29.5084  -17.7545   20.0429 C   0  0  0  0  0  0  0  0  0  0  0  0
  -20.1895  -29.9600   21.7208 C   0  0  1  0  0  0  0  0  0  0  0  0
  -23.6831  -28.5982   22.3322 C   0  0  1  0  0  0  0  0  0  0  0  0
  -29.5708  -17.0783   18.6651 C   0  0  2  0  0  0  0  0  0  0  0  0
  -23.8100  -18.7377   17.5189 C   0  0  0  0  0  0  0  0  0  0  0  0
  -22.9730  -18.8094   21.3104 C   0  0  0  0  0  0  0  0  0  0  0  0
  -31.1211  -28.0841   20.2311 C   0  0  0  0  0  0  0  0  0  0  0  0
  -29.1928  -21.9032   18.5457 C   0  0  0  0  0  0  0  0  0  0  0  0
  -29.3148  -19.4153   18.5951 C   0  0  0  0  0  0  0  0  0  0  0  0
  -25.1557  -30.1629   18.2403 C   0  0  0  0  0  0  0  0  0  0  0  0
  -27.5463  -29.6616   17.6907 C   0  0  0  0  0  0  0  0  0  0  0  0
  -26.9976  -31.4115   19.3817 C   0  0  0  0  0  0  0  0  0  0  0  0
  -29.4542  -22.0096   21.3320 C   0  0  0  0  0  0  0  0  0  0  0  0
  -29.4004  -26.1167   22.9959 C   0  0  0  0  0  0  0  0  0  0  0  0
  -24.2774  -20.1711   17.7533 C   0  0  0  0  0  0  0  0  0  0  0  0
  -22.6972  -21.3164   21.2954 C   0  0  0  0  0  0  0  0  0  1  0  0
  -23.2401  -20.1007   20.5320 C   0  0  1  0  0  0  0  0  0  0  0  0
  -26.6636  -28.9746   19.9666 C   0  0  1  0  0  0  0  0  0  0  0  0
  -30.0277  -27.7831   21.2444 C   0  0  2  0  0  0  0  0  0  0  0  0
  -28.7926  -20.6510   19.3821 C   0  0  0  0  0  0  0  0  0  0  0  0
  -26.5739  -30.0325   18.8307 C   0  0  0  0  0  0  0  0  0  0  0  0
  -26.9859  -20.4875   20.9762 N   0  0  0  0  0  0  0  0  0  0  0  0
  -27.8732  -15.4955   19.4988 N   0  0  0  0  0  0  0  0  0  0  0  0
  -26.5159  -20.4105   18.6139 N   0  0  0  0  0  0  0  0  0  0  0  0
  -28.3963  -16.1433   18.4439 N   0  0  0  0  0  0  0  0  0  0  0  0
  -24.7528  -28.2883   21.3815 N   0  0  0  0  0  0  0  0  0  0  0  0
  -30.6596  -18.6447   20.2545 N   0  0  0  0  0  0  0  0  0  0  0  0
  -28.1744  -16.4290   16.1030 N   0  0  0  0  0  0  0  0  0  0  0  0
  -24.8950  -13.4917   17.1096 N   0  0  0  0  0  0  0  0  0  0  0  0
  -21.4251  -29.4686   22.2921 N   0  0  0  0  0  0  0  0  0  0  0  0
  -27.9892  -28.8490   20.5629 N   0  0  0  0  0  0  0  0  0  0  0  0
  -29.5706  -20.7476   20.6153 N   0  0  0  0  0  0  0  0  0  0  0  0
  -30.3789  -26.5204   21.9536 N   0  3  0  0  0  0  0  0  0  0  0  0
  -25.8985  -14.6493   15.4033 O   0  0  0  0  0  0  0  0  0  0  0  0
  -22.5724  -29.0762   20.3042 O   0  0  0  0  0  0  0  0  0  0  0  0
  -25.8288  -30.3278   21.7270 O   0  0  0  0  0  0  0  0  0  0  0  0
  -28.2637  -26.5935   20.0997 O   0  0  0  0  0  0  0  0  0  0  0  0
  -31.3706  -20.0964   21.8992 O   0  0  0  0  0  0  0  0  0  0  0  0
  -23.7073  -11.4883   22.1704 O   0  0  0  0  0  0  0  0  0  0  0  0
  -22.8464  -22.4889   20.4958 O   0  0  0  0  0  0  0  0  0  1  0  0
  -22.6227   -6.3994   20.3455 F   0  0  0  0  0  0  0  0  0  0  0  0
  -22.3821  -11.0924   19.7767 F   0  0  0  0  0  0  0  0  0  0  0  0
  1  2  1  0  0  0  0
  1  5  2  0  0  0  0
  2  6  2  0  0  0  0
  3  8  2  0  0  0  0
  3 16  1  0  0  0  0
  4  9  1  0  0  0  0
  4 16  2  0  0  0  0
  5 18  1  0  0  0  0
  6 20  1  0  0  0  0
  7 10  2  0  0  0  0
  7 19  1  0  0  0  0
  8 23  1  0  0  0  0
  9 23  2  0  0  0  0
 10 24  1  0  0  0  0
 11 12  2  0  0  0  0
 11 25  1  0  0  0  0
 12 26  1  0  0  0  0
 13 21  1  0  0  0  0
 13 24  2  0  0  0  0
 14 26  2  0  0  0  0
 14 27  1  0  0  0  0
 15 22  1  0  0  0  0
 15 66  2  0  0  0  0
 16 28  1  0  0  0  0
 17 28  1  0  0  0  0
 17 30  2  0  0  0  0
 17 32  1  0  0  0  0
 18 20  2  0  0  0  0
 18 37  1  0  0  0  0
 19 21  2  0  0  0  0
 19 38  1  0  0  0  0
 20 46  1  0  0  0  0
 21 39  1  0  0  0  0
 22 29  2  0  0  0  0
 22 61  1  0  0  0  0
 23 83  1  0  0  0  0
 24 84  1  0  0  0  0
 25 27  2  0  0  0  0
 25 83  1  0  0  0  0
 26 85  1  0  0  0  0
 27 86  1  0  0  0  0
 28 67  2  0  0  0  0
 29 59  1  0  0  0  0
 29 68  1  0  0  0  0
 30 69  1  0  0  0  0
 30 72  1  0  0  0  0
 31 64  1  0  0  0  0
 31 66  1  0  0  0  0
 31 68  2  0  0  0  0
 32 73  1  0  0  0  0
 32 78  2  0  0  0  0
 33 47  1  0  0  0  0
 33 74  1  0  0  0  0
 33 79  2  0  0  0  0
 34 62  1  0  0  0  0
 34 70  1  0  0  0  0
 34 80  2  0  0  0  0
 35 63  1  0  0  0  0
 35 75  1  0  0  0  0
 35 81  2  0  0  0  0
 36 71  1  0  0  0  0
 36 76  1  0  0  0  0
 36 82  2  0  0  0  0
 37 40  1  0  0  0  0
 38 47  1  0  0  0  0
 39 70  1  0  0  0  0
 40 42  1  0  0  0  0
 41 43  1  0  0  0  0
 41 44  1  0  0  0  0
 42 46  1  0  0  0  0
 43 48  1  0  0  0  0
 44 71  1  0  0  0  0
 45 48  1  0  0  0  0
 45 71  1  0  0  0  0
 46 74  1  0  0  0  0
 47 70  1  0  0  0  0
 48 69  1  0  0  0  0
 49 59  1  0  0  0  0
 50 61  1  0  0  0  0
 51 63  1  0  0  0  0
 52 64  1  0  0  0  0
 53 64  1  0  0  0  0
 54 65  1  0  0  0  0
 55 65  1  0  0  0  0
 56 65  1  0  0  0  0
 57 76  1  0  0  0  0
 58 77  1  0  0  0  0
 60 61  1  0  0  0  0
 60 84  1  0  0  0  0
 62 65  1  0  0  0  0
 62 75  1  0  0  0  0
 63 77  1  0  0  0  0
 64 76  1  0  0  0  0
 67 69  1  0  0  0  0
M  CHG  1  77   1
M  ISO  4  36 100  60 101  76 100  84 101
M  END
> <Batch ID>
0067

> <Smiles>
CCc1nc(C(C)(C)[100N:0](C)[100C:0](=O)N2CCCC(n3nc(-c4ccc(Oc5ccc(F)cc5F)cc4)c(C(N)=O)c3N)C2)ncc1C(C)[101CH2:1][101O:1]c1ccc2c(c1)CN(C(=O)C(NC(=O)C(C)NC)C(C)(C)C)C(C(=O)NC1CCCc3ccccc31)C2

> <Shape>
0.252

> <Color>
0.087

> <Negative vol penalty>
0.000

$$$$

  -OEChem-04052318123D

 89 97  0     1  0  0  0  0  0999 V2000
  -31.1958  -34.5563   20.4077 C   0  0  0  0  0  0  0  0  0  0  0  0
  -30.8862  -33.2171   20.6228 C   0  0  0  0  0  0  0  0  0  0  0  0
  -26.5909  -12.1656   19.7728 C   0  0  0  0  0  0  0  0  0  0  0  0
  -25.4135  -14.0964   20.6231 C   0  0  0  0  0  0  0  0  0  0  0  0
  -30.3857  -35.5535   20.9491 C   0  0  0  0  0  0  0  0  0  0  0  0
  -29.7668  -32.8745   21.3804 C   0  0  0  0  0  0  0  0  0  0  0  0
  -27.0493  -29.1632   19.2623 C   0  0  0  0  0  0  0  0  0  0  0  0
  -25.4279  -11.4045   19.8905 C   0  0  0  0  0  0  0  0  0  0  0  0
  -24.2505  -13.3354   20.7407 C   0  0  0  0  0  0  0  0  0  0  0  0
  -27.5318  -27.8624   19.4001 C   0  0  0  0  0  0  0  0  0  0  0  0
  -23.7152   -9.8372   22.3470 C   0  0  0  0  0  0  0  0  0  0  0  0
  -23.8277   -8.5658   22.9096 C   0  0  0  0  0  0  0  0  0  0  0  0
  -25.9682  -27.4793   21.1967 C   0  0  0  0  0  0  0  0  0  0  0  0
  -22.9758   -7.5885   20.8709 C   0  0  0  0  0  0  0  0  0  0  0  0
  -26.5837  -13.5115   20.1392 C   0  0  0  0  0  0  0  0  0  0  0  0
  -28.2030  -15.0452   18.9009 C   0  0  0  0  0  0  0  0  0  0  0  0
  -29.2503  -35.2229   21.7056 C   0  0  0  0  0  0  0  0  0  0  0  0
  -26.0284  -29.6361   20.0993 C   0  0  0  0  0  0  0  0  0  0  0  0
  -28.9415  -33.8682   21.9335 C   0  0  0  0  0  0  0  0  0  0  0  0
  -25.4727  -28.7856   21.0657 C   0  0  0  0  0  0  0  0  0  0  0  0
  -24.2576  -11.9894   20.3744 C   0  0  0  0  0  0  0  0  0  0  0  0
  -26.9932  -27.0212   20.3693 C   0  0  0  0  0  0  0  0  0  0  0  0
  -23.2329   -9.9843   21.0465 C   0  0  0  0  0  0  0  0  0  0  0  0
  -23.4580   -7.4414   22.1715 C   0  0  0  0  0  0  0  0  0  0  0  0
  -22.8632   -8.8599   20.3084 C   0  0  0  0  0  0  0  0  0  0  0  0
  -27.7849  -14.2980   20.0184 C   0  0  0  0  0  0  0  0  0  0  0  0
  -27.8579  -19.9547   22.1263 C   0  0  0  0  0  0  0  0  0  0  0  0
  -27.7092  -20.4343   20.8436 C   0  0  0  0  0  0  0  0  0  0  0  0
  -30.0779  -19.5775   21.7279 C   0  0  0  0  0  0  0  0  0  0  0  0
  -29.9292  -20.0565   20.4450 C   0  0  0  0  0  0  0  0  0  0  0  0
  -29.3966  -15.6035   19.2883 C   0  0  0  0  0  0  0  0  0  0  0  0
  -27.5690  -15.2192   17.6268 C   0  0  0  0  0  0  0  0  0  0  0  0
  -25.7861  -31.9706   22.2429 C   0  0  0  0  0  0  0  0  0  0  0  0
  -22.6666  -31.0822   22.2822 C   0  0  0  0  0  0  0  0  0  0  0  0
  -20.3403  -28.6476   21.7270 C   0  0  0  0  0  0  0  0  0  0  0  0
  -31.6116  -17.7348   24.3515 C   0  0  0  0  0  0  0  0  0  0  0  0
  -28.4315  -36.3358   22.3101 C   0  0  0  0  0  0  0  0  0  0  0  0
  -25.5006  -31.0331   19.9201 C   0  0  0  0  0  0  0  0  0  0  0  0
  -24.3613  -29.2384   21.9758 C   0  0  0  0  0  0  0  0  0  0  0  0
  -27.0523  -35.8876   22.7868 C   0  0  0  0  0  0  0  0  0  0  0  0
  -32.7683  -14.6037   22.7514 C   0  0  0  0  0  0  0  0  0  0  0  0
  -27.1589  -34.5946   23.5891 C   0  0  0  0  0  0  0  0  0  0  0  0
  -31.5994  -14.2465   21.8348 C   0  0  0  0  0  0  0  0  0  0  0  0
  -32.3107  -15.3986   23.9706 C   0  0  0  0  0  0  0  0  0  0  0  0
  -30.3620  -16.2637   22.7182 C   0  0  0  0  0  0  0  0  0  0  0  0
  -27.7217  -33.4566   22.7291 C   0  0  1  0  0  0  0  0  0  0  0  0
  -24.8125  -31.5766   21.1685 C   0  0  1  0  0  0  0  0  0  0  0  0
  -30.7953  -15.5025   21.4563 C   0  0  2  0  0  0  0  0  0  0  0  0
  -26.8149  -18.7217   24.0442 C   0  0  0  0  0  0  0  0  0  0  0  0
  -17.8752  -28.2056   21.8854 C   0  0  0  0  0  0  0  0  0  0  0  0
  -22.9135  -30.8044   25.3107 C   0  0  0  0  0  0  0  0  0  0  0  0
  -20.7869  -29.4832   25.2930 C   0  0  0  0  0  0  0  0  0  0  0  0
  -20.7841  -31.8581   24.5299 C   0  0  0  0  0  0  0  0  0  0  0  0
  -31.5237  -20.1975   24.4345 C   0  0  0  0  0  0  0  0  0  0  0  0
  -20.1269  -28.1396   18.8192 C   0  0  0  0  0  0  0  0  0  0  0  0
  -26.7077  -19.8943   23.0722 C   0  0  0  0  0  0  0  0  0  0  0  0
  -26.3753  -20.9213   20.3361 C   0  0  0  0  0  0  0  0  0  0  0  0
  -31.3966  -19.0973   22.2302 C   0  0  0  0  0  0  0  0  0  0  0  0
  -25.9832  -22.3082   20.8578 C   0  0  0  0  0  0  0  0  0  0  0  0
  -26.9414  -23.4109   20.4055 C   0  0  0  0  0  0  0  0  0  0  0  0
  -26.5431  -24.7658   20.9749 C   0  0  0  0  0  0  0  0  0  1  0  0
  -21.8478  -30.0887   23.0706 C   0  0  1  0  0  0  0  0  0  0  0  0
  -19.0131  -28.6718   20.9906 C   0  0  2  0  0  0  0  0  0  0  0  0
  -31.0796  -20.1164   19.4992 C   0  0  0  0  0  0  0  0  0  0  0  0
  -21.6053  -30.5504   24.5354 C   0  0  0  0  0  0  0  0  0  0  0  0
  -28.6433  -14.3726   21.0390 N   0  0  0  0  0  0  0  0  0  0  0  0
  -29.0450  -19.5177   22.5915 N   0  0  0  0  0  0  0  0  0  0  0  0
  -28.7421  -20.4938   19.9799 N   0  0  0  0  0  0  0  0  0  0  0  0
  -29.6127  -15.1732   20.5644 N   0  0  0  0  0  0  0  0  0  0  0  0
  -23.8836  -30.6150   21.7658 N   0  0  0  0  0  0  0  0  0  0  0  0
  -31.5124  -16.5625   23.5841 N   0  0  0  0  0  0  0  0  0  0  0  0
  -30.2720  -16.4156   18.6584 N   0  0  0  0  0  0  0  0  0  0  0  0
  -26.3463  -14.5746   17.3953 N   0  0  0  0  0  0  0  0  0  0  0  0
  -26.6975  -32.9325   21.8511 N   0  0  0  0  0  0  0  0  0  0  0  0
  -20.6265  -29.8668   22.3041 N   0  0  0  0  0  0  0  0  0  0  0  0
  -31.4195  -18.9541   23.6842 N   0  0  0  0  0  0  0  0  0  0  0  0
  -19.0669  -27.7816   19.7966 N   0  3  0  0  0  0  0  0  0  0  0  0
  -28.0801  -15.9121   16.7145 O   0  0  0  0  0  0  0  0  0  0  0  0
  -25.7149  -31.4421   23.3463 O   0  0  0  0  0  0  0  0  0  0  0  0
  -22.2388  -32.2283   22.1242 O   0  0  0  0  0  0  0  0  0  0  0  0
  -21.0504  -27.6462   21.7876 O   0  0  0  0  0  0  0  0  0  0  0  0
  -31.8672  -17.6943   25.5618 O   0  0  0  0  0  0  0  0  0  0  0  0
  -23.1225  -11.2472   20.4891 O   0  0  0  0  0  0  0  0  0  0  0  0
  -27.4628  -25.7513   20.5064 O   0  0  0  0  0  0  0  0  0  1  0  0
  -23.5675   -6.2205   22.7113 F   0  0  0  0  0  0  0  0  0  0  0  0
  -22.4003   -8.9948   19.0580 F   0  0  0  0  0  0  0  0  0  0  0  0
  -32.2519  -19.6593   20.0319 F   0  0  0  0  0  0  0  0  0  0  0  0
  -30.8942  -19.3793   18.3639 F   0  0  0  0  0  0  0  0  0  0  0  0
  -31.3434  -21.3858   19.0716 F   0  0  0  0  0  0  0  0  0  0  0  0
  1  2  1  0  0  0  0
  1  5  2  0  0  0  0
  2  6  2  0  0  0  0
  3  8  2  0  0  0  0
  3 15  1  0  0  0  0
  4  9  1  0  0  0  0
  4 15  2  0  0  0  0
  5 17  1  0  0  0  0
  6 19  1  0  0  0  0
  7 10  2  0  0  0  0
  7 18  1  0  0  0  0
  8 21  1  0  0  0  0
  9 21  2  0  0  0  0
 10 22  1  0  0  0  0
 11 12  2  0  0  0  0
 11 23  1  0  0  0  0
 12 24  1  0  0  0  0
 13 20  1  0  0  0  0
 13 22  2  0  0  0  0
 14 24  2  0  0  0  0
 14 25  1  0  0  0  0
 15 26  1  0  0  0  0
 16 26  1  0  0  0  0
 16 31  2  0  0  0  0
 16 32  1  0  0  0  0
 17 19  2  0  0  0  0
 17 37  1  0  0  0  0
 18 20  2  0  0  0  0
 18 38  1  0  0  0  0
 19 46  1  0  0  0  0
 20 39  1  0  0  0  0
 21 83  1  0  0  0  0
 22 84  1  0  0  0  0
 23 25  2  0  0  0  0
 23 83  1  0  0  0  0
 24 85  1  0  0  0  0
 25 86  1  0  0  0  0
 26 66  2  0  0  0  0
 27 28  2  0  0  0  0
 27 56  1  0  0  0  0
 27 67  1  0  0  0  0
 28 57  1  0  0  0  0
 28 68  1  0  0  0  0
 29 30  1  0  0  0  0
 29 58  1  0  0  0  0
 29 67  2  0  0  0  0
 30 64  1  0  0  0  0
 30 68  2  0  0  0  0
 31 69  1  0  0  0  0
 31 72  1  0  0  0  0
 32 73  1  0  0  0  0
 32 78  2  0  0  0  0
 33 47  1  0  0  0  0
 33 74  1  0  0  0  0
 33 79  2  0  0  0  0
 34 62  1  0  0  0  0
 34 70  1  0  0  0  0
 34 80  2  0  0  0  0
 35 63  1  0  0  0  0
 35 75  1  0  0  0  0
 35 81  2  0  0  0  0
 36 71  1  0  0  0  0
 36 76  1  0  0  0  0
 36 82  2  0  0  0  0
 37 40  1  0  0  0  0
 38 47  1  0  0  0  0
 39 70  1  0  0  0  0
 40 42  1  0  0  0  0
 41 43  1  0  0  0  0
 41 44  1  0  0  0  0
 42 46  1  0  0  0  0
 43 48  1  0  0  0  0
 44 71  1  0  0  0  0
 45 48  1  0  0  0  0
 45 71  1  0  0  0  0
 46 74  1  0  0  0  0
 47 70  1  0  0  0  0
 48 69  1  0  0  0  0
 49 56  1  0  0  0  0
 50 63  1  0  0  0  0
 51 65  1  0  0  0  0
 52 65  1  0  0  0  0
 53 65  1  0  0  0  0
 54 76  1  0  0  0  0
 55 77  1  0  0  0  0
 57 59  1  0  0  0  0
 58 76  1  0  0  0  0
 59 60  1  0  0  0  0
 60 61  1  0  0  0  0
 61 84  1  0  0  0  0
 62 65  1  0  0  0  0
 62 75  1  0  0  0  0
 63 77  1  0  0  0  0
 64 87  1  0  0  0  0
 64 88  1  0  0  0  0
 64 89  1  0  0  0  0
 66 69  1  0  0  0  0
M  CHG  1  77   1
M  ISO  4  36 100  61 101  76 100  84 101
M  END
> <Batch ID>
0067

> <Smiles>
CCc1nc(C[100N:0](C)[100C:0](=O)N2CCCC(n3nc(-c4ccc(Oc5ccc(F)cc5F)cc4)c(C(N)=O)c3N)C2)c(C(F)(F)F)nc1CCC[101CH2:1][101O:1]c1ccc2c(c1)CN(C(=O)C(NC(=O)C(C)NC)C(C)(C)C)C(C(=O)NC1CCCc3ccccc31)C2

> <Shape>
0.259

> <Color>
0.086

> <Negative vol penalty>
0.000

$$$$

  -OEChem-04052318123D

 89 97  0     1  0  0  0  0  0999 V2000
  -23.4791  -29.6033   24.0680 C   0  0  0  0  0  0  0  0  0  0  0  0
  -23.8480  -28.2741   23.8880 C   0  0  0  0  0  0  0  0  0  0  0  0
  -21.6151  -23.2587   23.2786 C   0  0  0  0  0  0  0  0  0  0  0  0
  -19.6273  -21.9577   23.7183 C   0  0  0  0  0  0  0  0  0  0  0  0
  -23.9100  -30.5737   23.1643 C   0  0  0  0  0  0  0  0  0  0  0  0
  -24.6472  -27.9142   22.8035 C   0  0  0  0  0  0  0  0  0  0  0  0
  -28.9306  -23.5390   22.6784 C   0  0  0  0  0  0  0  0  0  0  0  0
  -20.8375  -24.2376   22.6600 C   0  0  0  0  0  0  0  0  0  0  0  0
  -18.8498  -22.9366   23.0997 C   0  0  0  0  0  0  0  0  0  0  0  0
  -28.9137  -22.2226   22.2194 C   0  0  0  0  0  0  0  0  0  0  0  0
  -18.8312  -26.7901   23.6045 C   0  0  0  0  0  0  0  0  0  0  0  0
  -19.0899  -28.1225   23.9262 C   0  0  0  0  0  0  0  0  0  0  0  0
  -29.8534  -22.9490   20.1198 C   0  0  0  0  0  0  0  0  0  0  0  0
  -19.5936  -28.5841   21.6087 C   0  0  0  0  0  0  0  0  0  0  0  0
  -30.4117  -12.4233   19.3981 C   0  0  0  0  0  0  0  0  0  0  0  0
  -21.0100  -22.1187   23.8077 C   0  0  0  0  0  0  0  0  0  0  0  0
  -22.1621  -21.0329   25.8080 C   0  0  0  0  0  0  0  0  0  0  0  0
  -24.7230  -30.2271   22.0736 C   0  0  0  0  0  0  0  0  0  0  0  0
  -29.3997  -24.5735   21.8562 C   0  0  0  0  0  0  0  0  0  0  0  0
  -25.0884  -28.8807   21.8836 C   0  0  0  0  0  0  0  0  0  0  0  0
  -29.8776  -24.2773   20.5717 C   0  0  0  0  0  0  0  0  0  0  0  0
  -27.8233  -13.1373   19.4263 C   0  0  0  0  0  0  0  0  0  0  0  0
  -19.4549  -24.0766   22.5706 C   0  0  0  0  0  0  0  0  0  0  0  0
  -29.3724  -21.9278   20.9389 C   0  0  0  0  0  0  0  0  0  0  0  0
  -18.9537  -26.3547   22.2850 C   0  0  0  0  0  0  0  0  0  0  0  0
  -19.4711  -29.0195   22.9283 C   0  0  0  0  0  0  0  0  0  0  0  0
  -19.3349  -27.2517   21.2871 C   0  0  0  0  0  0  0  0  0  0  0  0
  -21.8127  -21.1068   24.4463 C   0  0  0  0  0  0  0  0  0  0  0  0
  -28.2219  -11.8165   19.4593 C   0  0  0  0  0  0  0  0  0  0  0  0
  -28.8418  -14.0671   19.3779 C   0  0  0  0  0  0  0  0  0  0  0  0
  -22.9267  -19.8960   25.9051 C   0  0  0  0  0  0  0  0  0  0  0  0
  -21.8256  -21.9131   26.8886 C   0  0  0  0  0  0  0  0  0  0  0  0
  -28.1184  -27.1984   20.6023 C   0  0  0  0  0  0  0  0  0  0  0  0
  -31.1656  -27.7561   19.6402 C   0  0  0  0  0  0  0  0  0  0  0  0
  -34.2406  -26.4881   18.8762 C   0  0  0  0  0  0  0  0  0  0  0  0
  -23.1413  -14.9561   22.8787 C   0  0  0  0  0  0  0  0  0  0  0  0
  -25.1250  -31.3036   21.0968 C   0  0  0  0  0  0  0  0  0  0  0  0
  -29.4363  -25.9845   22.3759 C   0  0  0  0  0  0  0  0  0  0  0  0
  -30.4102  -25.3489   19.6571 C   0  0  0  0  0  0  0  0  0  0  0  0
  -26.2792  -30.8976   20.1840 C   0  0  0  0  0  0  0  0  0  0  0  0
  -25.8807  -17.1307   23.3677 C   0  0  0  0  0  0  0  0  0  0  0  0
  -26.0444  -29.5018   19.6151 C   0  0  0  0  0  0  0  0  0  0  0  0
  -25.1762  -18.4058   23.8289 C   0  0  0  0  0  0  0  0  0  0  0  0
  -25.1140  -16.4234   22.2486 C   0  0  0  0  0  0  0  0  0  0  0  0
  -22.9924  -17.4229   23.0374 C   0  0  0  0  0  0  0  0  0  0  0  0
  -25.9748  -28.4548   20.7334 C   0  0  1  0  0  0  0  0  0  0  0  0
  -29.4563  -27.0301   21.2652 C   0  0  1  0  0  0  0  0  0  0  0  0
  -23.7112  -18.1207   24.2024 C   0  0  2  0  0  0  0  0  0  0  0  0
  -27.2078  -10.7215   19.5129 C   0  0  0  0  0  0  0  0  0  0  0  0
  -36.5176  -27.1851   18.0845 C   0  0  0  0  0  0  0  0  0  0  0  0
  -23.9201  -12.3006   24.0516 C   0  0  0  0  0  0  0  0  0  0  0  0
  -21.8747  -12.2513   22.5897 C   0  0  0  0  0  0  0  0  0  0  0  0
  -30.0798  -28.0760   16.8067 C   0  0  0  0  0  0  0  0  0  0  0  0
  -32.4202  -27.8185   15.9556 C   0  0  0  0  0  0  0  0  0  0  0  0
  -31.8397  -29.7350   17.4430 C   0  0  0  0  0  0  0  0  0  0  0  0
  -35.5318  -25.4911   21.3456 C   0  0  0  0  0  0  0  0  0  0  0  0
  -26.3894  -13.5329   19.4417 C   0  0  0  0  0  0  0  0  0  0  0  0
  -28.5284  -15.5418   19.3385 C   0  0  0  0  0  0  0  0  0  0  0  0
  -25.7279  -13.4946   20.8352 C   0  0  0  0  0  0  0  0  0  0  0  0
  -29.7497  -16.4408   19.5623 C   0  0  0  0  0  0  0  0  0  0  0  0
  -29.4254  -17.9332   19.4423 C   0  0  0  0  0  0  0  0  0  0  0  0
  -30.6625  -18.7909   19.7024 C   0  0  0  0  0  0  0  0  0  0  0  0
  -24.2698  -13.9486   20.8499 C   0  0  0  0  0  0  0  0  0  0  0  0
  -30.3609  -20.2744   19.5443 C   0  0  0  0  0  0  0  0  0  1  0  0
  -31.9821  -27.4072   18.4193 C   0  0  1  0  0  0  0  0  0  0  0  0
  -35.6371  -26.9119   19.2939 C   0  0  2  0  0  0  0  0  0  0  0  0
  -23.3743  -12.5129   22.6451 C   0  0  0  0  0  0  0  0  0  0  0  0
  -31.5687  -28.2390   17.1724 C   0  0  0  0  0  0  0  0  0  0  0  0
  -29.5121  -11.4223   19.4464 N   0  0  0  0  0  0  0  0  0  0  0  0
  -30.1517  -13.7442   19.3627 N   0  0  0  0  0  0  0  0  0  0  0  0
  -22.3143  -20.0974   23.7298 N   0  0  0  0  0  0  0  0  0  0  0  0
  -22.9867  -19.3784   24.6447 N   0  0  0  0  0  0  0  0  0  0  0  0
  -30.4196  -26.7139   20.2086 N   0  0  0  0  0  0  0  0  0  0  0  0
  -23.7100  -16.2134   22.6273 N   0  0  0  0  0  0  0  0  0  0  0  0
  -23.5468  -19.2986   26.9448 N   0  0  0  0  0  0  0  0  0  0  0  0
  -21.0315  -23.0349   26.6140 N   0  0  0  0  0  0  0  0  0  0  0  0
  -27.3035  -28.1348   21.2094 N   0  0  0  0  0  0  0  0  0  0  0  0
  -33.3804  -27.5634   18.8050 N   0  0  0  0  0  0  0  0  0  0  0  0
  -23.6704  -13.8606   22.1800 N   0  0  0  0  0  0  0  0  0  0  0  0
  -36.2796  -25.8443   20.1115 N   0  3  0  0  0  0  0  0  0  0  0  0
  -22.2310  -21.7198   28.0598 O   0  0  0  0  0  0  0  0  0  0  0  0
  -27.8462  -26.5293   19.6124 O   0  0  0  0  0  0  0  0  0  0  0  0
  -31.1946  -28.9090   20.0779 O   0  0  0  0  0  0  0  0  0  0  0  0
  -33.9435  -25.3205   18.6334 O   0  0  0  0  0  0  0  0  0  0  0  0
  -22.2060  -14.8195   23.6779 O   0  0  0  0  0  0  0  0  0  0  0  0
  -18.6958  -25.0318   21.9672 O   0  0  0  0  0  0  0  0  0  0  0  0
  -29.3564  -20.6439   20.4881 O   0  0  0  0  0  0  0  0  0  1  0  0
  -19.7180  -30.2993   23.2370 F   0  0  0  0  0  0  0  0  0  0  0  0
  -19.4531  -26.8395   20.0175 F   0  0  0  0  0  0  0  0  0  0  0  0
  1  2  1  0  0  0  0
  1  5  2  0  0  0  0
  2  6  2  0  0  0  0
  3  8  2  0  0  0  0
  3 16  1  0  0  0  0
  4  9  1  0  0  0  0
  4 16  2  0  0  0  0
  5 18  1  0  0  0  0
  6 20  1  0  0  0  0
  7 10  2  0  0  0  0
  7 19  1  0  0  0  0
  8 23  1  0  0  0  0
  9 23  2  0  0  0  0
 10 24  1  0  0  0  0
 11 12  2  0  0  0  0
 11 25  1  0  0  0  0
 12 26  1  0  0  0  0
 13 21  1  0  0  0  0
 13 24  2  0  0  0  0
 14 26  2  0  0  0  0
 14 27  1  0  0  0  0
 15 69  1  0  0  0  0
 15 70  2  0  0  0  0
 16 28  1  0  0  0  0
 17 28  1  0  0  0  0
 17 31  2  0  0  0  0
 17 32  1  0  0  0  0
 18 20  2  0  0  0  0
 18 37  1  0  0  0  0
 19 21  2  0  0  0  0
 19 38  1  0  0  0  0
 20 46  1  0  0  0  0
 21 39  1  0  0  0  0
 22 29  1  0  0  0  0
 22 30  2  0  0  0  0
 22 57  1  0  0  0  0
 23 86  1  0  0  0  0
 24 87  1  0  0  0  0
 25 27  2  0  0  0  0
 25 86  1  0  0  0  0
 26 88  1  0  0  0  0
 27 89  1  0  0  0  0
 28 71  2  0  0  0  0
 29 49  1  0  0  0  0
 29 69  2  0  0  0  0
 30 58  1  0  0  0  0
 30 70  1  0  0  0  0
 31 72  1  0  0  0  0
 31 75  1  0  0  0  0
 32 76  1  0  0  0  0
 32 81  2  0  0  0  0
 33 47  1  0  0  0  0
 33 77  1  0  0  0  0
 33 82  2  0  0  0  0
 34 65  1  0  0  0  0
 34 73  1  0  0  0  0
 34 83  2  0  0  0  0
 35 66  1  0  0  0  0
 35 78  1  0  0  0  0
 35 84  2  0  0  0  0
 36 74  1  0  0  0  0
 36 79  1  0  0  0  0
 36 85  2  0  0  0  0
 37 40  1  0  0  0  0
 38 47  1  0  0  0  0
 39 73  1  0  0  0  0
 40 42  1  0  0  0  0
 41 43  1  0  0  0  0
 41 44  1  0  0  0  0
 42 46  1  0  0  0  0
 43 48  1  0  0  0  0
 44 74  1  0  0  0  0
 45 48  1  0  0  0  0
 45 74  1  0  0  0  0
 46 77  1  0  0  0  0
 47 73  1  0  0  0  0
 48 72  1  0  0  0  0
 50 66  1  0  0  0  0
 51 67  1  0  0  0  0
 52 67  1  0  0  0  0
 53 68  1  0  0  0  0
 54 68  1  0  0  0  0
 55 68  1  0  0  0  0
 56 80  1  0  0  0  0
 57 59  1  0  0  0  0
 58 60  1  0  0  0  0
 59 63  1  0  0  0  0
 60 61  1  0  0  0  0
 61 62  1  0  0  0  0
 62 64  1  0  0  0  0
 63 79  1  0  0  0  0
 64 87  1  0  0  0  0
 65 68  1  0  0  0  0
 65 78  1  0  0  0  0
 66 80  1  0  0  0  0
 67 79  1  0  0  0  0
 71 72  1  0  0  0  0
M  CHG  1  80   1
M  ISO  4  36 100  64 101  79 100  87 101
M  END
> <Batch ID>
0067

> <Smiles>
CNC(C)C(=O)NC(C(=O)N1Cc2cc([101O:1][101CH2:1]CCCCc3ncnc(C)c3CCC[100N:0](C(C)C)[100C:0](=O)N3CCCC(n4nc(-c5ccc(Oc6ccc(F)cc6F)cc5)c(C(N)=O)c4N)C3)ccc2CC1C(=O)NC1CCCc2ccccc21)C(C)(C)C

> <Shape>
0.240

> <Color>
0.071

> <Negative vol penalty>
0.000

$$$$

  -OEChem-04052318123D

 97105  0     1  0  0  0  0  0999 V2000
  -29.3096  -27.0475   29.1181 C   0  0  0  0  0  0  0  0  0  0  0  0
  -29.1455  -26.7051   27.7797 C   0  0  0  0  0  0  0  0  0  0  0  0
  -24.6819   -8.4806   20.8722 C   0  0  0  0  0  0  0  0  0  0  0  0
  -23.0145  -10.2041   20.5790 C   0  0  0  0  0  0  0  0  0  0  0  0
  -28.2928  -27.7210   29.7938 C   0  0  0  0  0  0  0  0  0  0  0  0
  -27.9641  -27.0350   27.1166 C   0  0  0  0  0  0  0  0  0  0  0  0
  -28.7968  -28.9796   22.5155 C   0  0  0  0  0  0  0  0  0  0  0  0
  -23.6764   -7.5552   21.1518 C   0  0  0  0  0  0  0  0  0  0  0  0
  -22.0089   -9.2787   20.8586 C   0  0  0  0  0  0  0  0  0  0  0  0
  -29.1120  -28.0851   21.4937 C   0  0  0  0  0  0  0  0  0  0  0  0
  -21.7129   -6.7278   23.7756 C   0  0  0  0  0  0  0  0  0  0  0  0
  -21.9033   -5.8731   24.8613 C   0  0  0  0  0  0  0  0  0  0  0  0
  -26.8307  -28.1796   20.7152 C   0  0  0  0  0  0  0  0  0  0  0  0
  -21.7614   -3.9660   23.3849 C   0  0  0  0  0  0  0  0  0  0  0  0
  -27.0582  -21.4646   22.5777 C   0  0  0  0  0  0  0  0  0  0  0  0
  -24.3510   -9.8050   20.5859 C   0  0  0  0  0  0  0  0  0  0  0  0
  -25.9322  -11.0726   19.0365 C   0  0  0  0  0  0  0  0  0  0  0  0
  -27.1022  -28.0678   29.1360 C   0  0  0  0  0  0  0  0  0  0  0  0
  -27.4913  -29.4733   22.6517 C   0  0  0  0  0  0  0  0  0  0  0  0
  -26.9299  -27.7125   27.7845 C   0  0  0  0  0  0  0  0  0  0  0  0
  -26.5021  -29.0823   21.7381 C   0  0  0  0  0  0  0  0  0  0  0  0
  -22.3398   -7.9543   21.1450 C   0  0  0  0  0  0  0  0  0  0  0  0
  -28.1283  -27.6827   20.5951 C   0  0  0  0  0  0  0  0  0  0  0  0
  -21.5466   -6.2016   22.4945 C   0  0  0  0  0  0  0  0  0  0  0  0
  -21.9276   -4.4922   24.6660 C   0  0  0  0  0  0  0  0  0  0  0  0
  -21.5708   -4.8207   22.2991 C   0  0  0  0  0  0  0  0  0  0  0  0
  -25.3893  -10.7615   20.2975 C   0  0  0  0  0  0  0  0  0  0  0  0
  -27.6950  -22.5706   23.1027 C   0  0  0  0  0  0  0  0  0  0  0  0
  -27.6228  -20.9374   21.4342 C   0  0  0  0  0  0  0  0  0  0  0  0
  -26.8783  -12.0334   19.2975 C   0  0  0  0  0  0  0  0  0  0  0  0
  -29.2529  -22.5216   21.4481 C   0  0  0  0  0  0  0  0  0  0  0  0
  -25.6101  -10.5406   17.7446 C   0  0  0  0  0  0  0  0  0  0  0  0
  -25.2540  -29.3076   24.9035 C   0  0  0  0  0  0  0  0  0  0  0  0
  -23.6875  -31.3705   22.9509 C   0  0  0  0  0  0  0  0  0  0  0  0
  -23.2471  -32.6117   19.8025 C   0  0  0  0  0  0  0  0  0  0  0  0
  -28.4841  -16.7021   21.8996 C   0  0  0  0  0  0  0  0  0  0  0  0
  -26.0124  -28.7538   29.9211 C   0  0  0  0  0  0  0  0  0  0  0  0
  -27.1737  -30.4583   23.7431 C   0  0  0  0  0  0  0  0  0  0  0  0
  -25.0902  -29.5989   21.8287 C   0  0  0  0  0  0  0  0  0  0  0  0
  -24.9427  -29.3982   29.0431 C   0  0  0  0  0  0  0  0  0  0  0  0
  -28.8159  -13.6397   23.6852 C   0  0  0  0  0  0  0  0  0  0  0  0
  -24.5014  -28.4352   27.9456 C   0  0  0  0  0  0  0  0  0  0  0  0
  -27.9940  -12.6458   22.8627 C   0  0  0  0  0  0  0  0  0  0  0  0
  -28.1765  -15.0265   23.6980 C   0  0  0  0  0  0  0  0  0  0  0  0
  -27.0634  -14.5924   21.5424 C   0  0  0  0  0  0  0  0  0  0  0  0
  -25.6728  -28.0750   27.0239 C   0  0  1  0  0  0  0  0  0  0  0  0
  -25.6907  -30.4988   24.0985 C   0  0  1  0  0  0  0  0  0  0  0  0
  -27.6977  -13.1938   21.4538 C   0  0  2  0  0  0  0  0  0  0  0  0
  -21.8676  -34.2630   18.5112 C   0  0  0  0  0  0  0  0  0  0  0  0
  -29.2416  -24.8866   17.5488 C   0  0  0  0  0  0  0  0  0  0  0  0
  -21.3199  -29.4473   23.0255 C   0  0  0  0  0  0  0  0  0  0  0  0
  -20.3856  -30.6300   21.0264 C   0  0  0  0  0  0  0  0  0  0  0  0
  -20.7035  -31.8667   23.1693 C   0  0  0  0  0  0  0  0  0  0  0  0
  -30.8032  -17.0320   19.2558 C   0  0  0  0  0  0  0  0  0  0  0  0
  -30.3404  -19.2881   18.3135 C   0  0  0  0  0  0  0  0  0  0  0  0
  -28.9432  -17.3384   17.6070 C   0  0  0  0  0  0  0  0  0  0  0  0
  -25.8173  -19.2349   21.4752 C   0  0  0  0  0  0  0  0  0  0  0  0
  -25.6371  -34.1722   19.0201 C   0  0  0  0  0  0  0  0  0  0  0  0
  -30.4858  -23.1152   20.8138 C   0  0  0  0  0  0  0  0  0  0  0  0
  -30.3089  -23.4878   19.3352 C   0  0  0  0  0  0  0  0  0  0  0  0
  -27.5320  -19.2077   19.6566 C   0  0  0  0  0  0  0  0  0  0  0  0
  -29.4712  -25.8646   19.8555 C   0  0  0  0  0  0  0  0  0  1  0  0
  -22.7271  -31.2281   21.7949 C   0  0  1  0  0  0  0  0  0  0  0  0
  -23.1571  -34.0359   19.2847 C   0  0  2  0  0  0  0  0  0  0  0  0
  -29.2504  -24.5764   19.0511 C   0  0  1  0  0  0  0  0  0  0  0  0
  -28.7100  -18.2808   19.9981 C   0  0  2  0  0  0  0  0  0  0  0  0
  -27.1577  -23.2109   24.3384 C   0  0  0  0  0  0  0  0  0  0  0  0
  -21.3101  -30.7816   22.2532 C   0  0  0  0  0  0  0  0  0  0  0  0
  -29.6742  -17.9833   18.7995 C   0  0  0  0  0  0  0  0  0  0  0  0
  -26.1397  -24.2994   24.0327 C   0  0  0  0  0  0  0  0  0  0  0  0
  -25.9444  -11.4674   21.2863 N   0  0  0  0  0  0  0  0  0  0  0  0
  -28.7985  -23.1273   22.5618 N   0  0  0  0  0  0  0  0  0  0  0  0
  -28.7239  -21.4426   20.8403 N   0  0  0  0  0  0  0  0  0  0  0  0
  -26.8460  -12.2315   20.6466 N   0  0  0  0  0  0  0  0  0  0  0  0
  -24.8277  -30.5552   22.9169 N   0  0  0  0  0  0  0  0  0  0  0  0
  -27.9229  -15.4890   22.3313 N   0  0  0  0  0  0  0  0  0  0  0  0
  -27.7264  -12.7197   18.5024 N   0  0  0  0  0  0  0  0  0  0  0  0
  -24.6130   -9.5597   17.6556 N   0  0  0  0  0  0  0  0  0  0  0  0
  -25.9357  -29.1537   26.0956 N   0  0  0  0  0  0  0  0  0  0  0  0
  -22.7516  -32.5022   21.0846 N   0  0  0  0  0  0  0  0  0  0  0  0
  -28.1994  -17.0637   20.5885 N   0  0  0  0  0  0  0  0  0  0  0  0
  -26.9991  -19.8010   20.8633 N   0  0  3  0  0  0  0  0  0  0  0  0
  -24.3052  -34.3323   18.3819 N   0  3  0  0  0  0  0  0  0  0  0  0
  -26.2008  -10.9118   16.7021 O   0  0  0  0  0  0  0  0  0  0  0  0
  -24.3636  -28.5826   24.4755 O   0  0  0  0  0  0  0  0  0  0  0  0
  -23.4390  -32.1806   23.8473 O   0  0  0  0  0  0  0  0  0  0  0  0
  -23.7074  -31.6881   19.1350 O   0  0  0  0  0  0  0  0  0  0  0  0
  -29.1912  -17.4078   22.6268 O   0  0  0  0  0  0  0  0  0  0  0  0
  -21.3583   -7.0515   21.4175 O   0  0  0  0  0  0  0  0  0  0  0  0
  -28.4332  -26.8091   19.5972 O   0  0  0  0  0  0  0  0  0  1  0  0
  -22.1121   -3.6716   25.7084 F   0  0  0  0  0  0  0  0  0  0  0  0
  -21.4128   -4.3094   21.0706 F   0  0  0  0  0  0  0  0  0  0  0  0
  -26.5451  -22.3153   25.1778 F   0  0  0  0  0  0  0  0  0  0  0  0
  -28.1372  -23.7851   25.1086 F   0  0  0  0  0  0  0  0  0  0  0  0
  -25.0846  -23.7973   23.3523 F   0  0  0  0  0  0  0  0  0  0  0  0
  -26.6798  -25.2804   23.2784 F   0  0  0  0  0  0  0  0  0  0  0  0
  -25.6633  -24.8594   25.1652 F   0  0  0  0  0  0  0  0  0  0  0  0
  1  2  1  0  0  0  0
  1  5  2  0  0  0  0
  2  6  2  0  0  0  0
  3  8  2  0  0  0  0
  3 16  1  0  0  0  0
  4  9  1  0  0  0  0
  4 16  2  0  0  0  0
  5 18  1  0  0  0  0
  6 20  1  0  0  0  0
  7 10  2  0  0  0  0
  7 19  1  0  0  0  0
  8 22  1  0  0  0  0
  9 22  2  0  0  0  0
 10 23  1  0  0  0  0
 11 12  2  0  0  0  0
 11 24  1  0  0  0  0
 12 25  1  0  0  0  0
 13 21  1  0  0  0  0
 13 23  2  0  0  0  0
 14 25  2  0  0  0  0
 14 26  1  0  0  0  0
 15 28  2  0  0  0  0
 15 29  1  0  0  0  0
 16 27  1  0  0  0  0
 17 27  1  0  0  0  0
 17 30  2  0  0  0  0
 17 32  1  0  0  0  0
 18 20  2  0  0  0  0
 18 37  1  0  0  0  0
 19 21  2  0  0  0  0
 19 38  1  0  0  0  0
 20 46  1  0  0  0  0
 21 39  1  0  0  0  0
 22 89  1  0  0  0  0
 23 90  1  0  0  0  0
 24 26  2  0  0  0  0
 24 89  1  0  0  0  0
 25 91  1  0  0  0  0
 26 92  1  0  0  0  0
 27 71  2  0  0  0  0
 28 67  1  0  0  0  0
 28 72  1  0  0  0  0
 29 73  2  0  0  0  0
 29 82  1  0  0  0  0
 30 74  1  0  0  0  0
 30 77  1  0  0  0  0
 31 59  1  0  0  0  0
 31 72  2  0  0  0  0
 31 73  1  0  0  0  0
 32 78  1  0  0  0  0
 32 84  2  0  0  0  0
 33 47  1  0  0  0  0
 33 79  1  0  0  0  0
 33 85  2  0  0  0  0
 34 63  1  0  0  0  0
 34 75  1  0  0  0  0
 34 86  2  0  0  0  0
 35 64  1  0  0  0  0
 35 80  1  0  0  0  0
 35 87  2  0  0  0  0
 36 76  1  0  0  0  0
 36 81  1  0  0  0  0
 36 88  2  0  0  0  0
 37 40  1  0  0  0  0
 38 47  1  0  0  0  0
 39 75  1  0  0  0  0
 40 42  1  0  0  0  0
 41 43  1  0  0  0  0
 41 44  1  0  0  0  0
 42 46  1  0  0  0  0
 43 48  1  0  0  0  0
 44 76  1  0  0  0  0
 45 48  1  0  0  0  0
 45 76  1  0  0  0  0
 46 79  1  0  0  0  0
 47 75  1  0  0  0  0
 48 74  1  0  0  0  0
 49 64  1  0  0  0  0
 50 65  1  0  0  0  0
 51 68  1  0  0  0  0
 52 68  1  0  0  0  0
 53 68  1  0  0  0  0
 54 69  1  0  0  0  0
 55 69  1  0  0  0  0
 56 69  1  0  0  0  0
 57 82  1  0  0  0  0
 58 83  1  0  0  0  0
 59 60  1  0  0  0  0
 60 65  1  0  0  0  0
 61 66  1  0  0  0  0
 61 82  1  0  0  0  0
 62 65  1  0  0  0  0
 62 90  1  0  0  0  0
 63 68  1  0  0  0  0
 63 80  1  0  0  0  0
 64 83  1  0  0  0  0
 66 69  1  0  0  0  0
 66 81  1  0  0  0  0
 67 70  1  0  0  0  0
 67 93  1  0  0  0  0
 67 94  1  0  0  0  0
 70 95  1  0  0  0  0
 70 96  1  0  0  0  0
 70 97  1  0  0  0  0
 71 74  1  0  0  0  0
M  CHG  1  83   1
M  ISO  4  36 100  62 101  81 100  90 101
M  END
> <Batch ID>
0067

> <Smiles>
CNC(C)C(=O)NC(C(=O)N1Cc2cc([101O:1][101CH2:1]C(C)CCc3nc(N(C)CC([100NH:0][100C:0](=O)N4CCCC(n5nc(-c6ccc(Oc7ccc(F)cc7F)cc6)c(C(N)=O)c5N)C4)C(C)(C)C)cc(C(F)(F)C(F)(F)F)n3)ccc2CC1C(=O)NC1CCCc2ccccc21)C(C)(C)C

> <Shape>
0.278

> <Color>
0.101

> <Negative vol penalty>
0.000

$$$$

  -OEChem-04052318123D

 87 95  0     1  0  0  0  0  0999 V2000
  -26.4099  -38.6446   20.4204 C   0  0  0  0  0  0  0  0  0  0  0  0
  -26.7265  -37.5556   19.6146 C   0  0  0  0  0  0  0  0  0  0  0  0
  -23.5682   -9.7777   21.9853 C   0  0  0  0  0  0  0  0  0  0  0  0
  -24.3467  -11.1191   23.8377 C   0  0  0  0  0  0  0  0  0  0  0  0
  -26.3415  -38.4898   21.8043 C   0  0  0  0  0  0  0  0  0  0  0  0
  -26.9759  -36.3113   20.1925 C   0  0  0  0  0  0  0  0  0  0  0  0
  -26.2033  -29.3056   18.9122 C   0  0  0  0  0  0  0  0  0  0  0  0
  -23.0092   -8.8658   22.8805 C   0  0  0  0  0  0  0  0  0  0  0  0
  -23.7877  -10.2072   24.7330 C   0  0  0  0  0  0  0  0  0  0  0  0
  -26.9454  -28.1254   18.8957 C   0  0  0  0  0  0  0  0  0  0  0  0
  -20.2323   -8.6387   24.7963 C   0  0  0  0  0  0  0  0  0  0  0  0
  -18.9413   -8.1807   24.5336 C   0  0  0  0  0  0  0  0  0  0  0  0
  -26.7209  -27.9580   21.2917 C   0  0  0  0  0  0  0  0  0  0  0  0
  -19.7702   -5.9146   24.4115 C   0  0  0  0  0  0  0  0  0  0  0  0
  -29.1960  -18.7396   19.4339 C   0  0  0  0  0  0  0  0  0  0  0  0
  -24.2370  -10.9044   22.4638 C   0  0  0  0  0  0  0  0  0  0  0  0
  -24.1940  -12.9793   20.9805 C   0  0  0  0  0  0  0  0  0  0  0  0
  -26.5807  -37.2408   22.3987 C   0  0  0  0  0  0  0  0  0  0  0  0
  -25.7229  -29.8275   20.1218 C   0  0  0  0  0  0  0  0  0  0  0  0
  -26.9119  -36.1400   21.5857 C   0  0  0  0  0  0  0  0  0  0  0  0
  -25.9707  -29.1435   21.3205 C   0  0  0  0  0  0  0  0  0  0  0  0
  -23.1189   -9.0805   24.2544 C   0  0  0  0  0  0  0  0  0  0  0  0
  -27.2068  -27.4530   20.0860 C   0  0  0  0  0  0  0  0  0  0  0  0
  -21.2924   -7.7348   24.8666 C   0  0  0  0  0  0  0  0  0  0  0  0
  -18.7103   -6.8186   24.3412 C   0  0  0  0  0  0  0  0  0  0  0  0
  -21.0613   -6.3727   24.6742 C   0  0  0  0  0  0  0  0  0  0  0  0
  -24.8152  -11.8464   21.5395 C   0  0  0  0  0  0  0  0  0  0  0  0
  -25.1565  -13.5358   20.1741 C   0  0  0  0  0  0  0  0  0  0  0  0
  -29.9542  -17.6308   19.1838 C   0  0  0  0  0  0  0  0  0  0  0  0
  -31.0466  -19.3941   18.4106 C   0  0  0  0  0  0  0  0  0  0  0  0
  -22.8657  -13.4836   21.1730 C   0  0  0  0  0  0  0  0  0  0  0  0
  -26.1892  -32.5199   21.7457 C   0  0  0  0  0  0  0  0  0  0  0  0
  -23.8549  -31.3171   23.6502 C   0  0  0  0  0  0  0  0  0  0  0  0
  -22.1728  -28.5761   24.7921 C   0  0  0  0  0  0  0  0  0  0  0  0
  -30.4053  -15.1534   19.2593 C   0  0  0  0  0  0  0  0  0  0  0  0
  -26.5416  -37.1331   23.9025 C   0  0  0  0  0  0  0  0  0  0  0  0
  -24.9012  -31.0873   20.1195 C   0  0  0  0  0  0  0  0  0  0  0  0
  -25.4601  -29.6512   22.6434 C   0  0  0  0  0  0  0  0  0  0  0  0
  -26.4519  -35.6955   24.4081 C   0  0  0  0  0  0  0  0  0  0  0  0
  -29.6370  -11.7281   18.6643 C   0  0  0  0  0  0  0  0  0  0  0  0
  -27.4564  -34.8093   23.6783 C   0  0  0  0  0  0  0  0  0  0  0  0
  -28.2630  -11.5467   19.3133 C   0  0  0  0  0  0  0  0  0  0  0  0
  -30.5222  -12.6799   19.4670 C   0  0  0  0  0  0  0  0  0  0  0  0
  -28.5453  -13.8039   20.4145 C   0  0  0  0  0  0  0  0  0  0  0  0
  -27.1647  -34.7685   22.1734 C   0  0  1  0  0  0  0  0  0  0  0  0
  -24.8990  -31.8018   21.4674 C   0  0  1  0  0  0  0  0  0  0  0  0
  -27.5950  -12.9043   19.6074 C   0  0  2  0  0  0  0  0  0  0  0  0
  -20.3421  -27.9050   26.3718 C   0  0  0  0  0  0  0  0  0  0  0  0
  -32.6691  -21.2870   18.7718 C   0  0  0  0  0  0  0  0  0  0  0  0
  -31.5310  -21.0143   16.5432 C   0  0  0  0  0  0  0  0  0  0  0  0
  -33.3437  -19.4572   17.2295 C   0  0  0  0  0  0  0  0  0  0  0  0
  -25.7485  -31.7142   26.0096 C   0  0  0  0  0  0  0  0  0  0  0  0
  -24.2842  -30.1901   27.3516 C   0  0  0  0  0  0  0  0  0  0  0  0
  -23.3691  -32.3349   26.4656 C   0  0  0  0  0  0  0  0  0  0  0  0
  -27.8913  -20.8573   17.0060 C   0  0  0  0  0  0  0  0  0  0  0  0
  -26.8939  -21.1415   19.2798 C   0  0  0  0  0  0  0  0  0  0  0  0
  -20.5375  -27.4451   22.6000 C   0  0  0  0  0  0  0  0  0  0  0  0
  -28.0205  -24.0303   19.2973 C   0  0  0  0  0  0  0  0  0  0  0  0
  -27.9511  -23.1100   18.0747 C   0  0  0  0  0  0  0  0  0  0  0  0
  -29.4332  -21.2545   19.0047 C   0  0  0  0  0  0  0  0  0  0  0  0
  -27.8429  -25.4915   18.9012 C   0  0  0  0  0  0  0  0  0  1  0  0
  -23.8224  -30.4274   24.8693 C   0  0  1  0  0  0  0  0  0  0  0  0
  -20.6886  -28.2958   24.9435 C   0  0  2  0  0  0  0  0  0  0  0  0
  -32.0930  -20.2311   17.7736 C   0  0  0  0  0  0  0  0  0  0  0  0
  -24.3175  -31.1579   26.1495 C   0  0  0  0  0  0  0  0  0  0  0  0
  -28.0512  -21.5790   18.3622 C   0  0  0  0  0  0  0  0  0  0  0  0
  -26.0748  -11.6910   21.1234 N   0  0  0  0  0  0  0  0  0  0  0  0
  -29.8963  -19.8162   18.9454 N   0  0  0  0  0  0  0  0  0  0  0  0
  -26.2529  -12.7335   20.2942 N   0  0  0  0  0  0  0  0  0  0  0  0
  -31.0932  -18.0653   18.5498 N   0  3  0  0  0  0  0  0  0  0  0  0
  -24.6669  -30.8904   22.5898 N   0  0  0  0  0  0  0  0  0  0  0  0
  -29.8256  -13.9463   19.7036 N   0  0  0  0  0  0  0  0  0  0  0  0
  -25.1636  -14.6282   19.3810 N   0  0  0  0  0  0  0  0  0  0  0  0
  -22.0062  -12.7898   22.0357 N   0  0  0  0  0  0  0  0  0  0  0  0
  -29.6365  -16.2892   19.5111 N   0  0  0  0  0  0  0  0  0  0  0  0
  -26.0510  -33.8863   21.8982 N   0  0  0  0  0  0  0  0  0  0  0  0
  -22.4602  -29.9137   24.9635 N   0  0  0  0  0  0  0  0  0  0  0  0
  -20.2762  -27.1854   24.0392 N   0  3  0  0  0  0  0  0  0  0  0  0
  -22.4479  -14.5095   20.5844 O   0  0  0  0  0  0  0  0  0  0  0  0
  -27.2326  -31.8814   21.8184 O   0  0  0  0  0  0  0  0  0  0  0  0
  -23.1791  -32.3489   23.6363 O   0  0  0  0  0  0  0  0  0  0  0  0
  -22.9956  -27.6957   24.5499 O   0  0  0  0  0  0  0  0  0  0  0  0
  -31.4904  -15.1749   18.6726 O   0  0  0  0  0  0  0  0  0  0  0  0
  -22.5734   -8.1910   25.1283 O   0  0  0  0  0  0  0  0  0  0  0  0
  -27.9314  -26.3012   20.0728 O   0  0  0  0  0  0  0  0  0  1  0  0
  -17.4702   -6.3787   24.0905 F   0  0  0  0  0  0  0  0  0  0  0  0
  -22.0754   -5.4993   24.7416 F   0  0  0  0  0  0  0  0  0  0  0  0
  1  2  1  0  0  0  0
  1  5  2  0  0  0  0
  2  6  2  0  0  0  0
  3  8  2  0  0  0  0
  3 16  1  0  0  0  0
  4  9  1  0  0  0  0
  4 16  2  0  0  0  0
  5 18  1  0  0  0  0
  6 20  1  0  0  0  0
  7 10  2  0  0  0  0
  7 19  1  0  0  0  0
  8 22  1  0  0  0  0
  9 22  2  0  0  0  0
 10 23  1  0  0  0  0
 11 12  2  0  0  0  0
 11 24  1  0  0  0  0
 12 25  1  0  0  0  0
 13 21  1  0  0  0  0
 13 23  2  0  0  0  0
 14 25  2  0  0  0  0
 14 26  1  0  0  0  0
 15 29  2  0  0  0  0
 15 68  1  0  0  0  0
 16 27  1  0  0  0  0
 17 27  1  0  0  0  0
 17 28  2  0  0  0  0
 17 31  1  0  0  0  0
 18 20  2  0  0  0  0
 18 36  1  0  0  0  0
 19 21  2  0  0  0  0
 19 37  1  0  0  0  0
 20 45  1  0  0  0  0
 21 38  1  0  0  0  0
 22 84  1  0  0  0  0
 23 85  1  0  0  0  0
 24 26  2  0  0  0  0
 24 84  1  0  0  0  0
 25 86  1  0  0  0  0
 26 87  1  0  0  0  0
 27 67  2  0  0  0  0
 28 69  1  0  0  0  0
 28 73  1  0  0  0  0
 29 70  1  0  0  0  0
 29 75  1  0  0  0  0
 30 64  1  0  0  0  0
 30 68  1  0  0  0  0
 30 70  2  0  0  0  0
 31 74  1  0  0  0  0
 31 79  2  0  0  0  0
 32 46  1  0  0  0  0
 32 76  1  0  0  0  0
 32 80  2  0  0  0  0
 33 62  1  0  0  0  0
 33 71  1  0  0  0  0
 33 81  2  0  0  0  0
 34 63  1  0  0  0  0
 34 77  1  0  0  0  0
 34 82  2  0  0  0  0
 35 72  1  0  0  0  0
 35 75  1  0  0  0  0
 35 83  2  0  0  0  0
 36 39  1  0  0  0  0
 37 46  1  0  0  0  0
 38 71  1  0  0  0  0
 39 41  1  0  0  0  0
 40 42  1  0  0  0  0
 40 43  1  0  0  0  0
 41 45  1  0  0  0  0
 42 47  1  0  0  0  0
 43 72  1  0  0  0  0
 44 47  1  0  0  0  0
 44 72  1  0  0  0  0
 45 76  1  0  0  0  0
 46 71  1  0  0  0  0
 47 69  1  0  0  0  0
 48 63  1  0  0  0  0
 49 64  1  0  0  0  0
 50 64  1  0  0  0  0
 51 64  1  0  0  0  0
 52 65  1  0  0  0  0
 53 65  1  0  0  0  0
 54 65  1  0  0  0  0
 55 66  1  0  0  0  0
 56 66  1  0  0  0  0
 57 78  1  0  0  0  0
 58 59  1  0  0  0  0
 58 61  1  0  0  0  0
 59 66  1  0  0  0  0
 60 66  1  0  0  0  0
 60 68  1  0  0  0  0
 61 85  1  0  0  0  0
 62 65  1  0  0  0  0
 62 77  1  0  0  0  0
 63 78  1  0  0  0  0
 67 69  1  0  0  0  0
M  CHG  2  70   1  78   1
M  ISO  4  35 100  61 101  75 100  85 101
M  END
> <Batch ID>
0067

> <Smiles>
CNC(C)C(=O)NC(C(=O)N1Cc2cc([101O:1][101CH2:1]CCC(C)(C)Cn3cc([100NH:0][100C:0](=O)N4CCCC(n5nc(-c6ccc(Oc7ccc(F)cc7F)cc6)c(C(N)=O)c5N)C4)nc3C(C)(C)C)ccc2CC1C(=O)NC1CCCc2ccccc21)C(C)(C)C

> <Shape>
0.295

> <Color>
0.163

> <Negative vol penalty>
0.000

$$$$

  -OEChem-04052318123D

 86 94  0     1  0  0  0  0  0999 V2000
  -29.0575  -24.2791   15.3312 C   0  0  0  0  0  0  0  0  0  0  0  0
  -28.8916  -24.1078   16.7018 C   0  0  0  0  0  0  0  0  0  0  0  0
  -26.7268  -12.1837   21.7840 C   0  0  0  0  0  0  0  0  0  0  0  0
  -25.9160  -13.8171   20.1992 C   0  0  0  0  0  0  0  0  0  0  0  0
  -28.7375  -25.4999   14.7386 C   0  0  0  0  0  0  0  0  0  0  0  0
  -28.4065  -25.1576   17.4808 C   0  0  0  0  0  0  0  0  0  0  0  0
  -24.8615  -23.6581   20.7716 C   0  0  0  0  0  0  0  0  0  0  0  0
  -25.4640  -11.5924   21.8207 C   0  0  0  0  0  0  0  0  0  0  0  0
  -24.6532  -13.2258   20.2358 C   0  0  0  0  0  0  0  0  0  0  0  0
  -25.2981  -23.0118   21.9272 C   0  0  0  0  0  0  0  0  0  0  0  0
  -22.5490   -9.4332   22.0565 C   0  0  0  0  0  0  0  0  0  0  0  0
  -22.4823   -8.0416   21.9892 C   0  0  0  0  0  0  0  0  0  0  0  0
  -25.0498  -25.0682   23.1638 C   0  0  0  0  0  0  0  0  0  0  0  0
  -23.5756   -8.0934   19.8352 C   0  0  0  0  0  0  0  0  0  0  0  0
  -26.0244  -17.9148   22.7659 C   0  0  0  0  0  0  0  0  0  0  0  0
  -26.9528  -13.2961   20.9734 C   0  0  0  0  0  0  0  0  0  0  0  0
  -29.3188  -13.5923   20.0669 C   0  0  0  0  0  0  0  0  0  0  0  0
  -28.2392  -26.5622   15.5093 C   0  0  0  0  0  0  0  0  0  0  0  0
  -24.5256  -25.0193   20.8010 C   0  0  0  0  0  0  0  0  0  0  0  0
  -28.0808  -26.3943   16.8982 C   0  0  0  0  0  0  0  0  0  0  0  0
  -24.6068  -25.7288   22.0077 C   0  0  0  0  0  0  0  0  0  0  0  0
  -24.4272  -12.1134   21.0465 C   0  0  0  0  0  0  0  0  0  0  0  0
  -25.3950  -23.7175   23.1229 C   0  0  0  0  0  0  0  0  0  0  0  0
  -23.1288  -10.1550   21.0131 C   0  0  0  0  0  0  0  0  0  0  0  0
  -22.9957   -7.3717   20.8786 C   0  0  0  0  0  0  0  0  0  0  0  0
  -23.6422   -9.4851   19.9026 C   0  0  0  0  0  0  0  0  0  0  0  0
  -28.2568  -13.9077   20.9355 C   0  0  0  0  0  0  0  0  0  0  0  0
  -26.1900  -18.3358   24.0552 C   0  0  0  0  0  0  0  0  0  0  0  0
  -30.3278  -14.4494   20.4328 C   0  0  0  0  0  0  0  0  0  0  0  0
  -27.7323  -19.3225   22.8110 C   0  0  0  0  0  0  0  0  0  0  0  0
  -29.3871  -12.6124   19.0226 C   0  0  0  0  0  0  0  0  0  0  0  0
  -25.6323  -27.6341   19.3722 C   0  0  0  0  0  0  0  0  0  0  0  0
  -23.0853  -29.0296   20.8171 C   0  0  0  0  0  0  0  0  0  0  0  0
  -30.1526  -19.7685   23.0696 C   0  0  0  0  0  0  0  0  0  0  0  0
  -20.7983  -28.9681   23.3494 C   0  0  0  0  0  0  0  0  0  0  0  0
  -27.9518  -27.8785   14.8315 C   0  0  0  0  0  0  0  0  0  0  0  0
  -24.0309  -25.6952   19.5517 C   0  0  0  0  0  0  0  0  0  0  0  0
  -24.2387  -27.1865   22.0969 C   0  0  0  0  0  0  0  0  0  0  0  0
  -27.0896  -28.8194   15.6691 C   0  0  0  0  0  0  0  0  0  0  0  0
  -32.0249  -16.8597   24.1923 C   0  0  0  0  0  0  0  0  0  0  0  0
  -27.6037  -28.8794   17.1039 C   0  0  0  0  0  0  0  0  0  0  0  0
  -31.3385  -15.7363   23.4166 C   0  0  0  0  0  0  0  0  0  0  0  0
  -31.0331  -17.9441   24.6052 C   0  0  0  0  0  0  0  0  0  0  0  0
  -29.5692  -17.3947   22.6870 C   0  0  0  0  0  0  0  0  0  0  0  0
  -27.5338  -27.5014   17.7730 C   0  0  1  0  0  0  0  0  0  0  0  0
  -24.2062  -27.2104   19.5827 C   0  0  1  0  0  0  0  0  0  0  0  0
  -30.5407  -16.2955   22.2256 C   0  0  2  0  0  0  0  0  0  0  0  0
  -25.4428  -17.9935   25.2715 C   0  0  0  0  0  0  0  0  0  0  0  0
  -18.8666  -30.2639   24.2911 C   0  0  0  0  0  0  0  0  0  0  0  0
  -28.6258  -21.6631   22.6852 C   0  0  0  0  0  0  0  0  0  0  0  0
  -29.2495  -20.0794   20.8585 C   0  0  0  0  0  0  0  0  0  0  0  0
  -25.0286  -31.0642   21.9977 C   0  0  0  0  0  0  0  0  0  0  0  0
  -23.2464  -31.7142   23.6316 C   0  0  0  0  0  0  0  0  0  0  0  0
  -22.8701  -32.0322   21.1862 C   0  0  0  0  0  0  0  0  0  0  0  0
  -25.9190  -21.3996   26.3805 C   0  0  0  0  0  0  0  0  0  0  0  0
  -28.1703  -22.4056   26.1093 C   0  0  0  0  0  0  0  0  0  0  0  0
  -27.5876  -19.0699   26.5700 C   0  0  0  0  0  0  0  0  0  0  0  0
  -29.3756  -20.0293   25.2017 C   0  0  0  0  0  0  0  0  0  0  0  0
  -18.9299  -26.7117   22.9293 C   0  0  0  0  0  0  0  0  0  0  0  0
  -26.7358  -22.0062   24.0871 C   0  0  0  0  0  0  0  0  0  1  0  0
  -22.8449  -29.6953   22.1505 C   0  0  1  0  0  0  0  0  0  0  0  0
  -19.2909  -29.1472   23.3499 C   0  0  2  0  0  0  0  0  0  0  0  0
  -28.8752  -20.1606   22.3707 C   0  0  0  0  0  0  0  0  0  0  0  0
  -23.5064  -31.0995   22.2397 C   0  0  0  0  0  0  0  0  0  0  0  0
  -27.1694  -21.4113   25.4612 C   0  0  0  0  0  0  0  0  0  0  0  0
  -27.8205  -19.9439   25.2984 C   0  0  0  0  0  0  0  0  0  0  0  0
  -28.5627  -14.8884   21.7891 N   0  0  0  0  0  0  0  0  0  0  0  0
  -27.2539  -19.2055   24.0539 N   0  0  0  0  0  0  0  0  0  0  0  0
  -29.8284  -15.1967   21.4587 N   0  0  0  0  0  0  0  0  0  0  0  0
  -26.9919  -18.5413   22.0179 N   0  3  0  0  0  0  0  0  0  0  0  0
  -23.7664  -27.8045   20.8468 N   0  0  0  0  0  0  0  0  0  0  0  0
  -30.2740  -18.4310   23.4471 N   0  0  0  0  0  0  0  0  0  0  0  0
  -31.5846  -14.6292   19.9740 N   0  0  0  0  0  0  0  0  0  0  0  0
  -28.2600  -11.8157   18.7792 N   0  0  0  0  0  0  0  0  0  0  0  0
  -26.1764  -27.2039   18.1770 N   0  0  0  0  0  0  0  0  0  0  0  0
  -21.3995  -29.7019   22.3487 N   0  0  0  0  0  0  0  0  0  0  0  0
  -18.6199  -27.8884   23.7815 N   0  3  0  0  0  0  0  0  0  0  0  0
  -30.4227  -12.4369   18.3368 O   0  0  0  0  0  0  0  0  0  0  0  0
  -26.1967  -28.3031   20.2298 O   0  0  0  0  0  0  0  0  0  0  0  0
  -22.6772  -29.5731   19.7876 O   0  0  0  0  0  0  0  0  0  0  0  0
  -31.0142  -20.6272   23.2753 O   0  0  0  0  0  0  0  0  0  0  0  0
  -21.3843  -28.2521   24.1584 O   0  0  0  0  0  0  0  0  0  0  0  0
  -23.1950  -11.5365   21.0818 O   0  0  0  0  0  0  0  0  0  0  0  0
  -25.8215  -23.0893   24.2522 O   0  0  0  0  0  0  0  0  0  1  0  0
  -22.9330   -6.0352   20.8147 F   0  0  0  0  0  0  0  0  0  0  0  0
  -24.2015  -10.1730   18.8977 F   0  0  0  0  0  0  0  0  0  0  0  0
  1  2  1  0  0  0  0
  1  5  2  0  0  0  0
  2  6  2  0  0  0  0
  3  8  2  0  0  0  0
  3 16  1  0  0  0  0
  4  9  1  0  0  0  0
  4 16  2  0  0  0  0
  5 18  1  0  0  0  0
  6 20  1  0  0  0  0
  7 10  2  0  0  0  0
  7 19  1  0  0  0  0
  8 22  1  0  0  0  0
  9 22  2  0  0  0  0
 10 23  1  0  0  0  0
 11 12  2  0  0  0  0
 11 24  1  0  0  0  0
 12 25  1  0  0  0  0
 13 21  1  0  0  0  0
 13 23  2  0  0  0  0
 14 25  2  0  0  0  0
 14 26  1  0  0  0  0
 15 28  2  0  0  0  0
 15 70  1  0  0  0  0
 16 27  1  0  0  0  0
 17 27  1  0  0  0  0
 17 29  2  0  0  0  0
 17 31  1  0  0  0  0
 18 20  2  0  0  0  0
 18 36  1  0  0  0  0
 19 21  2  0  0  0  0
 19 37  1  0  0  0  0
 20 45  1  0  0  0  0
 21 38  1  0  0  0  0
 22 83  1  0  0  0  0
 23 84  1  0  0  0  0
 24 26  2  0  0  0  0
 24 83  1  0  0  0  0
 25 85  1  0  0  0  0
 26 86  1  0  0  0  0
 27 67  2  0  0  0  0
 28 48  1  0  0  0  0
 28 68  1  0  0  0  0
 29 69  1  0  0  0  0
 29 73  1  0  0  0  0
 30 63  1  0  0  0  0
 30 68  1  0  0  0  0
 30 70  2  0  0  0  0
 31 74  1  0  0  0  0
 31 78  2  0  0  0  0
 32 46  1  0  0  0  0
 32 75  1  0  0  0  0
 32 79  2  0  0  0  0
 33 61  1  0  0  0  0
 33 71  1  0  0  0  0
 33 80  2  0  0  0  0
 34 63  1  0  0  0  0
 34 72  1  0  0  0  0
 34 81  2  0  0  0  0
 35 62  1  0  0  0  0
 35 76  1  0  0  0  0
 35 82  2  0  0  0  0
 36 39  1  0  0  0  0
 37 46  1  0  0  0  0
 38 71  1  0  0  0  0
 39 41  1  0  0  0  0
 40 42  1  0  0  0  0
 40 43  1  0  0  0  0
 41 45  1  0  0  0  0
 42 47  1  0  0  0  0
 43 72  1  0  0  0  0
 44 47  1  0  0  0  0
 44 72  1  0  0  0  0
 45 75  1  0  0  0  0
 46 71  1  0  0  0  0
 47 69  1  0  0  0  0
 49 62  1  0  0  0  0
 50 63  1  0  0  0  0
 51 63  1  0  0  0  0
 52 64  1  0  0  0  0
 53 64  1  0  0  0  0
 54 64  1  0  0  0  0
 55 65  1  0  0  0  0
 56 65  1  0  0  0  0
 57 66  1  0  0  0  0
 58 66  1  0  0  0  0
 59 77  1  0  0  0  0
 60 65  1  0  0  0  0
 60 84  1  0  0  0  0
 61 64  1  0  0  0  0
 61 76  1  0  0  0  0
 62 77  1  0  0  0  0
 65 66  1  0  0  0  0
 66 68  1  0  0  0  0
 67 69  1  0  0  0  0
M  CHG  2  70   1  77   1
M  ISO  4  34 100  60 101  63 100  84 101
M  END
> <Batch ID>
0067

> <Smiles>
CNC(C)C(=O)NC(C(=O)N1Cc2cc([101O:1][101CH2:1]C(C)(C)C(C)(C)n3c(C)cnc3[100C:0](C)(C)[100C:0](=O)N3CCCC(n4nc(-c5ccc(Oc6ccc(F)cc6F)cc5)c(C(N)=O)c4N)C3)ccc2CC1C(=O)NC1CCCc2ccccc21)C(C)(C)C

> <Shape>
0.244

> <Color>
0.061

> <Negative vol penalty>
0.000

$$$$

  -OEChem-04052318123D

 85 93  0     1  0  0  0  0  0999 V2000
  -29.6553  -11.6938   19.6731 C   0  0  0  0  0  0  0  0  0  0  0  0
  -29.6683  -13.0622   19.4224 C   0  0  0  0  0  0  0  0  0  0  0  0
  -22.2731  -25.6307   21.5633 C   0  0  0  0  0  0  0  0  0  0  0  0
  -22.7971  -27.3370   23.1915 C   0  0  0  0  0  0  0  0  0  0  0  0
  -28.4458  -11.0401   19.9045 C   0  0  0  0  0  0  0  0  0  0  0  0
  -28.4714  -13.7775   19.4018 C   0  0  0  0  0  0  0  0  0  0  0  0
  -28.7792  -18.1524   21.9337 C   0  0  0  0  0  0  0  0  0  0  0  0
  -20.9157  -25.7728   21.8511 C   0  0  0  0  0  0  0  0  0  0  0  0
  -21.4397  -27.4792   23.4793 C   0  0  0  0  0  0  0  0  0  0  0  0
  -29.4166  -19.2147   21.2941 C   0  0  0  0  0  0  0  0  0  0  0  0
  -18.0844  -28.5469   24.3848 C   0  0  0  0  0  0  0  0  0  0  0  0
  -17.5748  -29.8411   24.4890 C   0  0  0  0  0  0  0  0  0  0  0  0
  -27.2687  -20.1370   20.6983 C   0  0  0  0  0  0  0  0  0  0  0  0
  -18.2361  -30.2851   22.2080 C   0  0  0  0  0  0  0  0  0  0  0  0
  -31.4811  -26.2865   17.4163 C   0  0  0  0  0  0  0  0  0  0  0  0
  -23.2139  -26.4127   22.2335 C   0  0  0  0  0  0  0  0  0  0  0  0
  -25.3575  -26.9653   20.9658 C   0  0  0  0  0  0  0  0  0  0  0  0
  -27.2344  -11.7495   19.8964 C   0  0  0  0  0  0  0  0  0  0  0  0
  -27.3795  -18.0686   21.9510 C   0  0  0  0  0  0  0  0  0  0  0  0
  -27.2444  -13.1324   19.6320 C   0  0  0  0  0  0  0  0  0  0  0  0
  -26.6159  -19.0740   21.3410 C   0  0  0  0  0  0  0  0  0  0  0  0
  -32.0206  -25.9500   20.0251 C   0  0  0  0  0  0  0  0  0  0  0  0
  -20.4990  -26.6971   22.8091 C   0  0  0  0  0  0  0  0  0  0  0  0
  -28.6615  -20.2057   20.6739 C   0  0  0  0  0  0  0  0  0  0  0  0
  -18.6698  -28.1217   23.1922 C   0  0  0  0  0  0  0  0  0  0  0  0
  -17.6507  -30.7102   23.4006 C   0  0  0  0  0  0  0  0  0  0  0  0
  -18.7456  -28.9908   22.1038 C   0  0  0  0  0  0  0  0  0  0  0  0
  -24.6162  -26.2660   21.9370 C   0  0  0  0  0  0  0  0  0  0  0  0
  -32.4724  -27.0445   19.3163 C   0  0  0  0  0  0  0  0  0  0  0  0
  -31.2734  -25.0399   19.3057 C   0  0  0  0  0  0  0  0  0  0  0  0
  -26.6317  -26.4655   21.0807 C   0  0  0  0  0  0  0  0  0  0  0  0
  -24.9324  -27.9764   20.0424 C   0  0  0  0  0  0  0  0  0  0  0  0
  -25.2428  -15.9928   20.8422 C   0  0  0  0  0  0  0  0  0  0  0  0
  -23.1505  -17.8870   22.4411 C   0  0  0  0  0  0  0  0  0  0  0  0
  -22.4407  -20.9560   23.7543 C   0  0  0  0  0  0  0  0  0  0  0  0
  -30.8129  -25.0818   24.6751 C   0  0  0  0  0  0  0  0  0  0  0  0
  -25.9476  -10.9910   20.1051 C   0  0  0  0  0  0  0  0  0  0  0  0
  -26.7067  -16.9304   22.6681 C   0  0  0  0  0  0  0  0  0  0  0  0
  -25.1101  -19.0411   21.3487 C   0  0  0  0  0  0  0  0  0  0  0  0
  -24.7584  -11.8888   20.4370 C   0  0  0  0  0  0  0  0  0  0  0  0
  -28.4062  -22.4762   23.6167 C   0  0  0  0  0  0  0  0  0  0  0  0
  -24.7101  -13.0829   19.4891 C   0  0  0  0  0  0  0  0  0  0  0  0
  -27.2407  -23.3006   23.0727 C   0  0  0  0  0  0  0  0  0  0  0  0
  -29.1808  -23.2305   24.6931 C   0  0  0  0  0  0  0  0  0  0  0  0
  -28.4938  -25.3966   23.7184 C   0  0  0  0  0  0  0  0  0  0  0  0
  -25.9693  -13.9473   19.6260 C   0  0  1  0  0  0  0  0  0  0  0  0
  -25.2839  -16.6746   22.1805 C   0  0  1  0  0  0  0  0  0  0  0  0
  -27.7208  -24.6834   22.5988 C   0  0  2  0  0  0  0  0  0  0  0  0
  -33.4222  -29.3584   19.1421 C   0  0  0  0  0  0  0  0  0  0  0  0
  -20.6372  -22.2105   24.9671 C   0  0  0  0  0  0  0  0  0  0  0  0
  -21.5674  -18.1180   19.8429 C   0  0  0  0  0  0  0  0  0  0  0  0
  -20.3679  -20.0815   20.8298 C   0  0  0  0  0  0  0  0  0  0  0  0
  -20.1675  -17.8352   21.8959 C   0  0  0  0  0  0  0  0  0  0  0  0
  -32.7695  -26.5104   24.2162 C   0  0  0  0  0  0  0  0  0  0  0  0
  -24.1945  -21.4548   26.0855 C   0  0  0  0  0  0  0  0  0  0  0  0
  -32.3196  -25.7635   21.4703 C   0  0  0  0  0  0  0  0  0  0  0  0
  -33.2910  -28.0965   19.9897 C   0  0  0  0  0  0  0  0  0  0  0  0
  -30.7255  -23.8040   19.9736 C   0  0  0  0  0  0  0  0  0  0  0  0
  -31.1975  -22.4970   19.3327 C   0  0  0  0  0  0  0  0  0  0  0  0
  -31.1499  -26.1267   22.3953 C   0  0  0  0  0  0  0  0  0  0  0  0
  -30.7080  -21.2537   20.0662 C   0  0  0  0  0  0  0  0  0  1  0  0
  -22.3398  -19.1130   22.0967 C   0  0  1  0  0  0  0  0  0  0  0  0
  -21.8968  -21.3704   25.1096 C   0  0  2  0  0  0  0  0  0  0  0  0
  -21.1390  -18.7868   21.1643 C   0  0  0  0  0  0  0  0  0  0  0  0
  -32.2204  -27.2451   18.0061 N   0  0  0  0  0  0  0  0  0  0  0  0
  -30.9833  -25.1772   17.9952 N   0  0  0  0  0  0  0  0  0  0  0  0
  -25.3577  -25.3886   22.6185 N   0  0  0  0  0  0  0  0  0  0  0  0
  -26.5781  -25.5333   22.0748 N   0  0  0  0  0  0  0  0  0  0  0  0
  -24.4989  -17.9046   22.0574 N   0  0  0  0  0  0  0  0  0  0  0  0
  -29.5876  -24.5581   24.2313 N   0  0  0  0  0  0  0  0  0  0  0  0
  -27.7814  -26.7369   20.4274 N   0  0  0  0  0  0  0  0  0  0  0  0
  -23.5882  -28.3731   20.0582 N   0  0  0  0  0  0  0  0  0  0  0  0
  -25.8896  -14.7720   20.8126 N   0  0  0  0  0  0  0  0  0  0  0  0
  -21.9615  -19.7224   23.3671 N   0  0  0  0  0  0  0  0  0  0  0  0
  -31.4896  -25.9507   23.8057 N   0  0  0  0  0  0  0  0  0  0  0  0
  -22.9122  -22.1683   25.8534 N   0  3  0  0  0  0  0  0  0  0  0  0
  -25.7175  -28.5005   19.2163 O   0  0  0  0  0  0  0  0  0  0  0  0
  -24.6656  -16.5335   19.9062 O   0  0  0  0  0  0  0  0  0  0  0  0
  -22.6091  -16.9513   23.0352 O   0  0  0  0  0  0  0  0  0  0  0  0
  -23.2106  -21.6581   23.1025 O   0  0  0  0  0  0  0  0  0  0  0  0
  -31.2803  -24.7820   25.7812 O   0  0  0  0  0  0  0  0  0  0  0  0
  -19.1745  -26.8362   23.0901 O   0  0  0  0  0  0  0  0  0  0  0  0
  -29.2811  -21.2433   20.0484 O   0  0  0  0  0  0  0  0  0  1  0  0
  -17.1599  -31.9526   23.5003 F   0  0  0  0  0  0  0  0  0  0  0  0
  -19.3059  -28.5876   20.9552 F   0  0  0  0  0  0  0  0  0  0  0  0
  1  2  1  0  0  0  0
  1  5  2  0  0  0  0
  2  6  2  0  0  0  0
  3  8  2  0  0  0  0
  3 16  1  0  0  0  0
  4  9  1  0  0  0  0
  4 16  2  0  0  0  0
  5 18  1  0  0  0  0
  6 20  1  0  0  0  0
  7 10  2  0  0  0  0
  7 19  1  0  0  0  0
  8 23  1  0  0  0  0
  9 23  2  0  0  0  0
 10 24  1  0  0  0  0
 11 12  2  0  0  0  0
 11 25  1  0  0  0  0
 12 26  1  0  0  0  0
 13 21  1  0  0  0  0
 13 24  2  0  0  0  0
 14 26  2  0  0  0  0
 14 27  1  0  0  0  0
 15 65  2  0  0  0  0
 15 66  1  0  0  0  0
 16 28  1  0  0  0  0
 17 28  1  0  0  0  0
 17 31  2  0  0  0  0
 17 32  1  0  0  0  0
 18 20  2  0  0  0  0
 18 37  1  0  0  0  0
 19 21  2  0  0  0  0
 19 38  1  0  0  0  0
 20 46  1  0  0  0  0
 21 39  1  0  0  0  0
 22 29  2  0  0  0  0
 22 30  1  0  0  0  0
 22 56  1  0  0  0  0
 23 82  1  0  0  0  0
 24 83  1  0  0  0  0
 25 27  2  0  0  0  0
 25 82  1  0  0  0  0
 26 84  1  0  0  0  0
 27 85  1  0  0  0  0
 28 67  2  0  0  0  0
 29 57  1  0  0  0  0
 29 65  1  0  0  0  0
 30 58  1  0  0  0  0
 30 66  2  0  0  0  0
 31 68  1  0  0  0  0
 31 71  1  0  0  0  0
 32 72  1  0  0  0  0
 32 77  2  0  0  0  0
 33 47  1  0  0  0  0
 33 73  1  0  0  0  0
 33 78  2  0  0  0  0
 34 62  1  0  0  0  0
 34 69  1  0  0  0  0
 34 79  2  0  0  0  0
 35 63  1  0  0  0  0
 35 74  1  0  0  0  0
 35 80  2  0  0  0  0
 36 70  1  0  0  0  0
 36 75  1  0  0  0  0
 36 81  2  0  0  0  0
 37 40  1  0  0  0  0
 38 47  1  0  0  0  0
 39 69  1  0  0  0  0
 40 42  1  0  0  0  0
 41 43  1  0  0  0  0
 41 44  1  0  0  0  0
 42 46  1  0  0  0  0
 43 48  1  0  0  0  0
 44 70  1  0  0  0  0
 45 48  1  0  0  0  0
 45 70  1  0  0  0  0
 46 73  1  0  0  0  0
 47 69  1  0  0  0  0
 48 68  1  0  0  0  0
 49 57  1  0  0  0  0
 50 63  1  0  0  0  0
 51 64  1  0  0  0  0
 52 64  1  0  0  0  0
 53 64  1  0  0  0  0
 54 75  1  0  0  0  0
 55 76  1  0  0  0  0
 56 60  1  0  0  0  0
 58 59  1  0  0  0  0
 59 61  1  0  0  0  0
 60 75  1  0  0  0  0
 61 83  1  0  0  0  0
 62 64  1  0  0  0  0
 62 74  1  0  0  0  0
 63 76  1  0  0  0  0
 67 68  1  0  0  0  0
M  CHG  1  76   1
M  ISO  4  36 100  61 101  75 100  83 101
M  END
> <Batch ID>
0067

> <Smiles>
CCc1ncnc(CC[101CH2:1][101O:1]c2ccc3c(c2)CN(C(=O)C(NC(=O)C(C)NC)C(C)(C)C)C(C(=O)NC2CCCc4ccccc42)C3)c1CC[100N:0](C)[100C:0](=O)N1CCCC(n2nc(-c3ccc(Oc4ccc(F)cc4F)cc3)c(C(N)=O)c2N)C1

> <Shape>
0.201

> <Color>
0.070

> <Negative vol penalty>
0.000

$$$$

  -OEChem-04052318123D

 87 95  0     1  0  0  0  0  0999 V2000
  -20.8359   -7.8387   22.1785 C   0  0  0  0  0  0  0  0  0  0  0  0
  -22.0764   -8.4121   21.9181 C   0  0  0  0  0  0  0  0  0  0  0  0
  -26.0390  -27.9390   18.9974 C   0  0  0  0  0  0  0  0  0  0  0  0
  -26.6377  -28.2573   21.3163 C   0  0  0  0  0  0  0  0  0  0  0  0
  -19.6739   -8.5931   22.0225 C   0  0  0  0  0  0  0  0  0  0  0  0
  -22.1554   -9.7402   21.5003 C   0  0  0  0  0  0  0  0  0  0  0  0
  -25.7851  -12.3219   23.9096 C   0  0  0  0  0  0  0  0  0  0  0  0
  -24.9831  -28.8382   19.1466 C   0  0  0  0  0  0  0  0  0  0  0  0
  -25.5819  -29.1566   21.4655 C   0  0  0  0  0  0  0  0  0  0  0  0
  -27.0982  -12.1186   23.4875 C   0  0  0  0  0  0  0  0  0  0  0  0
  -22.2300  -29.0159   21.8844 C   0  0  0  0  0  0  0  0  0  0  0  0
  -21.4267  -28.8901   23.0178 C   0  0  0  0  0  0  0  0  0  0  0  0
  -27.0001  -14.1661   22.2157 C   0  0  0  0  0  0  0  0  0  0  0  0
  -22.0197  -31.1345   23.6872 C   0  0  0  0  0  0  0  0  0  0  0  0
  -27.3756  -18.0118   19.9996 C   0  0  0  0  0  0  0  0  0  0  0  0
  -28.8829  -18.0301   18.3986 C   0  0  0  0  0  0  0  0  0  0  0  0
  -26.8662  -27.6485   20.0823 C   0  0  0  0  0  0  0  0  0  0  0  0
  -28.0175  -18.8561   19.0738 C   0  0  0  0  0  0  0  0  0  0  0  0
  -29.2789  -27.0157   19.5471 C   0  0  0  0  0  0  0  0  0  0  0  0
  -19.7393   -9.9339   21.6119 C   0  0  0  0  0  0  0  0  0  0  0  0
  -25.0648  -13.4451   23.4784 C   0  0  0  0  0  0  0  0  0  0  0  0
  -20.9930  -10.5129   21.3374 C   0  0  0  0  0  0  0  0  0  0  0  0
  -25.6788  -14.3827   22.6358 C   0  0  0  0  0  0  0  0  0  0  0  0
  -24.7546  -29.4470   20.3805 C   0  0  0  0  0  0  0  0  0  0  0  0
  -27.7050  -13.0392   22.6381 C   0  0  0  0  0  0  0  0  0  0  0  0
  -22.9282  -30.2010   21.6525 C   0  0  0  0  0  0  0  0  0  0  0  0
  -21.3216  -29.9494   23.9192 C   0  0  0  0  0  0  0  0  0  0  0  0
  -22.8230  -31.2603   22.5539 C   0  0  0  0  0  0  0  0  0  0  0  0
  -27.9567  -26.7192   19.9290 C   0  0  0  0  0  0  0  0  0  0  0  0
  -29.9178  -25.7998   19.5499 C   0  0  0  0  0  0  0  0  0  0  0  0
  -27.8392  -20.2946   18.8412 C   0  0  0  0  0  0  0  0  0  0  0  0
  -29.8761  -28.2772   19.2193 C   0  0  0  0  0  0  0  0  0  0  0  0
  -22.4132  -13.8946   21.7841 C   0  0  0  0  0  0  0  0  0  0  0  0
  -22.8908  -17.0005   22.5890 C   0  0  0  0  0  0  0  0  0  0  0  0
  -25.0745  -19.4431   23.5438 C   0  0  0  0  0  0  0  0  0  0  0  0
  -18.4529  -10.6954   21.4117 C   0  0  0  0  0  0  0  0  0  0  0  0
  -23.6581  -13.6638   23.9642 C   0  0  0  0  0  0  0  0  0  0  0  0
  -24.9556  -15.6154   22.1606 C   0  0  0  0  0  0  0  0  0  0  0  0
  -18.6469  -12.2071   21.3265 C   0  0  0  0  0  0  0  0  0  0  0  0
  -29.7975  -21.5039   21.6464 C   0  0  0  0  0  0  0  0  0  0  0  0
  -19.8023  -12.5451   20.3897 C   0  0  0  0  0  0  0  0  0  0  0  0
  -29.6487  -23.0179   21.4906 C   0  0  0  0  0  0  0  0  0  0  0  0
  -28.5170  -20.7758   21.2495 C   0  0  0  0  0  0  0  0  0  0  0  0
  -27.8882  -22.6076   19.7125 C   0  0  0  0  0  0  0  0  0  0  0  0
  -21.1213  -11.9578   20.9063 C   0  0  1  0  0  0  0  0  0  0  0  0
  -22.8458  -14.5769   23.0510 C   0  0  1  0  0  0  0  0  0  0  0  0
  -29.1637  -23.3873   20.0766 C   0  0  1  0  0  0  0  0  0  0  0  0
  -25.1773  -21.8906   24.0884 C   0  0  0  0  0  0  0  0  0  0  0  0
  -22.7221  -17.6667   19.6162 C   0  0  0  0  0  0  0  0  0  0  0  0
  -23.7559  -19.8890   20.1268 C   0  0  0  0  0  0  0  0  0  0  0  0
  -21.5469  -19.2861   21.1165 C   0  0  0  0  0  0  0  0  0  0  0  0
  -32.1626  -14.3073   17.3088 C   0  0  0  0  0  0  0  0  0  0  0  0
  -32.9806  -14.2917   19.6583 C   0  0  0  0  0  0  0  0  0  0  0  0
  -25.9986  -18.9086   26.3041 C   0  0  0  0  0  0  0  0  0  0  0  0
  -30.8598  -15.4940   19.1065 C   0  0  0  0  0  0  0  0  0  0  0  0
  -29.4375  -15.5286   18.5344 C   0  0  0  0  0  0  0  0  0  0  0  0
  -29.3404  -13.3574   20.9411 C   0  0  0  0  0  0  0  0  0  1  0  0
  -23.6401  -18.1601   21.9784 C   0  0  1  0  0  0  0  0  0  0  0  0
  -25.0009  -20.4861   24.6443 C   0  0  2  0  0  0  0  0  0  0  0  0
  -22.9295  -18.7264   20.7167 C   0  0  0  0  0  0  0  0  0  0  0  0
  -31.7062  -14.2289   18.7881 C   0  0  0  0  0  0  0  0  0  0  0  0
  -30.4100  -12.4651   20.3459 C   0  0  0  0  0  0  0  0  0  0  0  0
  -30.9867  -12.8632   18.9895 C   0  0  0  0  0  0  0  0  0  0  0  0
  -27.7972  -16.7468   19.9226 N   0  0  0  0  0  0  0  0  0  0  0  0
  -27.7656  -25.4172   20.1576 N   0  0  0  0  0  0  0  0  0  0  0  0
  -28.7131  -16.7898   18.9401 N   0  0  0  0  0  0  0  0  0  0  0  0
  -28.9761  -24.8847   19.9186 N   0  0  0  0  0  0  0  0  0  0  0  0
  -28.0931  -21.1700   19.9000 N   0  0  0  0  0  0  0  0  0  0  0  0
  -23.5799  -15.7814   22.6581 N   0  0  0  0  0  0  0  0  0  0  0  0
  -31.1877  -25.4350   19.2729 N   0  0  0  0  0  0  0  0  0  0  0  0
  -29.0766  -29.4274   19.2670 N   0  0  0  0  0  0  0  0  0  0  0  0
  -21.6445  -12.7646   21.9879 N   0  0  0  0  0  0  0  0  0  0  0  0
  -23.8254  -19.1349   23.0478 N   0  0  0  0  0  0  0  0  0  0  0  0
  -26.0658  -20.2450   25.6586 N   0  3  0  0  0  0  0  0  0  0  0  0
  -27.4840  -20.6212   17.7096 O   0  0  0  0  0  0  0  0  0  0  0  0
  -31.0787  -28.3792   18.8777 O   0  0  0  0  0  0  0  0  0  0  0  0
  -22.7505  -14.3600   20.7018 O   0  0  0  0  0  0  0  0  0  0  0  0
  -21.7392  -17.1719   22.9964 O   0  0  0  0  0  0  0  0  0  0  0  0
  -26.1345  -18.9537   23.1597 O   0  0  0  0  0  0  0  0  0  0  0  0
  -23.7246  -30.3247   20.5264 O   0  0  0  0  0  0  0  0  0  0  0  0
  -28.9863  -12.8428   22.2241 O   0  0  0  0  0  0  0  0  0  1  0  0
  -20.5489  -29.8289   25.0067 F   0  0  0  0  0  0  0  0  0  0  0  0
  -23.4904  -32.4017   22.3358 F   0  0  0  0  0  0  0  0  0  0  0  0
  -29.8620  -11.2212   20.1892 F   0  0  0  0  0  0  0  0  0  0  0  0
  -31.4152  -12.3131   21.2458 F   0  0  0  0  0  0  0  0  0  0  0  0
  -30.0029  -12.7287   18.0562 F   0  0  0  0  0  0  0  0  0  0  0  0
  -31.8995  -11.8821   18.6835 F   0  0  0  0  0  0  0  0  0  0  0  0
  1  2  1  0  0  0  0
  1  5  2  0  0  0  0
  2  6  2  0  0  0  0
  3  8  2  0  0  0  0
  3 17  1  0  0  0  0
  4  9  1  0  0  0  0
  4 17  2  0  0  0  0
  5 20  1  0  0  0  0
  6 22  1  0  0  0  0
  7 10  2  0  0  0  0
  7 21  1  0  0  0  0
  8 24  1  0  0  0  0
  9 24  2  0  0  0  0
 10 25  1  0  0  0  0
 11 12  2  0  0  0  0
 11 26  1  0  0  0  0
 12 27  1  0  0  0  0
 13 23  1  0  0  0  0
 13 25  2  0  0  0  0
 14 27  2  0  0  0  0
 14 28  1  0  0  0  0
 15 18  1  0  0  0  0
 15 64  2  0  0  0  0
 16 18  2  0  0  0  0
 16 66  1  0  0  0  0
 17 29  1  0  0  0  0
 18 31  1  0  0  0  0
 19 29  1  0  0  0  0
 19 30  2  0  0  0  0
 19 32  1  0  0  0  0
 20 22  2  0  0  0  0
 20 36  1  0  0  0  0
 21 23  2  0  0  0  0
 21 37  1  0  0  0  0
 22 45  1  0  0  0  0
 23 38  1  0  0  0  0
 24 80  1  0  0  0  0
 25 81  1  0  0  0  0
 26 28  2  0  0  0  0
 26 80  1  0  0  0  0
 27 82  1  0  0  0  0
 28 83  1  0  0  0  0
 29 65  2  0  0  0  0
 30 67  1  0  0  0  0
 30 70  1  0  0  0  0
 31 68  1  0  0  0  0
 31 75  2  0  0  0  0
 32 71  1  0  0  0  0
 32 76  2  0  0  0  0
 33 46  1  0  0  0  0
 33 72  1  0  0  0  0
 33 77  2  0  0  0  0
 34 58  1  0  0  0  0
 34 69  1  0  0  0  0
 34 78  2  0  0  0  0
 35 59  1  0  0  0  0
 35 73  1  0  0  0  0
 35 79  2  0  0  0  0
 36 39  1  0  0  0  0
 37 46  1  0  0  0  0
 38 69  1  0  0  0  0
 39 41  1  0  0  0  0
 40 42  1  0  0  0  0
 40 43  1  0  0  0  0
 41 45  1  0  0  0  0
 42 47  1  0  0  0  0
 43 68  1  0  0  0  0
 44 47  1  0  0  0  0
 44 68  1  0  0  0  0
 45 72  1  0  0  0  0
 46 69  1  0  0  0  0
 47 67  1  0  0  0  0
 48 59  1  0  0  0  0
 49 60  1  0  0  0  0
 50 60  1  0  0  0  0
 51 60  1  0  0  0  0
 52 61  1  0  0  0  0
 53 61  1  0  0  0  0
 54 74  1  0  0  0  0
 55 56  1  0  0  0  0
 55 61  1  0  0  0  0
 56 66  1  0  0  0  0
 57 62  1  0  0  0  0
 57 81  1  0  0  0  0
 58 60  1  0  0  0  0
 58 73  1  0  0  0  0
 59 74  1  0  0  0  0
 61 63  1  0  0  0  0
 62 63  1  0  0  0  0
 62 84  1  0  0  0  0
 62 85  1  0  0  0  0
 63 86  1  0  0  0  0
 63 87  1  0  0  0  0
 64 66  1  0  0  0  0
 65 67  1  0  0  0  0
M  CHG  1  74   1
M  ISO  4  18 100  31 100  57 101  81 101
M  END
> <Batch ID>
0067

> <Smiles>
CNC(C)C(=O)NC(C(=O)N1Cc2cc([101O:1][101CH2:1]C(F)(F)C(F)(F)C(C)(C)CCn3c[100c:0]([100C:0](=O)N4CCCC(n5nc(-c6ccc(Oc7ccc(F)cc7F)cc6)c(C(N)=O)c5N)C4)cn3)ccc2CC1C(=O)NC1CCCc2ccccc21)C(C)(C)C

> <Shape>
0.244

> <Color>
0.067

> <Negative vol penalty>
0.000

$$$$

  -OEChem-04052318123D

 83 91  0     1  0  0  0  0  0999 V2000
  -18.9966  -33.4961   21.1322 C   0  0  0  0  0  0  0  0  0  0  0  0
  -20.3148  -33.2179   20.7850 C   0  0  0  0  0  0  0  0  0  0  0  0
  -25.9563  -15.2520   22.4810 C   0  0  0  0  0  0  0  0  0  0  0  0
  -25.6045  -14.6190   20.1761 C   0  0  0  0  0  0  0  0  0  0  0  0
  -18.3896  -32.7985   22.1756 C   0  0  0  0  0  0  0  0  0  0  0  0
  -21.0271  -32.2425   21.4819 C   0  0  0  0  0  0  0  0  0  0  0  0
  -25.2527  -28.4388   19.2055 C   0  0  0  0  0  0  0  0  0  0  0  0
  -24.9614  -14.3586   22.8782 C   0  0  0  0  0  0  0  0  0  0  0  0
  -24.6096  -13.7256   20.5733 C   0  0  0  0  0  0  0  0  0  0  0  0
  -26.6464  -28.4758   19.2073 C   0  0  0  0  0  0  0  0  0  0  0  0
  -22.2270  -11.0150   21.0141 C   0  0  0  0  0  0  0  0  0  0  0  0
  -22.2347   -9.7407   20.4470 C   0  0  0  0  0  0  0  0  0  0  0  0
  -26.6756  -27.0515   21.1541 C   0  0  0  0  0  0  0  0  0  0  0  0
  -24.4421   -9.3526   21.3490 C   0  0  0  0  0  0  0  0  0  0  0  0
  -30.1974  -23.8547   17.6348 C   0  0  0  0  0  0  0  0  0  0  0  0
  -28.3841  -25.0923   17.7588 C   0  0  0  0  0  0  0  0  0  0  0  0
  -26.2778  -15.3822   21.1300 C   0  0  0  0  0  0  0  0  0  0  0  0
  -28.6807  -16.0402   20.5816 C   0  0  0  0  0  0  0  0  0  0  0  0
  -19.0918  -31.8073   22.8793 C   0  0  0  0  0  0  0  0  0  0  0  0
  -24.5586  -27.7156   20.1861 C   0  0  0  0  0  0  0  0  0  0  0  0
  -20.4293  -31.5319   22.5367 C   0  0  0  0  0  0  0  0  0  0  0  0
  -25.2731  -27.0049   21.1610 C   0  0  0  0  0  0  0  0  0  0  0  0
  -29.7405  -25.1437   17.9687 C   0  0  0  0  0  0  0  0  0  0  0  0
  -24.2881  -13.5954   21.9244 C   0  0  0  0  0  0  0  0  0  0  0  0
  -27.3580  -27.7845   20.1834 C   0  0  0  0  0  0  0  0  0  0  0  0
  -23.3269  -11.4582   21.7486 C   0  0  0  0  0  0  0  0  0  0  0  0
  -23.3422   -8.9095   20.6145 C   0  0  0  0  0  0  0  0  0  0  0  0
  -24.4345  -10.6270   21.9161 C   0  0  0  0  0  0  0  0  0  0  0  0
  -27.3049  -16.3053   20.7190 C   0  0  0  0  0  0  0  0  0  0  0  0
  -29.2210  -17.2341   20.1704 C   0  0  0  0  0  0  0  0  0  0  0  0
  -29.4054  -14.8235   20.8056 C   0  0  0  0  0  0  0  0  0  0  0  0
  -22.4850  -28.4621   22.4767 C   0  0  0  0  0  0  0  0  0  0  0  0
  -22.3231  -25.2428   22.8405 C   0  0  0  0  0  0  0  0  0  0  0  0
  -26.7935  -21.8109   17.2659 C   0  0  0  0  0  0  0  0  0  0  0  0
  -23.8163  -22.2019   22.4285 C   0  0  0  0  0  0  0  0  0  0  0  0
  -18.4087  -31.1128   24.0307 C   0  0  0  0  0  0  0  0  0  0  0  0
  -23.0557  -27.6639   20.1544 C   0  0  0  0  0  0  0  0  0  0  0  0
  -24.5758  -26.1969   22.2237 C   0  0  0  0  0  0  0  0  0  0  0  0
  -19.1122  -29.8325   24.4737 C   0  0  0  0  0  0  0  0  0  0  0  0
  -28.5425  -21.9548   20.4514 C   0  0  0  0  0  0  0  0  0  0  0  0
  -20.6143  -30.0654   24.6009 C   0  0  0  0  0  0  0  0  0  0  0  0
  -28.5199  -20.4879   20.8790 C   0  0  0  0  0  0  0  0  0  0  0  0
  -27.2677  -22.3418   19.7061 C   0  0  0  0  0  0  0  0  0  0  0  0
  -26.9495  -20.0065   18.9515 C   0  0  0  0  0  0  0  0  0  0  0  0
  -21.2270  -30.4636   23.2527 C   0  0  1  0  0  0  0  0  0  0  0  0
  -22.4411  -27.3155   21.5066 C   0  0  1  0  0  0  0  0  0  0  0  0
  -28.2309  -19.5679   19.6799 C   0  0  2  0  0  0  0  0  0  0  0  0
  -24.0512  -19.7034   22.4332 C   0  0  0  0  0  0  0  0  0  0  0  0
  -26.5647  -23.5052   15.4772 C   0  0  0  0  0  0  0  0  0  0  0  0
  -25.6478  -23.8953   17.7646 C   0  0  0  0  0  0  0  0  0  0  0  0
  -22.9520  -25.6707   25.7954 C   0  0  0  0  0  0  0  0  0  0  0  0
  -23.5116  -23.2357   25.9572 C   0  0  0  0  0  0  0  0  0  0  0  0
  -21.2006  -23.9443   25.3409 C   0  0  0  0  0  0  0  0  0  0  0  0
  -31.4623  -25.2275   20.5809 C   0  0  0  0  0  0  0  0  0  0  0  0
  -31.6553  -27.6876   20.2368 C   0  0  0  0  0  0  0  0  0  0  0  0
  -22.7360  -21.9789   19.6821 C   0  0  0  0  0  0  0  0  0  0  0  0
  -30.5561  -26.3200   18.4523 C   0  0  0  0  0  0  0  0  0  0  0  0
  -29.3958  -26.6750   20.7054 C   0  0  0  0  0  0  0  0  0  1  0  0
  -23.0708  -24.2208   23.6623 C   0  0  1  0  0  0  0  0  0  0  0  0
  -23.2969  -20.8933   21.8606 C   0  0  2  0  0  0  0  0  0  0  0  0
  -26.8270  -23.2908   16.9787 C   0  0  0  0  0  0  0  0  0  0  0  0
  -22.6971  -24.2846   25.1702 C   0  0  0  0  0  0  0  0  0  0  0  0
  -30.7493  -26.4597   19.9911 C   0  0  0  0  0  0  0  0  0  0  0  0
  -29.2113  -23.0436   17.2427 N   0  0  0  0  0  0  0  0  0  0  0  0
  -26.9908  -17.5685   20.4195 N   0  0  0  0  0  0  0  0  0  0  0  0
  -28.1212  -23.8249   17.3290 N   0  0  0  0  0  0  0  0  0  0  0  0
  -28.1768  -18.1078   20.0899 N   0  0  0  0  0  0  0  0  0  0  0  0
  -23.1052  -26.1825   22.1542 N   0  0  0  0  0  0  0  0  0  0  0  0
  -27.0131  -21.4251   18.5884 N   0  0  0  0  0  0  0  0  0  0  0  0
  -30.4827  -17.6114   19.8735 N   0  0  0  0  0  0  0  0  0  0  0  0
  -28.6953  -13.6906   21.2259 N   0  0  0  0  0  0  0  0  0  0  0  0
  -21.3884  -29.3000   22.4075 N   0  0  0  0  0  0  0  0  0  0  0  0
  -22.8145  -22.9277   23.0374 N   0  0  0  0  0  0  0  0  0  0  0  0
  -23.4475  -20.8760   20.3780 N   0  3  0  0  0  0  0  0  0  0  0  0
  -30.6482  -14.7477   20.6538 O   0  0  0  0  0  0  0  0  0  0  0  0
  -23.4423  -28.5772   23.2331 O   0  0  0  0  0  0  0  0  0  0  0  0
  -21.0907  -25.2042   22.8029 O   0  0  0  0  0  0  0  0  0  0  0  0
  -26.5811  -21.0227   16.3407 O   0  0  0  0  0  0  0  0  0  0  0  0
  -24.9937  -22.5440   22.3439 O   0  0  0  0  0  0  0  0  0  0  0  0
  -23.3175  -12.7233   22.3117 O   0  0  0  0  0  0  0  0  0  0  0  0
  -28.7184  -27.8194   20.1879 O   0  0  0  0  0  0  0  0  0  1  0  0
  -23.3488   -7.6852   20.0711 F   0  0  0  0  0  0  0  0  0  0  0  0
  -25.4936  -11.0467   22.6217 F   0  0  0  0  0  0  0  0  0  0  0  0
  1  2  1  0  0  0  0
  1  5  2  0  0  0  0
  2  6  2  0  0  0  0
  3  8  2  0  0  0  0
  3 17  1  0  0  0  0
  4  9  1  0  0  0  0
  4 17  2  0  0  0  0
  5 19  1  0  0  0  0
  6 21  1  0  0  0  0
  7 10  2  0  0  0  0
  7 20  1  0  0  0  0
  8 24  1  0  0  0  0
  9 24  2  0  0  0  0
 10 25  1  0  0  0  0
 11 12  2  0  0  0  0
 11 26  1  0  0  0  0
 12 27  1  0  0  0  0
 13 22  1  0  0  0  0
 13 25  2  0  0  0  0
 14 27  2  0  0  0  0
 14 28  1  0  0  0  0
 15 23  1  0  0  0  0
 15 64  2  0  0  0  0
 16 23  2  0  0  0  0
 16 66  1  0  0  0  0
 17 29  1  0  0  0  0
 18 29  1  0  0  0  0
 18 30  2  0  0  0  0
 18 31  1  0  0  0  0
 19 21  2  0  0  0  0
 19 36  1  0  0  0  0
 20 22  2  0  0  0  0
 20 37  1  0  0  0  0
 21 45  1  0  0  0  0
 22 38  1  0  0  0  0
 23 57  1  0  0  0  0
 24 80  1  0  0  0  0
 25 81  1  0  0  0  0
 26 28  2  0  0  0  0
 26 80  1  0  0  0  0
 27 82  1  0  0  0  0
 28 83  1  0  0  0  0
 29 65  2  0  0  0  0
 30 67  1  0  0  0  0
 30 70  1  0  0  0  0
 31 71  1  0  0  0  0
 31 75  2  0  0  0  0
 32 46  1  0  0  0  0
 32 72  1  0  0  0  0
 32 76  2  0  0  0  0
 33 59  1  0  0  0  0
 33 68  1  0  0  0  0
 33 77  2  0  0  0  0
 34 61  1  0  0  0  0
 34 69  1  0  0  0  0
 34 78  2  0  0  0  0
 35 60  1  0  0  0  0
 35 73  1  0  0  0  0
 35 79  2  0  0  0  0
 36 39  1  0  0  0  0
 37 46  1  0  0  0  0
 38 68  1  0  0  0  0
 39 41  1  0  0  0  0
 40 42  1  0  0  0  0
 40 43  1  0  0  0  0
 41 45  1  0  0  0  0
 42 47  1  0  0  0  0
 43 69  1  0  0  0  0
 44 47  1  0  0  0  0
 44 69  1  0  0  0  0
 45 72  1  0  0  0  0
 46 68  1  0  0  0  0
 47 67  1  0  0  0  0
 48 60  1  0  0  0  0
 49 61  1  0  0  0  0
 50 61  1  0  0  0  0
 51 62  1  0  0  0  0
 52 62  1  0  0  0  0
 53 62  1  0  0  0  0
 54 63  1  0  0  0  0
 55 63  1  0  0  0  0
 56 74  1  0  0  0  0
 57 63  1  0  0  0  0
 58 63  1  0  0  0  0
 58 81  1  0  0  0  0
 59 62  1  0  0  0  0
 59 73  1  0  0  0  0
 60 74  1  0  0  0  0
 61 66  1  0  0  0  0
 64 66  1  0  0  0  0
 65 67  1  0  0  0  0
M  CHG  1  74   1
M  ISO  4  34 100  58 101  61 100  81 101
M  END
> <Batch ID>
0067

> <Smiles>
CNC(C)C(=O)NC(C(=O)N1Cc2cc([101O:1][101CH2:1]C(C)(C)Cc3cnn([100C:0](C)(C)[100C:0](=O)N4CCCC(n5nc(-c6ccc(Oc7ccc(F)cc7F)cc6)c(C(N)=O)c5N)C4)c3)ccc2CC1C(=O)NC1CCCc2ccccc21)C(C)(C)C

> <Shape>
0.248

> <Color>
0.090

> <Negative vol penalty>
0.000

$$$$

  -OEChem-04052318123D

 84 92  0     1  0  0  0  0  0999 V2000
  -26.5120  -19.0301   25.6384 C   0  0  0  0  0  0  0  0  0  0  0  0
  -26.9645  -19.9330   24.6816 C   0  0  0  0  0  0  0  0  0  0  0  0
  -26.1063  -12.8642   20.7506 C   0  0  0  0  0  0  0  0  0  0  0  0
  -24.3431  -14.3157   19.9625 C   0  0  0  0  0  0  0  0  0  0  0  0
  -25.1464  -18.9134   25.8944 C   0  0  0  0  0  0  0  0  0  0  0  0
  -26.0515  -20.7190   23.9794 C   0  0  0  0  0  0  0  0  0  0  0  0
  -27.5119  -25.5558   23.6369 C   0  0  0  0  0  0  0  0  0  0  0  0
  -25.1541  -12.0060   21.3005 C   0  0  0  0  0  0  0  0  0  0  0  0
  -23.3909  -13.4575   20.5123 C   0  0  0  0  0  0  0  0  0  0  0  0
  -28.4901  -25.8601   22.6913 C   0  0  0  0  0  0  0  0  0  0  0  0
  -23.1745   -9.2471   22.5985 C   0  0  0  0  0  0  0  0  0  0  0  0
  -23.3384   -7.8777   22.3901 C   0  0  0  0  0  0  0  0  0  0  0  0
  -26.7802  -26.6557   21.1872 C   0  0  0  0  0  0  0  0  0  0  0  0
  -23.2108   -8.2258   20.0026 C   0  0  0  0  0  0  0  0  0  0  0  0
  -30.9893  -24.7667   18.2879 C   0  0  0  0  0  0  0  0  0  0  0  0
  -25.7009  -14.0191   20.0816 C   0  0  0  0  0  0  0  0  0  0  0  0
  -27.2240  -14.8571   18.2147 C   0  0  0  0  0  0  0  0  0  0  0  0
  -24.2169  -19.7053   25.2019 C   0  0  0  0  0  0  0  0  0  0  0  0
  -26.1572  -25.7894   23.3601 C   0  0  0  0  0  0  0  0  0  0  0  0
  -24.6721  -20.6119   24.2255 C   0  0  0  0  0  0  0  0  0  0  0  0
  -25.7869  -26.3558   22.1320 C   0  0  0  0  0  0  0  0  0  0  0  0
  -30.0910  -23.8068   17.8684 C   0  0  0  0  0  0  0  0  0  0  0  0
  -23.7964  -12.3026   21.1813 C   0  0  0  0  0  0  0  0  0  0  0  0
  -28.1241  -26.4074   21.4651 C   0  0  0  0  0  0  0  0  0  0  0  0
  -23.0287  -10.1059   21.5090 C   0  0  0  0  0  0  0  0  0  0  0  0
  -23.3566   -7.3670   21.0922 C   0  0  0  0  0  0  0  0  0  0  0  0
  -23.0469   -9.5952   20.2111 C   0  0  0  0  0  0  0  0  0  0  0  0
  -26.6841  -14.9063   19.5139 C   0  0  0  0  0  0  0  0  0  0  0  0
  -28.8264  -23.8935   18.4139 C   0  0  0  0  0  0  0  0  0  0  0  0
  -28.1077  -15.9077   18.1702 C   0  0  0  0  0  0  0  0  0  0  0  0
  -29.4218  -25.7186   19.6310 C   0  0  0  0  0  0  0  0  0  1  0  0
  -26.9512  -13.9435   17.1439 C   0  0  0  0  0  0  0  0  0  0  0  0
  -23.5695  -23.9596   23.1166 C   0  0  0  0  0  0  0  0  0  0  0  0
  -22.0548  -26.8140   22.8321 C   0  0  0  0  0  0  0  0  0  0  0  0
  -22.2345  -30.1190   22.0006 C   0  0  0  0  0  0  0  0  0  0  0  0
  -28.4668  -21.0643   21.1920 C   0  0  0  0  0  0  0  0  0  0  0  0
  -22.7474  -19.5100   25.4795 C   0  0  0  0  0  0  0  0  0  0  0  0
  -25.1164  -25.4805   24.4011 C   0  0  0  0  0  0  0  0  0  0  0  0
  -24.3480  -26.6448   21.7937 C   0  0  0  0  0  0  0  0  0  0  0  0
  -21.8727  -20.6473   24.9581 C   0  0  0  0  0  0  0  0  0  0  0  0
  -30.9558  -18.5269   20.9843 C   0  0  0  0  0  0  0  0  0  0  0  0
  -22.2633  -21.0090   23.5287 C   0  0  0  0  0  0  0  0  0  0  0  0
  -30.1919  -17.3068   20.4667 C   0  0  0  0  0  0  0  0  0  0  0  0
  -30.1049  -19.3624   21.9382 C   0  0  0  0  0  0  0  0  0  0  0  0
  -28.0300  -18.5523   20.8835 C   0  0  0  0  0  0  0  0  0  0  0  0
  -23.7145  -21.4997   23.4606 C   0  0  1  0  0  0  0  0  0  0  0  0
  -23.7230  -25.2824   23.8125 C   0  0  1  0  0  0  0  0  0  0  0  0
  -28.8279  -17.7090   19.8742 C   0  0  2  0  0  0  0  0  0  0  0  0
  -20.8241  -32.1878   21.8339 C   0  0  0  0  0  0  0  0  0  0  0  0
  -20.8108  -25.7553   20.2550 C   0  0  0  0  0  0  0  0  0  0  0  0
  -20.2083  -28.1114   19.6601 C   0  0  0  0  0  0  0  0  0  0  0  0
  -19.2486  -27.0597   21.7084 C   0  0  0  0  0  0  0  0  0  0  0  0
  -23.8848  -31.5454   24.0008 C   0  0  0  0  0  0  0  0  0  0  0  0
  -27.7718  -22.9074   18.0335 C   0  0  0  0  0  0  0  0  0  0  0  0
  -26.5024  -22.9653   18.9048 C   0  0  0  0  0  0  0  0  0  0  0  0
  -26.7371  -22.6481   20.3801 C   0  0  0  0  0  0  0  0  0  0  0  0
  -21.6889  -27.7200   21.6814 C   0  0  1  0  0  0  0  0  0  0  0  0
  -21.7493  -31.3659   22.7177 C   0  0  2  0  0  0  0  0  0  0  0  0
  -30.4853  -22.7583   16.8929 C   0  0  0  0  0  0  0  0  0  0  0  0
  -20.5162  -27.1545   20.8315 C   0  0  0  0  0  0  0  0  0  0  0  0
  -30.6874  -25.7408   19.1712 N   0  0  0  0  0  0  0  0  0  0  0  0
  -27.1830  -15.9086   20.2421 N   0  0  0  0  0  0  0  0  0  0  0  0
  -28.4561  -24.8400   19.3012 N   0  0  0  0  0  0  0  0  0  0  0  0
  -28.0459  -16.4990   19.3977 N   0  0  0  0  0  0  0  0  0  0  0  0
  -23.3667  -26.3194   22.8419 N   0  0  0  0  0  0  0  0  0  0  0  0
  -28.8259  -19.7120   21.3153 N   0  0  0  0  0  0  0  0  0  0  0  0
  -28.9237  -16.3741   17.2012 N   0  0  0  0  0  0  0  0  0  0  0  0
  -26.0156  -12.9224   17.3589 N   0  0  0  0  0  0  0  0  0  0  0  0
  -23.8084  -22.8664   23.9273 N   0  0  0  0  0  0  0  0  0  0  0  0
  -21.4271  -29.0324   22.2625 N   0  0  0  0  0  0  0  0  0  0  0  0
  -27.2414  -21.3083   20.5842 N   0  0  0  0  0  0  0  0  0  0  0  0
  -22.9054  -32.2203   23.1107 N   0  3  0  0  0  0  0  0  0  0  0  0
  -27.5324  -14.0202   16.0349 O   0  0  0  0  0  0  0  0  0  0  0  0
  -23.2560  -23.9328   21.9323 O   0  0  0  0  0  0  0  0  0  0  0  0
  -21.2100  -26.5603   23.6944 O   0  0  0  0  0  0  0  0  0  0  0  0
  -23.2281  -30.1106   21.2772 O   0  0  0  0  0  0  0  0  0  0  0  0
  -29.1875  -21.9862   21.5891 O   0  0  0  0  0  0  0  0  0  0  0  0
  -22.8669  -11.4653   21.7175 O   0  0  0  0  0  0  0  0  0  0  0  0
  -29.0769  -26.7048   20.5401 O   0  0  0  0  0  0  0  0  0  1  0  0
  -23.5155   -6.0522   20.8921 F   0  0  0  0  0  0  0  0  0  0  0  0
  -22.9085  -10.4154   19.1604 F   0  0  0  0  0  0  0  0  0  0  0  0
  -31.7857  -22.8504   16.4767 F   0  0  0  0  0  0  0  0  0  0  0  0
  -30.3603  -21.4826   17.3718 F   0  0  0  0  0  0  0  0  0  0  0  0
  -29.7375  -22.7890   15.7488 F   0  0  0  0  0  0  0  0  0  0  0  0
  1  2  1  0  0  0  0
  1  5  2  0  0  0  0
  2  6  2  0  0  0  0
  3  8  2  0  0  0  0
  3 16  1  0  0  0  0
  4  9  1  0  0  0  0
  4 16  2  0  0  0  0
  5 18  1  0  0  0  0
  6 20  1  0  0  0  0
  7 10  2  0  0  0  0
  7 19  1  0  0  0  0
  8 23  1  0  0  0  0
  9 23  2  0  0  0  0
 10 24  1  0  0  0  0
 11 12  2  0  0  0  0
 11 25  1  0  0  0  0
 12 26  1  0  0  0  0
 13 21  1  0  0  0  0
 13 24  2  0  0  0  0
 14 26  2  0  0  0  0
 14 27  1  0  0  0  0
 15 22  1  0  0  0  0
 15 61  2  0  0  0  0
 16 28  1  0  0  0  0
 17 28  1  0  0  0  0
 17 30  2  0  0  0  0
 17 32  1  0  0  0  0
 18 20  2  0  0  0  0
 18 37  1  0  0  0  0
 19 21  2  0  0  0  0
 19 38  1  0  0  0  0
 20 46  1  0  0  0  0
 21 39  1  0  0  0  0
 22 29  2  0  0  0  0
 22 59  1  0  0  0  0
 23 78  1  0  0  0  0
 24 79  1  0  0  0  0
 25 27  2  0  0  0  0
 25 78  1  0  0  0  0
 26 80  1  0  0  0  0
 27 81  1  0  0  0  0
 28 62  2  0  0  0  0
 29 54  1  0  0  0  0
 29 63  1  0  0  0  0
 30 64  1  0  0  0  0
 30 67  1  0  0  0  0
 31 61  1  0  0  0  0
 31 63  2  0  0  0  0
 31 79  1  0  0  0  0
 32 68  1  0  0  0  0
 32 73  2  0  0  0  0
 33 47  1  0  0  0  0
 33 69  1  0  0  0  0
 33 74  2  0  0  0  0
 34 57  1  0  0  0  0
 34 65  1  0  0  0  0
 34 75  2  0  0  0  0
 35 58  1  0  0  0  0
 35 70  1  0  0  0  0
 35 76  2  0  0  0  0
 36 66  1  0  0  0  0
 36 71  1  0  0  0  0
 36 77  2  0  0  0  0
 37 40  1  0  0  0  0
 38 47  1  0  0  0  0
 39 65  1  0  0  0  0
 40 42  1  0  0  0  0
 41 43  1  0  0  0  0
 41 44  1  0  0  0  0
 42 46  1  0  0  0  0
 43 48  1  0  0  0  0
 44 66  1  0  0  0  0
 45 48  1  0  0  0  0
 45 66  1  0  0  0  0
 46 69  1  0  0  0  0
 47 65  1  0  0  0  0
 48 64  1  0  0  0  0
 49 58  1  0  0  0  0
 50 60  1  0  0  0  0
 51 60  1  0  0  0  0
 52 60  1  0  0  0  0
 53 72  1  0  0  0  0
 54 55  1  0  0  0  0
 55 56  1  0  0  0  0
 56 71  1  0  0  0  0
 57 60  1  0  0  0  0
 57 70  1  0  0  0  0
 58 72  1  0  0  0  0
 59 82  1  0  0  0  0
 59 83  1  0  0  0  0
 59 84  1  0  0  0  0
 62 64  1  0  0  0  0
M  CHG  1  72   1
M  ISO  4  31 101  36 100  71 100  79 101
M  END
> <Batch ID>
0067

> <Smiles>
CNC(C)C(=O)NC(C(=O)N1Cc2cc([101O:1][101c:1]3ncc(C(F)(F)F)c(CCC[100NH:0][100C:0](=O)N4CCCC(n5nc(-c6ccc(Oc7ccc(F)cc7F)cc6)c(C(N)=O)c5N)C4)n3)ccc2CC1C(=O)NC1CCCc2ccccc21)C(C)(C)C

> <Shape>
0.238

> <Color>
0.068

> <Negative vol penalty>
0.000

$$$$

  -OEChem-04052318123D

 89 97  0     1  0  0  0  0  0999 V2000
  -18.6024  -23.5537   23.4851 C   0  0  0  0  0  0  0  0  0  0  0  0
  -19.9289  -23.4719   23.0736 C   0  0  0  0  0  0  0  0  0  0  0  0
  -24.1500   -9.8913   22.0800 C   0  0  0  0  0  0  0  0  0  0  0  0
  -22.9268  -10.3007   20.0372 C   0  0  0  0  0  0  0  0  0  0  0  0
  -17.9308  -24.7743   23.4306 C   0  0  0  0  0  0  0  0  0  0  0  0
  -20.5841  -24.6106   22.6062 C   0  0  0  0  0  0  0  0  0  0  0  0
  -25.2464  -25.0936   24.5232 C   0  0  0  0  0  0  0  0  0  0  0  0
  -23.4217   -8.7189   22.2812 C   0  0  0  0  0  0  0  0  0  0  0  0
  -22.1984   -9.1282   20.2384 C   0  0  0  0  0  0  0  0  0  0  0  0
  -26.2483  -24.2984   23.9688 C   0  0  0  0  0  0  0  0  0  0  0  0
  -20.3571   -7.8545   23.4150 C   0  0  0  0  0  0  0  0  0  0  0  0
  -19.8610   -7.6124   24.6959 C   0  0  0  0  0  0  0  0  0  0  0  0
  -26.9973  -26.1730   22.6483 C   0  0  0  0  0  0  0  0  0  0  0  0
  -21.1367   -5.5634   24.8027 C   0  0  0  0  0  0  0  0  0  0  0  0
  -26.7450  -22.1302   19.7408 C   0  0  0  0  0  0  0  0  0  0  0  0
  -27.0298  -20.1650   20.6964 C   0  0  0  0  0  0  0  0  0  0  0  0
  -23.9025  -10.6823   20.9580 C   0  0  0  0  0  0  0  0  0  0  0  0
  -25.8681  -12.0316   20.0504 C   0  0  0  0  0  0  0  0  0  0  0  0
  -18.5811  -25.9305   22.9715 C   0  0  0  0  0  0  0  0  0  0  0  0
  -25.1053  -26.4339   24.1356 C   0  0  0  0  0  0  0  0  0  0  0  0
  -19.9201  -25.8476   22.5442 C   0  0  0  0  0  0  0  0  0  0  0  0
  -25.9943  -26.9839   23.2012 C   0  0  0  0  0  0  0  0  0  0  0  0
  -22.4459   -8.3373   21.3604 C   0  0  0  0  0  0  0  0  0  0  0  0
  -27.1221  -24.8372   23.0291 C   0  0  0  0  0  0  0  0  0  0  0  0
  -21.2429   -6.9510   22.8278 C   0  0  0  0  0  0  0  0  0  0  0  0
  -20.2508   -6.4669   25.3898 C   0  0  0  0  0  0  0  0  0  0  0  0
  -21.6327   -5.8055   23.5217 C   0  0  0  0  0  0  0  0  0  0  0  0
  -24.6542  -11.8938   20.7499 C   0  0  0  0  0  0  0  0  0  0  0  0
  -27.9703  -22.0443   20.3587 C   0  0  0  0  0  0  0  0  0  0  0  0
  -26.1657  -13.3695   20.1393 C   0  0  0  0  0  0  0  0  0  0  0  0
  -26.6561  -11.0389   19.3801 C   0  0  0  0  0  0  0  0  0  0  0  0
  -22.8190  -28.1317   22.7234 C   0  0  0  0  0  0  0  0  0  0  0  0
  -24.8039  -30.6148   23.3692 C   0  0  0  0  0  0  0  0  0  0  0  0
  -27.9777  -31.6981   24.0017 C   0  0  0  0  0  0  0  0  0  0  0  0
  -22.9391  -18.1478   20.7432 C   0  0  0  0  0  0  0  0  0  0  0  0
  -17.7995  -27.2176   22.8862 C   0  0  0  0  0  0  0  0  0  0  0  0
  -24.0361  -27.2858   24.7628 C   0  0  0  0  0  0  0  0  0  0  0  0
  -25.8980  -28.4227   22.7664 C   0  0  0  0  0  0  0  0  0  0  0  0
  -18.6793  -28.4553   22.7308 C   0  0  0  0  0  0  0  0  0  0  0  0
  -25.5234  -17.1795   22.9468 C   0  0  0  0  0  0  0  0  0  0  0  0
  -19.7446  -28.2225   21.6641 C   0  0  0  0  0  0  0  0  0  0  0  0
  -25.7091  -15.7107   22.5686 C   0  0  0  0  0  0  0  0  0  0  0  0
  -24.0493  -17.5886   22.9560 C   0  0  0  0  0  0  0  0  0  0  0  0
  -23.5208  -15.8104   21.3185 C   0  0  0  0  0  0  0  0  0  0  0  0
  -20.6726  -27.0658   22.0545 C   0  0  1  0  0  0  0  0  0  0  0  0
  -23.6614  -28.4962   23.9131 C   0  0  1  0  0  0  0  0  0  0  0  0
  -24.9965  -15.3895   21.2435 C   0  0  2  0  0  0  0  0  0  0  0  0
  -30.6451  -23.0076   16.8113 C   0  0  0  0  0  0  0  0  0  0  0  0
  -29.2932  -33.7873   24.4511 C   0  0  0  0  0  0  0  0  0  0  0  0
  -24.8290  -20.3766   17.9843 C   0  0  0  0  0  0  0  0  0  0  0  0
  -30.3311  -22.6566   21.2237 C   0  0  0  0  0  0  0  0  0  0  0  0
  -24.6454  -31.3479   20.4116 C   0  0  0  0  0  0  0  0  0  0  0  0
  -26.6620  -32.7961   20.7341 C   0  0  0  0  0  0  0  0  0  0  0  0
  -24.5573  -33.2973   21.9758 C   0  0  0  0  0  0  0  0  0  0  0  0
  -23.9675  -21.9757   21.4867 C   0  0  0  0  0  0  0  0  0  0  0  0
  -23.3177  -22.5348   19.1539 C   0  0  0  0  0  0  0  0  0  0  0  0
  -21.9190  -19.6091   22.5401 C   0  0  0  0  0  0  0  0  0  0  0  0
  -28.8344  -30.7252   26.6623 C   0  0  0  0  0  0  0  0  0  0  0  0
  -30.1600  -22.4541   18.1439 C   0  0  0  0  0  0  0  0  0  0  0  0
  -29.5233  -23.5557   19.0028 C   0  0  0  0  0  0  0  0  0  0  0  0
  -22.3602  -20.4995   20.2821 C   0  0  0  0  0  0  0  0  0  0  0  0
  -28.5127  -24.3753   21.1559 C   0  0  0  0  0  0  0  0  0  1  0  0
  -25.9423  -31.2902   22.6434 C   0  0  1  0  0  0  0  0  0  0  0  0
  -28.5319  -32.6247   25.0688 C   0  0  2  0  0  0  0  0  0  0  0  0
  -24.8442  -20.5113   19.5195 C   0  0  2  0  0  0  0  0  0  0  0  0
  -29.0774  -23.1152   20.4362 C   0  0  1  0  0  0  0  0  0  0  0  0
  -25.4526  -32.1552   21.4478 C   0  0  0  0  0  0  0  0  0  0  0  0
  -23.6448  -21.3585   20.1078 C   0  0  0  0  0  0  0  0  0  0  0  0
  -28.1416  -20.8184   20.9514 N   0  0  0  0  0  0  0  0  0  0  0  0
  -24.2111  -13.0518   21.2467 N   0  0  0  0  0  0  0  0  0  0  0  0
  -26.1542  -20.9187   19.9653 N   0  0  0  0  0  0  0  0  0  0  0  0
  -25.1516  -13.9299   20.8589 N   0  0  0  0  0  0  0  0  0  0  0  0
  -24.8320  -29.2134   23.4037 N   0  0  0  0  0  0  0  0  0  0  0  0
  -23.3961  -17.2214   21.6921 N   0  0  0  0  0  0  0  0  0  0  0  0
  -27.1933  -14.1095   19.6714 N   0  0  0  0  0  0  0  0  0  0  0  0
  -26.2048   -9.7121   19.3853 N   0  0  0  0  0  0  0  0  0  0  0  0
  -21.6328  -27.5007   23.0461 N   0  0  0  0  0  0  0  0  0  0  0  0
  -26.6865  -32.0341   23.6539 N   0  0  0  0  0  0  0  0  0  0  0  0
  -22.5071  -19.3948   21.2193 N   0  0  0  0  0  0  0  0  0  0  0  0
  -29.4581  -31.8820   25.9696 N   0  3  0  0  0  0  0  0  0  0  0  0
  -27.7371  -11.3174   18.8079 O   0  0  0  0  0  0  0  0  0  0  0  0
  -23.2152  -28.4042   21.5963 O   0  0  0  0  0  0  0  0  0  0  0  0
  -23.9260  -31.3053   23.8927 O   0  0  0  0  0  0  0  0  0  0  0  0
  -28.6268  -30.7713   23.5218 O   0  0  0  0  0  0  0  0  0  0  0  0
  -22.9104  -17.8740   19.5364 O   0  0  0  0  0  0  0  0  0  0  0  0
  -21.7352   -7.1932   21.5563 O   0  0  0  0  0  0  0  0  0  0  0  0
  -28.1006  -24.0630   22.4859 O   0  0  0  0  0  0  0  0  0  1  0  0
  -19.7755   -6.2353   26.6205 F   0  0  0  0  0  0  0  0  0  0  0  0
  -22.4844   -4.9345   22.9633 F   0  0  0  0  0  0  0  0  0  0  0  0
  1  2  1  0  0  0  0
  1  5  2  0  0  0  0
  2  6  2  0  0  0  0
  3  8  2  0  0  0  0
  3 17  1  0  0  0  0
  4  9  1  0  0  0  0
  4 17  2  0  0  0  0
  5 19  1  0  0  0  0
  6 21  1  0  0  0  0
  7 10  2  0  0  0  0
  7 20  1  0  0  0  0
  8 23  1  0  0  0  0
  9 23  2  0  0  0  0
 10 24  1  0  0  0  0
 11 12  2  0  0  0  0
 11 25  1  0  0  0  0
 12 26  1  0  0  0  0
 13 22  1  0  0  0  0
 13 24  2  0  0  0  0
 14 26  2  0  0  0  0
 14 27  1  0  0  0  0
 15 29  2  0  0  0  0
 15 71  1  0  0  0  0
 16 69  2  0  0  0  0
 16 71  1  0  0  0  0
 17 28  1  0  0  0  0
 18 28  1  0  0  0  0
 18 30  2  0  0  0  0
 18 31  1  0  0  0  0
 19 21  2  0  0  0  0
 19 36  1  0  0  0  0
 20 22  2  0  0  0  0
 20 37  1  0  0  0  0
 21 45  1  0  0  0  0
 22 38  1  0  0  0  0
 23 86  1  0  0  0  0
 24 87  1  0  0  0  0
 25 27  2  0  0  0  0
 25 86  1  0  0  0  0
 26 88  1  0  0  0  0
 27 89  1  0  0  0  0
 28 70  2  0  0  0  0
 29 66  1  0  0  0  0
 29 69  1  0  0  0  0
 30 72  1  0  0  0  0
 30 75  1  0  0  0  0
 31 76  1  0  0  0  0
 31 81  2  0  0  0  0
 32 46  1  0  0  0  0
 32 77  1  0  0  0  0
 32 82  2  0  0  0  0
 33 63  1  0  0  0  0
 33 73  1  0  0  0  0
 33 83  2  0  0  0  0
 34 64  1  0  0  0  0
 34 78  1  0  0  0  0
 34 84  2  0  0  0  0
 35 74  1  0  0  0  0
 35 79  1  0  0  0  0
 35 85  2  0  0  0  0
 36 39  1  0  0  0  0
 37 46  1  0  0  0  0
 38 73  1  0  0  0  0
 39 41  1  0  0  0  0
 40 42  1  0  0  0  0
 40 43  1  0  0  0  0
 41 45  1  0  0  0  0
 42 47  1  0  0  0  0
 43 74  1  0  0  0  0
 44 47  1  0  0  0  0
 44 74  1  0  0  0  0
 45 77  1  0  0  0  0
 46 73  1  0  0  0  0
 47 72  1  0  0  0  0
 48 59  1  0  0  0  0
 49 64  1  0  0  0  0
 50 65  1  0  0  0  0
 51 66  1  0  0  0  0
 52 67  1  0  0  0  0
 53 67  1  0  0  0  0
 54 67  1  0  0  0  0
 55 68  1  0  0  0  0
 56 68  1  0  0  0  0
 57 79  1  0  0  0  0
 58 80  1  0  0  0  0
 59 60  1  0  0  0  0
 60 66  1  0  0  0  0
 61 68  1  0  0  0  0
 61 79  1  0  0  0  0
 62 66  1  0  0  0  0
 62 87  1  0  0  0  0
 63 67  1  0  0  0  0
 63 78  1  0  0  0  0
 64 80  1  0  0  0  0
 65 68  1  0  0  0  0
 65 71  1  0  0  0  0
 70 72  1  0  0  0  0
M  CHG  1  80   1
M  ISO  4  35 100  62 101  79 100  87 101
M  END
> <Batch ID>
0067

> <Smiles>
CCCC(C)(c1cn(C(C)C(C)(C)C[100N:0](C)[100C:0](=O)N2CCCC(n3nc(-c4ccc(Oc5ccc(F)cc5F)cc4)c(C(N)=O)c3N)C2)cn1)[101CH2:1][101O:1]c1ccc2c(c1)CN(C(=O)C(NC(=O)C(C)NC)C(C)(C)C)C(C(=O)NC1CCCc3ccccc31)C2

> <Shape>
0.272

> <Color>
0.077

> <Negative vol penalty>
0.000

$$$$

  -OEChem-04052318123D

 89 97  0     1  0  0  0  0  0999 V2000
  -32.3273  -13.9808   19.7309 C   0  0  0  0  0  0  0  0  0  0  0  0
  -31.6338  -15.1523   20.0175 C   0  0  0  0  0  0  0  0  0  0  0  0
  -31.3025  -25.0831   19.4558 C   0  0  0  0  0  0  0  0  0  0  0  0
  -29.4697  -24.4945   17.9958 C   0  0  0  0  0  0  0  0  0  0  0  0
  -31.6269  -12.8111   19.4392 C   0  0  0  0  0  0  0  0  0  0  0  0
  -30.2394  -15.1550   20.0114 C   0  0  0  0  0  0  0  0  0  0  0  0
  -26.5483  -18.4111   23.6555 C   0  0  0  0  0  0  0  0  0  0  0  0
  -31.8625  -23.8205   19.2620 C   0  0  0  0  0  0  0  0  0  0  0  0
  -30.0298  -23.2318   17.8019 C   0  0  0  0  0  0  0  0  0  0  0  0
  -25.8645  -19.6113   23.4667 C   0  0  0  0  0  0  0  0  0  0  0  0
  -30.2189  -20.3053   19.4844 C   0  0  0  0  0  0  0  0  0  0  0  0
  -29.3687  -19.2017   19.5534 C   0  0  0  0  0  0  0  0  0  0  0  0
  -23.8806  -18.3789   22.8629 C   0  0  0  0  0  0  0  0  0  0  0  0
  -29.9371  -18.6215   17.2780 C   0  0  0  0  0  0  0  0  0  0  0  0
  -22.7136  -26.6366   19.3181 C   0  0  0  0  0  0  0  0  0  0  0  0
  -30.1060  -25.4201   18.8228 C   0  0  0  0  0  0  0  0  0  0  0  0
  -29.7608  -27.8845   18.2611 C   0  0  0  0  0  0  0  0  0  0  0  0
  -30.2232  -12.7971   19.4390 C   0  0  0  0  0  0  0  0  0  0  0  0
  -25.9055  -17.1839   23.4384 C   0  0  0  0  0  0  0  0  0  0  0  0
  -29.5196  -13.9843   19.7181 C   0  0  0  0  0  0  0  0  0  0  0  0
  -24.5578  -17.1645   23.0521 C   0  0  0  0  0  0  0  0  0  0  0  0
  -21.9111  -25.5382   19.5075 C   0  0  0  0  0  0  0  0  0  0  0  0
  -31.2262  -22.8948   18.4350 C   0  0  0  0  0  0  0  0  0  0  0  0
  -24.5312  -19.5954   23.0676 C   0  0  0  0  0  0  0  0  0  0  0  0
  -30.9282  -20.5670   18.3121 C   0  0  0  0  0  0  0  0  0  0  0  0
  -29.2278  -18.3598   18.4503 C   0  0  0  0  0  0  0  0  0  0  0  0
  -30.7873  -19.7251   17.2090 C   0  0  0  0  0  0  0  0  0  0  0  0
  -29.5267  -26.7241   19.0231 C   0  0  0  0  0  0  0  0  0  0  0  0
  -21.4887  -25.6375   20.8467 C   0  0  0  0  0  0  0  0  0  0  0  0
  -28.9794  -28.8469   18.8524 C   0  0  0  0  0  0  0  0  0  0  0  0
  -30.6086  -28.0752   17.1207 C   0  0  0  0  0  0  0  0  0  0  0  0
  -26.3461  -14.7413   21.4527 C   0  0  0  0  0  0  0  0  0  0  0  0
  -24.0014  -28.4764   22.1981 C   0  0  0  0  0  0  0  0  0  0  0  0
  -23.9849  -13.3866   23.2168 C   0  0  0  0  0  0  0  0  0  0  0  0
  -21.2928  -13.8151   25.2700 C   0  0  0  0  0  0  0  0  0  0  0  0
  -29.5100  -11.5200   19.0714 C   0  0  0  0  0  0  0  0  0  0  0  0
  -26.6495  -15.8977   23.6723 C   0  0  0  0  0  0  0  0  0  0  0  0
  -23.8162  -15.8733   22.8255 C   0  0  0  0  0  0  0  0  0  0  0  0
  -28.0320  -11.5161   19.4533 C   0  0  0  0  0  0  0  0  0  0  0  0
  -27.0875  -30.0795   23.0619 C   0  0  0  0  0  0  0  0  0  0  0  0
  -27.3684  -12.8234   19.0322 C   0  0  0  0  0  0  0  0  0  0  0  0
  -28.0898  -29.4850   22.0734 C   0  0  0  0  0  0  0  0  0  0  0  0
  -26.0373  -29.0539   23.4771 C   0  0  0  0  0  0  0  0  0  0  0  0
  -26.3093  -27.8365   21.3403 C   0  0  0  0  0  0  0  0  0  0  0  0
  -28.0070  -14.0211   19.7457 C   0  0  1  0  0  0  0  0  0  0  0  0
  -26.0449  -14.7133   22.9245 C   0  0  1  0  0  0  0  0  0  0  0  0
  -27.3697  -28.8485   20.8714 C   0  0  2  0  0  0  0  0  0  0  0  0
  -19.5439  -12.5216   26.5211 C   0  0  0  0  0  0  0  0  0  0  0  0
  -22.2587  -24.7616   17.1364 C   0  0  0  0  0  0  0  0  0  0  0  0
  -20.0329  -24.4147   18.2597 C   0  0  0  0  0  0  0  0  0  0  0  0
  -21.9951  -23.0284   18.8995 C   0  0  0  0  0  0  0  0  0  0  0  0
  -22.2208  -29.9990   19.0362 C   0  0  0  0  0  0  0  0  0  0  0  0
  -21.3904  -29.9205   21.3921 C   0  0  0  0  0  0  0  0  0  0  0  0
  -23.5326  -31.0735   20.8693 C   0  0  0  0  0  0  0  0  0  0  0  0
  -22.4964  -12.8754   20.6027 C   0  0  0  0  0  0  0  0  0  0  0  0
  -20.4199  -12.4780   21.9438 C   0  0  0  0  0  0  0  0  0  0  0  0
  -22.4000  -10.9908   22.2439 C   0  0  0  0  0  0  0  0  0  0  0  0
  -22.2067  -14.8767   27.8771 C   0  0  0  0  0  0  0  0  0  0  0  0
  -20.5848  -24.6968   21.6031 C   0  0  0  0  0  0  0  0  0  0  0  0
  -21.2082  -24.1365   22.8865 C   0  0  0  0  0  0  0  0  0  0  0  0
  -22.4497  -23.2780   22.6245 C   0  0  0  0  0  0  0  0  0  0  0  0
  -23.0545  -22.7668   23.9309 C   0  0  0  0  0  0  0  0  0  0  0  0
  -24.2643  -21.8779   23.6797 C   0  0  0  0  0  0  0  0  0  1  0  0
  -23.4326  -28.5233   20.8023 C   0  0  2  0  0  0  0  0  0  0  0  0
  -22.4776  -13.3536   23.1398 C   0  0  1  0  0  0  0  0  0  0  0  0
  -20.9197  -13.1659   26.5905 C   0  0  2  0  0  0  0  0  0  0  0  0
  -21.5758  -24.4967   18.5219 C   0  0  0  0  0  0  0  0  0  0  0  0
  -22.6565  -29.8537   20.5066 C   0  0  0  0  0  0  0  0  0  0  0  0
  -21.9627  -12.4490   21.9848 C   0  0  0  0  0  0  0  0  0  0  0  0
  -28.6643  -26.9287   20.0223 N   0  0  0  0  0  0  0  0  0  0  0  0
  -21.9822  -26.7140   21.4645 N   0  0  0  0  0  0  0  0  0  0  0  0
  -22.7230  -27.3011   20.5092 N   0  0  0  0  0  0  0  0  0  0  0  0
  -28.3497  -28.2288   19.8923 N   0  0  0  0  0  0  0  0  0  0  0  0
  -24.5887  -14.6423   23.0611 N   0  0  0  0  0  0  0  0  0  0  0  0
  -25.3920  -28.4562   22.3068 N   0  0  0  0  0  0  0  0  0  0  0  0
  -28.7766  -30.1533   18.5791 N   0  0  0  0  0  0  0  0  0  0  0  0
  -31.3419  -26.9806   16.6427 N   0  0  0  0  0  0  0  0  0  0  0  0
  -27.5273  -14.1123   21.1081 N   0  0  0  0  0  0  0  0  0  0  0  0
  -22.0098  -12.9568   24.4635 N   0  0  0  0  0  0  0  0  0  0  0  0
  -20.9089  -14.1807   27.6819 N   0  3  0  0  0  0  0  0  0  0  0  0
  -30.7253  -29.1875   16.5527 O   0  0  0  0  0  0  0  0  0  0  0  0
  -25.5639  -15.2913   20.6863 O   0  0  0  0  0  0  0  0  0  0  0  0
  -23.2313  -28.4611   23.1619 O   0  0  0  0  0  0  0  0  0  0  0  0
  -24.6033  -12.3378   23.4150 O   0  0  0  0  0  0  0  0  0  0  0  0
  -20.9764  -14.9671   24.9812 O   0  0  0  0  0  0  0  0  0  0  0  0
  -31.7725  -21.6626   18.2454 O   0  0  0  0  0  0  0  0  0  0  0  0
  -23.8616  -20.7654   22.8820 O   0  0  0  0  0  0  0  0  0  1  0  0
  -28.4125  -17.2991   18.5172 F   0  0  0  0  0  0  0  0  0  0  0  0
  -31.4670  -19.9708   16.0805 F   0  0  0  0  0  0  0  0  0  0  0  0
  1  2  1  0  0  0  0
  1  5  2  0  0  0  0
  2  6  2  0  0  0  0
  3  8  2  0  0  0  0
  3 16  1  0  0  0  0
  4  9  1  0  0  0  0
  4 16  2  0  0  0  0
  5 18  1  0  0  0  0
  6 20  1  0  0  0  0
  7 10  2  0  0  0  0
  7 19  1  0  0  0  0
  8 23  1  0  0  0  0
  9 23  2  0  0  0  0
 10 24  1  0  0  0  0
 11 12  2  0  0  0  0
 11 25  1  0  0  0  0
 12 26  1  0  0  0  0
 13 21  1  0  0  0  0
 13 24  2  0  0  0  0
 14 26  2  0  0  0  0
 14 27  1  0  0  0  0
 15 22  2  0  0  0  0
 15 72  1  0  0  0  0
 16 28  1  0  0  0  0
 17 28  1  0  0  0  0
 17 30  2  0  0  0  0
 17 31  1  0  0  0  0
 18 20  2  0  0  0  0
 18 36  1  0  0  0  0
 19 21  2  0  0  0  0
 19 37  1  0  0  0  0
 20 45  1  0  0  0  0
 21 38  1  0  0  0  0
 22 29  1  0  0  0  0
 22 67  1  0  0  0  0
 23 86  1  0  0  0  0
 24 87  1  0  0  0  0
 25 27  2  0  0  0  0
 25 86  1  0  0  0  0
 26 88  1  0  0  0  0
 27 89  1  0  0  0  0
 28 70  2  0  0  0  0
 29 59  1  0  0  0  0
 29 71  2  0  0  0  0
 30 73  1  0  0  0  0
 30 76  1  0  0  0  0
 31 77  1  0  0  0  0
 31 81  2  0  0  0  0
 32 46  1  0  0  0  0
 32 78  1  0  0  0  0
 32 82  2  0  0  0  0
 33 64  1  0  0  0  0
 33 75  1  0  0  0  0
 33 83  2  0  0  0  0
 34 65  1  0  0  0  0
 34 74  1  0  0  0  0
 34 84  2  0  0  0  0
 35 66  1  0  0  0  0
 35 79  1  0  0  0  0
 35 85  2  0  0  0  0
 36 39  1  0  0  0  0
 37 46  1  0  0  0  0
 38 74  1  0  0  0  0
 39 41  1  0  0  0  0
 40 42  1  0  0  0  0
 40 43  1  0  0  0  0
 41 45  1  0  0  0  0
 42 47  1  0  0  0  0
 43 75  1  0  0  0  0
 44 47  1  0  0  0  0
 44 75  1  0  0  0  0
 45 78  1  0  0  0  0
 46 74  1  0  0  0  0
 47 73  1  0  0  0  0
 48 66  1  0  0  0  0
 49 67  1  0  0  0  0
 50 67  1  0  0  0  0
 51 67  1  0  0  0  0
 52 68  1  0  0  0  0
 53 68  1  0  0  0  0
 54 68  1  0  0  0  0
 55 69  1  0  0  0  0
 56 69  1  0  0  0  0
 57 69  1  0  0  0  0
 58 80  1  0  0  0  0
 59 60  1  0  0  0  0
 60 61  1  0  0  0  0
 61 62  1  0  0  0  0
 62 63  1  0  0  0  0
 63 87  1  0  0  0  0
 64 68  1  0  0  0  0
 64 72  1  0  0  0  0
 65 69  1  0  0  0  0
 65 79  1  0  0  0  0
 66 80  1  0  0  0  0
 70 73  1  0  0  0  0
 71 72  1  0  0  0  0
M  CHG  1  80   1
M  ISO  4  33 100  63 101  64 100  87 101
M  END
> <Batch ID>
0067

> <Smiles>
CNC(C)C(=O)NC(C(=O)N1Cc2cc([101O:1][101CH2:1]CCCCc3nn([100CH:0]([100C:0](=O)N4CCCC(n5nc(-c6ccc(Oc7ccc(F)cc7F)cc6)c(C(N)=O)c5N)C4)C(C)(C)C)cc3C(C)(C)C)ccc2CC1C(=O)NC1CCCc2ccccc21)C(C)(C)C

> <Shape>
0.215

> <Color>
0.066

> <Negative vol penalty>
0.000

$$$$

  -OEChem-04052318123D

 97105  0     1  0  0  0  0  0999 V2000
  -18.2655  -30.8339   16.9337 C   0  0  0  0  0  0  0  0  0  0  0  0
  -19.2252  -29.8539   17.1659 C   0  0  0  0  0  0  0  0  0  0  0  0
  -23.1298   -9.8859   19.9503 C   0  0  0  0  0  0  0  0  0  0  0  0
  -23.5236  -10.0522   22.3282 C   0  0  0  0  0  0  0  0  0  0  0  0
  -18.6405  -32.1756   16.8768 C   0  0  0  0  0  0  0  0  0  0  0  0
  -20.5607  -30.2148   17.3402 C   0  0  0  0  0  0  0  0  0  0  0  0
  -22.7351  -27.7994   21.2238 C   0  0  0  0  0  0  0  0  0  0  0  0
  -22.3328   -8.7607   20.1610 C   0  0  0  0  0  0  0  0  0  0  0  0
  -22.7266   -8.9270   22.5389 C   0  0  0  0  0  0  0  0  0  0  0  0
  -23.1273  -26.4783   21.0128 C   0  0  0  0  0  0  0  0  0  0  0  0
  -23.0331   -5.5709   22.2686 C   0  0  0  0  0  0  0  0  0  0  0  0
  -23.5084   -4.5948   23.1443 C   0  0  0  0  0  0  0  0  0  0  0  0
  -25.4004  -27.2128   20.6774 C   0  0  0  0  0  0  0  0  0  0  0  0
  -21.5660   -4.9071   24.5468 C   0  0  0  0  0  0  0  0  0  0  0  0
  -28.2196  -16.2284   17.8170 C   0  0  0  0  0  0  0  0  0  0  0  0
  -23.7253  -10.5316   21.0339 C   0  0  0  0  0  0  0  0  0  0  0  0
  -24.1329  -13.0382   20.7920 C   0  0  0  0  0  0  0  0  0  0  0  0
  -19.9799  -32.5540   17.0601 C   0  0  0  0  0  0  0  0  0  0  0  0
  -23.6723  -28.8401   21.1523 C   0  0  0  0  0  0  0  0  0  0  0  0
  -20.9543  -31.5627   17.2843 C   0  0  0  0  0  0  0  0  0  0  0  0
  -25.0181  -28.5461   20.8904 C   0  0  0  0  0  0  0  0  0  0  0  0
  -22.1312   -8.2813   21.4553 C   0  0  0  0  0  0  0  0  0  0  0  0
  -24.4595  -26.1851   20.7367 C   0  0  0  0  0  0  0  0  0  0  0  0
  -21.8243   -6.2152   22.5320 C   0  0  0  0  0  0  0  0  0  0  0  0
  -22.7749   -4.2629   24.2833 C   0  0  0  0  0  0  0  0  0  0  0  0
  -21.0908   -5.8833   23.6711 C   0  0  0  0  0  0  0  0  0  0  0  0
  -24.5492  -11.6936   20.8169 C   0  0  0  0  0  0  0  0  0  0  0  0
  -29.1079  -15.4264   17.1456 C   0  0  0  0  0  0  0  0  0  0  0  0
  -25.2833  -13.7494   20.5526 C   0  0  0  0  0  0  0  0  0  0  0  0
  -22.8235  -13.5946   20.9694 C   0  0  0  0  0  0  0  0  0  0  0  0
  -30.0333  -14.4480   17.7314 C   0  0  0  0  0  0  0  0  0  0  0  0
  -24.0389  -31.4060   19.3124 C   0  0  0  0  0  0  0  0  0  0  0  0
  -26.4594  -32.0560   21.3719 C   0  0  0  0  0  0  0  0  0  0  0  0
  -28.7417  -30.8845   23.6225 C   0  0  0  0  0  0  0  0  0  0  0  0
  -20.3446  -34.0127   16.9428 C   0  0  0  0  0  0  0  0  0  0  0  0
  -23.2381  -30.2572   21.4088 C   0  0  0  0  0  0  0  0  0  0  0  0
  -26.0669  -29.6249   20.8229 C   0  0  0  0  0  0  0  0  0  0  0  0
  -21.7225  -34.3436   17.5106 C   0  0  0  0  0  0  0  0  0  0  0  0
  -30.1301  -12.3055   20.5849 C   0  0  0  0  0  0  0  0  0  0  0  0
  -22.7565  -33.3322   17.0261 C   0  0  0  0  0  0  0  0  0  0  0  0
  -28.6531  -12.0478   20.8884 C   0  0  0  0  0  0  0  0  0  0  0  0
  -30.3872  -12.4093   19.0836 C   0  0  0  0  0  0  0  0  0  0  0  0
  -28.0620  -13.1445   18.6864 C   0  0  0  0  0  0  0  0  0  0  0  0
  -22.4092  -31.9168   17.5029 C   0  0  1  0  0  0  0  0  0  0  0  0
  -24.1833  -31.2905   20.8035 C   0  0  1  0  0  0  0  0  0  0  0  0
  -27.7514  -13.0838   20.1911 C   0  0  1  0  0  0  0  0  0  0  0  0
  -30.6098  -31.6494   25.1132 C   0  0  0  0  0  0  0  0  0  0  0  0
  -24.2480  -19.7855   18.7582 C   0  0  0  0  0  0  0  0  0  0  0  0
  -28.2904  -32.3076   18.9441 C   0  0  0  0  0  0  0  0  0  0  0  0
  -30.2506  -32.1201   20.4904 C   0  0  0  0  0  0  0  0  0  0  0  0
  -28.6646  -34.0322   20.7162 C   0  0  0  0  0  0  0  0  0  0  0  0
  -23.9250  -17.8600   17.3810 C   0  0  0  0  0  0  0  0  0  0  0  0
  -24.6937  -17.9816   15.0581 C   0  0  0  0  0  0  0  0  0  0  0  0
  -25.0188  -15.8755   16.3668 C   0  0  0  0  0  0  0  0  0  0  0  0
  -26.3509  -22.0708   16.2998 C   0  0  0  0  0  0  0  0  0  0  0  0
  -24.5303  -20.4593   15.9755 C   0  0  0  0  0  0  0  0  0  0  0  0
  -28.2643  -19.9327   17.3820 C   0  0  0  0  0  0  0  0  0  0  0  0
  -27.3999  -19.5995   15.0991 C   0  0  0  0  0  0  0  0  0  0  0  0
  -25.5790  -22.1779   21.3704 C   0  0  0  0  0  0  0  0  0  0  0  0
  -27.3341  -29.9592   26.0559 C   0  0  0  0  0  0  0  0  0  0  0  0
  -27.9302  -31.7215   21.4327 C   0  0  1  0  0  0  0  0  0  0  0  0
  -29.1202  -31.3600   25.0136 C   0  0  2  0  0  0  0  0  0  0  0  0
  -25.3345  -20.8177   18.3946 C   0  0  1  0  0  0  0  0  0  0  0  0
  -26.5131  -18.0069   16.9656 C   0  0  2  0  0  0  0  0  0  0  0  0
  -28.7641  -32.5250   20.3951 C   0  0  0  0  0  0  0  0  0  0  0  0
  -25.0912  -17.4096   16.4457 C   0  0  0  0  0  0  0  0  0  0  0  0
  -25.8033  -20.7091   16.8241 C   0  0  0  0  0  0  0  0  0  0  0  0
  -26.9879  -19.5439   16.5996 C   0  0  0  0  0  0  0  0  0  0  0  0
  -24.4943  -22.4871   20.3398 C   0  0  2  0  0  0  0  0  0  0  0  0
  -24.9023  -22.2396   18.8692 C   0  0  0  0  0  0  0  0  0  0  0  0
  -23.8647  -23.8596   20.6006 C   0  0  0  0  0  0  0  0  0  1  0  0
  -25.8615  -11.5561   20.6097 N   0  0  0  0  0  0  0  0  0  0  0  0
  -29.0175  -15.6648   15.8023 N   0  0  0  0  0  0  0  0  0  0  0  0
  -28.0918  -16.5991   15.6148 N   0  0  0  0  0  0  0  0  0  0  0  0
  -27.6145  -16.9356   16.8242 N   0  0  0  0  0  0  0  0  0  0  0  0
  -26.2798  -12.8235   20.4522 N   0  0  0  0  0  0  0  0  0  0  0  0
  -29.4947  -13.3936   18.4727 N   0  0  0  0  0  0  0  0  0  0  0  0
  -25.5917  -30.9955   21.0746 N   0  0  0  0  0  0  0  0  0  0  0  0
  -25.5296  -15.0700   20.4201 N   0  0  0  0  0  0  0  0  0  0  0  0
  -21.7531  -12.7215   21.2070 N   0  0  0  0  0  0  0  0  0  0  0  0
  -22.7674  -31.7504   18.8952 N   0  0  0  0  0  0  0  0  0  0  0  0
  -28.3392  -31.9292   22.8176 N   0  0  0  0  0  0  0  0  0  0  0  0
  -28.7739  -30.3238   26.0272 N   0  3  0  0  0  0  0  0  0  0  0  0
  -22.6063  -14.8282   20.9025 O   0  0  0  0  0  0  0  0  0  0  0  0
  -31.2308  -14.6442   17.5298 O   0  0  0  0  0  0  0  0  0  0  0  0
  -25.0097  -31.1996   18.5936 O   0  0  0  0  0  0  0  0  0  0  0  0
  -26.0931  -33.2140   21.5875 O   0  0  0  0  0  0  0  0  0  0  0  0
  -28.8011  -29.7049   23.2826 O   0  0  0  0  0  0  0  0  0  0  0  0
  -21.3533   -7.1835   21.6612 O   0  0  0  0  0  0  0  0  0  0  0  0
  -24.8466  -24.8905   20.5288 O   0  0  0  0  0  0  0  0  0  1  0  0
  -23.2307   -3.3244   25.1234 F   0  0  0  0  0  0  0  0  0  0  0  0
  -19.9282   -6.4981   23.9288 F   0  0  0  0  0  0  0  0  0  0  0  0
  -23.5018  -21.5584   20.5897 F   0  0  0  0  0  0  0  0  0  0  0  0
  -25.9531  -23.0894   18.6495 F   0  0  0  0  0  0  0  0  0  0  0  0
  -23.8918  -22.6868   18.0723 F   0  0  0  0  0  0  0  0  0  0  0  0
  -23.2781  -23.8761   21.8226 F   0  0  0  0  0  0  0  0  0  0  0  0
  -22.9002  -24.0933   19.6743 F   0  0  0  0  0  0  0  0  0  0  0  0
  1  2  1  0  0  0  0
  1  5  2  0  0  0  0
  2  6  2  0  0  0  0
  3  8  2  0  0  0  0
  3 16  1  0  0  0  0
  4  9  1  0  0  0  0
  4 16  2  0  0  0  0
  5 18  1  0  0  0  0
  6 20  1  0  0  0  0
  7 10  2  0  0  0  0
  7 19  1  0  0  0  0
  8 22  1  0  0  0  0
  9 22  2  0  0  0  0
 10 23  1  0  0  0  0
 11 12  2  0  0  0  0
 11 24  1  0  0  0  0
 12 25  1  0  0  0  0
 13 21  1  0  0  0  0
 13 23  2  0  0  0  0
 14 25  2  0  0  0  0
 14 26  1  0  0  0  0
 15 28  2  0  0  0  0
 15 75  1  0  0  0  0
 16 27  1  0  0  0  0
 17 27  1  0  0  0  0
 17 29  2  0  0  0  0
 17 30  1  0  0  0  0
 18 20  2  0  0  0  0
 18 35  1  0  0  0  0
 19 21  2  0  0  0  0
 19 36  1  0  0  0  0
 20 44  1  0  0  0  0
 21 37  1  0  0  0  0
 22 89  1  0  0  0  0
 23 90  1  0  0  0  0
 24 26  2  0  0  0  0
 24 89  1  0  0  0  0
 25 91  1  0  0  0  0
 26 92  1  0  0  0  0
 27 72  2  0  0  0  0
 28 31  1  0  0  0  0
 28 73  1  0  0  0  0
 29 76  1  0  0  0  0
 29 79  1  0  0  0  0
 30 80  1  0  0  0  0
 30 84  2  0  0  0  0
 31 77  1  0  0  0  0
 31 85  2  0  0  0  0
 32 45  1  0  0  0  0
 32 81  1  0  0  0  0
 32 86  2  0  0  0  0
 33 61  1  0  0  0  0
 33 78  1  0  0  0  0
 33 87  2  0  0  0  0
 34 62  1  0  0  0  0
 34 82  1  0  0  0  0
 34 88  2  0  0  0  0
 35 38  1  0  0  0  0
 36 45  1  0  0  0  0
 37 78  1  0  0  0  0
 38 40  1  0  0  0  0
 39 41  1  0  0  0  0
 39 42  1  0  0  0  0
 40 44  1  0  0  0  0
 41 46  1  0  0  0  0
 42 77  1  0  0  0  0
 43 46  1  0  0  0  0
 43 77  1  0  0  0  0
 44 81  1  0  0  0  0
 45 78  1  0  0  0  0
 46 76  1  0  0  0  0
 47 62  1  0  0  0  0
 48 63  1  0  0  0  0
 49 65  1  0  0  0  0
 50 65  1  0  0  0  0
 51 65  1  0  0  0  0
 52 66  1  0  0  0  0
 53 66  1  0  0  0  0
 54 66  1  0  0  0  0
 55 67  1  0  0  0  0
 56 67  1  0  0  0  0
 57 68  1  0  0  0  0
 58 68  1  0  0  0  0
 59 69  1  0  0  0  0
 60 83  1  0  0  0  0
 61 65  1  0  0  0  0
 61 82  1  0  0  0  0
 62 83  1  0  0  0  0
 63 67  1  0  0  0  0
 63 70  1  0  0  0  0
 64 66  1  0  0  0  0
 64 68  1  0  0  0  0
 64 75  1  0  0  0  0
 67 68  1  0  0  0  0
 69 70  1  0  0  0  0
 69 71  1  0  0  0  0
 69 93  1  0  0  0  0
 70 94  1  0  0  0  0
 70 95  1  0  0  0  0
 71 90  1  0  0  0  0
 71 96  1  0  0  0  0
 71 97  1  0  0  0  0
 72 76  1  0  0  0  0
 73 74  2  0  0  0  0
 74 75  1  0  0  0  0
M  CHG  1  83   1
M  ISO  4  28 100  31 100  71 101  90 101
M  END
> <Batch ID>
0067

> <Smiles>
CNC(C)C(=O)NC(C(=O)N1Cc2cc([101O:1][101C:1](F)(F)C(C)(F)C(F)(F)C(C)C(C)(C)C(C)(C)C(n3c[100c:0]([100C:0](=O)N4CCCC(n5nc(-c6ccc(Oc7ccc(F)cc7F)cc6)c(C(N)=O)c5N)C4)nn3)C(C)(C)C)ccc2CC1C(=O)NC1CCCc2ccccc21)C(C)(C)C

> <Shape>
0.216

> <Color>
0.191

> <Negative vol penalty>
0.000

$$$$

  -OEChem-04052318123D

 84 92  0     1  0  0  0  0  0999 V2000
  -35.4622  -13.5239   30.0370 C   0  0  0  0  0  0  0  0  0  0  0  0
  -35.3580  -14.3912   28.9543 C   0  0  0  0  0  0  0  0  0  0  0  0
  -23.2874   -9.7953   19.9089 C   0  0  0  0  0  0  0  0  0  0  0  0
  -23.7208   -9.9380   22.2815 C   0  0  0  0  0  0  0  0  0  0  0  0
  -34.3973  -12.6845   30.3614 C   0  0  0  0  0  0  0  0  0  0  0  0
  -34.1890  -14.4188   28.1945 C   0  0  0  0  0  0  0  0  0  0  0  0
  -31.6644  -19.3042   25.4993 C   0  0  0  0  0  0  0  0  0  0  0  0
  -22.5558   -8.6254   20.1129 C   0  0  0  0  0  0  0  0  0  0  0  0
  -22.9892   -8.7680   22.4855 C   0  0  0  0  0  0  0  0  0  0  0  0
  -31.7074  -19.7796   24.1893 C   0  0  0  0  0  0  0  0  0  0  0  0
  -19.7378   -7.8674   22.6797 C   0  0  0  0  0  0  0  0  0  0  0  0
  -18.8274   -7.8501   23.7363 C   0  0  0  0  0  0  0  0  0  0  0  0
  -29.6168  -18.6697   23.7241 C   0  0  0  0  0  0  0  0  0  0  0  0
  -20.0199   -6.0006   24.7335 C   0  0  0  0  0  0  0  0  0  0  0  0
  -33.4153  -16.8328   19.3248 C   0  0  0  0  0  0  0  0  0  0  0  0
  -23.8700  -10.4516   20.9932 C   0  0  0  0  0  0  0  0  0  0  0  0
  -24.1387  -12.9805   20.7929 C   0  0  0  0  0  0  0  0  0  0  0  0
  -33.2111  -12.7087   29.6111 C   0  0  0  0  0  0  0  0  0  0  0  0
  -30.6009  -18.4976   25.9291 C   0  0  0  0  0  0  0  0  0  0  0  0
  -33.1077  -13.5779   28.5083 C   0  0  0  0  0  0  0  0  0  0  0  0
  -29.5613  -18.1874   25.0408 C   0  0  0  0  0  0  0  0  0  0  0  0
  -22.4067   -8.1117   21.4012 C   0  0  0  0  0  0  0  0  0  0  0  0
  -30.6850  -19.4600   23.3007 C   0  0  0  0  0  0  0  0  0  0  0  0
  -20.7892   -6.9513   22.6499 C   0  0  0  0  0  0  0  0  0  0  0  0
  -18.9684   -6.9167   24.7632 C   0  0  0  0  0  0  0  0  0  0  0  0
  -20.9303   -6.0179   23.6768 C   0  0  0  0  0  0  0  0  0  0  0  0
  -24.6263  -11.6599   20.7831 C   0  0  0  0  0  0  0  0  0  0  0  0
  -32.3624  -17.4187   19.9690 C   0  0  0  0  0  0  0  0  0  0  0  0
  -25.2445  -13.7566   20.5451 C   0  0  0  0  0  0  0  0  0  0  0  0
  -33.1972  -15.8604   21.3015 C   0  0  0  0  0  0  0  0  0  0  0  0
  -22.8055  -13.4626   21.0070 C   0  0  0  0  0  0  0  0  0  0  0  0
  -30.3404  -15.5246   27.0234 C   0  0  0  0  0  0  0  0  0  0  0  0
  -27.2487  -16.3849   27.4966 C   0  0  0  0  0  0  0  0  0  0  0  0
  -24.6463  -18.4233   26.6486 C   0  0  0  0  0  0  0  0  0  0  0  0
  -30.9937  -12.8392   21.5256 C   0  0  0  0  0  0  0  0  0  0  0  0
  -32.1047  -11.7490   29.9712 C   0  0  0  0  0  0  0  0  0  0  0  0
  -30.5556  -18.0148   27.3529 C   0  0  0  0  0  0  0  0  0  0  0  0
  -28.3870  -17.3418   25.4585 C   0  0  0  0  0  0  0  0  0  0  0  0
  -30.7598  -12.1068   29.3438 C   0  0  0  0  0  0  0  0  0  0  0  0
  -29.4867  -13.6331   18.3324 C   0  0  0  0  0  0  0  0  0  0  0  0
  -30.9320  -12.4386   27.8649 C   0  0  0  0  0  0  0  0  0  0  0  0
  -28.0117  -13.3379   18.6104 C   0  0  0  0  0  0  0  0  0  0  0  0
  -30.3938  -12.6293   19.0378 C   0  0  0  0  0  0  0  0  0  0  0  0
  -28.7050  -12.2372   20.7893 C   0  0  0  0  0  0  0  0  0  0  0  0
  -31.8467  -13.6546   27.6752 C   0  0  1  0  0  0  0  0  0  0  0  0
  -29.6849  -16.7756   27.5363 C   0  0  1  0  0  0  0  0  0  0  0  0
  -27.7369  -13.2310   20.1221 C   0  0  2  0  0  0  0  0  0  0  0  0
  -22.2337  -18.8627   27.1811 C   0  0  0  0  0  0  0  0  0  0  0  0
  -32.3988  -15.1886   23.6695 C   0  0  0  0  0  0  0  0  0  0  0  0
  -34.8150  -15.2108   23.1065 C   0  0  0  0  0  0  0  0  0  0  0  0
  -26.4472  -13.9181   25.8896 C   0  0  0  0  0  0  0  0  0  0  0  0
  -24.1596  -14.9059   25.6461 C   0  0  0  0  0  0  0  0  0  0  0  0
  -25.0405  -14.3479   27.9122 C   0  0  0  0  0  0  0  0  0  0  0  0
  -35.0410  -15.0094   19.8832 C   0  0  0  0  0  0  0  0  0  0  0  0
  -25.2273  -21.1820   27.5490 C   0  0  0  0  0  0  0  0  0  0  0  0
  -31.4290  -18.5260   19.5494 C   0  0  0  0  0  0  0  0  0  0  0  0
  -31.9165  -19.9232   19.9389 C   0  0  0  0  0  0  0  0  0  0  0  0
  -33.3270  -13.4478   22.1105 C   0  0  0  0  0  0  0  0  0  0  0  0
  -32.0141  -20.1303   21.4459 C   0  0  0  0  0  0  0  0  0  1  0  0
  -25.9868  -16.3359   26.6695 C   0  0  1  0  0  0  0  0  0  0  0  0
  -23.6764  -19.2248   27.4979 C   0  0  2  0  0  0  0  0  0  0  0  0
  -33.4001  -14.9768   22.4766 C   0  0  0  0  0  0  0  0  0  0  0  0
  -25.4314  -14.8913   26.5206 C   0  0  0  0  0  0  0  0  0  0  0  0
  -25.9395  -11.5968   20.5475 N   0  0  0  0  0  0  0  0  0  0  0  0
  -33.9132  -15.8728   20.1724 N   0  0  0  0  0  0  0  0  0  0  0  0
  -26.2865  -12.8875   20.4070 N   0  0  0  0  0  0  0  0  0  0  0  0
  -32.2501  -16.7973   21.1894 N   0  3  0  0  0  0  0  0  0  0  0  0
  -28.3915  -16.8884   26.8592 N   0  0  0  0  0  0  0  0  0  0  0  0
  -30.0939  -12.5895   20.4761 N   0  0  0  0  0  0  0  0  0  0  0  0
  -25.4175  -15.0908   20.4340 N   0  0  0  0  0  0  0  0  0  0  0  0
  -21.7882  -12.5292   21.2482 N   0  0  0  0  0  0  0  0  0  0  0  0
  -31.1265  -14.8777   27.9577 N   0  0  0  0  0  0  0  0  0  0  0  0
  -25.0560  -17.2730   27.2891 N   0  0  0  0  0  0  0  0  0  0  0  0
  -32.2908  -13.1593   21.1440 N   0  0  0  0  0  0  0  0  0  0  0  0
  -23.8589  -20.6838   27.2553 N   0  3  0  0  0  0  0  0  0  0  0  0
  -22.5217  -14.6839   20.9688 O   0  0  0  0  0  0  0  0  0  0  0  0
  -30.1460  -15.1716   25.8661 O   0  0  0  0  0  0  0  0  0  0  0  0
  -27.2198  -15.9975   28.6674 O   0  0  0  0  0  0  0  0  0  0  0  0
  -25.0018  -18.7799   25.5274 O   0  0  0  0  0  0  0  0  0  0  0  0
  -30.6641  -12.7860   22.7154 O   0  0  0  0  0  0  0  0  0  0  0  0
  -21.6927   -6.9703   21.6006 O   0  0  0  0  0  0  0  0  0  0  0  0
  -30.7250  -19.9222   22.0214 O   0  0  0  0  0  0  0  0  0  1  0  0
  -18.0950   -6.9012   25.7786 F   0  0  0  0  0  0  0  0  0  0  0  0
  -21.9390   -5.1360   23.6543 F   0  0  0  0  0  0  0  0  0  0  0  0
  1  2  1  0  0  0  0
  1  5  2  0  0  0  0
  2  6  2  0  0  0  0
  3  8  2  0  0  0  0
  3 16  1  0  0  0  0
  4  9  1  0  0  0  0
  4 16  2  0  0  0  0
  5 18  1  0  0  0  0
  6 20  1  0  0  0  0
  7 10  2  0  0  0  0
  7 19  1  0  0  0  0
  8 22  1  0  0  0  0
  9 22  2  0  0  0  0
 10 23  1  0  0  0  0
 11 12  2  0  0  0  0
 11 24  1  0  0  0  0
 12 25  1  0  0  0  0
 13 21  1  0  0  0  0
 13 23  2  0  0  0  0
 14 25  2  0  0  0  0
 14 26  1  0  0  0  0
 15 28  2  0  0  0  0
 15 65  1  0  0  0  0
 16 27  1  0  0  0  0
 17 27  1  0  0  0  0
 17 29  2  0  0  0  0
 17 31  1  0  0  0  0
 18 20  2  0  0  0  0
 18 36  1  0  0  0  0
 19 21  2  0  0  0  0
 19 37  1  0  0  0  0
 20 45  1  0  0  0  0
 21 38  1  0  0  0  0
 22 81  1  0  0  0  0
 23 82  1  0  0  0  0
 24 26  2  0  0  0  0
 24 81  1  0  0  0  0
 25 83  1  0  0  0  0
 26 84  1  0  0  0  0
 27 64  2  0  0  0  0
 28 56  1  0  0  0  0
 28 67  1  0  0  0  0
 29 66  1  0  0  0  0
 29 70  1  0  0  0  0
 30 62  1  0  0  0  0
 30 65  1  0  0  0  0
 30 67  2  0  0  0  0
 31 71  1  0  0  0  0
 31 76  2  0  0  0  0
 32 46  1  0  0  0  0
 32 72  1  0  0  0  0
 32 77  2  0  0  0  0
 33 60  1  0  0  0  0
 33 68  1  0  0  0  0
 33 78  2  0  0  0  0
 34 61  1  0  0  0  0
 34 73  1  0  0  0  0
 34 79  2  0  0  0  0
 35 69  1  0  0  0  0
 35 74  1  0  0  0  0
 35 80  2  0  0  0  0
 36 39  1  0  0  0  0
 37 46  1  0  0  0  0
 38 68  1  0  0  0  0
 39 41  1  0  0  0  0
 40 42  1  0  0  0  0
 40 43  1  0  0  0  0
 41 45  1  0  0  0  0
 42 47  1  0  0  0  0
 43 69  1  0  0  0  0
 44 47  1  0  0  0  0
 44 69  1  0  0  0  0
 45 72  1  0  0  0  0
 46 68  1  0  0  0  0
 47 66  1  0  0  0  0
 48 61  1  0  0  0  0
 49 62  1  0  0  0  0
 50 62  1  0  0  0  0
 51 63  1  0  0  0  0
 52 63  1  0  0  0  0
 53 63  1  0  0  0  0
 54 65  1  0  0  0  0
 55 75  1  0  0  0  0
 56 57  1  0  0  0  0
 57 59  1  0  0  0  0
 58 62  1  0  0  0  0
 58 74  1  0  0  0  0
 59 82  1  0  0  0  0
 60 63  1  0  0  0  0
 60 73  1  0  0  0  0
 61 75  1  0  0  0  0
 64 66  1  0  0  0  0
M  CHG  2  67   1  75   1
M  ISO  4  35 100  59 101  74 100  82 101
M  END
> <Batch ID>
0067

> <Smiles>
CNC(C)C(=O)NC(C(=O)N1Cc2cc([101O:1][101CH2:1]CCc3cn(C)c(C(C)(C)C[100NH:0][100C:0](=O)N4CCCC(n5nc(-c6ccc(Oc7ccc(F)cc7F)cc6)c(C(N)=O)c5N)C4)n3)ccc2CC1C(=O)NC1CCCc2ccccc21)C(C)(C)C

> <Shape>
0.145

> <Color>
0.170

> <Negative vol penalty>
0.000

$$$$

  -OEChem-04052318123D

 92100  0     1  0  0  0  0  0999 V2000
  -16.9761  -29.1611   24.5141 C   0  0  0  0  0  0  0  0  0  0  0  0
  -17.4196  -28.0485   23.8064 C   0  0  0  0  0  0  0  0  0  0  0  0
  -31.0925  -19.5951   19.5800 C   0  0  0  0  0  0  0  0  0  0  0  0
  -29.8805  -19.6807   21.6682 C   0  0  0  0  0  0  0  0  0  0  0  0
  -17.5522  -30.4092   24.2810 C   0  0  0  0  0  0  0  0  0  0  0  0
  -18.4388  -28.1836   22.8644 C   0  0  0  0  0  0  0  0  0  0  0  0
  -22.8014  -24.0920   21.5483 C   0  0  0  0  0  0  0  0  0  0  0  0
  -30.9329  -20.9727   19.4308 C   0  0  0  0  0  0  0  0  0  0  0  0
  -29.7209  -21.0584   21.5190 C   0  0  0  0  0  0  0  0  0  0  0  0
  -22.9254  -23.1477   20.5302 C   0  0  0  0  0  0  0  0  0  0  0  0
  -28.5020  -23.1061   18.4490 C   0  0  0  0  0  0  0  0  0  0  0  0
  -28.1161  -23.5810   17.1956 C   0  0  0  0  0  0  0  0  0  0  0  0
  -24.2559  -24.7051   19.2560 C   0  0  0  0  0  0  0  0  0  0  0  0
  -30.1445  -24.8871   17.0659 C   0  0  0  0  0  0  0  0  0  0  0  0
  -24.8178  -15.1931   19.6921 C   0  0  0  0  0  0  0  0  0  0  0  0
  -25.7693  -17.1918   21.1845 C   0  0  0  0  0  0  0  0  0  0  0  0
  -30.5663  -18.9491   20.6987 C   0  0  0  0  0  0  0  0  0  0  0  0
  -31.7896  -16.8571   21.4956 C   0  0  0  0  0  0  0  0  0  0  0  0
  -18.5855  -30.5579   23.3426 C   0  0  0  0  0  0  0  0  0  0  0  0
  -23.3956  -25.3560   21.4230 C   0  0  0  0  0  0  0  0  0  0  0  0
  -19.0283  -29.4351   22.6175 C   0  0  0  0  0  0  0  0  0  0  0  0
  -24.1401  -25.6627   20.2751 C   0  0  0  0  0  0  0  0  0  0  0  0
  -30.2471  -21.7044   20.4003 C   0  0  0  0  0  0  0  0  0  0  0  0
  -23.6502  -23.4552   19.3825 C   0  0  0  0  0  0  0  0  0  0  0  0
  -29.7092  -23.5217   19.0110 C   0  0  0  0  0  0  0  0  0  0  0  0
  -28.9373  -24.4715   16.5040 C   0  0  0  0  0  0  0  0  0  0  0  0
  -30.5304  -24.4121   18.3194 C   0  0  0  0  0  0  0  0  0  0  0  0
  -30.7304  -17.5259   20.8532 C   0  0  0  0  0  0  0  0  0  0  0  0
  -25.3587  -14.9559   20.9366 C   0  0  0  0  0  0  0  0  0  0  0  0
  -25.2292  -17.4291   19.9398 C   0  0  0  0  0  0  0  0  0  0  0  0
  -31.4799  -15.5248   21.3714 C   0  0  0  0  0  0  0  0  0  0  0  0
  -32.9496  -17.3923   22.1464 C   0  0  0  0  0  0  0  0  0  0  0  0
  -22.3142  -28.3435   21.3277 C   0  0  0  0  0  0  0  0  0  0  0  0
  -25.4741  -29.0755   21.3713 C   0  0  0  0  0  0  0  0  0  0  0  0
  -26.2464  -12.6781   20.5848 C   0  0  0  0  0  0  0  0  0  0  0  0
  -28.6822  -28.1042   20.7301 C   0  0  0  0  0  0  0  0  0  0  0  0
  -19.1450  -31.9357   23.0910 C   0  0  0  0  0  0  0  0  0  0  0  0
  -23.2751  -26.3539   22.5420 C   0  0  0  0  0  0  0  0  0  0  0  0
  -24.8144  -26.9981   20.1006 C   0  0  0  0  0  0  0  0  0  0  0  0
  -20.4770  -31.9254   22.3453 C   0  0  0  0  0  0  0  0  0  0  0  0
  -29.1720  -12.4580   18.5276 C   0  0  0  0  0  0  0  0  0  0  0  0
  -20.4134  -30.9775   21.1519 C   0  0  0  0  0  0  0  0  0  0  0  0
  -29.9863  -13.6874   18.9288 C   0  0  0  0  0  0  0  0  0  0  0  0
  -27.6740  -12.7434   18.5669 C   0  0  0  0  0  0  0  0  0  0  0  0
  -28.0020  -14.4944   20.2839 C   0  0  0  0  0  0  0  0  0  0  0  0
  -20.1486  -29.5367   21.6053 C   0  0  1  0  0  0  0  0  0  0  0  0
  -23.4899  -27.7933   22.0845 C   0  0  1  0  0  0  0  0  0  0  0  0
  -29.5198  -14.2402   20.2872 C   0  0  2  0  0  0  0  0  0  0  0  0
  -31.0489  -28.9322   20.8322 C   0  0  0  0  0  0  0  0  0  0  0  0
  -24.9911  -30.7569   18.8714 C   0  0  0  0  0  0  0  0  0  0  0  0
  -27.4648  -30.7672   18.4852 C   0  0  0  0  0  0  0  0  0  0  0  0
  -26.5224  -31.8006   20.5508 C   0  0  0  0  0  0  0  0  0  0  0  0
  -29.4648  -25.9823   22.6390 C   0  0  0  0  0  0  0  0  0  0  0  0
  -24.5707  -20.3407   17.7812 C   0  0  0  0  0  0  0  0  0  0  0  0
  -23.7531  -21.1603   18.7671 C   0  0  0  0  0  0  0  0  0  1  0  0
  -24.5993  -18.8665   18.1529 C   0  0  0  0  0  0  0  0  0  0  0  0
  -26.5381  -29.2829   20.3206 C   0  0  1  0  0  0  0  0  0  0  0  0
  -29.9459  -28.1864   21.5671 C   0  0  2  0  0  0  0  0  0  0  0  0
  -25.4249  -13.5713   21.4801 C   0  0  2  0  0  0  0  0  0  0  0  0
  -26.3649  -30.6274   19.5591 C   0  0  0  0  0  0  0  0  0  0  0  0
  -23.9826  -12.9535   21.5709 C   0  0  0  0  0  0  0  0  0  0  0  0
  -26.1465  -13.4429   22.8611 C   0  0  0  0  0  0  0  0  0  0  0  0
  -22.9233  -13.6163   22.4266 C   0  0  0  0  0  0  0  0  0  0  0  0
  -25.8438  -15.9509   21.7053 N   0  0  0  0  0  0  0  0  0  0  0  0
  -24.7437  -16.4339   19.1712 N   0  0  0  0  0  0  0  0  0  0  0  0
  -29.8163  -16.6876   20.3576 N   0  0  0  0  0  0  0  0  0  0  0  0
  -30.3002  -15.4783   20.6885 N   0  0  0  0  0  0  0  0  0  0  0  0
  -24.6621  -27.9426   21.2197 N   0  0  0  0  0  0  0  0  0  0  0  0
  -27.2745  -13.2879   19.8658 N   0  0  0  0  0  0  0  0  0  0  0  0
  -32.1043  -14.4001   21.7808 N   0  0  0  0  0  0  0  0  0  0  0  0
  -33.1128  -18.7839   22.1831 N   0  0  0  0  0  0  0  0  0  0  0  0
  -21.3594  -28.9408   22.1282 N   0  0  0  0  0  0  0  0  0  0  0  0
  -27.8194  -29.1442   21.0043 N   0  0  0  0  0  0  0  0  0  0  0  0
  -30.4405  -26.8192   21.8942 N   0  3  0  0  0  0  0  0  0  0  0  0
  -33.8241  -16.6578   22.6652 O   0  0  0  0  0  0  0  0  0  0  0  0
  -22.2769  -28.2354   20.1076 O   0  0  0  0  0  0  0  0  0  0  0  0
  -25.3719  -29.8850   22.2965 O   0  0  0  0  0  0  0  0  0  0  0  0
  -25.9825  -11.4742   20.5298 O   0  0  0  0  0  0  0  0  0  0  0  0
  -28.4822  -27.2091   19.9119 O   0  0  0  0  0  0  0  0  0  0  0  0
  -30.0913  -23.0487   20.2551 O   0  0  0  0  0  0  0  0  0  0  0  0
  -23.7722  -22.5355   18.3869 O   0  0  0  0  0  0  0  0  0  1  0  0
  -25.1709  -18.7056   19.4441 O   0  0  0  0  0  0  0  0  0  0  0  0
  -28.5673  -24.9262   15.2997 F   0  0  0  0  0  0  0  0  0  0  0  0
  -31.6918  -24.8141   18.8536 F   0  0  0  0  0  0  0  0  0  0  0  0
  -23.4811  -12.8783   20.3031 F   0  0  0  0  0  0  0  0  0  0  0  0
  -24.0983  -11.6628   21.9989 F   0  0  0  0  0  0  0  0  0  0  0  0
  -25.5109  -14.1862   23.7970 F   0  0  0  0  0  0  0  0  0  0  0  0
  -26.1661  -12.1631   23.2945 F   0  0  0  0  0  0  0  0  0  0  0  0
  -27.4318  -13.8700   22.8383 F   0  0  0  0  0  0  0  0  0  0  0  0
  -22.6683  -14.8794   22.0296 F   0  0  0  0  0  0  0  0  0  0  0  0
  -21.7616  -12.9312   22.4163 F   0  0  0  0  0  0  0  0  0  0  0  0
  -23.3384  -13.6724   23.7140 F   0  0  0  0  0  0  0  0  0  0  0  0
  1  2  1  0  0  0  0
  1  5  2  0  0  0  0
  2  6  2  0  0  0  0
  3  8  2  0  0  0  0
  3 17  1  0  0  0  0
  4  9  1  0  0  0  0
  4 17  2  0  0  0  0
  5 19  1  0  0  0  0
  6 21  1  0  0  0  0
  7 10  2  0  0  0  0
  7 20  1  0  0  0  0
  8 23  1  0  0  0  0
  9 23  2  0  0  0  0
 10 24  1  0  0  0  0
 11 12  2  0  0  0  0
 11 25  1  0  0  0  0
 12 26  1  0  0  0  0
 13 22  1  0  0  0  0
 13 24  2  0  0  0  0
 14 26  2  0  0  0  0
 14 27  1  0  0  0  0
 15 29  2  0  0  0  0
 15 65  1  0  0  0  0
 16 30  1  0  0  0  0
 16 64  2  0  0  0  0
 17 28  1  0  0  0  0
 18 28  1  0  0  0  0
 18 31  2  0  0  0  0
 18 32  1  0  0  0  0
 19 21  2  0  0  0  0
 19 37  1  0  0  0  0
 20 22  2  0  0  0  0
 20 38  1  0  0  0  0
 21 46  1  0  0  0  0
 22 39  1  0  0  0  0
 23 80  1  0  0  0  0
 24 81  1  0  0  0  0
 25 27  2  0  0  0  0
 25 80  1  0  0  0  0
 26 83  1  0  0  0  0
 27 84  1  0  0  0  0
 28 66  2  0  0  0  0
 29 59  1  0  0  0  0
 29 64  1  0  0  0  0
 30 65  2  0  0  0  0
 30 82  1  0  0  0  0
 31 67  1  0  0  0  0
 31 70  1  0  0  0  0
 32 71  1  0  0  0  0
 32 75  2  0  0  0  0
 33 47  1  0  0  0  0
 33 72  1  0  0  0  0
 33 76  2  0  0  0  0
 34 57  1  0  0  0  0
 34 68  1  0  0  0  0
 34 77  2  0  0  0  0
 35 59  1  0  0  0  0
 35 69  1  0  0  0  0
 35 78  2  0  0  0  0
 36 58  1  0  0  0  0
 36 73  1  0  0  0  0
 36 79  2  0  0  0  0
 37 40  1  0  0  0  0
 38 47  1  0  0  0  0
 39 68  1  0  0  0  0
 40 42  1  0  0  0  0
 41 43  1  0  0  0  0
 41 44  1  0  0  0  0
 42 46  1  0  0  0  0
 43 48  1  0  0  0  0
 44 69  1  0  0  0  0
 45 48  1  0  0  0  0
 45 69  1  0  0  0  0
 46 72  1  0  0  0  0
 47 68  1  0  0  0  0
 48 67  1  0  0  0  0
 49 58  1  0  0  0  0
 50 60  1  0  0  0  0
 51 60  1  0  0  0  0
 52 60  1  0  0  0  0
 53 74  1  0  0  0  0
 54 55  1  0  0  0  0
 54 56  1  0  0  0  0
 55 81  1  0  0  0  0
 56 82  1  0  0  0  0
 57 60  1  0  0  0  0
 57 73  1  0  0  0  0
 58 74  1  0  0  0  0
 59 61  1  0  0  0  0
 59 62  1  0  0  0  0
 61 63  1  0  0  0  0
 61 85  1  0  0  0  0
 61 86  1  0  0  0  0
 62 87  1  0  0  0  0
 62 88  1  0  0  0  0
 62 89  1  0  0  0  0
 63 90  1  0  0  0  0
 63 91  1  0  0  0  0
 63 92  1  0  0  0  0
 66 67  1  0  0  0  0
M  CHG  1  74   1
M  ISO  4  35 100  55 101  59 100  81 101
M  END
> <Batch ID>
0067

> <Smiles>
CNC(C)C(=O)NC(C(=O)N1Cc2cc([101O:1][101CH2:1]CCOc3cnc([100C:0]([100C:0](=O)N4CCCC(n5nc(-c6ccc(Oc7ccc(F)cc7F)cc6)c(C(N)=O)c5N)C4)(C(F)(F)F)C(F)(F)C(F)(F)F)cn3)ccc2CC1C(=O)NC1CCCc2ccccc21)C(C)(C)C

> <Shape>
0.291

> <Color>
0.085

> <Negative vol penalty>
0.000

$$$$

  -OEChem-04052318122D

  0  0  0     0  0  0  0  0  0999 V2000
M  END
$$$$

  -OEChem-04052318123D

 92100  0     1  0  0  0  0  0999 V2000
  -27.6246  -34.7783   22.4067 C   0  0  0  0  0  0  0  0  0  0  0  0
  -27.8618  -33.4236   22.1973 C   0  0  0  0  0  0  0  0  0  0  0  0
  -24.0450   -9.5228   22.3119 C   0  0  0  0  0  0  0  0  0  0  0  0
  -23.4154   -9.6899   19.9854 C   0  0  0  0  0  0  0  0  0  0  0  0
  -26.4598  -35.1890   23.0537 C   0  0  0  0  0  0  0  0  0  0  0  0
  -26.9349  -32.4786   22.6358 C   0  0  0  0  0  0  0  0  0  0  0  0
  -26.0205  -28.9008   19.1705 C   0  0  0  0  0  0  0  0  0  0  0  0
  -23.0508   -8.5653   22.5122 C   0  0  0  0  0  0  0  0  0  0  0  0
  -22.4211   -8.7323   20.1857 C   0  0  0  0  0  0  0  0  0  0  0  0
  -26.9723  -27.8917   19.0308 C   0  0  0  0  0  0  0  0  0  0  0  0
  -22.6183   -5.2633   21.9268 C   0  0  0  0  0  0  0  0  0  0  0  0
  -22.9530   -4.1247   22.6597 C   0  0  0  0  0  0  0  0  0  0  0  0
  -25.6036  -26.4237   20.3691 C   0  0  0  0  0  0  0  0  0  0  0  0
  -21.2518   -4.6714   24.2858 C   0  0  0  0  0  0  0  0  0  0  0  0
  -24.2273  -10.0851   21.0485 C   0  0  0  0  0  0  0  0  0  0  0  0
  -26.5905  -10.8466   20.4627 C   0  0  0  0  0  0  0  0  0  0  0  0
  -25.5135  -34.2491   23.4917 C   0  0  0  0  0  0  0  0  0  0  0  0
  -24.8562  -28.6821   19.9210 C   0  0  0  0  0  0  0  0  0  0  0  0
  -25.7570  -32.8770   23.2904 C   0  0  0  0  0  0  0  0  0  0  0  0
  -24.6374  -27.4309   20.5147 C   0  0  0  0  0  0  0  0  0  0  0  0
  -22.2388   -8.1700   21.4491 C   0  0  0  0  0  0  0  0  0  0  0  0
  -26.7653  -26.6539   19.6325 C   0  0  0  0  0  0  0  0  0  0  0  0
  -21.6003   -6.1059   22.3734 C   0  0  0  0  0  0  0  0  0  0  0  0
  -22.2698   -3.8287   23.8392 C   0  0  0  0  0  0  0  0  0  0  0  0
  -20.9171   -5.8100   23.5529 C   0  0  0  0  0  0  0  0  0  0  0  0
  -25.2539  -11.0747   20.8410 C   0  0  0  0  0  0  0  0  0  0  0  0
  -27.1486  -12.1001   20.4009 C   0  0  0  0  0  0  0  0  0  0  0  0
  -29.8727  -19.4930   20.9845 C   0  0  0  0  0  0  0  0  0  0  0  0
  -30.3969  -20.9780   19.3856 C   0  0  0  0  0  0  0  0  0  0  0  0
  -30.1143  -18.8148   18.8588 C   0  0  0  0  0  0  0  0  0  0  0  0
  -27.2672   -9.6120   20.1914 C   0  0  0  0  0  0  0  0  0  0  0  0
  -23.6031  -29.9692   22.5433 C   0  0  0  0  0  0  0  0  0  0  0  0
  -21.0946  -28.0445   21.8186 C   0  0  0  0  0  0  0  0  0  0  0  0
  -19.9558  -25.2383   20.2455 C   0  0  0  0  0  0  0  0  0  0  0  0
  -26.9140  -17.4616   18.8697 C   0  0  0  0  0  0  0  0  0  0  0  0
  -24.2918  -34.7383   24.2284 C   0  0  0  0  0  0  0  0  0  0  0  0
  -23.8267  -29.7722   20.0399 C   0  0  0  0  0  0  0  0  0  0  0  0
  -23.3946  -27.1388   21.3138 C   0  0  0  0  0  0  0  0  0  0  0  0
  -23.1823  -33.6945   24.3285 C   0  0  0  0  0  0  0  0  0  0  0  0
  -25.3732  -16.5746   21.9544 C   0  0  0  0  0  0  0  0  0  0  0  0
  -23.7542  -32.3472   24.7580 C   0  0  0  0  0  0  0  0  0  0  0  0
  -25.3095  -15.0470   21.9056 C   0  0  0  0  0  0  0  0  0  0  0  0
  -25.1402  -17.1935   20.5780 C   0  0  0  0  0  0  0  0  0  0  0  0
  -25.9568  -15.1532   19.4625 C   0  0  0  0  0  0  0  0  0  0  0  0
  -24.7636  -31.8232   23.7294 C   0  0  1  0  0  0  0  0  0  0  0  0
  -22.9194  -29.6072   21.2552 C   0  0  1  0  0  0  0  0  0  0  0  0
  -26.2413  -14.4815   20.8168 C   0  0  2  0  0  0  0  0  0  0  0  0
  -28.3208  -19.9092   22.9267 C   0  0  0  0  0  0  0  0  0  0  0  0
  -30.7718  -19.4880   23.3394 C   0  0  0  0  0  0  0  0  0  0  0  0
  -17.8640  -23.9055   19.8637 C   0  0  0  0  0  0  0  0  0  0  0  0
  -31.9850  -22.8486   19.7573 C   0  0  0  0  0  0  0  0  0  0  0  0
  -31.0973  -22.5675   17.4712 C   0  0  0  0  0  0  0  0  0  0  0  0
  -30.4933  -16.3019   18.3707 C   0  0  0  0  0  0  0  0  0  0  0  0
  -31.1280  -18.0258   16.7030 C   0  0  0  0  0  0  0  0  0  0  0  0
  -21.2834  -26.9399   24.6565 C   0  0  0  0  0  0  0  0  0  0  0  0
  -19.8595  -25.0141   23.9270 C   0  0  0  0  0  0  0  0  0  0  0  0
  -18.9515  -27.3360   23.8443 C   0  0  0  0  0  0  0  0  0  0  0  0
  -28.1610  -23.8998   17.2457 C   0  0  0  0  0  0  0  0  0  0  0  0
  -27.5171  -21.9848   18.7267 C   0  0  0  0  0  0  0  0  0  0  0  0
  -20.1036  -25.6279   17.3154 C   0  0  0  0  0  0  0  0  0  0  0  0
  -29.5802  -23.4442   19.3362 C   0  0  0  0  0  0  0  0  0  0  0  0
  -28.6976  -17.5673   17.1473 C   0  0  0  0  0  0  0  0  0  0  0  0
  -27.2184  -24.3218   19.5224 C   0  0  0  0  0  0  0  0  0  1  0  0
  -29.5790  -19.1835   22.4130 C   0  0  0  0  0  0  0  0  0  0  0  0
  -20.6999  -26.6282   22.1608 C   0  0  1  0  0  0  0  0  0  0  0  0
  -18.7656  -25.0086   19.3316 C   0  0  2  0  0  0  0  0  0  0  0  0
  -30.7169  -22.4251   18.9602 C   0  0  0  0  0  0  0  0  0  0  0  0
  -30.0985  -17.7251   17.8415 C   0  0  0  0  0  0  0  0  0  0  0  0
  -20.2230  -26.4854   23.6338 C   0  0  0  0  0  0  0  0  0  0  0  0
  -28.1485  -23.3833   18.7003 C   0  0  0  0  0  0  0  0  0  0  0  0
  -24.9793  -12.3712   21.0080 N   0  0  0  0  0  0  0  0  0  0  0  0
  -30.1426  -20.7747   20.6882 N   0  0  0  0  0  0  0  0  0  0  0  0
  -29.8403  -18.4618   20.1250 N   0  0  0  0  0  0  0  0  0  0  0  0
  -30.4010  -20.0495   18.4156 N   0  0  0  0  0  0  0  0  0  0  0  0
  -26.1512  -12.9690   20.7333 N   0  0  0  0  0  0  0  0  0  0  0  0
  -22.4205  -28.2388   21.4065 N   0  0  0  0  0  0  0  0  0  0  0  0
  -26.0564  -16.6154   19.5919 N   0  0  0  0  0  0  0  0  0  0  0  0
  -28.3902  -12.5328   20.0952 N   0  0  0  0  0  0  0  0  0  0  0  0
  -26.5449   -8.4160   20.3017 N   0  0  0  0  0  0  0  0  0  0  0  0
  -24.0757  -31.2671   22.5840 N   0  0  0  0  0  0  0  0  0  0  0  0
  -19.7060  -26.2305   21.1697 N   0  0  0  0  0  0  0  0  0  0  0  0
  -27.7544  -16.8319   17.9599 N   0  0  0  0  0  0  0  0  0  0  0  0
  -19.2265  -24.6220   17.9681 N   0  3  0  0  0  0  0  0  0  0  0  0
  -28.4808   -9.5696   19.8768 O   0  0  0  0  0  0  0  0  0  0  0  0
  -23.6937  -29.1334   23.4349 O   0  0  0  0  0  0  0  0  0  0  0  0
  -20.2552  -28.9442   21.9065 O   0  0  0  0  0  0  0  0  0  0  0  0
  -21.0010  -24.5987   20.1514 O   0  0  0  0  0  0  0  0  0  0  0  0
  -26.9333  -18.6870   19.0281 O   0  0  0  0  0  0  0  0  0  0  0  0
  -21.2686   -7.2355   21.6442 O   0  0  0  0  0  0  0  0  0  0  0  0
  -27.6930  -25.6674   19.4982 O   0  0  0  0  0  0  0  0  0  1  0  0
  -22.5903   -2.7345   24.5422 F   0  0  0  0  0  0  0  0  0  0  0  0
  -19.9374   -6.6151   23.9863 F   0  0  0  0  0  0  0  0  0  0  0  0
  1  2  1  0  0  0  0
  1  5  2  0  0  0  0
  2  6  2  0  0  0  0
  3  8  2  0  0  0  0
  3 15  1  0  0  0  0
  4  9  1  0  0  0  0
  4 15  2  0  0  0  0
  5 17  1  0  0  0  0
  6 19  1  0  0  0  0
  7 10  2  0  0  0  0
  7 18  1  0  0  0  0
  8 21  1  0  0  0  0
  9 21  2  0  0  0  0
 10 22  1  0  0  0  0
 11 12  2  0  0  0  0
 11 23  1  0  0  0  0
 12 24  1  0  0  0  0
 13 20  1  0  0  0  0
 13 22  2  0  0  0  0
 14 24  2  0  0  0  0
 14 25  1  0  0  0  0
 15 26  1  0  0  0  0
 16 26  1  0  0  0  0
 16 27  2  0  0  0  0
 16 31  1  0  0  0  0
 17 19  2  0  0  0  0
 17 36  1  0  0  0  0
 18 20  2  0  0  0  0
 18 37  1  0  0  0  0
 19 45  1  0  0  0  0
 20 38  1  0  0  0  0
 21 89  1  0  0  0  0
 22 90  1  0  0  0  0
 23 25  2  0  0  0  0
 23 89  1  0  0  0  0
 24 91  1  0  0  0  0
 25 92  1  0  0  0  0
 26 71  2  0  0  0  0
 27 75  1  0  0  0  0
 27 78  1  0  0  0  0
 28 64  1  0  0  0  0
 28 72  2  0  0  0  0
 28 73  1  0  0  0  0
 29 67  1  0  0  0  0
 29 72  1  0  0  0  0
 29 74  2  0  0  0  0
 30 68  1  0  0  0  0
 30 73  2  0  0  0  0
 30 74  1  0  0  0  0
 31 79  1  0  0  0  0
 31 84  2  0  0  0  0
 32 46  1  0  0  0  0
 32 80  1  0  0  0  0
 32 85  2  0  0  0  0
 33 65  1  0  0  0  0
 33 76  1  0  0  0  0
 33 86  2  0  0  0  0
 34 66  1  0  0  0  0
 34 81  1  0  0  0  0
 34 87  2  0  0  0  0
 35 77  1  0  0  0  0
 35 82  1  0  0  0  0
 35 88  2  0  0  0  0
 36 39  1  0  0  0  0
 37 46  1  0  0  0  0
 38 76  1  0  0  0  0
 39 41  1  0  0  0  0
 40 42  1  0  0  0  0
 40 43  1  0  0  0  0
 41 45  1  0  0  0  0
 42 47  1  0  0  0  0
 43 77  1  0  0  0  0
 44 47  1  0  0  0  0
 44 77  1  0  0  0  0
 45 80  1  0  0  0  0
 46 76  1  0  0  0  0
 47 75  1  0  0  0  0
 48 64  1  0  0  0  0
 49 64  1  0  0  0  0
 50 66  1  0  0  0  0
 51 67  1  0  0  0  0
 52 67  1  0  0  0  0
 53 68  1  0  0  0  0
 54 68  1  0  0  0  0
 55 69  1  0  0  0  0
 56 69  1  0  0  0  0
 57 69  1  0  0  0  0
 58 70  1  0  0  0  0
 59 70  1  0  0  0  0
 60 83  1  0  0  0  0
 61 67  1  0  0  0  0
 61 70  1  0  0  0  0
 62 68  1  0  0  0  0
 62 82  1  0  0  0  0
 63 70  1  0  0  0  0
 63 90  1  0  0  0  0
 65 69  1  0  0  0  0
 65 81  1  0  0  0  0
 66 83  1  0  0  0  0
 71 75  1  0  0  0  0
M  CHG  1  83   1
M  ISO  4  35 100  63 101  82 100  90 101
M  END
> <Batch ID>
0067

> <Smiles>
CNC(C)C(=O)NC(C(=O)N1Cc2cc([101O:1][101CH2:1]C(C)(C)CC(C)(C)c3nc(C(C)C)nc(C(C)(C)C[100NH:0][100C:0](=O)N4CCCC(n5nc(-c6ccc(Oc7ccc(F)cc7F)cc6)c(C(N)=O)c5N)C4)n3)ccc2CC1C(=O)NC1CCCc2ccccc21)C(C)(C)C

> <Shape>
0.336

> <Color>
0.094

> <Negative vol penalty>
0.000

$$$$

  -OEChem-04052318123D

 84 92  0     1  0  0  0  0  0999 V2000
  -27.1715  -29.8163   31.1588 C   0  0  0  0  0  0  0  0  0  0  0  0
  -26.5039  -28.6518   30.7932 C   0  0  0  0  0  0  0  0  0  0  0  0
  -23.0891   -9.8496   19.9699 C   0  0  0  0  0  0  0  0  0  0  0  0
  -23.8359   -9.9059   22.2669 C   0  0  0  0  0  0  0  0  0  0  0  0
  -27.7264  -30.6375   30.1781 C   0  0  0  0  0  0  0  0  0  0  0  0
  -26.3898  -28.3084   29.4465 C   0  0  0  0  0  0  0  0  0  0  0  0
  -26.1214  -22.5840   25.1482 C   0  0  0  0  0  0  0  0  0  0  0  0
  -22.3486   -8.6986   20.2388 C   0  0  0  0  0  0  0  0  0  0  0  0
  -23.0954   -8.7548   22.5359 C   0  0  0  0  0  0  0  0  0  0  0  0
  -25.3385  -22.0346   24.1338 C   0  0  0  0  0  0  0  0  0  0  0  0
  -19.3955   -7.9188   21.6893 C   0  0  0  0  0  0  0  0  0  0  0  0
  -18.0916   -7.8573   21.1978 C   0  0  0  0  0  0  0  0  0  0  0  0
  -26.4052  -23.4885   22.5314 C   0  0  0  0  0  0  0  0  0  0  0  0
  -18.6668   -5.8904   19.9180 C   0  0  0  0  0  0  0  0  0  0  0  0
  -27.1370  -19.1641   21.7142 C   0  0  0  0  0  0  0  0  0  0  0  0
  -23.8329  -10.4532   20.9839 C   0  0  0  0  0  0  0  0  0  0  0  0
  -24.1649  -12.9769   20.8150 C   0  0  0  0  0  0  0  0  0  0  0  0
  -27.6274  -30.2990   28.8193 C   0  0  0  0  0  0  0  0  0  0  0  0
  -27.0459  -23.5992   24.8631 C   0  0  0  0  0  0  0  0  0  0  0  0
  -26.9427  -29.1266   28.4467 C   0  0  0  0  0  0  0  0  0  0  0  0
  -27.2004  -24.0473   23.5435 C   0  0  0  0  0  0  0  0  0  0  0  0
  -26.4377  -19.0399   20.5310 C   0  0  0  0  0  0  0  0  0  0  0  0
  -22.3517   -8.1512   21.5218 C   0  0  0  0  0  0  0  0  0  0  0  0
  -25.4783  -22.4888   22.8256 C   0  0  0  0  0  0  0  0  0  0  0  0
  -20.3351   -6.9662   21.2952 C   0  0  0  0  0  0  0  0  0  0  0  0
  -17.7272   -6.8431   20.3122 C   0  0  0  0  0  0  0  0  0  0  0  0
  -19.9708   -5.9520   20.4096 C   0  0  0  0  0  0  0  0  0  0  0  0
  -24.5985  -11.6420   20.7066 C   0  0  0  0  0  0  0  0  0  0  0  0
  -27.1658  -18.5800   19.4528 C   0  0  0  0  0  0  0  0  0  0  0  0
  -25.2560  -13.7236   20.4429 C   0  0  0  0  0  0  0  0  0  0  0  0
  -29.0448  -18.4263   20.7228 C   0  0  0  0  0  0  0  0  0  0  0  0
  -22.8900  -13.4956   21.2163 C   0  0  0  0  0  0  0  0  0  0  0  0
  -27.4029  -26.6260   25.7656 C   0  0  0  0  0  0  0  0  0  0  0  0
  -30.1733  -26.3896   24.0948 C   0  0  0  0  0  0  0  0  0  0  0  0
  -31.9467  -24.8303   21.6310 C   0  0  0  0  0  0  0  0  0  0  0  0
  -30.7344  -14.7694   20.6414 C   0  0  0  0  0  0  0  0  0  0  0  0
  -28.2022  -31.2423   27.7925 C   0  0  0  0  0  0  0  0  0  0  0  0
  -27.9018  -24.1627   25.9642 C   0  0  0  0  0  0  0  0  0  0  0  0
  -28.1930  -25.1208   23.1817 C   0  0  0  0  0  0  0  0  0  0  0  0
  -28.3623  -30.6142   26.4104 C   0  0  0  0  0  0  0  0  0  0  0  0
  -29.6202  -12.3326   18.2968 C   0  0  0  0  0  0  0  0  0  0  0  0
  -27.0985  -29.8548   26.0195 C   0  0  0  0  0  0  0  0  0  0  0  0
  -28.1816  -12.0416   18.7274 C   0  0  0  0  0  0  0  0  0  0  0  0
  -30.5296  -12.5814   19.4981 C   0  0  0  0  0  0  0  0  0  0  0  0
  -28.6170  -13.3322   20.8590 C   0  0  0  0  0  0  0  0  0  0  0  0
  -26.8195  -28.7074   26.9978 C   0  0  1  0  0  0  0  0  0  0  0  0
  -28.4466  -25.5517   25.6459 C   0  0  1  0  0  0  0  0  0  0  0  0
  -27.6503  -13.1298   19.6797 C   0  0  2  0  0  0  0  0  0  0  0  0
  -26.5135  -18.4057   18.1210 C   0  0  0  0  0  0  0  0  0  0  0  0
  -31.3499  -19.3154   21.1916 C   0  0  0  0  0  0  0  0  0  0  0  0
  -33.9185  -24.2538   20.1898 C   0  0  0  0  0  0  0  0  0  0  0  0
  -29.3016  -28.8665   22.5409 C   0  0  0  0  0  0  0  0  0  0  0  0
  -31.0358  -28.3130   20.8220 C   0  0  0  0  0  0  0  0  0  0  0  0
  -31.7231  -28.8251   23.1647 C   0  0  0  0  0  0  0  0  0  0  0  0
  -32.8774  -22.7607   23.5309 C   0  0  0  0  0  0  0  0  0  0  0  0
  -24.9737  -19.3914   20.4487 C   0  0  0  0  0  0  0  0  0  0  0  0
  -24.7000  -20.7343   19.7681 C   0  0  0  0  0  0  0  0  0  0  0  0
  -30.7843  -16.9447   21.8351 C   0  0  0  0  0  0  0  0  0  0  0  0
  -25.2807  -21.9237   20.5240 C   0  0  0  0  0  0  0  0  0  1  0  0
  -30.4926  -18.0848   20.8293 C   0  0  1  0  0  0  0  0  0  0  0  0
  -30.5804  -26.6268   22.6606 C   0  0  1  0  0  0  0  0  0  0  0  0
  -33.3593  -24.2750   21.6038 C   0  0  2  0  0  0  0  0  0  0  0  0
  -30.6401  -28.1390   22.3039 C   0  0  0  0  0  0  0  0  0  0  0  0
  -28.4460  -18.8651   21.8463 N   0  0  0  0  0  0  0  0  0  0  0  0
  -25.8661  -11.5431   20.2974 N   0  0  0  0  0  0  0  0  0  0  0  0
  -28.4758  -18.2627   19.5132 N   0  0  0  0  0  0  0  0  0  0  0  0
  -26.2384  -12.8254   20.1454 N   0  0  0  0  0  0  0  0  0  0  0  0
  -29.0023  -25.6449   24.2943 N   0  0  0  0  0  0  0  0  0  0  0  0
  -29.9697  -13.6252   20.3601 N   0  0  0  0  0  0  0  0  0  0  0  0
  -25.4613  -15.0542   20.3442 N   0  0  0  0  0  0  0  0  0  0  0  0
  -21.8799  -12.5891   21.5662 N   0  0  0  0  0  0  0  0  0  0  0  0
  -27.6882  -27.5838   26.7199 N   0  0  0  0  0  0  0  0  0  0  0  0
  -31.8415  -25.9181   22.4717 N   0  0  0  0  0  0  0  0  0  0  0  0
  -30.1266  -15.7124   21.4612 N   0  0  0  0  0  0  0  0  0  0  0  0
  -33.3794  -22.8840   22.1381 N   0  3  0  0  0  0  0  0  0  0  0  0
  -22.6483  -14.7261   21.2476 O   0  0  0  0  0  0  0  0  0  0  0  0
  -26.4129  -26.5896   25.0444 O   0  0  0  0  0  0  0  0  0  0  0  0
  -30.8726  -26.8421   25.0047 O   0  0  0  0  0  0  0  0  0  0  0  0
  -31.0292  -24.3495   20.9694 O   0  0  0  0  0  0  0  0  0  0  0  0
  -31.8721  -14.9406   20.1907 O   0  0  0  0  0  0  0  0  0  0  0  0
  -21.6291   -7.0282   21.7847 O   0  0  0  0  0  0  0  0  0  0  0  0
  -24.7150  -21.9547   21.8337 O   0  0  0  0  0  0  0  0  0  1  0  0
  -16.4747   -6.7832   19.8414 F   0  0  0  0  0  0  0  0  0  0  0  0
  -20.8688   -5.0333   20.0282 F   0  0  0  0  0  0  0  0  0  0  0  0
  1  2  1  0  0  0  0
  1  5  2  0  0  0  0
  2  6  2  0  0  0  0
  3  8  2  0  0  0  0
  3 16  1  0  0  0  0
  4  9  1  0  0  0  0
  4 16  2  0  0  0  0
  5 18  1  0  0  0  0
  6 20  1  0  0  0  0
  7 10  2  0  0  0  0
  7 19  1  0  0  0  0
  8 23  1  0  0  0  0
  9 23  2  0  0  0  0
 10 24  1  0  0  0  0
 11 12  2  0  0  0  0
 11 25  1  0  0  0  0
 12 26  1  0  0  0  0
 13 21  1  0  0  0  0
 13 24  2  0  0  0  0
 14 26  2  0  0  0  0
 14 27  1  0  0  0  0
 15 22  1  0  0  0  0
 15 64  2  0  0  0  0
 16 28  1  0  0  0  0
 17 28  1  0  0  0  0
 17 30  2  0  0  0  0
 17 32  1  0  0  0  0
 18 20  2  0  0  0  0
 18 37  1  0  0  0  0
 19 21  2  0  0  0  0
 19 38  1  0  0  0  0
 20 46  1  0  0  0  0
 21 39  1  0  0  0  0
 22 29  2  0  0  0  0
 22 56  1  0  0  0  0
 23 81  1  0  0  0  0
 24 82  1  0  0  0  0
 25 27  2  0  0  0  0
 25 81  1  0  0  0  0
 26 83  1  0  0  0  0
 27 84  1  0  0  0  0
 28 65  2  0  0  0  0
 29 49  1  0  0  0  0
 29 66  1  0  0  0  0
 30 67  1  0  0  0  0
 30 70  1  0  0  0  0
 31 60  1  0  0  0  0
 31 64  1  0  0  0  0
 31 66  2  0  0  0  0
 32 71  1  0  0  0  0
 32 76  2  0  0  0  0
 33 47  1  0  0  0  0
 33 72  1  0  0  0  0
 33 77  2  0  0  0  0
 34 61  1  0  0  0  0
 34 68  1  0  0  0  0
 34 78  2  0  0  0  0
 35 62  1  0  0  0  0
 35 73  1  0  0  0  0
 35 79  2  0  0  0  0
 36 69  1  0  0  0  0
 36 74  1  0  0  0  0
 36 80  2  0  0  0  0
 37 40  1  0  0  0  0
 38 47  1  0  0  0  0
 39 68  1  0  0  0  0
 40 42  1  0  0  0  0
 41 43  1  0  0  0  0
 41 44  1  0  0  0  0
 42 46  1  0  0  0  0
 43 48  1  0  0  0  0
 44 69  1  0  0  0  0
 45 48  1  0  0  0  0
 45 69  1  0  0  0  0
 46 72  1  0  0  0  0
 47 68  1  0  0  0  0
 48 67  1  0  0  0  0
 50 60  1  0  0  0  0
 51 62  1  0  0  0  0
 52 63  1  0  0  0  0
 53 63  1  0  0  0  0
 54 63  1  0  0  0  0
 55 75  1  0  0  0  0
 56 57  1  0  0  0  0
 57 59  1  0  0  0  0
 58 60  1  0  0  0  0
 58 74  1  0  0  0  0
 59 82  1  0  0  0  0
 61 63  1  0  0  0  0
 61 73  1  0  0  0  0
 62 75  1  0  0  0  0
 65 67  1  0  0  0  0
M  CHG  1  75   1
M  ISO  4  36 100  59 101  74 100  82 101
M  END
> <Batch ID>
0067

> <Smiles>
CNC(C)C(=O)NC(C(=O)N1Cc2cc([101O:1][101CH2:1]CCc3cnc(C(C)C[100NH:0][100C:0](=O)N4CCCC(n5nc(-c6ccc(Oc7ccc(F)cc7F)cc6)c(C(N)=O)c5N)C4)nc3C)ccc2CC1C(=O)NC1CCCc2ccccc21)C(C)(C)C

> <Shape>
0.194

> <Color>
0.188

> <Negative vol penalty>
0.000

$$$$

  -OEChem-04052318123D

 91 99  0     1  0  0  0  0  0999 V2000
  -28.5749  -35.0143   24.8601 C   0  0  0  0  0  0  0  0  0  0  0  0
  -29.2490  -33.8658   24.4577 C   0  0  0  0  0  0  0  0  0  0  0  0
  -23.1431  -13.8682   22.8538 C   0  0  0  0  0  0  0  0  0  0  0  0
  -23.1167  -14.9879   20.7131 C   0  0  0  0  0  0  0  0  0  0  0  0
  -27.1882  -34.9931   25.0034 C   0  0  0  0  0  0  0  0  0  0  0  0
  -28.5368  -32.6950   24.1995 C   0  0  0  0  0  0  0  0  0  0  0  0
  -28.6458  -26.9109   19.9748 C   0  0  0  0  0  0  0  0  0  0  0  0
  -22.1933  -14.7686   23.3365 C   0  0  0  0  0  0  0  0  0  0  0  0
  -22.1669  -15.8882   21.1957 C   0  0  0  0  0  0  0  0  0  0  0  0
  -28.5963  -25.5197   20.0519 C   0  0  0  0  0  0  0  0  0  0  0  0
  -22.1168  -18.6499   23.1455 C   0  0  0  0  0  0  0  0  0  0  0  0
  -22.3064  -20.0034   22.8667 C   0  0  0  0  0  0  0  0  0  0  0  0
  -26.1949  -25.6226   20.2564 C   0  0  0  0  0  0  0  0  0  0  0  0
  -28.3863  -17.0469   17.3826 C   0  0  0  0  0  0  0  0  0  0  0  0
  -20.1933  -20.0586   21.6968 C   0  0  0  0  0  0  0  0  0  0  0  0
  -23.6048  -13.9779   21.5422 C   0  0  0  0  0  0  0  0  0  0  0  0
  -24.3440  -11.8186   20.4027 C   0  0  0  0  0  0  0  0  0  0  0  0
  -26.4577  -33.8242   24.7376 C   0  0  0  0  0  0  0  0  0  0  0  0
  -27.4693  -27.6702   20.0490 C   0  0  0  0  0  0  0  0  0  0  0  0
  -27.1392  -32.6578   24.3408 C   0  0  0  0  0  0  0  0  0  0  0  0
  -26.2320  -27.0232   20.1774 C   0  0  0  0  0  0  0  0  0  0  0  0
  -27.4565  -17.8868   17.9698 C   0  0  0  0  0  0  0  0  0  0  0  0
  -21.7052  -15.7786   22.5074 C   0  0  0  0  0  0  0  0  0  0  0  0
  -27.3710  -24.8755   20.1957 C   0  0  0  0  0  0  0  0  0  0  0  0
  -20.9654  -18.0007   22.6998 C   0  0  0  0  0  0  0  0  0  0  0  0
  -21.3447  -20.7078   22.1425 C   0  0  0  0  0  0  0  0  0  0  0  0
  -20.0037  -18.7050   21.9755 C   0  0  0  0  0  0  0  0  0  0  0  0
  -24.5864  -13.0486   21.0432 C   0  0  0  0  0  0  0  0  0  0  0  0
  -29.4942  -16.6901   18.1247 C   0  0  0  0  0  0  0  0  0  0  0  0
  -27.6959  -18.3140   19.2605 C   0  0  0  0  0  0  0  0  0  0  0  0
  -25.5949  -11.3228   20.1269 C   0  0  0  0  0  0  0  0  0  0  0  0
  -23.0996  -11.1813   20.0852 C   0  0  0  0  0  0  0  0  0  0  0  0
  -26.3447  -29.8752   22.0432 C   0  0  0  0  0  0  0  0  0  0  0  0
  -23.9645  -30.0858   19.8494 C   0  0  0  0  0  0  0  0  0  0  0  0
  -22.1990  -28.5949   17.3380 C   0  0  0  0  0  0  0  0  0  0  0  0
  -30.8767  -14.3853   19.6148 C   0  0  0  0  0  0  0  0  0  0  0  0
  -24.9649  -33.8366   24.9521 C   0  0  0  0  0  0  0  0  0  0  0  0
  -27.5373  -29.1687   19.9374 C   0  0  0  0  0  0  0  0  0  0  0  0
  -24.9381  -27.7915   20.2416 C   0  0  0  0  0  0  0  0  0  0  0  0
  -24.2456  -32.6601   24.2971 C   0  0  0  0  0  0  0  0  0  0  0  0
  -30.1064  -11.4248   21.6989 C   0  0  0  0  0  0  0  0  0  0  0  0
  -24.9755  -31.3546   24.5965 C   0  0  0  0  0  0  0  0  0  0  0  0
  -28.5803  -11.4522   21.7654 C   0  0  0  0  0  0  0  0  0  0  0  0
  -30.6913  -12.8219   21.5155 C   0  0  0  0  0  0  0  0  0  0  0  0
  -28.6145  -13.5839   20.4108 C   0  0  0  0  0  0  0  0  0  0  0  0
  -26.3993  -31.3755   24.0275 C   0  0  1  0  0  0  0  0  0  0  0  0
  -26.3234  -29.8685   20.5408 C   0  0  1  0  0  0  0  0  0  0  0  0
  -27.9913  -12.1867   20.5485 C   0  0  2  0  0  0  0  0  0  0  0  0
  -22.5268  -17.1468   17.2817 C   0  0  0  0  0  0  0  0  0  0  0  0
  -26.1204  -18.5415   21.1977 C   0  0  0  0  0  0  0  0  0  0  0  0
  -20.2882  -29.0017   15.7629 C   0  0  0  0  0  0  0  0  0  0  0  0
  -32.9845  -15.4149   16.8743 C   0  0  0  0  0  0  0  0  0  0  0  0
  -31.9769  -17.6811   16.6130 C   0  0  0  0  0  0  0  0  0  0  0  0
  -21.9904  -29.6372   22.1323 C   0  0  0  0  0  0  0  0  0  0  0  0
  -20.2400  -29.1088   20.4221 C   0  0  0  0  0  0  0  0  0  0  0  0
  -21.2892  -31.3714   20.4723 C   0  0  0  0  0  0  0  0  0  0  0  0
  -29.9516  -13.3890   17.5577 C   0  0  0  0  0  0  0  0  0  0  0  0
  -23.9391  -28.2885   14.9637 C   0  0  0  0  0  0  0  0  0  0  0  0
  -26.2429  -18.3019   17.2125 C   0  0  0  0  0  0  0  0  0  0  0  0
  -23.7535  -17.9376   16.8556 C   0  0  0  0  0  0  0  0  0  0  0  0
  -24.9875  -17.5362   17.6637 C   0  0  0  0  0  0  0  0  0  0  0  0
  -27.8016  -21.4226   19.1668 C   0  0  0  0  0  0  0  0  0  0  0  0
  -27.3490  -20.5892   20.3745 C   0  0  0  0  0  0  0  0  0  0  0  0
  -28.3340  -22.7898   19.5806 C   0  0  0  0  0  0  0  0  0  1  0  0
  -26.7211  -19.2376   19.9703 C   0  0  1  0  0  0  0  0  0  0  0  0
  -30.5257  -15.7882   17.5384 C   0  0  1  0  0  0  0  0  0  0  0  0
  -22.6361  -29.3987   19.6439 C   0  0  1  0  0  0  0  0  0  0  0  0
  -21.7935  -29.0889   15.9610 C   0  0  2  0  0  0  0  0  0  0  0  0
  -31.9630  -16.4010   17.4588 C   0  0  0  0  0  0  0  0  0  0  0  0
  -21.5633  -29.8643   20.6684 C   0  0  0  0  0  0  0  0  0  0  0  0
  -25.8888  -13.3175   21.1673 N   0  0  0  0  0  0  0  0  0  0  0  0
  -29.7030  -17.1233   19.3860 N   0  0  0  0  0  0  0  0  0  0  0  0
  -28.7889  -17.9484   19.9633 N   0  0  0  0  0  0  0  0  0  0  0  0
  -26.4761  -12.2496   20.6010 N   0  0  0  0  0  0  0  0  0  0  0  0
  -25.0574  -29.2550   20.1345 N   0  0  0  0  0  0  0  0  0  0  0  0
  -30.0831  -13.5137   20.3786 N   0  0  0  0  0  0  0  0  0  0  0  0
  -26.0160  -10.1887   19.5278 N   0  0  0  0  0  0  0  0  0  0  0  0
  -21.9080  -11.8287   20.4393 N   0  0  0  0  0  0  0  0  0  0  0  0
  -26.3765  -31.1396   22.5998 N   0  0  0  0  0  0  0  0  0  0  0  0
  -22.2700  -29.6265   18.2502 N   0  0  0  0  0  0  0  0  0  0  0  0
  -30.5573  -14.5148   18.2547 N   0  0  0  0  0  0  0  0  0  0  0  0
  -22.4548  -28.2740   14.9029 N   0  3  0  0  0  0  0  0  0  0  0  0
  -23.0460  -10.0631   19.5194 O   0  0  0  0  0  0  0  0  0  0  0  0
  -26.3316  -28.8121   22.6525 O   0  0  0  0  0  0  0  0  0  0  0  0
  -24.0315  -31.3137   19.7531 O   0  0  0  0  0  0  0  0  0  0  0  0
  -22.4262  -27.4118   17.5809 O   0  0  0  0  0  0  0  0  0  0  0  0
  -31.8230  -15.0046   20.1176 O   0  0  0  0  0  0  0  0  0  0  0  0
  -20.7782  -16.6571   22.9780 O   0  0  0  0  0  0  0  0  0  0  0  0
  -27.3198  -23.5178   20.2718 O   0  0  0  0  0  0  0  0  0  1  0  0
  -21.5262  -22.0079   21.8762 F   0  0  0  0  0  0  0  0  0  0  0  0
  -18.8950  -18.0870   21.5457 F   0  0  0  0  0  0  0  0  0  0  0  0
  1  2  1  0  0  0  0
  1  5  2  0  0  0  0
  2  6  2  0  0  0  0
  3  8  2  0  0  0  0
  3 16  1  0  0  0  0
  4  9  1  0  0  0  0
  4 16  2  0  0  0  0
  5 18  1  0  0  0  0
  6 20  1  0  0  0  0
  7 10  2  0  0  0  0
  7 19  1  0  0  0  0
  8 23  1  0  0  0  0
  9 23  2  0  0  0  0
 10 24  1  0  0  0  0
 11 12  2  0  0  0  0
 11 25  1  0  0  0  0
 12 26  1  0  0  0  0
 13 21  1  0  0  0  0
 13 24  2  0  0  0  0
 14 22  1  0  0  0  0
 14 29  2  0  0  0  0
 15 26  2  0  0  0  0
 15 27  1  0  0  0  0
 16 28  1  0  0  0  0
 17 28  1  0  0  0  0
 17 31  2  0  0  0  0
 17 32  1  0  0  0  0
 18 20  2  0  0  0  0
 18 37  1  0  0  0  0
 19 21  2  0  0  0  0
 19 38  1  0  0  0  0
 20 46  1  0  0  0  0
 21 39  1  0  0  0  0
 22 30  2  0  0  0  0
 22 59  1  0  0  0  0
 23 88  1  0  0  0  0
 24 89  1  0  0  0  0
 25 27  2  0  0  0  0
 25 88  1  0  0  0  0
 26 90  1  0  0  0  0
 27 91  1  0  0  0  0
 28 71  2  0  0  0  0
 29 66  1  0  0  0  0
 29 72  1  0  0  0  0
 30 65  1  0  0  0  0
 30 73  1  0  0  0  0
 31 74  1  0  0  0  0
 31 77  1  0  0  0  0
 32 78  1  0  0  0  0
 32 83  2  0  0  0  0
 33 47  1  0  0  0  0
 33 79  1  0  0  0  0
 33 84  2  0  0  0  0
 34 67  1  0  0  0  0
 34 75  1  0  0  0  0
 34 85  2  0  0  0  0
 35 68  1  0  0  0  0
 35 80  1  0  0  0  0
 35 86  2  0  0  0  0
 36 76  1  0  0  0  0
 36 81  1  0  0  0  0
 36 87  2  0  0  0  0
 37 40  1  0  0  0  0
 38 47  1  0  0  0  0
 39 75  1  0  0  0  0
 40 42  1  0  0  0  0
 41 43  1  0  0  0  0
 41 44  1  0  0  0  0
 42 46  1  0  0  0  0
 43 48  1  0  0  0  0
 44 76  1  0  0  0  0
 45 48  1  0  0  0  0
 45 76  1  0  0  0  0
 46 79  1  0  0  0  0
 47 75  1  0  0  0  0
 48 74  1  0  0  0  0
 49 60  1  0  0  0  0
 50 65  1  0  0  0  0
 51 68  1  0  0  0  0
 52 69  1  0  0  0  0
 53 69  1  0  0  0  0
 54 70  1  0  0  0  0
 55 70  1  0  0  0  0
 56 70  1  0  0  0  0
 57 81  1  0  0  0  0
 58 82  1  0  0  0  0
 59 61  1  0  0  0  0
 60 61  1  0  0  0  0
 62 63  1  0  0  0  0
 62 64  1  0  0  0  0
 63 65  1  0  0  0  0
 64 89  1  0  0  0  0
 66 69  1  0  0  0  0
 66 81  1  0  0  0  0
 67 70  1  0  0  0  0
 67 80  1  0  0  0  0
 68 82  1  0  0  0  0
 71 74  1  0  0  0  0
 72 73  2  0  0  0  0
M  CHG  1  82   1
M  ISO  4  36 100  64 101  81 100  89 101
M  END
> <Batch ID>
0067

> <Smiles>
CCCCc1cc(C(C(C)C)[100N:0](C)[100C:0](=O)N2CCCC(n3nc(-c4ccc(Oc5ccc(F)cc5F)cc4)c(C(N)=O)c3N)C2)nnc1C(C)CC[101CH2:1][101O:1]c1ccc2c(c1)CN(C(=O)C(NC(=O)C(C)NC)C(C)(C)C)C(C(=O)NC1CCCc3ccccc31)C2

> <Shape>
0.263

> <Color>
0.062

> <Negative vol penalty>
0.000

$$$$

  -OEChem-04052318123D

 85 93  0     1  0  0  0  0  0999 V2000
  -16.9804  -28.5167   24.0591 C   0  0  0  0  0  0  0  0  0  0  0  0
  -17.6076  -27.7105   23.1146 C   0  0  0  0  0  0  0  0  0  0  0  0
  -29.1477  -13.8866   20.7581 C   0  0  0  0  0  0  0  0  0  0  0  0
  -29.8122  -14.3956   18.4917 C   0  0  0  0  0  0  0  0  0  0  0  0
  -17.4552  -29.8054   24.2995 C   0  0  0  0  0  0  0  0  0  0  0  0
  -18.7093  -28.1930   22.4091 C   0  0  0  0  0  0  0  0  0  0  0  0
  -22.4659  -24.8091   22.1216 C   0  0  0  0  0  0  0  0  0  0  0  0
  -28.5236  -12.7212   20.3134 C   0  0  0  0  0  0  0  0  0  0  0  0
  -29.1881  -13.2301   18.0470 C   0  0  0  0  0  0  0  0  0  0  0  0
  -22.3276  -23.7820   21.1891 C   0  0  0  0  0  0  0  0  0  0  0  0
  -28.0800  -10.2040   16.3639 C   0  0  0  0  0  0  0  0  0  0  0  0
  -28.7719   -9.4030   15.4555 C   0  0  0  0  0  0  0  0  0  0  0  0
  -23.7794  -24.9710   19.6732 C   0  0  0  0  0  0  0  0  0  0  0  0
  -30.5513   -9.1156   17.0643 C   0  0  0  0  0  0  0  0  0  0  0  0
  -27.0118  -18.8761   16.2338 C   0  0  0  0  0  0  0  0  0  0  0  0
  -29.7920  -14.7239   19.8473 C   0  0  0  0  0  0  0  0  0  0  0  0
  -31.7716  -16.0697   20.7290 C   0  0  0  0  0  0  0  0  0  0  0  0
  -18.5693  -30.3004   23.6035 C   0  0  0  0  0  0  0  0  0  0  0  0
  -23.2545  -25.9319   21.8321 C   0  0  0  0  0  0  0  0  0  0  0  0
  -19.1987  -29.4900   22.6394 C   0  0  0  0  0  0  0  0  0  0  0  0
  -23.9281  -26.0098   20.6048 C   0  0  0  0  0  0  0  0  0  0  0  0
  -28.5438  -12.3929   18.9579 C   0  0  0  0  0  0  0  0  0  0  0  0
  -22.9821  -23.8642   19.9635 C   0  0  0  0  0  0  0  0  0  0  0  0
  -28.6237  -10.4608   17.6225 C   0  0  0  0  0  0  0  0  0  0  0  0
  -30.0076   -8.8588   15.8057 C   0  0  0  0  0  0  0  0  0  0  0  0
  -29.8594   -9.9166   17.9727 C   0  0  0  0  0  0  0  0  0  0  0  0
  -30.4364  -15.9282   20.3059 C   0  0  0  0  0  0  0  0  0  0  0  0
  -28.3546  -19.0122   15.9460 C   0  0  0  0  0  0  0  0  0  0  0  0
  -26.4936  -19.8019   17.1162 C   0  0  0  0  0  0  0  0  0  0  0  0
  -31.8879  -17.3976   21.0604 C   0  0  0  0  0  0  0  0  0  0  0  0
  -28.5178  -20.8159   17.3198 C   0  0  0  0  0  0  0  0  0  0  0  0
  -32.8136  -15.0887   20.8147 C   0  0  0  0  0  0  0  0  0  0  0  0
  -22.7005  -29.0488   21.5460 C   0  0  0  0  0  0  0  0  0  0  0  0
  -25.9288  -29.2012   21.2685 C   0  0  0  0  0  0  0  0  0  0  0  0
  -28.8301  -22.2580   19.2889 C   0  0  0  0  0  0  0  0  0  0  0  0
  -28.8455  -27.6215   20.4658 C   0  0  0  0  0  0  0  0  0  0  0  0
  -19.0171  -31.7169   23.8637 C   0  0  0  0  0  0  0  0  0  0  0  0
  -23.4149  -27.0188   22.8594 C   0  0  0  0  0  0  0  0  0  0  0  0
  -24.8028  -27.1845   20.2534 C   0  0  0  0  0  0  0  0  0  0  0  0
  -20.4199  -32.0177   23.3423 C   0  0  0  0  0  0  0  0  0  0  0  0
  -29.3297  -21.1073   22.6454 C   0  0  0  0  0  0  0  0  0  0  0  0
  -20.5850  -31.4916   21.9200 C   0  0  0  0  0  0  0  0  0  0  0  0
  -29.7640  -19.6532   22.4655 C   0  0  0  0  0  0  0  0  0  0  0  0
  -28.3081  -21.5195   21.5903 C   0  0  0  0  0  0  0  0  0  0  0  0
  -29.1980  -19.8440   20.0021 C   0  0  0  0  0  0  0  0  0  0  0  0
  -20.4117  -29.9687   21.8716 C   0  0  1  0  0  0  0  0  0  0  0  0
  -23.8303  -28.3563   22.2543 C   0  0  1  0  0  0  0  0  0  0  0  0
  -30.2530  -19.3961   21.0291 C   0  0  2  0  0  0  0  0  0  0  0  0
  -29.0046  -18.0575   15.0018 C   0  0  0  0  0  0  0  0  0  0  0  0
  -31.3183  -28.0154   20.3009 C   0  0  0  0  0  0  0  0  0  0  0  0
  -30.8432  -21.5246   18.2129 C   0  0  0  0  0  0  0  0  0  0  0  0
  -25.5073  -30.7434   18.6697 C   0  0  0  0  0  0  0  0  0  0  0  0
  -27.8975  -30.2783   18.0875 C   0  0  0  0  0  0  0  0  0  0  0  0
  -27.3484  -31.6212   20.1168 C   0  0  0  0  0  0  0  0  0  0  0  0
  -29.4285  -25.5477   22.4952 C   0  0  0  0  0  0  0  0  0  0  0  0
  -23.1949  -20.5204   18.5904 C   0  0  0  0  0  0  0  0  0  0  0  0
  -29.3289  -23.2157   17.0906 C   0  0  0  0  0  0  0  0  0  0  0  0
  -22.6285  -21.5476   19.5580 C   0  0  0  0  0  0  0  0  0  1  0  0
  -24.6866  -20.7123   18.3658 C   0  0  0  0  0  0  0  0  0  0  0  0
  -26.9077  -29.1317   20.1214 C   0  0  1  0  0  0  0  0  0  0  0  0
  -30.1783  -27.5394   21.1878 C   0  0  2  0  0  0  0  0  0  0  0  0
  -29.3540  -21.8932   17.9227 C   0  0  1  0  0  0  0  0  0  0  0  0
  -26.8973  -30.4223   19.2544 C   0  0  0  0  0  0  0  0  0  0  0  0
  -29.7533  -17.0746   20.3626 N   0  0  0  0  0  0  0  0  0  0  0  0
  -29.1404  -19.9741   16.4730 N   0  0  0  0  0  0  0  0  0  0  0  0
  -27.2205  -20.7886   17.6803 N   0  0  0  0  0  0  0  0  0  0  0  0
  -30.6629  -17.9491   20.8252 N   0  0  0  0  0  0  0  0  0  0  0  0
  -24.9229  -28.2246   21.2884 N   0  0  0  0  0  0  0  0  0  0  0  0
  -28.8008  -21.2385   20.2407 N   0  0  0  0  0  0  0  0  0  0  0  0
  -32.9174  -18.1355   21.5272 N   0  0  0  0  0  0  0  0  0  0  0  0
  -32.5237  -13.7711   20.4346 N   0  0  0  0  0  0  0  0  0  0  0  0
  -21.6072  -29.3084   22.3503 N   0  0  0  0  0  0  0  0  0  0  0  0
  -28.2050  -28.8179   20.7103 N   0  0  0  0  0  0  0  0  0  0  0  0
  -29.8532  -22.9967   15.7183 N   0  3  0  0  0  0  0  0  0  0  0  0
  -30.4585  -26.1350   21.6001 N   0  3  0  0  0  0  0  0  0  0  0  0
  -33.9630  -15.3685   21.2320 O   0  0  0  0  0  0  0  0  0  0  0  0
  -22.8129  -29.3283   20.3582 O   0  0  0  0  0  0  0  0  0  0  0  0
  -26.0563  -30.0850   22.1196 O   0  0  0  0  0  0  0  0  0  0  0  0
  -28.4612  -23.4158   19.5027 O   0  0  0  0  0  0  0  0  0  0  0  0
  -28.4172  -26.7164   19.7531 O   0  0  0  0  0  0  0  0  0  0  0  0
  -27.9351  -11.2556   18.5236 O   0  0  0  0  0  0  0  0  0  0  0  0
  -22.8483  -22.8633   19.0512 O   0  0  0  0  0  0  0  0  0  1  0  0
  -25.1668  -19.7343   17.4533 O   0  0  0  0  0  0  0  0  0  0  0  0
  -30.6713   -8.0885   14.9338 F   0  0  0  0  0  0  0  0  0  0  0  0
  -30.3862  -10.1589   19.1808 F   0  0  0  0  0  0  0  0  0  0  0  0
  1  2  1  0  0  0  0
  1  5  2  0  0  0  0
  2  6  2  0  0  0  0
  3  8  2  0  0  0  0
  3 16  1  0  0  0  0
  4  9  1  0  0  0  0
  4 16  2  0  0  0  0
  5 18  1  0  0  0  0
  6 20  1  0  0  0  0
  7 10  2  0  0  0  0
  7 19  1  0  0  0  0
  8 22  1  0  0  0  0
  9 22  2  0  0  0  0
 10 23  1  0  0  0  0
 11 12  2  0  0  0  0
 11 24  1  0  0  0  0
 12 25  1  0  0  0  0
 13 21  1  0  0  0  0
 13 23  2  0  0  0  0
 14 25  2  0  0  0  0
 14 26  1  0  0  0  0
 15 28  2  0  0  0  0
 15 29  1  0  0  0  0
 16 27  1  0  0  0  0
 17 27  1  0  0  0  0
 17 30  2  0  0  0  0
 17 32  1  0  0  0  0
 18 20  2  0  0  0  0
 18 37  1  0  0  0  0
 19 21  2  0  0  0  0
 19 38  1  0  0  0  0
 20 46  1  0  0  0  0
 21 39  1  0  0  0  0
 22 81  1  0  0  0  0
 23 82  1  0  0  0  0
 24 26  2  0  0  0  0
 24 81  1  0  0  0  0
 25 84  1  0  0  0  0
 26 85  1  0  0  0  0
 27 64  2  0  0  0  0
 28 49  1  0  0  0  0
 28 65  1  0  0  0  0
 29 66  2  0  0  0  0
 29 83  1  0  0  0  0
 30 67  1  0  0  0  0
 30 70  1  0  0  0  0
 31 62  1  0  0  0  0
 31 65  2  0  0  0  0
 31 66  1  0  0  0  0
 32 71  1  0  0  0  0
 32 76  2  0  0  0  0
 33 47  1  0  0  0  0
 33 72  1  0  0  0  0
 33 77  2  0  0  0  0
 34 60  1  0  0  0  0
 34 68  1  0  0  0  0
 34 78  2  0  0  0  0
 35 62  1  0  0  0  0
 35 69  1  0  0  0  0
 35 79  2  0  0  0  0
 36 61  1  0  0  0  0
 36 73  1  0  0  0  0
 36 80  2  0  0  0  0
 37 40  1  0  0  0  0
 38 47  1  0  0  0  0
 39 68  1  0  0  0  0
 40 42  1  0  0  0  0
 41 43  1  0  0  0  0
 41 44  1  0  0  0  0
 42 46  1  0  0  0  0
 43 48  1  0  0  0  0
 44 69  1  0  0  0  0
 45 48  1  0  0  0  0
 45 69  1  0  0  0  0
 46 72  1  0  0  0  0
 47 68  1  0  0  0  0
 48 67  1  0  0  0  0
 50 61  1  0  0  0  0
 51 62  1  0  0  0  0
 52 63  1  0  0  0  0
 53 63  1  0  0  0  0
 54 63  1  0  0  0  0
 55 75  1  0  0  0  0
 56 58  1  0  0  0  0
 56 59  1  0  0  0  0
 57 62  1  0  0  0  0
 57 74  1  0  0  0  0
 58 82  1  0  0  0  0
 59 83  1  0  0  0  0
 60 63  1  0  0  0  0
 60 73  1  0  0  0  0
 61 75  1  0  0  0  0
 64 67  1  0  0  0  0
M  CHG  2  74   1  75   1
M  ISO  4  35 100  58 101  62 100  82 101
M  END
> <Batch ID>
0067

> <Smiles>
CNC(C)C(=O)NC(C(=O)N1Cc2cc([101O:1][101CH2:1]CCOc3cc(C)nc([100C:0](C)(CN)[100C:0](=O)N4CCCC(n5nc(-c6ccc(Oc7ccc(F)cc7F)cc6)c(C(N)=O)c5N)C4)n3)ccc2CC1C(=O)NC1CCCc2ccccc21)C(C)(C)C

> <Shape>
0.240

> <Color>
0.074

> <Negative vol penalty>
0.000

$$$$

  -OEChem-04052318123D

 88 96  0     1  0  0  0  0  0999 V2000
  -28.1835  -37.3899   21.2806 C   0  0  0  0  0  0  0  0  0  0  0  0
  -28.5987  -36.1098   20.9281 C   0  0  0  0  0  0  0  0  0  0  0  0
  -28.1675  -16.6410   18.5183 C   0  0  0  0  0  0  0  0  0  0  0  0
  -28.0596  -17.3549   20.8239 C   0  0  0  0  0  0  0  0  0  0  0  0
  -27.2248  -37.5605   22.2784 C   0  0  0  0  0  0  0  0  0  0  0  0
  -28.0561  -34.9995   21.5740 C   0  0  0  0  0  0  0  0  0  0  0  0
  -26.9076  -29.5083   19.1178 C   0  0  0  0  0  0  0  0  0  0  0  0
  -28.9975  -17.7222   18.2224 C   0  0  0  0  0  0  0  0  0  0  0  0
  -28.8897  -18.4361   20.5280 C   0  0  0  0  0  0  0  0  0  0  0  0
  -27.6160  -28.3076   19.1320 C   0  0  0  0  0  0  0  0  0  0  0  0
  -31.4372  -20.0906   16.9364 C   0  0  0  0  0  0  0  0  0  0  0  0
  -32.5619  -19.8480   16.1480 C   0  0  0  0  0  0  0  0  0  0  0  0
  -26.2840  -27.5507   20.9953 C   0  0  0  0  0  0  0  0  0  0  0  0
  -33.3850  -18.2906   17.8016 C   0  0  0  0  0  0  0  0  0  0  0  0
  -24.9130  -21.3782   18.1334 C   0  0  0  0  0  0  0  0  0  0  0  0
  -27.6985  -16.4573   19.8191 C   0  0  0  0  0  0  0  0  0  0  0  0
  -27.2345  -14.0553   20.5421 C   0  0  0  0  0  0  0  0  0  0  0  0
  -26.6631  -36.4513   22.9302 C   0  0  0  0  0  0  0  0  0  0  0  0
  -25.8876  -29.7440   20.0507 C   0  0  0  0  0  0  0  0  0  0  0  0
  -27.0900  -35.1555   22.5825 C   0  0  0  0  0  0  0  0  0  0  0  0
  -25.5623  -28.7542   20.9892 C   0  0  0  0  0  0  0  0  0  0  0  0
  -25.7491  -21.4532   19.2287 C   0  0  0  0  0  0  0  0  0  0  0  0
  -29.3586  -18.6197   19.2272 C   0  0  0  0  0  0  0  0  0  0  0  0
  -27.3062  -27.3298   20.0728 C   0  0  0  0  0  0  0  0  0  0  0  0
  -31.2864  -19.4333   18.1575 C   0  0  0  0  0  0  0  0  0  0  0  0
  -33.5358  -18.9480   16.5805 C   0  0  0  0  0  0  0  0  0  0  0  0
  -32.2603  -18.5333   18.5900 C   0  0  0  0  0  0  0  0  0  0  0  0
  -26.8405  -15.3410   20.1254 C   0  0  0  0  0  0  0  0  0  0  0  0
  -25.2361  -20.9505   20.4069 C   0  0  0  0  0  0  0  0  0  0  0  0
  -26.0552  -13.3692   20.7003 C   0  0  0  0  0  0  0  0  0  0  0  0
  -23.2848  -20.3977   19.3803 C   0  0  0  0  0  0  0  0  0  0  0  0
  -28.5490  -13.5284   20.7663 C   0  0  0  0  0  0  0  0  0  0  0  0
  -25.4115  -31.8709   22.3644 C   0  0  0  0  0  0  0  0  0  0  0  0
  -22.5040  -30.4440   22.5445 C   0  0  0  0  0  0  0  0  0  0  0  0
  -20.5963  -27.6727   21.9724 C   0  0  0  0  0  0  0  0  0  0  0  0
  -22.6721  -17.4986   19.8498 C   0  0  0  0  0  0  0  0  0  0  0  0
  -25.6645  -36.6877   24.0354 C   0  0  0  0  0  0  0  0  0  0  0  0
  -25.1148  -31.0336   20.0050 C   0  0  0  0  0  0  0  0  0  0  0  0
  -24.4625  -28.9499   21.9993 C   0  0  0  0  0  0  0  0  0  0  0  0
  -24.8650  -35.4426   24.4105 C   0  0  0  0  0  0  0  0  0  0  0  0
  -22.8012  -14.3686   17.9811 C   0  0  0  0  0  0  0  0  0  0  0  0
  -25.7904  -34.2394   24.5618 C   0  0  0  0  0  0  0  0  0  0  0  0
  -23.0676  -13.3527   19.0860 C   0  0  0  0  0  0  0  0  0  0  0  0
  -21.9035  -15.5081   18.4556 C   0  0  0  0  0  0  0  0  0  0  0  0
  -22.7087  -15.2096   20.7889 C   0  0  0  0  0  0  0  0  0  0  0  0
  -26.5067  -33.9251   23.2429 C   0  0  1  0  0  0  0  0  0  0  0  0
  -24.4409  -31.3737   21.3307 C   0  0  1  0  0  0  0  0  0  0  0  0
  -23.5651  -13.9946   20.3908 C   0  0  2  0  0  0  0  0  0  0  0  0
  -25.4534  -20.1069   22.7580 C   0  0  0  0  0  0  0  0  0  0  0  0
  -20.0248  -18.0759   15.7721 C   0  0  0  0  0  0  0  0  0  0  0  0
  -21.2704  -19.9991   20.8449 C   0  0  0  0  0  0  0  0  0  0  0  0
  -18.2636  -26.7933   22.2598 C   0  0  0  0  0  0  0  0  0  0  0  0
  -23.0260  -30.0397   25.5234 C   0  0  0  0  0  0  0  0  0  0  0  0
  -21.1638  -28.3665   25.5516 C   0  0  0  0  0  0  0  0  0  0  0  0
  -20.6935  -30.7436   24.9592 C   0  0  0  0  0  0  0  0  0  0  0  0
  -20.2517  -27.3039   19.0562 C   0  0  0  0  0  0  0  0  0  0  0  0
  -27.1291  -22.0511   19.1180 C   0  0  0  0  0  0  0  0  0  0  0  0
  -26.0515  -20.9783   21.6575 C   0  0  0  0  0  0  0  0  0  0  0  0
  -21.1305  -18.4647   16.7437 C   0  0  0  0  0  0  0  0  0  0  0  0
  -27.1370  -23.5824   19.0529 C   0  0  0  0  0  0  0  0  0  0  0  0
  -28.5378  -24.1663   18.8634 C   0  0  0  0  0  0  0  0  0  0  0  0
  -20.8519  -18.0023   18.1689 C   0  0  0  0  0  0  0  0  0  0  0  0
  -28.5108  -25.6886   18.8434 C   0  0  0  0  0  0  0  0  0  1  0  0
  -21.9164  -19.8107   19.4645 C   0  0  2  0  0  0  0  0  0  0  0  0
  -21.9313  -29.2775   23.3128 C   0  0  1  0  0  0  0  0  0  0  0  0
  -19.2323  -27.5042   21.3277 C   0  0  2  0  0  0  0  0  0  0  0  0
  -21.7257  -29.6036   24.8191 C   0  0  0  0  0  0  0  0  0  0  0  0
  -23.6701  -20.8548   18.1736 N   0  0  0  0  0  0  0  0  0  0  0  0
  -25.5146  -15.4667   20.0249 N   0  0  0  0  0  0  0  0  0  0  0  0
  -24.0034  -20.4137   20.5192 N   0  0  0  0  0  0  0  0  0  0  0  0
  -25.0652  -14.2511   20.3807 N   0  0  0  0  0  0  0  0  0  0  0  0
  -23.7400  -30.2302   21.9183 N   0  0  0  0  0  0  0  0  0  0  0  0
  -22.4076  -16.1282   19.6876 N   0  0  0  0  0  0  0  0  0  0  0  0
  -25.7790  -12.1035   21.0800 N   0  0  0  0  0  0  0  0  0  0  0  0
  -29.6506  -14.3692   20.5567 N   0  0  0  0  0  0  0  0  0  0  0  0
  -25.6143  -33.2375   22.3345 N   0  0  0  0  0  0  0  0  0  0  0  0
  -20.7114  -28.8878   22.6139 N   0  0  0  0  0  0  0  0  0  0  0  0
  -21.9058  -18.4013   19.0990 N   0  0  0  0  0  0  0  0  0  0  0  0
  -19.3472  -26.7082   20.0731 N   0  3  0  0  0  0  0  0  0  0  0  0
  -28.7417  -12.3421   21.1255 O   0  0  0  0  0  0  0  0  0  0  0  0
  -25.9363  -31.0740   23.1332 O   0  0  0  0  0  0  0  0  0  0  0  0
  -21.8742  -31.5036   22.4957 O   0  0  0  0  0  0  0  0  0  0  0  0
  -21.4707  -26.8109   21.9160 O   0  0  0  0  0  0  0  0  0  0  0  0
  -23.5525  -17.9002   20.6224 O   0  0  0  0  0  0  0  0  0  0  0  0
  -30.1688  -19.6748   18.9388 O   0  0  0  0  0  0  0  0  0  0  0  0
  -27.9966  -26.1572   20.0893 O   0  0  0  0  0  0  0  0  0  1  0  0
  -34.6151  -18.7139   15.8226 F   0  0  0  0  0  0  0  0  0  0  0  0
  -32.1203  -17.8980   19.7616 F   0  0  0  0  0  0  0  0  0  0  0  0
  1  2  1  0  0  0  0
  1  5  2  0  0  0  0
  2  6  2  0  0  0  0
  3  8  2  0  0  0  0
  3 16  1  0  0  0  0
  4  9  1  0  0  0  0
  4 16  2  0  0  0  0
  5 18  1  0  0  0  0
  6 20  1  0  0  0  0
  7 10  2  0  0  0  0
  7 19  1  0  0  0  0
  8 23  1  0  0  0  0
  9 23  2  0  0  0  0
 10 24  1  0  0  0  0
 11 12  2  0  0  0  0
 11 25  1  0  0  0  0
 12 26  1  0  0  0  0
 13 21  1  0  0  0  0
 13 24  2  0  0  0  0
 14 26  2  0  0  0  0
 14 27  1  0  0  0  0
 15 22  1  0  0  0  0
 15 68  2  0  0  0  0
 16 28  1  0  0  0  0
 17 28  1  0  0  0  0
 17 30  2  0  0  0  0
 17 32  1  0  0  0  0
 18 20  2  0  0  0  0
 18 37  1  0  0  0  0
 19 21  2  0  0  0  0
 19 38  1  0  0  0  0
 20 46  1  0  0  0  0
 21 39  1  0  0  0  0
 22 29  2  0  0  0  0
 22 57  1  0  0  0  0
 23 85  1  0  0  0  0
 24 86  1  0  0  0  0
 25 27  2  0  0  0  0
 25 85  1  0  0  0  0
 26 87  1  0  0  0  0
 27 88  1  0  0  0  0
 28 69  2  0  0  0  0
 29 58  1  0  0  0  0
 29 70  1  0  0  0  0
 30 71  1  0  0  0  0
 30 74  1  0  0  0  0
 31 64  1  0  0  0  0
 31 68  1  0  0  0  0
 31 70  2  0  0  0  0
 32 75  1  0  0  0  0
 32 80  2  0  0  0  0
 33 47  1  0  0  0  0
 33 76  1  0  0  0  0
 33 81  2  0  0  0  0
 34 65  1  0  0  0  0
 34 72  1  0  0  0  0
 34 82  2  0  0  0  0
 35 66  1  0  0  0  0
 35 77  1  0  0  0  0
 35 83  2  0  0  0  0
 36 73  1  0  0  0  0
 36 78  1  0  0  0  0
 36 84  2  0  0  0  0
 37 40  1  0  0  0  0
 38 47  1  0  0  0  0
 39 72  1  0  0  0  0
 40 42  1  0  0  0  0
 41 43  1  0  0  0  0
 41 44  1  0  0  0  0
 42 46  1  0  0  0  0
 43 48  1  0  0  0  0
 44 73  1  0  0  0  0
 45 48  1  0  0  0  0
 45 73  1  0  0  0  0
 46 76  1  0  0  0  0
 47 72  1  0  0  0  0
 48 71  1  0  0  0  0
 49 58  1  0  0  0  0
 50 59  1  0  0  0  0
 51 64  1  0  0  0  0
 52 66  1  0  0  0  0
 53 67  1  0  0  0  0
 54 67  1  0  0  0  0
 55 67  1  0  0  0  0
 56 79  1  0  0  0  0
 57 60  1  0  0  0  0
 59 62  1  0  0  0  0
 60 61  1  0  0  0  0
 61 63  1  0  0  0  0
 62 78  1  0  0  0  0
 63 86  1  0  0  0  0
 64 78  1  0  0  0  0
 65 67  1  0  0  0  0
 65 77  1  0  0  0  0
 66 79  1  0  0  0  0
 69 71  1  0  0  0  0
M  CHG  1  79   1
M  ISO  4  36 100  63 101  78 100  86 101
M  END
> <Batch ID>
0067

> <Smiles>
CCC[100N:0](C(C)c1ncc(CCC[101CH2:1][101O:1]c2ccc3c(c2)CN(C(=O)C(NC(=O)C(C)NC)C(C)(C)C)C(C(=O)NC2CCCc4ccccc42)C3)c(CC)n1)[100C:0](=O)N1CCCC(n2nc(-c3ccc(Oc4ccc(F)cc4F)cc3)c(C(N)=O)c2N)C1

> <Shape>
0.256

> <Color>
0.082

> <Negative vol penalty>
0.000

$$$$

  -OEChem-04052318123D

 86 94  0     1  0  0  0  0  0999 V2000
  -22.2089  -29.3968   23.3588 C   0  0  0  0  0  0  0  0  0  0  0  0
  -22.6360  -28.0959   23.1124 C   0  0  0  0  0  0  0  0  0  0  0  0
  -23.4726   -9.9216   21.9048 C   0  0  0  0  0  0  0  0  0  0  0  0
  -24.2092  -11.1678   23.8391 C   0  0  0  0  0  0  0  0  0  0  0  0
  -22.8682  -30.4706   22.7619 C   0  0  0  0  0  0  0  0  0  0  0  0
  -23.7221  -27.8680   22.2681 C   0  0  0  0  0  0  0  0  0  0  0  0
  -27.9276  -23.4470   22.7912 C   0  0  0  0  0  0  0  0  0  0  0  0
  -22.8389   -9.0009   22.7393 C   0  0  0  0  0  0  0  0  0  0  0  0
  -23.5755  -10.2471   24.6736 C   0  0  0  0  0  0  0  0  0  0  0  0
  -28.0666  -22.2064   22.1703 C   0  0  0  0  0  0  0  0  0  0  0  0
  -20.4321   -9.5987   25.7317 C   0  0  0  0  0  0  0  0  0  0  0  0
  -19.6726  -10.1001   26.7887 C   0  0  0  0  0  0  0  0  0  0  0  0
  -29.5647  -23.1894   20.5551 C   0  0  0  0  0  0  0  0  0  0  0  0
  -21.0852   -8.9281   28.3597 C   0  0  0  0  0  0  0  0  0  0  0  0
  -31.0420  -19.1815   22.3424 C   0  0  0  0  0  0  0  0  0  0  0  0
  -30.3444  -17.2380   21.5865 C   0  0  0  0  0  0  0  0  0  0  0  0
  -24.1578  -11.0050   22.4547 C   0  0  0  0  0  0  0  0  0  0  0  0
  -24.2607  -13.1302   21.0474 C   0  0  0  0  0  0  0  0  0  0  0  0
  -23.9690  -30.2562   21.9175 C   0  0  0  0  0  0  0  0  0  0  0  0
  -28.5987  -24.5722   22.2913 C   0  0  0  0  0  0  0  0  0  0  0  0
  -24.3959  -28.9398   21.6583 C   0  0  0  0  0  0  0  0  0  0  0  0
  -29.4345  -24.4425   21.1730 C   0  0  0  0  0  0  0  0  0  0  0  0
  -30.6390  -18.5135   21.1706 C   0  0  0  0  0  0  0  0  0  0  0  0
  -22.8903   -9.1637   24.1236 C   0  0  0  0  0  0  0  0  0  0  0  0
  -28.8830  -22.0780   21.0504 C   0  0  0  0  0  0  0  0  0  0  0  0
  -21.5182   -8.7620   25.9887 C   0  0  0  0  0  0  0  0  0  0  0  0
  -19.9991   -9.7649   28.1027 C   0  0  0  0  0  0  0  0  0  0  0  0
  -21.8447   -8.4267   27.3027 C   0  0  0  0  0  0  0  0  0  0  0  0
  -24.8132  -11.9561   21.5932 C   0  0  0  0  0  0  0  0  0  0  0  0
  -25.2802  -13.6776   20.3075 C   0  0  0  0  0  0  0  0  0  0  0  0
  -22.9437  -13.6772   21.1959 C   0  0  0  0  0  0  0  0  0  0  0  0
  -27.6949  -27.3743   21.0934 C   0  0  0  0  0  0  0  0  0  0  0  0
  -30.8806  -27.9832   21.1442 C   0  0  0  0  0  0  0  0  0  0  0  0
  -34.0652  -26.7563   21.1392 C   0  0  0  0  0  0  0  0  0  0  0  0
  -31.2430  -13.2391   20.6301 C   0  0  0  0  0  0  0  0  0  0  0  0
  -24.6202  -31.4458   21.2576 C   0  0  0  0  0  0  0  0  0  0  0  0
  -28.4592  -25.8977   22.9884 C   0  0  0  0  0  0  0  0  0  0  0  0
  -30.1926  -25.6155   20.6092 C   0  0  0  0  0  0  0  0  0  0  0  0
  -25.9966  -31.1400   20.6725 C   0  0  0  0  0  0  0  0  0  0  0  0
  -29.1867  -12.4515   17.8322 C   0  0  0  0  0  0  0  0  0  0  0  0
  -25.9604  -29.8412   19.8734 C   0  0  0  0  0  0  0  0  0  0  0  0
  -27.7828  -12.3412   18.4296 C   0  0  0  0  0  0  0  0  0  0  0  0
  -30.2502  -11.9143   18.7873 C   0  0  0  0  0  0  0  0  0  0  0  0
  -28.8200  -12.3940   20.7362 C   0  0  0  0  0  0  0  0  0  0  0  0
  -25.5856  -28.6534   20.7679 C   0  0  1  0  0  0  0  0  0  0  0  0
  -28.7845  -27.0844   22.0865 C   0  0  1  0  0  0  0  0  0  0  0  0
  -27.7189  -12.9747   19.8324 C   0  0  2  0  0  0  0  0  0  0  0  0
  -36.4623  -27.4988   21.1469 C   0  0  0  0  0  0  0  0  0  0  0  0
  -29.8483  -16.5643   25.1687 C   0  0  0  0  0  0  0  0  0  0  0  0
  -29.4495  -18.4148   18.8784 C   0  0  0  0  0  0  0  0  0  0  0  0
  -31.8920  -18.8535   19.0179 C   0  0  0  0  0  0  0  0  0  0  0  0
  -30.6613  -28.7135   18.1898 C   0  0  0  0  0  0  0  0  0  0  0  0
  -33.1520  -28.5172   18.0281 C   0  0  0  0  0  0  0  0  0  0  0  0
  -32.1324  -30.2264   19.5320 C   0  0  0  0  0  0  0  0  0  0  0  0
  -32.9060  -15.8540   24.5208 C   0  0  0  0  0  0  0  0  0  0  0  0
  -31.3427  -13.9540   24.8715 C   0  0  0  0  0  0  0  0  0  0  0  0
  -34.5980  -25.4002   23.7153 C   0  0  0  0  0  0  0  0  0  0  0  0
  -32.0908  -14.5662   22.5482 C   0  0  0  0  0  0  0  0  0  0  0  0
  -30.2615  -20.6067   19.7892 C   0  0  0  0  0  0  0  0  0  1  0  0
  -32.0226  -27.7844   20.1772 C   0  0  1  0  0  0  0  0  0  0  0  0
  -35.2725  -27.0847   21.9988 C   0  0  2  0  0  0  0  0  0  0  0  0
  -30.4108  -16.0920   23.8138 C   0  0  2  0  0  0  0  0  0  0  0  0
  -30.5457  -19.0831   19.7426 C   0  0  0  0  0  0  0  0  0  0  0  0
  -31.9764  -28.7885   18.9910 C   0  0  0  0  0  0  0  0  0  0  0  0
  -31.6693  -15.1408   23.9305 C   0  0  0  0  0  0  0  0  0  0  0  0
  -31.0075  -18.3955   23.4218 N   0  0  0  0  0  0  0  0  0  0  0  0
  -26.0849  -11.7678   21.2308 N   0  0  0  0  0  0  0  0  0  0  0  0
  -30.5793  -17.2204   22.9298 N   0  0  0  0  0  0  0  0  0  0  0  0
  -26.3399  -12.8309   20.4493 N   0  0  0  0  0  0  0  0  0  0  0  0
  -30.0186  -26.8918   21.3222 N   0  0  0  0  0  0  0  0  0  0  0  0
  -30.1361  -12.5567   20.0989 N   0  0  0  0  0  0  0  0  0  0  0  0
  -25.3645  -14.7958   19.5558 N   0  0  0  0  0  0  0  0  0  0  0  0
  -22.0194  -12.9869   21.9918 N   0  0  0  0  0  0  0  0  0  0  0  0
  -26.7233  -28.2388   21.5605 N   0  0  0  0  0  0  0  0  0  0  0  0
  -33.2454  -27.8520   20.9700 N   0  0  0  0  0  0  0  0  0  0  0  0
  -31.0478  -13.8247   21.8750 N   0  0  0  0  0  0  0  0  0  0  0  0
  -35.6667  -25.9001   22.8125 N   0  3  0  0  0  0  0  0  0  0  0  0
  -22.5918  -14.7379   20.6262 O   0  0  0  0  0  0  0  0  0  0  0  0
  -27.7335  -26.8535   19.9848 O   0  0  0  0  0  0  0  0  0  0  0  0
  -30.7620  -29.0645   21.7259 O   0  0  0  0  0  0  0  0  0  0  0  0
  -33.8708  -25.6404   20.6622 O   0  0  0  0  0  0  0  0  0  0  0  0
  -32.3233  -13.3250   20.0364 O   0  0  0  0  0  0  0  0  0  0  0  0
  -22.2718   -8.2656   24.9382 O   0  0  0  0  0  0  0  0  0  0  0  0
  -29.0199  -20.8685   20.4421 O   0  0  0  0  0  0  0  0  0  1  0  0
  -19.2705  -10.2476   29.1177 F   0  0  0  0  0  0  0  0  0  0  0  0
  -22.8877   -7.6242   27.5558 F   0  0  0  0  0  0  0  0  0  0  0  0
  1  2  1  0  0  0  0
  1  5  2  0  0  0  0
  2  6  2  0  0  0  0
  3  8  2  0  0  0  0
  3 17  1  0  0  0  0
  4  9  1  0  0  0  0
  4 17  2  0  0  0  0
  5 19  1  0  0  0  0
  6 21  1  0  0  0  0
  7 10  2  0  0  0  0
  7 20  1  0  0  0  0
  8 24  1  0  0  0  0
  9 24  2  0  0  0  0
 10 25  1  0  0  0  0
 11 12  2  0  0  0  0
 11 26  1  0  0  0  0
 12 27  1  0  0  0  0
 13 22  1  0  0  0  0
 13 25  2  0  0  0  0
 14 27  2  0  0  0  0
 14 28  1  0  0  0  0
 15 23  1  0  0  0  0
 15 66  2  0  0  0  0
 16 23  2  0  0  0  0
 16 68  1  0  0  0  0
 17 29  1  0  0  0  0
 18 29  1  0  0  0  0
 18 30  2  0  0  0  0
 18 31  1  0  0  0  0
 19 21  2  0  0  0  0
 19 36  1  0  0  0  0
 20 22  2  0  0  0  0
 20 37  1  0  0  0  0
 21 45  1  0  0  0  0
 22 38  1  0  0  0  0
 23 63  1  0  0  0  0
 24 83  1  0  0  0  0
 25 84  1  0  0  0  0
 26 28  2  0  0  0  0
 26 83  1  0  0  0  0
 27 85  1  0  0  0  0
 28 86  1  0  0  0  0
 29 67  2  0  0  0  0
 30 69  1  0  0  0  0
 30 72  1  0  0  0  0
 31 73  1  0  0  0  0
 31 78  2  0  0  0  0
 32 46  1  0  0  0  0
 32 74  1  0  0  0  0
 32 79  2  0  0  0  0
 33 60  1  0  0  0  0
 33 70  1  0  0  0  0
 33 80  2  0  0  0  0
 34 61  1  0  0  0  0
 34 75  1  0  0  0  0
 34 81  2  0  0  0  0
 35 71  1  0  0  0  0
 35 76  1  0  0  0  0
 35 82  2  0  0  0  0
 36 39  1  0  0  0  0
 37 46  1  0  0  0  0
 38 70  1  0  0  0  0
 39 41  1  0  0  0  0
 40 42  1  0  0  0  0
 40 43  1  0  0  0  0
 41 45  1  0  0  0  0
 42 47  1  0  0  0  0
 43 71  1  0  0  0  0
 44 47  1  0  0  0  0
 44 71  1  0  0  0  0
 45 74  1  0  0  0  0
 46 70  1  0  0  0  0
 47 69  1  0  0  0  0
 48 61  1  0  0  0  0
 49 62  1  0  0  0  0
 50 63  1  0  0  0  0
 51 63  1  0  0  0  0
 52 64  1  0  0  0  0
 53 64  1  0  0  0  0
 54 64  1  0  0  0  0
 55 65  1  0  0  0  0
 56 65  1  0  0  0  0
 57 77  1  0  0  0  0
 58 65  1  0  0  0  0
 58 76  1  0  0  0  0
 59 63  1  0  0  0  0
 59 84  1  0  0  0  0
 60 64  1  0  0  0  0
 60 75  1  0  0  0  0
 61 77  1  0  0  0  0
 62 65  1  0  0  0  0
 62 68  1  0  0  0  0
 66 68  1  0  0  0  0
 67 69  1  0  0  0  0
M  CHG  1  77   1
M  ISO  4  35 100  59 101  76 100  84 101
M  END
> <Batch ID>
0067

> <Smiles>
CNC(C)C(=O)NC(C(=O)N1Cc2cc([101O:1][101CH2:1]C(C)(C)c3cnn(C(C)C(C)(C)C[100NH:0][100C:0](=O)N4CCCC(n5nc(-c6ccc(Oc7ccc(F)cc7F)cc6)c(C(N)=O)c5N)C4)c3)ccc2CC1C(=O)NC1CCCc2ccccc21)C(C)(C)C

> <Shape>
0.262

> <Color>
0.147

> <Negative vol penalty>
0.000

$$$$

  -OEChem-04052318122D

  0  0  0     0  0  0  0  0  0999 V2000
M  END
$$$$

  -OEChem-04052318123D

 99107  0     1  0  0  0  0  0999 V2000
  -24.4061  -13.1757   32.7536 C   0  0  0  0  0  0  0  0  0  0  0  0
  -25.3042  -13.5243   31.7500 C   0  0  0  0  0  0  0  0  0  0  0  0
  -23.2050   -9.8731   19.9142 C   0  0  0  0  0  0  0  0  0  0  0  0
  -23.7401   -9.9873   22.2674 C   0  0  0  0  0  0  0  0  0  0  0  0
  -23.1239  -13.7233   32.7611 C   0  0  0  0  0  0  0  0  0  0  0  0
  -24.9203  -14.4200   30.7526 C   0  0  0  0  0  0  0  0  0  0  0  0
  -28.4678  -17.9066   29.8021 C   0  0  0  0  0  0  0  0  0  0  0  0
  -22.4721   -8.7076   20.1373 C   0  0  0  0  0  0  0  0  0  0  0  0
  -23.0071   -8.8217   22.4906 C   0  0  0  0  0  0  0  0  0  0  0  0
  -29.5537  -17.5136   29.0211 C   0  0  0  0  0  0  0  0  0  0  0  0
  -23.4403   -5.4921   22.0946 C   0  0  0  0  0  0  0  0  0  0  0  0
  -24.0113   -4.5131   22.9076 C   0  0  0  0  0  0  0  0  0  0  0  0
  -28.5393  -18.5562   27.0967 C   0  0  0  0  0  0  0  0  0  0  0  0
  -22.1494   -4.6966   24.4363 C   0  0  0  0  0  0  0  0  0  0  0  0
  -35.8222  -12.8673   21.9675 C   0  0  0  0  0  0  0  0  0  0  0  0
  -23.8391  -10.5130   20.9792 C   0  0  0  0  0  0  0  0  0  0  0  0
  -24.1223  -13.0414   20.7930 C   0  0  0  0  0  0  0  0  0  0  0  0
  -22.7273  -14.6336   31.7688 C   0  0  0  0  0  0  0  0  0  0  0  0
  -27.4025  -18.6192   29.2330 C   0  0  0  0  0  0  0  0  0  0  0  0
  -23.6311  -14.9793   30.7461 C   0  0  0  0  0  0  0  0  0  0  0  0
  -27.4423  -18.9593   27.8732 C   0  0  0  0  0  0  0  0  0  0  0  0
  -22.3731   -8.1819   21.4256 C   0  0  0  0  0  0  0  0  0  0  0  0
  -29.5883  -17.8358   27.6675 C   0  0  0  0  0  0  0  0  0  0  0  0
  -22.2238   -6.0734   22.4524 C   0  0  0  0  0  0  0  0  0  0  0  0
  -23.3659   -4.1154   24.0785 C   0  0  0  0  0  0  0  0  0  0  0  0
  -21.5784   -5.6757   23.6232 C   0  0  0  0  0  0  0  0  0  0  0  0
  -24.5968  -11.7168   20.7492 C   0  0  0  0  0  0  0  0  0  0  0  0
  -36.9202  -13.5914   22.3852 C   0  0  0  0  0  0  0  0  0  0  0  0
  -34.6949  -12.9850   22.7545 C   0  0  0  0  0  0  0  0  0  0  0  0
  -25.2236  -13.8103   20.5062 C   0  0  0  0  0  0  0  0  0  0  0  0
  -35.7684  -14.4052   24.1679 C   0  0  0  0  0  0  0  0  0  0  0  0
  -22.8039  -13.5329   21.0685 C   0  0  0  0  0  0  0  0  0  0  0  0
  -24.2947  -18.0769   28.8441 C   0  0  0  0  0  0  0  0  0  0  0  0
  -24.2959  -21.1305   27.7497 C   0  0  0  0  0  0  0  0  0  0  0  0
  -26.0487  -23.7122   26.3680 C   0  0  0  0  0  0  0  0  0  0  0  0
  -30.8298  -13.9723   21.0739 C   0  0  0  0  0  0  0  0  0  0  0  0
  -21.3152  -15.1629   31.7918 C   0  0  0  0  0  0  0  0  0  0  0  0
  -26.2510  -19.0590   30.0949 C   0  0  0  0  0  0  0  0  0  0  0  0
  -26.3334  -19.7405   27.2185 C   0  0  0  0  0  0  0  0  0  0  0  0
  -21.1113  -16.3927   30.9107 C   0  0  0  0  0  0  0  0  0  0  0  0
  -29.1471  -11.5628   18.7369 C   0  0  0  0  0  0  0  0  0  0  0  0
  -21.7462  -16.1789   29.5404 C   0  0  0  0  0  0  0  0  0  0  0  0
  -28.1372  -12.7025   18.6022 C   0  0  0  0  0  0  0  0  0  0  0  0
  -30.3676  -11.9772   19.5667 C   0  0  0  0  0  0  0  0  0  0  0  0
  -28.6352  -12.8358   21.1085 C   0  0  0  0  0  0  0  0  0  0  0  0
  -23.2601  -15.9666   29.6609 C   0  0  1  0  0  0  0  0  0  0  0  0
  -24.9796  -19.3349   29.2982 C   0  0  1  0  0  0  0  0  0  0  0  0
  -27.6921  -13.2677   19.9719 C   0  0  2  0  0  0  0  0  0  0  0  0
  -25.7700  -26.0693   25.5531 C   0  0  0  0  0  0  0  0  0  0  0  0
  -32.6293  -15.9773   19.7422 C   0  0  0  0  0  0  0  0  0  0  0  0
  -32.9311  -15.7747   22.2304 C   0  0  0  0  0  0  0  0  0  0  0  0
  -37.9672  -14.0276   20.1359 C   0  0  0  0  0  0  0  0  0  0  0  0
  -38.7307  -12.0684   21.5196 C   0  0  0  0  0  0  0  0  0  0  0  0
  -39.3686  -14.3849   22.1583 C   0  0  0  0  0  0  0  0  0  0  0  0
  -32.2335  -12.4429   23.3415 C   0  0  0  0  0  0  0  0  0  0  0  0
  -33.7232  -10.6995   22.3943 C   0  0  0  0  0  0  0  0  0  0  0  0
  -22.9317  -20.0937   25.2250 C   0  0  0  0  0  0  0  0  0  0  0  0
  -23.5360  -22.2464   24.0984 C   0  0  0  0  0  0  0  0  0  0  0  0
  -22.0270  -22.2610   26.0847 C   0  0  0  0  0  0  0  0  0  0  0  0
  -36.9548  -17.5391   26.9834 C   0  0  0  0  0  0  0  0  0  0  0  0
  -35.6435  -19.2122   25.6741 C   0  0  0  0  0  0  0  0  0  0  0  0
  -27.9910  -24.7488   28.3458 C   0  0  0  0  0  0  0  0  0  0  0  0
  -35.7363  -15.2728   25.4034 C   0  0  0  0  0  0  0  0  0  0  0  0
  -35.6062  -16.7577   25.0399 C   0  0  0  0  0  0  0  0  0  0  0  0
  -32.9522  -12.5958   20.9369 C   0  0  0  0  0  0  0  0  0  0  0  0
  -31.9118  -17.3415   27.5536 C   0  0  0  0  0  0  0  0  0  1  0  0
  -24.4893  -21.7831   26.4022 C   0  0  1  0  0  0  0  0  0  0  0  0
  -26.1326  -25.1830   26.7345 C   0  0  2  0  0  0  0  0  0  0  0  0
  -33.0341  -15.0599   20.8893 C   0  0  0  0  0  0  0  0  0  0  0  0
  -34.4047  -17.5401   27.1621 C   0  0  1  0  0  0  0  0  0  0  0  0
  -38.1857  -13.5281   21.5975 C   0  0  0  0  0  0  0  0  0  0  0  0
  -33.4569  -12.2402   22.3813 C   0  0  0  0  0  0  0  0  0  0  0  0
  -23.2661  -21.5796   25.4642 C   0  0  0  0  0  0  0  0  0  0  0  0
  -35.6296  -17.7739   26.2277 C   0  0  0  0  0  0  0  0  0  0  0  0
  -33.0075  -17.6663   26.5514 C   0  0  0  0  0  0  0  0  0  0  0  0
  -25.8982  -11.6446   20.4573 N   0  0  0  0  0  0  0  0  0  0  0  0
  -36.9283  -14.3735   23.4846 N   0  0  0  0  0  0  0  0  0  0  0  0
  -34.6326  -13.7477   23.8657 N   0  0  0  0  0  0  0  0  0  0  0  0
  -26.2508  -12.9336   20.3151 N   0  0  0  0  0  0  0  0  0  0  0  0
  -25.2262  -20.1424   28.1018 N   0  0  0  0  0  0  0  0  0  0  0  0
  -30.0262  -12.8957   20.6628 N   0  0  0  0  0  0  0  0  0  0  0  0
  -25.4039  -15.1441   20.4012 N   0  0  0  0  0  0  0  0  0  0  0  0
  -21.7892  -12.6059   21.3434 N   0  0  0  0  0  0  0  0  0  0  0  0
  -23.9323  -17.2303   29.8744 N   0  0  0  0  0  0  0  0  0  0  0  0
  -24.8123  -23.1807   26.6682 N   0  0  0  0  0  0  0  0  0  0  0  0
  -32.2155  -13.8551   20.8935 N   0  0  0  0  0  0  0  0  0  0  0  0
  -27.5135  -25.5290   27.1753 N   0  3  0  0  0  0  0  0  0  0  0  0
  -22.5299  -14.7569   21.0547 O   0  0  0  0  0  0  0  0  0  0  0  0
  -24.1076  -17.8889   27.6477 O   0  0  0  0  0  0  0  0  0  0  0  0
  -23.3584  -21.4893   28.4665 O   0  0  0  0  0  0  0  0  0  0  0  0
  -26.9850  -23.0974   25.8622 O   0  0  0  0  0  0  0  0  0  0  0  0
  -30.3327  -14.9954   21.5633 O   0  0  0  0  0  0  0  0  0  0  0  0
  -21.6577   -7.0447   21.6437 O   0  0  0  0  0  0  0  0  0  0  0  0
  -30.6467  -17.4529   26.9028 O   0  0  0  0  0  0  0  0  0  1  0  0
  -23.9137   -3.1741   24.8583 F   0  0  0  0  0  0  0  0  0  0  0  0
  -20.4089   -6.2296   23.9716 F   0  0  0  0  0  0  0  0  0  0  0  0
  -34.5006  -16.2827   27.6885 F   0  0  0  0  0  0  0  0  0  0  0  0
  -32.8103  -18.9283   26.0956 F   0  0  0  0  0  0  0  0  0  0  0  0
  -32.8832  -16.8333   25.4898 F   0  0  0  0  0  0  0  0  0  0  0  0
  1  2  1  0  0  0  0
  1  5  2  0  0  0  0
  2  6  2  0  0  0  0
  3  8  2  0  0  0  0
  3 16  1  0  0  0  0
  4  9  1  0  0  0  0
  4 16  2  0  0  0  0
  5 18  1  0  0  0  0
  6 20  1  0  0  0  0
  7 10  2  0  0  0  0
  7 19  1  0  0  0  0
  8 22  1  0  0  0  0
  9 22  2  0  0  0  0
 10 23  1  0  0  0  0
 11 12  2  0  0  0  0
 11 24  1  0  0  0  0
 12 25  1  0  0  0  0
 13 21  1  0  0  0  0
 13 23  2  0  0  0  0
 14 25  2  0  0  0  0
 14 26  1  0  0  0  0
 15 28  1  0  0  0  0
 15 29  2  0  0  0  0
 16 27  1  0  0  0  0
 17 27  1  0  0  0  0
 17 30  2  0  0  0  0
 17 32  1  0  0  0  0
 18 20  2  0  0  0  0
 18 37  1  0  0  0  0
 19 21  2  0  0  0  0
 19 38  1  0  0  0  0
 20 46  1  0  0  0  0
 21 39  1  0  0  0  0
 22 93  1  0  0  0  0
 23 94  1  0  0  0  0
 24 26  2  0  0  0  0
 24 93  1  0  0  0  0
 25 95  1  0  0  0  0
 26 96  1  0  0  0  0
 27 76  2  0  0  0  0
 28 71  1  0  0  0  0
 28 77  2  0  0  0  0
 29 72  1  0  0  0  0
 29 78  1  0  0  0  0
 30 79  1  0  0  0  0
 30 82  1  0  0  0  0
 31 63  1  0  0  0  0
 31 77  1  0  0  0  0
 31 78  2  0  0  0  0
 32 83  1  0  0  0  0
 32 88  2  0  0  0  0
 33 47  1  0  0  0  0
 33 84  1  0  0  0  0
 33 89  2  0  0  0  0
 34 67  1  0  0  0  0
 34 80  1  0  0  0  0
 34 90  2  0  0  0  0
 35 68  1  0  0  0  0
 35 85  1  0  0  0  0
 35 91  2  0  0  0  0
 36 81  1  0  0  0  0
 36 86  1  0  0  0  0
 36 92  2  0  0  0  0
 37 40  1  0  0  0  0
 38 47  1  0  0  0  0
 39 80  1  0  0  0  0
 40 42  1  0  0  0  0
 41 43  1  0  0  0  0
 41 44  1  0  0  0  0
 42 46  1  0  0  0  0
 43 48  1  0  0  0  0
 44 81  1  0  0  0  0
 45 48  1  0  0  0  0
 45 81  1  0  0  0  0
 46 84  1  0  0  0  0
 47 80  1  0  0  0  0
 48 79  1  0  0  0  0
 49 68  1  0  0  0  0
 50 69  1  0  0  0  0
 51 69  1  0  0  0  0
 52 71  1  0  0  0  0
 53 71  1  0  0  0  0
 54 71  1  0  0  0  0
 55 72  1  0  0  0  0
 56 72  1  0  0  0  0
 57 73  1  0  0  0  0
 58 73  1  0  0  0  0
 59 73  1  0  0  0  0
 60 74  1  0  0  0  0
 61 74  1  0  0  0  0
 62 87  1  0  0  0  0
 63 64  1  0  0  0  0
 64 74  1  0  0  0  0
 65 72  1  0  0  0  0
 65 86  1  0  0  0  0
 66 75  1  0  0  0  0
 66 94  1  0  0  0  0
 67 73  1  0  0  0  0
 67 85  1  0  0  0  0
 68 87  1  0  0  0  0
 69 86  1  0  0  0  0
 70 74  1  0  0  0  0
 70 75  1  0  0  0  0
 70 97  1  0  0  0  0
 75 98  1  0  0  0  0
 75 99  1  0  0  0  0
 76 79  1  0  0  0  0
M  CHG  1  87   1
M  ISO  4  36 100  66 101  86 100  94 101
M  END
> <Batch ID>
0067

> <Smiles>
CNC(C)C(=O)NC(C(=O)N1Cc2cc([101O:1][101CH2:1]C(F)(F)C(F)C(C)(C)CCc3nc(C(C)(C)C)cc(C(C)(C)C[100N:0](C(C)C)[100C:0](=O)N4CCCC(n5nc(-c6ccc(Oc7ccc(F)cc7F)cc6)c(C(N)=O)c5N)C4)n3)ccc2CC1C(=O)NC1CCCc2ccccc21)C(C)(C)C

> <Shape>
0.146

> <Color>
0.167

> <Negative vol penalty>
0.000

$$$$

  -OEChem-04052318123D

 85 93  0     1  0  0  0  0  0999 V2000
  -22.9339  -11.8014   23.3481 C   0  0  0  0  0  0  0  0  0  0  0  0
  -23.6181  -12.8943   23.8704 C   0  0  0  0  0  0  0  0  0  0  0  0
  -24.0696  -29.8964   24.6552 C   0  0  0  0  0  0  0  0  0  0  0  0
  -23.4327  -30.3570   22.3707 C   0  0  0  0  0  0  0  0  0  0  0  0
  -23.2480  -11.3274   22.0751 C   0  0  0  0  0  0  0  0  0  0  0  0
  -24.6176  -13.5132   23.1204 C   0  0  0  0  0  0  0  0  0  0  0  0
  -24.2870  -18.5651   23.2363 C   0  0  0  0  0  0  0  0  0  0  0  0
  -22.7398  -29.6167   24.9696 C   0  0  0  0  0  0  0  0  0  0  0  0
  -22.1028  -30.0772   22.6850 C   0  0  0  0  0  0  0  0  0  0  0  0
  -24.7576  -19.2079   24.3804 C   0  0  0  0  0  0  0  0  0  0  0  0
  -20.1760  -27.3387   23.1414 C   0  0  0  0  0  0  0  0  0  0  0  0
  -19.4576  -26.5351   22.2561 C   0  0  0  0  0  0  0  0  0  0  0  0
  -26.8110  -19.7380   23.2307 C   0  0  0  0  0  0  0  0  0  0  0  0
  -17.8752  -28.3281   21.9125 C   0  0  0  0  0  0  0  0  0  0  0  0
  -28.9068  -24.2526   23.9410 C   0  0  0  0  0  0  0  0  0  0  0  0
  -27.6138  -26.0314   23.7977 C   0  0  0  0  0  0  0  0  0  0  0  0
  -24.4161  -30.2666   23.3558 C   0  0  0  0  0  0  0  0  0  0  0  0
  -26.6051  -31.5541   23.5971 C   0  0  0  0  0  0  0  0  0  0  0  0
  -24.2452  -11.9467   21.3052 C   0  0  0  0  0  0  0  0  0  0  0  0
  -25.0806  -18.4943   22.0823 C   0  0  0  0  0  0  0  0  0  0  0  0
  -24.9462  -13.0461   21.8365 C   0  0  0  0  0  0  0  0  0  0  0  0
  -26.3471  -19.0960   22.0724 C   0  0  0  0  0  0  0  0  0  0  0  0
  -21.7564  -29.7071   23.9845 C   0  0  0  0  0  0  0  0  0  0  0  0
  -26.0209  -19.7920   24.3787 C   0  0  0  0  0  0  0  0  0  0  0  0
  -19.7439  -28.6371   23.4123 C   0  0  0  0  0  0  0  0  0  0  0  0
  -18.3073  -27.0298   21.6416 C   0  0  0  0  0  0  0  0  0  0  0  0
  -18.5936  -29.1318   22.7978 C   0  0  0  0  0  0  0  0  0  0  0  0
  -25.7896  -30.5562   23.0305 C   0  0  0  0  0  0  0  0  0  0  0  0
  -28.2421  -24.4875   25.1214 C   0  0  0  0  0  0  0  0  0  0  0  0
  -27.8108  -31.4186   22.9533 C   0  0  0  0  0  0  0  0  0  0  0  0
  -26.3001  -32.5173   24.6144 C   0  0  0  0  0  0  0  0  0  0  0  0
  -26.3629  -16.1338   20.3831 C   0  0  0  0  0  0  0  0  0  0  0  0
  -27.1955  -18.5484   18.3834 C   0  0  0  0  0  0  0  0  0  0  0  0
  -30.3746  -26.7460   20.1775 C   0  0  0  0  0  0  0  0  0  0  0  0
  -27.8448  -21.8730   17.9684 C   0  0  0  0  0  0  0  0  0  0  0  0
  -24.5821  -11.3692   19.9533 C   0  0  0  0  0  0  0  0  0  0  0  0
  -24.5477  -17.8205   20.8476 C   0  0  0  0  0  0  0  0  0  0  0  0
  -27.2301  -19.0654   20.8526 C   0  0  0  0  0  0  0  0  0  0  0  0
  -25.3963  -12.3139   19.0731 C   0  0  0  0  0  0  0  0  0  0  0  0
  -29.7128  -29.9915   18.8104 C   0  0  0  0  0  0  0  0  0  0  0  0
  -26.5449  -12.9270   19.8678 C   0  0  0  0  0  0  0  0  0  0  0  0
  -28.6846  -30.5838   19.7733 C   0  0  0  0  0  0  0  0  0  0  0  0
  -29.5203  -28.4874   18.6438 C   0  0  0  0  0  0  0  0  0  0  0  0
  -28.5071  -28.3175   20.8946 C   0  0  0  0  0  0  0  0  0  0  0  0
  -26.0197  -13.7596   21.0436 C   0  0  1  0  0  0  0  0  0  0  0  0
  -25.6477  -17.3618   19.8953 C   0  0  1  0  0  0  0  0  0  0  0  0
  -28.6854  -29.8301   21.1151 C   0  0  2  0  0  0  0  0  0  0  0  0
  -28.5374  -23.5425   16.2276 C   0  0  0  0  0  0  0  0  0  0  0  0
  -25.7754  -23.0997   26.3840 C   0  0  0  0  0  0  0  0  0  0  0  0
  -28.0590  -24.6710   27.6051 C   0  0  0  0  0  0  0  0  0  0  0  0
  -29.7168  -23.0725   26.6990 C   0  0  0  0  0  0  0  0  0  0  0  0
  -30.6181  -27.1552   22.6078 C   0  0  0  0  0  0  0  0  0  0  0  0
  -31.3808  -25.0070   21.5823 C   0  0  0  0  0  0  0  0  0  0  0  0
  -30.0679  -17.5339   18.5566 C   0  0  0  0  0  0  0  0  0  0  0  0
  -30.8255  -19.7270   17.6160 C   0  0  0  0  0  0  0  0  0  0  0  0
  -29.3464  -18.2378   16.2679 C   0  0  0  0  0  0  0  0  0  0  0  0
  -25.3337  -23.4087   18.2756 C   0  0  0  0  0  0  0  0  0  0  0  0
  -28.9142  -25.4460   21.7367 C   0  0  0  0  0  0  0  0  0  0  0  0
  -27.3883  -21.5054   25.3009 C   0  0  0  0  0  0  0  0  0  1  0  0
  -28.3852  -19.4689   18.2560 C   0  0  1  0  0  0  0  0  0  0  0  0
  -27.3670  -22.8705   16.9286 C   0  0  2  0  0  0  0  0  0  0  0  0
  -27.2123  -22.5412   26.4302 C   0  0  1  0  0  0  0  0  0  0  0  0
  -28.3136  -23.6773   26.4392 C   0  0  0  0  0  0  0  0  0  0  0  0
  -30.3025  -26.1020   21.5391 C   0  0  0  0  0  0  0  0  0  0  0  0
  -29.6407  -18.7410   17.6979 C   0  0  0  0  0  0  0  0  0  0  0  0
  -27.4386  -25.5960   25.0256 N   0  0  0  0  0  0  0  0  0  0  0  0
  -26.4236  -29.8399   22.0984 N   0  0  0  0  0  0  0  0  0  0  0  0
  -28.4938  -25.2494   23.1025 N   0  0  0  0  0  0  0  0  0  0  0  0
  -27.6503  -30.3882   22.0743 N   0  0  0  0  0  0  0  0  0  0  0  0
  -26.6669  -18.3893   19.6722 N   0  0  0  0  0  0  0  0  0  0  0  0
  -29.5045  -27.8106   19.9419 N   0  0  0  0  0  0  0  0  0  0  0  0
  -28.9820  -32.0816   23.0590 N   0  0  0  0  0  0  0  0  0  0  0  0
  -25.7857  -33.7612   24.2241 N   0  0  0  0  0  0  0  0  0  0  0  0
  -25.5379  -15.0427   20.5789 N   0  0  0  0  0  0  0  0  0  0  0  0
  -27.9417  -20.5997   17.4480 N   0  0  0  0  0  0  0  0  0  0  0  0
  -26.5333  -23.9268   17.5689 N   0  3  0  0  0  0  0  0  0  0  0  0
  -26.4939  -32.2879   25.8323 O   0  0  0  0  0  0  0  0  0  0  0  0
  -27.5739  -16.1728   20.5668 O   0  0  0  0  0  0  0  0  0  0  0  0
  -26.7472  -17.9966   17.3754 O   0  0  0  0  0  0  0  0  0  0  0  0
  -31.1829  -26.3163   19.3503 O   0  0  0  0  0  0  0  0  0  0  0  0
  -28.1095  -22.1920   19.1254 O   0  0  0  0  0  0  0  0  0  0  0  0
  -20.4586  -29.4339   24.2908 O   0  0  0  0  0  0  0  0  0  0  0  0
  -26.4829  -20.4195   25.4944 O   0  0  0  0  0  0  0  0  0  1  0  0
  -17.6184  -26.2585   20.7903 F   0  0  0  0  0  0  0  0  0  0  0  0
  -18.1743  -30.3787   23.0532 F   0  0  0  0  0  0  0  0  0  0  0  0
  1  2  1  0  0  0  0
  1  5  2  0  0  0  0
  2  6  2  0  0  0  0
  3  8  2  0  0  0  0
  3 17  1  0  0  0  0
  4  9  1  0  0  0  0
  4 17  2  0  0  0  0
  5 19  1  0  0  0  0
  6 21  1  0  0  0  0
  7 10  2  0  0  0  0
  7 20  1  0  0  0  0
  8 23  1  0  0  0  0
  9 23  2  0  0  0  0
 10 24  1  0  0  0  0
 11 12  2  0  0  0  0
 11 25  1  0  0  0  0
 12 26  1  0  0  0  0
 13 22  1  0  0  0  0
 13 24  2  0  0  0  0
 14 26  2  0  0  0  0
 14 27  1  0  0  0  0
 15 29  2  0  0  0  0
 15 68  1  0  0  0  0
 16 66  2  0  0  0  0
 16 68  1  0  0  0  0
 17 28  1  0  0  0  0
 18 28  1  0  0  0  0
 18 30  2  0  0  0  0
 18 31  1  0  0  0  0
 19 21  2  0  0  0  0
 19 36  1  0  0  0  0
 20 22  2  0  0  0  0
 20 37  1  0  0  0  0
 21 45  1  0  0  0  0
 22 38  1  0  0  0  0
 23 82  1  0  0  0  0
 24 83  1  0  0  0  0
 25 27  2  0  0  0  0
 25 82  1  0  0  0  0
 26 84  1  0  0  0  0
 27 85  1  0  0  0  0
 28 67  2  0  0  0  0
 29 63  1  0  0  0  0
 29 66  1  0  0  0  0
 30 69  1  0  0  0  0
 30 72  1  0  0  0  0
 31 73  1  0  0  0  0
 31 77  2  0  0  0  0
 32 46  1  0  0  0  0
 32 74  1  0  0  0  0
 32 78  2  0  0  0  0
 33 60  1  0  0  0  0
 33 70  1  0  0  0  0
 33 79  2  0  0  0  0
 34 64  1  0  0  0  0
 34 71  1  0  0  0  0
 34 80  2  0  0  0  0
 35 61  1  0  0  0  0
 35 75  1  0  0  0  0
 35 81  2  0  0  0  0
 36 39  1  0  0  0  0
 37 46  1  0  0  0  0
 38 70  1  0  0  0  0
 39 41  1  0  0  0  0
 40 42  1  0  0  0  0
 40 43  1  0  0  0  0
 41 45  1  0  0  0  0
 42 47  1  0  0  0  0
 43 71  1  0  0  0  0
 44 47  1  0  0  0  0
 44 71  1  0  0  0  0
 45 74  1  0  0  0  0
 46 70  1  0  0  0  0
 47 69  1  0  0  0  0
 48 61  1  0  0  0  0
 49 62  1  0  0  0  0
 50 63  1  0  0  0  0
 51 63  1  0  0  0  0
 52 64  1  0  0  0  0
 53 64  1  0  0  0  0
 54 65  1  0  0  0  0
 55 65  1  0  0  0  0
 56 65  1  0  0  0  0
 57 76  1  0  0  0  0
 58 64  1  0  0  0  0
 58 68  1  0  0  0  0
 59 62  1  0  0  0  0
 59 83  1  0  0  0  0
 60 65  1  0  0  0  0
 60 75  1  0  0  0  0
 61 76  1  0  0  0  0
 62 63  1  0  0  0  0
 67 69  1  0  0  0  0
M  CHG  1  76   1
M  ISO  4  34 100  59 101  64 100  83 101
M  END
> <Batch ID>
0067

> <Smiles>
CNC(C)C(=O)NC(C(=O)N1Cc2cc([101O:1][101CH2:1]C(C)C(C)(C)c3cn(C[100C:0](C)(C)[100C:0](=O)N4CCCC(n5nc(-c6ccc(Oc7ccc(F)cc7F)cc6)c(C(N)=O)c5N)C4)cn3)ccc2CC1C(=O)NC1CCCc2ccccc21)C(C)(C)C

> <Shape>
0.229

> <Color>
0.079

> <Negative vol penalty>
0.000

$$$$

  -OEChem-04052318123D

 88 96  0     1  0  0  0  0  0999 V2000
  -20.5436  -19.8275   18.3610 C   0  0  0  0  0  0  0  0  0  0  0  0
  -21.7079  -19.9525   19.1122 C   0  0  0  0  0  0  0  0  0  0  0  0
  -26.9212  -12.7472   21.2417 C   0  0  0  0  0  0  0  0  0  0  0  0
  -26.4855  -13.5654   19.0106 C   0  0  0  0  0  0  0  0  0  0  0  0
  -19.8955  -20.9673   17.8870 C   0  0  0  0  0  0  0  0  0  0  0  0
  -22.2254  -21.2174   19.3889 C   0  0  0  0  0  0  0  0  0  0  0  0
  -25.7984  -24.8009   24.4593 C   0  0  0  0  0  0  0  0  0  0  0  0
  -26.2397  -11.5676   20.9422 C   0  0  0  0  0  0  0  0  0  0  0  0
  -25.8040  -12.3858   18.7111 C   0  0  0  0  0  0  0  0  0  0  0  0
  -26.9267  -25.6043   24.6180 C   0  0  0  0  0  0  0  0  0  0  0  0
  -24.3038   -8.4900   20.8794 C   0  0  0  0  0  0  0  0  0  0  0  0
  -23.3994   -8.0041   21.8236 C   0  0  0  0  0  0  0  0  0  0  0  0
  -25.6785  -27.5057   23.8144 C   0  0  0  0  0  0  0  0  0  0  0  0
  -22.1233  -10.0485   21.6534 C   0  0  0  0  0  0  0  0  0  0  0  0
  -28.5786  -27.2889   20.8285 C   0  0  0  0  0  0  0  0  0  0  0  0
  -27.0441  -13.7462   20.2759 C   0  0  0  0  0  0  0  0  0  0  0  0
  -29.1206  -15.2218   20.4106 C   0  0  0  0  0  0  0  0  0  0  0  0
  -20.4000  -22.2473   18.1662 C   0  0  0  0  0  0  0  0  0  0  0  0
  -24.6027  -25.3425   23.9657 C   0  0  0  0  0  0  0  0  0  0  0  0
  -21.5842  -22.3754   18.9170 C   0  0  0  0  0  0  0  0  0  0  0  0
  -24.5357  -26.7076   23.6527 C   0  0  0  0  0  0  0  0  0  0  0  0
  -29.7817  -27.7687   21.3047 C   0  0  0  0  0  0  0  0  0  0  0  0
  -25.6811  -11.3869   19.6769 C   0  0  0  0  0  0  0  0  0  0  0  0
  -26.8677  -26.9563   24.2929 C   0  0  0  0  0  0  0  0  0  0  0  0
  -24.1180   -9.7552   20.3222 C   0  0  0  0  0  0  0  0  0  0  0  0
  -22.3092   -8.7833   22.2106 C   0  0  0  0  0  0  0  0  0  0  0  0
  -23.0277  -10.5344   20.7092 C   0  0  0  0  0  0  0  0  0  0  0  0
  -27.7474  -14.9651   20.5849 C   0  0  0  0  0  0  0  0  0  0  0  0
  -30.9097  -27.2786   20.6788 C   0  0  0  0  0  0  0  0  0  0  0  0
  -29.2872  -16.5122   20.8505 C   0  0  0  0  0  0  0  0  0  0  0  0
  -29.6446  -25.9973   19.2914 C   0  0  0  0  0  0  0  0  0  0  0  0
  -30.1532  -14.3699   19.8970 C   0  0  0  0  0  0  0  0  0  0  0  0
  -22.7975  -24.8274   21.4007 C   0  0  0  0  0  0  0  0  0  0  0  0
  -20.7979  -26.9171   22.8695 C   0  0  0  0  0  0  0  0  0  0  0  0
  -20.4060  -29.4778   25.0912 C   0  0  0  0  0  0  0  0  0  0  0  0
  -27.6222  -21.8346   21.0631 C   0  0  0  0  0  0  0  0  0  0  0  0
  -19.6907  -23.4482   17.5923 C   0  0  0  0  0  0  0  0  0  0  0  0
  -23.3868  -24.4682   23.8255 C   0  0  0  0  0  0  0  0  0  0  0  0
  -23.2703  -27.3421   23.1383 C   0  0  0  0  0  0  0  0  0  0  0  0
  -20.0976  -24.7661   18.2465 C   0  0  0  0  0  0  0  0  0  0  0  0
  -26.1367  -19.5647   23.3691 C   0  0  0  0  0  0  0  0  0  0  0  0
  -21.6154  -24.8544   18.3701 C   0  0  0  0  0  0  0  0  0  0  0  0
  -26.5313  -18.1876   22.8324 C   0  0  0  0  0  0  0  0  0  0  0  0
  -25.8582  -20.5525   22.2382 C   0  0  0  0  0  0  0  0  0  0  0  0
  -27.3387  -19.3062   20.7121 C   0  0  0  0  0  0  0  0  0  0  0  0
  -22.1628  -23.7312   19.2591 C   0  0  1  0  0  0  0  0  0  0  0  0
  -22.3695  -25.0150   22.8287 C   0  0  1  0  0  0  0  0  0  0  0  0
  -27.6837  -18.2913   21.8154 C   0  0  2  0  0  0  0  0  0  0  0  0
  -32.2670  -27.7273   21.1099 C   0  0  0  0  0  0  0  0  0  0  0  0
  -29.3004  -26.8403   16.3081 C   0  0  0  0  0  0  0  0  0  0  0  0
  -18.6597  -31.0030   26.0510 C   0  0  0  0  0  0  0  0  0  0  0  0
  -30.9573  -24.5689   17.5825 C   0  0  0  0  0  0  0  0  0  0  0  0
  -20.8005  -28.5415   20.2866 C   0  0  0  0  0  0  0  0  0  0  0  0
  -19.8586  -30.4678   21.5792 C   0  0  0  0  0  0  0  0  0  0  0  0
  -18.5658  -28.3426   21.3917 C   0  0  0  0  0  0  0  0  0  0  0  0
  -20.8728  -28.4750   27.8362 C   0  0  0  0  0  0  0  0  0  0  0  0
  -29.8324  -28.7631   22.4370 C   0  0  0  0  0  0  0  0  0  0  0  0
  -28.7403  -25.5669   16.9370 C   0  0  0  0  0  0  0  0  0  0  0  0
  -30.2363  -28.1484   23.7789 C   0  0  0  0  0  0  0  0  0  0  0  0
  -29.4448  -22.9776   19.8257 C   0  0  0  0  0  0  0  0  0  0  0  0
  -29.2406  -27.1156   24.2940 C   0  0  0  0  0  0  0  0  0  1  0  0
  -20.6231  -28.4165   22.8594 C   0  0  1  0  0  0  0  0  0  0  0  0
  -19.4104  -29.6910   26.2171 C   0  0  2  0  0  0  0  0  0  0  0  0
  -28.8381  -23.6743   18.6080 C   0  0  2  0  0  0  0  0  0  0  0  0
  -29.5686  -25.0140   18.1727 C   0  0  2  0  0  0  0  0  0  0  0  0
  -19.9866  -28.9300   21.5371 C   0  0  0  0  0  0  0  0  0  0  0  0
  -28.4729  -26.3993   19.8196 N   0  0  0  0  0  0  0  0  0  0  0  0
  -27.0886  -16.0087   21.0957 N   0  0  0  0  0  0  0  0  0  0  0  0
  -30.8777  -26.3885   19.6653 N   0  0  0  0  0  0  0  0  0  0  0  0
  -28.0519  -16.9336   21.2463 N   0  0  0  0  0  0  0  0  0  0  0  0
  -22.1101  -26.4444   23.0125 N   0  0  0  0  0  0  0  0  0  0  0  0
  -26.9902  -20.6047   21.3099 N   0  0  0  0  0  0  0  0  0  0  0  0
  -30.3684  -17.3163   20.9334 N   0  0  0  0  0  0  0  0  0  0  0  0
  -29.8090  -13.0738   19.4897 N   0  0  0  0  0  0  0  0  0  0  0  0
  -21.9415  -24.0387   20.6558 N   0  0  0  0  0  0  0  0  0  0  0  0
  -19.8594  -28.7466   24.0578 N   0  0  0  0  0  0  0  0  0  0  0  0
  -28.6904  -21.7946   20.1754 N   0  0  0  0  0  0  0  0  0  0  0  0
  -20.1122  -29.7142   27.5316 N   0  3  0  0  0  0  0  0  0  0  0  0
  -31.3487  -14.7413   19.8174 O   0  0  0  0  0  0  0  0  0  0  0  0
  -23.8272  -25.3600   21.0036 O   0  0  0  0  0  0  0  0  0  0  0  0
  -19.8059  -26.1919   22.7619 O   0  0  0  0  0  0  0  0  0  0  0  0
  -21.5525  -29.9192   25.1233 O   0  0  0  0  0  0  0  0  0  0  0  0
  -27.2646  -22.8893   21.5986 O   0  0  0  0  0  0  0  0  0  0  0  0
  -25.0163  -10.2359   19.3843 O   0  0  0  0  0  0  0  0  0  0  0  0
  -27.9678  -27.7426   24.4463 O   0  0  0  0  0  0  0  0  0  1  0  0
  -21.4399   -8.3159   23.1162 F   0  0  0  0  0  0  0  0  0  0  0  0
  -22.8433  -11.7502   20.1765 F   0  0  0  0  0  0  0  0  0  0  0  0
  -27.5402  -23.9716   18.9180 F   0  0  0  0  0  0  0  0  0  0  0  0
  1  2  1  0  0  0  0
  1  5  2  0  0  0  0
  2  6  2  0  0  0  0
  3  8  2  0  0  0  0
  3 16  1  0  0  0  0
  4  9  1  0  0  0  0
  4 16  2  0  0  0  0
  5 18  1  0  0  0  0
  6 20  1  0  0  0  0
  7 10  2  0  0  0  0
  7 19  1  0  0  0  0
  8 23  1  0  0  0  0
  9 23  2  0  0  0  0
 10 24  1  0  0  0  0
 11 12  2  0  0  0  0
 11 25  1  0  0  0  0
 12 26  1  0  0  0  0
 13 21  1  0  0  0  0
 13 24  2  0  0  0  0
 14 26  2  0  0  0  0
 14 27  1  0  0  0  0
 15 22  1  0  0  0  0
 15 67  2  0  0  0  0
 16 28  1  0  0  0  0
 17 28  1  0  0  0  0
 17 30  2  0  0  0  0
 17 32  1  0  0  0  0
 18 20  2  0  0  0  0
 18 37  1  0  0  0  0
 19 21  2  0  0  0  0
 19 38  1  0  0  0  0
 20 46  1  0  0  0  0
 21 39  1  0  0  0  0
 22 29  2  0  0  0  0
 22 57  1  0  0  0  0
 23 84  1  0  0  0  0
 24 85  1  0  0  0  0
 25 27  2  0  0  0  0
 25 84  1  0  0  0  0
 26 86  1  0  0  0  0
 27 87  1  0  0  0  0
 28 68  2  0  0  0  0
 29 49  1  0  0  0  0
 29 69  1  0  0  0  0
 30 70  1  0  0  0  0
 30 73  1  0  0  0  0
 31 65  1  0  0  0  0
 31 67  1  0  0  0  0
 31 69  2  0  0  0  0
 32 74  1  0  0  0  0
 32 79  2  0  0  0  0
 33 47  1  0  0  0  0
 33 75  1  0  0  0  0
 33 80  2  0  0  0  0
 34 62  1  0  0  0  0
 34 71  1  0  0  0  0
 34 81  2  0  0  0  0
 35 63  1  0  0  0  0
 35 76  1  0  0  0  0
 35 82  2  0  0  0  0
 36 72  1  0  0  0  0
 36 77  1  0  0  0  0
 36 83  2  0  0  0  0
 37 40  1  0  0  0  0
 38 47  1  0  0  0  0
 39 71  1  0  0  0  0
 40 42  1  0  0  0  0
 41 43  1  0  0  0  0
 41 44  1  0  0  0  0
 42 46  1  0  0  0  0
 43 48  1  0  0  0  0
 44 72  1  0  0  0  0
 45 48  1  0  0  0  0
 45 72  1  0  0  0  0
 46 75  1  0  0  0  0
 47 71  1  0  0  0  0
 48 70  1  0  0  0  0
 50 58  1  0  0  0  0
 51 63  1  0  0  0  0
 52 65  1  0  0  0  0
 53 66  1  0  0  0  0
 54 66  1  0  0  0  0
 55 66  1  0  0  0  0
 56 78  1  0  0  0  0
 57 59  1  0  0  0  0
 58 65  1  0  0  0  0
 59 61  1  0  0  0  0
 60 64  1  0  0  0  0
 60 77  1  0  0  0  0
 61 85  1  0  0  0  0
 62 66  1  0  0  0  0
 62 76  1  0  0  0  0
 63 78  1  0  0  0  0
 64 65  1  0  0  0  0
 64 88  1  0  0  0  0
 68 70  1  0  0  0  0
M  CHG  1  78   1
M  ISO  4  36 100  61 101  77 100  85 101
M  END
> <Batch ID>
0067

> <Smiles>
CCC(C)(c1ncc(CC[101CH2:1][101O:1]c2ccc3c(c2)CN(C(=O)C(NC(=O)C(C)NC)C(C)(C)C)C(C(=O)NC2CCCc4ccccc42)C3)c(C)n1)C(F)C[100NH:0][100C:0](=O)N1CCCC(n2nc(-c3ccc(Oc4ccc(F)cc4F)cc3)c(C(N)=O)c2N)C1

> <Shape>
0.228

> <Color>
0.064

> <Negative vol penalty>
0.000

$$$$

  -OEChem-04052318123D

 91 99  0     1  0  0  0  0  0999 V2000
  -29.1710  -12.7178   19.4936 C   0  0  0  0  0  0  0  0  0  0  0  0
  -28.7359  -13.9754   19.0879 C   0  0  0  0  0  0  0  0  0  0  0  0
  -29.1120  -20.9982   20.2389 C   0  0  0  0  0  0  0  0  0  0  0  0
  -28.2385  -21.4306   18.0283 C   0  0  0  0  0  0  0  0  0  0  0  0
  -28.2738  -11.8270   20.0812 C   0  0  0  0  0  0  0  0  0  0  0  0
  -27.4029  -14.3425   19.2687 C   0  0  0  0  0  0  0  0  0  0  0  0
  -25.2696  -19.9293   20.5889 C   0  0  0  0  0  0  0  0  0  0  0  0
  -29.4733  -19.7101   19.8443 C   0  0  0  0  0  0  0  0  0  0  0  0
  -28.5999  -20.1425   17.6335 C   0  0  0  0  0  0  0  0  0  0  0  0
  -24.7204  -20.9353   19.7952 C   0  0  0  0  0  0  0  0  0  0  0  0
  -31.9146  -17.7838   17.6712 C   0  0  0  0  0  0  0  0  0  0  0  0
  -33.1810  -17.3251   18.0336 C   0  0  0  0  0  0  0  0  0  0  0  0
  -22.5059  -20.1569   20.3513 C   0  0  0  0  0  0  0  0  0  0  0  0
  -32.2717  -16.4388   20.0890 C   0  0  0  0  0  0  0  0  0  0  0  0
  -19.3913  -27.2794   22.8736 C   0  0  0  0  0  0  0  0  0  0  0  0
  -28.4946  -21.8585   19.3310 C   0  0  0  0  0  0  0  0  0  0  0  0
  -28.9050  -24.3552   19.6562 C   0  0  0  0  0  0  0  0  0  0  0  0
  -26.9313  -12.1870   20.2781 C   0  0  0  0  0  0  0  0  0  0  0  0
  -24.4398  -19.0212   21.2622 C   0  0  0  0  0  0  0  0  0  0  0  0
  -26.4865  -13.4552   19.8583 C   0  0  0  0  0  0  0  0  0  0  0  0
  -23.0470  -19.1418   21.1550 C   0  0  0  0  0  0  0  0  0  0  0  0
  -29.2173  -19.2822   18.5416 C   0  0  0  0  0  0  0  0  0  0  0  0
  -23.3384  -21.0475   19.6740 C   0  0  0  0  0  0  0  0  0  0  0  0
  -30.8267  -17.5701   18.5177 C   0  0  0  0  0  0  0  0  0  0  0  0
  -33.3596  -16.6526   19.2425 C   0  0  0  0  0  0  0  0  0  0  0  0
  -31.0053  -16.8975   19.7266 C   0  0  0  0  0  0  0  0  0  0  0  0
  -28.1206  -23.1890   19.7382 C   0  0  0  0  0  0  0  0  0  0  0  0
  -19.2975  -26.7674   21.6103 C   0  0  0  0  0  0  0  0  0  0  0  0
  -28.1018  -25.3457   20.1663 C   0  0  0  0  0  0  0  0  0  0  0  0
  -21.1619  -27.9550   21.7294 C   0  0  0  0  0  0  0  0  0  0  0  0
  -30.2401  -24.5276   19.1629 C   0  0  0  0  0  0  0  0  0  0  0  0
  -24.0161  -15.8724   21.1650 C   0  0  0  0  0  0  0  0  0  0  0  0
  -22.0579  -16.4500   23.6857 C   0  0  0  0  0  0  0  0  0  0  0  0
  -23.2038  -27.8475   20.3357 C   0  0  0  0  0  0  0  0  0  0  0  0
  -20.0902  -18.6665   25.3775 C   0  0  0  0  0  0  0  0  0  0  0  0
  -25.9877  -11.1728   20.8745 C   0  0  0  0  0  0  0  0  0  0  0  0
  -25.0473  -17.9581   22.1358 C   0  0  0  0  0  0  0  0  0  0  0  0
  -22.1122  -18.2046   21.8736 C   0  0  0  0  0  0  0  0  0  0  0  0
  -24.6776  -11.7783   21.3719 C   0  0  0  0  0  0  0  0  0  0  0  0
  -23.7111  -25.0867   22.6483 C   0  0  0  0  0  0  0  0  0  0  0  0
  -24.0995  -12.7297   20.3291 C   0  0  0  0  0  0  0  0  0  0  0  0
  -24.9589  -24.4249   22.0652 C   0  0  0  0  0  0  0  0  0  0  0  0
  -22.8105  -25.6504   21.5523 C   0  0  0  0  0  0  0  0  0  0  0  0
  -24.7531  -25.9402   20.0467 C   0  0  0  0  0  0  0  0  0  0  0  0
  -25.0540  -13.8994   20.0600 C   0  0  1  0  0  0  0  0  0  0  0  0
  -24.1180  -16.7703   22.3655 C   0  0  1  0  0  0  0  0  0  0  0  0
  -25.7031  -25.3855   21.1212 C   0  0  2  0  0  0  0  0  0  0  0  0
  -18.2675  -25.9163   21.0024 C   0  0  0  0  0  0  0  0  0  0  0  0
  -19.3800  -28.9586   18.5638 C   0  0  0  0  0  0  0  0  0  0  0  0
  -18.5876  -18.8371   27.3801 C   0  0  0  0  0  0  0  0  0  0  0  0
  -23.3712  -28.7308   22.6292 C   0  0  0  0  0  0  0  0  0  0  0  0
  -22.3396  -30.0515   20.7784 C   0  0  0  0  0  0  0  0  0  0  0  0
  -19.8725  -14.9540   22.1704 C   0  0  0  0  0  0  0  0  0  0  0  0
  -18.1963  -15.9593   23.7350 C   0  0  0  0  0  0  0  0  0  0  0  0
  -19.9763  -14.4510   24.6180 C   0  0  0  0  0  0  0  0  0  0  0  0
  -22.9440  -24.6183   18.0001 C   0  0  0  0  0  0  0  0  0  0  0  0
  -21.0403  -25.4187   16.6202 C   0  0  0  0  0  0  0  0  0  0  0  0
  -22.0554  -27.5079   18.9554 C   0  0  0  0  0  0  0  0  0  0  0  0
  -20.8240  -22.2921   20.2341 C   0  0  0  0  0  0  0  0  0  0  0  0
  -20.9094  -20.7048   18.3103 C   0  0  0  0  0  0  0  0  0  0  0  0
  -21.7957  -20.7383   26.6256 C   0  0  0  0  0  0  0  0  0  0  0  0
  -19.5744  -27.4437   18.5502 C   0  0  0  0  0  0  0  0  0  0  0  0
  -20.7586  -25.3163   19.1833 C   0  0  0  0  0  0  0  0  0  0  0  0
  -20.9426  -23.1571   17.7932 C   0  0  0  0  0  0  0  0  0  0  0  0
  -20.5935  -16.7789   23.8485 C   0  0  1  0  0  0  0  0  0  0  0  0
  -20.0029  -19.0141   26.8526 C   0  0  2  0  0  0  0  0  0  0  0  0
  -22.4441  -28.6184   21.3856 C   0  0  0  0  0  0  0  0  0  0  0  0
  -19.6770  -15.5524   23.5777 C   0  0  0  0  0  0  0  0  0  0  0  0
  -21.4025  -24.6623   17.9164 C   0  0  0  0  0  0  0  0  0  0  0  0
  -20.7363  -26.8760   19.4520 C   0  0  1  0  0  0  0  0  0  0  0  0
  -21.3711  -22.0791   18.8245 C   0  0  0  0  0  0  0  0  0  1  0  0
  -26.9121  -23.4161   20.2596 N   0  0  0  0  0  0  0  0  0  0  0  0
  -20.4059  -27.2018   20.9240 N   0  0  0  0  0  0  0  0  0  0  0  0
  -26.9310  -24.7364   20.5099 N   0  0  0  0  0  0  0  0  0  0  0  0
  -20.5544  -28.0096   22.9191 N   0  3  0  0  0  0  0  0  0  0  0  0
  -22.7545  -17.1779   22.7107 N   0  0  0  0  0  0  0  0  0  0  0  0
  -23.5631  -26.5386   20.6583 N   0  0  0  0  0  0  0  0  0  0  0  0
  -28.2901  -26.6698   20.3502 N   0  0  0  0  0  0  0  0  0  0  0  0
  -30.9222  -23.4048   18.6746 N   0  0  0  0  0  0  0  0  0  0  0  0
  -24.9713  -14.8746   21.1261 N   0  0  0  0  0  0  0  0  0  0  0  0
  -20.4492  -17.3495   25.1834 N   0  0  0  0  0  0  0  0  0  0  0  0
  -20.4146  -20.4287   27.0767 N   0  3  0  0  0  0  0  0  0  0  0  0
  -30.8173  -25.6412   19.1704 O   0  0  0  0  0  0  0  0  0  0  0  0
  -23.1352  -16.0693   20.3362 O   0  0  0  0  0  0  0  0  0  0  0  0
  -22.5666  -15.5844   24.4023 O   0  0  0  0  0  0  0  0  0  0  0  0
  -23.4714  -28.3947   19.2628 O   0  0  0  0  0  0  0  0  0  0  0  0
  -19.8591  -19.4809   24.4865 O   0  0  0  0  0  0  0  0  0  0  0  0
  -29.5699  -18.0254   18.1560 O   0  0  0  0  0  0  0  0  0  0  0  0
  -22.7971  -22.0329   18.8956 O   0  0  0  0  0  0  0  0  0  1  0  0
  -34.5755  -16.2107   19.5897 F   0  0  0  0  0  0  0  0  0  0  0  0
  -29.9637  -16.6882   20.5434 F   0  0  0  0  0  0  0  0  0  0  0  0
  1  2  1  0  0  0  0
  1  5  2  0  0  0  0
  2  6  2  0  0  0  0
  3  8  2  0  0  0  0
  3 16  1  0  0  0  0
  4  9  1  0  0  0  0
  4 16  2  0  0  0  0
  5 18  1  0  0  0  0
  6 20  1  0  0  0  0
  7 10  2  0  0  0  0
  7 19  1  0  0  0  0
  8 22  1  0  0  0  0
  9 22  2  0  0  0  0
 10 23  1  0  0  0  0
 11 12  2  0  0  0  0
 11 24  1  0  0  0  0
 12 25  1  0  0  0  0
 13 21  1  0  0  0  0
 13 23  2  0  0  0  0
 14 25  2  0  0  0  0
 14 26  1  0  0  0  0
 15 28  2  0  0  0  0
 15 75  1  0  0  0  0
 16 27  1  0  0  0  0
 17 27  1  0  0  0  0
 17 29  2  0  0  0  0
 17 31  1  0  0  0  0
 18 20  2  0  0  0  0
 18 36  1  0  0  0  0
 19 21  2  0  0  0  0
 19 37  1  0  0  0  0
 20 45  1  0  0  0  0
 21 38  1  0  0  0  0
 22 88  1  0  0  0  0
 23 89  1  0  0  0  0
 24 26  2  0  0  0  0
 24 88  1  0  0  0  0
 25 90  1  0  0  0  0
 26 91  1  0  0  0  0
 27 72  2  0  0  0  0
 28 48  1  0  0  0  0
 28 73  1  0  0  0  0
 29 74  1  0  0  0  0
 29 78  1  0  0  0  0
 30 67  1  0  0  0  0
 30 73  1  0  0  0  0
 30 75  2  0  0  0  0
 31 79  1  0  0  0  0
 31 83  2  0  0  0  0
 32 46  1  0  0  0  0
 32 80  1  0  0  0  0
 32 84  2  0  0  0  0
 33 65  1  0  0  0  0
 33 76  1  0  0  0  0
 33 85  2  0  0  0  0
 34 67  1  0  0  0  0
 34 77  1  0  0  0  0
 34 86  2  0  0  0  0
 35 66  1  0  0  0  0
 35 81  1  0  0  0  0
 35 87  2  0  0  0  0
 36 39  1  0  0  0  0
 37 46  1  0  0  0  0
 38 76  1  0  0  0  0
 39 41  1  0  0  0  0
 40 42  1  0  0  0  0
 40 43  1  0  0  0  0
 41 45  1  0  0  0  0
 42 47  1  0  0  0  0
 43 77  1  0  0  0  0
 44 47  1  0  0  0  0
 44 77  1  0  0  0  0
 45 80  1  0  0  0  0
 46 76  1  0  0  0  0
 47 74  1  0  0  0  0
 49 62  1  0  0  0  0
 50 66  1  0  0  0  0
 51 67  1  0  0  0  0
 52 67  1  0  0  0  0
 53 68  1  0  0  0  0
 54 68  1  0  0  0  0
 55 68  1  0  0  0  0
 56 69  1  0  0  0  0
 57 69  1  0  0  0  0
 58 70  1  0  0  0  0
 59 71  1  0  0  0  0
 60 71  1  0  0  0  0
 61 82  1  0  0  0  0
 62 70  1  0  0  0  0
 63 69  1  0  0  0  0
 63 70  1  0  0  0  0
 64 69  1  0  0  0  0
 64 71  1  0  0  0  0
 65 68  1  0  0  0  0
 65 81  1  0  0  0  0
 66 82  1  0  0  0  0
 70 73  1  0  0  0  0
 71 89  1  0  0  0  0
 72 74  1  0  0  0  0
M  CHG  2  75   1  82   1
M  ISO  4  34 100  67 100  71 101  89 101
M  END
> <Batch ID>
0067

> <Smiles>
CCC(C)(CC(C)(C)C[101C:1](C)(C)[101O:1]c1ccc2c(c1)CN(C(=O)C(NC(=O)C(C)NC)C(C)(C)C)C(C(=O)NC1CCCc3ccccc31)C2)n1c(C)cnc1[100C:0](C)(C)[100C:0](=O)N1CCCC(n2nc(-c3ccc(Oc4ccc(F)cc4F)cc3)c(C(N)=O)c2N)C1

> <Shape>
0.195

> <Color>
0.068

> <Negative vol penalty>
0.000

$$$$

  -OEChem-04052318123D

 85 93  0     1  0  0  0  0  0999 V2000
  -17.2498  -32.4099   22.6668 C   0  0  0  0  0  0  0  0  0  0  0  0
  -18.4400  -32.6417   21.9847 C   0  0  0  0  0  0  0  0  0  0  0  0
  -27.1432  -13.7653   21.8003 C   0  0  0  0  0  0  0  0  0  0  0  0
  -26.7558  -13.9915   19.4263 C   0  0  0  0  0  0  0  0  0  0  0  0
  -17.2029  -31.4520   23.6788 C   0  0  0  0  0  0  0  0  0  0  0  0
  -19.5842  -31.9165   22.3150 C   0  0  0  0  0  0  0  0  0  0  0  0
  -25.4953  -29.1595   19.3527 C   0  0  0  0  0  0  0  0  0  0  0  0
  -26.2483  -12.6963   21.8444 C   0  0  0  0  0  0  0  0  0  0  0  0
  -25.8610  -12.9224   19.4704 C   0  0  0  0  0  0  0  0  0  0  0  0
  -26.8796  -29.1519   19.5176 C   0  0  0  0  0  0  0  0  0  0  0  0
  -23.7925  -10.1374   22.6476 C   0  0  0  0  0  0  0  0  0  0  0  0
  -22.8615  -10.1115   23.6859 C   0  0  0  0  0  0  0  0  0  0  0  0
  -26.6603  -27.4665   21.2295 C   0  0  0  0  0  0  0  0  0  0  0  0
  -21.9649  -12.2255   22.9348 C   0  0  0  0  0  0  0  0  0  0  0  0
  -28.9759  -26.0566   17.6865 C   0  0  0  0  0  0  0  0  0  0  0  0
  -27.3969  -14.4130   20.5912 C   0  0  0  0  0  0  0  0  0  0  0  0
  -29.7078  -15.4569   20.3128 C   0  0  0  0  0  0  0  0  0  0  0  0
  -18.3447  -30.7078   24.0151 C   0  0  0  0  0  0  0  0  0  0  0  0
  -24.6808  -28.3272   20.1339 C   0  0  0  0  0  0  0  0  0  0  0  0
  -19.5528  -30.9486   23.3333 C   0  0  0  0  0  0  0  0  0  0  0  0
  -25.2661  -27.4636   21.0708 C   0  0  0  0  0  0  0  0  0  0  0  0
  -30.2169  -25.9160   18.2734 C   0  0  0  0  0  0  0  0  0  0  0  0
  -25.6073  -12.2748   20.6795 C   0  0  0  0  0  0  0  0  0  0  0  0
  -27.4622  -28.3074   20.4581 C   0  0  0  0  0  0  0  0  0  0  0  0
  -23.8098  -11.2075   21.7529 C   0  0  0  0  0  0  0  0  0  0  0  0
  -21.9477  -11.1554   23.8295 C   0  0  0  0  0  0  0  0  0  0  0  0
  -22.8960  -12.2515   21.8965 C   0  0  0  0  0  0  0  0  0  0  0  0
  -28.3207  -15.5178   20.5451 C   0  0  0  0  0  0  0  0  0  0  0  0
  -30.7818  -24.6603   18.1819 C   0  0  0  0  0  0  0  0  0  0  0  0
  -30.1231  -16.7649   20.3688 C   0  0  0  0  0  0  0  0  0  0  0  0
  -28.9821  -23.8791   17.0339 C   0  0  0  0  0  0  0  0  0  0  0  0
  -30.5460  -14.3197   20.0681 C   0  0  0  0  0  0  0  0  0  0  0  0
  -22.3658  -28.8074   22.2585 C   0  0  0  0  0  0  0  0  0  0  0  0
  -22.1143  -25.5758   22.1341 C   0  0  0  0  0  0  0  0  0  0  0  0
  -23.5995  -22.5780   21.4601 C   0  0  0  0  0  0  0  0  0  0  0  0
  -27.3231  -21.9752   19.4392 C   0  0  0  0  0  0  0  0  0  0  0  0
  -18.2572  -29.7164   25.1483 C   0  0  0  0  0  0  0  0  0  0  0  0
  -23.1912  -28.3279   19.9251 C   0  0  0  0  0  0  0  0  0  0  0  0
  -24.4376  -26.5359   21.9202 C   0  0  0  0  0  0  0  0  0  0  0  0
  -19.4191  -28.7269   25.1829 C   0  0  0  0  0  0  0  0  0  0  0  0
  -29.0269  -20.9580   22.3954 C   0  0  0  0  0  0  0  0  0  0  0  0
  -20.7469  -29.4562   25.0045 C   0  0  0  0  0  0  0  0  0  0  0  0
  -29.1642  -19.4429   22.2355 C   0  0  0  0  0  0  0  0  0  0  0  0
  -27.7010  -21.4669   21.8341 C   0  0  0  0  0  0  0  0  0  0  0  0
  -27.5656  -19.5600   20.2786 C   0  0  0  0  0  0  0  0  0  0  0  0
  -20.8090  -30.1647   23.6459 C   0  0  1  0  0  0  0  0  0  0  0  0
  -22.4181  -27.8115   21.1347 C   0  0  1  0  0  0  0  0  0  0  0  0
  -28.9110  -19.0075   20.7796 C   0  0  2  0  0  0  0  0  0  0  0  0
  -32.1229  -24.3908   18.7804 C   0  0  0  0  0  0  0  0  0  0  0  0
  -23.7948  -20.0978   21.1315 C   0  0  0  0  0  0  0  0  0  0  0  0
  -28.0293  -23.0787   14.8614 C   0  0  0  0  0  0  0  0  0  0  0  0
  -22.4009  -25.5616   25.1718 C   0  0  0  0  0  0  0  0  0  0  0  0
  -22.9011  -23.1119   25.0435 C   0  0  0  0  0  0  0  0  0  0  0  0
  -20.6886  -23.9730   24.2781 C   0  0  0  0  0  0  0  0  0  0  0  0
  -22.8436  -22.7797   18.6058 C   0  0  0  0  0  0  0  0  0  0  0  0
  -30.8897  -27.0752   18.9641 C   0  0  0  0  0  0  0  0  0  0  0  0
  -30.8279  -27.0023   20.4913 C   0  0  0  0  0  0  0  0  0  0  0  0
  -26.9624  -22.3251   17.0089 C   0  0  0  0  0  0  0  0  0  0  0  0
  -29.4083  -27.0716   21.0422 C   0  0  0  0  0  0  0  0  0  1  0  0
  -22.7457  -24.4248   22.8795 C   0  0  1  0  0  0  0  0  0  0  0  0
  -23.1303  -21.3799   20.6545 C   0  0  2  0  0  0  0  0  0  0  0  0
  -28.2968  -22.7479   16.3448 C   0  0  2  0  0  0  0  0  0  0  0  0
  -22.1998  -24.2866   24.3287 C   0  0  0  0  0  0  0  0  0  0  0  0
  -28.3272  -25.0556   17.0560 N   0  0  0  0  0  0  0  0  0  0  0  0
  -27.8839  -16.7657   20.7347 N   0  0  0  0  0  0  0  0  0  0  0  0
  -30.1901  -23.6150   17.5673 N   0  0  0  0  0  0  0  0  0  0  0  0
  -29.0031  -17.5011   20.6218 N   0  0  0  0  0  0  0  0  0  0  0  0
  -22.9851  -26.5779   21.6834 N   0  0  0  0  0  0  0  0  0  0  0  0
  -27.5228  -21.0207   20.4502 N   0  0  0  0  0  0  0  0  0  0  0  0
  -31.3333  -17.3457   20.2260 N   0  0  0  0  0  0  0  0  0  0  0  0
  -29.9567  -13.0483   20.0439 N   0  0  0  0  0  0  0  0  0  0  0  0
  -21.0876  -29.2130   22.5918 N   0  0  0  0  0  0  0  0  0  0  0  0
  -22.5446  -23.2418   22.0498 N   0  0  0  0  0  0  0  0  0  0  0  0
  -27.1693  -21.4679   18.1548 N   0  0  0  0  0  0  0  0  0  0  0  0
  -23.4525  -21.5676   19.2116 N   0  3  0  0  0  0  0  0  0  0  0  0
  -31.7835  -14.4262   19.8930 O   0  0  0  0  0  0  0  0  0  0  0  0
  -23.4079  -29.1792   22.7853 O   0  0  0  0  0  0  0  0  0  0  0  0
  -20.8943  -25.5818   21.9521 O   0  0  0  0  0  0  0  0  0  0  0  0
  -24.7838  -22.8914   21.5595 O   0  0  0  0  0  0  0  0  0  0  0  0
  -27.2901  -23.1899   19.6638 O   0  0  0  0  0  0  0  0  0  0  0  0
  -24.7343  -11.2314   20.7222 O   0  0  0  0  0  0  0  0  0  0  0  0
  -28.8131  -28.2984   20.6216 O   0  0  0  0  0  0  0  0  0  1  0  0
  -21.0526  -11.1296   24.8257 F   0  0  0  0  0  0  0  0  0  0  0  0
  -22.9069  -13.2815   21.0394 F   0  0  0  0  0  0  0  0  0  0  0  0
  -29.0609  -21.5925   16.3078 F   0  0  0  0  0  0  0  0  0  0  0  0
  1  2  1  0  0  0  0
  1  5  2  0  0  0  0
  2  6  2  0  0  0  0
  3  8  2  0  0  0  0
  3 16  1  0  0  0  0
  4  9  1  0  0  0  0
  4 16  2  0  0  0  0
  5 18  1  0  0  0  0
  6 20  1  0  0  0  0
  7 10  2  0  0  0  0
  7 19  1  0  0  0  0
  8 23  1  0  0  0  0
  9 23  2  0  0  0  0
 10 24  1  0  0  0  0
 11 12  2  0  0  0  0
 11 25  1  0  0  0  0
 12 26  1  0  0  0  0
 13 21  1  0  0  0  0
 13 24  2  0  0  0  0
 14 26  2  0  0  0  0
 14 27  1  0  0  0  0
 15 22  1  0  0  0  0
 15 64  2  0  0  0  0
 16 28  1  0  0  0  0
 17 28  1  0  0  0  0
 17 30  2  0  0  0  0
 17 32  1  0  0  0  0
 18 20  2  0  0  0  0
 18 37  1  0  0  0  0
 19 21  2  0  0  0  0
 19 38  1  0  0  0  0
 20 46  1  0  0  0  0
 21 39  1  0  0  0  0
 22 29  2  0  0  0  0
 22 56  1  0  0  0  0
 23 81  1  0  0  0  0
 24 82  1  0  0  0  0
 25 27  2  0  0  0  0
 25 81  1  0  0  0  0
 26 83  1  0  0  0  0
 27 84  1  0  0  0  0
 28 65  2  0  0  0  0
 29 49  1  0  0  0  0
 29 66  1  0  0  0  0
 30 67  1  0  0  0  0
 30 70  1  0  0  0  0
 31 62  1  0  0  0  0
 31 64  1  0  0  0  0
 31 66  2  0  0  0  0
 32 71  1  0  0  0  0
 32 76  2  0  0  0  0
 33 47  1  0  0  0  0
 33 72  1  0  0  0  0
 33 77  2  0  0  0  0
 34 60  1  0  0  0  0
 34 68  1  0  0  0  0
 34 78  2  0  0  0  0
 35 61  1  0  0  0  0
 35 73  1  0  0  0  0
 35 79  2  0  0  0  0
 36 69  1  0  0  0  0
 36 74  1  0  0  0  0
 36 80  2  0  0  0  0
 37 40  1  0  0  0  0
 38 47  1  0  0  0  0
 39 68  1  0  0  0  0
 40 42  1  0  0  0  0
 41 43  1  0  0  0  0
 41 44  1  0  0  0  0
 42 46  1  0  0  0  0
 43 48  1  0  0  0  0
 44 69  1  0  0  0  0
 45 48  1  0  0  0  0
 45 69  1  0  0  0  0
 46 72  1  0  0  0  0
 47 68  1  0  0  0  0
 48 67  1  0  0  0  0
 50 61  1  0  0  0  0
 51 62  1  0  0  0  0
 52 63  1  0  0  0  0
 53 63  1  0  0  0  0
 54 63  1  0  0  0  0
 55 75  1  0  0  0  0
 56 57  1  0  0  0  0
 57 59  1  0  0  0  0
 58 62  1  0  0  0  0
 58 74  1  0  0  0  0
 59 82  1  0  0  0  0
 60 63  1  0  0  0  0
 60 73  1  0  0  0  0
 61 75  1  0  0  0  0
 62 85  1  0  0  0  0
 65 67  1  0  0  0  0
M  CHG  1  75   1
M  ISO  4  36 100  59 101  74 100  82 101
M  END
> <Batch ID>
0067

> <Smiles>
CNC(C)C(=O)NC(C(=O)N1Cc2cc([101O:1][101CH2:1]CCc3cnc(C(C)(F)C[100NH:0][100C:0](=O)N4CCCC(n5nc(-c6ccc(Oc7ccc(F)cc7F)cc6)c(C(N)=O)c5N)C4)nc3C)ccc2CC1C(=O)NC1CCCc2ccccc21)C(C)(C)C

> <Shape>
0.266

> <Color>
0.081

> <Negative vol penalty>
0.000

$$$$

  -OEChem-04052318123D

 91 99  0     1  0  0  0  0  0999 V2000
  -28.5206  -24.9807   16.2797 C   0  0  0  0  0  0  0  0  0  0  0  0
  -27.3587  -25.0327   17.0431 C   0  0  0  0  0  0  0  0  0  0  0  0
  -26.6881  -12.9164   20.6601 C   0  0  0  0  0  0  0  0  0  0  0  0
  -25.1596  -14.4532   19.5929 C   0  0  0  0  0  0  0  0  0  0  0  0
  -29.6849  -25.5929   16.7419 C   0  0  0  0  0  0  0  0  0  0  0  0
  -27.3607  -25.6960   18.2696 C   0  0  0  0  0  0  0  0  0  0  0  0
  -23.2911  -28.6452   18.8901 C   0  0  0  0  0  0  0  0  0  0  0  0
  -25.8384  -11.8550   20.3487 C   0  0  0  0  0  0  0  0  0  0  0  0
  -24.3099  -13.3918   19.2815 C   0  0  0  0  0  0  0  0  0  0  0  0
  -22.0967  -28.0168   19.2401 C   0  0  0  0  0  0  0  0  0  0  0  0
  -22.9671  -10.5306   21.5430 C   0  0  0  0  0  0  0  0  0  0  0  0
  -22.7069   -9.5946   22.5438 C   0  0  0  0  0  0  0  0  0  0  0  0
  -22.4464  -28.6477   21.5420 C   0  0  0  0  0  0  0  0  0  0  0  0
  -23.6359   -7.8503   21.1540 C   0  0  0  0  0  0  0  0  0  0  0  0
  -23.9492  -21.5459   25.1466 C   0  0  0  0  0  0  0  0  0  0  0  0
  -26.3487  -14.2155   20.2823 C   0  0  0  0  0  0  0  0  0  0  0  0
  -28.2802  -15.8163   19.8192 C   0  0  0  0  0  0  0  0  0  0  0  0
  -29.6986  -26.2723   17.9703 C   0  0  0  0  0  0  0  0  0  0  0  0
  -24.0788  -29.2712   19.8668 C   0  0  0  0  0  0  0  0  0  0  0  0
  -28.5267  -26.3167   18.7493 C   0  0  0  0  0  0  0  0  0  0  0  0
  -23.6490  -29.2855   21.2014 C   0  0  0  0  0  0  0  0  0  0  0  0
  -24.6493  -12.0927   19.6594 C   0  0  0  0  0  0  0  0  0  0  0  0
  -21.6757  -28.0155   20.5666 C   0  0  0  0  0  0  0  0  0  0  0  0
  -23.5616  -10.1265   20.3475 C   0  0  0  0  0  0  0  0  0  0  0  0
  -23.0413   -8.2545   22.3493 C   0  0  0  0  0  0  0  0  0  0  0  0
  -23.8960   -8.7864   20.1531 C   0  0  0  0  0  0  0  0  0  0  0  0
  -27.2258  -15.3124   20.6041 C   0  0  0  0  0  0  0  0  0  0  0  0
  -24.8462  -22.1641   25.9896 C   0  0  0  0  0  0  0  0  0  0  0  0
  -23.2759  -23.7466   26.4998 C   0  0  0  0  0  0  0  0  0  0  0  0
  -22.3792  -23.1286   25.6561 C   0  0  0  0  0  0  0  0  0  0  0  0
  -28.7983  -16.8488   20.5621 C   0  0  0  0  0  0  0  0  0  0  0  0
  -28.7493  -15.3893   18.5334 C   0  0  0  0  0  0  0  0  0  0  0  0
  -27.0236  -28.8454   20.9852 C   0  0  0  0  0  0  0  0  0  0  0  0
  -26.3688  -31.5583   22.6386 C   0  0  0  0  0  0  0  0  0  0  0  0
  -24.0185  -33.6393   23.9774 C   0  0  0  0  0  0  0  0  0  0  0  0
  -27.2650  -21.0328   23.9359 C   0  0  0  0  0  0  0  0  0  0  0  0
  -30.9937  -26.8782   18.4503 C   0  0  0  0  0  0  0  0  0  0  0  0
  -25.3512  -29.9677   19.4688 C   0  0  0  0  0  0  0  0  0  0  0  0
  -24.4481  -29.9611   22.2847 C   0  0  0  0  0  0  0  0  0  0  0  0
  -30.8125  -27.8817   19.5862 C   0  0  0  0  0  0  0  0  0  0  0  0
  -28.6974  -18.1206   25.3286 C   0  0  0  0  0  0  0  0  0  0  0  0
  -29.8768  -27.3190   20.6514 C   0  0  0  0  0  0  0  0  0  0  0  0
  -28.5615  -17.1330   24.1706 C   0  0  0  0  0  0  0  0  0  0  0  0
  -27.4660  -19.0179   25.4661 C   0  0  0  0  0  0  0  0  0  0  0  0
  -26.9624  -18.7363   23.0599 C   0  0  0  0  0  0  0  0  0  0  0  0
  -28.4826  -27.0479   20.0735 C   0  0  1  0  0  0  0  0  0  0  0  0
  -26.3310  -30.1298   20.6268 C   0  0  1  0  0  0  0  0  0  0  0  0
  -28.2114  -17.8636   22.8626 C   0  0  2  0  0  0  0  0  0  0  0  0
  -22.9083  -24.9751   27.2596 C   0  0  0  0  0  0  0  0  0  0  0  0
  -23.7889  -35.7574   25.3034 C   0  0  0  0  0  0  0  0  0  0  0  0
  -26.4485  -24.1582   24.3148 C   0  0  0  0  0  0  0  0  0  0  0  0
  -27.9855  -23.8008   26.2726 C   0  0  0  0  0  0  0  0  0  0  0  0
  -27.1522  -30.0528   25.1743 C   0  0  0  0  0  0  0  0  0  0  0  0
  -26.0208  -31.8464   26.5052 C   0  0  0  0  0  0  0  0  0  0  0  0
  -27.9772  -32.4112   25.0643 C   0  0  0  0  0  0  0  0  0  0  0  0
  -18.9877  -26.0049   24.8320 C   0  0  0  0  0  0  0  0  0  0  0  0
  -18.4300  -23.7986   23.8282 C   0  0  0  0  0  0  0  0  0  0  0  0
  -18.0448  -26.1700   21.8796 C   0  0  0  0  0  0  0  0  0  0  0  0
  -19.8642  -24.6259   21.2022 C   0  0  0  0  0  0  0  0  0  0  0  0
  -22.5402  -34.9830   21.7938 C   0  0  0  0  0  0  0  0  0  0  0  0
  -20.9813  -23.6670   25.4614 C   0  0  0  0  0  0  0  0  0  0  0  0
  -26.2189  -21.6159   26.1653 C   0  0  0  0  0  0  0  0  0  0  0  0
  -20.8588  -24.4323   24.1323 C   0  0  0  0  0  0  0  0  0  0  0  0
  -20.4332  -26.8528   22.2281 C   0  0  0  0  0  0  0  0  0  1  0  0
  -25.7569  -31.8695   23.9831 C   0  0  1  0  0  0  0  0  0  0  0  0
  -23.8536  -35.1470   23.9120 C   0  0  2  0  0  0  0  0  0  0  0  0
  -27.5406  -23.2798   24.9122 C   0  0  0  0  0  0  0  0  0  0  0  0
  -26.7125  -31.5305   25.1619 C   0  0  0  0  0  0  0  0  0  0  0  0
  -19.4344  -24.9782   23.7616 C   0  0  0  0  0  0  0  0  0  0  0  0
  -19.4472  -25.6476   22.2923 C   0  0  0  0  0  0  0  0  0  0  0  0
  -22.6996  -22.0171   24.9647 N   0  0  0  0  0  0  0  0  0  0  0  0
  -27.0815  -15.9705   21.7574 N   0  0  0  0  0  0  0  0  0  0  0  0
  -24.5256  -23.2756   26.6814 N   0  0  0  0  0  0  0  0  0  0  0  0
  -28.0521  -16.8984   21.7027 N   0  0  0  0  0  0  0  0  0  0  0  0
  -25.6881  -30.6229   21.8465 N   0  0  0  0  0  0  0  0  0  0  0  0
  -27.1389  -19.6581   24.1847 N   0  0  0  0  0  0  0  0  0  0  0  0
  -29.8149  -17.7099   20.3446 N   0  0  0  0  0  0  0  0  0  0  0  0
  -28.1033  -14.3129   17.9101 N   0  0  0  0  0  0  0  0  0  0  0  0
  -27.7395  -28.2832   19.9455 N   0  0  0  0  0  0  0  0  0  0  0  0
  -25.3457  -33.2682   23.9306 N   0  0  0  0  0  0  0  0  0  0  0  0
  -27.0844  -21.9014   25.0227 N   0  0  0  0  0  0  0  0  0  0  0  0
  -22.6014  -35.5000   23.1852 N   0  3  0  0  0  0  0  0  0  0  0  0
  -29.7233  -15.9352   17.9616 O   0  0  0  0  0  0  0  0  0  0  0  0
  -26.9176  -28.3984   22.1212 O   0  0  0  0  0  0  0  0  0  0  0  0
  -27.4085  -32.1296   22.3006 O   0  0  0  0  0  0  0  0  0  0  0  0
  -23.0656  -32.8682   24.0651 O   0  0  0  0  0  0  0  0  0  0  0  0
  -27.5173  -21.4626   22.8029 O   0  0  0  0  0  0  0  0  0  0  0  0
  -23.8199  -11.0572   19.3552 O   0  0  0  0  0  0  0  0  0  0  0  0
  -20.5039  -27.3987   20.9131 O   0  0  0  0  0  0  0  0  0  1  0  0
  -22.7929   -7.3559   23.3112 F   0  0  0  0  0  0  0  0  0  0  0  0
  -24.4684   -8.3924   19.0073 F   0  0  0  0  0  0  0  0  0  0  0  0
  1  2  1  0  0  0  0
  1  5  2  0  0  0  0
  2  6  2  0  0  0  0
  3  8  2  0  0  0  0
  3 16  1  0  0  0  0
  4  9  1  0  0  0  0
  4 16  2  0  0  0  0
  5 18  1  0  0  0  0
  6 20  1  0  0  0  0
  7 10  2  0  0  0  0
  7 19  1  0  0  0  0
  8 22  1  0  0  0  0
  9 22  2  0  0  0  0
 10 23  1  0  0  0  0
 11 12  2  0  0  0  0
 11 24  1  0  0  0  0
 12 25  1  0  0  0  0
 13 21  1  0  0  0  0
 13 23  2  0  0  0  0
 14 25  2  0  0  0  0
 14 26  1  0  0  0  0
 15 28  1  0  0  0  0
 15 71  2  0  0  0  0
 16 27  1  0  0  0  0
 17 27  1  0  0  0  0
 17 31  2  0  0  0  0
 17 32  1  0  0  0  0
 18 20  2  0  0  0  0
 18 37  1  0  0  0  0
 19 21  2  0  0  0  0
 19 38  1  0  0  0  0
 20 46  1  0  0  0  0
 21 39  1  0  0  0  0
 22 88  1  0  0  0  0
 23 89  1  0  0  0  0
 24 26  2  0  0  0  0
 24 88  1  0  0  0  0
 25 90  1  0  0  0  0
 26 91  1  0  0  0  0
 27 72  2  0  0  0  0
 28 62  1  0  0  0  0
 28 73  2  0  0  0  0
 29 30  2  0  0  0  0
 29 49  1  0  0  0  0
 29 73  1  0  0  0  0
 30 61  1  0  0  0  0
 30 71  1  0  0  0  0
 31 74  1  0  0  0  0
 31 77  1  0  0  0  0
 32 78  1  0  0  0  0
 32 83  2  0  0  0  0
 33 47  1  0  0  0  0
 33 79  1  0  0  0  0
 33 84  2  0  0  0  0
 34 65  1  0  0  0  0
 34 75  1  0  0  0  0
 34 85  2  0  0  0  0
 35 66  1  0  0  0  0
 35 80  1  0  0  0  0
 35 86  2  0  0  0  0
 36 76  1  0  0  0  0
 36 81  1  0  0  0  0
 36 87  2  0  0  0  0
 37 40  1  0  0  0  0
 38 47  1  0  0  0  0
 39 75  1  0  0  0  0
 40 42  1  0  0  0  0
 41 43  1  0  0  0  0
 41 44  1  0  0  0  0
 42 46  1  0  0  0  0
 43 48  1  0  0  0  0
 44 76  1  0  0  0  0
 45 48  1  0  0  0  0
 45 76  1  0  0  0  0
 46 79  1  0  0  0  0
 47 75  1  0  0  0  0
 48 74  1  0  0  0  0
 50 66  1  0  0  0  0
 51 67  1  0  0  0  0
 52 67  1  0  0  0  0
 53 68  1  0  0  0  0
 54 68  1  0  0  0  0
 55 68  1  0  0  0  0
 56 69  1  0  0  0  0
 57 69  1  0  0  0  0
 58 70  1  0  0  0  0
 59 70  1  0  0  0  0
 60 82  1  0  0  0  0
 61 63  1  0  0  0  0
 62 81  1  0  0  0  0
 63 69  1  0  0  0  0
 64 70  1  0  0  0  0
 64 89  1  0  0  0  0
 65 68  1  0  0  0  0
 65 80  1  0  0  0  0
 66 82  1  0  0  0  0
 67 81  1  0  0  0  0
 69 70  1  0  0  0  0
 72 74  1  0  0  0  0
M  CHG  1  82   1
M  ISO  4  36 100  64 101  81 100  89 101
M  END
> <Batch ID>
0067

> <Smiles>
CNC(C)C(=O)NC(C(=O)N1Cc2cc([101O:1][101CH2:1]C(C)(C)C(C)(C)CCc3ncc(C[100N:0](C(C)C)[100C:0](=O)N4CCCC(n5nc(-c6ccc(Oc7ccc(F)cc7F)cc6)c(C(N)=O)c5N)C4)nc3C)ccc2CC1C(=O)NC1CCCc2ccccc21)C(C)(C)C

> <Shape>
0.276

> <Color>
0.089

> <Negative vol penalty>
0.000

$$$$

  -OEChem-04052318123D

 88 97  0     1  0  0  0  0  0999 V2000
  -29.7675  -25.5854   15.4383 C   0  0  0  0  0  0  0  0  0  0  0  0
  -29.0957  -24.6041   16.1604 C   0  0  0  0  0  0  0  0  0  0  0  0
  -28.2435  -16.5823   18.8987 C   0  0  0  0  0  0  0  0  0  0  0  0
  -28.1789  -16.9574   21.2845 C   0  0  0  0  0  0  0  0  0  0  0  0
  -29.8779  -26.8760   15.9541 C   0  0  0  0  0  0  0  0  0  0  0  0
  -28.5349  -24.9127   17.3992 C   0  0  0  0  0  0  0  0  0  0  0  0
  -23.3688  -22.6350   19.7718 C   0  0  0  0  0  0  0  0  0  0  0  0
  -29.1283  -17.6509   18.7545 C   0  0  0  0  0  0  0  0  0  0  0  0
  -29.0637  -18.0260   21.1404 C   0  0  0  0  0  0  0  0  0  0  0  0
  -23.1290  -21.6143   20.6907 C   0  0  0  0  0  0  0  0  0  0  0  0
  -28.9242  -21.2632   20.1748 C   0  0  0  0  0  0  0  0  0  0  0  0
  -28.6363  -22.4405   20.8651 C   0  0  0  0  0  0  0  0  0  0  0  0
  -21.3253  -14.0295   25.0764 C   0  0  0  0  0  0  0  0  0  0  0  0
  -23.0086  -23.2464   22.4630 C   0  0  0  0  0  0  0  0  0  0  0  0
  -30.7343  -22.2593   22.0494 C   0  0  0  0  0  0  0  0  0  0  0  0
  -23.2881  -19.0915   25.1807 C   0  0  0  0  0  0  0  0  0  0  0  0
  -21.0103  -18.8714   26.5556 C   0  0  0  0  0  0  0  0  0  0  0  0
  -21.2978  -13.9878   23.7003 C   0  0  0  0  0  0  0  0  0  0  0  0
  -20.3330  -15.8945   24.3250 C   0  0  0  0  0  0  0  0  0  0  0  0
  -27.7688  -16.2355   20.1636 C   0  0  0  0  0  0  0  0  0  0  0  0
  -27.1815  -13.7809   20.5345 C   0  0  0  0  0  0  0  0  0  0  0  0
  -29.3099  -27.2030   17.1955 C   0  0  0  0  0  0  0  0  0  0  0  0
  -23.4413  -23.9702   20.1939 C   0  0  0  0  0  0  0  0  0  0  0  0
  -28.6390  -26.2086   17.9327 C   0  0  0  0  0  0  0  0  0  0  0  0
  -23.2469  -24.2824   21.5470 C   0  0  0  0  0  0  0  0  0  0  0  0
  -20.7153  -15.2367   25.4717 C   0  0  0  0  0  0  0  0  0  0  0  0
  -29.5384  -18.3728   19.8754 C   0  0  0  0  0  0  0  0  0  0  0  0
  -22.9517  -21.9196   22.0370 C   0  0  0  0  0  0  0  0  0  0  0  0
  -30.1172  -20.5838   20.4219 C   0  0  0  0  0  0  0  0  0  0  0  0
  -29.5413  -22.9386   21.8024 C   0  0  0  0  0  0  0  0  0  0  0  0
  -31.0222  -21.0819   21.3591 C   0  0  0  0  0  0  0  0  0  0  0  0
  -26.8543  -15.1321   20.3130 C   0  0  0  0  0  0  0  0  0  0  0  0
  -22.3297  -20.0798   25.1313 C   0  0  0  0  0  0  0  0  0  0  0  0
  -21.9682  -17.8828   26.6044 C   0  0  0  0  0  0  0  0  0  0  0  0
  -25.9683  -13.1407   20.6032 C   0  0  0  0  0  0  0  0  0  0  0  0
  -28.4671  -13.1600   20.6665 C   0  0  0  0  0  0  0  0  0  0  0  0
  -25.6932  -26.2134   20.1631 C   0  0  0  0  0  0  0  0  0  0  0  0
  -23.2853  -28.0954   21.2505 C   0  0  0  0  0  0  0  0  0  0  0  0
  -20.2823  -28.3191   22.8564 C   0  0  0  0  0  0  0  0  0  0  0  0
  -20.4676  -15.5284   21.8919 C   0  0  0  0  0  0  0  0  0  0  0  0
  -29.4960  -28.5996   17.7336 C   0  0  0  0  0  0  0  0  0  0  0  0
  -23.6743  -25.0622   19.1861 C   0  0  0  0  0  0  0  0  0  0  0  0
  -23.2950  -25.7019   22.0482 C   0  0  0  0  0  0  0  0  0  0  0  0
  -28.5500  -28.9409   18.8821 C   0  0  0  0  0  0  0  0  0  0  0  0
  -21.4685  -13.4384   19.0219 C   0  0  0  0  0  0  0  0  0  0  0  0
  -28.5172  -27.8067   19.9016 C   0  0  0  0  0  0  0  0  0  0  0  0
  -22.9893  -13.5866   19.0101 C   0  0  0  0  0  0  0  0  0  0  0  0
  -20.7849  -14.6608   19.6268 C   0  0  0  0  0  0  0  0  0  0  0  0
  -22.7949  -15.1677   20.9703 C   0  0  0  0  0  0  0  0  0  0  0  0
  -27.9959  -26.5109   19.2687 C   0  0  1  0  0  0  0  0  0  0  0  0
  -24.2390  -26.3367   19.8058 C   0  0  1  0  0  0  0  0  0  0  0  0
  -23.5182  -13.9322   20.4131 C   0  0  2  0  0  0  0  0  0  0  0  0
  -18.5814  -29.9947   23.6287 C   0  0  0  0  0  0  0  0  0  0  0  0
  -20.3159  -14.4931   27.8713 C   0  0  0  0  0  0  0  0  0  0  0  0
  -19.1129  -16.4490   27.0317 C   0  0  0  0  0  0  0  0  0  0  0  0
  -21.5593  -17.0191   28.9617 C   0  0  0  0  0  0  0  0  0  0  0  0
  -23.0565  -15.7621   27.4934 C   0  0  0  0  0  0  0  0  0  0  0  0
  -25.1092  -28.8746   23.5691 C   0  0  0  0  0  0  0  0  0  0  0  0
  -23.0940  -29.7518   24.7682 C   0  0  0  0  0  0  0  0  0  0  0  0
  -23.7910  -30.7650   22.5979 C   0  0  0  0  0  0  0  0  0  0  0  0
  -18.1703  -27.1316   21.1570 C   0  0  0  0  0  0  0  0  0  0  0  0
  -22.5457  -21.3097   24.2995 C   0  0  0  0  0  0  0  0  0  1  0  0
  -22.7469  -28.4625   22.6122 C   0  0  1  0  0  0  0  0  0  0  0  0
  -19.0052  -29.0610   22.5056 C   0  0  2  0  0  0  0  0  0  0  0  0
  -20.4932  -15.7267   26.9312 C   0  0  0  0  0  0  0  0  0  0  0  0
  -21.7541  -16.6627   27.4301 C   0  0  0  0  0  0  0  0  0  0  0  0
  -23.6863  -29.4364   23.3780 C   0  0  0  0  0  0  0  0  0  0  0  0
  -21.1737  -19.9876   25.8182 N   0  0  0  0  0  0  0  0  0  0  0  0
  -23.1244  -17.9752   25.9179 N   0  0  0  0  0  0  0  0  0  0  0  0
  -25.5366  -15.3391   20.2453 N   0  0  0  0  0  0  0  0  0  0  0  0
  -20.7351  -15.1584   23.2217 N   0  0  0  0  0  0  0  0  0  0  0  0
  -25.0250  -14.1095   20.4253 N   0  0  0  0  0  0  0  0  0  0  0  0
  -23.5319  -26.7337   21.0251 N   0  0  0  0  0  0  0  0  0  0  0  0
  -21.3337  -14.9862   20.9423 N   0  0  0  0  0  0  0  0  0  0  0  0
  -25.6271  -11.8491   20.7978 N   0  0  0  0  0  0  0  0  0  0  0  0
  -29.6107  -13.9646   20.5702 N   0  0  0  0  0  0  0  0  0  0  0  0
  -26.5552  -26.5559   19.1389 N   0  0  0  0  0  0  0  0  0  0  0  0
  -21.4004  -28.9796   22.3930 N   0  0  0  0  0  0  0  0  0  0  0  0
  -17.8980  -28.0959   22.2538 N   0  3  0  0  0  0  0  0  0  0  0  0
  -28.5984  -11.9257   20.8476 O   0  0  0  0  0  0  0  0  0  0  0  0
  -26.0098  -25.8370   21.2855 O   0  0  0  0  0  0  0  0  0  0  0  0
  -23.4731  -28.9833   20.4150 O   0  0  0  0  0  0  0  0  0  0  0  0
  -20.2877  -27.2614   23.4823 O   0  0  0  0  0  0  0  0  0  0  0  0
  -19.4824  -16.2256   21.6817 O   0  0  0  0  0  0  0  0  0  0  0  0
  -30.4020  -19.4155   19.7352 O   0  0  0  0  0  0  0  0  0  0  0  0
  -22.7180  -20.9252   22.9361 O   0  0  0  0  0  0  0  0  0  1  0  0
  -29.2654  -24.0701   22.4640 F   0  0  0  0  0  0  0  0  0  0  0  0
  -32.1705  -20.4343   21.5999 F   0  0  0  0  0  0  0  0  0  0  0  0
  1  2  1  0  0  0  0
  1  5  2  0  0  0  0
  2  6  2  0  0  0  0
  3  8  2  0  0  0  0
  3 20  1  0  0  0  0
  4  9  1  0  0  0  0
  4 20  2  0  0  0  0
  5 22  1  0  0  0  0
  6 24  1  0  0  0  0
  7 10  2  0  0  0  0
  7 23  1  0  0  0  0
  8 27  1  0  0  0  0
  9 27  2  0  0  0  0
 10 28  1  0  0  0  0
 11 12  2  0  0  0  0
 11 29  1  0  0  0  0
 12 30  1  0  0  0  0
 13 18  2  0  0  0  0
 13 26  1  0  0  0  0
 14 25  1  0  0  0  0
 14 28  2  0  0  0  0
 15 30  2  0  0  0  0
 15 31  1  0  0  0  0
 16 33  1  0  0  0  0
 16 69  2  0  0  0  0
 17 34  2  0  0  0  0
 17 68  1  0  0  0  0
 18 71  1  0  0  0  0
 19 26  2  0  0  0  0
 19 71  1  0  0  0  0
 20 32  1  0  0  0  0
 21 32  1  0  0  0  0
 21 35  2  0  0  0  0
 21 36  1  0  0  0  0
 22 24  2  0  0  0  0
 22 41  1  0  0  0  0
 23 25  2  0  0  0  0
 23 42  1  0  0  0  0
 24 50  1  0  0  0  0
 25 43  1  0  0  0  0
 26 65  1  0  0  0  0
 27 85  1  0  0  0  0
 28 86  1  0  0  0  0
 29 31  2  0  0  0  0
 29 85  1  0  0  0  0
 30 87  1  0  0  0  0
 31 88  1  0  0  0  0
 32 70  2  0  0  0  0
 33 62  1  0  0  0  0
 33 68  2  0  0  0  0
 34 66  1  0  0  0  0
 34 69  1  0  0  0  0
 35 72  1  0  0  0  0
 35 75  1  0  0  0  0
 36 76  1  0  0  0  0
 36 80  2  0  0  0  0
 37 51  1  0  0  0  0
 37 77  1  0  0  0  0
 37 81  2  0  0  0  0
 38 63  1  0  0  0  0
 38 73  1  0  0  0  0
 38 82  2  0  0  0  0
 39 64  1  0  0  0  0
 39 78  1  0  0  0  0
 39 83  2  0  0  0  0
 40 71  1  0  0  0  0
 40 74  1  0  0  0  0
 40 84  2  0  0  0  0
 41 44  1  0  0  0  0
 42 51  1  0  0  0  0
 43 73  1  0  0  0  0
 44 46  1  0  0  0  0
 45 47  1  0  0  0  0
 45 48  1  0  0  0  0
 46 50  1  0  0  0  0
 47 52  1  0  0  0  0
 48 74  1  0  0  0  0
 49 52  1  0  0  0  0
 49 74  1  0  0  0  0
 50 77  1  0  0  0  0
 51 73  1  0  0  0  0
 52 72  1  0  0  0  0
 53 64  1  0  0  0  0
 54 65  1  0  0  0  0
 55 65  1  0  0  0  0
 56 66  1  0  0  0  0
 57 66  1  0  0  0  0
 58 67  1  0  0  0  0
 59 67  1  0  0  0  0
 60 67  1  0  0  0  0
 61 79  1  0  0  0  0
 62 86  1  0  0  0  0
 63 67  1  0  0  0  0
 63 78  1  0  0  0  0
 64 79  1  0  0  0  0
 65 66  1  0  0  0  0
 70 72  1  0  0  0  0
M  CHG  1  79   1
M  ISO  4  40 100  62 101  71 100  86 101
M  END
> <Batch ID>
0067

> <Smiles>
CNC(C)C(=O)NC(C(=O)N1Cc2cc([101O:1][101CH2:1]c3cnc(C(C)(C)C(C)(C)c4cc[100n:0]([100C:0](=O)N5CCCC(n6nc(-c7ccc(Oc8ccc(F)cc8F)cc7)c(C(N)=O)c6N)C5)c4)cn3)ccc2CC1C(=O)NC1CCCc2ccccc21)C(C)(C)C

> <Shape>
0.210

> <Color>
0.052

> <Negative vol penalty>
0.000

$$$$

  -OEChem-04052318123D

 95103  0     1  0  0  0  0  0999 V2000
  -19.4582  -24.1105   22.1546 C   0  0  0  0  0  0  0  0  0  0  0  0
  -20.6518  -24.4660   21.5347 C   0  0  0  0  0  0  0  0  0  0  0  0
  -32.4700  -14.4524   16.5006 C   0  0  0  0  0  0  0  0  0  0  0  0
  -34.0353  -14.0385   18.2938 C   0  0  0  0  0  0  0  0  0  0  0  0
  -18.5918  -25.1006   22.6162 C   0  0  0  0  0  0  0  0  0  0  0  0
  -20.9792  -25.8120   21.3750 C   0  0  0  0  0  0  0  0  0  0  0  0
  -25.7988  -26.7949   22.5794 C   0  0  0  0  0  0  0  0  0  0  0  0
  -33.4626  -14.1580   15.5660 C   0  0  0  0  0  0  0  0  0  0  0  0
  -35.0280  -13.7440   17.3592 C   0  0  0  0  0  0  0  0  0  0  0  0
  -26.7718  -26.4543   21.6408 C   0  0  0  0  0  0  0  0  0  0  0  0
  -35.4855  -13.1646   12.7136 C   0  0  0  0  0  0  0  0  0  0  0  0
  -35.1438  -12.3382   11.6431 C   0  0  0  0  0  0  0  0  0  0  0  0
  -26.8707  -28.7536   20.9179 C   0  0  0  0  0  0  0  0  0  0  0  0
  -34.5741  -10.5711   13.1891 C   0  0  0  0  0  0  0  0  0  0  0  0
  -27.8717  -21.9046   21.0072 C   0  0  0  0  0  0  0  0  0  0  0  0
  -32.7563  -14.3927   17.8645 C   0  0  0  0  0  0  0  0  0  0  0  0
  -30.8217  -13.7973   19.4171 C   0  0  0  0  0  0  0  0  0  0  0  0
  -18.9134  -26.4593   22.4708 C   0  0  0  0  0  0  0  0  0  0  0  0
  -25.3458  -28.1176   22.6870 C   0  0  0  0  0  0  0  0  0  0  0  0
  -20.1158  -26.8212   21.8339 C   0  0  0  0  0  0  0  0  0  0  0  0
  -25.8937  -29.1089   21.8604 C   0  0  0  0  0  0  0  0  0  0  0  0
  -34.7417  -13.8037   15.9953 C   0  0  0  0  0  0  0  0  0  0  0  0
  -27.3059  -27.4331   20.8079 C   0  0  0  0  0  0  0  0  0  0  0  0
  -35.3716  -12.6942   14.0219 C   0  0  0  0  0  0  0  0  0  0  0  0
  -34.6881  -11.0415   11.8809 C   0  0  0  0  0  0  0  0  0  0  0  0
  -34.9159  -11.3975   14.2596 C   0  0  0  0  0  0  0  0  0  0  0  0
  -31.7315  -14.6973   18.8304 C   0  0  0  0  0  0  0  0  0  0  0  0
  -28.0063  -22.0200   19.6386 C   0  0  0  0  0  0  0  0  0  0  0  0
  -28.9119  -22.4175   21.7548 C   0  0  0  0  0  0  0  0  0  0  0  0
  -30.0643  -14.5746   20.2589 C   0  0  0  0  0  0  0  0  0  0  0  0
  -30.0177  -23.0526   19.8731 C   0  0  0  0  0  0  0  0  0  0  0  0
  -30.6746  -12.3850   19.2190 C   0  0  0  0  0  0  0  0  0  0  0  0
  -22.5435  -29.5673   22.3009 C   0  0  0  0  0  0  0  0  0  0  0  0
  -24.1654  -32.1472   23.4126 C   0  0  0  0  0  0  0  0  0  0  0  0
  -27.1653  -33.7121   23.8581 C   0  0  0  0  0  0  0  0  0  0  0  0
  -31.5388  -19.9370   22.7061 C   0  0  0  0  0  0  0  0  0  0  0  0
  -17.9232  -27.4942   22.9434 C   0  0  0  0  0  0  0  0  0  0  0  0
  -24.3149  -28.4737   23.7229 C   0  0  0  0  0  0  0  0  0  0  0  0
  -25.4561  -30.5472   21.9499 C   0  0  0  0  0  0  0  0  0  0  0  0
  -18.5192  -28.8937   23.0711 C   0  0  0  0  0  0  0  0  0  0  0  0
  -28.4426  -19.0311   20.8128 C   0  0  0  0  0  0  0  0  0  0  0  0
  -19.3411  -29.2390   21.8333 C   0  0  0  0  0  0  0  0  0  0  0  0
  -28.9030  -17.7667   20.0889 C   0  0  0  0  0  0  0  0  0  0  0  0
  -29.6111  -19.9738   21.0741 C   0  0  0  0  0  0  0  0  0  0  0  0
  -31.2026  -18.0811   21.1126 C   0  0  0  0  0  0  0  0  0  0  0  0
  -20.5178  -28.2703   21.6645 C   0  0  1  0  0  0  0  0  0  0  0  0
  -23.5563  -29.7560   23.3947 C   0  0  1  0  0  0  0  0  0  0  0  0
  -30.0581  -17.0892   20.8456 C   0  0  2  0  0  0  0  0  0  0  0  0
  -26.9314  -21.4947   18.7472 C   0  0  0  0  0  0  0  0  0  0  0  0
  -28.1687  -35.8270   24.7623 C   0  0  0  0  0  0  0  0  0  0  0  0
  -32.6618  -21.1528   25.2154 C   0  0  0  0  0  0  0  0  0  0  0  0
  -32.7381  -22.6446   23.1925 C   0  0  0  0  0  0  0  0  0  0  0  0
  -27.4154  -22.3746   23.8655 C   0  0  0  0  0  0  0  0  0  0  0  0
  -29.5940  -23.5617   23.8816 C   0  0  0  0  0  0  0  0  0  0  0  0
  -31.1850  -23.7380   17.6751 C   0  0  0  0  0  0  0  0  0  0  0  0
  -32.4827  -22.8409   19.5806 C   0  0  0  0  0  0  0  0  0  0  0  0
  -23.2220  -33.6525   20.9319 C   0  0  0  0  0  0  0  0  0  0  0  0
  -24.9796  -35.3746   21.3938 C   0  0  0  0  0  0  0  0  0  0  0  0
  -23.1542  -34.9833   23.0483 C   0  0  0  0  0  0  0  0  0  0  0  0
  -28.7526  -32.2350   25.8724 C   0  0  0  0  0  0  0  0  0  0  0  0
  -29.5521  -21.0503   23.8073 C   0  0  0  0  0  0  0  0  0  0  0  0
  -29.1191  -26.0141   20.2126 C   0  0  0  0  0  0  0  0  0  1  0  0
  -24.9777  -33.2524   22.7821 C   0  0  1  0  0  0  0  0  0  0  0  0
  -27.7774  -34.3902   25.0706 C   0  0  2  0  0  0  0  0  0  0  0  0
  -31.8404  -21.8976   24.1705 C   0  0  0  0  0  0  0  0  0  0  0  0
  -28.8549  -22.3403   23.2438 C   0  0  0  0  0  0  0  0  0  0  0  0
  -31.2487  -23.7155   19.2225 C   0  0  0  0  0  0  0  0  0  0  0  0
  -24.0904  -34.2883   22.0358 C   0  0  0  0  0  0  0  0  0  0  0  0
  -30.4643  -26.2568   19.5584 C   0  0  0  0  0  0  0  0  0  0  0  0
  -31.5200  -25.1682   19.7379 C   0  0  0  0  0  0  0  0  0  0  0  0
  -31.5684  -15.9505   19.2627 N   0  0  0  0  0  0  0  0  0  0  0  0
  -29.0699  -22.5904   19.0356 N   0  0  0  0  0  0  0  0  0  0  0  0
  -30.0043  -23.0003   21.2187 N   0  0  0  0  0  0  0  0  0  0  0  0
  -30.5473  -15.8436   20.1300 N   0  0  0  0  0  0  0  0  0  0  0  0
  -24.4411  -30.8443   22.9742 N   0  0  0  0  0  0  0  0  0  0  0  0
  -30.7113  -19.2939   21.7708 N   0  0  0  0  0  0  0  0  0  0  0  0
  -29.0388  -14.2896   21.0893 N   0  0  0  0  0  0  0  0  0  0  0  0
  -31.5356  -11.7434   18.3182 N   0  0  0  0  0  0  0  0  0  0  0  0
  -21.5869  -28.6097   22.5789 N   0  0  0  0  0  0  0  0  0  0  0  0
  -25.7908  -33.8222   23.8511 N   0  0  0  0  0  0  0  0  0  0  0  0
  -30.9682  -20.9772   23.4550 N   0  0  0  0  0  0  0  0  0  0  0  0
  -28.9961  -33.6561   25.5143 N   0  3  0  0  0  0  0  0  0  0  0  0
  -29.7946  -11.7147   19.8105 O   0  0  0  0  0  0  0  0  0  0  0  0
  -22.6231  -30.2418   21.2809 O   0  0  0  0  0  0  0  0  0  0  0  0
  -23.3223  -32.4289   24.2680 O   0  0  0  0  0  0  0  0  0  0  0  0
  -27.8392  -33.1450   23.0010 O   0  0  0  0  0  0  0  0  0  0  0  0
  -32.7167  -19.5938   22.8698 O   0  0  0  0  0  0  0  0  0  0  0  0
  -35.7105  -13.5161   15.0836 O   0  0  0  0  0  0  0  0  0  0  0  0
  -28.2553  -27.1033   19.8904 O   0  0  0  0  0  0  0  0  0  1  0  0
  -34.3585  -10.2486   10.8528 F   0  0  0  0  0  0  0  0  0  0  0  0
  -34.8033  -10.9404   15.5143 F   0  0  0  0  0  0  0  0  0  0  0  0
  -30.9830  -27.4062   20.0848 F   0  0  0  0  0  0  0  0  0  0  0  0
  -30.2787  -26.5069   18.2373 F   0  0  0  0  0  0  0  0  0  0  0  0
  -31.8628  -25.1349   21.0564 F   0  0  0  0  0  0  0  0  0  0  0  0
  -32.6432  -25.6274   19.0965 F   0  0  0  0  0  0  0  0  0  0  0  0
  1  2  1  0  0  0  0
  1  5  2  0  0  0  0
  2  6  2  0  0  0  0
  3  8  2  0  0  0  0
  3 16  1  0  0  0  0
  4  9  1  0  0  0  0
  4 16  2  0  0  0  0
  5 18  1  0  0  0  0
  6 20  1  0  0  0  0
  7 10  2  0  0  0  0
  7 19  1  0  0  0  0
  8 22  1  0  0  0  0
  9 22  2  0  0  0  0
 10 23  1  0  0  0  0
 11 12  2  0  0  0  0
 11 24  1  0  0  0  0
 12 25  1  0  0  0  0
 13 21  1  0  0  0  0
 13 23  2  0  0  0  0
 14 25  2  0  0  0  0
 14 26  1  0  0  0  0
 15 28  1  0  0  0  0
 15 29  2  0  0  0  0
 16 27  1  0  0  0  0
 17 27  1  0  0  0  0
 17 30  2  0  0  0  0
 17 32  1  0  0  0  0
 18 20  2  0  0  0  0
 18 37  1  0  0  0  0
 19 21  2  0  0  0  0
 19 38  1  0  0  0  0
 20 46  1  0  0  0  0
 21 39  1  0  0  0  0
 22 88  1  0  0  0  0
 23 89  1  0  0  0  0
 24 26  2  0  0  0  0
 24 88  1  0  0  0  0
 25 90  1  0  0  0  0
 26 91  1  0  0  0  0
 27 71  2  0  0  0  0
 28 49  1  0  0  0  0
 28 72  2  0  0  0  0
 29 66  1  0  0  0  0
 29 73  1  0  0  0  0
 30 74  1  0  0  0  0
 30 77  1  0  0  0  0
 31 67  1  0  0  0  0
 31 72  1  0  0  0  0
 31 73  2  0  0  0  0
 32 78  1  0  0  0  0
 32 83  2  0  0  0  0
 33 47  1  0  0  0  0
 33 79  1  0  0  0  0
 33 84  2  0  0  0  0
 34 63  1  0  0  0  0
 34 75  1  0  0  0  0
 34 85  2  0  0  0  0
 35 64  1  0  0  0  0
 35 80  1  0  0  0  0
 35 86  2  0  0  0  0
 36 76  1  0  0  0  0
 36 81  1  0  0  0  0
 36 87  2  0  0  0  0
 37 40  1  0  0  0  0
 38 47  1  0  0  0  0
 39 75  1  0  0  0  0
 40 42  1  0  0  0  0
 41 43  1  0  0  0  0
 41 44  1  0  0  0  0
 42 46  1  0  0  0  0
 43 48  1  0  0  0  0
 44 76  1  0  0  0  0
 45 48  1  0  0  0  0
 45 76  1  0  0  0  0
 46 79  1  0  0  0  0
 47 75  1  0  0  0  0
 48 74  1  0  0  0  0
 50 64  1  0  0  0  0
 51 65  1  0  0  0  0
 52 65  1  0  0  0  0
 53 66  1  0  0  0  0
 54 66  1  0  0  0  0
 55 67  1  0  0  0  0
 56 67  1  0  0  0  0
 57 68  1  0  0  0  0
 58 68  1  0  0  0  0
 59 68  1  0  0  0  0
 60 82  1  0  0  0  0
 61 66  1  0  0  0  0
 61 81  1  0  0  0  0
 62 69  1  0  0  0  0
 62 89  1  0  0  0  0
 63 68  1  0  0  0  0
 63 80  1  0  0  0  0
 64 82  1  0  0  0  0
 65 81  1  0  0  0  0
 67 70  1  0  0  0  0
 69 70  1  0  0  0  0
 69 92  1  0  0  0  0
 69 93  1  0  0  0  0
 70 94  1  0  0  0  0
 70 95  1  0  0  0  0
 71 74  1  0  0  0  0
M  CHG  1  82   1
M  ISO  4  36 100  62 101  81 100  89 101
M  END
> <Batch ID>
0067

> <Smiles>
CNC(C)C(=O)NC(C(=O)N1Cc2cc([101O:1][101CH2:1]C(F)(F)C(F)(F)C(C)(C)c3nc(C)cc(C(C)(C)C[100N:0](C(C)C)[100C:0](=O)N4CCCC(n5nc(-c6ccc(Oc7ccc(F)cc7F)cc6)c(C(N)=O)c5N)C4)n3)ccc2CC1C(=O)NC1CCCc2ccccc21)C(C)(C)C

> <Shape>
0.281

> <Color>
0.090

> <Negative vol penalty>
0.000

$$$$

  -OEChem-04052318123D

 87 95  0     1  0  0  0  0  0999 V2000
  -29.7586  -33.8665   26.5229 C   0  0  0  0  0  0  0  0  0  0  0  0
  -29.4111  -32.7185   25.8179 C   0  0  0  0  0  0  0  0  0  0  0  0
  -24.2162   -9.7334   22.3952 C   0  0  0  0  0  0  0  0  0  0  0  0
  -23.6811   -9.8885   20.0443 C   0  0  0  0  0  0  0  0  0  0  0  0
  -28.7729  -34.7796   26.8952 C   0  0  0  0  0  0  0  0  0  0  0  0
  -28.0775  -32.4825   25.4859 C   0  0  0  0  0  0  0  0  0  0  0  0
  -27.5133  -30.9271   20.6997 C   0  0  0  0  0  0  0  0  0  0  0  0
  -23.1645   -8.8351   22.5754 C   0  0  0  0  0  0  0  0  0  0  0  0
  -22.6294   -8.9902   20.2245 C   0  0  0  0  0  0  0  0  0  0  0  0
  -27.8104  -29.5930   20.4245 C   0  0  0  0  0  0  0  0  0  0  0  0
  -22.5734   -5.5504   22.0328 C   0  0  0  0  0  0  0  0  0  0  0  0
  -22.8187   -4.4101   22.7977 C   0  0  0  0  0  0  0  0  0  0  0  0
  -25.4578  -29.0631   20.4843 C   0  0  0  0  0  0  0  0  0  0  0  0
  -21.0923   -5.0798   24.3495 C   0  0  0  0  0  0  0  0  0  0  0  0
  -24.4745  -10.2601   21.1297 C   0  0  0  0  0  0  0  0  0  0  0  0
  -26.8955  -10.8812   20.6187 C   0  0  0  0  0  0  0  0  0  0  0  0
  -27.4279  -34.5595   26.5591 C   0  0  0  0  0  0  0  0  0  0  0  0
  -26.1847  -31.3378   20.8803 C   0  0  0  0  0  0  0  0  0  0  0  0
  -27.0728  -33.3929   25.8552 C   0  0  0  0  0  0  0  0  0  0  0  0
  -25.1463  -30.4035   20.7591 C   0  0  0  0  0  0  0  0  0  0  0  0
  -22.3710   -8.4635   21.4900 C   0  0  0  0  0  0  0  0  0  0  0  0
  -26.7828  -28.6602   20.3197 C   0  0  0  0  0  0  0  0  0  0  0  0
  -21.5876   -6.4555   22.4263 C   0  0  0  0  0  0  0  0  0  0  0  0
  -22.0781   -4.1747   23.9560 C   0  0  0  0  0  0  0  0  0  0  0  0
  -20.8471   -6.2201   23.5846 C   0  0  0  0  0  0  0  0  0  0  0  0
  -25.5605  -11.1886   20.9431 C   0  0  0  0  0  0  0  0  0  0  0  0
  -27.5231  -12.1012   20.5555 C   0  0  0  0  0  0  0  0  0  0  0  0
  -29.1458  -22.4521   20.3261 C   0  0  0  0  0  0  0  0  0  0  0  0
  -28.9670  -20.7440   18.9997 C   0  0  0  0  0  0  0  0  0  0  0  0
  -27.5129   -9.6068   20.3946 C   0  0  0  0  0  0  0  0  0  0  0  0
  -24.5393  -32.6190   23.2793 C   0  0  0  0  0  0  0  0  0  0  0  0
  -22.1909  -32.8137   21.0501 C   0  0  0  0  0  0  0  0  0  0  0  0
  -20.8616  -31.6444   18.1325 C   0  0  0  0  0  0  0  0  0  0  0  0
  -27.8128  -17.2459   19.0032 C   0  0  0  0  0  0  0  0  0  0  0  0
  -26.3916  -35.5516   27.0245 C   0  0  0  0  0  0  0  0  0  0  0  0
  -25.8790  -32.7857   21.1501 C   0  0  0  0  0  0  0  0  0  0  0  0
  -23.7019  -30.7972   20.9242 C   0  0  0  0  0  0  0  0  0  0  0  0
  -25.0509  -35.4133   26.3077 C   0  0  0  0  0  0  0  0  0  0  0  0
  -25.9687  -16.6938   21.9639 C   0  0  0  0  0  0  0  0  0  0  0  0
  -24.6268  -33.9494   26.2465 C   0  0  0  0  0  0  0  0  0  0  0  0
  -25.7960  -15.1758   21.9343 C   0  0  0  0  0  0  0  0  0  0  0  0
  -25.8208  -17.3162   20.5743 C   0  0  0  0  0  0  0  0  0  0  0  0
  -26.5296  -15.1922   19.5211 C   0  0  0  0  0  0  0  0  0  0  0  0
  -25.6402  -33.1140   25.4550 C   0  0  1  0  0  0  0  0  0  0  0  0
  -24.5268  -32.9952   21.8246 C   0  0  1  0  0  0  0  0  0  0  0  0
  -26.7330  -14.5357   20.8953 C   0  0  2  0  0  0  0  0  0  0  0  0
  -29.3222  -19.2304   17.0136 C   0  0  0  0  0  0  0  0  0  0  0  0
  -18.9164  -31.9753   16.5819 C   0  0  0  0  0  0  0  0  0  0  0  0
  -20.3802  -31.3333   23.0097 C   0  0  0  0  0  0  0  0  0  0  0  0
  -18.8231  -30.8618   21.1067 C   0  0  0  0  0  0  0  0  0  0  0  0
  -19.2775  -33.2176   21.7898 C   0  0  0  0  0  0  0  0  0  0  0  0
  -29.2904  -20.8166   22.6991 C   0  0  0  0  0  0  0  0  0  0  0  0
  -31.2621  -20.0740   21.3062 C   0  0  0  0  0  0  0  0  0  0  0  0
  -29.1311  -18.7990   21.2581 C   0  0  0  0  0  0  0  0  0  0  0  0
  -26.5327  -19.3864   18.5740 C   0  0  0  0  0  0  0  0  0  0  0  0
  -22.6333  -32.3857   15.8807 C   0  0  0  0  0  0  0  0  0  0  0  0
  -29.4131  -23.2645   21.5681 C   0  0  0  0  0  0  0  0  0  0  0  0
  -29.4988  -24.7736   21.3142 C   0  0  0  0  0  0  0  0  0  0  0  0
  -28.1891  -25.3687   20.7951 C   0  0  0  0  0  0  0  0  0  0  0  0
  -28.3239  -26.8597   20.5172 C   0  0  0  0  0  0  0  0  0  1  0  0
  -28.9987  -19.3520   18.5170 C   0  0  2  0  0  0  0  0  0  0  0  0
  -21.0755  -31.9062   20.5901 C   0  0  1  0  0  0  0  0  0  0  0  0
  -20.3520  -32.3653   16.8975 C   0  0  2  0  0  0  0  0  0  0  0  0
  -19.9163  -31.8216   21.6228 C   0  0  0  0  0  0  0  0  0  0  0  0
  -29.7251  -20.2271   21.3389 C   0  0  0  0  0  0  0  0  0  0  0  0
  -25.3514  -12.5010   21.0767 N   0  0  0  0  0  0  0  0  0  0  0  0
  -28.7435  -22.8998   19.1581 N   0  0  0  0  0  0  0  0  0  0  0  0
  -28.6297  -21.8130   18.3142 N   0  0  0  0  0  0  0  0  0  0  0  0
  -26.5634  -13.0291   20.8353 N   0  0  0  0  0  0  0  0  0  0  0  0
  -29.2992  -21.1000   20.2716 N   0  0  0  0  0  0  0  0  0  0  0  0
  -23.4545  -32.2234   21.1932 N   0  0  0  0  0  0  0  0  0  0  0  0
  -26.6968  -16.6452   19.6041 N   0  0  0  0  0  0  0  0  0  0  0  0
  -28.7968  -12.4602   20.2885 N   0  0  0  0  0  0  0  0  0  0  0  0
  -26.7228   -8.4539   20.4991 N   0  0  0  0  0  0  0  0  0  0  0  0
  -25.4626  -33.3179   24.0332 N   0  0  0  0  0  0  0  0  0  0  0  0
  -20.6703  -32.3917   19.2754 N   0  0  0  0  0  0  0  0  0  0  0  0
  -27.7646  -18.6334   18.8013 N   0  0  0  0  0  0  0  0  0  0  0  0
  -21.1994  -32.0334   15.7174 N   0  3  0  0  0  0  0  0  0  0  0  0
  -28.7330   -9.4926   20.1261 O   0  0  0  0  0  0  0  0  0  0  0  0
  -23.7673  -31.7593   23.6877 O   0  0  0  0  0  0  0  0  0  0  0  0
  -21.9513  -34.0041   21.2673 O   0  0  0  0  0  0  0  0  0  0  0  0
  -21.3744  -30.5283   18.0882 O   0  0  0  0  0  0  0  0  0  0  0  0
  -28.7965  -16.5787   18.6577 O   0  0  0  0  0  0  0  0  0  0  0  0
  -21.3448   -7.5868   21.6654 O   0  0  0  0  0  0  0  0  0  0  0  0
  -27.0700  -27.3573   20.0518 O   0  0  0  0  0  0  0  0  0  1  0  0
  -22.3127   -3.0788   24.6896 F   0  0  0  0  0  0  0  0  0  0  0  0
  -19.8979   -7.0854   23.9671 F   0  0  0  0  0  0  0  0  0  0  0  0
  1  2  1  0  0  0  0
  1  5  2  0  0  0  0
  2  6  2  0  0  0  0
  3  8  2  0  0  0  0
  3 15  1  0  0  0  0
  4  9  1  0  0  0  0
  4 15  2  0  0  0  0
  5 17  1  0  0  0  0
  6 19  1  0  0  0  0
  7 10  2  0  0  0  0
  7 18  1  0  0  0  0
  8 21  1  0  0  0  0
  9 21  2  0  0  0  0
 10 22  1  0  0  0  0
 11 12  2  0  0  0  0
 11 23  1  0  0  0  0
 12 24  1  0  0  0  0
 13 20  1  0  0  0  0
 13 22  2  0  0  0  0
 14 24  2  0  0  0  0
 14 25  1  0  0  0  0
 15 26  1  0  0  0  0
 16 26  1  0  0  0  0
 16 27  2  0  0  0  0
 16 30  1  0  0  0  0
 17 19  2  0  0  0  0
 17 35  1  0  0  0  0
 18 20  2  0  0  0  0
 18 36  1  0  0  0  0
 19 44  1  0  0  0  0
 20 37  1  0  0  0  0
 21 84  1  0  0  0  0
 22 85  1  0  0  0  0
 23 25  2  0  0  0  0
 23 84  1  0  0  0  0
 24 86  1  0  0  0  0
 25 87  1  0  0  0  0
 26 66  2  0  0  0  0
 27 69  1  0  0  0  0
 27 73  1  0  0  0  0
 28 57  1  0  0  0  0
 28 67  2  0  0  0  0
 28 70  1  0  0  0  0
 29 61  1  0  0  0  0
 29 68  2  0  0  0  0
 29 70  1  0  0  0  0
 30 74  1  0  0  0  0
 30 79  2  0  0  0  0
 31 45  1  0  0  0  0
 31 75  1  0  0  0  0
 31 80  2  0  0  0  0
 32 62  1  0  0  0  0
 32 71  1  0  0  0  0
 32 81  2  0  0  0  0
 33 63  1  0  0  0  0
 33 76  1  0  0  0  0
 33 82  2  0  0  0  0
 34 72  1  0  0  0  0
 34 77  1  0  0  0  0
 34 83  2  0  0  0  0
 35 38  1  0  0  0  0
 36 45  1  0  0  0  0
 37 71  1  0  0  0  0
 38 40  1  0  0  0  0
 39 41  1  0  0  0  0
 39 42  1  0  0  0  0
 40 44  1  0  0  0  0
 41 46  1  0  0  0  0
 42 72  1  0  0  0  0
 43 46  1  0  0  0  0
 43 72  1  0  0  0  0
 44 75  1  0  0  0  0
 45 71  1  0  0  0  0
 46 69  1  0  0  0  0
 47 61  1  0  0  0  0
 48 63  1  0  0  0  0
 49 64  1  0  0  0  0
 50 64  1  0  0  0  0
 51 64  1  0  0  0  0
 52 65  1  0  0  0  0
 53 65  1  0  0  0  0
 54 65  1  0  0  0  0
 55 77  1  0  0  0  0
 56 78  1  0  0  0  0
 57 58  1  0  0  0  0
 58 59  1  0  0  0  0
 59 60  1  0  0  0  0
 60 85  1  0  0  0  0
 61 77  1  0  0  0  0
 62 64  1  0  0  0  0
 62 76  1  0  0  0  0
 63 78  1  0  0  0  0
 65 70  1  0  0  0  0
 66 69  1  0  0  0  0
 67 68  1  0  0  0  0
M  CHG  1  78   1
M  ISO  4  34 100  60 101  77 100  85 101
M  END
> <Batch ID>
0067

> <Smiles>
CNC(C)C(=O)NC(C(=O)N1Cc2cc([101O:1][101CH2:1]CCCc3nnc(C(C)[100N:0](C)[100C:0](=O)N4CCCC(n5nc(-c6ccc(Oc7ccc(F)cc7F)cc6)c(C(N)=O)c5N)C4)n3C(C)(C)C)ccc2CC1C(=O)NC1CCCc2ccccc21)C(C)(C)C

> <Shape>
0.294

> <Color>
0.108

> <Negative vol penalty>
0.000

$$$$

  -OEChem-04052318123D

 91100  0     1  0  0  0  0  0999 V2000
  -25.8231  -33.4872   25.4943 C   0  0  0  0  0  0  0  0  0  0  0  0
  -25.9561  -32.1855   25.0218 C   0  0  0  0  0  0  0  0  0  0  0  0
  -23.0743  -10.2777   19.9438 C   0  0  0  0  0  0  0  0  0  0  0  0
  -23.6907   -9.9835   22.2613 C   0  0  0  0  0  0  0  0  0  0  0  0
  -25.7004  -34.5451   24.5944 C   0  0  0  0  0  0  0  0  0  0  0  0
  -25.9655  -31.9408   23.6490 C   0  0  0  0  0  0  0  0  0  0  0  0
  -29.1762  -27.6411   20.6978 C   0  0  0  0  0  0  0  0  0  0  0  0
  -28.7905  -21.7027   18.3123 C   0  0  0  0  0  0  0  0  0  0  0  0
  -22.2045   -9.1913   20.0372 C   0  0  0  0  0  0  0  0  0  0  0  0
  -22.8208   -8.8970   22.3547 C   0  0  0  0  0  0  0  0  0  0  0  0
  -28.8343  -26.3756   20.2232 C   0  0  0  0  0  0  0  0  0  0  0  0
  -22.8095   -5.6320   21.4769 C   0  0  0  0  0  0  0  0  0  0  0  0
  -23.2742   -4.4830   22.1167 C   0  0  0  0  0  0  0  0  0  0  0  0
  -28.4389  -20.5276   17.6576 C   0  0  0  0  0  0  0  0  0  0  0  0
  -28.4254  -27.3121   18.0380 C   0  0  0  0  0  0  0  0  0  0  0  0
  -21.4986   -4.6711   23.7443 C   0  0  0  0  0  0  0  0  0  0  0  0
  -29.0777  -16.2582   16.2509 C   0  0  0  0  0  0  0  0  0  0  0  0
  -23.8174  -10.6738   21.0559 C   0  0  0  0  0  0  0  0  0  0  0  0
  -24.4181  -13.1482   21.2112 C   0  0  0  0  0  0  0  0  0  0  0  0
  -25.7180  -34.3143   23.2098 C   0  0  0  0  0  0  0  0  0  0  0  0
  -29.1347  -28.7554   19.8474 C   0  0  0  0  0  0  0  0  0  0  0  0
  -25.8416  -32.9965   22.7298 C   0  0  0  0  0  0  0  0  0  0  0  0
  -28.7697  -28.5903   18.5036 C   0  0  0  0  0  0  0  0  0  0  0  0
  -27.8061  -22.6245   18.6511 C   0  0  0  0  0  0  0  0  0  0  0  0
  -22.0777   -8.5010   21.2426 C   0  0  0  0  0  0  0  0  0  0  0  0
  -28.4561  -26.2114   18.8939 C   0  0  0  0  0  0  0  0  0  0  0  0
  -21.6894   -6.3007   21.9709 C   0  0  0  0  0  0  0  0  0  0  0  0
  -22.6187   -4.0025   23.2503 C   0  0  0  0  0  0  0  0  0  0  0  0
  -21.0339   -5.8202   23.1045 C   0  0  0  0  0  0  0  0  0  0  0  0
  -24.7165  -11.7956   20.9599 C   0  0  0  0  0  0  0  0  0  0  0  0
  -29.2380  -15.8038   17.5415 C   0  0  0  0  0  0  0  0  0  0  0  0
  -27.0998  -20.3231   17.3664 C   0  0  0  0  0  0  0  0  0  0  0  0
  -26.4954  -22.3262   18.3153 C   0  0  0  0  0  0  0  0  0  0  0  0
  -27.7881  -17.4076   18.2863 C   0  0  0  0  0  0  0  0  0  0  0  0
  -27.6281  -17.8623   16.9958 C   0  0  0  0  0  0  0  0  0  0  0  0
  -25.6000  -13.8091   20.9816 C   0  0  0  0  0  0  0  0  0  0  0  0
  -23.1828  -13.7532   21.6161 C   0  0  0  0  0  0  0  0  0  0  0  0
  -30.1233  -14.6736   17.8507 C   0  0  0  0  0  0  0  0  0  0  0  0
  -27.4933  -31.4769   19.7945 C   0  0  0  0  0  0  0  0  0  0  0  0
  -29.4511  -32.1557   17.2988 C   0  0  0  0  0  0  0  0  0  0  0  0
  -31.4576  -30.9987   14.7925 C   0  0  0  0  0  0  0  0  0  0  0  0
  -25.5348  -35.4847   22.2764 C   0  0  0  0  0  0  0  0  0  0  0  0
  -29.5322  -30.1094   20.3679 C   0  0  0  0  0  0  0  0  0  0  0  0
  -28.7286  -29.7510   17.5447 C   0  0  0  0  0  0  0  0  0  0  0  0
  -25.9303  -35.1808   20.8336 C   0  0  0  0  0  0  0  0  0  0  0  0
  -30.2868  -12.0492   20.2648 C   0  0  0  0  0  0  0  0  0  0  0  0
  -25.3435  -33.8448   20.3893 C   0  0  0  0  0  0  0  0  0  0  0  0
  -28.8258  -11.8444   20.6693 C   0  0  0  0  0  0  0  0  0  0  0  0
  -30.4176  -12.4045   18.7859 C   0  0  0  0  0  0  0  0  0  0  0  0
  -28.1389  -13.3594   18.7632 C   0  0  0  0  0  0  0  0  0  0  0  0
  -25.8810  -32.6934   21.2477 C   0  0  1  0  0  0  0  0  0  0  0  0
  -28.9586  -31.2582   19.5441 C   0  0  1  0  0  0  0  0  0  0  0  0
  -27.9591  -13.0495   20.2584 C   0  0  1  0  0  0  0  0  0  0  0  0
  -25.3960  -23.2777   18.6570 C   0  0  0  0  0  0  0  0  0  0  0  0
  -27.0737  -18.0443   19.4291 C   0  0  0  0  0  0  0  0  0  0  0  0
  -32.8921  -31.7919   12.8924 C   0  0  0  0  0  0  0  0  0  0  0  0
  -26.7009  -19.1512   15.0899 C   0  0  0  0  0  0  0  0  0  0  0  0
  -26.9474  -32.7390   15.6554 C   0  0  0  0  0  0  0  0  0  0  0  0
  -28.3532  -32.5888   13.5892 C   0  0  0  0  0  0  0  0  0  0  0  0
  -28.8297  -34.3456   15.2947 C   0  0  0  0  0  0  0  0  0  0  0  0
  -33.8863  -29.7791   15.9642 C   0  0  0  0  0  0  0  0  0  0  0  0
  -28.1795  -23.8950   19.3565 C   0  0  0  0  0  0  0  0  0  1  0  0
  -29.3963  -31.9354   15.8064 C   0  0  1  0  0  0  0  0  0  0  0  0
  -32.8580  -31.3937   14.3597 C   0  0  2  0  0  0  0  0  0  0  0  0
  -26.6868  -19.0717   16.6659 C   0  0  2  0  0  0  0  0  0  0  0  0
  -28.3804  -32.8805   15.1047 C   0  0  0  0  0  0  0  0  0  0  0  0
  -25.1867  -18.7738   17.0110 C   0  0  0  0  0  0  0  0  0  0  0  0
  -28.2698  -17.2957   15.9549 N   0  0  0  0  0  0  0  0  0  0  0  0
  -25.9884  -11.6068   20.5981 N   0  0  0  0  0  0  0  0  0  0  0  0
  -28.5960  -16.3702   18.5823 N   0  0  0  0  0  0  0  0  0  0  0  0
  -26.1155  -21.1952   17.6795 N   0  0  0  0  0  0  0  0  0  0  0  0
  -26.4995  -12.8495   20.6204 N   0  0  0  0  0  0  0  0  0  0  0  0
  -29.5631  -13.5427   18.4496 N   0  0  0  0  0  0  0  0  0  0  0  0
  -29.1200  -31.0559   18.1029 N   0  0  0  0  0  0  0  0  0  0  0  0
  -25.9473  -15.1115   21.0554 N   0  0  0  0  0  0  0  0  0  0  0  0
  -22.0661  -12.9282   21.8076 N   0  0  0  0  0  0  0  0  0  0  0  0
  -27.2238  -32.3417   20.8381 N   0  0  0  0  0  0  0  0  0  0  0  0
  -30.7668  -32.0672   15.3237 N   0  0  0  0  0  0  0  0  0  0  0  0
  -33.8019  -30.2580   14.5604 N   0  3  0  0  0  0  0  0  0  0  0  0
  -23.0685  -14.9906   21.7866 O   0  0  0  0  0  0  0  0  0  0  0  0
  -31.3107  -14.8191   17.5641 O   0  0  0  0  0  0  0  0  0  0  0  0
  -26.6683  -30.9046   19.0920 O   0  0  0  0  0  0  0  0  0  0  0  0
  -29.7826  -33.2609   17.7352 O   0  0  0  0  0  0  0  0  0  0  0  0
  -31.0190  -29.8573   14.6680 O   0  0  0  0  0  0  0  0  0  0  0  0
  -21.2289   -7.4410   21.3342 O   0  0  0  0  0  0  0  0  0  0  0  0
  -28.1212  -24.9773   18.4283 O   0  0  0  0  0  0  0  0  0  1  0  0
  -23.0641   -2.8981   23.8637 F   0  0  0  0  0  0  0  0  0  0  0  0
  -19.9567   -6.4577   23.5830 F   0  0  0  0  0  0  0  0  0  0  0  0
  -24.3374  -19.7585   16.6338 F   0  0  0  0  0  0  0  0  0  0  0  0
  -24.7560  -17.6269   16.4413 F   0  0  0  0  0  0  0  0  0  0  0  0
  -25.0403  -18.6291   18.3513 F   0  0  0  0  0  0  0  0  0  0  0  0
  1  2  1  0  0  0  0
  1  5  2  0  0  0  0
  2  6  2  0  0  0  0
  3  9  2  0  0  0  0
  3 18  1  0  0  0  0
  4 10  1  0  0  0  0
  4 18  2  0  0  0  0
  5 20  1  0  0  0  0
  6 22  1  0  0  0  0
  7 11  2  0  0  0  0
  7 21  1  0  0  0  0
  8 14  2  0  0  0  0
  8 24  1  0  0  0  0
  9 25  1  0  0  0  0
 10 25  2  0  0  0  0
 11 26  1  0  0  0  0
 12 13  2  0  0  0  0
 12 27  1  0  0  0  0
 13 28  1  0  0  0  0
 14 32  1  0  0  0  0
 15 23  1  0  0  0  0
 15 26  2  0  0  0  0
 16 28  2  0  0  0  0
 16 29  1  0  0  0  0
 17 31  1  0  0  0  0
 17 68  2  0  0  0  0
 18 30  1  0  0  0  0
 19 30  1  0  0  0  0
 19 36  2  0  0  0  0
 19 37  1  0  0  0  0
 20 22  2  0  0  0  0
 20 42  1  0  0  0  0
 21 23  2  0  0  0  0
 21 43  1  0  0  0  0
 22 51  1  0  0  0  0
 23 44  1  0  0  0  0
 24 33  2  0  0  0  0
 24 62  1  0  0  0  0
 25 85  1  0  0  0  0
 26 86  1  0  0  0  0
 27 29  2  0  0  0  0
 27 85  1  0  0  0  0
 28 87  1  0  0  0  0
 29 88  1  0  0  0  0
 30 69  2  0  0  0  0
 31 38  1  0  0  0  0
 31 70  2  0  0  0  0
 32 65  1  0  0  0  0
 32 71  2  0  0  0  0
 33 54  1  0  0  0  0
 33 71  1  0  0  0  0
 34 35  2  0  0  0  0
 34 55  1  0  0  0  0
 34 70  1  0  0  0  0
 35 65  1  0  0  0  0
 35 68  1  0  0  0  0
 36 72  1  0  0  0  0
 36 75  1  0  0  0  0
 37 76  1  0  0  0  0
 37 80  2  0  0  0  0
 38 73  1  0  0  0  0
 38 81  2  0  0  0  0
 39 52  1  0  0  0  0
 39 77  1  0  0  0  0
 39 82  2  0  0  0  0
 40 63  1  0  0  0  0
 40 74  1  0  0  0  0
 40 83  2  0  0  0  0
 41 64  1  0  0  0  0
 41 78  1  0  0  0  0
 41 84  2  0  0  0  0
 42 45  1  0  0  0  0
 43 52  1  0  0  0  0
 44 74  1  0  0  0  0
 45 47  1  0  0  0  0
 46 48  1  0  0  0  0
 46 49  1  0  0  0  0
 47 51  1  0  0  0  0
 48 53  1  0  0  0  0
 49 73  1  0  0  0  0
 50 53  1  0  0  0  0
 50 73  1  0  0  0  0
 51 77  1  0  0  0  0
 52 74  1  0  0  0  0
 53 72  1  0  0  0  0
 56 64  1  0  0  0  0
 57 65  1  0  0  0  0
 58 66  1  0  0  0  0
 59 66  1  0  0  0  0
 60 66  1  0  0  0  0
 61 79  1  0  0  0  0
 62 86  1  0  0  0  0
 63 66  1  0  0  0  0
 63 78  1  0  0  0  0
 64 79  1  0  0  0  0
 65 67  1  0  0  0  0
 67 89  1  0  0  0  0
 67 90  1  0  0  0  0
 67 91  1  0  0  0  0
 69 72  1  0  0  0  0
M  CHG  1  79   1
M  ISO  4  31 100  38 100  62 101  86 101
M  END
> <Batch ID>
0067

> <Smiles>
CNC(C)C(=O)NC(C(=O)N1Cc2cc([101O:1][101CH2:1]c3ccc(C(C)(c4nc[100c:0]([100C:0](=O)N5CCCC(n6nc(-c7ccc(Oc8ccc(F)cc8F)cc7)c(C(N)=O)c6N)C5)nc4C)C(F)(F)F)nc3C)ccc2CC1C(=O)NC1CCCc2ccccc21)C(C)(C)C

> <Shape>
0.235

> <Color>
0.130

> <Negative vol penalty>
0.000

$$$$

  -OEChem-04052318123D

 88 96  0     1  0  0  0  0  0999 V2000
  -18.9775  -24.6241   22.5493 C   0  0  0  0  0  0  0  0  0  0  0  0
  -20.2134  -24.8153   21.9398 C   0  0  0  0  0  0  0  0  0  0  0  0
  -26.8032  -14.8926   21.6520 C   0  0  0  0  0  0  0  0  0  0  0  0
  -27.5471  -14.8342   19.3541 C   0  0  0  0  0  0  0  0  0  0  0  0
  -18.1875  -25.7239   22.8810 C   0  0  0  0  0  0  0  0  0  0  0  0
  -20.6594  -26.1067   21.6606 C   0  0  0  0  0  0  0  0  0  0  0  0
  -25.5118  -26.8032   22.9312 C   0  0  0  0  0  0  0  0  0  0  0  0
  -26.4197  -13.5546   21.5619 C   0  0  0  0  0  0  0  0  0  0  0  0
  -27.1637  -13.4961   19.2640 C   0  0  0  0  0  0  0  0  0  0  0  0
  -26.4766  -26.2905   22.0653 C   0  0  0  0  0  0  0  0  0  0  0  0
  -27.9150  -10.5232   21.6520 C   0  0  0  0  0  0  0  0  0  0  0  0
  -28.2651   -9.6763   22.7035 C   0  0  0  0  0  0  0  0  0  0  0  0
  -26.7919  -28.4892   21.1244 C   0  0  0  0  0  0  0  0  0  0  0  0
  -25.9294   -9.2027   23.0999 C   0  0  0  0  0  0  0  0  0  0  0  0
  -30.6142  -21.6049   18.4014 C   0  0  0  0  0  0  0  0  0  0  0  0
  -27.3669  -15.5324   20.5481 C   0  0  0  0  0  0  0  0  0  0  0  0
  -29.0184  -17.4151   21.0340 C   0  0  0  0  0  0  0  0  0  0  0  0
  -18.6283  -27.0298   22.6145 C   0  0  0  0  0  0  0  0  0  0  0  0
  -25.1713  -28.1630   22.8927 C   0  0  0  0  0  0  0  0  0  0  0  0
  -19.8739  -27.2250   21.9878 C   0  0  0  0  0  0  0  0  0  0  0  0
  -25.8242  -29.0172   21.9927 C   0  0  0  0  0  0  0  0  0  0  0  0
  -29.7640  -21.4219   17.3383 C   0  0  0  0  0  0  0  0  0  0  0  0
  -26.5999  -12.8563   20.3679 C   0  0  0  0  0  0  0  0  0  0  0  0
  -27.1148  -27.1329   21.1597 C   0  0  0  0  0  0  0  0  0  0  0  0
  -26.5720  -10.7100   21.3244 C   0  0  0  0  0  0  0  0  0  0  0  0
  -27.2723   -9.0160   23.4274 C   0  0  0  0  0  0  0  0  0  0  0  0
  -25.5792  -10.0497   22.0483 C   0  0  0  0  0  0  0  0  0  0  0  0
  -27.7627  -16.9148   20.6404 C   0  0  0  0  0  0  0  0  0  0  0  0
  -28.6613  -22.2494   17.6232 C   0  0  0  0  0  0  0  0  0  0  0  0
  -28.8844  -18.7797   20.9550 C   0  0  0  0  0  0  0  0  0  0  0  0
  -30.2002  -16.7093   21.4350 C   0  0  0  0  0  0  0  0  0  0  0  0
  -22.5152  -29.7936   22.2683 C   0  0  0  0  0  0  0  0  0  0  0  0
  -24.3225  -32.3290   23.1780 C   0  0  0  0  0  0  0  0  0  0  0  0
  -26.2395  -22.7672   17.6608 C   0  0  0  0  0  0  0  0  0  0  0  0
  -27.4328  -33.6769   23.5730 C   0  0  0  0  0  0  0  0  0  0  0  0
  -17.7185  -28.1854   22.9483 C   0  0  0  0  0  0  0  0  0  0  0  0
  -24.1476  -28.7057   23.8519 C   0  0  0  0  0  0  0  0  0  0  0  0
  -25.5095  -30.4886   21.9254 C   0  0  0  0  0  0  0  0  0  0  0  0
  -18.4289  -29.5365   22.9591 C   0  0  0  0  0  0  0  0  0  0  0  0
  -25.0780  -21.9216   20.9435 C   0  0  0  0  0  0  0  0  0  0  0  0
  -19.3100  -29.6862   21.7230 C   0  0  0  0  0  0  0  0  0  0  0  0
  -25.7481  -20.5777   21.2263 C   0  0  0  0  0  0  0  0  0  0  0  0
  -24.7085  -22.0623   19.4701 C   0  0  0  0  0  0  0  0  0  0  0  0
  -26.5279  -20.5187   18.8151 C   0  0  0  0  0  0  0  0  0  0  0  0
  -20.4033  -28.6114   21.6914 C   0  0  1  0  0  0  0  0  0  0  0  0
  -23.5110  -30.0068   23.3732 C   0  0  1  0  0  0  0  0  0  0  0  0
  -26.9451  -20.3483   20.2866 C   0  0  2  0  0  0  0  0  0  0  0  0
  -29.9711  -20.5516   16.1686 C   0  0  0  0  0  0  0  0  0  0  0  0
  -28.5897  -35.7817   24.3002 C   0  0  0  0  0  0  0  0  0  0  0  0
  -26.9712  -21.2006   15.9864 C   0  0  0  0  0  0  0  0  0  0  0  0
  -23.5785  -33.6500   20.5301 C   0  0  0  0  0  0  0  0  0  0  0  0
  -25.4646  -35.2583   20.8825 C   0  0  0  0  0  0  0  0  0  0  0  0
  -23.5687  -35.1879   22.5022 C   0  0  0  0  0  0  0  0  0  0  0  0
  -31.7392  -24.7141   21.9359 C   0  0  0  0  0  0  0  0  0  0  0  0
  -32.3745  -24.4762   19.5432 C   0  0  0  0  0  0  0  0  0  0  0  0
  -28.8331  -32.2836   25.7768 C   0  0  0  0  0  0  0  0  0  0  0  0
  -30.1923  -25.5642   20.1148 C   0  0  0  0  0  0  0  0  0  0  0  0
  -30.5254  -23.0243   20.5393 C   0  0  0  0  0  0  0  0  0  0  0  0
  -28.8147  -25.5159   20.7703 C   0  0  0  0  0  0  0  0  0  1  0  0
  -25.2433  -33.2941   22.4711 C   0  0  1  0  0  0  0  0  0  0  0  0
  -28.0684  -34.4205   24.7339 C   0  0  2  0  0  0  0  0  0  0  0  0
  -27.4449  -22.4433   16.8146 C   0  0  2  0  0  0  0  0  0  0  0  0
  -24.4685  -34.3195   21.5962 C   0  0  0  0  0  0  0  0  0  0  0  0
  -31.1808  -24.4386   20.5219 C   0  0  0  0  0  0  0  0  0  0  0  0
  -27.6050  -23.6142   15.8040 C   0  0  0  0  0  0  0  0  0  0  0  0
  -26.8949  -17.8829   20.3343 N   0  0  0  0  0  0  0  0  0  0  0  0
  -28.7959  -22.9088   18.7769 N   0  0  0  0  0  0  0  0  0  0  0  0
  -29.9932  -22.4958   19.2264 N   0  0  0  0  0  0  0  0  0  0  0  0
  -27.6063  -19.0051   20.5356 N   0  0  0  0  0  0  0  0  0  0  0  0
  -24.4969  -30.9703   22.8794 N   0  0  0  0  0  0  0  0  0  0  0  0
  -25.8669  -21.8150   18.6098 N   0  0  0  0  0  0  0  0  0  0  0  0
  -29.7363  -19.7968   21.2042 N   0  0  0  0  0  0  0  0  0  0  0  0
  -30.1656  -15.3084   21.4602 N   0  0  0  0  0  0  0  0  0  0  0  0
  -21.4729  -28.9513   22.6051 N   0  0  0  0  0  0  0  0  0  0  0  0
  -26.0736  -33.8992   23.5070 N   0  0  0  0  0  0  0  0  0  0  0  0
  -29.2072  -33.6364   25.2900 N   0  3  0  0  0  0  0  0  0  0  0  0
  -31.2505  -17.3037   21.7771 O   0  0  0  0  0  0  0  0  0  0  0  0
  -22.6797  -30.3531   21.1905 O   0  0  0  0  0  0  0  0  0  0  0  0
  -23.4842  -32.7641   23.9715 O   0  0  0  0  0  0  0  0  0  0  0  0
  -25.6496  -23.8363   17.4842 O   0  0  0  0  0  0  0  0  0  0  0  0
  -28.0782  -32.9726   22.7998 O   0  0  0  0  0  0  0  0  0  0  0  0
  -26.2260  -11.5505   20.2797 O   0  0  0  0  0  0  0  0  0  0  0  0
  -28.0565  -26.6349   20.3128 O   0  0  0  0  0  0  0  0  0  1  0  0
  -27.6088   -8.2016   24.4362 F   0  0  0  0  0  0  0  0  0  0  0  0
  -24.2874  -10.2242   21.7375 F   0  0  0  0  0  0  0  0  0  0  0  0
  -28.6311  -23.3675   14.9572 F   0  0  0  0  0  0  0  0  0  0  0  0
  -26.5030  -23.8217   15.0459 F   0  0  0  0  0  0  0  0  0  0  0  0
  -27.8765  -24.7752   16.4405 F   0  0  0  0  0  0  0  0  0  0  0  0
  1  2  1  0  0  0  0
  1  5  2  0  0  0  0
  2  6  2  0  0  0  0
  3  8  2  0  0  0  0
  3 16  1  0  0  0  0
  4  9  1  0  0  0  0
  4 16  2  0  0  0  0
  5 18  1  0  0  0  0
  6 20  1  0  0  0  0
  7 10  2  0  0  0  0
  7 19  1  0  0  0  0
  8 23  1  0  0  0  0
  9 23  2  0  0  0  0
 10 24  1  0  0  0  0
 11 12  2  0  0  0  0
 11 25  1  0  0  0  0
 12 26  1  0  0  0  0
 13 21  1  0  0  0  0
 13 24  2  0  0  0  0
 14 26  2  0  0  0  0
 14 27  1  0  0  0  0
 15 22  2  0  0  0  0
 15 68  1  0  0  0  0
 16 28  1  0  0  0  0
 17 28  1  0  0  0  0
 17 30  2  0  0  0  0
 17 31  1  0  0  0  0
 18 20  2  0  0  0  0
 18 36  1  0  0  0  0
 19 21  2  0  0  0  0
 19 37  1  0  0  0  0
 20 45  1  0  0  0  0
 21 38  1  0  0  0  0
 22 29  1  0  0  0  0
 22 48  1  0  0  0  0
 23 82  1  0  0  0  0
 24 83  1  0  0  0  0
 25 27  2  0  0  0  0
 25 82  1  0  0  0  0
 26 84  1  0  0  0  0
 27 85  1  0  0  0  0
 28 66  2  0  0  0  0
 29 62  1  0  0  0  0
 29 67  2  0  0  0  0
 30 69  1  0  0  0  0
 30 72  1  0  0  0  0
 31 73  1  0  0  0  0
 31 77  2  0  0  0  0
 32 46  1  0  0  0  0
 32 74  1  0  0  0  0
 32 78  2  0  0  0  0
 33 60  1  0  0  0  0
 33 70  1  0  0  0  0
 33 79  2  0  0  0  0
 34 62  1  0  0  0  0
 34 71  1  0  0  0  0
 34 80  2  0  0  0  0
 35 61  1  0  0  0  0
 35 75  1  0  0  0  0
 35 81  2  0  0  0  0
 36 39  1  0  0  0  0
 37 46  1  0  0  0  0
 38 70  1  0  0  0  0
 39 41  1  0  0  0  0
 40 42  1  0  0  0  0
 40 43  1  0  0  0  0
 41 45  1  0  0  0  0
 42 47  1  0  0  0  0
 43 71  1  0  0  0  0
 44 47  1  0  0  0  0
 44 71  1  0  0  0  0
 45 74  1  0  0  0  0
 46 70  1  0  0  0  0
 47 69  1  0  0  0  0
 49 61  1  0  0  0  0
 50 62  1  0  0  0  0
 51 63  1  0  0  0  0
 52 63  1  0  0  0  0
 53 63  1  0  0  0  0
 54 64  1  0  0  0  0
 55 64  1  0  0  0  0
 56 76  1  0  0  0  0
 57 59  1  0  0  0  0
 57 64  1  0  0  0  0
 58 64  1  0  0  0  0
 58 68  1  0  0  0  0
 59 83  1  0  0  0  0
 60 63  1  0  0  0  0
 60 75  1  0  0  0  0
 61 76  1  0  0  0  0
 62 65  1  0  0  0  0
 65 86  1  0  0  0  0
 65 87  1  0  0  0  0
 65 88  1  0  0  0  0
 66 69  1  0  0  0  0
 67 68  1  0  0  0  0
M  CHG  1  76   1
M  ISO  4  34 100  59 101  62 100  83 101
M  END
> <Batch ID>
0067

> <Smiles>
CNC(C)C(=O)NC(C(=O)N1Cc2cc([101O:1][101CH2:1]CC(C)(C)Cn3cc(C)c([100C:0](C)([100C:0](=O)N4CCCC(n5nc(-c6ccc(Oc7ccc(F)cc7F)cc6)c(C(N)=O)c5N)C4)C(F)(F)F)n3)ccc2CC1C(=O)NC1CCCc2ccccc21)C(C)(C)C

> <Shape>
0.269

> <Color>
0.103

> <Negative vol penalty>
0.000

$$$$

  -OEChem-04052318123D

 90 98  0     1  0  0  0  0  0999 V2000
  -18.3904  -26.0296   22.8150 C   0  0  0  0  0  0  0  0  0  0  0  0
  -19.3347  -26.1144   21.7969 C   0  0  0  0  0  0  0  0  0  0  0  0
  -25.4153  -14.6122   22.5158 C   0  0  0  0  0  0  0  0  0  0  0  0
  -26.2298  -13.4679   20.5500 C   0  0  0  0  0  0  0  0  0  0  0  0
  -18.0478  -27.1682   23.5430 C   0  0  0  0  0  0  0  0  0  0  0  0
  -19.9360  -27.3382   21.5053 C   0  0  0  0  0  0  0  0  0  0  0  0
  -24.9420  -26.9369   20.8543 C   0  0  0  0  0  0  0  0  0  0  0  0
  -24.2608  -13.8298   22.4929 C   0  0  0  0  0  0  0  0  0  0  0  0
  -25.0752  -12.6854   20.5272 C   0  0  0  0  0  0  0  0  0  0  0  0
  -25.3869  -26.4353   19.6319 C   0  0  0  0  0  0  0  0  0  0  0  0
  -22.5058  -10.1392   20.1626 C   0  0  0  0  0  0  0  0  0  0  0  0
  -22.6542   -8.7690   19.9478 C   0  0  0  0  0  0  0  0  0  0  0  0
  -25.8423  -28.6825   18.8824 C   0  0  0  0  0  0  0  0  0  0  0  0
  -24.0175   -8.6050   21.9357 C   0  0  0  0  0  0  0  0  0  0  0  0
  -27.0016  -19.8917   15.3510 C   0  0  0  0  0  0  0  0  0  0  0  0
  -25.3996  -19.6641   16.8471 C   0  0  0  0  0  0  0  0  0  0  0  0
  -26.3998  -14.4313   21.5443 C   0  0  0  0  0  0  0  0  0  0  0  0
  -28.7997  -14.9549   22.2327 C   0  0  0  0  0  0  0  0  0  0  0  0
  -18.6523  -28.4047   23.2667 C   0  0  0  0  0  0  0  0  0  0  0  0
  -24.9337  -28.3181   21.0963 C   0  0  0  0  0  0  0  0  0  0  0  0
  -19.6001  -28.4948   22.2294 C   0  0  0  0  0  0  0  0  0  0  0  0
  -25.3992  -29.1989   20.1096 C   0  0  0  0  0  0  0  0  0  0  0  0
  -24.0907  -12.8664   21.4987 C   0  0  0  0  0  0  0  0  0  0  0  0
  -25.8345  -27.3083   18.6447 C   0  0  0  0  0  0  0  0  0  0  0  0
  -23.1133  -10.7423   21.2639 C   0  0  0  0  0  0  0  0  0  0  0  0
  -23.4100   -8.0019   20.8343 C   0  0  0  0  0  0  0  0  0  0  0  0
  -23.8691   -9.9752   22.1505 C   0  0  0  0  0  0  0  0  0  0  0  0
  -27.5924  -15.2396   21.5670 C   0  0  0  0  0  0  0  0  0  0  0  0
  -27.2796  -18.8759   16.2350 C   0  0  0  0  0  0  0  0  0  0  0  0
  -29.6111  -16.0250   21.9449 C   0  0  0  0  0  0  0  0  0  0  0  0
  -29.1559  -13.8241   23.0391 C   0  0  0  0  0  0  0  0  0  0  0  0
  -22.6826  -30.4705   21.7319 C   0  0  0  0  0  0  0  0  0  0  0  0
  -25.2280  -32.4412   22.1312 C   0  0  0  0  0  0  0  0  0  0  0  0
  -29.6129  -19.9495   17.3940 C   0  0  0  0  0  0  0  0  0  0  0  0
  -28.4945  -33.1340   21.4260 C   0  0  0  0  0  0  0  0  0  0  0  0
  -18.2149  -29.6176   24.0492 C   0  0  0  0  0  0  0  0  0  0  0  0
  -24.4757  -28.8415   22.4300 C   0  0  0  0  0  0  0  0  0  0  0  0
  -25.4295  -30.6890   20.3272 C   0  0  0  0  0  0  0  0  0  0  0  0
  -19.1731  -30.7996   23.9265 C   0  0  0  0  0  0  0  0  0  0  0  0
  -29.4480  -20.6828   20.8976 C   0  0  0  0  0  0  0  0  0  0  0  0
  -19.5625  -31.0220   22.4685 C   0  0  0  0  0  0  0  0  0  0  0  0
  -29.0354  -19.3514   21.5240 C   0  0  0  0  0  0  0  0  0  0  0  0
  -28.7964  -20.8836   19.5329 C   0  0  0  0  0  0  0  0  0  0  0  0
  -28.6384  -18.4379   19.1931 C   0  0  0  0  0  0  0  0  0  0  0  0
  -20.2926  -29.7993   21.8998 C   0  0  1  0  0  0  0  0  0  0  0  0
  -24.0282  -30.2991   22.3782 C   0  0  1  0  0  0  0  0  0  0  0  0
  -29.2987  -18.1815   20.5593 C   0  0  2  0  0  0  0  0  0  0  0  0
  -27.3414  -16.1434   14.8715 C   0  0  0  0  0  0  0  0  0  0  0  0
  -30.2868  -34.8345   21.8654 C   0  0  0  0  0  0  0  0  0  0  0  0
  -30.4697  -19.2391   15.2349 C   0  0  0  0  0  0  0  0  0  0  0  0
  -30.8787  -17.8488   17.2754 C   0  0  0  0  0  0  0  0  0  0  0  0
  -23.9116  -34.3401   20.1384 C   0  0  0  0  0  0  0  0  0  0  0  0
  -26.1151  -35.5042   19.8982 C   0  0  0  0  0  0  0  0  0  0  0  0
  -24.9631  -35.4625   22.1104 C   0  0  0  0  0  0  0  0  0  0  0  0
  -24.9374  -24.0831   13.3829 C   0  0  0  0  0  0  0  0  0  0  0  0
  -23.4569  -24.1525   15.3824 C   0  0  0  0  0  0  0  0  0  0  0  0
  -27.1578  -25.5561   14.9656 C   0  0  0  0  0  0  0  0  0  0  0  0
  -25.0056  -26.7901   14.8858 C   0  0  0  0  0  0  0  0  0  0  0  0
  -30.2291  -31.1343   22.7494 C   0  0  0  0  0  0  0  0  0  0  0  0
  -28.5700  -17.0361   15.0234 C   0  0  0  0  0  0  0  0  0  0  0  0
  -25.6424  -22.8872   15.5102 C   0  0  0  0  0  0  0  0  0  0  0  0
  -25.0364  -21.5282   15.1191 C   0  0  0  0  0  0  0  0  0  0  0  0
  -25.6771  -25.6031   16.9944 C   0  0  0  0  0  0  0  0  0  1  0  0
  -28.4573  -17.9955   16.2687 C   0  0  1  0  0  0  0  0  0  0  0  0
  -26.0307  -33.3470   21.2288 C   0  0  1  0  0  0  0  0  0  0  0  0
  -29.6565  -33.5273   22.3201 C   0  0  2  0  0  0  0  0  0  0  0  0
  -29.8487  -18.7242   16.5473 C   0  0  0  0  0  0  0  0  0  0  0  0
  -25.2529  -34.6355   20.8388 C   0  0  0  0  0  0  0  0  0  0  0  0
  -24.9399  -24.1656   14.9301 C   0  0  0  0  0  0  0  0  0  0  0  0
  -25.6811  -25.5066   15.4396 C   0  0  0  0  0  0  0  0  0  0  0  0
  -26.2783  -18.7391   17.1636 N   0  0  0  0  0  0  0  0  0  0  0  0
  -27.6291  -16.3997   20.9062 N   0  0  0  0  0  0  0  0  0  0  0  0
  -25.7940  -20.3868   15.7556 N   0  0  0  0  0  0  0  0  0  0  0  0
  -28.8693  -16.8536   21.1553 N   0  0  0  0  0  0  0  0  0  0  0  0
  -24.9657  -31.1524   21.6454 N   0  0  0  0  0  0  0  0  0  0  0  0
  -29.0508  -19.7411   18.6536 N   0  0  0  0  0  0  0  0  0  0  0  0
  -30.8796  -16.3288   22.2927 N   0  0  0  0  0  0  0  0  0  0  0  0
  -28.2030  -12.8148   23.2327 N   0  0  0  0  0  0  0  0  0  0  0  0
  -21.6658  -29.7733   22.3560 N   0  0  0  0  0  0  0  0  0  0  0  0
  -27.2922  -33.5961   21.9181 N   0  0  0  0  0  0  0  0  0  0  0  0
  -30.7052  -32.4687   22.3024 N   0  3  0  0  0  0  0  0  0  0  0  0
  -30.2802  -13.7200   23.5856 O   0  0  0  0  0  0  0  0  0  0  0  0
  -22.5746  -31.1837   20.7413 O   0  0  0  0  0  0  0  0  0  0  0  0
  -24.8539  -32.8594   23.2297 O   0  0  0  0  0  0  0  0  0  0  0  0
  -29.9224  -21.0577   16.9486 O   0  0  0  0  0  0  0  0  0  0  0  0
  -28.6393  -32.4850   20.3924 O   0  0  0  0  0  0  0  0  0  0  0  0
  -22.9644  -12.1026   21.4762 O   0  0  0  0  0  0  0  0  0  0  0  0
  -26.2712  -26.8186   17.4434 O   0  0  0  0  0  0  0  0  0  1  0  0
  -23.5512   -6.6858   20.6288 F   0  0  0  0  0  0  0  0  0  0  0  0
  -24.4541  -10.5489   23.2109 F   0  0  0  0  0  0  0  0  0  0  0  0
  1  2  1  0  0  0  0
  1  5  2  0  0  0  0
  2  6  2  0  0  0  0
  3  8  2  0  0  0  0
  3 17  1  0  0  0  0
  4  9  1  0  0  0  0
  4 17  2  0  0  0  0
  5 19  1  0  0  0  0
  6 21  1  0  0  0  0
  7 10  2  0  0  0  0
  7 20  1  0  0  0  0
  8 23  1  0  0  0  0
  9 23  2  0  0  0  0
 10 24  1  0  0  0  0
 11 12  2  0  0  0  0
 11 25  1  0  0  0  0
 12 26  1  0  0  0  0
 13 22  1  0  0  0  0
 13 24  2  0  0  0  0
 14 26  2  0  0  0  0
 14 27  1  0  0  0  0
 15 29  2  0  0  0  0
 15 73  1  0  0  0  0
 16 71  2  0  0  0  0
 16 73  1  0  0  0  0
 17 28  1  0  0  0  0
 18 28  1  0  0  0  0
 18 30  2  0  0  0  0
 18 31  1  0  0  0  0
 19 21  2  0  0  0  0
 19 36  1  0  0  0  0
 20 22  2  0  0  0  0
 20 37  1  0  0  0  0
 21 45  1  0  0  0  0
 22 38  1  0  0  0  0
 23 87  1  0  0  0  0
 24 88  1  0  0  0  0
 25 27  2  0  0  0  0
 25 87  1  0  0  0  0
 26 89  1  0  0  0  0
 27 90  1  0  0  0  0
 28 72  2  0  0  0  0
 29 64  1  0  0  0  0
 29 71  1  0  0  0  0
 30 74  1  0  0  0  0
 30 77  1  0  0  0  0
 31 78  1  0  0  0  0
 31 82  2  0  0  0  0
 32 46  1  0  0  0  0
 32 79  1  0  0  0  0
 32 83  2  0  0  0  0
 33 65  1  0  0  0  0
 33 75  1  0  0  0  0
 33 84  2  0  0  0  0
 34 67  1  0  0  0  0
 34 76  1  0  0  0  0
 34 85  2  0  0  0  0
 35 66  1  0  0  0  0
 35 80  1  0  0  0  0
 35 86  2  0  0  0  0
 36 39  1  0  0  0  0
 37 46  1  0  0  0  0
 38 75  1  0  0  0  0
 39 41  1  0  0  0  0
 40 42  1  0  0  0  0
 40 43  1  0  0  0  0
 41 45  1  0  0  0  0
 42 47  1  0  0  0  0
 43 76  1  0  0  0  0
 44 47  1  0  0  0  0
 44 76  1  0  0  0  0
 45 79  1  0  0  0  0
 46 75  1  0  0  0  0
 47 74  1  0  0  0  0
 48 60  1  0  0  0  0
 49 66  1  0  0  0  0
 50 67  1  0  0  0  0
 51 67  1  0  0  0  0
 52 68  1  0  0  0  0
 53 68  1  0  0  0  0
 54 68  1  0  0  0  0
 55 69  1  0  0  0  0
 56 69  1  0  0  0  0
 57 70  1  0  0  0  0
 58 70  1  0  0  0  0
 59 81  1  0  0  0  0
 60 64  1  0  0  0  0
 61 62  1  0  0  0  0
 61 69  1  0  0  0  0
 62 73  1  0  0  0  0
 63 70  1  0  0  0  0
 63 88  1  0  0  0  0
 64 67  1  0  0  0  0
 65 68  1  0  0  0  0
 65 80  1  0  0  0  0
 66 81  1  0  0  0  0
 69 70  1  0  0  0  0
 72 74  1  0  0  0  0
M  CHG  1  81   1
M  ISO  4  34 100  63 101  67 100  88 101
M  END
> <Batch ID>
0067

> <Smiles>
CCC(c1cn(CCC(C)(C)C(C)(C)[101CH2:1][101O:1]c2ccc3c(c2)CN(C(=O)C(NC(=O)C(C)NC)C(C)(C)C)C(C(=O)NC2CCCc4ccccc42)C3)cn1)[100C:0](C)(C)[100C:0](=O)N1CCCC(n2nc(-c3ccc(Oc4ccc(F)cc4F)cc3)c(C(N)=O)c2N)C1

> <Shape>
0.257

> <Color>
0.075

> <Negative vol penalty>
0.000

$$$$

  -OEChem-04052318123D

 86 94  0     1  0  0  0  0  0999 V2000
  -26.7825  -18.7550   39.6094 C   0  0  0  0  0  0  0  0  0  0  0  0
  -25.6159  -18.4306   38.9244 C   0  0  0  0  0  0  0  0  0  0  0  0
  -23.0766   -9.8872   19.9687 C   0  0  0  0  0  0  0  0  0  0  0  0
  -23.9520   -9.8863   22.2205 C   0  0  0  0  0  0  0  0  0  0  0  0
  -27.7665  -19.5202   38.9847 C   0  0  0  0  0  0  0  0  0  0  0  0
  -25.4322  -18.8722   37.6146 C   0  0  0  0  0  0  0  0  0  0  0  0
  -22.3953  -16.9020   31.4330 C   0  0  0  0  0  0  0  0  0  0  0  0
  -22.3709   -8.7156   20.2426 C   0  0  0  0  0  0  0  0  0  0  0  0
  -23.2463   -8.7147   22.4944 C   0  0  0  0  0  0  0  0  0  0  0  0
  -21.5166  -17.3829   30.4632 C   0  0  0  0  0  0  0  0  0  0  0  0
  -20.0706   -7.8409   23.2505 C   0  0  0  0  0  0  0  0  0  0  0  0
  -19.3753   -7.7721   24.4578 C   0  0  0  0  0  0  0  0  0  0  0  0
  -23.3191  -18.6318   29.4580 C   0  0  0  0  0  0  0  0  0  0  0  0
  -20.6932   -5.8544   25.1076 C   0  0  0  0  0  0  0  0  0  0  0  0
  -23.2121  -15.2489   26.1252 C   0  0  0  0  0  0  0  0  0  0  0  0
  -23.2247  -17.0493   24.6371 C   0  0  0  0  0  0  0  0  0  0  0  0
  -23.8672  -10.4725   20.9577 C   0  0  0  0  0  0  0  0  0  0  0  0
  -24.1491  -13.0056   20.8499 C   0  0  0  0  0  0  0  0  0  0  0  0
  -27.5989  -19.9633   37.6633 C   0  0  0  0  0  0  0  0  0  0  0  0
  -23.7423  -17.2917   31.4290 C   0  0  0  0  0  0  0  0  0  0  0  0
  -26.4142  -19.6452   36.9721 C   0  0  0  0  0  0  0  0  0  0  0  0
  -24.2134  -18.1524   30.4273 C   0  0  0  0  0  0  0  0  0  0  0  0
  -22.4557   -8.1294   21.5054 C   0  0  0  0  0  0  0  0  0  0  0  0
  -21.9778  -18.2502   29.4773 C   0  0  0  0  0  0  0  0  0  0  0  0
  -21.0772   -6.9163   22.9718 C   0  0  0  0  0  0  0  0  0  0  0  0
  -22.5155  -16.2888   25.5442 C   0  0  0  0  0  0  0  0  0  0  0  0
  -19.6866   -6.7789   25.3863 C   0  0  0  0  0  0  0  0  0  0  0  0
  -21.3885   -5.9231   23.9004 C   0  0  0  0  0  0  0  0  0  0  0  0
  -24.5969  -11.6824   20.6752 C   0  0  0  0  0  0  0  0  0  0  0  0
  -25.2053  -13.7824   20.4405 C   0  0  0  0  0  0  0  0  0  0  0  0
  -25.0834  -15.7783   24.9483 C   0  0  0  0  0  0  0  0  0  0  0  0
  -22.8910  -13.4893   21.3387 C   0  0  0  0  0  0  0  0  0  0  0  0
  -25.6285  -18.8644   33.4471 C   0  0  0  0  0  0  0  0  0  0  0  0
  -27.9330  -18.0550   31.3125 C   0  0  0  0  0  0  0  0  0  0  0  0
  -28.7410  -17.1763   28.1153 C   0  0  0  0  0  0  0  0  0  0  0  0
  -30.8192  -14.6099   20.7817 C   0  0  0  0  0  0  0  0  0  0  0  0
  -28.6696  -20.8279   37.0462 C   0  0  0  0  0  0  0  0  0  0  0  0
  -24.6833  -16.7429   32.4662 C   0  0  0  0  0  0  0  0  0  0  0  0
  -25.6548  -18.5851   30.3669 C   0  0  0  0  0  0  0  0  0  0  0  0
  -28.5615  -20.9405   35.5277 C   0  0  0  0  0  0  0  0  0  0  0  0
  -29.4608  -12.5677   18.0094 C   0  0  0  0  0  0  0  0  0  0  0  0
  -27.1209  -21.2252   35.1147 C   0  0  0  0  0  0  0  0  0  0  0  0
  -28.0633  -12.2104   18.5126 C   0  0  0  0  0  0  0  0  0  0  0  0
  -30.4384  -12.7891   19.1595 C   0  0  0  0  0  0  0  0  0  0  0  0
  -28.5819  -13.4385   20.6582 C   0  0  0  0  0  0  0  0  0  0  0  0
  -26.1889  -20.0848   35.5417 C   0  0  1  0  0  0  0  0  0  0  0  0
  -25.9205  -17.6119   32.6701 C   0  0  1  0  0  0  0  0  0  0  0  0
  -27.5612  -13.2544   19.5251 C   0  0  2  0  0  0  0  0  0  0  0  0
  -30.7103  -16.6160   26.6643 C   0  0  0  0  0  0  0  0  0  0  0  0
  -28.6744  -21.0119   31.1812 C   0  0  0  0  0  0  0  0  0  0  0  0
  -29.9448  -20.5284   29.0787 C   0  0  0  0  0  0  0  0  0  0  0  0
  -30.6255  -19.4479   31.2216 C   0  0  0  0  0  0  0  0  0  0  0  0
  -31.1749  -16.4454   22.3892 C   0  0  0  0  0  0  0  0  0  0  0  0
  -27.7007  -14.4637   27.5509 C   0  0  0  0  0  0  0  0  0  0  0  0
  -28.3042  -15.5195   23.1921 C   0  0  0  0  0  0  0  0  0  0  0  0
  -19.6316  -18.1487   26.7211 C   0  0  0  0  0  0  0  0  0  0  0  0
  -28.8567  -15.8336   21.8083 C   0  0  0  0  0  0  0  0  0  0  0  0
  -26.8248  -15.8575   23.3305 C   0  0  0  0  0  0  0  0  0  0  0  0
  -20.0306  -17.8787   28.1634 C   0  0  0  0  0  0  0  0  0  1  0  0
  -20.7815  -17.9024   25.7571 C   0  0  0  0  0  0  0  0  0  0  0  0
  -28.5078  -18.6881   30.0684 C   0  0  1  0  0  0  0  0  0  0  0  0
  -29.6177  -16.0648   27.5672 C   0  0  2  0  0  0  0  0  0  0  0  0
  -29.4105  -19.9126   30.3895 C   0  0  0  0  0  0  0  0  0  0  0  0
  -24.5017  -14.9640   25.8494 N   0  0  0  0  0  0  0  0  0  0  0  0
  -24.5148  -16.8215   24.3143 N   0  0  0  0  0  0  0  0  0  0  0  0
  -25.8405  -11.6185   20.1922 N   0  0  0  0  0  0  0  0  0  0  0  0
  -26.1832  -12.9112   20.0599 N   0  0  0  0  0  0  0  0  0  0  0  0
  -26.5344  -18.0264   31.4069 N   0  0  0  0  0  0  0  0  0  0  0  0
  -29.9174  -13.7534   20.1291 N   0  0  0  0  0  0  0  0  0  0  0  0
  -25.3836  -15.1188   20.3725 N   0  0  0  0  0  0  0  0  0  0  0  0
  -21.9170  -12.5549   21.7163 N   0  0  0  0  0  0  0  0  0  0  0  0
  -26.3198  -18.9606   34.6397 N   0  0  0  0  0  0  0  0  0  0  0  0
  -29.1862  -17.6196   29.3428 N   0  0  0  0  0  0  0  0  0  0  0  0
  -30.2814  -15.5283   21.6960 N   0  0  0  0  0  0  0  0  0  0  0  0
  -28.7992  -15.1002   26.7794 N   0  3  0  0  0  0  0  0  0  0  0  0
  -22.6321  -14.7138   21.4224 O   0  0  0  0  0  0  0  0  0  0  0  0
  -24.8358  -19.6835   32.9972 O   0  0  0  0  0  0  0  0  0  0  0  0
  -28.6967  -17.5961   32.1656 O   0  0  0  0  0  0  0  0  0  0  0  0
  -27.7616  -17.6105   27.5131 O   0  0  0  0  0  0  0  0  0  0  0  0
  -32.0347  -14.5631   20.5528 O   0  0  0  0  0  0  0  0  0  0  0  0
  -21.7671   -6.9863   21.7731 O   0  0  0  0  0  0  0  0  0  0  0  0
  -21.1221  -18.7216   28.5299 O   0  0  0  0  0  0  0  0  0  1  0  0
  -21.2039  -16.5484   25.8460 O   0  0  0  0  0  0  0  0  0  0  0  0
  -26.3985  -15.5158   24.6414 O   0  0  0  0  0  0  0  0  0  0  0  0
  -19.0199   -6.7140   26.5463 F   0  0  0  0  0  0  0  0  0  0  0  0
  -22.3553   -5.0328   23.6387 F   0  0  0  0  0  0  0  0  0  0  0  0
  1  2  1  0  0  0  0
  1  5  2  0  0  0  0
  2  6  2  0  0  0  0
  3  8  2  0  0  0  0
  3 17  1  0  0  0  0
  4  9  1  0  0  0  0
  4 17  2  0  0  0  0
  5 19  1  0  0  0  0
  6 21  1  0  0  0  0
  7 10  2  0  0  0  0
  7 20  1  0  0  0  0
  8 23  1  0  0  0  0
  9 23  2  0  0  0  0
 10 24  1  0  0  0  0
 11 12  2  0  0  0  0
 11 25  1  0  0  0  0
 12 27  1  0  0  0  0
 13 22  1  0  0  0  0
 13 24  2  0  0  0  0
 14 27  2  0  0  0  0
 14 28  1  0  0  0  0
 15 26  1  0  0  0  0
 15 64  2  0  0  0  0
 16 26  2  0  0  0  0
 16 65  1  0  0  0  0
 17 29  1  0  0  0  0
 18 29  1  0  0  0  0
 18 30  2  0  0  0  0
 18 32  1  0  0  0  0
 19 21  2  0  0  0  0
 19 37  1  0  0  0  0
 20 22  2  0  0  0  0
 20 38  1  0  0  0  0
 21 46  1  0  0  0  0
 22 39  1  0  0  0  0
 23 81  1  0  0  0  0
 24 82  1  0  0  0  0
 25 28  2  0  0  0  0
 25 81  1  0  0  0  0
 26 83  1  0  0  0  0
 27 85  1  0  0  0  0
 28 86  1  0  0  0  0
 29 66  2  0  0  0  0
 30 67  1  0  0  0  0
 30 70  1  0  0  0  0
 31 64  1  0  0  0  0
 31 65  2  0  0  0  0
 31 84  1  0  0  0  0
 32 71  1  0  0  0  0
 32 76  2  0  0  0  0
 33 47  1  0  0  0  0
 33 72  1  0  0  0  0
 33 77  2  0  0  0  0
 34 61  1  0  0  0  0
 34 68  1  0  0  0  0
 34 78  2  0  0  0  0
 35 62  1  0  0  0  0
 35 73  1  0  0  0  0
 35 79  2  0  0  0  0
 36 69  1  0  0  0  0
 36 74  1  0  0  0  0
 36 80  2  0  0  0  0
 37 40  1  0  0  0  0
 38 47  1  0  0  0  0
 39 68  1  0  0  0  0
 40 42  1  0  0  0  0
 41 43  1  0  0  0  0
 41 44  1  0  0  0  0
 42 46  1  0  0  0  0
 43 48  1  0  0  0  0
 44 69  1  0  0  0  0
 45 48  1  0  0  0  0
 45 69  1  0  0  0  0
 46 72  1  0  0  0  0
 47 68  1  0  0  0  0
 48 67  1  0  0  0  0
 49 62  1  0  0  0  0
 50 63  1  0  0  0  0
 51 63  1  0  0  0  0
 52 63  1  0  0  0  0
 53 74  1  0  0  0  0
 54 75  1  0  0  0  0
 55 57  1  0  0  0  0
 55 58  1  0  0  0  0
 56 59  1  0  0  0  0
 56 60  1  0  0  0  0
 57 74  1  0  0  0  0
 58 84  1  0  0  0  0
 59 82  1  0  0  0  0
 60 83  1  0  0  0  0
 61 63  1  0  0  0  0
 61 73  1  0  0  0  0
 62 75  1  0  0  0  0
 66 67  1  0  0  0  0
M  CHG  1  75   1
M  ISO  4  36 100  59 101  74 100  82 101
M  END
> <Batch ID>
0067

> <Smiles>
CNC(C)C(=O)NC(C(=O)N1Cc2cc([101O:1][101CH2:1]CCOc3cnc(OCCC[100N:0](C)[100C:0](=O)N4CCCC(n5nc(-c6ccc(Oc7ccc(F)cc7F)cc6)c(C(N)=O)c5N)C4)nc3)ccc2CC1C(=O)NC1CCCc2ccccc21)C(C)(C)C

> <Shape>
0.161

> <Color>
0.178

> <Negative vol penalty>
0.000

$$$$

  -OEChem-04052318123D

 87 95  0     1  0  0  0  0  0999 V2000
  -16.9705  -29.1485   24.3670 C   0  0  0  0  0  0  0  0  0  0  0  0
  -17.2722  -27.8944   23.8458 C   0  0  0  0  0  0  0  0  0  0  0  0
  -22.8323  -10.3161   20.2956 C   0  0  0  0  0  0  0  0  0  0  0  0
  -24.3729   -9.5028   21.9696 C   0  0  0  0  0  0  0  0  0  0  0  0
  -17.6574  -30.2740   23.9139 C   0  0  0  0  0  0  0  0  0  0  0  0
  -18.2604  -27.7652   22.8704 C   0  0  0  0  0  0  0  0  0  0  0  0
  -22.1385  -23.0795   22.1565 C   0  0  0  0  0  0  0  0  0  0  0  0
  -22.1629   -9.0926   20.3172 C   0  0  0  0  0  0  0  0  0  0  0  0
  -23.7035   -8.2793   21.9912 C   0  0  0  0  0  0  0  0  0  0  0  0
  -22.1265  -21.9728   21.3087 C   0  0  0  0  0  0  0  0  0  0  0  0
  -20.8738   -7.0135   23.3371 C   0  0  0  0  0  0  0  0  0  0  0  0
  -20.5933   -6.4519   24.5827 C   0  0  0  0  0  0  0  0  0  0  0  0
  -23.5515  -23.1514   19.7598 C   0  0  0  0  0  0  0  0  0  0  0  0
  -21.8997   -4.5051   23.9990 C   0  0  0  0  0  0  0  0  0  0  0  0
  -26.6792  -18.0202   20.0201 C   0  0  0  0  0  0  0  0  0  0  0  0
  -23.9374  -10.5212   21.1218 C   0  0  0  0  0  0  0  0  0  0  0  0
  -24.3620  -12.9148   21.8952 C   0  0  0  0  0  0  0  0  0  0  0  0
  -18.6612  -30.1573   22.9395 C   0  0  0  0  0  0  0  0  0  0  0  0
  -22.8494  -24.2365   21.8066 C   0  0  0  0  0  0  0  0  0  0  0  0
  -18.9604  -28.8904   22.4030 C   0  0  0  0  0  0  0  0  0  0  0  0
  -23.5731  -24.2705   20.6061 C   0  0  0  0  0  0  0  0  0  0  0  0
  -22.5985   -8.0742   21.1650 C   0  0  0  0  0  0  0  0  0  0  0  0
  -22.8307  -22.0097   20.1088 C   0  0  0  0  0  0  0  0  0  0  0  0
  -21.6672   -6.3210   22.4224 C   0  0  0  0  0  0  0  0  0  0  0  0
  -21.1063   -5.1977   24.9136 C   0  0  0  0  0  0  0  0  0  0  0  0
  -22.1801   -5.0668   22.7534 C   0  0  0  0  0  0  0  0  0  0  0  0
  -24.6296  -11.7847   21.0995 C   0  0  0  0  0  0  0  0  0  0  0  0
  -25.5152  -18.7163   20.2751 C   0  0  0  0  0  0  0  0  0  0  0  0
  -27.7675  -18.3742   20.7911 C   0  0  0  0  0  0  0  0  0  0  0  0
  -25.2899  -13.8446   21.4942 C   0  0  0  0  0  0  0  0  0  0  0  0
  -26.5410  -19.9380   21.8944 C   0  0  0  0  0  0  0  0  0  0  0  0
  -23.3639  -13.1069   22.9064 C   0  0  0  0  0  0  0  0  0  0  0  0
  -22.0665  -27.2640   21.2367 C   0  0  0  0  0  0  0  0  0  0  0  0
  -25.2824  -27.6588   21.0815 C   0  0  0  0  0  0  0  0  0  0  0  0
  -28.3495  -26.2652   20.5361 C   0  0  0  0  0  0  0  0  0  0  0  0
  -30.7688  -14.7799   20.3008 C   0  0  0  0  0  0  0  0  0  0  0  0
  -19.3436  -31.4088   22.4468 C   0  0  0  0  0  0  0  0  0  0  0  0
  -22.8743  -25.4120   22.7446 C   0  0  0  0  0  0  0  0  0  0  0  0
  -24.3686  -25.4811   20.1938 C   0  0  0  0  0  0  0  0  0  0  0  0
  -20.6364  -31.1368   21.6820 C   0  0  0  0  0  0  0  0  0  0  0  0
  -28.4518  -13.8808   17.5577 C   0  0  0  0  0  0  0  0  0  0  0  0
  -20.4304  -30.0172   20.6666 C   0  0  0  0  0  0  0  0  0  0  0  0
  -27.2627  -13.2838   18.3083 C   0  0  0  0  0  0  0  0  0  0  0  0
  -29.7571  -13.6986   18.3262 C   0  0  0  0  0  0  0  0  0  0  0  0
  -28.5254  -13.6258   20.4691 C   0  0  0  0  0  0  0  0  0  0  0  0
  -20.0429  -28.7064   21.3616 C   0  0  1  0  0  0  0  0  0  0  0  0
  -23.2118  -26.7261   22.0470 C   0  0  1  0  0  0  0  0  0  0  0  0
  -27.1877  -13.8337   19.7433 C   0  0  2  0  0  0  0  0  0  0  0  0
  -30.8517  -26.1166   20.4174 C   0  0  0  0  0  0  0  0  0  0  0  0
  -25.0321  -21.0884   23.5513 C   0  0  0  0  0  0  0  0  0  0  0  0
  -26.8086  -22.4021   22.3454 C   0  0  0  0  0  0  0  0  0  0  0  0
  -27.4281  -20.8158   24.1568 C   0  0  0  0  0  0  0  0  0  0  0  0
  -24.8665  -28.9469   18.3469 C   0  0  0  0  0  0  0  0  0  0  0  0
  -27.3111  -28.6349   17.9056 C   0  0  0  0  0  0  0  0  0  0  0  0
  -26.5611  -30.0869   19.7902 C   0  0  0  0  0  0  0  0  0  0  0  0
  -31.6665  -16.4295   21.8984 C   0  0  0  0  0  0  0  0  0  0  0  0
  -28.5524  -25.4594   23.3766 C   0  0  0  0  0  0  0  0  0  0  0  0
  -24.2716  -18.3998   19.4833 C   0  0  0  0  0  0  0  0  0  0  0  0
  -29.0701  -17.6751   20.5888 C   0  0  0  0  0  0  0  0  0  0  0  0
  -24.1271  -19.2294   18.2056 C   0  0  0  0  0  0  0  0  0  0  0  0
  -29.2384  -16.4264   21.4624 C   0  0  0  0  0  0  0  0  0  0  0  0
  -23.9765  -20.7231   18.4694 C   0  0  0  0  0  0  0  0  0  1  0  0
  -26.3178  -27.5781   19.9858 C   0  0  1  0  0  0  0  0  0  0  0  0
  -29.6484  -26.3515   21.3171 C   0  0  2  0  0  0  0  0  0  0  0  0
  -26.4641  -21.0005   22.9380 C   0  0  0  0  0  0  0  0  0  0  0  0
  -26.2477  -28.7895   19.0137 C   0  0  0  0  0  0  0  0  0  0  0  0
  -25.6478  -11.9769   20.2567 N   0  0  0  0  0  0  0  0  0  0  0  0
  -25.4102  -19.6850   21.2083 N   0  0  0  0  0  0  0  0  0  0  0  0
  -27.7339  -19.3321   21.7406 N   0  0  0  0  0  0  0  0  0  0  0  0
  -26.0280  -13.2387   20.5204 N   0  0  0  0  0  0  0  0  0  0  0  0
  -24.3567  -26.6075   21.1417 N   0  0  0  0  0  0  0  0  0  0  0  0
  -29.6446  -14.1902   19.6999 N   0  0  0  0  0  0  0  0  0  0  0  0
  -25.5383  -15.1133   21.8830 N   0  0  0  0  0  0  0  0  0  0  0  0
  -22.4915  -12.0482   23.1938 N   0  0  0  0  0  0  0  0  0  0  0  0
  -21.2091  -28.0815   21.9481 N   0  0  0  0  0  0  0  0  0  0  0  0
  -27.6059  -27.4205   20.6523 N   0  0  0  0  0  0  0  0  0  0  0  0
  -30.5327  -15.7802   21.2559 N   0  0  0  0  0  0  0  0  0  0  0  0
  -29.6681  -25.3320   22.4039 N   0  3  0  0  0  0  0  0  0  0  0  0
  -23.2384  -14.1909   23.5250 O   0  0  0  0  0  0  0  0  0  0  0  0
  -21.9687  -26.9610   20.0534 O   0  0  0  0  0  0  0  0  0  0  0  0
  -25.2989  -28.6157   21.8598 O   0  0  0  0  0  0  0  0  0  0  0  0
  -28.0285  -25.2735   19.8849 O   0  0  0  0  0  0  0  0  0  0  0  0
  -31.9183  -14.4387   19.9938 O   0  0  0  0  0  0  0  0  0  0  0  0
  -21.9453   -6.8802   21.1865 O   0  0  0  0  0  0  0  0  0  0  0  0
  -22.8201  -20.9311   19.2791 O   0  0  0  0  0  0  0  0  0  1  0  0
  -20.8382   -4.6591   26.1104 F   0  0  0  0  0  0  0  0  0  0  0  0
  -22.9439   -4.3972   21.8792 F   0  0  0  0  0  0  0  0  0  0  0  0
  1  2  1  0  0  0  0
  1  5  2  0  0  0  0
  2  6  2  0  0  0  0
  3  8  2  0  0  0  0
  3 16  1  0  0  0  0
  4  9  1  0  0  0  0
  4 16  2  0  0  0  0
  5 18  1  0  0  0  0
  6 20  1  0  0  0  0
  7 10  2  0  0  0  0
  7 19  1  0  0  0  0
  8 22  1  0  0  0  0
  9 22  2  0  0  0  0
 10 23  1  0  0  0  0
 11 12  2  0  0  0  0
 11 24  1  0  0  0  0
 12 25  1  0  0  0  0
 13 21  1  0  0  0  0
 13 23  2  0  0  0  0
 14 25  2  0  0  0  0
 14 26  1  0  0  0  0
 15 28  1  0  0  0  0
 15 29  2  0  0  0  0
 16 27  1  0  0  0  0
 17 27  1  0  0  0  0
 17 30  2  0  0  0  0
 17 32  1  0  0  0  0
 18 20  2  0  0  0  0
 18 37  1  0  0  0  0
 19 21  2  0  0  0  0
 19 38  1  0  0  0  0
 20 46  1  0  0  0  0
 21 39  1  0  0  0  0
 22 84  1  0  0  0  0
 23 85  1  0  0  0  0
 24 26  2  0  0  0  0
 24 84  1  0  0  0  0
 25 86  1  0  0  0  0
 26 87  1  0  0  0  0
 27 67  2  0  0  0  0
 28 58  1  0  0  0  0
 28 68  2  0  0  0  0
 29 59  1  0  0  0  0
 29 69  1  0  0  0  0
 30 70  1  0  0  0  0
 30 73  1  0  0  0  0
 31 65  1  0  0  0  0
 31 68  1  0  0  0  0
 31 69  2  0  0  0  0
 32 74  1  0  0  0  0
 32 79  2  0  0  0  0
 33 47  1  0  0  0  0
 33 75  1  0  0  0  0
 33 80  2  0  0  0  0
 34 63  1  0  0  0  0
 34 71  1  0  0  0  0
 34 81  2  0  0  0  0
 35 64  1  0  0  0  0
 35 76  1  0  0  0  0
 35 82  2  0  0  0  0
 36 72  1  0  0  0  0
 36 77  1  0  0  0  0
 36 83  2  0  0  0  0
 37 40  1  0  0  0  0
 38 47  1  0  0  0  0
 39 71  1  0  0  0  0
 40 42  1  0  0  0  0
 41 43  1  0  0  0  0
 41 44  1  0  0  0  0
 42 46  1  0  0  0  0
 43 48  1  0  0  0  0
 44 72  1  0  0  0  0
 45 48  1  0  0  0  0
 45 72  1  0  0  0  0
 46 75  1  0  0  0  0
 47 71  1  0  0  0  0
 48 70  1  0  0  0  0
 49 64  1  0  0  0  0
 50 65  1  0  0  0  0
 51 65  1  0  0  0  0
 52 65  1  0  0  0  0
 53 66  1  0  0  0  0
 54 66  1  0  0  0  0
 55 66  1  0  0  0  0
 56 77  1  0  0  0  0
 57 78  1  0  0  0  0
 58 60  1  0  0  0  0
 59 61  1  0  0  0  0
 60 62  1  0  0  0  0
 61 77  1  0  0  0  0
 62 85  1  0  0  0  0
 63 66  1  0  0  0  0
 63 76  1  0  0  0  0
 64 78  1  0  0  0  0
 67 70  1  0  0  0  0
M  CHG  1  78   1
M  ISO  4  36 100  62 101  77 100  85 101
M  END
> <Batch ID>
0067

> <Smiles>
CNC(C)C(=O)NC(C(=O)N1Cc2cc([101O:1][101CH2:1]CCc3cc(CC[100N:0](C)[100C:0](=O)N4CCCC(n5nc(-c6ccc(Oc7ccc(F)cc7F)cc6)c(C(N)=O)c5N)C4)nc(C(C)(C)C)n3)ccc2CC1C(=O)NC1CCCc2ccccc21)C(C)(C)C

> <Shape>
0.286

> <Color>
0.136

> <Negative vol penalty>
0.000

$$$$

  -OEChem-04052318123D

 86 94  0     1  0  0  0  0  0999 V2000
  -29.1998  -11.8372   19.2314 C   0  0  0  0  0  0  0  0  0  0  0  0
  -27.8819  -12.2508   19.3971 C   0  0  0  0  0  0  0  0  0  0  0  0
  -31.8259  -26.4878   17.4862 C   0  0  0  0  0  0  0  0  0  0  0  0
  -32.4027  -28.6597   18.3737 C   0  0  0  0  0  0  0  0  0  0  0  0
  -30.2445  -12.7284   19.4730 C   0  0  0  0  0  0  0  0  0  0  0  0
  -27.6079  -13.5556   19.8056 C   0  0  0  0  0  0  0  0  0  0  0  0
  -22.7517  -18.7581   18.9882 C   0  0  0  0  0  0  0  0  0  0  0  0
  -32.7497  -26.6635   16.4560 C   0  0  0  0  0  0  0  0  0  0  0  0
  -33.3265  -28.8353   17.3435 C   0  0  0  0  0  0  0  0  0  0  0  0
  -21.9518  -19.6133   19.7448 C   0  0  0  0  0  0  0  0  0  0  0  0
  -35.2149  -26.3869   13.7986 C   0  0  0  0  0  0  0  0  0  0  0  0
  -36.0550  -25.3167   13.4915 C   0  0  0  0  0  0  0  0  0  0  0  0
  -23.8345  -21.0889   20.0564 C   0  0  0  0  0  0  0  0  0  0  0  0
  -36.9394  -25.3660   15.7393 C   0  0  0  0  0  0  0  0  0  0  0  0
  -21.7189  -29.2758   21.5617 C   0  0  0  0  0  0  0  0  0  0  0  0
  -31.6524  -27.4860   18.4450 C   0  0  0  0  0  0  0  0  0  0  0  0
  -30.9312  -26.7278   20.7715 C   0  0  0  0  0  0  0  0  0  0  0  0
  -29.9829  -14.0476   19.8752 C   0  0  0  0  0  0  0  0  0  0  0  0
  -24.1041  -19.0568   18.7688 C   0  0  0  0  0  0  0  0  0  0  0  0
  -28.6502  -14.4649   20.0540 C   0  0  0  0  0  0  0  0  0  0  0  0
  -24.6488  -20.2371   19.2945 C   0  0  0  0  0  0  0  0  0  0  0  0
  -33.5001  -27.8371   16.3846 C   0  0  0  0  0  0  0  0  0  0  0  0
  -22.4938  -20.7774   20.2815 C   0  0  0  0  0  0  0  0  0  0  0  0
  -35.2370  -26.9468   15.0761 C   0  0  0  0  0  0  0  0  0  0  0  0
  -36.9173  -24.8062   14.4618 C   0  0  0  0  0  0  0  0  0  0  0  0
  -36.0993  -26.4362   16.0464 C   0  0  0  0  0  0  0  0  0  0  0  0
  -30.6978  -27.3054   19.5091 C   0  0  0  0  0  0  0  0  0  0  0  0
  -23.0141  -29.6981   21.7180 C   0  0  0  0  0  0  0  0  0  0  0  0
  -29.7158  -26.7913   21.4082 C   0  0  0  0  0  0  0  0  0  0  0  0
  -21.9577  -27.9702   23.3887 C   0  0  0  0  0  0  0  0  0  0  0  0
  -32.1387  -26.1826   21.3197 C   0  0  0  0  0  0  0  0  0  0  0  0
  -26.8592  -17.6483   19.4963 C   0  0  0  0  0  0  0  0  0  0  0  0
  -28.1071  -20.0247   17.6749 C   0  0  0  0  0  0  0  0  0  0  0  0
  -25.1114  -30.4656   20.6502 C   0  0  0  0  0  0  0  0  0  0  0  0
  -27.7640  -23.1593   16.3697 C   0  0  0  0  0  0  0  0  0  0  0  0
  -31.1465  -14.9608   20.1702 C   0  0  0  0  0  0  0  0  0  0  0  0
  -24.9468  -18.1375   17.9280 C   0  0  0  0  0  0  0  0  0  0  0  0
  -26.0899  -20.6137   19.0709 C   0  0  0  0  0  0  0  0  0  0  0  0
  -30.7608  -16.4362   20.2381 C   0  0  0  0  0  0  0  0  0  0  0  0
  -25.0193  -26.8317   20.5337 C   0  0  0  0  0  0  0  0  0  0  0  0
  -29.5057  -16.6215   21.0850 C   0  0  0  0  0  0  0  0  0  0  0  0
  -26.4975  -26.4945   20.3430 C   0  0  0  0  0  0  0  0  0  0  0  0
  -24.6379  -28.1163   19.8027 C   0  0  0  0  0  0  0  0  0  0  0  0
  -26.9576  -28.9588   19.9850 C   0  0  0  0  0  0  0  0  0  0  0  0
  -28.3119  -15.8795   20.4718 C   0  0  1  0  0  0  0  0  0  0  0  0
  -26.4412  -18.2815   18.1994 C   0  0  1  0  0  0  0  0  0  0  0  0
  -27.3900  -27.6860   20.7319 C   0  0  2  0  0  0  0  0  0  0  0  0
  -28.9658  -24.8451   14.9516 C   0  0  0  0  0  0  0  0  0  0  0  0
  -23.4079  -32.1347   21.2703 C   0  0  0  0  0  0  0  0  0  0  0  0
  -23.1187  -30.6220   19.3051 C   0  0  0  0  0  0  0  0  0  0  0  0
  -22.3545  -26.5181   25.4925 C   0  0  0  0  0  0  0  0  0  0  0  0
  -20.1711  -27.6262   25.1091 C   0  0  0  0  0  0  0  0  0  0  0  0
  -29.9305  -20.6996   20.0265 C   0  0  0  0  0  0  0  0  0  0  0  0
  -30.3990  -22.9059   18.9400 C   0  0  0  0  0  0  0  0  0  0  0  0
  -31.0400  -20.7888   17.7870 C   0  0  0  0  0  0  0  0  0  0  0  0
  -25.6204  -23.1430   14.3292 C   0  0  0  0  0  0  0  0  0  0  0  0
  -21.9022  -24.8628   22.9131 C   0  0  0  0  0  0  0  0  0  0  0  0
  -21.2992  -23.5922   22.3132 C   0  0  0  0  0  0  0  0  0  0  0  0
  -20.8349  -25.6837   23.6520 C   0  0  0  0  0  0  0  0  0  0  0  0
  -22.3360  -22.7889   21.5404 C   0  0  0  0  0  0  0  0  0  1  0  0
  -28.5985  -21.4277   17.9380 C   0  0  1  0  0  0  0  0  0  0  0  0
  -27.9725  -23.6936   14.9642 C   0  0  2  0  0  0  0  0  0  0  0  0
  -23.6238  -30.6762   20.7786 C   0  0  0  0  0  0  0  0  0  0  0  0
  -21.3661  -26.9563   24.3850 C   0  0  0  0  0  0  0  0  0  0  0  0
  -29.9653  -21.4477   18.6789 C   0  0  0  0  0  0  0  0  0  0  0  0
  -21.1552  -28.3940   22.4011 N   0  0  0  0  0  0  0  0  0  0  0  0
  -29.4335  -27.7062   19.3513 N   0  0  0  0  0  0  0  0  0  0  0  0
  -23.7722  -29.2373   22.7294 N   0  0  0  0  0  0  0  0  0  0  0  0
  -23.2350  -28.3490   23.5913 N   0  0  0  0  0  0  0  0  0  0  0  0
  -28.8616  -27.3799   20.5228 N   0  0  0  0  0  0  0  0  0  0  0  0
  -26.8748  -19.6793   18.2474 N   0  0  0  0  0  0  0  0  0  0  0  0
  -25.5286  -29.2203   20.1797 N   0  0  0  0  0  0  0  0  0  0  0  0
  -29.3052  -26.4005   22.6334 N   0  0  0  0  0  0  0  0  0  0  0  0
  -33.2968  -26.1968   20.5304 N   0  0  0  0  0  0  0  0  0  0  0  0
  -27.7750  -16.6236   19.3527 N   0  0  0  0  0  0  0  0  0  0  0  0
  -28.6091  -22.1055   16.6461 N   0  0  0  0  0  0  0  0  0  0  0  0
  -26.6824  -24.1795   14.3981 N   0  3  0  0  0  0  0  0  0  0  0  0
  -32.1852  -25.6824   22.4692 O   0  0  0  0  0  0  0  0  0  0  0  0
  -26.3870  -18.0601   20.5495 O   0  0  0  0  0  0  0  0  0  0  0  0
  -28.7881  -19.2656   16.9808 O   0  0  0  0  0  0  0  0  0  0  0  0
  -25.8781  -31.3806   20.9619 O   0  0  0  0  0  0  0  0  0  0  0  0
  -26.9369  -23.6321   17.1462 O   0  0  0  0  0  0  0  0  0  0  0  0
  -34.4018  -28.0088   15.3796 O   0  0  0  0  0  0  0  0  0  0  0  0
  -21.7154  -21.6136   21.0209 O   0  0  0  0  0  0  0  0  0  1  0  0
  -37.7229  -23.7774   14.1672 F   0  0  0  0  0  0  0  0  0  0  0  0
  -36.1242  -26.9691   17.2757 F   0  0  0  0  0  0  0  0  0  0  0  0
  1  2  1  0  0  0  0
  1  5  2  0  0  0  0
  2  6  2  0  0  0  0
  3  8  2  0  0  0  0
  3 16  1  0  0  0  0
  4  9  1  0  0  0  0
  4 16  2  0  0  0  0
  5 18  1  0  0  0  0
  6 20  1  0  0  0  0
  7 10  2  0  0  0  0
  7 19  1  0  0  0  0
  8 22  1  0  0  0  0
  9 22  2  0  0  0  0
 10 23  1  0  0  0  0
 11 12  2  0  0  0  0
 11 24  1  0  0  0  0
 12 25  1  0  0  0  0
 13 21  1  0  0  0  0
 13 23  2  0  0  0  0
 14 25  2  0  0  0  0
 14 26  1  0  0  0  0
 15 28  1  0  0  0  0
 15 66  2  0  0  0  0
 16 27  1  0  0  0  0
 17 27  1  0  0  0  0
 17 29  2  0  0  0  0
 17 31  1  0  0  0  0
 18 20  2  0  0  0  0
 18 36  1  0  0  0  0
 19 21  2  0  0  0  0
 19 37  1  0  0  0  0
 20 45  1  0  0  0  0
 21 38  1  0  0  0  0
 22 83  1  0  0  0  0
 23 84  1  0  0  0  0
 24 26  2  0  0  0  0
 24 83  1  0  0  0  0
 25 85  1  0  0  0  0
 26 86  1  0  0  0  0
 27 67  2  0  0  0  0
 28 63  1  0  0  0  0
 28 68  2  0  0  0  0
 29 70  1  0  0  0  0
 29 73  1  0  0  0  0
 30 64  1  0  0  0  0
 30 66  1  0  0  0  0
 30 69  2  0  0  0  0
 31 74  1  0  0  0  0
 31 78  2  0  0  0  0
 32 46  1  0  0  0  0
 32 75  1  0  0  0  0
 32 79  2  0  0  0  0
 33 61  1  0  0  0  0
 33 71  1  0  0  0  0
 33 80  2  0  0  0  0
 34 63  1  0  0  0  0
 34 72  1  0  0  0  0
 34 81  2  0  0  0  0
 35 62  1  0  0  0  0
 35 76  1  0  0  0  0
 35 82  2  0  0  0  0
 36 39  1  0  0  0  0
 37 46  1  0  0  0  0
 38 71  1  0  0  0  0
 39 41  1  0  0  0  0
 40 42  1  0  0  0  0
 40 43  1  0  0  0  0
 41 45  1  0  0  0  0
 42 47  1  0  0  0  0
 43 72  1  0  0  0  0
 44 47  1  0  0  0  0
 44 72  1  0  0  0  0
 45 75  1  0  0  0  0
 46 71  1  0  0  0  0
 47 70  1  0  0  0  0
 48 62  1  0  0  0  0
 49 63  1  0  0  0  0
 50 63  1  0  0  0  0
 51 64  1  0  0  0  0
 52 64  1  0  0  0  0
 53 65  1  0  0  0  0
 54 65  1  0  0  0  0
 55 65  1  0  0  0  0
 56 77  1  0  0  0  0
 57 58  1  0  0  0  0
 57 59  1  0  0  0  0
 58 60  1  0  0  0  0
 59 64  1  0  0  0  0
 60 84  1  0  0  0  0
 61 65  1  0  0  0  0
 61 76  1  0  0  0  0
 62 77  1  0  0  0  0
 67 70  1  0  0  0  0
 68 69  1  0  0  0  0
M  CHG  1  77   1
M  ISO  4  34 100  60 101  63 100  84 101
M  END
> <Batch ID>
0067

> <Smiles>
CNC(C)C(=O)NC(C(=O)N1Cc2cc([101O:1][101CH2:1]CCCC(C)(C)c3ncc([100C:0](C)(C)[100C:0](=O)N4CCCC(n5nc(-c6ccc(Oc7ccc(F)cc7F)cc6)c(C(N)=O)c5N)C4)nn3)ccc2CC1C(=O)NC1CCCc2ccccc21)C(C)(C)C

> <Shape>
0.206

> <Color>
0.054

> <Negative vol penalty>
0.000

$$$$

  -OEChem-04052318123D

 90 98  0     1  0  0  0  0  0999 V2000
  -16.3572  -28.0065   26.6116 C   0  0  0  0  0  0  0  0  0  0  0  0
  -17.4266  -27.1168   26.6283 C   0  0  0  0  0  0  0  0  0  0  0  0
  -22.4162  -13.9299   21.6392 C   0  0  0  0  0  0  0  0  0  0  0  0
  -24.4529  -12.8089   22.2968 C   0  0  0  0  0  0  0  0  0  0  0  0
  -16.2300  -28.9222   25.5679 C   0  0  0  0  0  0  0  0  0  0  0  0
  -18.3689  -27.1416   25.6007 C   0  0  0  0  0  0  0  0  0  0  0  0
  -24.3716  -26.0274   26.0824 C   0  0  0  0  0  0  0  0  0  0  0  0
  -21.6951  -12.7602   21.8785 C   0  0  0  0  0  0  0  0  0  0  0  0
  -23.7317  -11.6392   22.5362 C   0  0  0  0  0  0  0  0  0  0  0  0
  -25.1383  -24.8916   25.8258 C   0  0  0  0  0  0  0  0  0  0  0  0
  -22.4000   -9.1177   20.7198 C   0  0  0  0  0  0  0  0  0  0  0  0
  -22.9302   -7.9199   20.2404 C   0  0  0  0  0  0  0  0  0  0  0  0
  -25.6578  -25.7457   23.6303 C   0  0  0  0  0  0  0  0  0  0  0  0
  -23.0134   -7.0544   22.4945 C   0  0  0  0  0  0  0  0  0  0  0  0
  -29.5385  -21.2372   21.0877 C   0  0  0  0  0  0  0  0  0  0  0  0
  -23.7951  -13.9543   21.8483 C   0  0  0  0  0  0  0  0  0  0  0  0
  -24.8138  -16.1955   22.5168 C   0  0  0  0  0  0  0  0  0  0  0  0
  -17.1765  -28.9647   24.5320 C   0  0  0  0  0  0  0  0  0  0  0  0
  -24.2331  -27.0275   25.1091 C   0  0  0  0  0  0  0  0  0  0  0  0
  -18.2534  -28.0578   24.5415 C   0  0  0  0  0  0  0  0  0  0  0  0
  -24.8908  -26.8944   23.8780 C   0  0  0  0  0  0  0  0  0  0  0  0
  -29.7040  -22.5416   21.5066 C   0  0  0  0  0  0  0  0  0  0  0  0
  -22.3528  -11.6148   22.3271 C   0  0  0  0  0  0  0  0  0  0  0  0
  -25.7792  -24.7493   24.5985 C   0  0  0  0  0  0  0  0  0  0  0  0
  -22.1766   -9.2839   22.0866 C   0  0  0  0  0  0  0  0  0  0  0  0
  -23.2369   -6.8883   21.1277 C   0  0  0  0  0  0  0  0  0  0  0  0
  -22.4832   -8.2522   22.9740 C   0  0  0  0  0  0  0  0  0  0  0  0
  -24.5407  -15.1621   21.6006 C   0  0  0  0  0  0  0  0  0  0  0  0
  -29.6204  -23.5012   20.5185 C   0  0  0  0  0  0  0  0  0  0  0  0
  -25.5484  -17.1065   21.7979 C   0  0  0  0  0  0  0  0  0  0  0  0
  -29.2489  -21.9119   18.9364 C   0  0  0  0  0  0  0  0  0  0  0  0
  -24.4372  -16.3206   23.8946 C   0  0  0  0  0  0  0  0  0  0  0  0
  -21.7903  -28.2602   23.4914 C   0  0  0  0  0  0  0  0  0  0  0  0
  -24.0481  -30.3290   22.4215 C   0  0  0  0  0  0  0  0  0  0  0  0
  -27.3477  -30.9598   21.8203 C   0  0  0  0  0  0  0  0  0  0  0  0
  -29.4878  -18.4285   18.3782 C   0  0  0  0  0  0  0  0  0  0  0  0
  -16.9710  -29.9405   23.4006 C   0  0  0  0  0  0  0  0  0  0  0  0
  -23.4242  -28.2591   25.4114 C   0  0  0  0  0  0  0  0  0  0  0  0
  -24.7905  -27.9488   22.8072 C   0  0  0  0  0  0  0  0  0  0  0  0
  -18.2175  -30.1529   22.5454 C   0  0  0  0  0  0  0  0  0  0  0  0
  -26.4642  -17.4404   16.8440 C   0  0  0  0  0  0  0  0  0  0  0  0
  -18.8588  -28.8140   22.1947 C   0  0  0  0  0  0  0  0  0  0  0  0
  -25.7110  -16.8301   18.0250 C   0  0  0  0  0  0  0  0  0  0  0  0
  -27.9524  -17.0867   16.8670 C   0  0  0  0  0  0  0  0  0  0  0  0
  -27.8727  -16.8071   19.3242 C   0  0  0  0  0  0  0  0  0  0  0  0
  -19.3096  -28.0705   23.4578 C   0  0  1  0  0  0  0  0  0  0  0  0
  -22.9330  -28.9741   24.1565 C   0  0  1  0  0  0  0  0  0  0  0  0
  -26.3869  -17.1969   19.3575 C   0  0  2  0  0  0  0  0  0  0  0  0
  -29.3488  -25.8596   19.7119 C   0  0  0  0  0  0  0  0  0  0  0  0
  -28.8816  -32.7234   20.9068 C   0  0  0  0  0  0  0  0  0  0  0  0
  -28.2165  -22.7212   16.7635 C   0  0  0  0  0  0  0  0  0  0  0  0
  -27.9746  -20.3606   17.3625 C   0  0  0  0  0  0  0  0  0  0  0  0
  -23.1916  -29.6012   19.5848 C   0  0  0  0  0  0  0  0  0  0  0  0
  -25.3227  -30.6198   18.7547 C   0  0  0  0  0  0  0  0  0  0  0  0
  -23.6475  -32.0337   19.9452 C   0  0  0  0  0  0  0  0  0  0  0  0
  -30.0736  -20.8329   15.1850 C   0  0  0  0  0  0  0  0  0  0  0  0
  -31.3397  -22.3957   16.6497 C   0  0  0  0  0  0  0  0  0  0  0  0
  -30.7850  -17.7642   16.3092 C   0  0  0  0  0  0  0  0  0  0  0  0
  -28.7839  -31.2092   24.3959 C   0  0  0  0  0  0  0  0  0  0  0  0
  -29.9589  -22.8697   22.9561 C   0  0  0  0  0  0  0  0  0  0  0  0
  -29.7832  -24.9468   20.8548 C   0  0  0  0  0  0  0  0  0  0  0  0
  -28.7099  -22.7840   23.8359 C   0  0  0  0  0  0  0  0  0  0  0  0
  -31.0909  -19.9858   17.3374 C   0  0  0  0  0  0  0  0  0  0  0  0
  -27.6331  -23.7937   23.4558 C   0  0  0  0  0  0  0  0  0  1  0  0
  -25.0086  -30.3549   21.2572 C   0  0  1  0  0  0  0  0  0  0  0  0
  -28.2218  -32.1553   22.1537 C   0  0  2  0  0  0  0  0  0  0  0  0
  -28.9953  -21.5623   17.5089 C   0  0  0  0  0  0  0  0  0  0  0  0
  -24.2931  -30.6314   19.9047 C   0  0  0  0  0  0  0  0  0  0  0  0
  -30.3588  -21.1937   16.6677 C   0  0  0  0  0  0  0  0  0  0  0  0
  -29.3086  -20.8851   19.8057 N   0  0  0  0  0  0  0  0  0  0  0  0
  -25.0594  -15.3943   20.3919 N   0  0  0  0  0  0  0  0  0  0  0  0
  -29.3933  -23.2207   19.2184 N   0  0  0  0  0  0  0  0  0  0  0  0
  -25.6657  -16.5840   20.5435 N   0  0  0  0  0  0  0  0  0  0  0  0
  -23.9829  -29.1317   23.1481 N   0  0  0  0  0  0  0  0  0  0  0  0
  -28.5471  -17.4088   18.1713 N   0  0  0  0  0  0  0  0  0  0  0  0
  -26.0988  -18.2956   22.1226 N   0  0  0  0  0  0  0  0  0  0  0  0
  -23.6827  -15.2930   24.4770 N   0  0  0  0  0  0  0  0  0  0  0  0
  -20.5450  -28.6320   23.9609 N   0  0  0  0  0  0  0  0  0  0  0  0
  -26.0382  -31.3304   21.5989 N   0  0  0  0  0  0  0  0  0  0  0  0
  -30.3500  -18.7324   17.3140 N   0  0  0  0  0  0  0  0  0  0  0  0
  -29.2915  -31.7631   23.1143 N   0  3  0  0  0  0  0  0  0  0  0  0
  -24.7463  -17.3219   24.5841 O   0  0  0  0  0  0  0  0  0  0  0  0
  -22.0213  -27.4344   22.6160 O   0  0  0  0  0  0  0  0  0  0  0  0
  -23.3854  -31.3365   22.6813 O   0  0  0  0  0  0  0  0  0  0  0  0
  -27.7838  -29.8124   21.7585 O   0  0  0  0  0  0  0  0  0  0  0  0
  -29.5599  -19.0302   19.4575 O   0  0  0  0  0  0  0  0  0  0  0  0
  -21.6494  -10.4733   22.5610 O   0  0  0  0  0  0  0  0  0  0  0  0
  -26.5277  -23.6413   24.3453 O   0  0  0  0  0  0  0  0  0  1  0  0
  -23.7446   -5.7376   20.6670 F   0  0  0  0  0  0  0  0  0  0  0  0
  -22.2696   -8.4056   24.2880 F   0  0  0  0  0  0  0  0  0  0  0  0
  1  2  1  0  0  0  0
  1  5  2  0  0  0  0
  2  6  2  0  0  0  0
  3  8  2  0  0  0  0
  3 16  1  0  0  0  0
  4  9  1  0  0  0  0
  4 16  2  0  0  0  0
  5 18  1  0  0  0  0
  6 20  1  0  0  0  0
  7 10  2  0  0  0  0
  7 19  1  0  0  0  0
  8 23  1  0  0  0  0
  9 23  2  0  0  0  0
 10 24  1  0  0  0  0
 11 12  2  0  0  0  0
 11 25  1  0  0  0  0
 12 26  1  0  0  0  0
 13 21  1  0  0  0  0
 13 24  2  0  0  0  0
 14 26  2  0  0  0  0
 14 27  1  0  0  0  0
 15 22  1  0  0  0  0
 15 70  2  0  0  0  0
 16 28  1  0  0  0  0
 17 28  1  0  0  0  0
 17 30  2  0  0  0  0
 17 32  1  0  0  0  0
 18 20  2  0  0  0  0
 18 37  1  0  0  0  0
 19 21  2  0  0  0  0
 19 38  1  0  0  0  0
 20 46  1  0  0  0  0
 21 39  1  0  0  0  0
 22 29  2  0  0  0  0
 22 60  1  0  0  0  0
 23 87  1  0  0  0  0
 24 88  1  0  0  0  0
 25 27  2  0  0  0  0
 25 87  1  0  0  0  0
 26 89  1  0  0  0  0
 27 90  1  0  0  0  0
 28 71  2  0  0  0  0
 29 61  1  0  0  0  0
 29 72  1  0  0  0  0
 30 73  1  0  0  0  0
 30 76  1  0  0  0  0
 31 67  1  0  0  0  0
 31 70  1  0  0  0  0
 31 72  2  0  0  0  0
 32 77  1  0  0  0  0
 32 82  2  0  0  0  0
 33 47  1  0  0  0  0
 33 78  1  0  0  0  0
 33 83  2  0  0  0  0
 34 65  1  0  0  0  0
 34 74  1  0  0  0  0
 34 84  2  0  0  0  0
 35 66  1  0  0  0  0
 35 79  1  0  0  0  0
 35 85  2  0  0  0  0
 36 75  1  0  0  0  0
 36 80  1  0  0  0  0
 36 86  2  0  0  0  0
 37 40  1  0  0  0  0
 38 47  1  0  0  0  0
 39 74  1  0  0  0  0
 40 42  1  0  0  0  0
 41 43  1  0  0  0  0
 41 44  1  0  0  0  0
 42 46  1  0  0  0  0
 43 48  1  0  0  0  0
 44 75  1  0  0  0  0
 45 48  1  0  0  0  0
 45 75  1  0  0  0  0
 46 78  1  0  0  0  0
 47 74  1  0  0  0  0
 48 73  1  0  0  0  0
 49 61  1  0  0  0  0
 50 66  1  0  0  0  0
 51 67  1  0  0  0  0
 52 67  1  0  0  0  0
 53 68  1  0  0  0  0
 54 68  1  0  0  0  0
 55 68  1  0  0  0  0
 56 69  1  0  0  0  0
 57 69  1  0  0  0  0
 58 80  1  0  0  0  0
 59 81  1  0  0  0  0
 60 62  1  0  0  0  0
 62 64  1  0  0  0  0
 63 69  1  0  0  0  0
 63 80  1  0  0  0  0
 64 88  1  0  0  0  0
 65 68  1  0  0  0  0
 65 79  1  0  0  0  0
 66 81  1  0  0  0  0
 67 69  1  0  0  0  0
 71 73  1  0  0  0  0
M  CHG  1  81   1
M  ISO  4  36 100  64 101  80 100  88 101
M  END
> <Batch ID>
0067

> <Smiles>
CCc1nc(C(C)(C)C(C)(C)C[100N:0](C)[100C:0](=O)N2CCCC(n3nc(-c4ccc(Oc5ccc(F)cc5F)cc4)c(C(N)=O)c3N)C2)ncc1CC[101CH2:1][101O:1]c1ccc2c(c1)CN(C(=O)C(NC(=O)C(C)NC)C(C)(C)C)C(C(=O)NC1CCCc3ccccc31)C2

> <Shape>
0.230

> <Color>
0.068

> <Negative vol penalty>
0.000

$$$$

  -OEChem-04052318123D

 83 91  0     1  0  0  0  0  0999 V2000
  -27.0079  -24.3518   13.4740 C   0  0  0  0  0  0  0  0  0  0  0  0
  -26.7564  -23.8442   14.7446 C   0  0  0  0  0  0  0  0  0  0  0  0
  -26.0521  -13.5947   21.8111 C   0  0  0  0  0  0  0  0  0  0  0  0
  -26.1537  -12.5203   19.6496 C   0  0  0  0  0  0  0  0  0  0  0  0
  -27.1461  -25.7267   13.2885 C   0  0  0  0  0  0  0  0  0  0  0  0
  -26.6440  -24.7114   15.8309 C   0  0  0  0  0  0  0  0  0  0  0  0
  -22.7127  -23.5847   18.8175 C   0  0  0  0  0  0  0  0  0  0  0  0
  -24.8975  -12.8736   22.1153 C   0  0  0  0  0  0  0  0  0  0  0  0
  -24.9992  -11.7990   19.9538 C   0  0  0  0  0  0  0  0  0  0  0  0
  -22.8676  -22.5143   19.6973 C   0  0  0  0  0  0  0  0  0  0  0  0
  -24.1746   -9.0707   21.7694 C   0  0  0  0  0  0  0  0  0  0  0  0
  -24.1656   -7.7084   21.4701 C   0  0  0  0  0  0  0  0  0  0  0  0
  -23.3134  -24.0624   21.4928 C   0  0  0  0  0  0  0  0  0  0  0  0
  -22.2753   -8.0432   20.0032 C   0  0  0  0  0  0  0  0  0  0  0  0
  -27.5876  -21.3804   21.3576 C   0  0  0  0  0  0  0  0  0  0  0  0
  -26.6802  -13.4181   20.5782 C   0  0  0  0  0  0  0  0  0  0  0  0
  -29.2042  -13.7825   20.5148 C   0  0  0  0  0  0  0  0  0  0  0  0
  -27.0258  -26.6118   14.3714 C   0  0  0  0  0  0  0  0  0  0  0  0
  -22.8679  -24.9038   19.2672 C   0  0  0  0  0  0  0  0  0  0  0  0
  -26.7821  -26.0993   15.6600 C   0  0  0  0  0  0  0  0  0  0  0  0
  -23.1574  -25.1479   20.6173 C   0  0  0  0  0  0  0  0  0  0  0  0
  -24.3711  -11.9757   21.1867 C   0  0  0  0  0  0  0  0  0  0  0  0
  -23.1709  -22.7529   21.0345 C   0  0  0  0  0  0  0  0  0  0  0  0
  -23.2339   -9.9193   21.1857 C   0  0  0  0  0  0  0  0  0  0  0  0
  -23.2160   -7.1946   20.5870 C   0  0  0  0  0  0  0  0  0  0  0  0
  -22.2843   -9.4055   20.3026 C   0  0  0  0  0  0  0  0  0  0  0  0
  -27.8725  -14.1632   20.2631 C   0  0  0  0  0  0  0  0  0  0  0  0
  -28.5523  -20.6555   20.6325 C   0  0  0  0  0  0  0  0  0  0  0  0
  -27.8443  -21.0742   22.6718 C   0  0  0  0  0  0  0  0  0  0  0  0
  -29.9566  -14.8248   20.0311 C   0  0  0  0  0  0  0  0  0  0  0  0
  -29.7154  -12.5929   21.1307 C   0  0  0  0  0  0  0  0  0  0  0  0
  -28.7331  -20.6190   19.1755 C   0  0  0  0  0  0  0  0  0  0  0  0
  -24.8488  -27.2913   18.5745 C   0  0  0  0  0  0  0  0  0  0  0  0
  -22.9046  -28.9638   20.5607 C   0  0  0  0  0  0  0  0  0  0  0  0
  -20.6710  -28.9225   23.1407 C   0  0  0  0  0  0  0  0  0  0  0  0
  -27.2299  -28.0865   14.1298 C   0  0  0  0  0  0  0  0  0  0  0  0
  -22.6712  -26.0485   18.3114 C   0  0  0  0  0  0  0  0  0  0  0  0
  -23.3143  -26.5462   21.1545 C   0  0  0  0  0  0  0  0  0  0  0  0
  -26.7245  -28.9663   15.2703 C   0  0  0  0  0  0  0  0  0  0  0  0
  -29.8879  -18.2894   16.7298 C   0  0  0  0  0  0  0  0  0  0  0  0
  -27.1892  -28.4162   16.6150 C   0  0  0  0  0  0  0  0  0  0  0  0
  -29.6096  -16.9294   17.3725 C   0  0  0  0  0  0  0  0  0  0  0  0
  -28.8078  -19.3098   17.0802 C   0  0  0  0  0  0  0  0  0  0  0  0
  -28.2845  -18.1098   19.1756 C   0  0  0  0  0  0  0  0  0  0  0  0
  -26.6289  -27.0097   16.8590 C   0  0  1  0  0  0  0  0  0  0  0  0
  -23.3591  -27.3319   18.7664 C   0  0  1  0  0  0  0  0  0  0  0  0
  -29.3767  -17.0662   18.8889 C   0  0  1  0  0  0  0  0  0  0  0  0
  -19.2826  -30.4490   24.5688 C   0  0  0  0  0  0  0  0  0  0  0  0
  -23.6536  -19.6205   23.8658 C   0  0  0  0  0  0  0  0  0  0  0  0
  -25.3997  -29.7690   22.1215 C   0  0  0  0  0  0  0  0  0  0  0  0
  -23.9097  -30.4613   24.0106 C   0  0  0  0  0  0  0  0  0  0  0  0
  -23.7321  -31.6049   21.8008 C   0  0  0  0  0  0  0  0  0  0  0  0
  -25.4713  -21.3329   25.7735 C   0  0  0  0  0  0  0  0  0  0  0  0
  -26.4968  -19.2565   24.8673 C   0  0  0  0  0  0  0  0  0  0  0  0
  -29.5504  -19.6112   23.7960 C   0  0  0  0  0  0  0  0  0  0  0  0
  -18.1490  -27.6663   22.2348 C   0  0  0  0  0  0  0  0  0  0  0  0
  -27.1680  -21.5248   23.9476 C   0  0  0  0  0  0  0  0  0  0  0  0
  -24.2218  -21.8957   22.9881 C   0  0  0  0  0  0  0  0  0  1  0  0
  -22.8739  -29.2393   22.0447 C   0  0  1  0  0  0  0  0  0  0  0  0
  -19.3192  -29.5913   23.3135 C   0  0  2  0  0  0  0  0  0  0  0  0
  -24.8098  -20.5360   23.4149 C   0  0  1  0  0  0  0  0  0  0  0  0
  -23.9778  -30.2421   22.4842 C   0  0  0  0  0  0  0  0  0  0  0  0
  -25.9719  -20.6574   24.4736 C   0  0  0  0  0  0  0  0  0  0  0  0
  -27.7809  -15.3545   19.6661 N   0  0  0  0  0  0  0  0  0  0  0  0
  -29.3614  -19.9425   21.4205 N   0  0  0  0  0  0  0  0  0  0  0  0
  -28.9058  -20.2179   22.6545 N   0  0  0  0  0  0  0  0  0  0  0  0
  -29.0646  -15.7313   19.5386 N   0  0  0  0  0  0  0  0  0  0  0  0
  -28.6185  -19.3863   18.5283 N   0  0  0  0  0  0  0  0  0  0  0  0
  -23.1186  -27.6317   20.1794 N   0  0  0  0  0  0  0  0  0  0  0  0
  -31.2876  -15.0452   19.9834 N   0  0  0  0  0  0  0  0  0  0  0  0
  -28.8038  -11.6235   21.5705 N   0  0  0  0  0  0  0  0  0  0  0  0
  -25.2421  -27.0818   17.2665 N   0  0  0  0  0  0  0  0  0  0  0  0
  -21.5154  -29.6741   22.3511 N   0  0  0  0  0  0  0  0  0  0  0  0
  -18.2428  -28.5655   23.4136 N   0  3  0  0  0  0  0  0  0  0  0  0
  -30.9436  -12.4028   21.3012 O   0  0  0  0  0  0  0  0  0  0  0  0
  -28.9874  -21.6929   18.6324 O   0  0  0  0  0  0  0  0  0  0  0  0
  -25.5868  -27.4406   19.5413 O   0  0  0  0  0  0  0  0  0  0  0  0
  -22.7374  -29.8950   19.7692 O   0  0  0  0  0  0  0  0  0  0  0  0
  -20.9511  -27.8433   23.6577 O   0  0  0  0  0  0  0  0  0  0  0  0
  -23.2446  -11.2717   21.4833 O   0  0  0  0  0  0  0  0  0  0  0  0
  -23.3233  -21.7099   21.8952 O   0  0  0  0  0  0  0  0  0  1  0  0
  -23.2084   -5.8866   20.2985 F   0  0  0  0  0  0  0  0  0  0  0  0
  -21.3788  -10.2160   19.7378 F   0  0  0  0  0  0  0  0  0  0  0  0
  1  2  1  0  0  0  0
  1  5  2  0  0  0  0
  2  6  2  0  0  0  0
  3  8  2  0  0  0  0
  3 16  1  0  0  0  0
  4  9  1  0  0  0  0
  4 16  2  0  0  0  0
  5 18  1  0  0  0  0
  6 20  1  0  0  0  0
  7 10  2  0  0  0  0
  7 19  1  0  0  0  0
  8 22  1  0  0  0  0
  9 22  2  0  0  0  0
 10 23  1  0  0  0  0
 11 12  2  0  0  0  0
 11 24  1  0  0  0  0
 12 25  1  0  0  0  0
 13 21  1  0  0  0  0
 13 23  2  0  0  0  0
 14 25  2  0  0  0  0
 14 26  1  0  0  0  0
 15 28  1  0  0  0  0
 15 29  2  0  0  0  0
 16 27  1  0  0  0  0
 17 27  1  0  0  0  0
 17 30  2  0  0  0  0
 17 31  1  0  0  0  0
 18 20  2  0  0  0  0
 18 36  1  0  0  0  0
 19 21  2  0  0  0  0
 19 37  1  0  0  0  0
 20 45  1  0  0  0  0
 21 38  1  0  0  0  0
 22 80  1  0  0  0  0
 23 81  1  0  0  0  0
 24 26  2  0  0  0  0
 24 80  1  0  0  0  0
 25 82  1  0  0  0  0
 26 83  1  0  0  0  0
 27 64  2  0  0  0  0
 28 32  1  0  0  0  0
 28 65  2  0  0  0  0
 29 57  1  0  0  0  0
 29 66  1  0  0  0  0
 30 67  1  0  0  0  0
 30 70  1  0  0  0  0
 31 71  1  0  0  0  0
 31 75  2  0  0  0  0
 32 68  1  0  0  0  0
 32 76  2  0  0  0  0
 33 46  1  0  0  0  0
 33 72  1  0  0  0  0
 33 77  2  0  0  0  0
 34 59  1  0  0  0  0
 34 69  1  0  0  0  0
 34 78  2  0  0  0  0
 35 60  1  0  0  0  0
 35 73  1  0  0  0  0
 35 79  2  0  0  0  0
 36 39  1  0  0  0  0
 37 46  1  0  0  0  0
 38 69  1  0  0  0  0
 39 41  1  0  0  0  0
 40 42  1  0  0  0  0
 40 43  1  0  0  0  0
 41 45  1  0  0  0  0
 42 47  1  0  0  0  0
 43 68  1  0  0  0  0
 44 47  1  0  0  0  0
 44 68  1  0  0  0  0
 45 72  1  0  0  0  0
 46 69  1  0  0  0  0
 47 67  1  0  0  0  0
 48 60  1  0  0  0  0
 49 61  1  0  0  0  0
 50 62  1  0  0  0  0
 51 62  1  0  0  0  0
 52 62  1  0  0  0  0
 53 63  1  0  0  0  0
 54 63  1  0  0  0  0
 55 66  1  0  0  0  0
 56 74  1  0  0  0  0
 57 63  1  0  0  0  0
 58 61  1  0  0  0  0
 58 81  1  0  0  0  0
 59 62  1  0  0  0  0
 59 73  1  0  0  0  0
 60 74  1  0  0  0  0
 61 63  1  0  0  0  0
 64 67  1  0  0  0  0
 65 66  1  0  0  0  0
M  CHG  1  74   1
M  ISO  4  28 100  32 100  58 101  81 101
M  END
> <Batch ID>
0067

> <Smiles>
CNC(C)C(=O)NC(C(=O)N1Cc2cc([101O:1][101CH2:1]C(C)C(C)(C)Cc3c[100c:0]([100C:0](=O)N4CCCC(n5nc(-c6ccc(Oc7ccc(F)cc7F)cc6)c(C(N)=O)c5N)C4)nn3C)ccc2CC1C(=O)NC1CCCc2ccccc21)C(C)(C)C

> <Shape>
0.241

> <Color>
0.063

> <Negative vol penalty>
0.000

$$$$

  -OEChem-04052318123D

 96104  0     1  0  0  0  0  0999 V2000
  -19.9319  -34.1890   22.1152 C   0  0  0  0  0  0  0  0  0  0  0  0
  -21.2164  -33.7706   21.7829 C   0  0  0  0  0  0  0  0  0  0  0  0
  -24.4761   -9.1365   22.7363 C   0  0  0  0  0  0  0  0  0  0  0  0
  -22.7766  -10.8341   22.9957 C   0  0  0  0  0  0  0  0  0  0  0  0
  -19.1219  -33.3824   22.9135 C   0  0  0  0  0  0  0  0  0  0  0  0
  -21.6921  -32.5457   22.2496 C   0  0  0  0  0  0  0  0  0  0  0  0
  -25.4594  -28.7036   19.3254 C   0  0  0  0  0  0  0  0  0  0  0  0
  -23.6775   -8.2304   23.4340 C   0  0  0  0  0  0  0  0  0  0  0  0
  -21.9780   -9.9279   23.6933 C   0  0  0  0  0  0  0  0  0  0  0  0
  -26.8342  -28.4891   19.4139 C   0  0  0  0  0  0  0  0  0  0  0  0
  -20.9917   -6.2760   22.8013 C   0  0  0  0  0  0  0  0  0  0  0  0
  -20.8654   -4.9884   22.2802 C   0  0  0  0  0  0  0  0  0  0  0  0
  -26.4446  -26.6593   20.9368 C   0  0  0  0  0  0  0  0  0  0  0  0
  -21.8046   -4.0747   24.3100 C   0  0  0  0  0  0  0  0  0  0  0  0
  -24.0257  -10.4384   22.5173 C   0  0  0  0  0  0  0  0  0  0  0  0
  -24.8649  -11.6020   20.4079 C   0  0  0  0  0  0  0  0  0  0  0  0
  -19.5844  -32.1426   23.3823 C   0  0  0  0  0  0  0  0  0  0  0  0
  -24.5659  -27.9031   20.0516 C   0  0  0  0  0  0  0  0  0  0  0  0
  -20.8880  -31.7223   23.0560 C   0  0  0  0  0  0  0  0  0  0  0  0
  -25.0588  -26.8640   20.8538 C   0  0  0  0  0  0  0  0  0  0  0  0
  -22.4284   -8.6261   23.9124 C   0  0  0  0  0  0  0  0  0  0  0  0
  -27.3271  -27.4687   20.2219 C   0  0  0  0  0  0  0  0  0  0  0  0
  -21.5246   -6.4631   24.0767 C   0  0  0  0  0  0  0  0  0  0  0  0
  -21.2718   -3.8877   23.0345 C   0  0  0  0  0  0  0  0  0  0  0  0
  -21.9310   -5.3624   24.8311 C   0  0  0  0  0  0  0  0  0  0  0  0
  -24.8505  -11.3751   21.7972 C   0  0  0  0  0  0  0  0  0  0  0  0
  -30.0045  -23.1877   19.5019 C   0  0  0  0  0  0  0  0  0  0  0  0
  -29.9005  -21.9287   20.0509 C   0  0  0  0  0  0  0  0  0  0  0  0
  -28.4484  -22.6275   17.9225 C   0  0  0  0  0  0  0  0  0  0  0  0
  -28.3449  -21.3682   18.4710 C   0  0  0  0  0  0  0  0  0  0  0  0
  -25.8130  -12.5797   20.2296 C   0  0  0  0  0  0  0  0  0  0  0  0
  -24.0904  -10.9845   19.3713 C   0  0  0  0  0  0  0  0  0  0  0  0
  -22.4234  -28.4391   22.3377 C   0  0  0  0  0  0  0  0  0  0  0  0
  -21.7150  -25.3087   21.8679 C   0  0  0  0  0  0  0  0  0  0  0  0
  -22.7370  -22.2377   20.7855 C   0  0  0  0  0  0  0  0  0  0  0  0
  -27.8580  -17.4950   21.9230 C   0  0  0  0  0  0  0  0  0  0  0  0
  -18.6897  -31.3268   24.2814 C   0  0  0  0  0  0  0  0  0  0  0  0
  -23.0845  -28.1302   19.9245 C   0  0  0  0  0  0  0  0  0  0  0  0
  -24.1406  -25.9637   21.6378 C   0  0  0  0  0  0  0  0  0  0  0  0
  -19.1330  -29.8732   24.4254 C   0  0  0  0  0  0  0  0  0  0  0  0
  -28.1129  -14.4209   24.2173 C   0  0  0  0  0  0  0  0  0  0  0  0
  -20.6332  -29.7963   24.6904 C   0  0  0  0  0  0  0  0  0  0  0  0
  -28.2038  -13.4409   23.0514 C   0  0  0  0  0  0  0  0  0  0  0  0
  -28.4295  -15.8421   23.7620 C   0  0  0  0  0  0  0  0  0  0  0  0
  -26.7398  -15.2809   22.0149 C   0  0  0  0  0  0  0  0  0  0  0  0
  -21.4309  -30.3890   23.5225 C   0  0  1  0  0  0  0  0  0  0  0  0
  -22.2926  -27.5846   21.1088 C   0  0  1  0  0  0  0  0  0  0  0  0
  -27.3601  -13.8839   21.8362 C   0  0  2  0  0  0  0  0  0  0  0  0
  -21.9502  -19.8653   20.5627 C   0  0  0  0  0  0  0  0  0  0  0  0
  -31.5148  -26.6423   20.4366 C   0  0  0  0  0  0  0  0  0  0  0  0
  -30.3946  -22.4589   22.4834 C   0  0  0  0  0  0  0  0  0  0  0  0
  -32.2525  -21.8043   21.0309 C   0  0  0  0  0  0  0  0  0  0  0  0
  -22.1111  -24.8984   24.8654 C   0  0  0  0  0  0  0  0  0  0  0  0
  -22.2564  -22.4357   24.4384 C   0  0  0  0  0  0  0  0  0  0  0  0
  -20.1598  -23.6727   23.8935 C   0  0  0  0  0  0  0  0  0  0  0  0
  -30.9165  -18.9655   20.5494 C   0  0  0  0  0  0  0  0  0  0  0  0
  -31.3865  -19.6096   22.9062 C   0  0  0  0  0  0  0  0  0  0  0  0
  -23.0486  -22.2885   17.8429 C   0  0  0  0  0  0  0  0  0  0  0  0
  -30.9396  -24.2232   20.0777 C   0  0  0  0  0  0  0  0  0  0  0  0
  -29.0183  -19.6877   22.0530 C   0  0  0  0  0  0  0  0  0  0  0  0
  -29.1006  -25.9205   20.5594 C   0  0  0  0  0  0  0  0  0  1  0  0
  -22.2058  -24.0031   22.4455 C   0  0  1  0  0  0  0  0  0  0  0  0
  -22.0738  -21.2175   19.8779 C   0  0  2  0  0  0  0  0  0  0  0  0
  -30.4585  -25.6755   19.8862 C   0  0  1  0  0  0  0  0  0  0  0  0
  -30.7065  -21.5303   21.2397 C   0  0  0  0  0  0  0  0  0  0  0  0
  -27.6414  -23.0264   16.7345 C   0  0  0  0  0  0  0  0  0  0  0  0
  -27.4217  -20.3458   17.9019 C   0  0  0  0  0  0  0  0  0  0  0  0
  -21.7010  -23.7705   23.8976 C   0  0  0  0  0  0  0  0  0  0  0  0
  -30.5107  -19.9564   21.6734 C   0  0  0  0  0  0  0  0  0  0  0  0
  -25.7205  -12.1463   22.4547 N   0  0  0  0  0  0  0  0  0  0  0  0
  -29.2802  -23.5598   18.4278 N   0  0  0  0  0  0  0  0  0  0  0  0
  -29.0689  -20.9963   19.5453 N   0  0  0  0  0  0  0  0  0  0  0  0
  -26.2905  -12.8674   21.4743 N   0  0  0  0  0  0  0  0  0  0  0  0
  -22.7006  -26.2296   21.4855 N   0  0  0  0  0  0  0  0  0  0  0  0
  -27.7109  -16.2398   22.5447 N   0  0  0  0  0  0  0  0  0  0  0  0
  -26.2766  -13.2126   19.1310 N   0  0  0  0  0  0  0  0  0  0  0  0
  -23.1610   -9.9983   19.7291 N   0  0  0  0  0  0  0  0  0  0  0  0
  -21.4867  -29.4515   22.4213 N   0  0  0  0  0  0  0  0  0  0  0  0
  -21.8090  -22.9642   21.5013 N   0  0  0  0  0  0  0  0  0  0  0  0
  -28.7494  -18.3591   22.5540 N   0  0  0  0  0  0  0  0  0  0  0  0
  -22.8681  -21.0411   18.6294 N   0  3  0  0  0  0  0  0  0  0  0  0
  -24.2305  -11.2862   18.1618 O   0  0  0  0  0  0  0  0  0  0  0  0
  -23.3079  -28.1970   23.1506 O   0  0  0  0  0  0  0  0  0  0  0  0
  -20.5020  -25.5013   21.7534 O   0  0  0  0  0  0  0  0  0  0  0  0
  -23.9565  -22.3738   20.8555 O   0  0  0  0  0  0  0  0  0  0  0  0
  -27.2475  -17.8168   20.8992 O   0  0  0  0  0  0  0  0  0  0  0  0
  -21.6487   -7.7420   24.5930 O   0  0  0  0  0  0  0  0  0  0  0  0
  -28.6685  -27.2576   20.3106 O   0  0  0  0  0  0  0  0  0  1  0  0
  -21.1489   -2.6511   22.5346 F   0  0  0  0  0  0  0  0  0  0  0  0
  -22.4426   -5.5358   26.0575 F   0  0  0  0  0  0  0  0  0  0  0  0
  -26.8205  -22.0370   16.2719 F   0  0  0  0  0  0  0  0  0  0  0  0
  -26.8183  -24.0924   16.9644 F   0  0  0  0  0  0  0  0  0  0  0  0
  -28.4160  -23.3861   15.6693 F   0  0  0  0  0  0  0  0  0  0  0  0
  -26.7183  -20.7858   16.8163 F   0  0  0  0  0  0  0  0  0  0  0  0
  -28.0547  -19.2113   17.4789 F   0  0  0  0  0  0  0  0  0  0  0  0
  -26.4827  -19.9269   18.8001 F   0  0  0  0  0  0  0  0  0  0  0  0
  1  2  1  0  0  0  0
  1  5  2  0  0  0  0
  2  6  2  0  0  0  0
  3  8  2  0  0  0  0
  3 15  1  0  0  0  0
  4  9  1  0  0  0  0
  4 15  2  0  0  0  0
  5 17  1  0  0  0  0
  6 19  1  0  0  0  0
  7 10  2  0  0  0  0
  7 18  1  0  0  0  0
  8 21  1  0  0  0  0
  9 21  2  0  0  0  0
 10 22  1  0  0  0  0
 11 12  2  0  0  0  0
 11 23  1  0  0  0  0
 12 24  1  0  0  0  0
 13 20  1  0  0  0  0
 13 22  2  0  0  0  0
 14 24  2  0  0  0  0
 14 25  1  0  0  0  0
 15 26  1  0  0  0  0
 16 26  1  0  0  0  0
 16 31  2  0  0  0  0
 16 32  1  0  0  0  0
 17 19  2  0  0  0  0
 17 37  1  0  0  0  0
 18 20  2  0  0  0  0
 18 38  1  0  0  0  0
 19 46  1  0  0  0  0
 20 39  1  0  0  0  0
 21 87  1  0  0  0  0
 22 88  1  0  0  0  0
 23 25  2  0  0  0  0
 23 87  1  0  0  0  0
 24 89  1  0  0  0  0
 25 90  1  0  0  0  0
 26 70  2  0  0  0  0
 27 28  2  0  0  0  0
 27 59  1  0  0  0  0
 27 71  1  0  0  0  0
 28 65  1  0  0  0  0
 28 72  1  0  0  0  0
 29 30  1  0  0  0  0
 29 66  1  0  0  0  0
 29 71  2  0  0  0  0
 30 67  1  0  0  0  0
 30 72  2  0  0  0  0
 31 73  1  0  0  0  0
 31 76  1  0  0  0  0
 32 77  1  0  0  0  0
 32 82  2  0  0  0  0
 33 47  1  0  0  0  0
 33 78  1  0  0  0  0
 33 83  2  0  0  0  0
 34 62  1  0  0  0  0
 34 74  1  0  0  0  0
 34 84  2  0  0  0  0
 35 63  1  0  0  0  0
 35 79  1  0  0  0  0
 35 85  2  0  0  0  0
 36 75  1  0  0  0  0
 36 80  1  0  0  0  0
 36 86  2  0  0  0  0
 37 40  1  0  0  0  0
 38 47  1  0  0  0  0
 39 74  1  0  0  0  0
 40 42  1  0  0  0  0
 41 43  1  0  0  0  0
 41 44  1  0  0  0  0
 42 46  1  0  0  0  0
 43 48  1  0  0  0  0
 44 75  1  0  0  0  0
 45 48  1  0  0  0  0
 45 75  1  0  0  0  0
 46 78  1  0  0  0  0
 47 74  1  0  0  0  0
 48 73  1  0  0  0  0
 49 63  1  0  0  0  0
 50 64  1  0  0  0  0
 51 65  1  0  0  0  0
 52 65  1  0  0  0  0
 53 68  1  0  0  0  0
 54 68  1  0  0  0  0
 55 68  1  0  0  0  0
 56 69  1  0  0  0  0
 57 69  1  0  0  0  0
 58 81  1  0  0  0  0
 59 64  1  0  0  0  0
 60 69  1  0  0  0  0
 60 80  1  0  0  0  0
 61 64  1  0  0  0  0
 61 88  1  0  0  0  0
 62 68  1  0  0  0  0
 62 79  1  0  0  0  0
 63 81  1  0  0  0  0
 65 69  1  0  0  0  0
 66 91  1  0  0  0  0
 66 92  1  0  0  0  0
 66 93  1  0  0  0  0
 67 94  1  0  0  0  0
 67 95  1  0  0  0  0
 67 96  1  0  0  0  0
 70 73  1  0  0  0  0
M  CHG  1  81   1
M  ISO  4  36 100  61 101  80 100  88 101
M  END
> <Batch ID>
0067

> <Smiles>
CNC(C)C(=O)NC(C(=O)N1Cc2cc([101O:1][101CH2:1]C(C)Cc3nc(C(F)(F)F)c(C(F)(F)F)nc3C(C)(C)C(C)(C)C[100NH:0][100C:0](=O)N3CCCC(n4nc(-c5ccc(Oc6ccc(F)cc6F)cc5)c(C(N)=O)c4N)C3)ccc2CC1C(=O)NC1CCCc2ccccc21)C(C)(C)C

> <Shape>
0.234

> <Color>
0.105

> <Negative vol penalty>
0.000

$$$$

  -OEChem-04052318123D

 91 99  0     1  0  0  0  0  0999 V2000
  -27.7374  -28.9108   18.5459 C   0  0  0  0  0  0  0  0  0  0  0  0
  -27.1826  -27.7561   19.0861 C   0  0  0  0  0  0  0  0  0  0  0  0
  -30.2791  -20.4029   19.8561 C   0  0  0  0  0  0  0  0  0  0  0  0
  -27.9202  -20.0368   20.2280 C   0  0  0  0  0  0  0  0  0  0  0  0
  -27.3002  -30.1596   18.9823 C   0  0  0  0  0  0  0  0  0  0  0  0
  -26.1821  -27.8499   20.0542 C   0  0  0  0  0  0  0  0  0  0  0  0
  -24.0069  -23.6583   21.4335 C   0  0  0  0  0  0  0  0  0  0  0  0
  -29.9919  -21.6136   19.2260 C   0  0  0  0  0  0  0  0  0  0  0  0
  -27.6329  -21.2476   19.5979 C   0  0  0  0  0  0  0  0  0  0  0  0
  -24.6470  -22.6994   22.2173 C   0  0  0  0  0  0  0  0  0  0  0  0
  -29.1876  -24.7681   20.1399 C   0  0  0  0  0  0  0  0  0  0  0  0
  -29.9623  -25.8765   20.4816 C   0  0  0  0  0  0  0  0  0  0  0  0
  -23.3883  -23.4379   24.1381 C   0  0  0  0  0  0  0  0  0  0  0  0
  -30.6788  -26.0842   18.1836 C   0  0  0  0  0  0  0  0  0  0  0  0
  -27.0799  -13.2133   23.4206 C   0  0  0  0  0  0  0  0  0  0  0  0
  -29.2432  -19.6144   20.3571 C   0  0  0  0  0  0  0  0  0  0  0  0
  -30.3253  -18.1691   22.1593 C   0  0  0  0  0  0  0  0  0  0  0  0
  -26.3027  -30.2678   19.9652 C   0  0  0  0  0  0  0  0  0  0  0  0
  -23.0589  -24.5229   21.9995 C   0  0  0  0  0  0  0  0  0  0  0  0
  -25.7105  -29.1013   20.4904 C   0  0  0  0  0  0  0  0  0  0  0  0
  -22.7357  -24.4052   23.3588 C   0  0  0  0  0  0  0  0  0  0  0  0
  -28.6688  -22.0360   19.0968 C   0  0  0  0  0  0  0  0  0  0  0  0
  -24.3399  -22.5909   23.5705 C   0  0  0  0  0  0  0  0  0  0  0  0
  -29.1585  -24.3177   18.8200 C   0  0  0  0  0  0  0  0  0  0  0  0
  -30.7079  -26.5346   19.5035 C   0  0  0  0  0  0  0  0  0  0  0  0
  -29.9041  -24.9757   17.8419 C   0  0  0  0  0  0  0  0  0  0  0  0
  -29.5393  -18.3633   21.0077 C   0  0  0  0  0  0  0  0  0  0  0  0
  -26.0412  -13.9027   22.8347 C   0  0  0  0  0  0  0  0  0  0  0  0
  -26.1920  -15.5079   24.4567 C   0  0  0  0  0  0  0  0  0  0  0  0
  -27.2302  -14.8180   25.0428 C   0  0  0  0  0  0  0  0  0  0  0  0
  -30.2971  -16.8120   22.3693 C   0  0  0  0  0  0  0  0  0  0  0  0
  -31.0189  -19.1294   22.9669 C   0  0  0  0  0  0  0  0  0  0  0  0
  -22.8406  -27.6708   22.3826 C   0  0  0  0  0  0  0  0  0  0  0  0
  -19.8741  -26.9403   23.4728 C   0  0  0  0  0  0  0  0  0  0  0  0
  -26.3447  -12.5830   20.7550 C   0  0  0  0  0  0  0  0  0  0  0  0
  -17.7846  -24.6227   24.8546 C   0  0  0  0  0  0  0  0  0  0  0  0
  -25.8615  -31.6447   20.3952 C   0  0  0  0  0  0  0  0  0  0  0  0
  -22.3578  -25.5342   21.1345 C   0  0  0  0  0  0  0  0  0  0  0  0
  -21.7105  -25.2959   24.0101 C   0  0  0  0  0  0  0  0  0  0  0  0
  -25.1237  -31.6426   21.7301 C   0  0  0  0  0  0  0  0  0  0  0  0
  -29.8556  -12.6633   20.0431 C   0  0  0  0  0  0  0  0  0  0  0  0
  -24.0359  -30.5790   21.7212 C   0  0  0  0  0  0  0  0  0  0  0  0
  -30.2381  -14.1226   20.2869 C   0  0  0  0  0  0  0  0  0  0  0  0
  -28.4509  -12.5441   19.4602 C   0  0  0  0  0  0  0  0  0  0  0  0
  -27.7753  -14.6738   20.5231 C   0  0  0  0  0  0  0  0  0  0  0  0
  -24.6427  -29.1787   21.5665 C   0  0  1  0  0  0  0  0  0  0  0  0
  -21.7841  -26.7040   21.9282 C   0  0  1  0  0  0  0  0  0  0  0  0
  -29.1755  -14.8373   21.1404 C   0  0  2  0  0  0  0  0  0  0  0  0
  -26.3230  -14.0494   27.9216 C   0  0  0  0  0  0  0  0  0  0  0  0
  -15.4279  -24.3303   25.6656 C   0  0  0  0  0  0  0  0  0  0  0  0
  -24.8450  -14.4666   20.6242 C   0  0  0  0  0  0  0  0  0  0  0  0
  -28.5739  -16.7319   26.1481 C   0  0  0  0  0  0  0  0  0  0  0  0
  -29.0690  -14.3625   26.6812 C   0  0  0  0  0  0  0  0  0  0  0  0
  -20.5494  -28.5174   25.9961 C   0  0  0  0  0  0  0  0  0  0  0  0
  -18.6020  -27.4171   27.1210 C   0  0  0  0  0  0  0  0  0  0  0  0
  -18.2302  -28.8754   25.1315 C   0  0  0  0  0  0  0  0  0  0  0  0
  -17.2469  -22.4854   22.8793 C   0  0  0  0  0  0  0  0  0  0  0  0
  -25.6845  -16.8049   25.0346 C   0  0  0  0  0  0  0  0  0  0  0  0
  -26.9303  -15.3902   27.5191 C   0  0  0  0  0  0  0  0  0  0  0  0
  -25.7659  -17.9889   24.0646 C   0  0  0  0  0  0  0  0  0  0  0  0
  -25.3193  -19.3096   24.6932 C   0  0  0  0  0  0  0  0  0  0  0  0
  -25.3760  -20.4536   23.6898 C   0  0  0  0  0  0  0  0  0  1  0  0
  -19.2843  -26.5986   24.8198 C   0  0  1  0  0  0  0  0  0  0  0  0
  -16.3774  -24.1885   24.4862 C   0  0  2  0  0  0  0  0  0  0  0  0
  -25.3867  -13.3801   21.6041 C   0  0  2  0  0  0  0  0  0  0  0  0
  -27.9001  -15.3215   26.2755 C   0  0  0  0  0  0  0  0  0  0  0  0
  -19.1872  -27.8365   25.7555 C   0  0  0  0  0  0  0  0  0  0  0  0
  -24.2001  -12.4467   21.9525 C   0  0  0  0  0  0  0  0  0  0  0  0
  -27.6931  -13.6585   24.5352 N   0  0  0  0  0  0  0  0  0  0  0  0
  -29.0477  -17.2210   20.5202 N   0  0  0  0  0  0  0  0  0  0  0  0
  -25.5786  -15.0625   23.3423 N   0  0  0  0  0  0  0  0  0  0  0  0
  -29.5262  -16.2960   21.3696 N   0  0  0  0  0  0  0  0  0  0  0  0
  -21.0569  -26.2731   23.1240 N   0  0  0  0  0  0  0  0  0  0  0  0
  -27.4744  -13.2548   20.2876 N   0  0  0  0  0  0  0  0  0  0  0  0
  -30.8569  -16.0217   23.3098 N   0  0  0  0  0  0  0  0  0  0  0  0
  -30.3406  -19.7069   24.0489 N   0  0  0  0  0  0  0  0  0  0  0  0
  -23.5777  -28.2237   21.3528 N   0  0  0  0  0  0  0  0  0  0  0  0
  -18.0051  -25.9499   24.5525 N   0  0  0  0  0  0  0  0  0  0  0  0
  -16.3728  -22.7642   24.0477 N   0  3  0  0  0  0  0  0  0  0  0  0
  -32.1997  -19.4777   22.7261 O   0  0  0  0  0  0  0  0  0  0  0  0
  -22.9761  -27.8995   23.5789 O   0  0  0  0  0  0  0  0  0  0  0  0
  -19.3025  -27.7635   22.7536 O   0  0  0  0  0  0  0  0  0  0  0  0
  -26.0962  -11.3981   20.5179 O   0  0  0  0  0  0  0  0  0  0  0  0
  -18.6048  -23.8617   25.3631 O   0  0  0  0  0  0  0  0  0  0  0  0
  -28.3882  -23.2176   18.4822 O   0  0  0  0  0  0  0  0  0  0  0  0
  -24.9638  -21.6563   24.3379 O   0  0  0  0  0  0  0  0  0  1  0  0
  -31.4506  -27.5999   19.8315 F   0  0  0  0  0  0  0  0  0  0  0  0
  -29.8792  -24.5484   16.5720 F   0  0  0  0  0  0  0  0  0  0  0  0
  -23.2668  -13.1118   22.6719 F   0  0  0  0  0  0  0  0  0  0  0  0
  -23.5808  -11.9539   20.8543 F   0  0  0  0  0  0  0  0  0  0  0  0
  -24.6029  -11.3897   22.6922 F   0  0  0  0  0  0  0  0  0  0  0  0
  1  2  1  0  0  0  0
  1  5  2  0  0  0  0
  2  6  2  0  0  0  0
  3  8  2  0  0  0  0
  3 16  1  0  0  0  0
  4  9  1  0  0  0  0
  4 16  2  0  0  0  0
  5 18  1  0  0  0  0
  6 20  1  0  0  0  0
  7 10  2  0  0  0  0
  7 19  1  0  0  0  0
  8 22  1  0  0  0  0
  9 22  2  0  0  0  0
 10 23  1  0  0  0  0
 11 12  2  0  0  0  0
 11 24  1  0  0  0  0
 12 25  1  0  0  0  0
 13 21  1  0  0  0  0
 13 23  2  0  0  0  0
 14 25  2  0  0  0  0
 14 26  1  0  0  0  0
 15 28  1  0  0  0  0
 15 69  2  0  0  0  0
 16 27  1  0  0  0  0
 17 27  1  0  0  0  0
 17 31  2  0  0  0  0
 17 32  1  0  0  0  0
 18 20  2  0  0  0  0
 18 37  1  0  0  0  0
 19 21  2  0  0  0  0
 19 38  1  0  0  0  0
 20 46  1  0  0  0  0
 21 39  1  0  0  0  0
 22 85  1  0  0  0  0
 23 86  1  0  0  0  0
 24 26  2  0  0  0  0
 24 85  1  0  0  0  0
 25 87  1  0  0  0  0
 26 88  1  0  0  0  0
 27 70  2  0  0  0  0
 28 65  1  0  0  0  0
 28 71  2  0  0  0  0
 29 30  2  0  0  0  0
 29 58  1  0  0  0  0
 29 71  1  0  0  0  0
 30 66  1  0  0  0  0
 30 69  1  0  0  0  0
 31 72  1  0  0  0  0
 31 75  1  0  0  0  0
 32 76  1  0  0  0  0
 32 80  2  0  0  0  0
 33 47  1  0  0  0  0
 33 77  1  0  0  0  0
 33 81  2  0  0  0  0
 34 63  1  0  0  0  0
 34 73  1  0  0  0  0
 34 82  2  0  0  0  0
 35 65  1  0  0  0  0
 35 74  1  0  0  0  0
 35 83  2  0  0  0  0
 36 64  1  0  0  0  0
 36 78  1  0  0  0  0
 36 84  2  0  0  0  0
 37 40  1  0  0  0  0
 38 47  1  0  0  0  0
 39 73  1  0  0  0  0
 40 42  1  0  0  0  0
 41 43  1  0  0  0  0
 41 44  1  0  0  0  0
 42 46  1  0  0  0  0
 43 48  1  0  0  0  0
 44 74  1  0  0  0  0
 45 48  1  0  0  0  0
 45 74  1  0  0  0  0
 46 77  1  0  0  0  0
 47 73  1  0  0  0  0
 48 72  1  0  0  0  0
 49 59  1  0  0  0  0
 50 64  1  0  0  0  0
 51 65  1  0  0  0  0
 52 66  1  0  0  0  0
 53 66  1  0  0  0  0
 54 67  1  0  0  0  0
 55 67  1  0  0  0  0
 56 67  1  0  0  0  0
 57 79  1  0  0  0  0
 58 60  1  0  0  0  0
 59 66  1  0  0  0  0
 60 61  1  0  0  0  0
 61 62  1  0  0  0  0
 62 86  1  0  0  0  0
 63 67  1  0  0  0  0
 63 78  1  0  0  0  0
 64 79  1  0  0  0  0
 65 68  1  0  0  0  0
 68 89  1  0  0  0  0
 68 90  1  0  0  0  0
 68 91  1  0  0  0  0
 70 72  1  0  0  0  0
M  CHG  1  79   1
M  ISO  4  35 100  62 101  65 100  86 101
M  END
> <Batch ID>
0067

> <Smiles>
CCC(C)(C)c1ncc([100C:0](C)([100C:0](=O)N2CCCC(n3nc(-c4ccc(Oc5ccc(F)cc5F)cc4)c(C(N)=O)c3N)C2)C(F)(F)F)nc1CCC[101CH2:1][101O:1]c1ccc2c(c1)CN(C(=O)C(NC(=O)C(C)NC)C(C)(C)C)C(C(=O)NC1CCCc3ccccc31)C2

> <Shape>
0.253

> <Color>
0.056

> <Negative vol penalty>
0.000

$$$$

  -OEChem-04052318123D

 86 94  0     1  0  0  0  0  0999 V2000
  -24.0734   -8.6658   24.0580 C   0  0  0  0  0  0  0  0  0  0  0  0
  -24.7752   -9.5122   23.2057 C   0  0  0  0  0  0  0  0  0  0  0  0
  -22.2797  -28.3058   20.9985 C   0  0  0  0  0  0  0  0  0  0  0  0
  -23.4059  -27.4449   22.9550 C   0  0  0  0  0  0  0  0  0  0  0  0
  -22.6855   -8.7637   24.1485 C   0  0  0  0  0  0  0  0  0  0  0  0
  -24.0893  -10.4565   22.4425 C   0  0  0  0  0  0  0  0  0  0  0  0
  -26.3212  -15.0017   22.5107 C   0  0  0  0  0  0  0  0  0  0  0  0
  -21.0484  -28.1290   21.6295 C   0  0  0  0  0  0  0  0  0  0  0  0
  -22.1745  -27.2681   23.5860 C   0  0  0  0  0  0  0  0  0  0  0  0
  -27.4430  -15.1724   21.7006 C   0  0  0  0  0  0  0  0  0  0  0  0
  -19.1895  -29.7292   23.9569 C   0  0  0  0  0  0  0  0  0  0  0  0
  -18.2621  -30.7675   23.8710 C   0  0  0  0  0  0  0  0  0  0  0  0
  -26.0754  -16.2792   20.0503 C   0  0  0  0  0  0  0  0  0  0  0  0
  -30.4953  -20.3577   20.3293 C   0  0  0  0  0  0  0  0  0  0  0  0
  -28.9383  -21.2043   21.9552 C   0  0  0  0  0  0  0  0  0  0  0  0
  -16.7014  -29.2830   22.7767 C   0  0  0  0  0  0  0  0  0  0  0  0
  -23.4585  -27.9637   21.6612 C   0  0  0  0  0  0  0  0  0  0  0  0
  -25.5473  -29.2918   21.0443 C   0  0  0  0  0  0  0  0  0  0  0  0
  -21.9833   -9.7161   23.3933 C   0  0  0  0  0  0  0  0  0  0  0  0
  -25.0640  -15.4595   22.0911 C   0  0  0  0  0  0  0  0  0  0  0  0
  -22.6906  -10.5663   22.5220 C   0  0  0  0  0  0  0  0  0  0  0  0
  -24.9397  -16.1154   20.8580 C   0  0  0  0  0  0  0  0  0  0  0  0
  -29.9374  -21.4309   21.0151 C   0  0  0  0  0  0  0  0  0  0  0  0
  -20.9958  -27.6102   22.9232 C   0  0  0  0  0  0  0  0  0  0  0  0
  -27.3197  -15.8086   20.4690 C   0  0  0  0  0  0  0  0  0  0  0  0
  -18.8729  -28.4678   23.4526 C   0  0  0  0  0  0  0  0  0  0  0  0
  -17.0180  -30.5444   23.2810 C   0  0  0  0  0  0  0  0  0  0  0  0
  -17.6288  -28.2447   22.8626 C   0  0  0  0  0  0  0  0  0  0  0  0
  -24.7307  -28.1456   21.0098 C   0  0  0  0  0  0  0  0  0  0  0  0
  -30.0229  -19.0875   20.6179 C   0  0  0  0  0  0  0  0  0  0  0  0
  -28.5355  -19.8962   22.1708 C   0  0  0  0  0  0  0  0  0  0  0  0
  -26.6353  -28.9616   20.2738 C   0  0  0  0  0  0  0  0  0  0  0  0
  -25.3409  -30.5431   21.7132 C   0  0  0  0  0  0  0  0  0  0  0  0
  -22.2704  -14.0804   21.4602 C   0  0  0  0  0  0  0  0  0  0  0  0
  -21.2685  -17.1494   21.1442 C   0  0  0  0  0  0  0  0  0  0  0  0
  -22.0646  -20.4056   20.5035 C   0  0  0  0  0  0  0  0  0  0  0  0
  -29.1565  -23.7327   18.8064 C   0  0  0  0  0  0  0  0  0  0  0  0
  -20.4786   -9.7527   23.4893 C   0  0  0  0  0  0  0  0  0  0  0  0
  -23.8685  -15.2915   22.9884 C   0  0  0  0  0  0  0  0  0  0  0  0
  -23.6160  -16.6433   20.3705 C   0  0  0  0  0  0  0  0  0  0  0  0
  -19.8633  -11.0317   22.9273 C   0  0  0  0  0  0  0  0  0  0  0  0
  -27.9058  -26.2078   16.5734 C   0  0  0  0  0  0  0  0  0  0  0  0
  -20.4771  -11.3687   21.5721 C   0  0  0  0  0  0  0  0  0  0  0  0
  -27.0240  -27.0885   17.4603 C   0  0  0  0  0  0  0  0  0  0  0  0
  -27.8222  -24.7374   16.9770 C   0  0  0  0  0  0  0  0  0  0  0  0
  -27.2198  -25.3497   19.2869 C   0  0  0  0  0  0  0  0  0  0  0  0
  -21.9847  -11.6201   21.6966 C   0  0  1  0  0  0  0  0  0  0  0  0
  -22.5436  -15.3393   22.2338 C   0  0  1  0  0  0  0  0  0  0  0  0
  -27.3140  -26.8486   18.9541 C   0  0  2  0  0  0  0  0  0  0  0  0
  -30.9996  -23.5019   21.9867 C   0  0  0  0  0  0  0  0  0  0  0  0
  -21.0271  -22.6794   20.2776 C   0  0  0  0  0  0  0  0  0  0  0  0
  -20.1974  -16.3846   18.3915 C   0  0  0  0  0  0  0  0  0  0  0  0
  -20.0491  -18.8241   17.8483 C   0  0  0  0  0  0  0  0  0  0  0  0
  -18.6938  -17.8796   19.7174 C   0  0  0  0  0  0  0  0  0  0  0  0
  -23.6618  -21.4850   22.7491 C   0  0  0  0  0  0  0  0  0  0  0  0
  -30.6056  -17.8994   19.8950 C   0  0  0  0  0  0  0  0  0  0  0  0
  -29.8723  -17.5466   18.5991 C   0  0  0  0  0  0  0  0  0  0  0  0
  -28.4263  -17.1184   18.8210 C   0  0  0  0  0  0  0  0  0  1  0  0
  -30.4094  -22.8192   20.7442 C   0  0  2  0  0  0  0  0  0  0  0  0
  -21.1923  -18.1373   20.0052 C   0  0  1  0  0  0  0  0  0  0  0  0
  -21.6972  -21.6922   21.2206 C   0  0  2  0  0  0  0  0  0  0  0  0
  -27.4642  -19.6166   23.1713 C   0  0  0  0  0  0  0  0  0  0  0  0
  -20.0579  -17.7948   18.9986 C   0  0  0  0  0  0  0  0  0  0  0  0
  -25.2550  -27.1609   20.2753 N   0  0  0  0  0  0  0  0  0  0  0  0
  -29.0540  -18.8282   21.5242 N   0  0  0  0  0  0  0  0  0  0  0  0
  -26.4128  -27.6875   19.8411 N   0  0  0  0  0  0  0  0  0  0  0  0
  -22.4755  -16.4492   21.2810 N   0  0  0  0  0  0  0  0  0  0  0  0
  -28.1093  -24.5783   18.4046 N   0  0  0  0  0  0  0  0  0  0  0  0
  -27.7510  -29.6398   19.9308 N   0  0  0  0  0  0  0  0  0  0  0  0
  -24.1689  -30.7148   22.4624 N   0  0  0  0  0  0  0  0  0  0  0  0
  -22.2342  -12.9388   22.2379 N   0  0  0  0  0  0  0  0  0  0  0  0
  -21.0708  -19.4564   20.6164 N   0  0  0  0  0  0  0  0  0  0  0  0
  -29.3655  -23.6437   20.1772 N   0  0  0  0  0  0  0  0  0  0  0  0
  -22.9164  -22.3361   21.7863 N   0  3  0  0  0  0  0  0  0  0  0  0
  -26.1633  -31.4870   21.6349 O   0  0  0  0  0  0  0  0  0  0  0  0
  -22.1034  -14.1406   20.2477 O   0  0  0  0  0  0  0  0  0  0  0  0
  -20.2956  -17.0096   21.8895 O   0  0  0  0  0  0  0  0  0  0  0  0
  -23.1252  -20.2587   19.9002 O   0  0  0  0  0  0  0  0  0  0  0  0
  -29.8570  -23.1079   18.0027 O   0  0  0  0  0  0  0  0  0  0  0  0
  -19.7944  -27.4377   23.5393 O   0  0  0  0  0  0  0  0  0  0  0  0
  -28.4129  -15.9760   19.6760 O   0  0  0  0  0  0  0  0  0  1  0  0
  -16.1269  -31.5412   23.2000 F   0  0  0  0  0  0  0  0  0  0  0  0
  -17.3185  -27.0347   22.3774 F   0  0  0  0  0  0  0  0  0  0  0  0
  -26.9841  -20.7376   23.7860 F   0  0  0  0  0  0  0  0  0  0  0  0
  -26.3662  -19.0039   22.6386 F   0  0  0  0  0  0  0  0  0  0  0  0
  -27.8879  -18.7991   24.1785 F   0  0  0  0  0  0  0  0  0  0  0  0
  1  2  1  0  0  0  0
  1  5  2  0  0  0  0
  2  6  2  0  0  0  0
  3  8  2  0  0  0  0
  3 17  1  0  0  0  0
  4  9  1  0  0  0  0
  4 17  2  0  0  0  0
  5 19  1  0  0  0  0
  6 21  1  0  0  0  0
  7 10  2  0  0  0  0
  7 20  1  0  0  0  0
  8 24  1  0  0  0  0
  9 24  2  0  0  0  0
 10 25  1  0  0  0  0
 11 12  2  0  0  0  0
 11 26  1  0  0  0  0
 12 27  1  0  0  0  0
 13 22  1  0  0  0  0
 13 25  2  0  0  0  0
 14 23  2  0  0  0  0
 14 30  1  0  0  0  0
 15 23  1  0  0  0  0
 15 31  2  0  0  0  0
 16 27  2  0  0  0  0
 16 28  1  0  0  0  0
 17 29  1  0  0  0  0
 18 29  1  0  0  0  0
 18 32  2  0  0  0  0
 18 33  1  0  0  0  0
 19 21  2  0  0  0  0
 19 38  1  0  0  0  0
 20 22  2  0  0  0  0
 20 39  1  0  0  0  0
 21 47  1  0  0  0  0
 22 40  1  0  0  0  0
 23 59  1  0  0  0  0
 24 80  1  0  0  0  0
 25 81  1  0  0  0  0
 26 28  2  0  0  0  0
 26 80  1  0  0  0  0
 27 82  1  0  0  0  0
 28 83  1  0  0  0  0
 29 64  2  0  0  0  0
 30 56  1  0  0  0  0
 30 65  2  0  0  0  0
 31 62  1  0  0  0  0
 31 65  1  0  0  0  0
 32 66  1  0  0  0  0
 32 69  1  0  0  0  0
 33 70  1  0  0  0  0
 33 75  2  0  0  0  0
 34 48  1  0  0  0  0
 34 71  1  0  0  0  0
 34 76  2  0  0  0  0
 35 60  1  0  0  0  0
 35 67  1  0  0  0  0
 35 77  2  0  0  0  0
 36 61  1  0  0  0  0
 36 72  1  0  0  0  0
 36 78  2  0  0  0  0
 37 68  1  0  0  0  0
 37 73  1  0  0  0  0
 37 79  2  0  0  0  0
 38 41  1  0  0  0  0
 39 48  1  0  0  0  0
 40 67  1  0  0  0  0
 41 43  1  0  0  0  0
 42 44  1  0  0  0  0
 42 45  1  0  0  0  0
 43 47  1  0  0  0  0
 44 49  1  0  0  0  0
 45 68  1  0  0  0  0
 46 49  1  0  0  0  0
 46 68  1  0  0  0  0
 47 71  1  0  0  0  0
 48 67  1  0  0  0  0
 49 66  1  0  0  0  0
 50 59  1  0  0  0  0
 51 61  1  0  0  0  0
 52 63  1  0  0  0  0
 53 63  1  0  0  0  0
 54 63  1  0  0  0  0
 55 74  1  0  0  0  0
 56 57  1  0  0  0  0
 57 58  1  0  0  0  0
 58 81  1  0  0  0  0
 59 73  1  0  0  0  0
 60 63  1  0  0  0  0
 60 72  1  0  0  0  0
 61 74  1  0  0  0  0
 62 84  1  0  0  0  0
 62 85  1  0  0  0  0
 62 86  1  0  0  0  0
 64 66  1  0  0  0  0
M  CHG  1  74   1
M  ISO  4  37 100  58 101  73 100  81 101
M  END
> <Batch ID>
0067

> <Smiles>
CNC(C)C(=O)NC(C(=O)N1Cc2cc([101O:1][101CH2:1]CCc3cc(C(C)[100NH:0][100C:0](=O)N4CCCC(n5nc(-c6ccc(Oc7ccc(F)cc7F)cc6)c(C(N)=O)c5N)C4)cc(C(F)(F)F)n3)ccc2CC1C(=O)NC1CCCc2ccccc21)C(C)(C)C

> <Shape>
0.238

> <Color>
0.069

> <Negative vol penalty>
0.000

$$$$

  -OEChem-04052318123D

 92100  0     1  0  0  0  0  0999 V2000
  -23.7164   -8.1452   22.0712 C   0  0  0  0  0  0  0  0  0  0  0  0
  -24.4142   -8.9904   21.2144 C   0  0  0  0  0  0  0  0  0  0  0  0
  -24.2303  -30.1290   20.9620 C   0  0  0  0  0  0  0  0  0  0  0  0
  -24.1411  -27.9968   22.0945 C   0  0  0  0  0  0  0  0  0  0  0  0
  -22.4664   -8.5252   22.5582 C   0  0  0  0  0  0  0  0  0  0  0  0
  -23.8618  -10.2158   20.8432 C   0  0  0  0  0  0  0  0  0  0  0  0
  -26.8728  -15.4448   19.7952 C   0  0  0  0  0  0  0  0  0  0  0  0
  -22.8729  -30.0248   20.6587 C   0  0  0  0  0  0  0  0  0  0  0  0
  -22.7836  -27.8925   21.7912 C   0  0  0  0  0  0  0  0  0  0  0  0
  -27.2987  -16.0626   18.6202 C   0  0  0  0  0  0  0  0  0  0  0  0
  -19.8689  -29.1406   22.9605 C   0  0  0  0  0  0  0  0  0  0  0  0
  -19.0089  -28.7276   23.9781 C   0  0  0  0  0  0  0  0  0  0  0  0
  -25.3060  -17.4221   18.6197 C   0  0  0  0  0  0  0  0  0  0  0  0
  -18.3513  -26.8207   22.6483 C   0  0  0  0  0  0  0  0  0  0  0  0
  -24.8645  -29.1150   21.6798 C   0  0  0  0  0  0  0  0  0  0  0  0
  -26.8400  -29.8060   23.1384 C   0  0  0  0  0  0  0  0  0  0  0  0
  -21.9028   -9.7601   22.2004 C   0  0  0  0  0  0  0  0  0  0  0  0
  -25.6530  -15.8039   20.3864 C   0  0  0  0  0  0  0  0  0  0  0  0
  -22.6026  -10.6122   21.3248 C   0  0  0  0  0  0  0  0  0  0  0  0
  -24.8681  -16.8091   19.8036 C   0  0  0  0  0  0  0  0  0  0  0  0
  -22.1495  -28.9066   21.0733 C   0  0  0  0  0  0  0  0  0  0  0  0
  -26.5140  -17.0494   18.0307 C   0  0  0  0  0  0  0  0  0  0  0  0
  -19.9700  -28.3937   21.7868 C   0  0  0  0  0  0  0  0  0  0  0  0
  -18.2501  -27.5676   23.8220 C   0  0  0  0  0  0  0  0  0  0  0  0
  -19.2112  -27.2337   21.6307 C   0  0  0  0  0  0  0  0  0  0  0  0
  -26.2669  -29.2218   21.9929 C   0  0  0  0  0  0  0  0  0  0  0  0
  -29.0311  -21.8516   17.8308 C   0  0  0  0  0  0  0  0  0  0  0  0
  -29.0127  -20.4811   17.7865 C   0  0  0  0  0  0  0  0  0  0  0  0
  -28.1935  -29.6539   22.9606 C   0  0  0  0  0  0  0  0  0  0  0  0
  -29.1116  -21.7458   20.0852 C   0  0  0  0  0  0  0  0  0  0  0  0
  -26.2058  -30.4301   24.2626 C   0  0  0  0  0  0  0  0  0  0  0  0
  -22.9395  -14.2802   21.0339 C   0  0  0  0  0  0  0  0  0  0  0  0
  -22.1848  -17.0646   22.5172 C   0  0  0  0  0  0  0  0  0  0  0  0
  -22.6870  -20.4289   22.7934 C   0  0  0  0  0  0  0  0  0  0  0  0
  -31.4814  -25.7543   19.8248 C   0  0  0  0  0  0  0  0  0  0  0  0
  -20.5280  -10.1068   22.7145 C   0  0  0  0  0  0  0  0  0  0  0  0
  -25.2204  -15.1468   21.6684 C   0  0  0  0  0  0  0  0  0  0  0  0
  -23.5600  -17.2453   20.4097 C   0  0  0  0  0  0  0  0  0  0  0  0
  -20.1790  -11.5859   22.5709 C   0  0  0  0  0  0  0  0  0  0  0  0
  -31.5024  -29.3019   19.5229 C   0  0  0  0  0  0  0  0  0  0  0  0
  -20.5413  -12.0869   21.1764 C   0  0  0  0  0  0  0  0  0  0  0  0
  -30.2147  -29.7363   20.2250 C   0  0  0  0  0  0  0  0  0  0  0  0
  -31.3172  -27.9881   18.7667 C   0  0  0  0  0  0  0  0  0  0  0  0
  -29.4910  -27.3130   20.2777 C   0  0  0  0  0  0  0  0  0  0  0  0
  -22.0477  -11.9603   20.9188 C   0  0  1  0  0  0  0  0  0  0  0  0
  -23.7153  -15.2287   21.9035 C   0  0  1  0  0  0  0  0  0  0  0  0
  -29.6436  -28.6042   21.0999 C   0  0  2  0  0  0  0  0  0  0  0  0
  -29.3414  -24.1352   16.8433 C   0  0  0  0  0  0  0  0  0  0  0  0
  -22.4735  -22.7455   23.7340 C   0  0  0  0  0  0  0  0  0  0  0  0
  -28.4405  -23.8452   21.3355 C   0  0  0  0  0  0  0  0  0  0  0  0
  -19.6284  -17.1135   20.8520 C   0  0  0  0  0  0  0  0  0  0  0  0
  -19.3721  -19.5326   21.4438 C   0  0  0  0  0  0  0  0  0  0  0  0
  -19.3323  -17.8005   23.2384 C   0  0  0  0  0  0  0  0  0  0  0  0
  -31.4855  -21.3310   22.1651 C   0  0  0  0  0  0  0  0  0  0  0  0
  -30.6999  -23.3715   23.3430 C   0  0  0  0  0  0  0  0  0  0  0  0
  -24.9319  -19.9978   24.6732 C   0  0  0  0  0  0  0  0  0  0  0  0
  -28.9960  -22.6703   16.5860 C   0  0  0  0  0  0  0  0  0  0  0  0
  -28.9563  -19.7221   16.4848 C   0  0  0  0  0  0  0  0  0  0  0  0
  -27.5704  -19.7140   15.8361 C   0  0  0  0  0  0  0  0  0  0  0  0
  -31.5114  -23.5528   20.9700 C   0  0  0  0  0  0  0  0  0  0  0  0
  -26.5149  -19.0038   16.6757 C   0  0  0  0  0  0  0  0  0  1  0  0
  -21.5198  -18.3533   22.0976 C   0  0  1  0  0  0  0  0  0  0  0  0
  -22.9196  -21.3167   24.0026 C   0  0  2  0  0  0  0  0  0  0  0  0
  -29.1680  -22.4358   21.4043 C   0  0  2  0  0  0  0  0  0  0  0  0
  -19.9868  -18.1906   21.8952 C   0  0  0  0  0  0  0  0  0  0  0  0
  -30.7043  -22.6562   21.9645 C   0  0  0  0  0  0  0  0  0  0  0  0
  -28.3000  -21.7077   22.5202 C   0  0  0  0  0  0  0  0  0  0  0  0
  -27.1813  -28.7351   21.1498 N   0  0  0  0  0  0  0  0  0  0  0  0
  -29.0815  -22.5221   18.9918 N   0  0  0  0  0  0  0  0  0  0  0  0
  -29.0447  -19.7542   18.9181 N   0  0  0  0  0  0  0  0  0  0  0  0
  -29.0954  -20.3984   20.1026 N   0  0  0  0  0  0  0  0  0  0  0  0
  -28.3429  -29.0132   21.7659 N   0  0  0  0  0  0  0  0  0  0  0  0
  -23.1772  -16.5686   21.6599 N   0  0  0  0  0  0  0  0  0  0  0  0
  -30.7745  -26.9559   19.6532 N   0  0  0  0  0  0  0  0  0  0  0  0
  -29.2584  -30.0072   23.7112 N   0  0  0  0  0  0  0  0  0  0  0  0
  -24.8063  -30.5017   24.2854 N   0  0  0  0  0  0  0  0  0  0  0  0
  -22.7658  -13.0253   21.5856 N   0  0  0  0  0  0  0  0  0  0  0  0
  -21.8880  -19.3477   23.0997 N   0  0  0  0  0  0  0  0  0  0  0  0
  -30.9004  -24.8324   20.6869 N   0  0  0  0  0  0  0  0  0  0  0  0
  -24.3660  -21.3354   24.3610 N   0  3  0  0  0  0  0  0  0  0  0  0
  -26.8613  -30.9248   25.2108 O   0  0  0  0  0  0  0  0  0  0  0  0
  -22.5277  -14.6594   19.9438 O   0  0  0  0  0  0  0  0  0  0  0  0
  -21.8415  -16.5219   23.5704 O   0  0  0  0  0  0  0  0  0  0  0  0
  -23.1633  -20.6723   21.6868 O   0  0  0  0  0  0  0  0  0  0  0  0
  -32.5538  -25.5226   19.2562 O   0  0  0  0  0  0  0  0  0  0  0  0
  -20.8248  -28.8046   20.7778 O   0  0  0  0  0  0  0  0  0  0  0  0
  -26.9271  -17.6535   16.8834 O   0  0  0  0  0  0  0  0  0  1  0  0
  -17.4255  -27.1703   24.7999 F   0  0  0  0  0  0  0  0  0  0  0  0
  -19.3050  -26.5114   20.5059 F   0  0  0  0  0  0  0  0  0  0  0  0
  -28.6979  -20.4406   22.7501 F   0  0  0  0  0  0  0  0  0  0  0  0
  -28.3034  -22.3363   23.7206 F   0  0  0  0  0  0  0  0  0  0  0  0
  -27.0036  -21.6585   22.1251 F   0  0  0  0  0  0  0  0  0  0  0  0
  1  2  1  0  0  0  0
  1  5  2  0  0  0  0
  2  6  2  0  0  0  0
  3  8  2  0  0  0  0
  3 15  1  0  0  0  0
  4  9  1  0  0  0  0
  4 15  2  0  0  0  0
  5 17  1  0  0  0  0
  6 19  1  0  0  0  0
  7 10  2  0  0  0  0
  7 18  1  0  0  0  0
  8 21  1  0  0  0  0
  9 21  2  0  0  0  0
 10 22  1  0  0  0  0
 11 12  2  0  0  0  0
 11 23  1  0  0  0  0
 12 24  1  0  0  0  0
 13 20  1  0  0  0  0
 13 22  2  0  0  0  0
 14 24  2  0  0  0  0
 14 25  1  0  0  0  0
 15 26  1  0  0  0  0
 16 26  1  0  0  0  0
 16 29  2  0  0  0  0
 16 31  1  0  0  0  0
 17 19  2  0  0  0  0
 17 36  1  0  0  0  0
 18 20  2  0  0  0  0
 18 37  1  0  0  0  0
 19 45  1  0  0  0  0
 20 38  1  0  0  0  0
 21 86  1  0  0  0  0
 22 87  1  0  0  0  0
 23 25  2  0  0  0  0
 23 86  1  0  0  0  0
 24 88  1  0  0  0  0
 25 89  1  0  0  0  0
 26 68  2  0  0  0  0
 27 28  2  0  0  0  0
 27 57  1  0  0  0  0
 27 69  1  0  0  0  0
 28 58  1  0  0  0  0
 28 70  1  0  0  0  0
 29 72  1  0  0  0  0
 29 75  1  0  0  0  0
 30 64  1  0  0  0  0
 30 69  2  0  0  0  0
 30 71  1  0  0  0  0
 31 76  1  0  0  0  0
 31 81  2  0  0  0  0
 32 46  1  0  0  0  0
 32 77  1  0  0  0  0
 32 82  2  0  0  0  0
 33 62  1  0  0  0  0
 33 73  1  0  0  0  0
 33 83  2  0  0  0  0
 34 63  1  0  0  0  0
 34 78  1  0  0  0  0
 34 84  2  0  0  0  0
 35 74  1  0  0  0  0
 35 79  1  0  0  0  0
 35 85  2  0  0  0  0
 36 39  1  0  0  0  0
 37 46  1  0  0  0  0
 38 73  1  0  0  0  0
 39 41  1  0  0  0  0
 40 42  1  0  0  0  0
 40 43  1  0  0  0  0
 41 45  1  0  0  0  0
 42 47  1  0  0  0  0
 43 74  1  0  0  0  0
 44 47  1  0  0  0  0
 44 74  1  0  0  0  0
 45 77  1  0  0  0  0
 46 73  1  0  0  0  0
 47 72  1  0  0  0  0
 48 57  1  0  0  0  0
 49 63  1  0  0  0  0
 50 64  1  0  0  0  0
 51 65  1  0  0  0  0
 52 65  1  0  0  0  0
 53 65  1  0  0  0  0
 54 66  1  0  0  0  0
 55 66  1  0  0  0  0
 56 80  1  0  0  0  0
 58 59  1  0  0  0  0
 59 61  1  0  0  0  0
 60 66  1  0  0  0  0
 60 79  1  0  0  0  0
 61 87  1  0  0  0  0
 62 65  1  0  0  0  0
 62 78  1  0  0  0  0
 63 80  1  0  0  0  0
 64 66  1  0  0  0  0
 64 67  1  0  0  0  0
 67 90  1  0  0  0  0
 67 91  1  0  0  0  0
 67 92  1  0  0  0  0
 68 72  1  0  0  0  0
 70 71  2  0  0  0  0
M  CHG  1  80   1
M  ISO  4  35 100  61 101  79 100  87 101
M  END
> <Batch ID>
0067

> <Smiles>
CCc1nc(C(C)(C(F)(F)F)C(C)(C)C[100NH:0][100C:0](=O)N2CCCC(n3nc(-c4ccc(Oc5ccc(F)cc5F)cc4)c(C(N)=O)c3N)C2)nnc1CC[101CH2:1][101O:1]c1ccc2c(c1)CN(C(=O)C(NC(=O)C(C)NC)C(C)(C)C)C(C(=O)NC1CCCc3ccccc31)C2

> <Shape>
0.252

> <Color>
0.083

> <Negative vol penalty>
0.000

$$$$

  -OEChem-04052318123D

 86 94  0     1  0  0  0  0  0999 V2000
  -17.6194  -25.9774   23.3448 C   0  0  0  0  0  0  0  0  0  0  0  0
  -18.9135  -25.5066   23.1471 C   0  0  0  0  0  0  0  0  0  0  0  0
  -22.4757  -15.2775   18.2532 C   0  0  0  0  0  0  0  0  0  0  0  0
  -21.9915  -14.1153   20.3152 C   0  0  0  0  0  0  0  0  0  0  0  0
  -17.2892  -27.2809   22.9763 C   0  0  0  0  0  0  0  0  0  0  0  0
  -19.8779  -26.3388   22.5798 C   0  0  0  0  0  0  0  0  0  0  0  0
  -25.8587  -26.4705   23.8910 C   0  0  0  0  0  0  0  0  0  0  0  0
  -21.3578  -14.6911   17.6601 C   0  0  0  0  0  0  0  0  0  0  0  0
  -20.8735  -13.5289   19.7221 C   0  0  0  0  0  0  0  0  0  0  0  0
  -26.9691  -25.9072   23.2638 C   0  0  0  0  0  0  0  0  0  0  0  0
  -17.7047  -14.4214   18.9589 C   0  0  0  0  0  0  0  0  0  0  0  0
  -16.5187  -14.4023   19.6928 C   0  0  0  0  0  0  0  0  0  0  0  0
  -27.3625  -27.9868   22.1063 C   0  0  0  0  0  0  0  0  0  0  0  0
  -16.4986  -11.9882   19.5974 C   0  0  0  0  0  0  0  0  0  0  0  0
  -22.7927  -14.9896   19.5808 C   0  0  0  0  0  0  0  0  0  0  0  0
  -23.9975  -16.8151   20.8937 C   0  0  0  0  0  0  0  0  0  0  0  0
  -18.2525  -28.1326   22.4132 C   0  0  0  0  0  0  0  0  0  0  0  0
  -25.4848  -27.7950   23.6219 C   0  0  0  0  0  0  0  0  0  0  0  0
  -19.5599  -27.6545   22.2023 C   0  0  0  0  0  0  0  0  0  0  0  0
  -26.2485  -28.5653   22.7334 C   0  0  0  0  0  0  0  0  0  0  0  0
  -20.5566  -13.8168   18.3945 C   0  0  0  0  0  0  0  0  0  0  0  0
  -27.7195  -26.6644   22.3690 C   0  0  0  0  0  0  0  0  0  0  0  0
  -18.2876  -13.2239   18.5441 C   0  0  0  0  0  0  0  0  0  0  0  0
  -15.9157  -13.1857   20.0121 C   0  0  0  0  0  0  0  0  0  0  0  0
  -17.6846  -12.0074   18.8634 C   0  0  0  0  0  0  0  0  0  0  0  0
  -23.9478  -15.5946   20.1938 C   0  0  0  0  0  0  0  0  0  0  0  0
  -30.7341  -20.2752   20.4402 C   0  0  0  0  0  0  0  0  0  0  0  0
  -31.6885  -21.2675   20.4838 C   0  0  0  0  0  0  0  0  0  0  0  0
  -29.0918  -21.8607   20.3043 C   0  0  0  0  0  0  0  0  0  0  0  0
  -30.0461  -22.8531   20.3486 C   0  0  0  0  0  0  0  0  0  0  0  0
  -25.3115  -16.9398   21.2735 C   0  0  0  0  0  0  0  0  0  0  0  0
  -31.0804  -18.8436   20.4875 C   0  0  0  0  0  0  0  0  0  0  0  0
  -22.9495  -17.7522   21.1753 C   0  0  0  0  0  0  0  0  0  0  0  0
  -22.9155  -29.1915   22.3760 C   0  0  0  0  0  0  0  0  0  0  0  0
  -24.4645  -31.9129   23.2228 C   0  0  0  0  0  0  0  0  0  0  0  0
  -27.4216  -33.4638   23.9278 C   0  0  0  0  0  0  0  0  0  0  0  0
  -30.7353  -16.6232   19.9950 C   0  0  0  0  0  0  0  0  0  0  0  0
  -17.8362  -29.5182   21.9872 C   0  0  0  0  0  0  0  0  0  0  0  0
  -24.3001  -28.3962   24.3271 C   0  0  0  0  0  0  0  0  0  0  0  0
  -25.9010  -29.9982   22.4256 C   0  0  0  0  0  0  0  0  0  0  0  0
  -19.0130  -30.4580   21.7375 C   0  0  0  0  0  0  0  0  0  0  0  0
  -29.1152  -13.6183   21.1572 C   0  0  0  0  0  0  0  0  0  0  0  0
  -20.0782  -29.7667   20.8925 C   0  0  0  0  0  0  0  0  0  0  0  0
  -27.6293  -13.9551   21.0333 C   0  0  0  0  0  0  0  0  0  0  0  0
  -29.9304  -14.2624   20.0399 C   0  0  0  0  0  0  0  0  0  0  0  0
  -28.2628  -16.0837   19.8137 C   0  0  0  0  0  0  0  0  0  0  0  0
  -20.6402  -28.5350   21.6126 C   0  0  1  0  0  0  0  0  0  0  0  0
  -23.7085  -29.5924   23.5877 C   0  0  1  0  0  0  0  0  0  0  0  0
  -27.4128  -15.4762   20.9427 C   0  0  1  0  0  0  0  0  0  0  0  0
  -27.6400  -22.1827   20.2042 C   0  0  0  0  0  0  0  0  0  0  0  0
  -33.7764  -21.4891   21.8785 C   0  0  0  0  0  0  0  0  0  0  0  0
  -33.9397  -21.4423   19.3633 C   0  0  0  0  0  0  0  0  0  0  0  0
  -28.3736  -35.7011   24.5487 C   0  0  0  0  0  0  0  0  0  0  0  0
  -28.8979  -24.7417   19.0092 C   0  0  0  0  0  0  0  0  0  0  0  0
  -30.9438  -25.2013   20.3437 C   0  0  0  0  0  0  0  0  0  0  0  0
  -24.1231  -32.8553   20.3409 C   0  0  0  0  0  0  0  0  0  0  0  0
  -25.8719  -34.5935   20.7757 C   0  0  0  0  0  0  0  0  0  0  0  0
  -23.7388  -34.6221   22.0687 C   0  0  0  0  0  0  0  0  0  0  0  0
  -28.4853  -32.4300   26.4888 C   0  0  0  0  0  0  0  0  0  0  0  0
  -28.7722  -24.7106   21.5145 C   0  0  0  0  0  0  0  0  0  1  0  0
  -33.1409  -20.9468   20.5840 C   0  0  0  0  0  0  0  0  0  0  0  0
  -25.4569  -32.8312   22.5514 C   0  0  1  0  0  0  0  0  0  0  0  0
  -27.8329  -34.3778   25.0678 C   0  0  2  0  0  0  0  0  0  0  0  0
  -29.6587  -24.3429   20.2966 C   0  0  0  0  0  0  0  0  0  0  0  0
  -24.8034  -33.6980   21.4383 C   0  0  0  0  0  0  0  0  0  0  0  0
  -25.1358  -14.9874   20.1311 N   0  0  0  0  0  0  0  0  0  0  0  0
  -29.4186  -20.5540   20.3496 N   0  0  0  0  0  0  0  0  0  0  0  0
  -31.3616  -22.5743   20.4389 N   0  0  0  0  0  0  0  0  0  0  0  0
  -30.3504  -17.9475   19.9082 N   0  0  0  0  0  0  0  0  0  0  0  0
  -25.9444  -15.8299   20.7964 N   0  0  0  0  0  0  0  0  0  0  0  0
  -24.7301  -30.5390   23.1355 N   0  0  0  0  0  0  0  0  0  0  0  0
  -29.6731  -15.7011   19.9633 N   0  0  0  0  0  0  0  0  0  0  0  0
  -25.9757  -17.8896   21.9657 N   0  0  0  0  0  0  0  0  0  0  0  0
  -21.6576  -17.4691   20.7115 N   0  0  0  0  0  0  0  0  0  0  0  0
  -21.5829  -28.9340   22.6356 N   0  0  0  0  0  0  0  0  0  0  0  0
  -26.0852  -33.6031   23.6181 N   0  0  0  0  0  0  0  0  0  0  0  0
  -28.8899  -33.7304   25.8953 N   0  3  0  0  0  0  0  0  0  0  0  0
  -23.1561  -18.8173   21.8050 O   0  0  0  0  0  0  0  0  0  0  0  0
  -23.4712  -29.1224   21.2860 O   0  0  0  0  0  0  0  0  0  0  0  0
  -23.4934  -32.3971   23.8094 O   0  0  0  0  0  0  0  0  0  0  0  0
  -28.2081  -32.7050   23.3654 O   0  0  0  0  0  0  0  0  0  0  0  0
  -31.9081  -16.2529   20.0877 O   0  0  0  0  0  0  0  0  0  0  0  0
  -19.4655  -13.2445   17.8162 O   0  0  0  0  0  0  0  0  0  0  0  0
  -28.8034  -26.1169   21.7549 O   0  0  0  0  0  0  0  0  0  1  0  0
  -14.7776  -13.1675   20.7183 F   0  0  0  0  0  0  0  0  0  0  0  0
  -18.2405  -10.8537   18.4688 F   0  0  0  0  0  0  0  0  0  0  0  0
  1  2  1  0  0  0  0
  1  5  2  0  0  0  0
  2  6  2  0  0  0  0
  3  8  2  0  0  0  0
  3 15  1  0  0  0  0
  4  9  1  0  0  0  0
  4 15  2  0  0  0  0
  5 17  1  0  0  0  0
  6 19  1  0  0  0  0
  7 10  2  0  0  0  0
  7 18  1  0  0  0  0
  8 21  1  0  0  0  0
  9 21  2  0  0  0  0
 10 22  1  0  0  0  0
 11 12  2  0  0  0  0
 11 23  1  0  0  0  0
 12 24  1  0  0  0  0
 13 20  1  0  0  0  0
 13 22  2  0  0  0  0
 14 24  2  0  0  0  0
 14 25  1  0  0  0  0
 15 26  1  0  0  0  0
 16 26  1  0  0  0  0
 16 31  2  0  0  0  0
 16 33  1  0  0  0  0
 17 19  2  0  0  0  0
 17 38  1  0  0  0  0
 18 20  2  0  0  0  0
 18 39  1  0  0  0  0
 19 47  1  0  0  0  0
 20 40  1  0  0  0  0
 21 83  1  0  0  0  0
 22 84  1  0  0  0  0
 23 25  2  0  0  0  0
 23 83  1  0  0  0  0
 24 85  1  0  0  0  0
 25 86  1  0  0  0  0
 26 66  2  0  0  0  0
 27 28  2  0  0  0  0
 27 32  1  0  0  0  0
 27 67  1  0  0  0  0
 28 61  1  0  0  0  0
 28 68  1  0  0  0  0
 29 30  1  0  0  0  0
 29 50  1  0  0  0  0
 29 67  2  0  0  0  0
 30 64  1  0  0  0  0
 30 68  2  0  0  0  0
 31 70  1  0  0  0  0
 31 73  1  0  0  0  0
 32 69  2  0  0  0  0
 33 74  1  0  0  0  0
 33 78  2  0  0  0  0
 34 48  1  0  0  0  0
 34 75  1  0  0  0  0
 34 79  2  0  0  0  0
 35 62  1  0  0  0  0
 35 71  1  0  0  0  0
 35 80  2  0  0  0  0
 36 63  1  0  0  0  0
 36 76  1  0  0  0  0
 36 81  2  0  0  0  0
 37 69  1  0  0  0  0
 37 72  1  0  0  0  0
 37 82  2  0  0  0  0
 38 41  1  0  0  0  0
 39 48  1  0  0  0  0
 40 71  1  0  0  0  0
 41 43  1  0  0  0  0
 42 44  1  0  0  0  0
 42 45  1  0  0  0  0
 43 47  1  0  0  0  0
 44 49  1  0  0  0  0
 45 72  1  0  0  0  0
 46 49  1  0  0  0  0
 46 72  1  0  0  0  0
 47 75  1  0  0  0  0
 48 71  1  0  0  0  0
 49 70  1  0  0  0  0
 51 61  1  0  0  0  0
 52 61  1  0  0  0  0
 53 63  1  0  0  0  0
 54 64  1  0  0  0  0
 55 64  1  0  0  0  0
 56 65  1  0  0  0  0
 57 65  1  0  0  0  0
 58 65  1  0  0  0  0
 59 77  1  0  0  0  0
 60 64  1  0  0  0  0
 60 84  1  0  0  0  0
 62 65  1  0  0  0  0
 62 76  1  0  0  0  0
 63 77  1  0  0  0  0
 66 70  1  0  0  0  0
M  CHG  1  77   1
M  ISO  4  37 100  60 101  69 100  84 101
M  END
> <Batch ID>
0067

> <Smiles>
C=C(C)c1nc(C(C)(C)[101CH2:1][101O:1]c2ccc3c(c2)CN(C(=O)C(NC(=O)C(C)NC)C(C)(C)C)C(C(=O)NC2CCCc4ccccc42)C3)c(C)nc1C[100NH:0][100C:0](=O)N1CCCC(n2nc(-c3ccc(Oc4ccc(F)cc4F)cc3)c(C(N)=O)c2N)C1

> <Shape>
0.225

> <Color>
0.098

> <Negative vol penalty>
0.000

$$$$

  -OEChem-04052318123D

 87 95  0     1  0  0  0  0  0999 V2000
  -28.7682  -33.8700   17.8046 C   0  0  0  0  0  0  0  0  0  0  0  0
  -28.6217  -32.5250   17.4807 C   0  0  0  0  0  0  0  0  0  0  0  0
  -25.5798  -13.4585   22.1737 C   0  0  0  0  0  0  0  0  0  0  0  0
  -26.4634  -13.7655   19.9462 C   0  0  0  0  0  0  0  0  0  0  0  0
  -28.6236  -34.2872   19.1271 C   0  0  0  0  0  0  0  0  0  0  0  0
  -28.3317  -31.5961   18.4795 C   0  0  0  0  0  0  0  0  0  0  0  0
  -24.7040  -28.3392   17.1092 C   0  0  0  0  0  0  0  0  0  0  0  0
  -24.5621  -12.6553   21.6593 C   0  0  0  0  0  0  0  0  0  0  0  0
  -25.4457  -12.9623   19.4317 C   0  0  0  0  0  0  0  0  0  0  0  0
  -25.0714  -27.2982   16.2577 C   0  0  0  0  0  0  0  0  0  0  0  0
  -24.2039   -9.4670   20.5919 C   0  0  0  0  0  0  0  0  0  0  0  0
  -23.9176   -8.2764   21.2598 C   0  0  0  0  0  0  0  0  0  0  0  0
  -25.1869  -25.8021   18.1465 C   0  0  0  0  0  0  0  0  0  0  0  0
  -21.6564   -9.0358   21.6440 C   0  0  0  0  0  0  0  0  0  0  0  0
  -30.4833  -23.0792   17.1978 C   0  0  0  0  0  0  0  0  0  0  0  0
  -26.5305  -14.0137   21.3171 C   0  0  0  0  0  0  0  0  0  0  0  0
  -28.8506  -14.4278   22.2936 C   0  0  0  0  0  0  0  0  0  0  0  0
  -28.3221  -33.3643   20.1410 C   0  0  0  0  0  0  0  0  0  0  0  0
  -24.5857  -28.1217   18.4895 C   0  0  0  0  0  0  0  0  0  0  0  0
  -28.1842  -32.0011   19.8170 C   0  0  0  0  0  0  0  0  0  0  0  0
  -24.8153  -26.8414   19.0130 C   0  0  0  0  0  0  0  0  0  0  0  0
  -24.4950  -12.4072   20.2884 C   0  0  0  0  0  0  0  0  0  0  0  0
  -25.3158  -26.0301   16.7767 C   0  0  0  0  0  0  0  0  0  0  0  0
  -23.2165  -10.4421   20.4501 C   0  0  0  0  0  0  0  0  0  0  0  0
  -22.6438   -8.0608   21.7858 C   0  0  0  0  0  0  0  0  0  0  0  0
  -21.9428  -10.2264   20.9761 C   0  0  0  0  0  0  0  0  0  0  0  0
  -27.5817  -14.8440   21.8478 C   0  0  0  0  0  0  0  0  0  0  0  0
  -29.4693  -15.5856   22.6976 C   0  0  0  0  0  0  0  0  0  0  0  0
  -29.8874  -23.1938   19.1950 C   0  0  0  0  0  0  0  0  0  0  0  0
  -29.4191  -13.1123   22.3383 C   0  0  0  0  0  0  0  0  0  0  0  0
  -26.0400  -29.2669   21.0735 C   0  0  0  0  0  0  0  0  0  0  0  0
  -23.7897  -27.5274   22.6332 C   0  0  0  0  0  0  0  0  0  0  0  0
  -21.6039  -24.9070   22.5827 C   0  0  0  0  0  0  0  0  0  0  0  0
  -28.9344  -21.1483   21.1559 C   0  0  0  0  0  0  0  0  0  0  0  0
  -28.2218  -33.8557   21.5634 C   0  0  0  0  0  0  0  0  0  0  0  0
  -24.1624  -29.2488   19.3911 C   0  0  0  0  0  0  0  0  0  0  0  0
  -24.6822  -26.5509   20.4849 C   0  0  0  0  0  0  0  0  0  0  0  0
  -27.5443  -32.8628   22.5045 C   0  0  0  0  0  0  0  0  0  0  0  0
  -28.5313  -19.9300   24.4461 C   0  0  0  0  0  0  0  0  0  0  0  0
  -28.1074  -31.4605   22.2964 C   0  0  0  0  0  0  0  0  0  0  0  0
  -28.3552  -18.4331   24.1950 C   0  0  0  0  0  0  0  0  0  0  0  0
  -27.8062  -20.7775   23.3989 C   0  0  0  0  0  0  0  0  0  0  0  0
  -27.9862  -18.9397   21.7519 C   0  0  0  0  0  0  0  0  0  0  0  0
  -27.8451  -30.9670   20.8685 C   0  0  1  0  0  0  0  0  0  0  0  0
  -24.5728  -29.0370   20.8451 C   0  0  1  0  0  0  0  0  0  0  0  0
  -28.7546  -18.0660   22.7553 C   0  0  2  0  0  0  0  0  0  0  0  0
  -31.1030  -23.3530   22.8841 C   0  0  0  0  0  0  0  0  0  0  0  0
  -19.9291  -23.7108   24.0186 C   0  0  0  0  0  0  0  0  0  0  0  0
  -26.0635  -26.2037   24.1784 C   0  0  0  0  0  0  0  0  0  0  0  0
  -24.4581  -24.4105   24.8676 C   0  0  0  0  0  0  0  0  0  0  0  0
  -24.0574  -26.7736   25.5587 C   0  0  0  0  0  0  0  0  0  0  0  0
  -28.2630  -24.4572   14.7560 C   0  0  0  0  0  0  0  0  0  0  0  0
  -26.4573  -22.8266   14.2721 C   0  0  0  0  0  0  0  0  0  0  0  0
  -29.1728  -21.4689   14.8844 C   0  0  0  0  0  0  0  0  0  0  0  0
  -27.4089  -20.9668   16.5049 C   0  0  0  0  0  0  0  0  0  0  0  0
  -27.6040  -23.2224   21.7330 C   0  0  0  0  0  0  0  0  0  0  0  0
  -19.3939  -25.5090   20.7086 C   0  0  0  0  0  0  0  0  0  0  0  0
  -31.1755  -23.2172   21.3681 C   0  0  0  0  0  0  0  0  0  0  0  0
  -26.5137  -23.9951   16.4942 C   0  0  0  0  0  0  0  0  0  1  0  0
  -29.8085  -23.3949   20.6392 C   0  0  2  0  0  0  0  0  0  0  0  0
  -23.6991  -26.1103   23.1455 C   0  0  1  0  0  0  0  0  0  0  0  0
  -20.1436  -24.8054   22.9849 C   0  0  2  0  0  0  0  0  0  0  0  0
  -24.5740  -25.8801   24.4100 C   0  0  0  0  0  0  0  0  0  0  0  0
  -27.4008  -23.3360   15.3948 C   0  0  0  0  0  0  0  0  0  0  0  0
  -28.3027  -22.1390   15.9929 C   0  0  0  0  0  0  0  0  0  0  0  0
  -30.9336  -23.4305   18.4382 N   0  0  0  0  0  0  0  0  0  0  0  0
  -27.4035  -16.1631   21.9583 N   0  0  0  0  0  0  0  0  0  0  0  0
  -28.8661  -22.7232   18.4299 N   0  0  0  0  0  0  0  0  0  0  0  0
  -29.2243  -22.6400   17.1396 N   0  0  0  0  0  0  0  0  0  0  0  0
  -28.5684  -16.5858   22.4782 N   0  0  0  0  0  0  0  0  0  0  0  0
  -24.2720  -27.6872   21.3265 N   0  0  0  0  0  0  0  0  0  0  0  0
  -28.1798  -20.3629   22.0397 N   0  0  0  0  0  0  0  0  0  0  0  0
  -30.6906  -15.8354   23.2158 N   0  0  0  0  0  0  0  0  0  0  0  0
  -28.6465  -12.0348   21.8841 N   0  0  0  0  0  0  0  0  0  0  0  0
  -26.4716  -30.5333   20.7280 N   0  0  0  0  0  0  0  0  0  0  0  0
  -22.2796  -25.8377   23.3433 N   0  0  0  0  0  0  0  0  0  0  0  0
  -28.8111  -22.5412   21.2691 N   0  0  0  0  0  0  0  0  0  0  0  0
  -19.2988  -24.5009   21.7956 N   0  3  0  0  0  0  0  0  0  0  0  0
  -30.5718  -12.8967   22.7835 O   0  0  0  0  0  0  0  0  0  0  0  0
  -26.7292  -28.3627   21.5308 O   0  0  0  0  0  0  0  0  0  0  0  0
  -23.4384  -28.4579   23.3630 O   0  0  0  0  0  0  0  0  0  0  0  0
  -22.0968  -24.2260   21.6862 O   0  0  0  0  0  0  0  0  0  0  0  0
  -29.6726  -20.6341   20.3057 O   0  0  0  0  0  0  0  0  0  0  0  0
  -23.5022  -11.6232   19.7861 O   0  0  0  0  0  0  0  0  0  0  0  0
  -25.6752  -25.0123   15.9479 O   0  0  0  0  0  0  0  0  0  1  0  0
  -22.3685   -6.9168   22.4258 F   0  0  0  0  0  0  0  0  0  0  0  0
  -20.9897  -11.1589   20.8420 F   0  0  0  0  0  0  0  0  0  0  0  0
  1  2  1  0  0  0  0
  1  5  2  0  0  0  0
  2  6  2  0  0  0  0
  3  8  2  0  0  0  0
  3 16  1  0  0  0  0
  4  9  1  0  0  0  0
  4 16  2  0  0  0  0
  5 18  1  0  0  0  0
  6 20  1  0  0  0  0
  7 10  2  0  0  0  0
  7 19  1  0  0  0  0
  8 22  1  0  0  0  0
  9 22  2  0  0  0  0
 10 23  1  0  0  0  0
 11 12  2  0  0  0  0
 11 24  1  0  0  0  0
 12 25  1  0  0  0  0
 13 21  1  0  0  0  0
 13 23  2  0  0  0  0
 14 25  2  0  0  0  0
 14 26  1  0  0  0  0
 15 66  2  0  0  0  0
 15 69  1  0  0  0  0
 16 27  1  0  0  0  0
 17 27  1  0  0  0  0
 17 28  2  0  0  0  0
 17 30  1  0  0  0  0
 18 20  2  0  0  0  0
 18 35  1  0  0  0  0
 19 21  2  0  0  0  0
 19 36  1  0  0  0  0
 20 44  1  0  0  0  0
 21 37  1  0  0  0  0
 22 84  1  0  0  0  0
 23 85  1  0  0  0  0
 24 26  2  0  0  0  0
 24 84  1  0  0  0  0
 25 86  1  0  0  0  0
 26 87  1  0  0  0  0
 27 67  2  0  0  0  0
 28 70  1  0  0  0  0
 28 73  1  0  0  0  0
 29 60  1  0  0  0  0
 29 66  1  0  0  0  0
 29 68  2  0  0  0  0
 30 74  1  0  0  0  0
 30 79  2  0  0  0  0
 31 45  1  0  0  0  0
 31 75  1  0  0  0  0
 31 80  2  0  0  0  0
 32 61  1  0  0  0  0
 32 71  1  0  0  0  0
 32 81  2  0  0  0  0
 33 62  1  0  0  0  0
 33 76  1  0  0  0  0
 33 82  2  0  0  0  0
 34 72  1  0  0  0  0
 34 77  1  0  0  0  0
 34 83  2  0  0  0  0
 35 38  1  0  0  0  0
 36 45  1  0  0  0  0
 37 71  1  0  0  0  0
 38 40  1  0  0  0  0
 39 41  1  0  0  0  0
 39 42  1  0  0  0  0
 40 44  1  0  0  0  0
 41 46  1  0  0  0  0
 42 72  1  0  0  0  0
 43 46  1  0  0  0  0
 43 72  1  0  0  0  0
 44 75  1  0  0  0  0
 45 71  1  0  0  0  0
 46 70  1  0  0  0  0
 47 58  1  0  0  0  0
 48 62  1  0  0  0  0
 49 63  1  0  0  0  0
 50 63  1  0  0  0  0
 51 63  1  0  0  0  0
 52 64  1  0  0  0  0
 53 64  1  0  0  0  0
 54 65  1  0  0  0  0
 55 65  1  0  0  0  0
 56 77  1  0  0  0  0
 57 78  1  0  0  0  0
 58 60  1  0  0  0  0
 59 64  1  0  0  0  0
 59 85  1  0  0  0  0
 60 77  1  0  0  0  0
 61 63  1  0  0  0  0
 61 76  1  0  0  0  0
 62 78  1  0  0  0  0
 64 65  1  0  0  0  0
 65 69  1  0  0  0  0
 67 70  1  0  0  0  0
 68 69  1  0  0  0  0
M  CHG  1  78   1
M  ISO  4  34 100  59 101  77 100  85 101
M  END
> <Batch ID>
0067

> <Smiles>
CCC(c1ncn(C(C)(C)C(C)(C)[101CH2:1][101O:1]c2ccc3c(c2)CN(C(=O)C(NC(=O)C(C)NC)C(C)(C)C)C(C(=O)NC2CCCc4ccccc42)C3)n1)[100N:0](C)[100C:0](=O)N1CCCC(n2nc(-c3ccc(Oc4ccc(F)cc4F)cc3)c(C(N)=O)c2N)C1

> <Shape>
0.206

> <Color>
0.076

> <Negative vol penalty>
0.000

$$$$

  -OEChem-04052318123D

 94102  0     1  0  0  0  0  0999 V2000
  -26.7388  -35.8934   20.9532 C   0  0  0  0  0  0  0  0  0  0  0  0
  -27.1576  -34.5780   21.1256 C   0  0  0  0  0  0  0  0  0  0  0  0
  -23.3688  -14.7571   25.7542 C   0  0  0  0  0  0  0  0  0  0  0  0
  -22.8283  -17.0424   25.1866 C   0  0  0  0  0  0  0  0  0  0  0  0
  -25.4495  -36.2682   21.3290 C   0  0  0  0  0  0  0  0  0  0  0  0
  -26.2877  -33.6368   21.6748 C   0  0  0  0  0  0  0  0  0  0  0  0
  -26.3283  -29.2474   19.1496 C   0  0  0  0  0  0  0  0  0  0  0  0
  -22.5786  -14.8546   26.8994 C   0  0  0  0  0  0  0  0  0  0  0  0
  -22.0381  -17.1400   26.3318 C   0  0  0  0  0  0  0  0  0  0  0  0
  -27.3986  -28.3861   19.3871 C   0  0  0  0  0  0  0  0  0  0  0  0
  -19.5894  -17.8758   28.9166 C   0  0  0  0  0  0  0  0  0  0  0  0
  -18.3345  -18.4714   28.7907 C   0  0  0  0  0  0  0  0  0  0  0  0
  -26.0163  -27.0896   20.8796 C   0  0  0  0  0  0  0  0  0  0  0  0
  -17.6922  -16.7799   27.1897 C   0  0  0  0  0  0  0  0  0  0  0  0
  -23.4937  -15.8510   24.8977 C   0  0  0  0  0  0  0  0  0  0  0  0
  -23.9024  -15.3364   22.4328 C   0  0  0  0  0  0  0  0  0  0  0  0
  -24.5601  -35.3289   21.8742 C   0  0  0  0  0  0  0  0  0  0  0  0
  -25.0951  -29.0422   19.7848 C   0  0  0  0  0  0  0  0  0  0  0  0
  -24.9857  -33.9996   22.0595 C   0  0  0  0  0  0  0  0  0  0  0  0
  -24.9312  -27.9482   20.6465 C   0  0  0  0  0  0  0  0  0  0  0  0
  -21.9133  -16.0461   27.1883 C   0  0  0  0  0  0  0  0  0  0  0  0
  -27.2436  -27.3087   20.2544 C   0  0  0  0  0  0  0  0  0  0  0  0
  -19.8958  -16.7322   28.1790 C   0  0  0  0  0  0  0  0  0  0  0  0
  -17.3858  -17.9235   27.9273 C   0  0  0  0  0  0  0  0  0  0  0  0
  -18.9472  -16.1842   27.3156 C   0  0  0  0  0  0  0  0  0  0  0  0
  -24.3103  -15.7510   23.7148 C   0  0  0  0  0  0  0  0  0  0  0  0
  -25.0403  -15.4164   21.6678 C   0  0  0  0  0  0  0  0  0  0  0  0
  -26.1213  -20.7527   21.0589 C   0  0  0  0  0  0  0  0  0  0  0  0
  -27.7704  -19.8833   20.1199 C   0  0  0  0  0  0  0  0  0  0  0  0
  -22.6104  -14.9165   21.9744 C   0  0  0  0  0  0  0  0  0  0  0  0
  -23.3162  -30.7118   21.8224 C   0  0  0  0  0  0  0  0  0  0  0  0
  -21.1836  -28.3211   21.3139 C   0  0  0  0  0  0  0  0  0  0  0  0
  -29.6169  -18.2322   20.1134 C   0  0  0  0  0  0  0  0  0  0  0  0
  -20.6259  -25.0861   20.3809 C   0  0  0  0  0  0  0  0  0  0  0  0
  -23.1921  -35.7917   22.3091 C   0  0  0  0  0  0  0  0  0  0  0  0
  -23.9425  -29.9649   19.4974 C   0  0  0  0  0  0  0  0  0  0  0  0
  -23.6217  -27.6724   21.3376 C   0  0  0  0  0  0  0  0  0  0  0  0
  -22.2062  -34.6487   22.5368 C   0  0  0  0  0  0  0  0  0  0  0  0
  -29.8650  -16.1106   22.9904 C   0  0  0  0  0  0  0  0  0  0  0  0
  -22.8545  -33.5407   23.3607 C   0  0  0  0  0  0  0  0  0  0  0  0
  -28.4082  -15.8187   23.3479 C   0  0  0  0  0  0  0  0  0  0  0  0
  -30.0336  -17.5257   22.4461 C   0  0  0  0  0  0  0  0  0  0  0  0
  -27.6966  -17.5452   21.6339 C   0  0  0  0  0  0  0  0  0  0  0  0
  -24.0628  -32.9441   22.6289 C   0  0  1  0  0  0  0  0  0  0  0  0
  -22.8840  -29.9590   20.5960 C   0  0  1  0  0  0  0  0  0  0  0  0
  -27.4772  -16.1154   22.1590 C   0  0  2  0  0  0  0  0  0  0  0  0
  -18.7826  -23.4064   20.1012 C   0  0  0  0  0  0  0  0  0  0  0  0
  -23.9582  -19.7798   21.9076 C   0  0  0  0  0  0  0  0  0  0  0  0
  -23.9220  -21.5971   20.1663 C   0  0  0  0  0  0  0  0  0  0  0  0
  -24.4980  -22.1266   22.5262 C   0  0  0  0  0  0  0  0  0  0  0  0
  -29.6948  -19.9291   18.4081 C   0  0  0  0  0  0  0  0  0  0  0  0
  -21.0585  -27.9579   24.3408 C   0  0  0  0  0  0  0  0  0  0  0  0
  -19.9915  -25.7255   23.9589 C   0  0  0  0  0  0  0  0  0  0  0  0
  -18.8493  -27.8015   23.1792 C   0  0  0  0  0  0  0  0  0  0  0  0
  -29.3068  -21.1656   23.8936 C   0  0  0  0  0  0  0  0  0  0  0  0
  -31.3061  -22.2995   22.9199 C   0  0  0  0  0  0  0  0  0  0  0  0
  -29.6390  -23.9378   20.1302 C   0  0  0  0  0  0  0  0  0  0  0  0
  -30.4814  -25.3741   22.0062 C   0  0  0  0  0  0  0  0  0  0  0  0
  -21.1767  -24.7906   17.4881 C   0  0  0  0  0  0  0  0  0  0  0  0
  -28.9891  -23.3621   22.5752 C   0  0  0  0  0  0  0  0  0  0  0  0
  -29.6007  -21.1645   21.4241 C   0  0  0  0  0  0  0  0  0  0  0  0
  -28.0583  -25.3834   21.3883 C   0  0  0  0  0  0  0  0  0  1  0  0
  -20.9045  -26.9832   21.9550 C   0  0  1  0  0  0  0  0  0  0  0  0
  -19.6240  -24.4736   19.4188 C   0  0  2  0  0  0  0  0  0  0  0  0
  -24.7249  -21.0505   21.3985 C   0  0  0  0  0  0  0  0  0  0  0  0
  -28.6995  -19.0984   19.2874 C   0  0  2  0  0  0  0  0  0  0  0  0
  -20.2263  -27.1231   23.3471 C   0  0  0  0  0  0  0  0  0  0  0  0
  -29.8004  -22.0319   22.7212 C   0  0  0  0  0  0  0  0  0  0  0  0
  -29.3191  -24.4793   21.5290 C   0  0  0  0  0  0  0  0  0  0  0  0
  -27.9417  -18.1460   18.3198 C   0  0  0  0  0  0  0  0  0  0  0  0
  -25.6062  -16.0706   23.7654 N   0  0  0  0  0  0  0  0  0  0  0  0
  -26.4585  -19.8414   20.0995 N   0  0  0  0  0  0  0  0  0  0  0  0
  -27.1421  -21.3559   21.6716 N   0  0  0  0  0  0  0  0  0  0  0  0
  -26.0225  -15.8566   22.5056 N   0  0  0  0  0  0  0  0  0  0  0  0
  -28.1851  -20.7821   21.0527 N   0  0  0  0  0  0  0  0  0  0  0  0
  -22.5264  -28.6066   21.0290 N   0  0  0  0  0  0  0  0  0  0  0  0
  -29.1163  -17.7754   21.3327 N   0  0  0  0  0  0  0  0  0  0  0  0
  -25.2867  -15.1523   20.3671 N   0  0  0  0  0  0  0  0  0  0  0  0
  -21.5511  -14.8930   22.8918 N   0  0  0  0  0  0  0  0  0  0  0  0
  -23.6266  -32.0379   21.5883 N   0  0  0  0  0  0  0  0  0  0  0  0
  -20.1261  -26.2202   20.9852 N   0  0  0  0  0  0  0  0  0  0  0  0
  -20.3297  -23.8488   18.2644 N   0  3  0  0  0  0  0  0  0  0  0  0
  -22.4052  -14.5566   20.7904 O   0  0  0  0  0  0  0  0  0  0  0  0
  -23.3632  -30.1329   22.9014 O   0  0  0  0  0  0  0  0  0  0  0  0
  -20.2441  -29.0817   21.0681 O   0  0  0  0  0  0  0  0  0  0  0  0
  -30.7432  -17.9681   19.6846 O   0  0  0  0  0  0  0  0  0  0  0  0
  -21.7390  -24.6043   20.5795 O   0  0  0  0  0  0  0  0  0  0  0  0
  -21.1419  -16.1415   28.3056 O   0  0  0  0  0  0  0  0  0  0  0  0
  -28.2939  -26.4611   20.4901 O   0  0  0  0  0  0  0  0  0  1  0  0
  -16.1802  -18.4947   27.8077 F   0  0  0  0  0  0  0  0  0  0  0  0
  -19.2353  -15.0850   26.6053 F   0  0  0  0  0  0  0  0  0  0  0  0
  -27.1415  -18.8564   17.4916 F   0  0  0  0  0  0  0  0  0  0  0  0
  -28.7664  -17.4072   17.5411 F   0  0  0  0  0  0  0  0  0  0  0  0
  -27.1549  -17.2830   19.0000 F   0  0  0  0  0  0  0  0  0  0  0  0
  1  2  1  0  0  0  0
  1  5  2  0  0  0  0
  2  6  2  0  0  0  0
  3  8  2  0  0  0  0
  3 15  1  0  0  0  0
  4  9  1  0  0  0  0
  4 15  2  0  0  0  0
  5 17  1  0  0  0  0
  6 19  1  0  0  0  0
  7 10  2  0  0  0  0
  7 18  1  0  0  0  0
  8 21  1  0  0  0  0
  9 21  2  0  0  0  0
 10 22  1  0  0  0  0
 11 12  2  0  0  0  0
 11 23  1  0  0  0  0
 12 24  1  0  0  0  0
 13 20  1  0  0  0  0
 13 22  2  0  0  0  0
 14 24  2  0  0  0  0
 14 25  1  0  0  0  0
 15 26  1  0  0  0  0
 16 26  1  0  0  0  0
 16 27  2  0  0  0  0
 16 30  1  0  0  0  0
 17 19  2  0  0  0  0
 17 35  1  0  0  0  0
 18 20  2  0  0  0  0
 18 36  1  0  0  0  0
 19 44  1  0  0  0  0
 20 37  1  0  0  0  0
 21 88  1  0  0  0  0
 22 89  1  0  0  0  0
 23 25  2  0  0  0  0
 23 88  1  0  0  0  0
 24 90  1  0  0  0  0
 25 91  1  0  0  0  0
 26 71  2  0  0  0  0
 27 74  1  0  0  0  0
 27 78  1  0  0  0  0
 28 65  1  0  0  0  0
 28 72  1  0  0  0  0
 28 73  2  0  0  0  0
 29 66  1  0  0  0  0
 29 72  2  0  0  0  0
 29 75  1  0  0  0  0
 30 79  1  0  0  0  0
 30 83  2  0  0  0  0
 31 45  1  0  0  0  0
 31 80  1  0  0  0  0
 31 84  2  0  0  0  0
 32 63  1  0  0  0  0
 32 76  1  0  0  0  0
 32 85  2  0  0  0  0
 33 66  1  0  0  0  0
 33 77  1  0  0  0  0
 33 86  2  0  0  0  0
 34 64  1  0  0  0  0
 34 81  1  0  0  0  0
 34 87  2  0  0  0  0
 35 38  1  0  0  0  0
 36 45  1  0  0  0  0
 37 76  1  0  0  0  0
 38 40  1  0  0  0  0
 39 41  1  0  0  0  0
 39 42  1  0  0  0  0
 40 44  1  0  0  0  0
 41 46  1  0  0  0  0
 42 77  1  0  0  0  0
 43 46  1  0  0  0  0
 43 77  1  0  0  0  0
 44 80  1  0  0  0  0
 45 76  1  0  0  0  0
 46 74  1  0  0  0  0
 47 64  1  0  0  0  0
 48 65  1  0  0  0  0
 49 65  1  0  0  0  0
 50 65  1  0  0  0  0
 51 66  1  0  0  0  0
 52 67  1  0  0  0  0
 53 67  1  0  0  0  0
 54 67  1  0  0  0  0
 55 68  1  0  0  0  0
 56 68  1  0  0  0  0
 57 69  1  0  0  0  0
 58 69  1  0  0  0  0
 59 82  1  0  0  0  0
 60 68  1  0  0  0  0
 60 69  1  0  0  0  0
 61 68  1  0  0  0  0
 61 75  1  0  0  0  0
 62 69  1  0  0  0  0
 62 89  1  0  0  0  0
 63 67  1  0  0  0  0
 63 81  1  0  0  0  0
 64 82  1  0  0  0  0
 66 70  1  0  0  0  0
 70 92  1  0  0  0  0
 70 93  1  0  0  0  0
 70 94  1  0  0  0  0
 71 74  1  0  0  0  0
 73 75  1  0  0  0  0
M  CHG  1  82   1
M  ISO  4  33 100  62 101  66 100  89 101
M  END
> <Batch ID>
0067

> <Smiles>
CNC(C)C(=O)NC(C(=O)N1Cc2cc([101O:1][101CH2:1]C(C)(C)CC(C)(C)Cn3nc(C(C)(C)C)nc3[100C:0](C)([100C:0](=O)N3CCCC(n4nc(-c5ccc(Oc6ccc(F)cc6F)cc5)c(C(N)=O)c4N)C3)C(F)(F)F)ccc2CC1C(=O)NC1CCCc2ccccc21)C(C)(C)C

> <Shape>
0.209

> <Color>
0.105

> <Negative vol penalty>
0.000

$$$$

  -OEChem-04052318123D

 92100  0     1  0  0  0  0  0999 V2000
  -25.2996  -23.8698   24.3740 C   0  0  0  0  0  0  0  0  0  0  0  0
  -24.1270  -23.8047   25.1181 C   0  0  0  0  0  0  0  0  0  0  0  0
  -27.2644  -25.8397   17.7008 C   0  0  0  0  0  0  0  0  0  0  0  0
  -27.4318  -25.7702   20.1100 C   0  0  0  0  0  0  0  0  0  0  0  0
  -25.2867  -23.5126   23.0273 C   0  0  0  0  0  0  0  0  0  0  0  0
  -22.9438  -23.3710   24.5189 C   0  0  0  0  0  0  0  0  0  0  0  0
  -19.4773  -16.8822   22.2530 C   0  0  0  0  0  0  0  0  0  0  0  0
  -26.1472  -26.6686   17.8024 C   0  0  0  0  0  0  0  0  0  0  0  0
  -26.3146  -26.5992   20.2116 C   0  0  0  0  0  0  0  0  0  0  0  0
  -20.0501  -15.7144   21.7510 C   0  0  0  0  0  0  0  0  0  0  0  0
  -23.7233  -28.9899   21.0989 C   0  0  0  0  0  0  0  0  0  0  0  0
  -23.7824  -30.0516   22.0017 C   0  0  0  0  0  0  0  0  0  0  0  0
  -21.7744  -15.8443   23.4329 C   0  0  0  0  0  0  0  0  0  0  0  0
  -25.6807  -30.9569   20.8125 C   0  0  0  0  0  0  0  0  0  0  0  0
  -27.0288  -12.1664   19.8679 C   0  0  0  0  0  0  0  0  0  0  0  0
  -27.9067  -25.3904   18.8547 C   0  0  0  0  0  0  0  0  0  0  0  0
  -30.4089  -24.9298   18.6684 C   0  0  0  0  0  0  0  0  0  0  0  0
  -24.0998  -23.0863   22.4090 C   0  0  0  0  0  0  0  0  0  0  0  0
  -20.0560  -17.5469   23.3437 C   0  0  0  0  0  0  0  0  0  0  0  0
  -22.9157  -22.9832   23.1671 C   0  0  0  0  0  0  0  0  0  0  0  0
  -21.2056  -17.0189   23.9485 C   0  0  0  0  0  0  0  0  0  0  0  0
  -27.8937  -13.0774   20.4393 C   0  0  0  0  0  0  0  0  0  0  0  0
  -25.6723  -27.0484   19.0577 C   0  0  0  0  0  0  0  0  0  0  0  0
  -21.2004  -15.1968   22.3391 C   0  0  0  0  0  0  0  0  0  0  0  0
  -24.6429  -28.9117   20.0530 C   0  0  0  0  0  0  0  0  0  0  0  0
  -24.7611  -31.0351   21.8585 C   0  0  0  0  0  0  0  0  0  0  0  0
  -25.6215  -29.8952   19.9098 C   0  0  0  0  0  0  0  0  0  0  0  0
  -29.0605  -24.5337   18.7505 C   0  0  0  0  0  0  0  0  0  0  0  0
  -27.3492  -13.8861   21.4159 C   0  0  0  0  0  0  0  0  0  0  0  0
  -31.1087  -23.7508   18.5866 C   0  0  0  0  0  0  0  0  0  0  0  0
  -25.3194  -12.8906   21.1796 C   0  0  0  0  0  0  0  0  0  0  0  0
  -30.9779  -26.2458   18.6664 C   0  0  0  0  0  0  0  0  0  0  0  0
  -21.3297  -20.4234   23.7989 C   0  0  0  0  0  0  0  0  0  0  0  0
  -21.4542  -19.4500   26.8907 C   0  0  0  0  0  0  0  0  0  0  0  0
  -29.7842  -18.1664   20.3675 C   0  0  0  0  0  0  0  0  0  0  0  0
  -21.5555  -16.8601   29.1109 C   0  0  0  0  0  0  0  0  0  0  0  0
  -24.1444  -22.7041   20.9506 C   0  0  0  0  0  0  0  0  0  0  0  0
  -19.4107  -18.7908   23.8902 C   0  0  0  0  0  0  0  0  0  0  0  0
  -21.8541  -17.6833   25.1344 C   0  0  0  0  0  0  0  0  0  0  0  0
  -22.7656  -22.6847   20.2986 C   0  0  0  0  0  0  0  0  0  0  0  0
  -30.6955  -19.2393   17.0723 C   0  0  0  0  0  0  0  0  0  0  0  0
  -21.7964  -21.8850   21.1562 C   0  0  0  0  0  0  0  0  0  0  0  0
  -30.4749  -20.7508   17.1130 C   0  0  0  0  0  0  0  0  0  0  0  0
  -29.6644  -18.5014   17.9205 C   0  0  0  0  0  0  0  0  0  0  0  0
  -29.3801  -20.4769   19.3827 C   0  0  0  0  0  0  0  0  0  0  0  0
  -21.6103  -22.5436   22.5290 C   0  0  1  0  0  0  0  0  0  0  0  0
  -20.3771  -19.6671   24.6811 C   0  0  1  0  0  0  0  0  0  0  0  0
  -30.4194  -21.2625   18.5634 C   0  0  2  0  0  0  0  0  0  0  0  0
  -21.6920  -16.3775   31.5697 C   0  0  0  0  0  0  0  0  0  0  0  0
  -23.0555  -14.6068   19.9175 C   0  0  0  0  0  0  0  0  0  0  0  0
  -23.7961  -12.4325   23.1177 C   0  0  0  0  0  0  0  0  0  0  0  0
  -23.0729  -11.6423   20.8888 C   0  0  0  0  0  0  0  0  0  0  0  0
  -30.0033  -19.4145   22.5097 C   0  0  0  0  0  0  0  0  0  0  0  0
  -27.7711  -19.2584   21.3410 C   0  0  0  0  0  0  0  0  0  0  0  0
  -24.4238  -20.1504   26.8609 C   0  0  0  0  0  0  0  0  0  0  0  0
  -24.6933  -18.7944   28.9482 C   0  0  0  0  0  0  0  0  0  0  0  0
  -23.2183  -20.8061   28.9516 C   0  0  0  0  0  0  0  0  0  0  0  0
  -18.9513  -15.4541   29.0975 C   0  0  0  0  0  0  0  0  0  0  0  0
  -28.1859  -17.6096   23.7697 C   0  0  0  0  0  0  0  0  0  0  0  0
  -28.1913  -14.9091   22.1043 C   0  0  0  0  0  0  0  0  0  0  0  0
  -27.9368  -16.3432   21.6399 C   0  0  0  0  0  0  0  0  0  0  0  0
  -22.4642  -18.7183   27.7413 C   0  0  1  0  0  0  0  0  0  0  0  0
  -20.7683  -16.5904   30.3805 C   0  0  2  0  0  0  0  0  0  0  0  0
  -23.1043  -14.1472   21.3750 C   0  0  2  0  0  0  0  0  0  1  0  0
  -29.3136  -13.1618   20.0124 C   0  0  0  0  0  0  0  0  0  0  0  0
  -23.8407  -12.7830   21.6056 C   0  0  0  0  0  0  0  0  0  0  0  0
  -29.0872  -18.5516   21.6481 C   0  0  0  0  0  0  0  0  0  0  0  0
  -23.6890  -19.6056   28.1019 C   0  0  0  0  0  0  0  0  0  0  0  0
  -25.7307  -12.0455   20.2153 N   0  0  0  0  0  0  0  0  0  0  0  0
  -28.9103  -23.2068   18.7232 N   0  0  0  0  0  0  0  0  0  0  0  0
  -26.0613  -13.8197   21.8121 N   0  0  0  0  0  0  0  0  0  0  0  0
  -30.1734  -22.7589   18.6229 N   0  0  0  0  0  0  0  0  0  0  0  0
  -21.1893  -18.9006   25.6282 N   0  0  0  0  0  0  0  0  0  0  0  0
  -29.6266  -19.0316   19.2846 N   0  0  0  0  0  0  0  0  0  0  0  0
  -32.4268  -23.4763   18.4878 N   0  0  0  0  0  0  0  0  0  0  0  0
  -30.1154  -27.3468   18.7573 N   0  0  0  0  0  0  0  0  0  0  0  0
  -20.8552  -21.6523   23.3818 N   0  0  0  0  0  0  0  0  0  0  0  0
  -21.7331  -18.2107   28.8973 N   0  0  0  0  0  0  0  0  0  0  0  0
  -19.9237  -15.3734   30.2177 N   0  3  0  0  0  0  0  0  0  0  0  0
  -28.7731  -17.2914   22.4165 N   0  3  1  0  0  0  0  0  0  0  0  0
  -32.2134  -26.4402   18.5697 O   0  0  0  0  0  0  0  0  0  0  0  0
  -22.4155  -19.9291   23.5186 O   0  0  0  0  0  0  0  0  0  0  0  0
  -20.9147  -20.4673   27.3330 O   0  0  0  0  0  0  0  0  0  0  0  0
  -30.4507  -17.1287   20.3335 O   0  0  0  0  0  0  0  0  0  0  0  0
  -21.9745  -15.9624   28.3835 O   0  0  0  0  0  0  0  0  0  0  0  0
  -24.5823  -27.8575   19.1571 O   0  0  0  0  0  0  0  0  0  0  0  0
  -21.7619  -14.0575   21.8507 O   0  0  0  0  0  0  0  0  0  1  0  0
  -24.8168  -32.0554   22.7245 F   0  0  0  0  0  0  0  0  0  0  0  0
  -26.5070  -29.8261   18.9063 F   0  0  0  0  0  0  0  0  0  0  0  0
  -29.6504  -12.2707   19.0299 F   0  0  0  0  0  0  0  0  0  0  0  0
  -29.6691  -14.3851   19.5126 F   0  0  0  0  0  0  0  0  0  0  0  0
  -30.1907  -12.9208   21.0334 F   0  0  0  0  0  0  0  0  0  0  0  0
  1  2  1  0  0  0  0
  1  5  2  0  0  0  0
  2  6  2  0  0  0  0
  3  8  2  0  0  0  0
  3 16  1  0  0  0  0
  4  9  1  0  0  0  0
  4 16  2  0  0  0  0
  5 18  1  0  0  0  0
  6 20  1  0  0  0  0
  7 10  2  0  0  0  0
  7 19  1  0  0  0  0
  8 23  1  0  0  0  0
  9 23  2  0  0  0  0
 10 24  1  0  0  0  0
 11 12  2  0  0  0  0
 11 25  1  0  0  0  0
 12 26  1  0  0  0  0
 13 21  1  0  0  0  0
 13 24  2  0  0  0  0
 14 26  2  0  0  0  0
 14 27  1  0  0  0  0
 15 22  1  0  0  0  0
 15 69  2  0  0  0  0
 16 28  1  0  0  0  0
 17 28  1  0  0  0  0
 17 30  2  0  0  0  0
 17 32  1  0  0  0  0
 18 20  2  0  0  0  0
 18 37  1  0  0  0  0
 19 21  2  0  0  0  0
 19 38  1  0  0  0  0
 20 46  1  0  0  0  0
 21 39  1  0  0  0  0
 22 29  2  0  0  0  0
 22 65  1  0  0  0  0
 23 86  1  0  0  0  0
 24 87  1  0  0  0  0
 25 27  2  0  0  0  0
 25 86  1  0  0  0  0
 26 88  1  0  0  0  0
 27 89  1  0  0  0  0
 28 70  2  0  0  0  0
 29 60  1  0  0  0  0
 29 71  1  0  0  0  0
 30 72  1  0  0  0  0
 30 75  1  0  0  0  0
 31 66  1  0  0  0  0
 31 69  1  0  0  0  0
 31 71  2  0  0  0  0
 32 76  1  0  0  0  0
 32 81  2  0  0  0  0
 33 47  1  0  0  0  0
 33 77  1  0  0  0  0
 33 82  2  0  0  0  0
 34 62  1  0  0  0  0
 34 73  1  0  0  0  0
 34 83  2  0  0  0  0
 35 67  1  0  0  0  0
 35 74  1  0  0  0  0
 35 84  2  0  0  0  0
 36 63  1  0  0  0  0
 36 78  1  0  0  0  0
 36 85  2  0  0  0  0
 37 40  1  0  0  0  0
 38 47  1  0  0  0  0
 39 73  1  0  0  0  0
 40 42  1  0  0  0  0
 41 43  1  0  0  0  0
 41 44  1  0  0  0  0
 42 46  1  0  0  0  0
 43 48  1  0  0  0  0
 44 74  1  0  0  0  0
 45 48  1  0  0  0  0
 45 74  1  0  0  0  0
 46 77  1  0  0  0  0
 47 73  1  0  0  0  0
 48 72  1  0  0  0  0
 49 63  1  0  0  0  0
 50 64  1  0  0  0  0
 51 66  1  0  0  0  0
 52 66  1  0  0  0  0
 53 67  1  0  0  0  0
 54 67  1  0  0  0  0
 55 68  1  0  0  0  0
 56 68  1  0  0  0  0
 57 68  1  0  0  0  0
 58 79  1  0  0  0  0
 59 80  1  0  0  0  0
 60 61  1  0  0  0  0
 61 80  1  0  0  0  0
 62 68  1  0  0  0  0
 62 78  1  0  0  0  0
 63 79  1  0  0  0  0
 64 66  1  0  0  0  0
 64 87  1  0  0  0  0
 65 90  1  0  0  0  0
 65 91  1  0  0  0  0
 65 92  1  0  0  0  0
 67 80  1  0  0  0  0
 70 72  1  0  0  0  0
M  CHG  2  79   1  80   1
M  ISO  4  35 100  64 101  67 100  87 101
M  END
> <Batch ID>
0067

> <Smiles>
CNC(C)C(=O)NC(C(=O)N1Cc2cc([101O:1][101CH:1](C)C(C)(C)c3ncc(C(F)(F)F)c(CCN(C)[100C:0](C)(C)[100C:0](=O)N4CCCC(n5nc(-c6ccc(Oc7ccc(F)cc7F)cc6)c(C(N)=O)c5N)C4)n3)ccc2CC1C(=O)NC1CCCc2ccccc21)C(C)(C)C

> <Shape>
0.224

> <Color>
0.065

> <Negative vol penalty>
0.000

$$$$

  -OEChem-04052318123D

 86 94  0     1  0  0  0  0  0999 V2000
  -17.0988  -24.6161   24.6152 C   0  0  0  0  0  0  0  0  0  0  0  0
  -18.2527  -23.8516   24.4758 C   0  0  0  0  0  0  0  0  0  0  0  0
  -23.8049  -14.3341   21.8117 C   0  0  0  0  0  0  0  0  0  0  0  0
  -25.6351  -14.5158   20.2450 C   0  0  0  0  0  0  0  0  0  0  0  0
  -17.0081  -25.8594   23.9907 C   0  0  0  0  0  0  0  0  0  0  0  0
  -19.3162  -24.3294   23.7109 C   0  0  0  0  0  0  0  0  0  0  0  0
  -26.4708  -24.1783   23.3865 C   0  0  0  0  0  0  0  0  0  0  0  0
  -23.4185  -13.1311   21.2207 C   0  0  0  0  0  0  0  0  0  0  0  0
  -25.2487  -13.3128   19.6541 C   0  0  0  0  0  0  0  0  0  0  0  0
  -27.5027  -23.8929   22.4934 C   0  0  0  0  0  0  0  0  0  0  0  0
  -24.3932   -9.8942   21.2930 C   0  0  0  0  0  0  0  0  0  0  0  0
  -24.0703   -8.8317   22.1370 C   0  0  0  0  0  0  0  0  0  0  0  0
  -27.2647  -26.0897   21.5257 C   0  0  0  0  0  0  0  0  0  0  0  0
  -21.8439   -8.7648   21.2012 C   0  0  0  0  0  0  0  0  0  0  0  0
  -30.7554  -24.2122   17.2497 C   0  0  0  0  0  0  0  0  0  0  0  0
  -24.9132  -15.0265   21.3238 C   0  0  0  0  0  0  0  0  0  0  0  0
  -26.2114  -16.4414   23.0031 C   0  0  0  0  0  0  0  0  0  0  0  0
  -18.0748  -26.3570   23.2258 C   0  0  0  0  0  0  0  0  0  0  0  0
  -25.8197  -25.4197   23.3486 C   0  0  0  0  0  0  0  0  0  0  0  0
  -19.2391  -25.5800   23.0746 C   0  0  0  0  0  0  0  0  0  0  0  0
  -26.2265  -26.3893   22.4210 C   0  0  0  0  0  0  0  0  0  0  0  0
  -24.1404  -12.6205   20.1420 C   0  0  0  0  0  0  0  0  0  0  0  0
  -27.8978  -24.8476   21.5609 C   0  0  0  0  0  0  0  0  0  0  0  0
  -23.4414  -10.3921   20.4031 C   0  0  0  0  0  0  0  0  0  0  0  0
  -22.7957   -8.2670   22.0911 C   0  0  0  0  0  0  0  0  0  0  0  0
  -22.1668   -9.8274   20.3572 C   0  0  0  0  0  0  0  0  0  0  0  0
  -25.3126  -16.2694   21.9334 C   0  0  0  0  0  0  0  0  0  0  0  0
  -30.5634  -24.1784   18.6071 C   0  0  0  0  0  0  0  0  0  0  0  0
  -26.2499  -17.7996   23.2042 C   0  0  0  0  0  0  0  0  0  0  0  0
  -31.7619  -26.2213   17.4741 C   0  0  0  0  0  0  0  0  0  0  0  0
  -26.9460  -15.4612   23.7482 C   0  0  0  0  0  0  0  0  0  0  0  0
  -22.8375  -26.3726   22.7986 C   0  0  0  0  0  0  0  0  0  0  0  0
  -24.0255  -29.2745   23.6291 C   0  0  0  0  0  0  0  0  0  0  0  0
  -26.7429  -31.3197   23.9118 C   0  0  0  0  0  0  0  0  0  0  0  0
  -25.1701  -22.4826   19.6329 C   0  0  0  0  0  0  0  0  0  0  0  0
  -17.9119  -27.6856   22.5308 C   0  0  0  0  0  0  0  0  0  0  0  0
  -24.7264  -25.7218   24.3364 C   0  0  0  0  0  0  0  0  0  0  0  0
  -25.5734  -27.7448   22.3527 C   0  0  0  0  0  0  0  0  0  0  0  0
  -19.2294  -28.2848   22.0457 C   0  0  0  0  0  0  0  0  0  0  0  0
  -23.5694  -21.7334   22.7237 C   0  0  0  0  0  0  0  0  0  0  0  0
  -20.0645  -27.2285   21.3290 C   0  0  0  0  0  0  0  0  0  0  0  0
  -23.9157  -20.2636   22.9681 C   0  0  0  0  0  0  0  0  0  0  0  0
  -23.3433  -22.0209   21.2410 C   0  0  0  0  0  0  0  0  0  0  0  0
  -24.7914  -20.1330   20.5986 C   0  0  0  0  0  0  0  0  0  0  0  0
  -20.4237  -26.0750   22.2734 C   0  0  1  0  0  0  0  0  0  0  0  0
  -23.7880  -26.8300   23.8687 C   0  0  1  0  0  0  0  0  0  0  0  0
  -25.0833  -19.8063   22.0732 C   0  0  2  0  0  0  0  0  0  0  0  0
  -32.4454  -27.3937   16.8594 C   0  0  0  0  0  0  0  0  0  0  0  0
  -27.3947  -33.6479   24.5845 C   0  0  0  0  0  0  0  0  0  0  0  0
  -32.0533  -21.6458   19.6840 C   0  0  0  0  0  0  0  0  0  0  0  0
  -29.9677  -21.0272   20.9204 C   0  0  0  0  0  0  0  0  0  0  0  0
  -31.1636  -23.1339   21.4789 C   0  0  0  0  0  0  0  0  0  0  0  0
  -22.9132  -30.3439   20.9968 C   0  0  0  0  0  0  0  0  0  0  0  0
  -24.3787  -32.3547   21.2749 C   0  0  0  0  0  0  0  0  0  0  0  0
  -22.6018  -31.8665   22.9562 C   0  0  0  0  0  0  0  0  0  0  0  0
  -28.4965  -30.3271   26.0794 C   0  0  0  0  0  0  0  0  0  0  0  0
  -27.0507  -22.7912   18.0431 C   0  0  0  0  0  0  0  0  0  0  0  0
  -27.7075  -23.9361   18.8012 C   0  0  0  0  0  0  0  0  0  0  0  0
  -29.8688  -22.9977   19.2774 C   0  0  1  0  0  0  0  0  0  0  0  0
  -24.6725  -30.4177   22.8851 C   0  0  1  0  0  0  0  0  0  0  0  0
  -27.2206  -32.2091   25.0455 C   0  0  2  0  0  0  0  0  0  0  0  0
  -30.7595  -22.2044   20.3088 C   0  0  0  0  0  0  0  0  0  0  0  0
  -23.6528  -31.2195   22.0280 C   0  0  0  0  0  0  0  0  0  0  0  0
  -31.3648  -25.2437   16.6459 N   0  0  0  0  0  0  0  0  0  0  0  0
  -24.8157  -17.4258   21.4863 N   0  0  0  0  0  0  0  0  0  0  0  0
  -30.9839  -25.1899   19.3882 N   0  0  0  0  0  0  0  0  0  0  0  0
  -31.6004  -26.2426   18.8118 N   0  0  0  0  0  0  0  0  0  0  0  0
  -25.4044  -18.3375   22.2791 N   0  0  0  0  0  0  0  0  0  0  0  0
  -24.5050  -27.9901   23.3355 N   0  0  0  0  0  0  0  0  0  0  0  0
  -24.4873  -21.5647   20.4479 N   0  0  0  0  0  0  0  0  0  0  0  0
  -26.9240  -18.5742   24.0805 N   0  0  0  0  0  0  0  0  0  0  0  0
  -26.7899  -14.1100   23.4102 N   0  0  0  0  0  0  0  0  0  0  0  0
  -21.5052  -26.4611   23.1543 N   0  0  0  0  0  0  0  0  0  0  0  0
  -25.3681  -31.2162   23.8885 N   0  0  0  0  0  0  0  0  0  0  0  0
  -26.2463  -21.9692   18.9195 N   0  0  0  0  0  0  0  0  0  0  0  0
  -28.5880  -23.4149   19.8444 N   0  0  1  0  0  0  0  0  0  1  0  0
  -28.5278  -31.7223   25.5701 N   0  3  0  0  0  0  0  0  0  0  0  0
  -27.7054  -15.7730   24.6967 O   0  0  0  0  0  0  0  0  0  0  0  0
  -23.2801  -25.9706   21.7290 O   0  0  0  0  0  0  0  0  0  0  0  0
  -23.1327  -29.5131   24.4462 O   0  0  0  0  0  0  0  0  0  0  0  0
  -27.5121  -30.7746   23.1233 O   0  0  0  0  0  0  0  0  0  0  0  0
  -24.8480  -23.6728   19.5514 O   0  0  0  0  0  0  0  0  0  0  0  0
  -23.7637  -11.4466   19.5653 O   0  0  0  0  0  0  0  0  0  0  0  0
  -28.9043  -24.5714   20.6877 O   0  0  0  0  0  0  0  0  0  1  0  0
  -22.4863   -7.2456   22.9006 F   0  0  0  0  0  0  0  0  0  0  0  0
  -21.2486  -10.3007   19.5035 F   0  0  0  0  0  0  0  0  0  0  0  0
  1  2  1  0  0  0  0
  1  5  2  0  0  0  0
  2  6  2  0  0  0  0
  3  8  2  0  0  0  0
  3 16  1  0  0  0  0
  4  9  1  0  0  0  0
  4 16  2  0  0  0  0
  5 18  1  0  0  0  0
  6 20  1  0  0  0  0
  7 10  2  0  0  0  0
  7 19  1  0  0  0  0
  8 22  1  0  0  0  0
  9 22  2  0  0  0  0
 10 23  1  0  0  0  0
 11 12  2  0  0  0  0
 11 24  1  0  0  0  0
 12 25  1  0  0  0  0
 13 21  1  0  0  0  0
 13 23  2  0  0  0  0
 14 25  2  0  0  0  0
 14 26  1  0  0  0  0
 15 28  1  0  0  0  0
 15 64  2  0  0  0  0
 16 27  1  0  0  0  0
 17 27  1  0  0  0  0
 17 29  2  0  0  0  0
 17 31  1  0  0  0  0
 18 20  2  0  0  0  0
 18 36  1  0  0  0  0
 19 21  2  0  0  0  0
 19 37  1  0  0  0  0
 20 45  1  0  0  0  0
 21 38  1  0  0  0  0
 22 83  1  0  0  0  0
 23 84  1  0  0  0  0
 24 26  2  0  0  0  0
 24 83  1  0  0  0  0
 25 85  1  0  0  0  0
 26 86  1  0  0  0  0
 27 65  2  0  0  0  0
 28 59  1  0  0  0  0
 28 66  2  0  0  0  0
 29 68  1  0  0  0  0
 29 71  1  0  0  0  0
 30 48  1  0  0  0  0
 30 64  1  0  0  0  0
 30 67  2  0  0  0  0
 31 72  1  0  0  0  0
 31 78  2  0  0  0  0
 32 46  1  0  0  0  0
 32 73  1  0  0  0  0
 32 79  2  0  0  0  0
 33 60  1  0  0  0  0
 33 69  1  0  0  0  0
 33 80  2  0  0  0  0
 34 61  1  0  0  0  0
 34 74  1  0  0  0  0
 34 81  2  0  0  0  0
 35 70  1  0  0  0  0
 35 75  1  0  0  0  0
 35 82  2  0  0  0  0
 36 39  1  0  0  0  0
 37 46  1  0  0  0  0
 38 69  1  0  0  0  0
 39 41  1  0  0  0  0
 40 42  1  0  0  0  0
 40 43  1  0  0  0  0
 41 45  1  0  0  0  0
 42 47  1  0  0  0  0
 43 70  1  0  0  0  0
 44 47  1  0  0  0  0
 44 70  1  0  0  0  0
 45 73  1  0  0  0  0
 46 69  1  0  0  0  0
 47 68  1  0  0  0  0
 49 61  1  0  0  0  0
 50 62  1  0  0  0  0
 51 62  1  0  0  0  0
 52 62  1  0  0  0  0
 53 63  1  0  0  0  0
 54 63  1  0  0  0  0
 55 63  1  0  0  0  0
 56 77  1  0  0  0  0
 57 58  1  0  0  0  0
 57 75  1  0  0  0  0
 58 76  1  0  0  0  0
 59 62  1  0  0  0  0
 59 76  1  0  0  0  0
 60 63  1  0  0  0  0
 60 74  1  0  0  0  0
 61 77  1  0  0  0  0
 65 68  1  0  0  0  0
 66 67  1  0  0  0  0
 76 84  1  0  0  0  0
M  CHG  1  77   1
M  ISO  4  35 100  75 100  76 101  84 101
M  END
> <Batch ID>
0067

> <Smiles>
CNC(C)C(=O)NC(C(=O)N1Cc2cc([101O:1][101N:1](CC[100NH:0][100C:0](=O)N3CCCC(n4nc(-c5ccc(Oc6ccc(F)cc6F)cc5)c(C(N)=O)c4N)C3)C(c3cnc(C)nn3)C(C)(C)C)ccc2CC1C(=O)NC1CCCc2ccccc21)C(C)(C)C

> <Shape>
0.238

> <Color>
0.053

> <Negative vol penalty>
0.000

$$$$

  -OEChem-04052318123D

 87 95  0     1  0  0  0  0  0999 V2000
  -17.4160  -26.1942   25.3061 C   0  0  0  0  0  0  0  0  0  0  0  0
  -18.2485  -25.1690   24.8687 C   0  0  0  0  0  0  0  0  0  0  0  0
  -24.0769   -9.5386   22.1621 C   0  0  0  0  0  0  0  0  0  0  0  0
  -24.4476  -11.1066   23.9623 C   0  0  0  0  0  0  0  0  0  0  0  0
  -17.4849  -27.4507   24.7057 C   0  0  0  0  0  0  0  0  0  0  0  0
  -19.1497  -25.3995   23.8299 C   0  0  0  0  0  0  0  0  0  0  0  0
  -24.7355  -22.9700   23.1951 C   0  0  0  0  0  0  0  0  0  0  0  0
  -23.6559   -8.5800   23.0837 C   0  0  0  0  0  0  0  0  0  0  0  0
  -24.0266  -10.1480   24.8840 C   0  0  0  0  0  0  0  0  0  0  0  0
  -25.2108  -21.8940   22.4466 C   0  0  0  0  0  0  0  0  0  0  0  0
  -20.8630   -7.8905   24.8607 C   0  0  0  0  0  0  0  0  0  0  0  0
  -19.7104   -7.1647   24.5602 C   0  0  0  0  0  0  0  0  0  0  0  0
  -25.8710  -23.4133   20.6930 C   0  0  0  0  0  0  0  0  0  0  0  0
  -20.9845   -5.1131   24.6292 C   0  0  0  0  0  0  0  0  0  0  0  0
  -29.6109  -20.2311   21.5520 C   0  0  0  0  0  0  0  0  0  0  0  0
  -28.5159  -18.3405   21.3041 C   0  0  0  0  0  0  0  0  0  0  0  0
  -24.4728  -10.8019   22.6014 C   0  0  0  0  0  0  0  0  0  0  0  0
  -24.1097  -12.7430   20.9865 C   0  0  0  0  0  0  0  0  0  0  0  0
  -18.3942  -27.6994   23.6655 C   0  0  0  0  0  0  0  0  0  0  0  0
  -24.8145  -24.2767   22.6926 C   0  0  0  0  0  0  0  0  0  0  0  0
  -19.2300  -26.6601   23.2141 C   0  0  0  0  0  0  0  0  0  0  0  0
  -25.3982  -24.5044   21.4381 C   0  0  0  0  0  0  0  0  0  0  0  0
  -28.7420  -19.5445   20.6830 C   0  0  0  0  0  0  0  0  0  0  0  0
  -23.6307   -8.8847   24.4446 C   0  0  0  0  0  0  0  0  0  0  0  0
  -25.7761  -22.1153   21.1942 C   0  0  0  0  0  0  0  0  0  0  0  0
  -22.0764   -7.2277   25.0453 C   0  0  0  0  0  0  0  0  0  0  0  0
  -19.7711   -5.7760   24.4445 C   0  0  0  0  0  0  0  0  0  0  0  0
  -22.1371   -5.8389   24.9295 C   0  0  0  0  0  0  0  0  0  0  0  0
  -24.9084  -11.7924   21.6498 C   0  0  0  0  0  0  0  0  0  0  0  0
  -24.9909  -13.4415   20.1978 C   0  0  0  0  0  0  0  0  0  0  0  0
  -22.6974  -12.9741   21.0754 C   0  0  0  0  0  0  0  0  0  0  0  0
  -22.6946  -26.5217   21.9375 C   0  0  0  0  0  0  0  0  0  0  0  0
  -25.3507  -28.3285   21.4869 C   0  0  0  0  0  0  0  0  0  0  0  0
  -28.6937  -28.4470   20.8106 C   0  0  0  0  0  0  0  0  0  0  0  0
  -30.8784  -14.4623   20.5792 C   0  0  0  0  0  0  0  0  0  0  0  0
  -18.3993  -29.0604   23.0157 C   0  0  0  0  0  0  0  0  0  0  0  0
  -24.3215  -25.4293   23.5237 C   0  0  0  0  0  0  0  0  0  0  0  0
  -25.5251  -25.8903   20.8622 C   0  0  0  0  0  0  0  0  0  0  0  0
  -19.6436  -29.3283   22.1729 C   0  0  0  0  0  0  0  0  0  0  0  0
  -29.1406  -12.9405   17.8698 C   0  0  0  0  0  0  0  0  0  0  0  0
  -19.9477  -28.1333   21.2750 C   0  0  0  0  0  0  0  0  0  0  0  0
  -27.7868  -12.5594   18.4715 C   0  0  0  0  0  0  0  0  0  0  0  0
  -30.2750  -12.7665   18.8773 C   0  0  0  0  0  0  0  0  0  0  0  0
  -28.7207  -13.0815   20.7637 C   0  0  0  0  0  0  0  0  0  0  0  0
  -20.2380  -26.8781   22.1067 C   0  0  1  0  0  0  0  0  0  0  0  0
  -23.9854  -26.6642   22.6933 C   0  0  1  0  0  0  0  0  0  0  0  0
  -27.5383  -13.2936   19.8028 C   0  0  2  0  0  0  0  0  0  0  0  0
  -30.2764  -19.2621   18.0002 C   0  0  0  0  0  0  0  0  0  0  0  0
  -30.5779  -30.0686   20.4680 C   0  0  0  0  0  0  0  0  0  0  0  0
  -28.6198  -17.7891   24.7543 C   0  0  0  0  0  0  0  0  0  0  0  0
  -27.2381  -19.0026   18.6483 C   0  0  0  0  0  0  0  0  0  0  0  0
  -24.2913  -28.9663   18.6975 C   0  0  0  0  0  0  0  0  0  0  0  0
  -26.5841  -29.7640   18.0850 C   0  0  0  0  0  0  0  0  0  0  0  0
  -25.3091  -30.9107   19.8967 C   0  0  0  0  0  0  0  0  0  0  0  0
  -31.7748  -17.7639   24.1898 C   0  0  0  0  0  0  0  0  0  0  0  0
  -30.6942  -15.5911   24.7268 C   0  0  0  0  0  0  0  0  0  0  0  0
  -30.1999  -27.3628   23.1160 C   0  0  0  0  0  0  0  0  0  0  0  0
  -29.3210  -20.4005   18.3475 C   0  0  0  0  0  0  0  0  0  0  0  0
  -31.3385  -16.1333   22.3555 C   0  0  0  0  0  0  0  0  0  0  0  0
  -27.3326  -21.3236   19.5798 C   0  0  0  0  0  0  0  0  0  1  0  0
  -26.2672  -28.6097   20.3207 C   0  0  1  0  0  0  0  0  0  0  0  0
  -29.8290  -29.2068   21.4725 C   0  0  2  0  0  0  0  0  0  0  0  0
  -29.3134  -17.3336   23.4556 C   0  0  2  0  0  0  0  0  0  0  0  0
  -28.1688  -20.0330   19.3371 C   0  0  2  0  0  0  0  0  0  0  0  0
  -25.6089  -29.5362   19.2597 C   0  0  0  0  0  0  0  0  0  0  0  0
  -30.7570  -16.7238   23.6714 C   0  0  0  0  0  0  0  0  0  0  0  0
  -29.9160  -19.5224   22.6423 N   0  0  0  0  0  0  0  0  0  0  0  0
  -26.1979  -11.8763   21.3118 N   0  0  0  0  0  0  0  0  0  0  0  0
  -29.2349  -18.3779   22.4625 N   0  0  0  0  0  0  0  0  0  0  0  0
  -26.2161  -12.8881   20.4274 N   0  0  0  0  0  0  0  0  0  0  0  0
  -25.0227  -26.9838   21.7104 N   0  0  0  0  0  0  0  0  0  0  0  0
  -29.9779  -13.4885   20.1168 N   0  0  0  0  0  0  0  0  0  0  0  0
  -24.8294  -14.4689   19.3371 N   0  0  0  0  0  0  0  0  0  0  0  0
  -21.9409  -12.1655   21.9346 N   0  0  0  0  0  0  0  0  0  0  0  0
  -21.5800  -26.9283   22.6459 N   0  0  0  0  0  0  0  0  0  0  0  0
  -27.5025  -29.1369   20.8902 N   0  0  0  0  0  0  0  0  0  0  0  0
  -30.5178  -15.1037   21.7579 N   0  0  0  0  0  0  0  0  0  0  0  0
  -30.7968  -28.2570   22.0908 N   0  3  0  0  0  0  0  0  0  0  0  0
  -22.1209  -13.8604   20.4003 O   0  0  0  0  0  0  0  0  0  0  0  0
  -22.7090  -26.0772   20.7956 O   0  0  0  0  0  0  0  0  0  0  0  0
  -24.9466  -29.2666   22.1784 O   0  0  0  0  0  0  0  0  0  0  0  0
  -28.8488  -27.3526   20.2731 O   0  0  0  0  0  0  0  0  0  0  0  0
  -31.9235  -14.7433   19.9828 O   0  0  0  0  0  0  0  0  0  0  0  0
  -23.2197   -7.9496   25.3442 O   0  0  0  0  0  0  0  0  0  0  0  0
  -26.2402  -21.0668   20.4613 O   0  0  0  0  0  0  0  0  0  1  0  0
  -18.6639   -5.0789   24.1576 F   0  0  0  0  0  0  0  0  0  0  0  0
  -23.2997   -5.1965   25.1070 F   0  0  0  0  0  0  0  0  0  0  0  0
  1  2  1  0  0  0  0
  1  5  2  0  0  0  0
  2  6  2  0  0  0  0
  3  8  2  0  0  0  0
  3 17  1  0  0  0  0
  4  9  1  0  0  0  0
  4 17  2  0  0  0  0
  5 19  1  0  0  0  0
  6 21  1  0  0  0  0
  7 10  2  0  0  0  0
  7 20  1  0  0  0  0
  8 24  1  0  0  0  0
  9 24  2  0  0  0  0
 10 25  1  0  0  0  0
 11 12  2  0  0  0  0
 11 26  1  0  0  0  0
 12 27  1  0  0  0  0
 13 22  1  0  0  0  0
 13 25  2  0  0  0  0
 14 27  2  0  0  0  0
 14 28  1  0  0  0  0
 15 23  1  0  0  0  0
 15 67  2  0  0  0  0
 16 23  2  0  0  0  0
 16 69  1  0  0  0  0
 17 29  1  0  0  0  0
 18 29  1  0  0  0  0
 18 30  2  0  0  0  0
 18 31  1  0  0  0  0
 19 21  2  0  0  0  0
 19 36  1  0  0  0  0
 20 22  2  0  0  0  0
 20 37  1  0  0  0  0
 21 45  1  0  0  0  0
 22 38  1  0  0  0  0
 23 64  1  0  0  0  0
 24 84  1  0  0  0  0
 25 85  1  0  0  0  0
 26 28  2  0  0  0  0
 26 84  1  0  0  0  0
 27 86  1  0  0  0  0
 28 87  1  0  0  0  0
 29 68  2  0  0  0  0
 30 70  1  0  0  0  0
 30 73  1  0  0  0  0
 31 74  1  0  0  0  0
 31 79  2  0  0  0  0
 32 46  1  0  0  0  0
 32 75  1  0  0  0  0
 32 80  2  0  0  0  0
 33 61  1  0  0  0  0
 33 71  1  0  0  0  0
 33 81  2  0  0  0  0
 34 62  1  0  0  0  0
 34 76  1  0  0  0  0
 34 82  2  0  0  0  0
 35 72  1  0  0  0  0
 35 77  1  0  0  0  0
 35 83  2  0  0  0  0
 36 39  1  0  0  0  0
 37 46  1  0  0  0  0
 38 71  1  0  0  0  0
 39 41  1  0  0  0  0
 40 42  1  0  0  0  0
 40 43  1  0  0  0  0
 41 45  1  0  0  0  0
 42 47  1  0  0  0  0
 43 72  1  0  0  0  0
 44 47  1  0  0  0  0
 44 72  1  0  0  0  0
 45 75  1  0  0  0  0
 46 71  1  0  0  0  0
 47 70  1  0  0  0  0
 48 58  1  0  0  0  0
 49 62  1  0  0  0  0
 50 63  1  0  0  0  0
 51 64  1  0  0  0  0
 52 65  1  0  0  0  0
 53 65  1  0  0  0  0
 54 65  1  0  0  0  0
 55 66  1  0  0  0  0
 56 66  1  0  0  0  0
 57 78  1  0  0  0  0
 58 64  1  0  0  0  0
 59 66  1  0  0  0  0
 59 77  1  0  0  0  0
 60 64  1  0  0  0  0
 60 85  1  0  0  0  0
 61 65  1  0  0  0  0
 61 76  1  0  0  0  0
 62 78  1  0  0  0  0
 63 66  1  0  0  0  0
 63 69  1  0  0  0  0
 67 69  1  0  0  0  0
 68 70  1  0  0  0  0
M  CHG  1  78   1
M  ISO  4  35 100  60 101  77 100  85 101
M  END
> <Batch ID>
0067

> <Smiles>
CCC(C)(c1cnn(C(C)C(C)(C)C[100NH:0][100C:0](=O)N2CCCC(n3nc(-c4ccc(Oc5ccc(F)cc5F)cc4)c(C(N)=O)c3N)C2)c1)[101CH2:1][101O:1]c1ccc2c(c1)CN(C(=O)C(NC(=O)C(C)NC)C(C)(C)C)C(C(=O)NC1CCCc3ccccc31)C2

> <Shape>
0.280

> <Color>
0.120

> <Negative vol penalty>
0.000

$$$$

  -OEChem-04052318123D

 91100  0     1  0  0  0  0  0999 V2000
  -25.5825  -31.9336   23.9528 C   0  0  0  0  0  0  0  0  0  0  0  0
  -26.1614  -30.7190   24.3064 C   0  0  0  0  0  0  0  0  0  0  0  0
  -23.9082  -24.0382   24.4708 C   0  0  0  0  0  0  0  0  0  0  0  0
  -21.7437  -23.1215   23.9128 C   0  0  0  0  0  0  0  0  0  0  0  0
  -24.9434  -32.0676   22.7210 C   0  0  0  0  0  0  0  0  0  0  0  0
  -26.1004  -29.6372   23.4287 C   0  0  0  0  0  0  0  0  0  0  0  0
  -29.8650  -23.9018   21.3671 C   0  0  0  0  0  0  0  0  0  0  0  0
  -23.6244  -25.1720   23.7096 C   0  0  0  0  0  0  0  0  0  0  0  0
  -21.4598  -24.2554   23.1515 C   0  0  0  0  0  0  0  0  0  0  0  0
  -29.7254  -22.5246   21.2011 C   0  0  0  0  0  0  0  0  0  0  0  0
  -20.4674  -27.4386   23.7018 C   0  0  0  0  0  0  0  0  0  0  0  0
  -19.2081  -28.0193   23.8517 C   0  0  0  0  0  0  0  0  0  0  0  0
  -28.6643  -22.8954   19.0667 C   0  0  0  0  0  0  0  0  0  0  0  0
  -26.9135  -13.4558   20.8065 C   0  0  0  0  0  0  0  0  0  0  0  0
  -18.7590  -27.6508   21.5065 C   0  0  0  0  0  0  0  0  0  0  0  0
  -26.5051  -14.1070   18.5557 C   0  0  0  0  0  0  0  0  0  0  0  0
  -28.0052  -17.8474   20.6226 C   0  0  0  0  0  0  0  0  0  0  0  0
  -30.1081  -16.4116   19.8205 C   0  0  0  0  0  0  0  0  0  0  0  0
  -22.9679  -23.0129   24.5724 C   0  0  0  0  0  0  0  0  0  0  0  0
  -22.9907  -21.6455   26.7258 C   0  0  0  0  0  0  0  0  0  0  0  0
  -24.8830  -30.9897   21.8237 C   0  0  0  0  0  0  0  0  0  0  0  0
  -29.3946  -24.7881   20.3874 C   0  0  0  0  0  0  0  0  0  0  0  0
  -25.4587  -29.7564   22.1842 C   0  0  0  0  0  0  0  0  0  0  0  0
  -28.8014  -24.2833   19.2215 C   0  0  0  0  0  0  0  0  0  0  0  0
  -25.6170  -12.9567   20.8653 C   0  0  0  0  0  0  0  0  0  0  0  0
  -22.4002  -25.2806   23.0499 C   0  0  0  0  0  0  0  0  0  0  0  0
  -29.1224  -22.0213   20.0522 C   0  0  0  0  0  0  0  0  0  0  0  0
  -20.8725  -26.9640   22.4542 C   0  0  0  0  0  0  0  0  0  0  0  0
  -27.3737  -14.0435   19.6334 C   0  0  0  0  0  0  0  0  0  0  0  0
  -18.3538  -28.1254   22.7541 C   0  0  0  0  0  0  0  0  0  0  0  0
  -20.0183  -27.0700   21.3567 C   0  0  0  0  0  0  0  0  0  0  0  0
  -23.2607  -21.8412   25.3581 C   0  0  0  0  0  0  0  0  0  0  0  0
  -29.2628  -18.4054   20.5549 C   0  0  0  0  0  0  0  0  0  0  0  0
  -24.8270  -13.0691   19.7326 C   0  0  0  0  0  0  0  0  0  0  0  0
  -28.8508  -15.8532   19.8889 C   0  0  0  0  0  0  0  0  0  0  0  0
  -23.4571  -20.3810   26.9904 C   0  0  0  0  0  0  0  0  0  0  0  0
  -22.3735  -22.5279   27.6725 C   0  0  0  0  0  0  0  0  0  0  0  0
  -27.2081  -27.0939   20.3124 C   0  0  0  0  0  0  0  0  0  0  0  0
  -28.3906  -27.5831   17.3316 C   0  0  0  0  0  0  0  0  0  0  0  0
  -30.0316  -26.3145   14.6216 C   0  0  0  0  0  0  0  0  0  0  0  0
  -24.1861  -15.6535   23.5299 C   0  0  0  0  0  0  0  0  0  0  0  0
  -24.1401  -31.1683   20.5233 C   0  0  0  0  0  0  0  0  0  0  0  0
  -29.5768  -26.2700   20.5692 C   0  0  0  0  0  0  0  0  0  0  0  0
  -28.2980  -25.1917   18.1306 C   0  0  0  0  0  0  0  0  0  0  0  0
  -24.4457  -30.0839   19.4933 C   0  0  0  0  0  0  0  0  0  0  0  0
  -26.7511  -17.2253   25.5419 C   0  0  0  0  0  0  0  0  0  0  0  0
  -24.3862  -28.7029   20.1384 C   0  0  0  0  0  0  0  0  0  0  0  0
  -26.1083  -18.5785   25.8514 C   0  0  0  0  0  0  0  0  0  0  0  0
  -26.4216  -16.7681   24.1239 C   0  0  0  0  0  0  0  0  0  0  0  0
  -24.3197  -18.0547   24.1290 C   0  0  0  0  0  0  0  0  0  0  0  0
  -25.4350  -28.5671   21.2488 C   0  0  1  0  0  0  0  0  0  0  0  0
  -28.5983  -27.0983   19.7423 C   0  0  1  0  0  0  0  0  0  0  0  0
  -24.5968  -18.5614   25.5561 C   0  0  2  0  0  0  0  0  0  0  0  0
  -30.8161  -26.9423   12.3221 C   0  0  0  0  0  0  0  0  0  0  0  0
  -25.5310  -27.3460   16.2940 C   0  0  0  0  0  0  0  0  0  0  0  0
  -26.4663  -27.0273   13.9935 C   0  0  0  0  0  0  0  0  0  0  0  0
  -26.8825  -29.1574   15.2232 C   0  0  0  0  0  0  0  0  0  0  0  0
  -32.8639  -25.8282   15.3289 C   0  0  0  0  0  0  0  0  0  0  0  0
  -25.1181  -12.3261   22.1191 C   0  0  0  0  0  0  0  0  0  0  0  0
  -29.4799  -19.8412   20.9327 C   0  0  0  0  0  0  0  0  0  1  0  0
  -24.2089  -13.2412   22.9495 C   0  0  0  0  0  0  0  0  0  0  0  0
  -28.0735  -27.0507   15.9550 C   0  0  1  0  0  0  0  0  0  0  0  0
  -31.1830  -26.8588   13.7955 C   0  0  2  0  0  0  0  0  0  0  0  0
  -23.4260  -12.5509   19.7380 C   0  0  0  0  0  0  0  0  0  0  0  0
  -26.7460  -27.6280   15.3877 C   0  0  0  0  0  0  0  0  0  0  0  0
  -25.2390  -13.6332   18.5752 N   0  0  0  0  0  0  0  0  0  0  0  0
  -30.3368  -17.6977   20.1523 N   0  0  0  0  0  0  0  0  0  0  0  0
  -27.7767  -16.5611   20.2911 N   0  0  0  0  0  0  0  0  0  0  0  0
  -23.8529  -20.7856   24.7933 N   0  0  0  0  0  0  0  0  0  0  0  0
  -23.9588  -19.9145   25.8111 N   0  0  0  0  0  0  0  0  0  0  0  0
  -28.4935  -26.6332   18.3578 N   0  0  0  0  0  0  0  0  0  0  0  0
  -24.9670  -16.7563   23.9140 N   0  0  0  0  0  0  0  0  0  0  0  0
  -23.4829  -19.6339   28.1145 N   0  0  0  0  0  0  0  0  0  0  0  0
  -21.9529  -23.7906   27.2332 N   0  0  0  0  0  0  0  0  0  0  0  0
  -26.7469  -28.3435   20.6802 N   0  0  0  0  0  0  0  0  0  0  0  0
  -29.2453  -27.3262   15.1309 N   0  0  0  0  0  0  0  0  0  0  0  0
  -24.8767  -14.4629   23.3399 N   0  0  0  0  0  0  0  0  0  0  0  0
  -32.3794  -25.9809   13.9329 N   0  3  0  0  0  0  0  0  0  0  0  0
  -22.2150  -22.2124   28.8762 O   0  0  0  0  0  0  0  0  0  0  0  0
  -26.5983  -26.0354   20.4098 O   0  0  0  0  0  0  0  0  0  0  0  0
  -28.5484  -28.7963   17.4893 O   0  0  0  0  0  0  0  0  0  0  0  0
  -29.8458  -25.1119   14.7943 O   0  0  0  0  0  0  0  0  0  0  0  0
  -22.9623  -15.7234   23.3731 O   0  0  0  0  0  0  0  0  0  0  0  0
  -22.1228  -26.3869   22.3072 O   0  0  0  0  0  0  0  0  0  0  0  0
  -28.6587  -14.5453   19.5440 O   0  0  0  0  0  0  0  0  0  0  0  0
  -28.9843  -20.6775   19.8880 O   0  0  0  0  0  0  0  0  0  1  0  0
  -17.1440  -28.6817   22.8985 F   0  0  0  0  0  0  0  0  0  0  0  0
  -20.4015  -26.6148   20.1559 F   0  0  0  0  0  0  0  0  0  0  0  0
  -23.0564  -11.9911   20.9269 F   0  0  0  0  0  0  0  0  0  0  0  0
  -22.4892  -13.5116   19.4880 F   0  0  0  0  0  0  0  0  0  0  0  0
  -23.2224  -11.5844   18.7972 F   0  0  0  0  0  0  0  0  0  0  0  0
  1  2  1  0  0  0  0
  1  5  2  0  0  0  0
  2  6  2  0  0  0  0
  3  8  2  0  0  0  0
  3 19  1  0  0  0  0
  4  9  1  0  0  0  0
  4 19  2  0  0  0  0
  5 21  1  0  0  0  0
  6 23  1  0  0  0  0
  7 10  2  0  0  0  0
  7 22  1  0  0  0  0
  8 26  1  0  0  0  0
  9 26  2  0  0  0  0
 10 27  1  0  0  0  0
 11 12  2  0  0  0  0
 11 28  1  0  0  0  0
 12 30  1  0  0  0  0
 13 24  1  0  0  0  0
 13 27  2  0  0  0  0
 14 25  1  0  0  0  0
 14 29  2  0  0  0  0
 15 30  2  0  0  0  0
 15 31  1  0  0  0  0
 16 29  1  0  0  0  0
 16 66  2  0  0  0  0
 17 33  1  0  0  0  0
 17 68  2  0  0  0  0
 18 35  2  0  0  0  0
 18 67  1  0  0  0  0
 19 32  1  0  0  0  0
 20 32  1  0  0  0  0
 20 36  2  0  0  0  0
 20 37  1  0  0  0  0
 21 23  2  0  0  0  0
 21 42  1  0  0  0  0
 22 24  2  0  0  0  0
 22 43  1  0  0  0  0
 23 51  1  0  0  0  0
 24 44  1  0  0  0  0
 25 34  2  0  0  0  0
 25 59  1  0  0  0  0
 26 84  1  0  0  0  0
 27 86  1  0  0  0  0
 28 31  2  0  0  0  0
 28 84  1  0  0  0  0
 29 85  1  0  0  0  0
 30 87  1  0  0  0  0
 31 88  1  0  0  0  0
 32 69  2  0  0  0  0
 33 60  1  0  0  0  0
 33 67  2  0  0  0  0
 34 64  1  0  0  0  0
 34 66  1  0  0  0  0
 35 68  1  0  0  0  0
 35 85  1  0  0  0  0
 36 70  1  0  0  0  0
 36 73  1  0  0  0  0
 37 74  1  0  0  0  0
 37 79  2  0  0  0  0
 38 52  1  0  0  0  0
 38 75  1  0  0  0  0
 38 80  2  0  0  0  0
 39 62  1  0  0  0  0
 39 71  1  0  0  0  0
 39 81  2  0  0  0  0
 40 63  1  0  0  0  0
 40 76  1  0  0  0  0
 40 82  2  0  0  0  0
 41 72  1  0  0  0  0
 41 77  1  0  0  0  0
 41 83  2  0  0  0  0
 42 45  1  0  0  0  0
 43 52  1  0  0  0  0
 44 71  1  0  0  0  0
 45 47  1  0  0  0  0
 46 48  1  0  0  0  0
 46 49  1  0  0  0  0
 47 51  1  0  0  0  0
 48 53  1  0  0  0  0
 49 72  1  0  0  0  0
 50 53  1  0  0  0  0
 50 72  1  0  0  0  0
 51 75  1  0  0  0  0
 52 71  1  0  0  0  0
 53 70  1  0  0  0  0
 54 63  1  0  0  0  0
 55 65  1  0  0  0  0
 56 65  1  0  0  0  0
 57 65  1  0  0  0  0
 58 78  1  0  0  0  0
 59 61  1  0  0  0  0
 60 86  1  0  0  0  0
 61 77  1  0  0  0  0
 62 65  1  0  0  0  0
 62 76  1  0  0  0  0
 63 78  1  0  0  0  0
 64 89  1  0  0  0  0
 64 90  1  0  0  0  0
 64 91  1  0  0  0  0
 69 70  1  0  0  0  0
M  CHG  1  78   1
M  ISO  4  41 100  60 101  77 100  86 101
M  END
> <Batch ID>
0067

> <Smiles>
CNC(C)C(=O)NC(C(=O)N1Cc2cc([101O:1][101CH2:1]c3cnc(Oc4cnc(C(F)(F)F)c(CC[100NH:0][100C:0](=O)N5CCCC(n6nc(-c7ccc(Oc8ccc(F)cc8F)cc7)c(C(N)=O)c6N)C5)c4)cn3)ccc2CC1C(=O)NC1CCCc2ccccc21)C(C)(C)C

> <Shape>
0.237

> <Color>
0.068

> <Negative vol penalty>
0.000

$$$$

  -OEChem-04052318123D

 93101  0     1  0  0  0  0  0999 V2000
  -19.6483  -30.1588   20.1558 C   0  0  0  0  0  0  0  0  0  0  0  0
  -20.6645  -30.5132   21.0358 C   0  0  0  0  0  0  0  0  0  0  0  0
  -28.5089  -19.4193   19.5569 C   0  0  0  0  0  0  0  0  0  0  0  0
  -28.5832  -19.9491   21.9130 C   0  0  0  0  0  0  0  0  0  0  0  0
  -18.9118  -28.9973   20.3789 C   0  0  0  0  0  0  0  0  0  0  0  0
  -20.9525  -29.7002   22.1326 C   0  0  0  0  0  0  0  0  0  0  0  0
  -24.5269  -23.1014   23.8459 C   0  0  0  0  0  0  0  0  0  0  0  0
  -28.4286  -20.7784   19.2538 C   0  0  0  0  0  0  0  0  0  0  0  0
  -28.5029  -21.3083   21.6099 C   0  0  0  0  0  0  0  0  0  0  0  0
  -24.6433  -21.9448   23.0762 C   0  0  0  0  0  0  0  0  0  0  0  0
  -28.5676  -24.1263   17.8442 C   0  0  0  0  0  0  0  0  0  0  0  0
  -29.3736  -24.6097   16.8135 C   0  0  0  0  0  0  0  0  0  0  0  0
  -25.0936  -23.2939   21.1278 C   0  0  0  0  0  0  0  0  0  0  0  0
  -31.3425  -23.8988   18.0198 C   0  0  0  0  0  0  0  0  0  0  0  0
  -19.9299  -14.4103   19.3366 C   0  0  0  0  0  0  0  0  0  0  0  0
  -28.5862  -19.0046   20.8865 C   0  0  0  0  0  0  0  0  0  0  0  0
  -29.8369  -16.8275   21.3375 C   0  0  0  0  0  0  0  0  0  0  0  0
  -19.1833  -28.1768   21.4862 C   0  0  0  0  0  0  0  0  0  0  0  0
  -24.6825  -24.3655   23.2591 C   0  0  0  0  0  0  0  0  0  0  0  0
  -20.2363  -28.5114   22.3617 C   0  0  0  0  0  0  0  0  0  0  0  0
  -24.9813  -24.4649   21.8928 C   0  0  0  0  0  0  0  0  0  0  0  0
  -20.6679  -15.5162   18.9670 C   0  0  0  0  0  0  0  0  0  0  0  0
  -28.4256  -21.7229   20.2803 C   0  0  0  0  0  0  0  0  0  0  0  0
  -24.9238  -22.0410   21.7163 C   0  0  0  0  0  0  0  0  0  0  0  0
  -29.1491  -23.5293   18.9628 C   0  0  0  0  0  0  0  0  0  0  0  0
  -30.7611  -24.4959   16.9013 C   0  0  0  0  0  0  0  0  0  0  0  0
  -30.5365  -23.4155   19.0506 C   0  0  0  0  0  0  0  0  0  0  0  0
  -28.6686  -17.6007   21.2003 C   0  0  0  0  0  0  0  0  0  0  0  0
  -21.8796  -15.6673   19.6098 C   0  0  0  0  0  0  0  0  0  0  0  0
  -29.3812  -15.5667   21.6363 C   0  0  0  0  0  0  0  0  0  0  0  0
  -21.5333  -13.7720   20.8160 C   0  0  0  0  0  0  0  0  0  0  0  0
  -31.2113  -17.2143   21.2068 C   0  0  0  0  0  0  0  0  0  0  0  0
  -22.8103  -26.9051   22.8731 C   0  0  0  0  0  0  0  0  0  0  0  0
  -25.5276  -28.2463   21.7154 C   0  0  0  0  0  0  0  0  0  0  0  0
  -23.4258  -14.5341   23.1405 C   0  0  0  0  0  0  0  0  0  0  0  0
  -28.5946  -27.8052   20.2852 C   0  0  0  0  0  0  0  0  0  0  0  0
  -18.3603  -26.9270   21.6756 C   0  0  0  0  0  0  0  0  0  0  0  0
  -24.5804  -25.6026   24.1085 C   0  0  0  0  0  0  0  0  0  0  0  0
  -25.1775  -25.7976   21.2189 C   0  0  0  0  0  0  0  0  0  0  0  0
  -18.4406  -26.3715   23.0938 C   0  0  0  0  0  0  0  0  0  0  0  0
  -25.6876  -12.6040   20.9969 C   0  0  0  0  0  0  0  0  0  0  0  0
  -19.8943  -26.2714   23.5312 C   0  0  0  0  0  0  0  0  0  0  0  0
  -26.6281  -13.7706   20.6771 C   0  0  0  0  0  0  0  0  0  0  0  0
  -25.0136  -12.7117   22.3643 C   0  0  0  0  0  0  0  0  0  0  0  0
  -25.7738  -15.0686   22.6566 C   0  0  0  0  0  0  0  0  0  0  0  0
  -20.5472  -27.6586   23.5784 C   0  0  1  0  0  0  0  0  0  0  0  0
  -24.2492  -26.8550   23.3028 C   0  0  1  0  0  0  0  0  0  0  0  0
  -27.0302  -14.5430   21.9413 C   0  0  2  0  0  0  0  0  0  0  0  0
  -30.5684  -29.0914   19.4208 C   0  0  0  0  0  0  0  0  0  0  0  0
  -18.7694  -16.0344   17.3945 C   0  0  0  0  0  0  0  0  0  0  0  0
  -21.1382  -16.5545   16.7204 C   0  0  0  0  0  0  0  0  0  0  0  0
  -19.9799  -17.9467   18.4238 C   0  0  0  0  0  0  0  0  0  0  0  0
  -20.9716  -11.6332   22.0688 C   0  0  0  0  0  0  0  0  0  0  0  0
  -23.2822  -11.9912   21.3518 C   0  0  0  0  0  0  0  0  0  0  0  0
  -22.8857  -12.4669   24.3071 C   0  0  0  0  0  0  0  0  0  0  0  0
  -23.9492  -28.9792   19.2091 C   0  0  0  0  0  0  0  0  0  0  0  0
  -26.1264  -29.3798   18.0397 C   0  0  0  0  0  0  0  0  0  0  0  0
  -25.5042  -30.7616   20.0211 C   0  0  0  0  0  0  0  0  0  0  0  0
  -30.4199  -26.5479   22.2465 C   0  0  0  0  0  0  0  0  0  0  0  0
  -22.7725  -16.8389   19.2872 C   0  0  0  0  0  0  0  0  0  0  0  0
  -23.0927  -17.7248   20.4963 C   0  0  0  0  0  0  0  0  0  0  0  0
  -23.9349  -18.9491   20.1351 C   0  0  0  0  0  0  0  0  0  0  0  0
  -24.2661  -19.7826   21.3656 C   0  0  0  0  0  0  0  0  0  1  0  0
  -26.1747  -28.3469   20.3553 C   0  0  1  0  0  0  0  0  0  0  0  0
  -29.9558  -28.3871   20.6214 C   0  0  2  0  0  0  0  0  0  0  0  0
  -20.1675  -16.4669   17.9418 C   0  0  0  0  0  0  0  0  0  0  0  0
  -22.0145  -12.8030   21.8425 C   0  0  0  0  0  0  0  0  0  0  0  0
  -22.3497  -13.4874   23.2767 C   0  0  2  0  0  0  0  0  0  0  0  0
  -25.4331  -29.3417   19.4183 C   0  0  0  0  0  0  0  0  0  0  0  0
  -21.1432  -14.1939   23.9301 C   0  0  0  0  0  0  0  0  0  0  0  0
  -20.3338  -13.5143   20.2610 N   0  0  0  0  0  0  0  0  0  0  0  0
  -27.5544  -16.8906   21.3957 N   0  0  0  0  0  0  0  0  0  0  0  0
  -22.3451  -14.8113   20.5430 N   0  0  0  0  0  0  0  0  0  0  0  0
  -28.0205  -15.6578   21.6586 N   0  0  0  0  0  0  0  0  0  0  0  0
  -25.0614  -26.9783   22.0906 N   0  0  0  0  0  0  0  0  0  0  0  0
  -24.6758  -14.0973   22.6986 N   0  0  0  0  0  0  0  0  0  0  0  0
  -30.0156  -14.4002   21.8793 N   0  0  0  0  0  0  0  0  0  0  0  0
  -31.5030  -18.5496   20.8965 N   0  0  0  0  0  0  0  0  0  0  0  0
  -21.9694  -27.5040   23.7915 N   0  0  0  0  0  0  0  0  0  0  0  0
  -27.5748  -28.6808   20.5930 N   0  0  0  0  0  0  0  0  0  0  0  0
  -30.8865  -27.3084   21.0587 N   0  3  0  0  0  0  0  0  0  0  0  0
  -32.1524  -16.3964   21.3443 O   0  0  0  0  0  0  0  0  0  0  0  0
  -22.4872  -26.4364   21.7879 O   0  0  0  0  0  0  0  0  0  0  0  0
  -25.4453  -29.2540   22.4221 O   0  0  0  0  0  0  0  0  0  0  0  0
  -23.1681  -15.7092   23.4155 O   0  0  0  0  0  0  0  0  0  0  0  0
  -28.4506  -26.6875   19.7950 O   0  0  0  0  0  0  0  0  0  0  0  0
  -28.3475  -23.0493   19.9848 O   0  0  0  0  0  0  0  0  0  0  0  0
  -25.0373  -20.9136   20.9626 O   0  0  0  0  0  0  0  0  0  1  0  0
  -31.5349  -24.9586   15.9107 F   0  0  0  0  0  0  0  0  0  0  0  0
  -31.1008  -22.8418   20.1221 F   0  0  0  0  0  0  0  0  0  0  0  0
  -20.6778  -15.2251   23.1962 F   0  0  0  0  0  0  0  0  0  0  0  0
  -21.4780  -14.6986   25.1440 F   0  0  0  0  0  0  0  0  0  0  0  0
  -20.1137  -13.3437   24.1389 F   0  0  0  0  0  0  0  0  0  0  0  0
  1  2  1  0  0  0  0
  1  5  2  0  0  0  0
  2  6  2  0  0  0  0
  3  8  2  0  0  0  0
  3 16  1  0  0  0  0
  4  9  1  0  0  0  0
  4 16  2  0  0  0  0
  5 18  1  0  0  0  0
  6 20  1  0  0  0  0
  7 10  2  0  0  0  0
  7 19  1  0  0  0  0
  8 23  1  0  0  0  0
  9 23  2  0  0  0  0
 10 24  1  0  0  0  0
 11 12  2  0  0  0  0
 11 25  1  0  0  0  0
 12 26  1  0  0  0  0
 13 21  1  0  0  0  0
 13 24  2  0  0  0  0
 14 26  2  0  0  0  0
 14 27  1  0  0  0  0
 15 22  1  0  0  0  0
 15 71  2  0  0  0  0
 16 28  1  0  0  0  0
 17 28  1  0  0  0  0
 17 30  2  0  0  0  0
 17 32  1  0  0  0  0
 18 20  2  0  0  0  0
 18 37  1  0  0  0  0
 19 21  2  0  0  0  0
 19 38  1  0  0  0  0
 20 46  1  0  0  0  0
 21 39  1  0  0  0  0
 22 29  2  0  0  0  0
 22 66  1  0  0  0  0
 23 87  1  0  0  0  0
 24 88  1  0  0  0  0
 25 27  2  0  0  0  0
 25 87  1  0  0  0  0
 26 89  1  0  0  0  0
 27 90  1  0  0  0  0
 28 72  2  0  0  0  0
 29 60  1  0  0  0  0
 29 73  1  0  0  0  0
 30 74  1  0  0  0  0
 30 77  1  0  0  0  0
 31 67  1  0  0  0  0
 31 71  1  0  0  0  0
 31 73  2  0  0  0  0
 32 78  1  0  0  0  0
 32 82  2  0  0  0  0
 33 47  1  0  0  0  0
 33 79  1  0  0  0  0
 33 83  2  0  0  0  0
 34 64  1  0  0  0  0
 34 75  1  0  0  0  0
 34 84  2  0  0  0  0
 35 68  1  0  0  0  0
 35 76  1  0  0  0  0
 35 85  2  0  0  0  0
 36 65  1  0  0  0  0
 36 80  1  0  0  0  0
 36 86  2  0  0  0  0
 37 40  1  0  0  0  0
 38 47  1  0  0  0  0
 39 75  1  0  0  0  0
 40 42  1  0  0  0  0
 41 43  1  0  0  0  0
 41 44  1  0  0  0  0
 42 46  1  0  0  0  0
 43 48  1  0  0  0  0
 44 76  1  0  0  0  0
 45 48  1  0  0  0  0
 45 76  1  0  0  0  0
 46 79  1  0  0  0  0
 47 75  1  0  0  0  0
 48 74  1  0  0  0  0
 49 65  1  0  0  0  0
 50 66  1  0  0  0  0
 51 66  1  0  0  0  0
 52 66  1  0  0  0  0
 53 67  1  0  0  0  0
 54 67  1  0  0  0  0
 55 68  1  0  0  0  0
 56 69  1  0  0  0  0
 57 69  1  0  0  0  0
 58 69  1  0  0  0  0
 59 81  1  0  0  0  0
 60 61  1  0  0  0  0
 61 62  1  0  0  0  0
 62 63  1  0  0  0  0
 63 88  1  0  0  0  0
 64 69  1  0  0  0  0
 64 80  1  0  0  0  0
 65 81  1  0  0  0  0
 67 68  1  0  0  0  0
 68 70  1  0  0  0  0
 70 91  1  0  0  0  0
 70 92  1  0  0  0  0
 70 93  1  0  0  0  0
 72 74  1  0  0  0  0
M  CHG  1  81   1
M  ISO  4  35 100  63 101  68 100  88 101
M  END
> <Batch ID>
0067

> <Smiles>
CNC(C)C(=O)NC(C(=O)N1Cc2cc([101O:1][101CH2:1]CCCc3nc(C(C)(C)[100C:0](C)([100C:0](=O)N4CCCC(n5nc(-c6ccc(Oc7ccc(F)cc7F)cc6)c(C(N)=O)c5N)C4)C(F)(F)F)ncc3C(C)(C)C)ccc2CC1C(=O)NC1CCCc2ccccc21)C(C)(C)C

> <Shape>
0.249

> <Color>
0.055

> <Negative vol penalty>
0.000

$$$$

  -OEChem-04052318123D

 88 96  0     1  0  0  0  0  0999 V2000
  -18.5792  -33.4250   24.0977 C   0  0  0  0  0  0  0  0  0  0  0  0
  -19.8016  -33.5204   23.4405 C   0  0  0  0  0  0  0  0  0  0  0  0
  -25.2704  -11.1281   20.3863 C   0  0  0  0  0  0  0  0  0  0  0  0
  -23.5573  -12.0704   21.8055 C   0  0  0  0  0  0  0  0  0  0  0  0
  -18.2393  -32.2509   24.7684 C   0  0  0  0  0  0  0  0  0  0  0  0
  -20.6855  -32.4419   23.4546 C   0  0  0  0  0  0  0  0  0  0  0  0
  -25.6398  -29.2308   19.3976 C   0  0  0  0  0  0  0  0  0  0  0  0
  -25.2927   -9.9787   21.1762 C   0  0  0  0  0  0  0  0  0  0  0  0
  -23.5795  -10.9210   22.5955 C   0  0  0  0  0  0  0  0  0  0  0  0
  -26.9611  -28.7899   19.4583 C   0  0  0  0  0  0  0  0  0  0  0  0
  -22.9281   -8.0853   24.7756 C   0  0  0  0  0  0  0  0  0  0  0  0
  -21.7042   -7.5328   25.1525 C   0  0  0  0  0  0  0  0  0  0  0  0
  -26.2337  -26.7834   20.5824 C   0  0  0  0  0  0  0  0  0  0  0  0
  -21.1291   -7.2204   22.8268 C   0  0  0  0  0  0  0  0  0  0  0  0
  -24.4027  -12.1740   20.7009 C   0  0  0  0  0  0  0  0  0  0  0  0
  -23.5752  -13.6017   18.7556 C   0  0  0  0  0  0  0  0  0  0  0  0
  -19.1153  -31.1541   24.7826 C   0  0  0  0  0  0  0  0  0  0  0  0
  -24.6051  -28.4549   19.9396 C   0  0  0  0  0  0  0  0  0  0  0  0
  -20.3576  -31.2525   24.1273 C   0  0  0  0  0  0  0  0  0  0  0  0
  -24.8998  -27.2154   20.5251 C   0  0  0  0  0  0  0  0  0  0  0  0
  -24.4472   -9.8751   22.2808 C   0  0  0  0  0  0  0  0  0  0  0  0
  -27.2586  -27.5674   20.0533 C   0  0  0  0  0  0  0  0  0  0  0  0
  -23.2526   -8.2055   23.4243 C   0  0  0  0  0  0  0  0  0  0  0  0
  -20.8046   -7.1003   24.1781 C   0  0  0  0  0  0  0  0  0  0  0  0
  -22.3531   -7.7730   22.4499 C   0  0  0  0  0  0  0  0  0  0  0  0
  -24.3797  -13.3617   19.8856 C   0  0  0  0  0  0  0  0  0  0  0  0
  -28.1536  -21.7283   18.6459 C   0  0  0  0  0  0  0  0  0  0  0  0
  -29.4588  -22.0924   18.8564 C   0  0  0  0  0  0  0  0  0  0  0  0
  -23.9279  -14.8639   18.3447 C   0  0  0  0  0  0  0  0  0  0  0  0
  -28.0448  -21.0028   20.7817 C   0  0  0  0  0  0  0  0  0  0  0  0
  -22.5965  -12.7589   18.1330 C   0  0  0  0  0  0  0  0  0  0  0  0
  -22.4726  -28.8660   22.2606 C   0  0  0  0  0  0  0  0  0  0  0  0
  -21.3186  -26.0375   21.1697 C   0  0  0  0  0  0  0  0  0  0  0  0
  -26.2245  -19.4386   21.3568 C   0  0  0  0  0  0  0  0  0  0  0  0
  -21.9086  -23.1139   19.5110 C   0  0  0  0  0  0  0  0  0  0  0  0
  -18.7243  -29.9228   25.5608 C   0  0  0  0  0  0  0  0  0  0  0  0
  -23.1820  -28.9322   19.8423 C   0  0  0  0  0  0  0  0  0  0  0  0
  -23.8230  -26.3354   21.1035 C   0  0  0  0  0  0  0  0  0  0  0  0
  -19.5571  -28.6918   25.2121 C   0  0  0  0  0  0  0  0  0  0  0  0
  -27.5974  -17.9231   18.3494 C   0  0  0  0  0  0  0  0  0  0  0  0
  -21.0409  -29.0437   25.1762 C   0  0  0  0  0  0  0  0  0  0  0  0
  -26.8652  -16.5821   18.3213 C   0  0  0  0  0  0  0  0  0  0  0  0
  -27.9031  -18.3658   19.7779 C   0  0  0  0  0  0  0  0  0  0  0  0
  -25.9651  -17.0868   20.6338 C   0  0  0  0  0  0  0  0  0  0  0  0
  -21.3325  -30.0954   24.0990 C   0  0  1  0  0  0  0  0  0  0  0  0
  -22.2665  -28.2980   20.8849 C   0  0  1  0  0  0  0  0  0  0  0  0
  -25.6112  -16.6192   19.2122 C   0  0  2  0  0  0  0  0  0  0  0  0
  -27.4919  -21.9352   17.3267 C   0  0  0  0  0  0  0  0  0  0  0  0
  -20.7815  -20.9837   18.8118 C   0  0  0  0  0  0  0  0  0  0  0  0
  -28.1379  -19.3979   22.7561 C   0  0  0  0  0  0  0  0  0  0  0  0
  -21.5191  -24.9953   24.0304 C   0  0  0  0  0  0  0  0  0  0  0  0
  -21.3075  -22.6710   23.1243 C   0  0  0  0  0  0  0  0  0  0  0  0
  -19.4479  -24.3040   22.8110 C   0  0  0  0  0  0  0  0  0  0  0  0
  -25.5309  -22.3380   22.0812 C   0  0  0  0  0  0  0  0  0  0  0  0
  -25.7207  -20.7526   23.9807 C   0  0  0  0  0  0  0  0  0  0  0  0
  -27.5225  -22.4270   23.5630 C   0  0  0  0  0  0  0  0  0  0  0  0
  -22.3501  -23.6862   16.6411 C   0  0  0  0  0  0  0  0  0  0  0  0
  -30.3004  -22.7204   17.7740 C   0  0  0  0  0  0  0  0  0  0  0  0
  -30.8973  -24.0778   18.1626 C   0  0  0  0  0  0  0  0  0  0  0  0
  -29.8326  -25.1467   18.4288 C   0  0  0  0  0  0  0  0  0  0  0  0
  -30.4704  -26.4720   18.8418 C   0  0  0  0  0  0  0  0  0  0  0  0
  -29.4230  -27.5530   19.0679 C   0  0  0  0  0  0  0  0  0  1  0  0
  -21.5806  -24.5840   21.4822 C   0  0  1  0  0  0  0  0  0  0  0  0
  -21.1379  -22.4067   18.4109 C   0  0  2  0  0  0  0  0  0  0  0  0
  -27.2672  -20.3868   21.8931 C   0  0  1  0  0  0  0  0  0  0  0  0
  -20.9845  -24.1558   22.8529 C   0  0  0  0  0  0  0  0  0  0  0  0
  -26.5347  -21.4565   22.8659 C   0  0  0  0  0  0  0  0  0  0  0  0
  -25.1831  -14.3890   20.1741 N   0  0  0  0  0  0  0  0  0  0  0  0
  -27.4092  -21.1701   19.6124 N   0  0  0  0  0  0  0  0  0  0  0  0
  -30.0440  -21.8996   20.0524 N   0  0  0  0  0  0  0  0  0  0  0  0
  -29.3225  -21.3400   21.0459 N   0  0  0  0  0  0  0  0  0  0  0  0
  -24.8852  -15.2867   19.2193 N   0  0  0  0  0  0  0  0  0  0  0  0
  -22.4479  -26.8488   20.9897 N   0  0  0  0  0  0  0  0  0  0  0  0
  -26.6879  -18.3614   20.6011 N   0  0  0  0  0  0  0  0  0  0  0  0
  -23.5096  -15.6423   17.3241 N   0  0  0  0  0  0  0  0  0  0  0  0
  -22.3575  -11.4926   18.6840 N   0  0  0  0  0  0  0  0  0  0  0  0
  -21.3543  -29.4833   22.7878 N   0  0  0  0  0  0  0  0  0  0  0  0
  -21.0717  -23.8240   20.3457 N   0  0  0  0  0  0  0  0  0  0  0  0
  -21.9491  -22.3539   17.1618 N   0  3  0  0  0  0  0  0  0  0  0  0
  -21.9647  -13.1117   17.1083 O   0  0  0  0  0  0  0  0  0  0  0  0
  -23.5649  -28.7514   22.8042 O   0  0  0  0  0  0  0  0  0  0  0  0
  -20.1548  -26.4368   21.0812 O   0  0  0  0  0  0  0  0  0  0  0  0
  -25.0341  -19.6522   21.6010 O   0  0  0  0  0  0  0  0  0  0  0  0
  -23.1305  -23.0406   19.6213 O   0  0  0  0  0  0  0  0  0  0  0  0
  -24.4685   -8.7537   23.0518 O   0  0  0  0  0  0  0  0  0  0  0  0
  -28.5474  -27.1351   20.1144 O   0  0  0  0  0  0  0  0  0  1  0  0
  -19.6299   -6.5682   24.5402 F   0  0  0  0  0  0  0  0  0  0  0  0
  -22.6597   -7.8848   21.1502 F   0  0  0  0  0  0  0  0  0  0  0  0
  1  2  1  0  0  0  0
  1  5  2  0  0  0  0
  2  6  2  0  0  0  0
  3  8  2  0  0  0  0
  3 15  1  0  0  0  0
  4  9  1  0  0  0  0
  4 15  2  0  0  0  0
  5 17  1  0  0  0  0
  6 19  1  0  0  0  0
  7 10  2  0  0  0  0
  7 18  1  0  0  0  0
  8 21  1  0  0  0  0
  9 21  2  0  0  0  0
 10 22  1  0  0  0  0
 11 12  2  0  0  0  0
 11 23  1  0  0  0  0
 12 24  1  0  0  0  0
 13 20  1  0  0  0  0
 13 22  2  0  0  0  0
 14 24  2  0  0  0  0
 14 25  1  0  0  0  0
 15 26  1  0  0  0  0
 16 26  1  0  0  0  0
 16 29  2  0  0  0  0
 16 31  1  0  0  0  0
 17 19  2  0  0  0  0
 17 36  1  0  0  0  0
 18 20  2  0  0  0  0
 18 37  1  0  0  0  0
 19 45  1  0  0  0  0
 20 38  1  0  0  0  0
 21 85  1  0  0  0  0
 22 86  1  0  0  0  0
 23 25  2  0  0  0  0
 23 85  1  0  0  0  0
 24 87  1  0  0  0  0
 25 88  1  0  0  0  0
 26 68  2  0  0  0  0
 27 28  2  0  0  0  0
 27 48  1  0  0  0  0
 27 69  1  0  0  0  0
 28 58  1  0  0  0  0
 28 70  1  0  0  0  0
 29 72  1  0  0  0  0
 29 75  1  0  0  0  0
 30 65  1  0  0  0  0
 30 69  2  0  0  0  0
 30 71  1  0  0  0  0
 31 76  1  0  0  0  0
 31 80  2  0  0  0  0
 32 46  1  0  0  0  0
 32 77  1  0  0  0  0
 32 81  2  0  0  0  0
 33 63  1  0  0  0  0
 33 73  1  0  0  0  0
 33 82  2  0  0  0  0
 34 65  1  0  0  0  0
 34 74  1  0  0  0  0
 34 83  2  0  0  0  0
 35 64  1  0  0  0  0
 35 78  1  0  0  0  0
 35 84  2  0  0  0  0
 36 39  1  0  0  0  0
 37 46  1  0  0  0  0
 38 73  1  0  0  0  0
 39 41  1  0  0  0  0
 40 42  1  0  0  0  0
 40 43  1  0  0  0  0
 41 45  1  0  0  0  0
 42 47  1  0  0  0  0
 43 74  1  0  0  0  0
 44 47  1  0  0  0  0
 44 74  1  0  0  0  0
 45 77  1  0  0  0  0
 46 73  1  0  0  0  0
 47 72  1  0  0  0  0
 49 64  1  0  0  0  0
 50 65  1  0  0  0  0
 51 66  1  0  0  0  0
 52 66  1  0  0  0  0
 53 66  1  0  0  0  0
 54 67  1  0  0  0  0
 55 67  1  0  0  0  0
 56 67  1  0  0  0  0
 57 79  1  0  0  0  0
 58 59  1  0  0  0  0
 59 60  1  0  0  0  0
 60 61  1  0  0  0  0
 61 62  1  0  0  0  0
 62 86  1  0  0  0  0
 63 66  1  0  0  0  0
 63 78  1  0  0  0  0
 64 79  1  0  0  0  0
 65 67  1  0  0  0  0
 68 72  1  0  0  0  0
 70 71  2  0  0  0  0
M  CHG  1  79   1
M  ISO  4  34 100  62 101  65 100  86 101
M  END
> <Batch ID>
0067

> <Smiles>
CNC(C)C(=O)NC(C(=O)N1Cc2cc([101O:1][101CH2:1]CCCCc3nnc([100C:0](C)([100C:0](=O)N4CCCC(n5nc(-c6ccc(Oc7ccc(F)cc7F)cc6)c(C(N)=O)c5N)C4)C(C)(C)C)nc3C)ccc2CC1C(=O)NC1CCCc2ccccc21)C(C)(C)C

> <Shape>
0.233

> <Color>
0.074

> <Negative vol penalty>
0.000

$$$$

  -OEChem-04052318123D

 90 98  0     1  0  0  0  0  0999 V2000
  -32.4984  -13.0985   21.0114 C   0  0  0  0  0  0  0  0  0  0  0  0
  -31.9285  -14.3160   21.3695 C   0  0  0  0  0  0  0  0  0  0  0  0
  -29.5298  -23.8878   21.1482 C   0  0  0  0  0  0  0  0  0  0  0  0
  -27.5061  -23.6768   19.8456 C   0  0  0  0  0  0  0  0  0  0  0  0
  -31.7599  -12.1748   20.2729 C   0  0  0  0  0  0  0  0  0  0  0  0
  -30.6200  -14.6110   20.9884 C   0  0  0  0  0  0  0  0  0  0  0  0
  -26.4993  -17.8407   24.1656 C   0  0  0  0  0  0  0  0  0  0  0  0
  -29.7878  -22.5290   20.9676 C   0  0  0  0  0  0  0  0  0  0  0  0
  -27.7640  -22.3179   19.6649 C   0  0  0  0  0  0  0  0  0  0  0  0
  -26.0893  -19.1710   24.0895 C   0  0  0  0  0  0  0  0  0  0  0  0
  -29.7499  -20.3987   17.7173 C   0  0  0  0  0  0  0  0  0  0  0  0
  -29.5875  -19.8747   16.4349 C   0  0  0  0  0  0  0  0  0  0  0  0
  -24.2316  -18.5126   22.6986 C   0  0  0  0  0  0  0  0  0  0  0  0
  -27.9143  -18.3458   17.2716 C   0  0  0  0  0  0  0  0  0  0  0  0
  -21.9923  -27.3770   20.7222 C   0  0  0  0  0  0  0  0  0  0  0  0
  -28.3889  -24.4617   20.5872 C   0  0  0  0  0  0  0  0  0  0  0  0
  -28.5407  -26.9273   19.9504 C   0  0  0  0  0  0  0  0  0  0  0  0
  -30.4384  -12.4546   19.8908 C   0  0  0  0  0  0  0  0  0  0  0  0
  -25.7836  -16.8360   23.4987 C   0  0  0  0  0  0  0  0  0  0  0  0
  -29.8636  -13.6907   20.2429 C   0  0  0  0  0  0  0  0  0  0  0  0
  -24.6331  -17.1699   22.7700 C   0  0  0  0  0  0  0  0  0  0  0  0
  -28.9049  -21.7441   20.2260 C   0  0  0  0  0  0  0  0  0  0  0  0
  -24.9569  -19.5075   23.3536 C   0  0  0  0  0  0  0  0  0  0  0  0
  -28.9946  -19.8963   18.7769 C   0  0  0  0  0  0  0  0  0  0  0  0
  -28.6697  -18.8482   16.2120 C   0  0  0  0  0  0  0  0  0  0  0  0
  -28.0768  -18.8698   18.5540 C   0  0  0  0  0  0  0  0  0  0  0  0
  -28.1216  -25.8652   20.7739 C   0  0  0  0  0  0  0  0  0  0  0  0
  -22.9159  -27.5337   19.7276 C   0  0  0  0  0  0  0  0  0  0  0  0
  -28.0333  -28.0514   20.5550 C   0  0  0  0  0  0  0  0  0  0  0  0
  -22.9308  -29.3667   20.9687 C   0  0  0  0  0  0  0  0  0  0  0  0
  -29.3189  -26.9002   18.7466 C   0  0  0  0  0  0  0  0  0  0  0  0
  -26.4553  -14.7623   21.1852 C   0  0  0  0  0  0  0  0  0  0  0  0
  -23.4943  -13.6304   21.8735 C   0  0  0  0  0  0  0  0  0  0  0  0
  -23.7906  -30.6578   22.8968 C   0  0  0  0  0  0  0  0  0  0  0  0
  -20.3924  -14.2275   23.1652 C   0  0  0  0  0  0  0  0  0  0  0  0
  -29.6958  -11.4444   19.0525 C   0  0  0  0  0  0  0  0  0  0  0  0
  -26.2236  -15.4022   23.6127 C   0  0  0  0  0  0  0  0  0  0  0  0
  -23.8182  -16.1261   22.0524 C   0  0  0  0  0  0  0  0  0  0  0  0
  -28.1881  -11.6793   19.0093 C   0  0  0  0  0  0  0  0  0  0  0  0
  -25.9157  -28.6887   25.0954 C   0  0  0  0  0  0  0  0  0  0  0  0
  -27.8843  -13.1510   18.7472 C   0  0  0  0  0  0  0  0  0  0  0  0
  -26.6943  -27.8417   24.0898 C   0  0  0  0  0  0  0  0  0  0  0  0
  -24.4820  -28.9336   24.6320 C   0  0  0  0  0  0  0  0  0  0  0  0
  -25.1625  -28.6984   22.2643 C   0  0  0  0  0  0  0  0  0  0  0  0
  -28.4386  -14.0370   19.8694 C   0  0  1  0  0  0  0  0  0  0  0  0
  -25.7139  -14.5282   22.4710 C   0  0  1  0  0  0  0  0  0  0  0  0
  -26.6228  -28.4540   22.6800 C   0  0  2  0  0  0  0  0  0  0  0  0
  -18.1741  -13.1206   23.5544 C   0  0  0  0  0  0  0  0  0  0  0  0
  -24.8169  -26.7777   18.1446 C   0  0  0  0  0  0  0  0  0  0  0  0
  -22.4795  -26.9358   17.3359 C   0  0  0  0  0  0  0  0  0  0  0  0
  -22.0407  -31.6558   21.4789 C   0  0  0  0  0  0  0  0  0  0  0  0
  -24.4111  -31.4719   20.7166 C   0  0  0  0  0  0  0  0  0  0  0  0
  -22.8276  -13.9303   18.9111 C   0  0  0  0  0  0  0  0  0  0  0  0
  -20.4040  -13.7362   19.5084 C   0  0  0  0  0  0  0  0  0  0  0  0
  -21.9563  -11.8389   19.9700 C   0  0  0  0  0  0  0  0  0  0  0  0
  -20.8722  -27.4503   23.3507 C   0  0  0  0  0  0  0  0  0  0  0  0
  -19.8856  -29.4739   22.2058 C   0  0  0  0  0  0  0  0  0  0  0  0
  -21.8628  -29.7031   23.6915 C   0  0  0  0  0  0  0  0  0  0  0  0
  -20.6012  -14.5776   26.0965 C   0  0  0  0  0  0  0  0  0  0  0  0
  -23.4867  -23.1506   20.5059 C   0  0  0  0  0  0  0  0  0  0  0  0
  -23.8283  -24.6136   20.2065 C   0  0  0  0  0  0  0  0  0  0  0  0
  -24.1815  -22.6680   21.7827 C   0  0  0  0  0  0  0  0  0  0  0  0
  -23.1012  -25.1023   18.9447 C   0  0  0  0  0  0  0  0  0  0  0  0
  -23.8769  -21.2063   22.0871 C   0  0  0  0  0  0  0  0  0  1  0  0
  -22.0964  -13.9278   21.3873 C   0  0  1  0  0  0  0  0  0  0  0  0
  -19.5397  -13.4394   24.1430 C   0  0  2  0  0  0  0  0  0  0  0  0
  -23.3420  -26.6012   18.5790 C   0  0  0  0  0  0  0  0  0  0  0  0
  -23.2797  -30.7159   21.4792 C   0  0  0  0  0  0  0  0  0  0  0  0
  -21.8373  -13.3785   19.9560 C   0  0  0  0  0  0  0  0  0  0  0  0
  -21.1974  -28.7822   22.6388 C   0  0  0  0  0  0  0  0  0  0  0  0
  -27.4035  -26.2777   21.8219 N   0  0  0  0  0  0  0  0  0  0  0  0
  -22.0231  -28.5259   21.4753 N   0  0  0  0  0  0  0  0  0  0  0  0
  -27.3674  -27.6114   21.6610 N   0  0  0  0  0  0  0  0  0  0  0  0
  -23.4810  -28.7736   19.9043 N   0  3  0  0  0  0  0  0  0  0  0  0
  -24.2926  -14.7391   22.1888 N   0  0  0  0  0  0  0  0  0  0  0  0
  -24.4562  -29.4913   23.2746 N   0  0  0  0  0  0  0  0  0  0  0  0
  -28.0964  -29.3633   20.2432 N   0  0  0  0  0  0  0  0  0  0  0  0
  -29.7599  -25.6605   18.2638 N   0  0  0  0  0  0  0  0  0  0  0  0
  -27.5805  -13.9747   21.0331 N   0  0  0  0  0  0  0  0  0  0  0  0
  -21.1905  -13.4014   22.4024 N   0  0  0  0  0  0  0  0  0  0  0  0
  -19.3403  -14.2159   25.3993 N   0  3  0  0  0  0  0  0  0  0  0  0
  -29.6285  -27.9459   18.1266 O   0  0  0  0  0  0  0  0  0  0  0  0
  -26.0366  -15.5948   20.3893 O   0  0  0  0  0  0  0  0  0  0  0  0
  -23.8619  -12.4575   21.9767 O   0  0  0  0  0  0  0  0  0  0  0  0
  -23.6004  -31.6200   23.6452 O   0  0  0  0  0  0  0  0  0  0  0  0
  -20.3516  -15.4531   23.0834 O   0  0  0  0  0  0  0  0  0  0  0  0
  -29.1565  -20.4181   20.0493 O   0  0  0  0  0  0  0  0  0  0  0  0
  -24.5549  -20.8054   23.2771 O   0  0  0  0  0  0  0  0  0  1  0  0
  -28.5127  -18.3461   14.9802 F   0  0  0  0  0  0  0  0  0  0  0  0
  -27.3475  -18.3838   19.5678 F   0  0  0  0  0  0  0  0  0  0  0  0
  1  2  1  0  0  0  0
  1  5  2  0  0  0  0
  2  6  2  0  0  0  0
  3  8  2  0  0  0  0
  3 16  1  0  0  0  0
  4  9  1  0  0  0  0
  4 16  2  0  0  0  0
  5 18  1  0  0  0  0
  6 20  1  0  0  0  0
  7 10  2  0  0  0  0
  7 19  1  0  0  0  0
  8 22  1  0  0  0  0
  9 22  2  0  0  0  0
 10 23  1  0  0  0  0
 11 12  2  0  0  0  0
 11 24  1  0  0  0  0
 12 25  1  0  0  0  0
 13 21  1  0  0  0  0
 13 23  2  0  0  0  0
 14 25  2  0  0  0  0
 14 26  1  0  0  0  0
 15 28  2  0  0  0  0
 15 72  1  0  0  0  0
 16 27  1  0  0  0  0
 17 27  1  0  0  0  0
 17 29  2  0  0  0  0
 17 31  1  0  0  0  0
 18 20  2  0  0  0  0
 18 36  1  0  0  0  0
 19 21  2  0  0  0  0
 19 37  1  0  0  0  0
 20 45  1  0  0  0  0
 21 38  1  0  0  0  0
 22 87  1  0  0  0  0
 23 88  1  0  0  0  0
 24 26  2  0  0  0  0
 24 87  1  0  0  0  0
 25 89  1  0  0  0  0
 26 90  1  0  0  0  0
 27 71  2  0  0  0  0
 28 67  1  0  0  0  0
 28 74  1  0  0  0  0
 29 73  1  0  0  0  0
 29 77  1  0  0  0  0
 30 68  1  0  0  0  0
 30 72  1  0  0  0  0
 30 74  2  0  0  0  0
 31 78  1  0  0  0  0
 31 82  2  0  0  0  0
 32 46  1  0  0  0  0
 32 79  1  0  0  0  0
 32 83  2  0  0  0  0
 33 65  1  0  0  0  0
 33 75  1  0  0  0  0
 33 84  2  0  0  0  0
 34 68  1  0  0  0  0
 34 76  1  0  0  0  0
 34 85  2  0  0  0  0
 35 66  1  0  0  0  0
 35 80  1  0  0  0  0
 35 86  2  0  0  0  0
 36 39  1  0  0  0  0
 37 46  1  0  0  0  0
 38 75  1  0  0  0  0
 39 41  1  0  0  0  0
 40 42  1  0  0  0  0
 40 43  1  0  0  0  0
 41 45  1  0  0  0  0
 42 47  1  0  0  0  0
 43 76  1  0  0  0  0
 44 47  1  0  0  0  0
 44 76  1  0  0  0  0
 45 79  1  0  0  0  0
 46 75  1  0  0  0  0
 47 73  1  0  0  0  0
 48 66  1  0  0  0  0
 49 67  1  0  0  0  0
 50 67  1  0  0  0  0
 51 68  1  0  0  0  0
 52 68  1  0  0  0  0
 53 69  1  0  0  0  0
 54 69  1  0  0  0  0
 55 69  1  0  0  0  0
 56 70  1  0  0  0  0
 57 70  1  0  0  0  0
 58 70  1  0  0  0  0
 59 81  1  0  0  0  0
 60 61  1  0  0  0  0
 60 62  1  0  0  0  0
 61 63  1  0  0  0  0
 62 64  1  0  0  0  0
 63 67  1  0  0  0  0
 64 88  1  0  0  0  0
 65 69  1  0  0  0  0
 65 80  1  0  0  0  0
 66 81  1  0  0  0  0
 70 72  1  0  0  0  0
 71 73  1  0  0  0  0
M  CHG  2  74   1  81   1
M  ISO  4  34 100  64 101  68 100  88 101
M  END
> <Batch ID>
0067

> <Smiles>
CNC(C)C(=O)NC(C(=O)N1Cc2cc([101O:1][101CH2:1]CCCCC(C)(C)c3cn(C(C)(C)C)c([100C:0](C)(C)[100C:0](=O)N4CCCC(n5nc(-c6ccc(Oc7ccc(F)cc7F)cc6)c(C(N)=O)c5N)C4)n3)ccc2CC1C(=O)NC1CCCc2ccccc21)C(C)(C)C

> <Shape>
0.254

> <Color>
0.064

> <Negative vol penalty>
0.000

$$$$

  -OEChem-04052318123D

 94102  0     1  0  0  0  0  0999 V2000
  -18.2841  -32.0876   20.1406 C   0  0  0  0  0  0  0  0  0  0  0  0
  -19.6602  -32.0583   19.9388 C   0  0  0  0  0  0  0  0  0  0  0  0
  -26.4529  -13.1167   21.6306 C   0  0  0  0  0  0  0  0  0  0  0  0
  -25.9186  -14.0992   19.4890 C   0  0  0  0  0  0  0  0  0  0  0  0
  -17.7223  -31.3891   21.2085 C   0  0  0  0  0  0  0  0  0  0  0  0
  -20.4756  -31.3313   20.8055 C   0  0  0  0  0  0  0  0  0  0  0  0
  -25.5900  -28.2867   19.3639 C   0  0  0  0  0  0  0  0  0  0  0  0
  -25.1979  -12.5090   21.6649 C   0  0  0  0  0  0  0  0  0  0  0  0
  -24.6636  -13.4914   19.5233 C   0  0  0  0  0  0  0  0  0  0  0  0
  -26.9403  -28.6157   19.4749 C   0  0  0  0  0  0  0  0  0  0  0  0
  -23.7012   -9.8054   20.2926 C   0  0  0  0  0  0  0  0  0  0  0  0
  -23.6399   -8.4660   20.6769 C   0  0  0  0  0  0  0  0  0  0  0  0
  -27.0483  -27.4374   21.5770 C   0  0  0  0  0  0  0  0  0  0  0  0
  -31.0299  -28.3375   14.7551 C   0  0  0  0  0  0  0  0  0  0  0  0
  -22.2110   -9.0634   22.5312 C   0  0  0  0  0  0  0  0  0  0  0  0
  -26.8133  -13.9119   20.5427 C   0  0  0  0  0  0  0  0  0  0  0  0
  -29.2966  -14.0104   19.9673 C   0  0  0  0  0  0  0  0  0  0  0  0
  -18.5301  -30.6454   22.0831 C   0  0  0  0  0  0  0  0  0  0  0  0
  -24.9550  -27.5386   20.3656 C   0  0  0  0  0  0  0  0  0  0  0  0
  -19.9241  -30.6234   21.8870 C   0  0  0  0  0  0  0  0  0  0  0  0
  -25.6905  -27.0981   21.4751 C   0  0  0  0  0  0  0  0  0  0  0  0
  -31.6259  -28.8111   15.9186 C   0  0  0  0  0  0  0  0  0  0  0  0
  -30.2483  -27.1884   14.7991 C   0  0  0  0  0  0  0  0  0  0  0  0
  -24.3033  -12.6963   20.6113 C   0  0  0  0  0  0  0  0  0  0  0  0
  -27.6690  -28.1935   20.5830 C   0  0  0  0  0  0  0  0  0  0  0  0
  -23.0174  -10.7739   21.0276 C   0  0  0  0  0  0  0  0  0  0  0  0
  -22.8948   -8.0950   21.7962 C   0  0  0  0  0  0  0  0  0  0  0  0
  -22.2723  -10.4029   22.1469 C   0  0  0  0  0  0  0  0  0  0  0  0
  -28.1093  -14.5405   20.5069 C   0  0  0  0  0  0  0  0  0  0  0  0
  -31.4110  -28.1049   17.0912 C   0  0  0  0  0  0  0  0  0  0  0  0
  -30.0951  -26.5548   16.0217 C   0  0  0  0  0  0  0  0  0  0  0  0
  -30.2372  -14.9883   20.1804 C   0  0  0  0  0  0  0  0  0  0  0  0
  -29.5285  -12.7470   19.3304 C   0  0  0  0  0  0  0  0  0  0  0  0
  -22.5454  -28.0645   22.3709 C   0  0  0  0  0  0  0  0  0  0  0  0
  -22.9914  -24.9380   23.1113 C   0  0  0  0  0  0  0  0  0  0  0  0
  -25.0958  -22.2527   23.1975 C   0  0  0  0  0  0  0  0  0  0  0  0
  -29.8595  -20.9195   20.9083 C   0  0  0  0  0  0  0  0  0  0  0  0
  -17.8822  -29.9451   23.2512 C   0  0  0  0  0  0  0  0  0  0  0  0
  -23.5044  -27.1693   20.2180 C   0  0  0  0  0  0  0  0  0  0  0  0
  -25.0606  -26.2754   22.5682 C   0  0  0  0  0  0  0  0  0  0  0  0
  -18.7764  -28.8937   23.9033 C   0  0  0  0  0  0  0  0  0  0  0  0
  -31.3018  -18.5732   23.1647 C   0  0  0  0  0  0  0  0  0  0  0  0
  -20.1800  -29.4489   24.1232 C   0  0  0  0  0  0  0  0  0  0  0  0
  -30.7543  -17.2257   22.6908 C   0  0  0  0  0  0  0  0  0  0  0  0
  -30.2666  -19.6862   23.0178 C   0  0  0  0  0  0  0  0  0  0  0  0
  -29.1391  -18.4709   21.1942 C   0  0  0  0  0  0  0  0  0  0  0  0
  -20.8391  -29.8260   22.7910 C   0  0  1  0  0  0  0  0  0  0  0  0
  -22.8331  -26.8407   21.5479 C   0  0  1  0  0  0  0  0  0  0  0  0
  -30.1657  -17.3278   21.2707 C   0  0  2  0  0  0  0  0  0  0  0  0
  -32.4644  -30.0417   15.8782 C   0  0  0  0  0  0  0  0  0  0  0  0
  -25.8224  -19.8734   23.5270 C   0  0  0  0  0  0  0  0  0  0  0  0
  -28.2119  -23.8781   20.0149 C   0  0  0  0  0  0  0  0  0  0  0  0
  -23.2085  -25.7902   26.0330 C   0  0  0  0  0  0  0  0  0  0  0  0
  -24.2222  -23.5570   26.5365 C   0  0  0  0  0  0  0  0  0  0  0  0
  -21.8941  -23.6970   25.6518 C   0  0  0  0  0  0  0  0  0  0  0  0
  -31.3602  -26.8757   20.1804 C   0  0  0  0  0  0  0  0  0  0  0  0
  -31.7991  -29.2532   20.7828 C   0  0  0  0  0  0  0  0  0  0  0  0
  -24.3762  -21.5264   20.4201 C   0  0  0  0  0  0  0  0  0  0  0  0
  -26.5915  -24.0537   17.2754 C   0  0  0  0  0  0  0  0  0  0  0  0
  -32.0337  -28.5710   18.3865 C   0  0  0  0  0  0  0  0  0  0  0  0
  -29.2654  -25.3173   16.1280 C   0  0  0  0  0  0  0  0  0  0  0  0
  -29.3954  -22.0157   18.7307 C   0  0  0  0  0  0  0  0  0  0  0  0
  -28.9052  -24.9284   17.5617 C   0  0  0  0  0  0  0  0  0  0  0  0
  -29.7225  -28.6674   19.4810 C   0  0  0  0  0  0  0  0  0  1  0  0
  -23.8374  -24.1860   24.1102 C   0  0  1  0  0  0  0  0  0  0  0  0
  -24.9104  -20.8129   22.7535 C   0  0  2  0  0  0  0  0  0  0  0  0
  -28.1680  -22.9185   18.8335 C   0  0  2  0  0  0  0  0  0  0  0  0
  -29.6072  -26.6756   13.5560 C   0  0  0  0  0  0  0  0  0  0  0  0
  -23.3022  -24.3247   25.5634 C   0  0  0  0  0  0  0  0  0  0  0  0
  -31.2160  -28.3293   19.6895 C   0  0  0  0  0  0  0  0  0  0  0  0
  -28.2776  -15.7604   21.0240 N   0  0  0  0  0  0  0  0  0  0  0  0
  -30.6583  -26.9850   17.1730 N   0  0  0  0  0  0  0  0  0  0  0  0
  -29.5817  -16.0050   20.8104 N   0  0  0  0  0  0  0  0  0  0  0  0
  -23.6381  -25.9453   22.3813 N   0  0  0  0  0  0  0  0  0  0  0  0
  -29.7492  -19.7305   21.6480 N   0  0  0  0  0  0  0  0  0  0  0  0
  -31.5527  -15.0692   19.8884 N   0  0  0  0  0  0  0  0  0  0  0  0
  -28.4518  -11.8603   19.1931 N   0  0  0  0  0  0  0  0  0  0  0  0
  -21.3172  -28.6416   22.1104 N   0  0  0  0  0  0  0  0  0  0  0  0
  -23.9111  -22.8106   23.6293 N   0  0  0  0  0  0  0  0  0  0  0  0
  -29.3497  -20.8738   19.6166 N   0  0  0  0  0  0  0  0  0  0  0  0
  -25.2163  -20.6752   21.3014 N   0  3  0  0  0  0  0  0  0  0  0  0
  -28.0356  -23.7262   17.5656 N   0  3  1  0  0  0  0  0  0  0  0  0
  -30.6607  -12.4074   18.9105 O   0  0  0  0  0  0  0  0  0  0  0  0
  -23.3756  -28.4553   23.1831 O   0  0  0  0  0  0  0  0  0  0  0  0
  -21.8024  -24.6377   22.9783 O   0  0  0  0  0  0  0  0  0  0  0  0
  -26.1836  -22.8240   23.1680 O   0  0  0  0  0  0  0  0  0  0  0  0
  -30.3790  -21.9441   21.3635 O   0  0  0  0  0  0  0  0  0  0  0  0
  -23.0787  -12.1032   20.6443 O   0  0  0  0  0  0  0  0  0  0  0  0
  -28.9869  -28.5137   20.6941 O   0  0  0  0  0  0  0  0  0  1  0  0
  -22.8347   -6.8085   22.1642 F   0  0  0  0  0  0  0  0  0  0  0  0
  -21.6124  -11.3287   22.8563 F   0  0  0  0  0  0  0  0  0  0  0  0
  -29.8723  -27.4321   12.4490 F   0  0  0  0  0  0  0  0  0  0  0  0
  -29.9956  -25.4090   13.2209 F   0  0  0  0  0  0  0  0  0  0  0  0
  -28.2455  -26.6274   13.6468 F   0  0  0  0  0  0  0  0  0  0  0  0
  1  2  1  0  0  0  0
  1  5  2  0  0  0  0
  2  6  2  0  0  0  0
  3  8  2  0  0  0  0
  3 16  1  0  0  0  0
  4  9  1  0  0  0  0
  4 16  2  0  0  0  0
  5 18  1  0  0  0  0
  6 20  1  0  0  0  0
  7 10  2  0  0  0  0
  7 19  1  0  0  0  0
  8 24  1  0  0  0  0
  9 24  2  0  0  0  0
 10 25  1  0  0  0  0
 11 12  2  0  0  0  0
 11 26  1  0  0  0  0
 12 27  1  0  0  0  0
 13 21  1  0  0  0  0
 13 25  2  0  0  0  0
 14 22  1  0  0  0  0
 14 23  2  0  0  0  0
 15 27  2  0  0  0  0
 15 28  1  0  0  0  0
 16 29  1  0  0  0  0
 17 29  1  0  0  0  0
 17 32  2  0  0  0  0
 17 33  1  0  0  0  0
 18 20  2  0  0  0  0
 18 38  1  0  0  0  0
 19 21  2  0  0  0  0
 19 39  1  0  0  0  0
 20 47  1  0  0  0  0
 21 40  1  0  0  0  0
 22 30  2  0  0  0  0
 22 50  1  0  0  0  0
 23 31  1  0  0  0  0
 23 68  1  0  0  0  0
 24 88  1  0  0  0  0
 25 89  1  0  0  0  0
 26 28  2  0  0  0  0
 26 88  1  0  0  0  0
 27 90  1  0  0  0  0
 28 91  1  0  0  0  0
 29 71  2  0  0  0  0
 30 60  1  0  0  0  0
 30 72  1  0  0  0  0
 31 61  1  0  0  0  0
 31 72  2  0  0  0  0
 32 73  1  0  0  0  0
 32 76  1  0  0  0  0
 33 77  1  0  0  0  0
 33 83  2  0  0  0  0
 34 48  1  0  0  0  0
 34 78  1  0  0  0  0
 34 84  2  0  0  0  0
 35 65  1  0  0  0  0
 35 74  1  0  0  0  0
 35 85  2  0  0  0  0
 36 66  1  0  0  0  0
 36 79  1  0  0  0  0
 36 86  2  0  0  0  0
 37 75  1  0  0  0  0
 37 80  1  0  0  0  0
 37 87  2  0  0  0  0
 38 41  1  0  0  0  0
 39 48  1  0  0  0  0
 40 74  1  0  0  0  0
 41 43  1  0  0  0  0
 42 44  1  0  0  0  0
 42 45  1  0  0  0  0
 43 47  1  0  0  0  0
 44 49  1  0  0  0  0
 45 75  1  0  0  0  0
 46 49  1  0  0  0  0
 46 75  1  0  0  0  0
 47 78  1  0  0  0  0
 48 74  1  0  0  0  0
 49 73  1  0  0  0  0
 51 66  1  0  0  0  0
 52 67  1  0  0  0  0
 53 69  1  0  0  0  0
 54 69  1  0  0  0  0
 55 69  1  0  0  0  0
 56 70  1  0  0  0  0
 57 70  1  0  0  0  0
 58 81  1  0  0  0  0
 59 82  1  0  0  0  0
 60 70  1  0  0  0  0
 61 63  1  0  0  0  0
 62 67  1  0  0  0  0
 62 80  1  0  0  0  0
 63 82  1  0  0  0  0
 64 70  1  0  0  0  0
 64 89  1  0  0  0  0
 65 69  1  0  0  0  0
 65 79  1  0  0  0  0
 66 81  1  0  0  0  0
 67 82  1  0  0  0  0
 68 92  1  0  0  0  0
 68 93  1  0  0  0  0
 68 94  1  0  0  0  0
 71 73  1  0  0  0  0
M  CHG  2  81   1  82   1
M  ISO  4  37 100  64 101  80 100  89 101
M  END
> <Batch ID>
0067

> <Smiles>
CNC(C)C(=O)NC(C(=O)N1Cc2cc([101O:1][101CH2:1]C(C)(C)Cc3nc(CCN(C)C(C)C[100NH:0][100C:0](=O)N4CCCC(n5nc(-c6ccc(Oc7ccc(F)cc7F)cc6)c(C(N)=O)c5N)C4)c(C(F)(F)F)cc3C)ccc2CC1C(=O)NC1CCCc2ccccc21)C(C)(C)C

> <Shape>
0.247

> <Color>
0.084

> <Negative vol penalty>
0.000

$$$$
