
  -OEChem-04052318143D

 91 99  0     1  0  0  0  0  0999 V2000
  -27.3306  -36.6511   19.8604 C   0  0  0  0  0  0  0  0  0  0  0  0
  -27.7400  -35.3449   20.1089 C   0  0  0  0  0  0  0  0  0  0  0  0
  -22.9050  -15.4897   21.6746 C   0  0  0  0  0  0  0  0  0  0  0  0
  -24.4826  -17.1657   22.4089 C   0  0  0  0  0  0  0  0  0  0  0  0
  -26.1632  -37.1380   20.4468 C   0  0  0  0  0  0  0  0  0  0  0  0
  -26.9827  -34.5253   20.9451 C   0  0  0  0  0  0  0  0  0  0  0  0
  -26.3574  -29.8692   19.0543 C   0  0  0  0  0  0  0  0  0  0  0  0
  -22.0606  -15.8200   22.7346 C   0  0  0  0  0  0  0  0  0  0  0  0
  -23.6382  -17.4961   23.4689 C   0  0  0  0  0  0  0  0  0  0  0  0
  -27.4294  -28.9854   19.1708 C   0  0  0  0  0  0  0  0  0  0  0  0
  -19.8247  -18.2459   23.4753 C   0  0  0  0  0  0  0  0  0  0  0  0
  -18.4648  -18.3896   23.2003 C   0  0  0  0  0  0  0  0  0  0  0  0
  -26.3648  -27.9547   21.0744 C   0  0  0  0  0  0  0  0  0  0  0  0
  -17.9616  -16.6158   24.7615 C   0  0  0  0  0  0  0  0  0  0  0  0
  -30.9788  -17.5530   20.0527 C   0  0  0  0  0  0  0  0  0  0  0  0
  -24.1160  -16.1625   21.5118 C   0  0  0  0  0  0  0  0  0  0  0  0
  -24.9933  -16.3830   19.1265 C   0  0  0  0  0  0  0  0  0  0  0  0
  -25.3861  -36.3209   21.2828 C   0  0  0  0  0  0  0  0  0  0  0  0
  -25.2844  -29.8093   19.9551 C   0  0  0  0  0  0  0  0  0  0  0  0
  -25.8045  -35.0022   21.5443 C   0  0  0  0  0  0  0  0  0  0  0  0
  -25.2792  -28.8371   20.9655 C   0  0  0  0  0  0  0  0  0  0  0  0
  -22.4272  -16.8233   23.6317 C   0  0  0  0  0  0  0  0  0  0  0  0
  -27.4346  -28.0298   20.1828 C   0  0  0  0  0  0  0  0  0  0  0  0
  -20.2530  -17.2870   24.3934 C   0  0  0  0  0  0  0  0  0  0  0  0
  -17.5332  -17.5746   23.8434 C   0  0  0  0  0  0  0  0  0  0  0  0
  -19.3215  -16.4720   25.0365 C   0  0  0  0  0  0  0  0  0  0  0  0
  -24.9889  -15.8213   20.4174 C   0  0  0  0  0  0  0  0  0  0  0  0
  -30.6203  -18.6424   20.8202 C   0  0  0  0  0  0  0  0  0  0  0  0
  -30.7536  -16.3184   20.6264 C   0  0  0  0  0  0  0  0  0  0  0  0
  -26.0021  -15.7230   18.4683 C   0  0  0  0  0  0  0  0  0  0  0  0
  -29.9122  -17.2876   22.5025 C   0  0  0  0  0  0  0  0  0  0  0  0
  -24.1600  -17.4096   18.5721 C   0  0  0  0  0  0  0  0  0  0  0  0
  -24.0323  -31.8058   22.0882 C   0  0  0  0  0  0  0  0  0  0  0  0
  -21.7747  -29.4915   22.3506 C   0  0  0  0  0  0  0  0  0  0  0  0
  -20.9397  -26.2033   21.9800 C   0  0  0  0  0  0  0  0  0  0  0  0
  -30.8102  -12.7690   20.8545 C   0  0  0  0  0  0  0  0  0  0  0  0
  -24.1570  -36.9066   21.9318 C   0  0  0  0  0  0  0  0  0  0  0  0
  -24.1231  -30.7524   19.7995 C   0  0  0  0  0  0  0  0  0  0  0  0
  -24.1418  -28.7181   21.9456 C   0  0  0  0  0  0  0  0  0  0  0  0
  -23.2118  -35.8547   22.5065 C   0  0  0  0  0  0  0  0  0  0  0  0
  -28.3345  -11.5531   18.3858 C   0  0  0  0  0  0  0  0  0  0  0  0
  -23.9910  -34.8197   23.3117 C   0  0  0  0  0  0  0  0  0  0  0  0
  -27.1698  -12.5232   18.5766 C   0  0  0  0  0  0  0  0  0  0  0  0
  -29.1481  -11.3850   19.6654 C   0  0  0  0  0  0  0  0  0  0  0  0
  -28.4736  -13.6373   20.4312 C   0  0  0  0  0  0  0  0  0  0  0  0
  -24.9967  -34.0745   22.4258 C   0  0  1  0  0  0  0  0  0  0  0  0
  -23.3258  -30.9361   21.0871 C   0  0  1  0  0  0  0  0  0  0  0  0
  -27.6611  -13.8648   19.1476 C   0  0  2  0  0  0  0  0  0  0  0  0
  -19.0334  -24.6054   22.3120 C   0  0  0  0  0  0  0  0  0  0  0  0
  -32.3028  -15.2136   18.8806 C   0  0  0  0  0  0  0  0  0  0  0  0
  -29.8953  -14.5902   19.0304 C   0  0  0  0  0  0  0  0  0  0  0  0
  -28.3519  -18.3213   24.1885 C   0  0  0  0  0  0  0  0  0  0  0  0
  -30.4205  -17.1148   24.9639 C   0  0  0  0  0  0  0  0  0  0  0  0
  -28.4741  -15.8401   24.0876 C   0  0  0  0  0  0  0  0  0  0  0  0
  -22.2933  -29.5012   25.3574 C   0  0  0  0  0  0  0  0  0  0  0  0
  -21.1075  -27.3007   25.4987 C   0  0  0  0  0  0  0  0  0  0  0  0
  -19.8825  -29.3276   24.7152 C   0  0  0  0  0  0  0  0  0  0  0  0
  -32.7784  -14.1407   21.4236 C   0  0  0  0  0  0  0  0  0  0  0  0
  -20.8472  -25.5334   19.0987 C   0  0  0  0  0  0  0  0  0  0  0  0
  -30.8277  -20.0341   20.2779 C   0  0  0  0  0  0  0  0  0  0  0  0
  -29.8129  -21.0590   20.7972 C   0  0  0  0  0  0  0  0  0  0  0  0
  -30.0323  -22.4635   20.2241 C   0  0  0  0  0  0  0  0  0  0  0  0
  -28.9791  -23.4439   20.7469 C   0  0  0  0  0  0  0  0  0  0  0  0
  -29.1926  -24.8774   20.2598 C   0  0  0  0  0  0  0  0  0  0  0  0
  -28.1992  -25.8757   20.8392 C   0  0  0  0  0  0  0  0  0  1  0  0
  -21.6028  -28.2573   23.2029 C   0  0  1  0  0  0  0  0  0  0  0  0
  -19.7378  -25.5355   21.3366 C   0  0  2  0  0  0  0  0  0  0  0  0
  -31.1079  -15.0813   19.8711 C   0  0  0  0  0  0  0  0  0  0  0  0
  -29.3165  -17.1394   23.8616 C   0  0  0  0  0  0  0  0  0  0  0  0
  -21.2440  -28.6000   24.6764 C   0  0  0  0  0  0  0  0  0  0  0  0
  -25.9209  -14.8771   20.5720 N   0  0  0  0  0  0  0  0  0  0  0  0
  -30.0824  -18.5458   22.0537 N   0  0  0  0  0  0  0  0  0  0  0  0
  -30.2201  -16.1482   21.8539 N   0  0  0  0  0  0  0  0  0  0  0  0
  -26.5202  -14.8403   19.3697 N   0  0  0  0  0  0  0  0  0  0  0  0
  -23.0322  -29.6670   21.7561 N   0  0  0  0  0  0  0  0  0  0  0  0
  -29.5655  -12.6775   20.2101 N   0  0  0  0  0  0  0  0  0  0  0  0
  -26.4875  -15.8174   17.2122 N   0  0  0  0  0  0  0  0  0  0  0  0
  -23.1727  -17.9811   19.3863 N   0  0  0  0  0  0  0  0  0  0  0  0
  -24.3218  -33.0753   21.6254 N   0  0  0  0  0  0  0  0  0  0  0  0
  -20.6133  -27.4273   22.5245 N   0  0  0  0  0  0  0  0  0  0  0  0
  -31.4795  -13.9999   20.7810 N   0  0  0  0  0  0  0  0  0  0  0  0
  -20.1611  -24.7392   20.1501 N   0  3  0  0  0  0  0  0  0  0  0  0
  -24.2763  -17.7967   17.3846 O   0  0  0  0  0  0  0  0  0  0  0  0
  -24.2941  -31.3588   23.1987 O   0  0  0  0  0  0  0  0  0  0  0  0
  -20.8258  -30.2673   22.2116 O   0  0  0  0  0  0  0  0  0  0  0  0
  -22.0556  -25.6887   22.0010 O   0  0  0  0  0  0  0  0  0  0  0  0
  -31.2998  -11.8025   21.4529 O   0  0  0  0  0  0  0  0  0  0  0  0
  -21.6034  -17.1460   24.6660 O   0  0  0  0  0  0  0  0  0  0  0  0
  -28.4799  -27.1664   20.2992 O   0  0  0  0  0  0  0  0  0  1  0  0
  -16.2273  -17.7138   23.5803 F   0  0  0  0  0  0  0  0  0  0  0  0
  -19.7269  -15.5499   25.9204 F   0  0  0  0  0  0  0  0  0  0  0  0
  1  2  1  0  0  0  0
  1  5  2  0  0  0  0
  2  6  2  0  0  0  0
  3  8  2  0  0  0  0
  3 16  1  0  0  0  0
  4  9  1  0  0  0  0
  4 16  2  0  0  0  0
  5 18  1  0  0  0  0
  6 20  1  0  0  0  0
  7 10  2  0  0  0  0
  7 19  1  0  0  0  0
  8 22  1  0  0  0  0
  9 22  2  0  0  0  0
 10 23  1  0  0  0  0
 11 12  2  0  0  0  0
 11 24  1  0  0  0  0
 12 25  1  0  0  0  0
 13 21  1  0  0  0  0
 13 23  2  0  0  0  0
 14 25  2  0  0  0  0
 14 26  1  0  0  0  0
 15 28  1  0  0  0  0
 15 29  2  0  0  0  0
 16 27  1  0  0  0  0
 17 27  1  0  0  0  0
 17 30  2  0  0  0  0
 17 32  1  0  0  0  0
 18 20  2  0  0  0  0
 18 37  1  0  0  0  0
 19 21  2  0  0  0  0
 19 38  1  0  0  0  0
 20 46  1  0  0  0  0
 21 39  1  0  0  0  0
 22 88  1  0  0  0  0
 23 89  1  0  0  0  0
 24 26  2  0  0  0  0
 24 88  1  0  0  0  0
 25 90  1  0  0  0  0
 26 91  1  0  0  0  0
 27 71  2  0  0  0  0
 28 60  1  0  0  0  0
 28 72  2  0  0  0  0
 29 68  1  0  0  0  0
 29 73  1  0  0  0  0
 30 74  1  0  0  0  0
 30 77  1  0  0  0  0
 31 69  1  0  0  0  0
 31 72  1  0  0  0  0
 31 73  2  0  0  0  0
 32 78  1  0  0  0  0
 32 83  2  0  0  0  0
 33 47  1  0  0  0  0
 33 79  1  0  0  0  0
 33 84  2  0  0  0  0
 34 66  1  0  0  0  0
 34 75  1  0  0  0  0
 34 85  2  0  0  0  0
 35 67  1  0  0  0  0
 35 80  1  0  0  0  0
 35 86  2  0  0  0  0
 36 76  1  0  0  0  0
 36 81  1  0  0  0  0
 36 87  2  0  0  0  0
 37 40  1  0  0  0  0
 38 47  1  0  0  0  0
 39 75  1  0  0  0  0
 40 42  1  0  0  0  0
 41 43  1  0  0  0  0
 41 44  1  0  0  0  0
 42 46  1  0  0  0  0
 43 48  1  0  0  0  0
 44 76  1  0  0  0  0
 45 48  1  0  0  0  0
 45 76  1  0  0  0  0
 46 79  1  0  0  0  0
 47 75  1  0  0  0  0
 48 74  1  0  0  0  0
 49 67  1  0  0  0  0
 50 68  1  0  0  0  0
 51 68  1  0  0  0  0
 52 69  1  0  0  0  0
 53 69  1  0  0  0  0
 54 69  1  0  0  0  0
 55 70  1  0  0  0  0
 56 70  1  0  0  0  0
 57 70  1  0  0  0  0
 58 81  1  0  0  0  0
 59 82  1  0  0  0  0
 60 61  1  0  0  0  0
 61 62  1  0  0  0  0
 62 63  1  0  0  0  0
 63 64  1  0  0  0  0
 64 65  1  0  0  0  0
 65 89  1  0  0  0  0
 66 70  1  0  0  0  0
 66 80  1  0  0  0  0
 67 82  1  0  0  0  0
 68 81  1  0  0  0  0
 71 74  1  0  0  0  0
M  CHG  1  82   1
M  ISO  4  36 100  65 101  81 100  89 101
M  END
> <Batch ID>
0068

> <Smiles>
CNC(C)C(=O)NC(C(=O)N1Cc2cc([101O:1][101CH2:1]CCCCCc3cc(C(C)(C)[100N:0](C)[100C:0](=O)N4CCCC(n5nc(-c6ccc(Oc7ccc(F)cc7F)cc6)c(C(N)=O)c5N)C4)nc(C(C)(C)C)n3)ccc2CC1C(=O)NC1CCCc2ccccc21)C(C)(C)C

> <Shape>
0.259

> <Color>
0.065

> <Negative vol penalty>
0.000

$$$$

  -OEChem-04052318143D

 91100  0     1  0  0  0  0  0999 V2000
  -16.6444  -29.7793   23.7549 C   0  0  0  0  0  0  0  0  0  0  0  0
  -17.7307  -30.4834   24.2645 C   0  0  0  0  0  0  0  0  0  0  0  0
  -26.4694  -17.9455   19.2696 C   0  0  0  0  0  0  0  0  0  0  0  0
  -26.7147  -17.7568   21.6657 C   0  0  0  0  0  0  0  0  0  0  0  0
  -16.8521  -28.5956   23.0480 C   0  0  0  0  0  0  0  0  0  0  0  0
  -19.0252  -30.0037   24.0684 C   0  0  0  0  0  0  0  0  0  0  0  0
  -25.7419  -32.2974   23.0981 C   0  0  0  0  0  0  0  0  0  0  0  0
  -27.8550  -17.8815   19.1227 C   0  0  0  0  0  0  0  0  0  0  0  0
  -28.1003  -17.6928   21.5188 C   0  0  0  0  0  0  0  0  0  0  0  0
  -27.0251  -32.1219   23.6143 C   0  0  0  0  0  0  0  0  0  0  0  0
  -31.3486  -18.1296   18.1443 C   0  0  0  0  0  0  0  0  0  0  0  0
  -24.7422  -23.4774   23.9150 C   0  0  0  0  0  0  0  0  0  0  0  0
  -31.9525  -19.0363   17.2732 C   0  0  0  0  0  0  0  0  0  0  0  0
  -23.3568  -23.3599   23.9002 C   0  0  0  0  0  0  0  0  0  0  0  0
  -27.2681  -30.1078   22.3092 C   0  0  0  0  0  0  0  0  0  0  0  0
  -31.1011  -20.8718   18.5935 C   0  0  0  0  0  0  0  0  0  0  0  0
  -27.2578  -25.8774   25.9052 C   0  0  0  0  0  0  0  0  0  0  0  0
  -29.1281  -25.3355   24.6150 C   0  0  0  0  0  0  0  0  0  0  0  0
  -24.8449  -21.4881   25.2145 C   0  0  0  0  0  0  0  0  0  0  0  0
  -25.8992  -17.8832   20.5411 C   0  0  0  0  0  0  0  0  0  0  0  0
  -23.5629  -16.8716   20.7014 C   0  0  0  0  0  0  0  0  0  0  0  0
  -18.1504  -28.1062   22.8348 C   0  0  0  0  0  0  0  0  0  0  0  0
  -25.2071  -31.3719   22.1904 C   0  0  0  0  0  0  0  0  0  0  0  0
  -19.2503  -28.8116   23.3591 C   0  0  0  0  0  0  0  0  0  0  0  0
  -25.9789  -30.2751   21.7810 C   0  0  0  0  0  0  0  0  0  0  0  0
  -28.4829  -26.2666   25.4029 C   0  0  0  0  0  0  0  0  0  0  0  0
  -28.6705  -17.7552   20.2473 C   0  0  0  0  0  0  0  0  0  0  0  0
  -27.7873  -31.0255   23.2221 C   0  0  0  0  0  0  0  0  0  0  0  0
  -25.5077  -22.5277   24.5824 C   0  0  0  0  0  0  0  0  0  0  0  0
  -30.6209  -18.5940   19.2400 C   0  0  0  0  0  0  0  0  0  0  0  0
  -31.8288  -20.4074   17.4978 C   0  0  0  0  0  0  0  0  0  0  0  0
  -30.4972  -19.9650   19.4646 C   0  0  0  0  0  0  0  0  0  0  0  0
  -24.4680  -17.9497   20.6935 C   0  0  0  0  0  0  0  0  0  0  0  0
  -22.7902  -22.2829   24.5626 C   0  0  0  0  0  0  0  0  0  0  0  0
  -22.3326  -17.4573   20.8743 C   0  0  0  0  0  0  0  0  0  0  0  0
  -27.4238  -23.8550   24.8807 C   0  0  0  0  0  0  0  0  0  0  0  0
  -23.8119  -15.4662   20.5648 C   0  0  0  0  0  0  0  0  0  0  0  0
  -22.7076  -29.4082   22.1998 C   0  0  0  0  0  0  0  0  0  0  0  0
  -23.6035  -28.8817   19.1269 C   0  0  0  0  0  0  0  0  0  0  0  0
  -20.6908  -22.6975   23.3150 C   0  0  0  0  0  0  0  0  0  0  0  0
  -26.0852  -28.9251   16.7846 C   0  0  0  0  0  0  0  0  0  0  0  0
  -18.3221  -26.7974   22.1052 C   0  0  0  0  0  0  0  0  0  0  0  0
  -23.8316  -31.5898   21.6224 C   0  0  0  0  0  0  0  0  0  0  0  0
  -25.4587  -29.2638   20.7936 C   0  0  0  0  0  0  0  0  0  0  0  0
  -19.7484  -26.5539   21.6186 C   0  0  0  0  0  0  0  0  0  0  0  0
  -19.9519  -21.5087   20.0164 C   0  0  0  0  0  0  0  0  0  0  0  0
  -20.7505  -26.8637   22.7262 C   0  0  0  0  0  0  0  0  0  0  0  0
  -20.9627  -20.3822   19.8059 C   0  0  0  0  0  0  0  0  0  0  0  0
  -20.5443  -22.6426   20.8472 C   0  0  0  0  0  0  0  0  0  0  0  0
  -22.1080  -21.0791   21.9571 C   0  0  0  0  0  0  0  0  0  0  0  0
  -20.6712  -28.3364   23.1458 C   0  0  1  0  0  0  0  0  0  0  0  0
  -23.1917  -30.3080   21.0981 C   0  0  1  0  0  0  0  0  0  0  0  0
  -21.5399  -19.8995   21.1484 C   0  0  2  0  0  0  0  0  0  0  0  0
  -26.5236  -28.4040   14.3694 C   0  0  0  0  0  0  0  0  0  0  0  0
  -20.6729  -22.8659   25.7750 C   0  0  0  0  0  0  0  0  0  0  0  0
  -20.7754  -20.6626   24.6049 C   0  0  0  0  0  0  0  0  0  0  0  0
  -23.6338  -25.9009   19.7781 C   0  0  0  0  0  0  0  0  0  0  0  0
  -24.9613  -25.5289   17.6882 C   0  0  0  0  0  0  0  0  0  0  0  0
  -22.6561  -26.4717   17.5481 C   0  0  0  0  0  0  0  0  0  0  0  0
  -28.3520  -30.7892   26.0240 C   0  0  0  0  0  0  0  0  0  0  0  0
  -30.6397  -30.0476   25.3127 C   0  0  0  0  0  0  0  0  0  0  0  0
  -26.8282  -31.7284   16.1945 C   0  0  0  0  0  0  0  0  0  0  0  0
  -29.0775  -27.6223   25.6954 C   0  0  0  0  0  0  0  0  0  0  0  0
  -28.6539  -28.6602   24.6464 C   0  0  0  0  0  0  0  0  0  0  0  0
  -24.5334  -27.9142   18.4352 C   0  0  1  0  0  0  0  0  0  0  0  0
  -26.1266  -29.4771   15.3711 C   0  0  2  0  0  0  0  0  0  0  0  0
  -21.3065  -22.1250   24.5669 C   0  0  0  0  0  0  0  0  0  0  0  0
  -23.9555  -26.4718   18.3825 C   0  0  0  0  0  0  0  0  0  0  0  0
  -29.1575  -30.0907   24.9264 C   0  0  0  0  0  0  0  0  0  1  0  0
  -23.5011  -21.3406   25.2218 N   0  0  0  0  0  0  0  0  0  0  0  0
  -26.6963  -24.6747   25.6632 N   0  0  0  0  0  0  0  0  0  0  0  0
  -28.6259  -24.1155   24.3324 N   0  0  0  0  0  0  0  0  0  0  0  0
  -23.8642  -19.1310   20.8488 N   0  0  0  0  0  0  0  0  0  0  0  0
  -22.5665  -18.7985   20.9559 N   0  0  0  0  0  0  0  0  0  0  0  0
  -24.1057  -29.5172   20.2714 N   0  0  0  0  0  0  0  0  0  0  0  0
  -21.1020  -22.1401   22.1041 N   0  0  0  0  0  0  0  0  0  0  0  0
  -21.0844  -16.9508   20.9629 N   0  0  0  0  0  0  0  0  0  0  0  0
  -25.1347  -15.0355   20.3947 N   0  0  0  0  0  0  0  0  0  0  0  0
  -21.3458  -29.1748   22.1781 N   0  0  0  0  0  0  0  0  0  0  0  0
  -24.8220  -28.4905   17.1264 N   0  0  0  0  0  0  0  0  0  0  0  0
  -27.1104  -30.5927   15.2793 N   0  3  0  0  0  0  0  0  0  0  0  0
  -22.8870  -14.6189   20.5763 O   0  0  0  0  0  0  0  0  0  0  0  0
  -23.5104  -28.9578   23.0087 O   0  0  0  0  0  0  0  0  0  0  0  0
  -22.4759  -29.0721   18.6646 O   0  0  0  0  0  0  0  0  0  0  0  0
  -19.8670  -23.6108   23.4126 O   0  0  0  0  0  0  0  0  0  0  0  0
  -27.0752  -28.8802   17.5115 O   0  0  0  0  0  0  0  0  0  0  0  0
  -30.0226  -17.6925   20.1043 O   0  0  0  0  0  0  0  0  0  0  0  0
  -26.8824  -22.6189   24.6142 O   0  0  0  0  0  0  0  0  0  0  0  0
  -29.0399  -30.8515   23.7248 O   0  0  0  0  0  0  0  0  0  1  0  0
  -32.4100  -21.2779   16.6621 F   0  0  0  0  0  0  0  0  0  0  0  0
  -29.8004  -20.4171   20.5162 F   0  0  0  0  0  0  0  0  0  0  0  0
  1  2  1  0  0  0  0
  1  5  2  0  0  0  0
  2  6  2  0  0  0  0
  3  8  2  0  0  0  0
  3 20  1  0  0  0  0
  4  9  1  0  0  0  0
  4 20  2  0  0  0  0
  5 22  1  0  0  0  0
  6 24  1  0  0  0  0
  7 10  2  0  0  0  0
  7 23  1  0  0  0  0
  8 27  1  0  0  0  0
  9 27  2  0  0  0  0
 10 28  1  0  0  0  0
 11 13  2  0  0  0  0
 11 30  1  0  0  0  0
 12 14  2  0  0  0  0
 12 29  1  0  0  0  0
 13 31  1  0  0  0  0
 14 34  1  0  0  0  0
 15 25  1  0  0  0  0
 15 28  2  0  0  0  0
 16 31  2  0  0  0  0
 16 32  1  0  0  0  0
 17 26  1  0  0  0  0
 17 71  2  0  0  0  0
 18 26  2  0  0  0  0
 18 72  1  0  0  0  0
 19 29  2  0  0  0  0
 19 70  1  0  0  0  0
 20 33  1  0  0  0  0
 21 33  1  0  0  0  0
 21 35  2  0  0  0  0
 21 37  1  0  0  0  0
 22 24  2  0  0  0  0
 22 42  1  0  0  0  0
 23 25  2  0  0  0  0
 23 43  1  0  0  0  0
 24 51  1  0  0  0  0
 25 44  1  0  0  0  0
 26 63  1  0  0  0  0
 27 87  1  0  0  0  0
 28 89  1  0  0  0  0
 29 88  1  0  0  0  0
 30 32  2  0  0  0  0
 30 87  1  0  0  0  0
 31 90  1  0  0  0  0
 32 91  1  0  0  0  0
 33 73  2  0  0  0  0
 34 67  1  0  0  0  0
 34 70  2  0  0  0  0
 35 74  1  0  0  0  0
 35 77  1  0  0  0  0
 36 71  1  0  0  0  0
 36 72  2  0  0  0  0
 36 88  1  0  0  0  0
 37 78  1  0  0  0  0
 37 82  2  0  0  0  0
 38 52  1  0  0  0  0
 38 79  1  0  0  0  0
 38 83  2  0  0  0  0
 39 65  1  0  0  0  0
 39 75  1  0  0  0  0
 39 84  2  0  0  0  0
 40 67  1  0  0  0  0
 40 76  1  0  0  0  0
 40 85  2  0  0  0  0
 41 66  1  0  0  0  0
 41 80  1  0  0  0  0
 41 86  2  0  0  0  0
 42 45  1  0  0  0  0
 43 52  1  0  0  0  0
 44 75  1  0  0  0  0
 45 47  1  0  0  0  0
 46 48  1  0  0  0  0
 46 49  1  0  0  0  0
 47 51  1  0  0  0  0
 48 53  1  0  0  0  0
 49 76  1  0  0  0  0
 50 53  1  0  0  0  0
 50 76  1  0  0  0  0
 51 79  1  0  0  0  0
 52 75  1  0  0  0  0
 53 74  1  0  0  0  0
 54 66  1  0  0  0  0
 55 67  1  0  0  0  0
 56 67  1  0  0  0  0
 57 68  1  0  0  0  0
 58 68  1  0  0  0  0
 59 68  1  0  0  0  0
 60 69  1  0  0  0  0
 61 69  1  0  0  0  0
 62 81  1  0  0  0  0
 63 64  1  0  0  0  0
 64 69  1  0  0  0  0
 65 68  1  0  0  0  0
 65 80  1  0  0  0  0
 66 81  1  0  0  0  0
 69 89  1  0  0  0  0
 73 74  1  0  0  0  0
M  CHG  1  81   1
M  ISO  4  40 100  67 100  69 101  89 101
M  END
> <Batch ID>
0068

> <Smiles>
CNC(C)C(=O)NC(C(=O)N1Cc2cc([101O:1][101C:1](C)(C)CCc3cnc(Oc4ccc([100C:0](C)(C)[100C:0](=O)N5CCCC(n6nc(-c7ccc(Oc8ccc(F)cc8F)cc7)c(C(N)=O)c6N)C5)nc4)nc3)ccc2CC1C(=O)NC1CCCc2ccccc21)C(C)(C)C

> <Shape>
0.199

> <Color>
0.136

> <Negative vol penalty>
0.000

$$$$

  -OEChem-04052318143D

 88 96  0     1  0  0  0  0  0999 V2000
  -29.1153  -24.4595   16.9189 C   0  0  0  0  0  0  0  0  0  0  0  0
  -27.9000  -24.5431   17.5908 C   0  0  0  0  0  0  0  0  0  0  0  0
  -27.7242  -13.0869   19.0045 C   0  0  0  0  0  0  0  0  0  0  0  0
  -28.2142  -14.6742   20.7588 C   0  0  0  0  0  0  0  0  0  0  0  0
  -30.2386  -25.1090   17.4289 C   0  0  0  0  0  0  0  0  0  0  0  0
  -27.8076  -25.2756   18.7738 C   0  0  0  0  0  0  0  0  0  0  0  0
  -23.6855  -28.2134   18.9227 C   0  0  0  0  0  0  0  0  0  0  0  0
  -29.0681  -12.7156   18.9650 C   0  0  0  0  0  0  0  0  0  0  0  0
  -29.5581  -14.3029   20.7193 C   0  0  0  0  0  0  0  0  0  0  0  0
  -22.4724  -27.5939   19.2201 C   0  0  0  0  0  0  0  0  0  0  0  0
  -32.3060  -11.0928   18.6527 C   0  0  0  0  0  0  0  0  0  0  0  0
  -32.6012   -9.7307   18.5986 C   0  0  0  0  0  0  0  0  0  0  0  0
  -22.6476  -28.3591   21.5011 C   0  0  0  0  0  0  0  0  0  0  0  0
  -31.4631   -9.4005   20.7040 C   0  0  0  0  0  0  0  0  0  0  0  0
  -27.2972  -14.0663   19.9014 C   0  0  0  0  0  0  0  0  0  0  0  0
  -24.8937  -13.8859   20.7371 C   0  0  0  0  0  0  0  0  0  0  0  0
  -30.1577  -25.8578   18.6136 C   0  0  0  0  0  0  0  0  0  0  0  0
  -24.3953  -28.9024   19.9167 C   0  0  0  0  0  0  0  0  0  0  0  0
  -28.9312  -25.9347   19.3008 C   0  0  0  0  0  0  0  0  0  0  0  0
  -23.8682  -28.9887   21.2132 C   0  0  0  0  0  0  0  0  0  0  0  0
  -29.9851  -13.3236   19.8224 C   0  0  0  0  0  0  0  0  0  0  0  0
  -21.9547  -27.6642   20.5101 C   0  0  0  0  0  0  0  0  0  0  0  0
  -31.5894  -11.6089   19.7325 C   0  0  0  0  0  0  0  0  0  0  0  0
  -32.1797   -8.8845   19.6242 C   0  0  0  0  0  0  0  0  0  0  0  0
  -31.1680  -10.7627   20.7581 C   0  0  0  0  0  0  0  0  0  0  0  0
  -25.9092  -14.4506   19.9422 C   0  0  0  0  0  0  0  0  0  0  0  0
  -19.1857  -22.3785   22.8072 C   0  0  0  0  0  0  0  0  0  0  0  0
  -18.4053  -21.4440   22.1629 C   0  0  0  0  0  0  0  0  0  0  0  0
  -21.0670  -21.2388   22.1818 C   0  0  0  0  0  0  0  0  0  0  0  0
  -20.2867  -20.3038   21.5381 C   0  0  0  0  0  0  0  0  0  0  0  0
  -23.7655  -14.5975   20.4095 C   0  0  0  0  0  0  0  0  0  0  0  0
  -24.9640  -12.8140   21.6867 C   0  0  0  0  0  0  0  0  0  0  0  0
  -27.2521  -28.5717   21.2705 C   0  0  0  0  0  0  0  0  0  0  0  0
  -21.2828  -19.5111   19.4185 C   0  0  0  0  0  0  0  0  0  0  0  0
  -26.4608  -31.3680   22.7117 C   0  0  0  0  0  0  0  0  0  0  0  0
  -24.0057  -33.4980   23.7520 C   0  0  0  0  0  0  0  0  0  0  0  0
  -31.4101  -26.5035   19.1513 C   0  0  0  0  0  0  0  0  0  0  0  0
  -25.6892  -29.5881   19.5733 C   0  0  0  0  0  0  0  0  0  0  0  0
  -24.5812  -29.7334   22.3111 C   0  0  0  0  0  0  0  0  0  0  0  0
  -31.1396  -27.5686   20.2109 C   0  0  0  0  0  0  0  0  0  0  0  0
  -22.9035  -17.8807   16.6698 C   0  0  0  0  0  0  0  0  0  0  0  0
  -30.1314  -27.0582   21.2355 C   0  0  0  0  0  0  0  0  0  0  0  0
  -23.7693  -16.8169   17.3434 C   0  0  0  0  0  0  0  0  0  0  0  0
  -22.8181  -19.1481   17.5144 C   0  0  0  0  0  0  0  0  0  0  0  0
  -23.2046  -17.8528   19.5868 C   0  0  0  0  0  0  0  0  0  0  0  0
  -28.7852  -26.7401   20.5737 C   0  0  1  0  0  0  0  0  0  0  0  0
  -26.5801  -29.8263   20.7886 C   0  0  1  0  0  0  0  0  0  0  0  0
  -23.2921  -16.5447   18.7809 C   0  0  2  0  0  0  0  0  0  0  0  0
  -23.2343  -22.4988   22.2229 C   0  0  0  0  0  0  0  0  0  0  0  0
  -14.7333  -20.3552   21.6772 C   0  0  0  0  0  0  0  0  0  0  0  0
  -23.6661  -35.6861   24.9328 C   0  0  0  0  0  0  0  0  0  0  0  0
  -27.0643  -30.0184   25.3809 C   0  0  0  0  0  0  0  0  0  0  0  0
  -25.8269  -31.8735   26.5192 C   0  0  0  0  0  0  0  0  0  0  0  0
  -27.8808  -32.3750   25.1953 C   0  0  0  0  0  0  0  0  0  0  0  0
  -22.6842  -34.6991   21.3919 C   0  0  0  0  0  0  0  0  0  0  0  0
  -22.5537  -21.1323   22.1974 C   0  0  0  0  0  0  0  0  0  0  0  0
  -18.5731  -23.5538   23.5265 C   0  0  0  0  0  0  0  0  0  0  0  0
  -16.9187  -21.5513   22.1463 C   0  0  0  0  0  0  0  0  0  0  0  0
  -16.2504  -20.2556   21.6607 C   0  0  0  0  0  0  0  0  0  0  0  0
  -19.4498  -24.8109   23.5170 C   0  0  0  0  0  0  0  0  0  0  0  0
  -19.6911  -25.3619   22.1109 C   0  0  0  0  0  0  0  0  0  0  0  0
  -20.0008  -17.8877   20.7631 C   0  0  0  0  0  0  0  0  0  0  0  0
  -20.5972  -26.5854   22.1378 C   0  0  0  0  0  0  0  0  0  1  0  0
  -20.8925  -19.1421   20.8275 C   0  0  2  0  0  0  0  0  0  0  0  0
  -25.7496  -31.7494   23.9875 C   0  0  1  0  0  0  0  0  0  0  0  0
  -23.8369  -34.9976   23.5876 C   0  0  2  0  0  0  0  0  0  0  0  0
  -26.6177  -31.4883   25.2507 C   0  0  0  0  0  0  0  0  0  0  0  0
  -25.4652  -15.4443   19.1679 N   0  0  0  0  0  0  0  0  0  0  0  0
  -20.5305  -22.2927   22.8282 N   0  0  0  0  0  0  0  0  0  0  0  0
  -18.9418  -20.3898   21.5168 N   0  0  0  0  0  0  0  0  0  0  0  0
  -24.1584  -15.5095   19.4745 N   0  0  0  0  0  0  0  0  0  0  0  0
  -25.8460  -30.3818   21.9273 N   0  0  0  0  0  0  0  0  0  0  0  0
  -22.3830  -18.8445   18.8789 N   0  0  0  0  0  0  0  0  0  0  0  0
  -22.4857  -14.5258   20.8329 N   0  0  0  0  0  0  0  0  0  0  0  0
  -26.2016  -12.1925   21.9023 N   0  0  0  0  0  0  0  0  0  0  0  0
  -28.0461  -27.9583   20.3204 N   0  0  0  0  0  0  0  0  0  0  0  0
  -25.3349  -33.1385   23.8241 N   0  0  0  0  0  0  0  0  0  0  0  0
  -19.6654  -17.4392   22.1382 N   0  3  0  0  0  0  0  0  0  0  0  0
  -22.6396  -35.2956   22.7518 N   0  3  0  0  0  0  0  0  0  0  0  0
  -23.9558  -12.4081   22.3130 O   0  0  0  0  0  0  0  0  0  0  0  0
  -27.0653  -28.1895   22.4197 O   0  0  0  0  0  0  0  0  0  0  0  0
  -20.6263  -20.3644   18.8159 O   0  0  0  0  0  0  0  0  0  0  0  0
  -27.5191  -31.9297   22.4182 O   0  0  0  0  0  0  0  0  0  0  0  0
  -23.0535  -32.7234   23.8142 O   0  0  0  0  0  0  0  0  0  0  0  0
  -31.2965  -12.9613   19.7843 O   0  0  0  0  0  0  0  0  0  0  0  0
  -20.7712  -27.0598   20.8032 O   0  0  0  0  0  0  0  0  0  1  0  0
  -32.4619   -7.5761   19.5714 F   0  0  0  0  0  0  0  0  0  0  0  0
  -30.4782  -11.2524   21.7975 F   0  0  0  0  0  0  0  0  0  0  0  0
  1  2  1  0  0  0  0
  1  5  2  0  0  0  0
  2  6  2  0  0  0  0
  3  8  2  0  0  0  0
  3 15  1  0  0  0  0
  4  9  1  0  0  0  0
  4 15  2  0  0  0  0
  5 17  1  0  0  0  0
  6 19  1  0  0  0  0
  7 10  2  0  0  0  0
  7 18  1  0  0  0  0
  8 21  1  0  0  0  0
  9 21  2  0  0  0  0
 10 22  1  0  0  0  0
 11 12  2  0  0  0  0
 11 23  1  0  0  0  0
 12 24  1  0  0  0  0
 13 20  1  0  0  0  0
 13 22  2  0  0  0  0
 14 24  2  0  0  0  0
 14 25  1  0  0  0  0
 15 26  1  0  0  0  0
 16 26  1  0  0  0  0
 16 31  2  0  0  0  0
 16 32  1  0  0  0  0
 17 19  2  0  0  0  0
 17 37  1  0  0  0  0
 18 20  2  0  0  0  0
 18 38  1  0  0  0  0
 19 46  1  0  0  0  0
 20 39  1  0  0  0  0
 21 85  1  0  0  0  0
 22 86  1  0  0  0  0
 23 25  2  0  0  0  0
 23 85  1  0  0  0  0
 24 87  1  0  0  0  0
 25 88  1  0  0  0  0
 26 68  2  0  0  0  0
 27 28  2  0  0  0  0
 27 57  1  0  0  0  0
 27 69  1  0  0  0  0
 28 58  1  0  0  0  0
 28 70  1  0  0  0  0
 29 30  1  0  0  0  0
 29 56  1  0  0  0  0
 29 69  2  0  0  0  0
 30 64  1  0  0  0  0
 30 70  2  0  0  0  0
 31 71  1  0  0  0  0
 31 74  1  0  0  0  0
 32 75  1  0  0  0  0
 32 80  2  0  0  0  0
 33 47  1  0  0  0  0
 33 76  1  0  0  0  0
 33 81  2  0  0  0  0
 34 64  1  0  0  0  0
 34 73  1  0  0  0  0
 34 82  2  0  0  0  0
 35 65  1  0  0  0  0
 35 72  1  0  0  0  0
 35 83  2  0  0  0  0
 36 66  1  0  0  0  0
 36 77  1  0  0  0  0
 36 84  2  0  0  0  0
 37 40  1  0  0  0  0
 38 47  1  0  0  0  0
 39 72  1  0  0  0  0
 40 42  1  0  0  0  0
 41 43  1  0  0  0  0
 41 44  1  0  0  0  0
 42 46  1  0  0  0  0
 43 48  1  0  0  0  0
 44 73  1  0  0  0  0
 45 48  1  0  0  0  0
 45 73  1  0  0  0  0
 46 76  1  0  0  0  0
 47 72  1  0  0  0  0
 48 71  1  0  0  0  0
 49 56  1  0  0  0  0
 50 59  1  0  0  0  0
 51 66  1  0  0  0  0
 52 67  1  0  0  0  0
 53 67  1  0  0  0  0
 54 67  1  0  0  0  0
 55 79  1  0  0  0  0
 57 60  1  0  0  0  0
 58 59  1  0  0  0  0
 60 61  1  0  0  0  0
 61 63  1  0  0  0  0
 62 64  1  0  0  0  0
 62 78  1  0  0  0  0
 63 86  1  0  0  0  0
 65 67  1  0  0  0  0
 65 77  1  0  0  0  0
 66 79  1  0  0  0  0
 68 71  1  0  0  0  0
M  CHG  2  78   1  79   1
M  ISO  4  34 100  63 101  64 100  86 101
M  END
> <Batch ID>
0068

> <Smiles>
CCCc1nc([100CH:0](CN)[100C:0](=O)N2CCCC(n3nc(-c4ccc(Oc5ccc(F)cc5F)cc4)c(C(N)=O)c3N)C2)c(CC)nc1CCC[101CH2:1][101O:1]c1ccc2c(c1)CN(C(=O)C(NC(=O)C(C)NC)C(C)(C)C)C(C(=O)NC1CCCc3ccccc31)C2

> <Shape>
0.268

> <Color>
0.075

> <Negative vol penalty>
0.000

$$$$

  -OEChem-04052318143D

 82 90  0     1  0  0  0  0  0999 V2000
  -32.2967  -14.1597   20.0583 C   0  0  0  0  0  0  0  0  0  0  0  0
  -31.5125  -15.3086   20.0802 C   0  0  0  0  0  0  0  0  0  0  0  0
  -29.8143  -24.0697   21.0240 C   0  0  0  0  0  0  0  0  0  0  0  0
  -29.4820  -24.0257   18.6314 C   0  0  0  0  0  0  0  0  0  0  0  0
  -31.6947  -12.9084   19.9329 C   0  0  0  0  0  0  0  0  0  0  0  0
  -30.1258  -15.2069   19.9756 C   0  0  0  0  0  0  0  0  0  0  0  0
  -25.9570  -18.7665   22.7063 C   0  0  0  0  0  0  0  0  0  0  0  0
  -30.0358  -22.6926   21.0187 C   0  0  0  0  0  0  0  0  0  0  0  0
  -29.7035  -22.6485   18.6260 C   0  0  0  0  0  0  0  0  0  0  0  0
  -25.2198  -19.8613   22.2574 C   0  0  0  0  0  0  0  0  0  0  0  0
  -27.9692  -19.8433   19.3700 C   0  0  0  0  0  0  0  0  0  0  0  0
  -27.0971  -19.0495   18.6251 C   0  0  0  0  0  0  0  0  0  0  0  0
  -23.3705  -18.3990   21.7466 C   0  0  0  0  0  0  0  0  0  0  0  0
  -28.9507  -18.2695   17.2861 C   0  0  0  0  0  0  0  0  0  0  0  0
  -24.8342  -26.8339   16.2985 C   0  0  0  0  0  0  0  0  0  0  0  0
  -29.5373  -24.7363   19.8304 C   0  0  0  0  0  0  0  0  0  0  0  0
  -30.2695  -27.1755   19.6830 C   0  0  0  0  0  0  0  0  0  0  0  0
  -30.2991  -12.7907   19.8364 C   0  0  0  0  0  0  0  0  0  0  0  0
  -25.4096  -17.4760   22.6686 C   0  0  0  0  0  0  0  0  0  0  0  0
  -29.5045  -13.9530   19.8474 C   0  0  0  0  0  0  0  0  0  0  0  0
  -24.1019  -17.2898   22.1981 C   0  0  0  0  0  0  0  0  0  0  0  0
  -29.9804  -21.9820   19.8197 C   0  0  0  0  0  0  0  0  0  0  0  0
  -23.9274  -19.6774   21.7747 C   0  0  0  0  0  0  0  0  0  0  0  0
  -29.3321  -19.8502   19.0730 C   0  0  0  0  0  0  0  0  0  0  0  0
  -27.5878  -18.2626   17.5832 C   0  0  0  0  0  0  0  0  0  0  0  0
  -29.8228  -19.0633   18.0311 C   0  0  0  0  0  0  0  0  0  0  0  0
  -29.3079  -26.1587   19.8354 C   0  0  0  0  0  0  0  0  0  0  0  0
  -24.0876  -27.6554   17.1546 C   0  0  0  0  0  0  0  0  0  0  0  0
  -29.5501  -28.3429   19.7605 C   0  0  0  0  0  0  0  0  0  0  0  0
  -31.6864  -27.0738   19.4885 C   0  0  0  0  0  0  0  0  0  0  0  0
  -26.1590  -14.7638   21.1900 C   0  0  0  0  0  0  0  0  0  0  0  0
  -23.7465  -13.5666   22.9980 C   0  0  0  0  0  0  0  0  0  0  0  0
  -23.7684  -29.5728   18.6782 C   0  0  0  0  0  0  0  0  0  0  0  0
  -20.8734  -14.1463   24.7462 C   0  0  0  0  0  0  0  0  0  0  0  0
  -29.6971  -11.4198   19.6548 C   0  0  0  0  0  0  0  0  0  0  0  0
  -26.2080  -16.3090   23.1815 C   0  0  0  0  0  0  0  0  0  0  0  0
  -23.4608  -15.9276   22.1556 C   0  0  0  0  0  0  0  0  0  0  0  0
  -28.1956  -11.3732   19.9262 C   0  0  0  0  0  0  0  0  0  0  0  0
  -25.5946  -30.1912   21.6986 C   0  0  0  0  0  0  0  0  0  0  0  0
  -27.4912  -12.5342   19.2315 C   0  0  0  0  0  0  0  0  0  0  0  0
  -26.8271  -29.2981   21.5622 C   0  0  0  0  0  0  0  0  0  0  0  0
  -24.3621  -29.5405   21.0784 C   0  0  0  0  0  0  0  0  0  0  0  0
  -25.7727  -28.2460   19.5112 C   0  0  0  0  0  0  0  0  0  0  0  0
  -27.9953  -13.8820   19.7614 C   0  0  1  0  0  0  0  0  0  0  0  0
  -25.7397  -14.9709   22.6180 C   0  0  1  0  0  0  0  0  0  0  0  0
  -27.0468  -28.8793   20.0977 C   0  0  2  0  0  0  0  0  0  0  0  0
  -19.1086  -12.9649   26.0830 C   0  0  0  0  0  0  0  0  0  0  0  0
  -23.0497  -29.7876   16.3364 C   0  0  0  0  0  0  0  0  0  0  0  0
  -25.4589  -29.8415   16.9899 C   0  0  0  0  0  0  0  0  0  0  0  0
  -22.5122  -12.4985   20.4201 C   0  0  0  0  0  0  0  0  0  0  0  0
  -20.3600  -12.1885   21.6612 C   0  0  0  0  0  0  0  0  0  0  0  0
  -22.3947  -10.9272   22.3622 C   0  0  0  0  0  0  0  0  0  0  0  0
  -21.5035  -15.7112   27.1779 C   0  0  0  0  0  0  0  0  0  0  0  0
  -23.7918  -23.7075   19.0889 C   0  0  0  0  0  0  0  0  0  0  0  0
  -23.0612  -22.5330   19.7417 C   0  0  0  0  0  0  0  0  0  0  0  0
  -22.9297  -24.4570   18.0668 C   0  0  0  0  0  0  0  0  0  0  0  0
  -23.9354  -21.8353   20.7751 C   0  0  0  0  0  0  0  0  0  1  0  0
  -22.2554  -13.4093   22.8223 C   0  0  1  0  0  0  0  0  0  0  0  0
  -20.4325  -13.7116   26.1322 C   0  0  2  0  0  0  0  0  0  0  0  0
  -24.0991  -29.1190   17.2787 C   0  0  0  0  0  0  0  0  0  0  0  0
  -21.8931  -12.2814   21.8153 C   0  0  0  0  0  0  0  0  0  0  0  0
  -24.5185  -25.5531   16.5102 N   0  0  0  0  0  0  0  0  0  0  0  0
  -28.0718  -26.6382   19.9978 N   0  0  0  0  0  0  0  0  0  0  0  0
  -23.2884  -26.9057   17.9187 N   0  0  0  0  0  0  0  0  0  0  0  0
  -28.2519  -27.9691   19.9478 N   0  0  0  0  0  0  0  0  0  0  0  0
  -23.5990  -25.6749   17.4812 N   0  0  0  0  0  0  0  0  0  0  0  0
  -24.2842  -14.8172   22.6622 N   0  0  0  0  0  0  0  0  0  0  0  0
  -24.6185  -29.1368   19.6947 N   0  0  0  0  0  0  0  0  0  0  0  0
  -29.9077  -29.6426   19.6862 N   0  0  0  0  0  0  0  0  0  0  0  0
  -32.2632  -25.7976   19.4326 N   0  0  0  0  0  0  0  0  0  0  0  0
  -27.4003  -14.1737   21.0480 N   0  0  0  0  0  0  0  0  0  0  0  0
  -21.7050  -13.2160   24.1595 N   0  0  0  0  0  0  0  0  0  0  0  0
  -20.2706  -14.8975   27.0200 N   0  3  0  0  0  0  0  0  0  0  0  0
  -32.4215  -28.0848   19.3843 O   0  0  0  0  0  0  0  0  0  0  0  0
  -25.4109  -15.1123   20.2841 O   0  0  0  0  0  0  0  0  0  0  0  0
  -24.4087  -12.6173   23.4245 O   0  0  0  0  0  0  0  0  0  0  0  0
  -22.7853  -30.2956   18.8602 O   0  0  0  0  0  0  0  0  0  0  0  0
  -20.5129  -15.2036   24.2336 O   0  0  0  0  0  0  0  0  0  0  0  0
  -30.1968  -20.6382   19.8140 O   0  0  0  0  0  0  0  0  0  0  0  0
  -23.2059  -20.7442   21.3352 O   0  0  0  0  0  0  0  0  0  1  0  0
  -26.7504  -17.4992   16.8689 F   0  0  0  0  0  0  0  0  0  0  0  0
  -31.1313  -19.0649   17.7418 F   0  0  0  0  0  0  0  0  0  0  0  0
  1  2  1  0  0  0  0
  1  5  2  0  0  0  0
  2  6  2  0  0  0  0
  3  8  2  0  0  0  0
  3 16  1  0  0  0  0
  4  9  1  0  0  0  0
  4 16  2  0  0  0  0
  5 18  1  0  0  0  0
  6 20  1  0  0  0  0
  7 10  2  0  0  0  0
  7 19  1  0  0  0  0
  8 22  1  0  0  0  0
  9 22  2  0  0  0  0
 10 23  1  0  0  0  0
 11 12  2  0  0  0  0
 11 24  1  0  0  0  0
 12 25  1  0  0  0  0
 13 21  1  0  0  0  0
 13 23  2  0  0  0  0
 14 25  2  0  0  0  0
 14 26  1  0  0  0  0
 15 28  1  0  0  0  0
 15 62  2  0  0  0  0
 16 27  1  0  0  0  0
 17 27  1  0  0  0  0
 17 29  2  0  0  0  0
 17 30  1  0  0  0  0
 18 20  2  0  0  0  0
 18 35  1  0  0  0  0
 19 21  2  0  0  0  0
 19 36  1  0  0  0  0
 20 44  1  0  0  0  0
 21 37  1  0  0  0  0
 22 79  1  0  0  0  0
 23 80  1  0  0  0  0
 24 26  2  0  0  0  0
 24 79  1  0  0  0  0
 25 81  1  0  0  0  0
 26 82  1  0  0  0  0
 27 63  2  0  0  0  0
 28 60  1  0  0  0  0
 28 64  2  0  0  0  0
 29 65  1  0  0  0  0
 29 69  1  0  0  0  0
 30 70  1  0  0  0  0
 30 74  2  0  0  0  0
 31 45  1  0  0  0  0
 31 71  1  0  0  0  0
 31 75  2  0  0  0  0
 32 58  1  0  0  0  0
 32 67  1  0  0  0  0
 32 76  2  0  0  0  0
 33 60  1  0  0  0  0
 33 68  1  0  0  0  0
 33 77  2  0  0  0  0
 34 59  1  0  0  0  0
 34 72  1  0  0  0  0
 34 78  2  0  0  0  0
 35 38  1  0  0  0  0
 36 45  1  0  0  0  0
 37 67  1  0  0  0  0
 38 40  1  0  0  0  0
 39 41  1  0  0  0  0
 39 42  1  0  0  0  0
 40 44  1  0  0  0  0
 41 46  1  0  0  0  0
 42 68  1  0  0  0  0
 43 46  1  0  0  0  0
 43 68  1  0  0  0  0
 44 71  1  0  0  0  0
 45 67  1  0  0  0  0
 46 65  1  0  0  0  0
 47 59  1  0  0  0  0
 48 60  1  0  0  0  0
 49 60  1  0  0  0  0
 50 61  1  0  0  0  0
 51 61  1  0  0  0  0
 52 61  1  0  0  0  0
 53 73  1  0  0  0  0
 54 55  1  0  0  0  0
 54 56  1  0  0  0  0
 55 57  1  0  0  0  0
 56 66  1  0  0  0  0
 57 80  1  0  0  0  0
 58 61  1  0  0  0  0
 58 72  1  0  0  0  0
 59 73  1  0  0  0  0
 62 66  1  0  0  0  0
 63 65  1  0  0  0  0
 64 66  1  0  0  0  0
M  CHG  1  73   1
M  ISO  4  33 100  57 101  60 100  80 101
M  END
> <Batch ID>
0068

> <Smiles>
CNC(C)C(=O)NC(C(=O)N1Cc2cc([101O:1][101CH2:1]CCCn3ncc([100C:0](C)(C)[100C:0](=O)N4CCCC(n5nc(-c6ccc(Oc7ccc(F)cc7F)cc6)c(C(N)=O)c5N)C4)n3)ccc2CC1C(=O)NC1CCCc2ccccc21)C(C)(C)C

> <Shape>
0.220

> <Color>
0.071

> <Negative vol penalty>
0.000

$$$$

  -OEChem-04052318143D

 90 98  0     1  0  0  0  0  0999 V2000
  -18.7175  -16.5891   19.9860 C   0  0  0  0  0  0  0  0  0  0  0  0
  -19.8123  -17.3049   19.5123 C   0  0  0  0  0  0  0  0  0  0  0  0
  -23.3539  -30.2243   20.2042 C   0  0  0  0  0  0  0  0  0  0  0  0
  -25.3518  -29.3426   21.2377 C   0  0  0  0  0  0  0  0  0  0  0  0
  -18.8962  -15.6078   20.9602 C   0  0  0  0  0  0  0  0  0  0  0  0
  -21.0865  -17.0406   20.0134 C   0  0  0  0  0  0  0  0  0  0  0  0
  -26.3754  -17.2779   16.9350 C   0  0  0  0  0  0  0  0  0  0  0  0
  -23.1631  -31.0715   21.2958 C   0  0  0  0  0  0  0  0  0  0  0  0
  -25.1610  -30.1897   22.3293 C   0  0  0  0  0  0  0  0  0  0  0  0
  -27.3654  -18.2554   16.8452 C   0  0  0  0  0  0  0  0  0  0  0  0
  -24.4158  -34.0030   22.4227 C   0  0  0  0  0  0  0  0  0  0  0  0
  -24.0834  -35.3321   22.1614 C   0  0  0  0  0  0  0  0  0  0  0  0
  -28.6266  -17.1277   18.5647 C   0  0  0  0  0  0  0  0  0  0  0  0
  -22.0176  -35.0557   23.3833 C   0  0  0  0  0  0  0  0  0  0  0  0
  -29.4111  -23.4611   20.6787 C   0  0  0  0  0  0  0  0  0  0  0  0
  -24.4482  -29.3598   20.1752 C   0  0  0  0  0  0  0  0  0  0  0  0
  -25.3739  -28.7591   17.8752 C   0  0  0  0  0  0  0  0  0  0  0  0
  -20.1746  -15.3246   21.4666 C   0  0  0  0  0  0  0  0  0  0  0  0
  -26.4986  -16.2220   17.8496 C   0  0  0  0  0  0  0  0  0  0  0  0
  -21.2823  -16.0555   20.9963 C   0  0  0  0  0  0  0  0  0  0  0  0
  -27.6380  -16.1366   18.6624 C   0  0  0  0  0  0  0  0  0  0  0  0
  -24.0667  -31.0542   22.3583 C   0  0  0  0  0  0  0  0  0  0  0  0
  -28.4898  -18.1821   17.6621 C   0  0  0  0  0  0  0  0  0  0  0  0
  -23.5491  -33.2001   23.1643 C   0  0  0  0  0  0  0  0  0  0  0  0
  -22.8843  -35.8586   22.6417 C   0  0  0  0  0  0  0  0  0  0  0  0
  -22.3500  -33.7265   23.6446 C   0  0  0  0  0  0  0  0  0  0  0  0
  -24.6456  -28.4841   19.0481 C   0  0  0  0  0  0  0  0  0  0  0  0
  -30.6682  -23.6835   20.0853 C   0  0  0  0  0  0  0  0  0  0  0  0
  -28.7207  -24.6297   20.4687 C   0  0  0  0  0  0  0  0  0  0  0  0
  -25.2589  -27.6152   17.1236 C   0  0  0  0  0  0  0  0  0  0  0  0
  -26.0904  -29.9425   17.4988 C   0  0  0  0  0  0  0  0  0  0  0  0
  -24.8258  -15.2232   20.3611 C   0  0  0  0  0  0  0  0  0  0  0  0
  -26.9176  -12.7453   20.2775 C   0  0  0  0  0  0  0  0  0  0  0  0
  -29.9806  -11.5700   19.3378 C   0  0  0  0  0  0  0  0  0  0  0  0
  -23.9685  -21.9316   19.0128 C   0  0  0  0  0  0  0  0  0  0  0  0
  -20.3117  -14.2877   22.5531 C   0  0  0  0  0  0  0  0  0  0  0  0
  -25.4346  -15.1609   17.9154 C   0  0  0  0  0  0  0  0  0  0  0  0
  -27.8277  -15.0122   19.6464 C   0  0  0  0  0  0  0  0  0  0  0  0
  -21.7463  -13.8094   22.7610 C   0  0  0  0  0  0  0  0  0  0  0  0
  -22.3420  -23.9118   16.3416 C   0  0  0  0  0  0  0  0  0  0  0  0
  -22.7024  -14.9967   22.8151 C   0  0  0  0  0  0  0  0  0  0  0  0
  -22.7592  -25.3407   16.6854 C   0  0  0  0  0  0  0  0  0  0  0  0
  -22.2810  -23.0249   17.5815 C   0  0  0  0  0  0  0  0  0  0  0  0
  -23.9559  -24.4431   18.7207 C   0  0  0  0  0  0  0  0  0  0  0  0
  -22.6836  -15.7806   21.4973 C   0  0  1  0  0  0  0  0  0  0  0  0
  -25.4193  -14.4118   19.2444 C   0  0  1  0  0  0  0  0  0  0  0  0
  -24.0722  -25.3511   17.4872 C   0  0  2  0  0  0  0  0  0  0  0  0
  -31.4193   -9.5165   19.4414 C   0  0  0  0  0  0  0  0  0  0  0  0
  -30.0529  -27.7276   21.6657 C   0  0  0  0  0  0  0  0  0  0  0  0
  -28.6622  -29.1718   20.1853 C   0  0  0  0  0  0  0  0  0  0  0  0
  -27.5229  -13.3204   23.2122 C   0  0  0  0  0  0  0  0  0  0  0  0
  -29.5848  -11.9178   22.9896 C   0  0  0  0  0  0  0  0  0  0  0  0
  -27.3375  -10.8925   22.6416 C   0  0  0  0  0  0  0  0  0  0  0  0
  -30.5834  -27.3053   18.6140 C   0  0  0  0  0  0  0  0  0  0  0  0
  -28.1735  -26.8595   18.2795 C   0  0  0  0  0  0  0  0  0  0  0  0
  -25.6779  -20.8522   20.4243 C   0  0  0  0  0  0  0  0  0  0  0  0
  -30.0855  -11.3534   16.3880 C   0  0  0  0  0  0  0  0  0  0  0  0
  -31.8346  -22.7302   20.0192 C   0  0  0  0  0  0  0  0  0  0  0  0
  -27.3530  -25.0282   20.8486 C   0  0  0  0  0  0  0  0  0  0  0  0
  -31.4261  -21.2533   19.9864 C   0  0  0  0  0  0  0  0  0  0  0  0
  -26.3309  -23.8676   20.9288 C   0  0  0  0  0  0  0  0  0  0  0  0
  -30.6153  -20.8839   18.7434 C   0  0  0  0  0  0  0  0  0  0  0  0
  -26.1123  -23.1382   19.6049 C   0  0  0  0  0  0  0  0  0  0  0  0
  -30.1942  -19.4208   18.7651 C   0  0  0  0  0  0  0  0  0  1  0  0
  -28.2671  -12.4642   20.8930 C   0  0  1  0  0  0  0  0  0  0  0  0
  -30.3956  -10.2936   18.6285 C   0  0  2  0  0  0  0  0  0  0  0  0
  -28.9706  -27.7162   20.5748 C   0  0  0  0  0  0  0  0  0  0  0  0
  -28.1739  -12.1711   22.4170 C   0  0  0  0  0  0  0  0  0  0  0  0
  -29.3066  -26.7945   19.3352 C   0  0  0  0  0  0  0  0  0  0  0  0
  -24.1075  -27.2616   19.0463 N   0  0  0  0  0  0  0  0  0  0  0  0
  -30.7729  -24.8979   19.5392 N   0  0  0  0  0  0  0  0  0  0  0  0
  -29.5728  -25.4491   19.7884 N   0  0  0  0  0  0  0  0  0  0  0  0
  -24.4980  -26.7582   17.8630 N   0  0  0  0  0  0  0  0  0  0  0  0
  -26.7567  -14.0025   19.6780 N   0  0  0  0  0  0  0  0  0  0  0  0
  -23.5259  -23.0870   18.3480 N   0  0  0  0  0  0  0  0  0  0  0  0
  -25.7353  -27.2691   15.9088 N   0  0  0  0  0  0  0  0  0  0  0  0
  -26.1069  -31.0251   18.3889 N   0  0  0  0  0  0  0  0  0  0  0  0
  -23.4562  -15.0899   20.4872 N   0  0  0  0  0  0  0  0  0  0  0  0
  -28.8547  -11.3817   20.1112 N   0  0  0  0  0  0  0  0  0  0  0  0
  -25.1718  -22.0265   19.7280 N   0  0  0  0  0  0  0  0  0  0  0  0
  -30.9924  -10.6098   17.3000 N   0  3  0  0  0  0  0  0  0  0  0  0
  -26.6843  -30.0433   16.3985 O   0  0  0  0  0  0  0  0  0  0  0  0
  -25.5566  -15.9176   21.0579 O   0  0  0  0  0  0  0  0  0  0  0  0
  -26.0409  -11.8786   20.3206 O   0  0  0  0  0  0  0  0  0  0  0  0
  -30.5961  -12.6274   19.2207 O   0  0  0  0  0  0  0  0  0  0  0  0
  -23.3296  -20.8727   18.9616 O   0  0  0  0  0  0  0  0  0  0  0  0
  -23.8809  -31.8809   23.4236 O   0  0  0  0  0  0  0  0  0  0  0  0
  -29.4573  -19.1353   17.5770 O   0  0  0  0  0  0  0  0  0  1  0  0
  -22.5659  -37.1354   22.3920 F   0  0  0  0  0  0  0  0  0  0  0  0
  -21.5139  -32.9604   24.3586 F   0  0  0  0  0  0  0  0  0  0  0  0
  1  2  1  0  0  0  0
  1  5  2  0  0  0  0
  2  6  2  0  0  0  0
  3  8  2  0  0  0  0
  3 16  1  0  0  0  0
  4  9  1  0  0  0  0
  4 16  2  0  0  0  0
  5 18  1  0  0  0  0
  6 20  1  0  0  0  0
  7 10  2  0  0  0  0
  7 19  1  0  0  0  0
  8 22  1  0  0  0  0
  9 22  2  0  0  0  0
 10 23  1  0  0  0  0
 11 12  2  0  0  0  0
 11 24  1  0  0  0  0
 12 25  1  0  0  0  0
 13 21  1  0  0  0  0
 13 23  2  0  0  0  0
 14 25  2  0  0  0  0
 14 26  1  0  0  0  0
 15 28  1  0  0  0  0
 15 29  2  0  0  0  0
 16 27  1  0  0  0  0
 17 27  1  0  0  0  0
 17 30  2  0  0  0  0
 17 31  1  0  0  0  0
 18 20  2  0  0  0  0
 18 36  1  0  0  0  0
 19 21  2  0  0  0  0
 19 37  1  0  0  0  0
 20 45  1  0  0  0  0
 21 38  1  0  0  0  0
 22 87  1  0  0  0  0
 23 88  1  0  0  0  0
 24 26  2  0  0  0  0
 24 87  1  0  0  0  0
 25 89  1  0  0  0  0
 26 90  1  0  0  0  0
 27 70  2  0  0  0  0
 28 58  1  0  0  0  0
 28 71  2  0  0  0  0
 29 59  1  0  0  0  0
 29 72  1  0  0  0  0
 30 73  1  0  0  0  0
 30 76  1  0  0  0  0
 31 77  1  0  0  0  0
 31 82  2  0  0  0  0
 32 46  1  0  0  0  0
 32 78  1  0  0  0  0
 32 83  2  0  0  0  0
 33 65  1  0  0  0  0
 33 74  1  0  0  0  0
 33 84  2  0  0  0  0
 34 66  1  0  0  0  0
 34 79  1  0  0  0  0
 34 85  2  0  0  0  0
 35 75  1  0  0  0  0
 35 80  1  0  0  0  0
 35 86  2  0  0  0  0
 36 39  1  0  0  0  0
 37 46  1  0  0  0  0
 38 74  1  0  0  0  0
 39 41  1  0  0  0  0
 40 42  1  0  0  0  0
 40 43  1  0  0  0  0
 41 45  1  0  0  0  0
 42 47  1  0  0  0  0
 43 75  1  0  0  0  0
 44 47  1  0  0  0  0
 44 75  1  0  0  0  0
 45 78  1  0  0  0  0
 46 74  1  0  0  0  0
 47 73  1  0  0  0  0
 48 66  1  0  0  0  0
 49 67  1  0  0  0  0
 50 67  1  0  0  0  0
 51 68  1  0  0  0  0
 52 68  1  0  0  0  0
 53 68  1  0  0  0  0
 54 69  1  0  0  0  0
 55 69  1  0  0  0  0
 56 80  1  0  0  0  0
 57 81  1  0  0  0  0
 58 60  1  0  0  0  0
 59 61  1  0  0  0  0
 60 62  1  0  0  0  0
 61 63  1  0  0  0  0
 62 64  1  0  0  0  0
 63 80  1  0  0  0  0
 64 88  1  0  0  0  0
 65 68  1  0  0  0  0
 65 79  1  0  0  0  0
 66 81  1  0  0  0  0
 67 69  1  0  0  0  0
 69 72  1  0  0  0  0
 70 73  1  0  0  0  0
 71 72  1  0  0  0  0
M  CHG  1  81   1
M  ISO  4  35 100  64 101  80 100  88 101
M  END
> <Batch ID>
0068

> <Smiles>
CNC(C)C(=O)NC(C(=O)N1Cc2cc([101O:1][101CH2:1]CCCc3cc(CCC[100N:0](C)[100C:0](=O)N4CCCC(n5nc(-c6ccc(Oc7ccc(F)cc7F)cc6)c(C(N)=O)c5N)C4)n(C(C)(C)C(C)C)n3)ccc2CC1C(=O)NC1CCCc2ccccc21)C(C)(C)C

> <Shape>
0.206

> <Color>
0.068

> <Negative vol penalty>
0.000

$$$$

  -OEChem-04052318143D

 83 91  0     1  0  0  0  0  0999 V2000
  -32.7174  -12.5129   20.2438 C   0  0  0  0  0  0  0  0  0  0  0  0
  -32.1784  -13.7234   20.6676 C   0  0  0  0  0  0  0  0  0  0  0  0
  -27.1696  -25.5800   18.1256 C   0  0  0  0  0  0  0  0  0  0  0  0
  -26.1809  -24.4829   20.0376 C   0  0  0  0  0  0  0  0  0  0  0  0
  -31.9270  -11.6095   19.5345 C   0  0  0  0  0  0  0  0  0  0  0  0
  -30.8489  -14.0317   20.3814 C   0  0  0  0  0  0  0  0  0  0  0  0
  -26.9640  -17.1983   23.9007 C   0  0  0  0  0  0  0  0  0  0  0  0
  -28.2113  -24.6526   18.1321 C   0  0  0  0  0  0  0  0  0  0  0  0
  -27.2226  -23.5553   20.0440 C   0  0  0  0  0  0  0  0  0  0  0  0
  -26.5563  -18.5315   23.8833 C   0  0  0  0  0  0  0  0  0  0  0  0
  -28.0891  -20.7732   18.3324 C   0  0  0  0  0  0  0  0  0  0  0  0
  -27.7562  -19.4281   18.4919 C   0  0  0  0  0  0  0  0  0  0  0  0
  -24.6072  -17.9124   22.6039 C   0  0  0  0  0  0  0  0  0  0  0  0
  -29.0955  -19.3348   20.5005 C   0  0  0  0  0  0  0  0  0  0  0  0
  -26.3828  -28.6805   24.7240 C   0  0  0  0  0  0  0  0  0  0  0  0
  -24.3632  -27.8255   24.5665 C   0  0  0  0  0  0  0  0  0  0  0  0
  -26.1543  -25.4952   19.0784 C   0  0  0  0  0  0  0  0  0  0  0  0
  -23.8549  -26.3537   18.3831 C   0  0  0  0  0  0  0  0  0  0  0  0
  -30.5845  -11.9027   19.2478 C   0  0  0  0  0  0  0  0  0  0  0  0
  -26.2007  -16.2122   23.2594 C   0  0  0  0  0  0  0  0  0  0  0  0
  -30.0403  -13.1319   19.6664 C   0  0  0  0  0  0  0  0  0  0  0  0
  -25.0060  -16.5671   22.6168 C   0  0  0  0  0  0  0  0  0  0  0  0
  -25.6736  -27.4652   24.7651 C   0  0  0  0  0  0  0  0  0  0  0  0
  -28.2379  -23.6402   19.0912 C   0  0  0  0  0  0  0  0  0  0  0  0
  -25.3792  -18.8891   23.2324 C   0  0  0  0  0  0  0  0  0  0  0  0
  -28.9252  -21.3991   19.2570 C   0  0  0  0  0  0  0  0  0  0  0  0
  -28.2593  -18.7089   19.5759 C   0  0  0  0  0  0  0  0  0  0  0  0
  -29.4284  -20.6799   20.3410 C   0  0  0  0  0  0  0  0  0  0  0  0
  -25.0782  -26.4534   19.0726 C   0  0  0  0  0  0  0  0  0  0  0  0
  -23.1859  -27.5101   18.7018 C   0  0  0  0  0  0  0  0  0  0  0  0
  -23.3670  -25.3091   17.5308 C   0  0  0  0  0  0  0  0  0  0  0  0
  -26.7073  -14.1920   20.8581 C   0  0  0  0  0  0  0  0  0  0  0  0
  -23.7930  -13.0538   21.7149 C   0  0  0  0  0  0  0  0  0  0  0  0
  -23.6238  -31.2353   23.3968 C   0  0  0  0  0  0  0  0  0  0  0  0
  -20.7866  -13.6301   23.2237 C   0  0  0  0  0  0  0  0  0  0  0  0
  -29.7829  -10.9152   18.4372 C   0  0  0  0  0  0  0  0  0  0  0  0
  -26.6404  -14.7746   23.3101 C   0  0  0  0  0  0  0  0  0  0  0  0
  -24.1402  -15.5434   21.9306 C   0  0  0  0  0  0  0  0  0  0  0  0
  -28.2768  -11.1560   18.4999 C   0  0  0  0  0  0  0  0  0  0  0  0
  -23.9398  -32.0656   19.9254 C   0  0  0  0  0  0  0  0  0  0  0  0
  -27.9635  -12.6345   18.2933 C   0  0  0  0  0  0  0  0  0  0  0  0
  -24.1847  -30.7149   19.2541 C   0  0  0  0  0  0  0  0  0  0  0  0
  -24.5899  -32.1301   21.3039 C   0  0  0  0  0  0  0  0  0  0  0  0
  -24.4213  -29.6742   21.5532 C   0  0  0  0  0  0  0  0  0  0  0  0
  -28.5953  -13.4917   19.3967 C   0  0  1  0  0  0  0  0  0  0  0  0
  -26.0517  -13.9297   22.1845 C   0  0  1  0  0  0  0  0  0  0  0  0
  -23.7552  -29.5559   20.1709 C   0  0  2  0  0  0  0  0  0  0  0  0
  -18.5938  -12.5215   23.7333 C   0  0  0  0  0  0  0  0  0  0  0  0
  -22.6376  -30.4915   25.5408 C   0  0  0  0  0  0  0  0  0  0  0  0
  -22.0837  -29.3553   23.3899 C   0  0  0  0  0  0  0  0  0  0  0  0
  -22.9326  -13.4263   18.8113 C   0  0  0  0  0  0  0  0  0  0  0  0
  -20.5531  -13.2260   19.5636 C   0  0  0  0  0  0  0  0  0  0  0  0
  -22.1234  -11.3131   19.8762 C   0  0  0  0  0  0  0  0  0  0  0  0
  -21.1913  -13.9096   26.1421 C   0  0  0  0  0  0  0  0  0  0  0  0
  -26.2262  -26.0780   24.9764 C   0  0  0  0  0  0  0  0  0  0  0  0
  -25.4182  -24.9767   24.2807 C   0  0  0  0  0  0  0  0  0  0  0  0
  -26.0380  -23.5851   24.4430 C   0  0  0  0  0  0  0  0  0  0  0  0
  -25.1851  -22.5167   23.7612 C   0  0  0  0  0  0  0  0  0  0  0  0
  -25.8139  -21.1357   23.8805 C   0  0  0  0  0  0  0  0  0  1  0  0
  -22.3674  -13.3672   21.3298 C   0  0  1  0  0  0  0  0  0  0  0  0
  -19.9969  -12.8217   24.2372 C   0  0  2  0  0  0  0  0  0  0  0  0
  -23.2162  -30.0219   24.1941 C   0  0  0  0  0  0  0  0  0  0  0  0
  -22.0112  -12.8530   19.9064 C   0  0  0  0  0  0  0  0  0  0  0  0
  -25.5888  -29.7341   24.5156 N   0  0  0  0  0  0  0  0  0  0  0  0
  -25.1829  -27.5839   19.7761 N   0  0  0  0  0  0  0  0  0  0  0  0
  -24.3670  -29.1819   24.4238 N   0  0  0  0  0  0  0  0  0  0  0  0
  -24.0169  -28.2052   19.5303 N   0  0  0  0  0  0  0  0  0  0  0  0
  -24.6159  -14.1520   22.0025 N   0  0  0  0  0  0  0  0  0  0  0  0
  -24.1741  -31.0001   22.1367 N   0  0  0  0  0  0  0  0  0  0  0  0
  -21.9738  -27.9900   18.3513 N   0  0  0  0  0  0  0  0  0  0  0  0
  -24.1828  -24.1910   17.3101 N   0  0  0  0  0  0  0  0  0  0  0  0
  -27.8160  -13.4045   20.6131 N   0  0  0  0  0  0  0  0  0  0  0  0
  -21.5283  -12.8197   22.3903 N   0  0  0  0  0  0  0  0  0  0  0  0
  -19.8851  -13.5688   25.5218 N   0  3  0  0  0  0  0  0  0  0  0  0
  -22.2477  -25.3731   16.9681 O   0  0  0  0  0  0  0  0  0  0  0  0
  -26.2407  -15.0445   20.1117 O   0  0  0  0  0  0  0  0  0  0  0  0
  -24.1610  -11.8775   21.7658 O   0  0  0  0  0  0  0  0  0  0  0  0
  -23.4548  -32.3578   23.8800 O   0  0  0  0  0  0  0  0  0  0  0  0
  -20.7465  -14.8574   23.1737 O   0  0  0  0  0  0  0  0  0  0  0  0
  -29.2542  -22.7348   19.0977 O   0  0  0  0  0  0  0  0  0  0  0  0
  -24.9793  -20.1897   23.2134 O   0  0  0  0  0  0  0  0  0  1  0  0
  -27.9383  -17.4176   19.7298 F   0  0  0  0  0  0  0  0  0  0  0  0
  -30.2312  -21.2761   21.2332 F   0  0  0  0  0  0  0  0  0  0  0  0
  1  2  1  0  0  0  0
  1  5  2  0  0  0  0
  2  6  2  0  0  0  0
  3  8  2  0  0  0  0
  3 17  1  0  0  0  0
  4  9  1  0  0  0  0
  4 17  2  0  0  0  0
  5 19  1  0  0  0  0
  6 21  1  0  0  0  0
  7 10  2  0  0  0  0
  7 20  1  0  0  0  0
  8 24  1  0  0  0  0
  9 24  2  0  0  0  0
 10 25  1  0  0  0  0
 11 12  2  0  0  0  0
 11 26  1  0  0  0  0
 12 27  1  0  0  0  0
 13 22  1  0  0  0  0
 13 25  2  0  0  0  0
 14 27  2  0  0  0  0
 14 28  1  0  0  0  0
 15 23  1  0  0  0  0
 15 64  2  0  0  0  0
 16 23  2  0  0  0  0
 16 66  1  0  0  0  0
 17 29  1  0  0  0  0
 18 29  1  0  0  0  0
 18 30  2  0  0  0  0
 18 31  1  0  0  0  0
 19 21  2  0  0  0  0
 19 36  1  0  0  0  0
 20 22  2  0  0  0  0
 20 37  1  0  0  0  0
 21 45  1  0  0  0  0
 22 38  1  0  0  0  0
 23 55  1  0  0  0  0
 24 80  1  0  0  0  0
 25 81  1  0  0  0  0
 26 28  2  0  0  0  0
 26 80  1  0  0  0  0
 27 82  1  0  0  0  0
 28 83  1  0  0  0  0
 29 65  2  0  0  0  0
 30 67  1  0  0  0  0
 30 70  1  0  0  0  0
 31 71  1  0  0  0  0
 31 75  2  0  0  0  0
 32 46  1  0  0  0  0
 32 72  1  0  0  0  0
 32 76  2  0  0  0  0
 33 60  1  0  0  0  0
 33 68  1  0  0  0  0
 33 77  2  0  0  0  0
 34 62  1  0  0  0  0
 34 69  1  0  0  0  0
 34 78  2  0  0  0  0
 35 61  1  0  0  0  0
 35 73  1  0  0  0  0
 35 79  2  0  0  0  0
 36 39  1  0  0  0  0
 37 46  1  0  0  0  0
 38 68  1  0  0  0  0
 39 41  1  0  0  0  0
 40 42  1  0  0  0  0
 40 43  1  0  0  0  0
 41 45  1  0  0  0  0
 42 47  1  0  0  0  0
 43 69  1  0  0  0  0
 44 47  1  0  0  0  0
 44 69  1  0  0  0  0
 45 72  1  0  0  0  0
 46 68  1  0  0  0  0
 47 67  1  0  0  0  0
 48 61  1  0  0  0  0
 49 62  1  0  0  0  0
 50 62  1  0  0  0  0
 51 63  1  0  0  0  0
 52 63  1  0  0  0  0
 53 63  1  0  0  0  0
 54 74  1  0  0  0  0
 55 56  1  0  0  0  0
 56 57  1  0  0  0  0
 57 58  1  0  0  0  0
 58 59  1  0  0  0  0
 59 81  1  0  0  0  0
 60 63  1  0  0  0  0
 60 73  1  0  0  0  0
 61 74  1  0  0  0  0
 62 66  1  0  0  0  0
 64 66  1  0  0  0  0
 65 67  1  0  0  0  0
M  CHG  1  74   1
M  ISO  4  34 100  59 101  62 100  81 101
M  END
> <Batch ID>
0068

> <Smiles>
CNC(C)C(=O)NC(C(=O)N1Cc2cc([101O:1][101CH2:1]CCCCc3cnn([100C:0](C)(C)[100C:0](=O)N4CCCC(n5nc(-c6ccc(Oc7ccc(F)cc7F)cc6)c(C(N)=O)c5N)C4)c3)ccc2CC1C(=O)NC1CCCc2ccccc21)C(C)(C)C

> <Shape>
0.229

> <Color>
0.071

> <Negative vol penalty>
0.000

$$$$

  -OEChem-04052318142D

  0  0  0     0  0  0  0  0  0999 V2000
M  END
$$$$

  -OEChem-04052318143D

 92100  0     1  0  0  0  0  0999 V2000
  -17.4713  -14.0043   21.8581 C   0  0  0  0  0  0  0  0  0  0  0  0
  -18.3720  -15.0601   21.9548 C   0  0  0  0  0  0  0  0  0  0  0  0
  -27.2326  -25.3029   17.8864 C   0  0  0  0  0  0  0  0  0  0  0  0
  -26.8921  -24.3355   20.0739 C   0  0  0  0  0  0  0  0  0  0  0  0
  -17.8710  -12.7146   22.2056 C   0  0  0  0  0  0  0  0  0  0  0  0
  -19.6727  -14.8270   22.4002 C   0  0  0  0  0  0  0  0  0  0  0  0
  -24.7655  -17.6785   20.5460 C   0  0  0  0  0  0  0  0  0  0  0  0
  -28.3031  -24.4355   17.6694 C   0  0  0  0  0  0  0  0  0  0  0  0
  -27.9626  -23.4680   19.8569 C   0  0  0  0  0  0  0  0  0  0  0  0
  -25.5038  -18.7284   21.0904 C   0  0  0  0  0  0  0  0  0  0  0  0
  -28.5337  -20.5897   18.1807 C   0  0  0  0  0  0  0  0  0  0  0  0
  -28.3599  -19.2493   18.5253 C   0  0  0  0  0  0  0  0  0  0  0  0
  -26.9904  -17.1369   22.1280 C   0  0  0  0  0  0  0  0  0  0  0  0
  -30.2019  -19.4103   20.0804 C   0  0  0  0  0  0  0  0  0  0  0  0
  -26.8446  -28.2887   24.9123 C   0  0  0  0  0  0  0  0  0  0  0  0
  -26.5271  -25.2530   19.0887 C   0  0  0  0  0  0  0  0  0  0  0  0
  -24.0672  -25.9231   19.0031 C   0  0  0  0  0  0  0  0  0  0  0  0
  -19.1800  -12.4639   22.6463 C   0  0  0  0  0  0  0  0  0  0  0  0
  -25.1283  -16.3476   20.7979 C   0  0  0  0  0  0  0  0  0  0  0  0
  -20.0898  -13.5329   22.7552 C   0  0  0  0  0  0  0  0  0  0  0  0
  -26.2566  -16.0720   21.5835 C   0  0  0  0  0  0  0  0  0  0  0  0
  -28.6681  -23.5180   18.6546 C   0  0  0  0  0  0  0  0  0  0  0  0
  -26.6148  -18.4577   21.8839 C   0  0  0  0  0  0  0  0  0  0  0  0
  -29.5417  -21.3404   18.7858 C   0  0  0  0  0  0  0  0  0  0  0  0
  -29.1939  -18.6597   19.4752 C   0  0  0  0  0  0  0  0  0  0  0  0
  -30.3757  -20.7507   19.7357 C   0  0  0  0  0  0  0  0  0  0  0  0
  -25.4215  -26.1492   19.3137 C   0  0  0  0  0  0  0  0  0  0  0  0
  -26.0220  -27.2311   24.6447 C   0  0  0  0  0  0  0  0  0  0  0  0
  -23.4259  -27.0675   19.4103 C   0  0  0  0  0  0  0  0  0  0  0  0
  -24.7752  -29.0574   24.7479 C   0  0  0  0  0  0  0  0  0  0  0  0
  -23.4444  -24.7809   18.4005 C   0  0  0  0  0  0  0  0  0  0  0  0
  -23.7299  -13.8719   22.2188 C   0  0  0  0  0  0  0  0  0  0  0  0
  -26.3360  -12.2748   21.1325 C   0  0  0  0  0  0  0  0  0  0  0  0
  -23.7290  -31.0178   23.6588 C   0  0  0  0  0  0  0  0  0  0  0  0
  -29.5876  -12.3962   20.1033 C   0  0  0  0  0  0  0  0  0  0  0  0
  -19.5520  -11.0608   23.0557 C   0  0  0  0  0  0  0  0  0  0  0  0
  -24.3373  -15.2267   20.1813 C   0  0  0  0  0  0  0  0  0  0  0  0
  -26.6999  -14.6608   21.8673 C   0  0  0  0  0  0  0  0  0  0  0  0
  -21.0582  -10.8363   23.1616 C   0  0  0  0  0  0  0  0  0  0  0  0
  -24.8141  -31.7164   20.3159 C   0  0  0  0  0  0  0  0  0  0  0  0
  -21.7152  -11.9774   23.9317 C   0  0  0  0  0  0  0  0  0  0  0  0
  -24.9808  -30.3299   19.6955 C   0  0  0  0  0  0  0  0  0  0  0  0
  -25.1941  -31.7163   21.7933 C   0  0  0  0  0  0  0  0  0  0  0  0
  -24.6229  -29.3171   21.9914 C   0  0  0  0  0  0  0  0  0  0  0  0
  -21.5167  -13.3159   23.2104 C   0  0  1  0  0  0  0  0  0  0  0  0
  -24.4945  -13.9044   20.9257 C   0  0  1  0  0  0  0  0  0  0  0  0
  -24.2202  -29.2661   20.5070 C   0  0  2  0  0  0  0  0  0  0  0  0
  -31.4604  -10.9240   19.3142 C   0  0  0  0  0  0  0  0  0  0  0  0
  -23.4190  -30.6932   26.0810 C   0  0  0  0  0  0  0  0  0  0  0  0
  -22.2236  -29.2890   24.3978 C   0  0  0  0  0  0  0  0  0  0  0  0
  -26.7921  -11.3245   23.9958 C   0  0  0  0  0  0  0  0  0  0  0  0
  -29.1215  -10.6845   23.3385 C   0  0  0  0  0  0  0  0  0  0  0  0
  -27.1707   -9.5796   22.2447 C   0  0  0  0  0  0  0  0  0  0  0  0
  -24.7937  -24.4946   26.0574 C   0  0  0  0  0  0  0  0  0  0  0  0
  -26.8169  -25.6123   26.9664 C   0  0  0  0  0  0  0  0  0  0  0  0
  -27.1227  -22.5696   26.7423 C   0  0  0  0  0  0  0  0  0  0  0  0
  -28.6355  -23.8134   25.2147 C   0  0  0  0  0  0  0  0  0  0  0  0
  -27.9599  -30.9123   24.7073 C   0  0  0  0  0  0  0  0  0  0  0  0
  -26.4800  -31.0317   26.7507 C   0  0  0  0  0  0  0  0  0  0  0  0
  -25.6670  -31.8564   24.5534 C   0  0  0  0  0  0  0  0  0  0  0  0
  -29.7401  -13.7900   17.4969 C   0  0  0  0  0  0  0  0  0  0  0  0
  -26.3149  -25.7557   24.4652 C   0  0  0  0  0  0  0  0  0  0  0  0
  -27.3184  -21.3876   23.8833 C   0  0  0  0  0  0  0  0  0  0  0  0
  -26.5882  -22.6859   24.2558 C   0  0  0  0  0  0  0  0  0  0  0  0
  -26.6367  -20.6867   22.7128 C   0  0  0  0  0  0  0  0  0  1  0  0
  -27.7139  -11.9823   21.6756 C   0  0  1  0  0  0  0  0  0  0  0  0
  -30.2854  -11.7946   18.8968 C   0  0  2  0  0  0  0  0  0  0  0  0
  -23.5952  -29.9573   24.7224 C   0  0  0  0  0  0  0  0  0  0  0  0
  -27.6903  -10.9194   22.8101 C   0  0  0  0  0  0  0  0  0  0  0  0
  -26.2748  -24.8330   25.7408 C   0  0  0  0  0  0  0  0  0  0  0  0
  -27.1444  -23.4820   25.4904 C   0  0  0  0  0  0  0  0  0  0  0  0
  -26.5155  -30.7523   25.2315 C   0  0  0  0  0  0  0  0  0  0  0  0
  -25.6295  -27.3433   19.8747 N   0  0  0  0  0  0  0  0  0  0  0  0
  -26.0467  -29.4059   24.9701 N   0  0  0  0  0  0  0  0  0  0  0  0
  -24.3974  -27.8779   19.9198 N   0  0  0  0  0  0  0  0  0  0  0  0
  -24.7476  -27.7357   24.5484 N   0  3  0  0  0  0  0  0  0  0  0  0
  -25.8901  -13.5991   21.2471 N   0  0  0  0  0  0  0  0  0  0  0  0
  -24.4671  -30.6774   22.5250 N   0  0  0  0  0  0  0  0  0  0  0  0
  -22.1315  -27.4495   19.3785 N   0  0  0  0  0  0  0  0  0  0  0  0
  -24.2504  -23.6913   18.0433 N   0  0  0  0  0  0  0  0  0  0  0  0
  -22.4278  -13.4272   22.0915 N   0  0  0  0  0  0  0  0  0  0  0  0
  -28.5351  -11.6130   20.5278 N   0  0  0  0  0  0  0  0  0  0  0  0
  -30.7936  -12.8722   18.0016 N   0  3  0  0  0  0  0  0  0  0  0  0
  -22.2122  -24.7346   18.1702 O   0  0  0  0  0  0  0  0  0  0  0  0
  -24.2811  -14.2227   23.2556 O   0  0  0  0  0  0  0  0  0  0  0  0
  -25.6824  -11.3634   20.6189 O   0  0  0  0  0  0  0  0  0  0  0  0
  -23.1905  -32.1144   23.8309 O   0  0  0  0  0  0  0  0  0  0  0  0
  -29.9431  -13.4532   20.6199 O   0  0  0  0  0  0  0  0  0  0  0  0
  -29.7125  -22.6712   18.4431 O   0  0  0  0  0  0  0  0  0  0  0  0
  -27.3421  -19.4880   22.4210 O   0  0  0  0  0  0  0  0  0  1  0  0
  -29.0259  -17.3729   19.8072 F   0  0  0  0  0  0  0  0  0  0  0  0
  -31.3450  -21.4671   20.3213 F   0  0  0  0  0  0  0  0  0  0  0  0
  1  2  1  0  0  0  0
  1  5  2  0  0  0  0
  2  6  2  0  0  0  0
  3  8  2  0  0  0  0
  3 16  1  0  0  0  0
  4  9  1  0  0  0  0
  4 16  2  0  0  0  0
  5 18  1  0  0  0  0
  6 20  1  0  0  0  0
  7 10  2  0  0  0  0
  7 19  1  0  0  0  0
  8 22  1  0  0  0  0
  9 22  2  0  0  0  0
 10 23  1  0  0  0  0
 11 12  2  0  0  0  0
 11 24  1  0  0  0  0
 12 25  1  0  0  0  0
 13 21  1  0  0  0  0
 13 23  2  0  0  0  0
 14 25  2  0  0  0  0
 14 26  1  0  0  0  0
 15 28  2  0  0  0  0
 15 74  1  0  0  0  0
 16 27  1  0  0  0  0
 17 27  1  0  0  0  0
 17 29  2  0  0  0  0
 17 31  1  0  0  0  0
 18 20  2  0  0  0  0
 18 36  1  0  0  0  0
 19 21  2  0  0  0  0
 19 37  1  0  0  0  0
 20 45  1  0  0  0  0
 21 38  1  0  0  0  0
 22 89  1  0  0  0  0
 23 90  1  0  0  0  0
 24 26  2  0  0  0  0
 24 89  1  0  0  0  0
 25 91  1  0  0  0  0
 26 92  1  0  0  0  0
 27 73  2  0  0  0  0
 28 62  1  0  0  0  0
 28 76  1  0  0  0  0
 29 75  1  0  0  0  0
 29 79  1  0  0  0  0
 30 68  1  0  0  0  0
 30 74  1  0  0  0  0
 30 76  2  0  0  0  0
 31 80  1  0  0  0  0
 31 84  2  0  0  0  0
 32 46  1  0  0  0  0
 32 81  1  0  0  0  0
 32 85  2  0  0  0  0
 33 66  1  0  0  0  0
 33 77  1  0  0  0  0
 33 86  2  0  0  0  0
 34 68  1  0  0  0  0
 34 78  1  0  0  0  0
 34 87  2  0  0  0  0
 35 67  1  0  0  0  0
 35 82  1  0  0  0  0
 35 88  2  0  0  0  0
 36 39  1  0  0  0  0
 37 46  1  0  0  0  0
 38 77  1  0  0  0  0
 39 41  1  0  0  0  0
 40 42  1  0  0  0  0
 40 43  1  0  0  0  0
 41 45  1  0  0  0  0
 42 47  1  0  0  0  0
 43 78  1  0  0  0  0
 44 47  1  0  0  0  0
 44 78  1  0  0  0  0
 45 81  1  0  0  0  0
 46 77  1  0  0  0  0
 47 75  1  0  0  0  0
 48 67  1  0  0  0  0
 49 68  1  0  0  0  0
 50 68  1  0  0  0  0
 51 69  1  0  0  0  0
 52 69  1  0  0  0  0
 53 69  1  0  0  0  0
 54 70  1  0  0  0  0
 55 70  1  0  0  0  0
 56 71  1  0  0  0  0
 57 71  1  0  0  0  0
 58 72  1  0  0  0  0
 59 72  1  0  0  0  0
 60 72  1  0  0  0  0
 61 83  1  0  0  0  0
 62 70  1  0  0  0  0
 63 64  1  0  0  0  0
 63 65  1  0  0  0  0
 64 71  1  0  0  0  0
 65 90  1  0  0  0  0
 66 69  1  0  0  0  0
 66 82  1  0  0  0  0
 67 83  1  0  0  0  0
 70 71  1  0  0  0  0
 72 74  1  0  0  0  0
 73 75  1  0  0  0  0
M  CHG  2  76   1  83   1
M  ISO  4  34 100  65 101  68 100  90 101
M  END
> <Batch ID>
0068

> <Smiles>
CNC(C)C(=O)NC(C(=O)N1Cc2cc([101O:1][101CH2:1]CCC(C)(C)C(C)(C)Cc3cn(C(C)(C)C)c([100C:0](C)(C)[100C:0](=O)N4CCCC(n5nc(-c6ccc(Oc7ccc(F)cc7F)cc6)c(C(N)=O)c5N)C4)n3)ccc2CC1C(=O)NC1CCCc2ccccc21)C(C)(C)C

> <Shape>
0.236

> <Color>
0.082

> <Negative vol penalty>
0.000

$$$$

  -OEChem-04052318143D

 83 91  0     1  0  0  0  0  0999 V2000
  -21.9005  -11.1285   19.0550 C   0  0  0  0  0  0  0  0  0  0  0  0
  -21.6015  -12.4779   19.2139 C   0  0  0  0  0  0  0  0  0  0  0  0
  -30.9676  -25.3453   18.5258 C   0  0  0  0  0  0  0  0  0  0  0  0
  -31.7381  -26.5903   20.4477 C   0  0  0  0  0  0  0  0  0  0  0  0
  -23.0994  -10.6182   19.5512 C   0  0  0  0  0  0  0  0  0  0  0  0
  -22.5008  -13.3175   19.8701 C   0  0  0  0  0  0  0  0  0  0  0  0
  -23.6164  -19.2092   18.6253 C   0  0  0  0  0  0  0  0  0  0  0  0
  -32.2604  -25.3533   18.0023 C   0  0  0  0  0  0  0  0  0  0  0  0
  -33.0310  -26.5982   19.9242 C   0  0  0  0  0  0  0  0  0  0  0  0
  -23.1565  -20.3929   19.2008 C   0  0  0  0  0  0  0  0  0  0  0  0
  -34.2675  -27.5184   16.3566 C   0  0  0  0  0  0  0  0  0  0  0  0
  -34.4160  -27.8217   15.0032 C   0  0  0  0  0  0  0  0  0  0  0  0
  -25.1427  -20.4936   20.5662 C   0  0  0  0  0  0  0  0  0  0  0  0
  -35.4349  -25.6628   14.6313 C   0  0  0  0  0  0  0  0  0  0  0  0
  -23.2473  -25.5535   24.1975 C   0  0  0  0  0  0  0  0  0  0  0  0
  -22.4104  -27.2949   23.1476 C   0  0  0  0  0  0  0  0  0  0  0  0
  -30.7064  -25.9638   19.7485 C   0  0  0  0  0  0  0  0  0  0  0  0
  -28.8048  -24.9903   21.1426 C   0  0  0  0  0  0  0  0  0  0  0  0
  -24.0182  -11.4540   20.2053 C   0  0  0  0  0  0  0  0  0  0  0  0
  -24.8398  -18.6521   19.0245 C   0  0  0  0  0  0  0  0  0  0  0  0
  -23.7125  -12.8177   20.3767 C   0  0  0  0  0  0  0  0  0  0  0  0
  -25.6170  -19.3041   19.9924 C   0  0  0  0  0  0  0  0  0  0  0  0
  -22.1765  -25.9615   23.3797 C   0  0  0  0  0  0  0  0  0  0  0  0
  -33.2922  -25.9797   18.7015 C   0  0  0  0  0  0  0  0  0  0  0  0
  -23.9183  -21.0337   20.1735 C   0  0  0  0  0  0  0  0  0  0  0  0
  -34.7027  -26.2874   16.8473 C   0  0  0  0  0  0  0  0  0  0  0  0
  -34.9996  -26.8939   14.1406 C   0  0  0  0  0  0  0  0  0  0  0  0
  -35.2864  -25.3596   15.9847 C   0  0  0  0  0  0  0  0  0  0  0  0
  -29.3710  -25.9564   20.2896 C   0  0  0  0  0  0  0  0  0  0  0  0
  -27.5257  -25.4376   21.3668 C   0  0  0  0  0  0  0  0  0  0  0  0
  -29.3834  -23.7954   21.6841 C   0  0  0  0  0  0  0  0  0  0  0  0
  -25.7220  -15.9185   20.3856 C   0  0  0  0  0  0  0  0  0  0  0  0
  -24.0265  -29.6316   22.5732 C   0  0  0  0  0  0  0  0  0  0  0  0
  -28.7082  -17.0575   19.8312 C   0  0  0  0  0  0  0  0  0  0  0  0
  -30.7284  -19.7582   19.3100 C   0  0  0  0  0  0  0  0  0  0  0  0
  -25.2798  -10.8472   20.7663 C   0  0  0  0  0  0  0  0  0  0  0  0
  -25.3344  -17.3889   18.3748 C   0  0  0  0  0  0  0  0  0  0  0  0
  -26.9470  -18.7579   20.4412 C   0  0  0  0  0  0  0  0  0  0  0  0
  -26.3476  -11.8796   21.1190 C   0  0  0  0  0  0  0  0  0  0  0  0
  -24.8727  -29.1079   19.1309 C   0  0  0  0  0  0  0  0  0  0  0  0
  -25.7331  -13.0383   21.8979 C   0  0  0  0  0  0  0  0  0  0  0  0
  -26.0901  -28.1866   19.1967 C   0  0  0  0  0  0  0  0  0  0  0  0
  -24.8582  -30.0976   20.2917 C   0  0  0  0  0  0  0  0  0  0  0  0
  -26.1513  -28.5334   21.7069 C   0  0  0  0  0  0  0  0  0  0  0  0
  -24.6737  -13.7653   21.0609 C   0  0  1  0  0  0  0  0  0  0  0  0
  -26.3527  -16.6378   19.2270 C   0  0  1  0  0  0  0  0  0  0  0  0
  -26.1884  -27.4976   20.5693 C   0  0  2  0  0  0  0  0  0  0  0  0
  -23.7287  -29.7320   25.0383 C   0  0  0  0  0  0  0  0  0  0  0  0
  -33.1299  -20.3771   18.9265 C   0  0  0  0  0  0  0  0  0  0  0  0
  -20.2327  -24.5462   24.0784 C   0  0  0  0  0  0  0  0  0  0  0  0
  -19.9773  -25.9010   22.0189 C   0  0  0  0  0  0  0  0  0  0  0  0
  -29.2950  -16.6049   22.7910 C   0  0  0  0  0  0  0  0  0  0  0  0
  -31.2998  -18.0848   22.5483 C   0  0  0  0  0  0  0  0  0  0  0  0
  -31.1550  -15.9607   21.2484 C   0  0  0  0  0  0  0  0  0  0  0  0
  -30.1221  -20.9410   16.6657 C   0  0  0  0  0  0  0  0  0  0  0  0
  -22.2742  -24.2703   20.7322 C   0  0  0  0  0  0  0  0  0  0  0  0
  -21.5191  -23.8976   22.0138 C   0  0  0  0  0  0  0  0  0  0  0  0
  -22.6488  -23.0299   19.9297 C   0  0  0  0  0  0  0  0  0  1  0  0
  -24.2125  -28.8802   23.8674 C   0  0  1  0  0  0  0  0  0  0  0  0
  -29.6858  -17.9133   20.5999 C   0  0  1  0  0  0  0  0  0  0  0  0
  -31.8026  -20.0271   18.2717 C   0  0  2  0  0  0  0  0  0  0  0  0
  -21.0069  -25.1069   22.8586 C   0  0  0  0  0  0  0  0  0  0  0  0
  -30.3329  -17.1505   21.7901 C   0  0  0  0  0  0  0  0  0  0  0  0
  -24.0982  -26.5471   24.4667 N   0  0  0  0  0  0  0  0  0  0  0  0
  -28.5212  -26.9429   19.9918 N   0  0  0  0  0  0  0  0  0  0  0  0
  -23.5624  -27.5928   23.8143 N   0  0  0  0  0  0  0  0  0  0  0  0
  -27.4079  -26.5990   20.6615 N   0  0  0  0  0  0  0  0  0  0  0  0
  -27.3845  -17.5170   19.7808 N   0  0  0  0  0  0  0  0  0  0  0  0
  -24.9759  -29.4057   21.5764 N   0  0  0  0  0  0  0  0  0  0  0  0
  -26.5013  -24.9467   22.0963 N   0  0  0  0  0  0  0  0  0  0  0  0
  -30.7093  -23.4854   21.3524 N   0  0  0  0  0  0  0  0  0  0  0  0
  -25.3048  -14.6345   20.0910 N   0  0  0  0  0  0  0  0  0  0  0  0
  -30.6435  -18.4178   19.6218 N   0  0  0  0  0  0  0  0  0  0  0  0
  -31.3999  -21.1599   17.3911 N   0  3  0  0  0  0  0  0  0  0  0  0
  -28.7382  -23.0169   22.4266 O   0  0  0  0  0  0  0  0  0  0  0  0
  -25.6226  -16.4858   21.4673 O   0  0  0  0  0  0  0  0  0  0  0  0
  -23.0640  -30.3940   22.4527 O   0  0  0  0  0  0  0  0  0  0  0  0
  -29.1059  -16.0232   19.2892 O   0  0  0  0  0  0  0  0  0  0  0  0
  -30.0364  -20.6488   19.7986 O   0  0  0  0  0  0  0  0  0  0  0  0
  -34.5539  -25.9875   18.1910 O   0  0  0  0  0  0  0  0  0  0  0  0
  -23.4715  -22.1888   20.7373 O   0  0  0  0  0  0  0  0  0  1  0  0
  -35.1408  -27.1846   12.8407 F   0  0  0  0  0  0  0  0  0  0  0  0
  -35.7053  -24.1748   16.4501 F   0  0  0  0  0  0  0  0  0  0  0  0
  1  2  1  0  0  0  0
  1  5  2  0  0  0  0
  2  6  2  0  0  0  0
  3  8  2  0  0  0  0
  3 17  1  0  0  0  0
  4  9  1  0  0  0  0
  4 17  2  0  0  0  0
  5 19  1  0  0  0  0
  6 21  1  0  0  0  0
  7 10  2  0  0  0  0
  7 20  1  0  0  0  0
  8 24  1  0  0  0  0
  9 24  2  0  0  0  0
 10 25  1  0  0  0  0
 11 12  2  0  0  0  0
 11 26  1  0  0  0  0
 12 27  1  0  0  0  0
 13 22  1  0  0  0  0
 13 25  2  0  0  0  0
 14 27  2  0  0  0  0
 14 28  1  0  0  0  0
 15 23  1  0  0  0  0
 15 64  2  0  0  0  0
 16 23  2  0  0  0  0
 16 66  1  0  0  0  0
 17 29  1  0  0  0  0
 18 29  1  0  0  0  0
 18 30  2  0  0  0  0
 18 31  1  0  0  0  0
 19 21  2  0  0  0  0
 19 36  1  0  0  0  0
 20 22  2  0  0  0  0
 20 37  1  0  0  0  0
 21 45  1  0  0  0  0
 22 38  1  0  0  0  0
 23 62  1  0  0  0  0
 24 80  1  0  0  0  0
 25 81  1  0  0  0  0
 26 28  2  0  0  0  0
 26 80  1  0  0  0  0
 27 82  1  0  0  0  0
 28 83  1  0  0  0  0
 29 65  2  0  0  0  0
 30 67  1  0  0  0  0
 30 70  1  0  0  0  0
 31 71  1  0  0  0  0
 31 75  2  0  0  0  0
 32 46  1  0  0  0  0
 32 72  1  0  0  0  0
 32 76  2  0  0  0  0
 33 59  1  0  0  0  0
 33 69  1  0  0  0  0
 33 77  2  0  0  0  0
 34 60  1  0  0  0  0
 34 68  1  0  0  0  0
 34 78  2  0  0  0  0
 35 61  1  0  0  0  0
 35 73  1  0  0  0  0
 35 79  2  0  0  0  0
 36 39  1  0  0  0  0
 37 46  1  0  0  0  0
 38 68  1  0  0  0  0
 39 41  1  0  0  0  0
 40 42  1  0  0  0  0
 40 43  1  0  0  0  0
 41 45  1  0  0  0  0
 42 47  1  0  0  0  0
 43 69  1  0  0  0  0
 44 47  1  0  0  0  0
 44 69  1  0  0  0  0
 45 72  1  0  0  0  0
 46 68  1  0  0  0  0
 47 67  1  0  0  0  0
 48 59  1  0  0  0  0
 49 61  1  0  0  0  0
 50 62  1  0  0  0  0
 51 62  1  0  0  0  0
 52 63  1  0  0  0  0
 53 63  1  0  0  0  0
 54 63  1  0  0  0  0
 55 74  1  0  0  0  0
 56 57  1  0  0  0  0
 56 58  1  0  0  0  0
 57 62  1  0  0  0  0
 58 81  1  0  0  0  0
 59 66  1  0  0  0  0
 60 63  1  0  0  0  0
 60 73  1  0  0  0  0
 61 74  1  0  0  0  0
 64 66  1  0  0  0  0
 65 67  1  0  0  0  0
M  CHG  1  74   1
M  ISO  4  33 100  58 101  59 100  81 101
M  END
> <Batch ID>
0068

> <Smiles>
CNC(C)C(=O)NC(C(=O)N1Cc2cc([101O:1][101CH2:1]CCC(C)(C)c3cnn([100CH:0](C)[100C:0](=O)N4CCCC(n5nc(-c6ccc(Oc7ccc(F)cc7F)cc6)c(C(N)=O)c5N)C4)c3)ccc2CC1C(=O)NC1CCCc2ccccc21)C(C)(C)C

> <Shape>
0.199

> <Color>
0.071

> <Negative vol penalty>
0.000

$$$$

  -OEChem-04052318143D

 91 99  0     1  0  0  0  0  0999 V2000
  -36.3520  -27.2503   18.6416 C   0  0  0  0  0  0  0  0  0  0  0  0
  -35.5663  -26.2965   18.0025 C   0  0  0  0  0  0  0  0  0  0  0  0
  -23.0699   -9.8692   20.0474 C   0  0  0  0  0  0  0  0  0  0  0  0
  -23.8089   -9.9969   22.3440 C   0  0  0  0  0  0  0  0  0  0  0  0
  -35.9535  -27.7684   19.8731 C   0  0  0  0  0  0  0  0  0  0  0  0
  -34.3822  -25.8594   18.5952 C   0  0  0  0  0  0  0  0  0  0  0  0
  -29.2074  -24.2587   15.7377 C   0  0  0  0  0  0  0  0  0  0  0  0
  -22.3104   -8.7403   20.3545 C   0  0  0  0  0  0  0  0  0  0  0  0
  -23.0494   -8.8681   22.6512 C   0  0  0  0  0  0  0  0  0  0  0  0
  -28.6775  -23.0193   15.3814 C   0  0  0  0  0  0  0  0  0  0  0  0
  -19.8067   -8.1416   23.2662 C   0  0  0  0  0  0  0  0  0  0  0  0
  -19.0388   -8.1762   24.4301 C   0  0  0  0  0  0  0  0  0  0  0  0
  -27.3520  -23.0134   17.3969 C   0  0  0  0  0  0  0  0  0  0  0  0
  -20.2507   -6.2696   25.2864 C   0  0  0  0  0  0  0  0  0  0  0  0
  -26.9902  -18.2435   20.0951 C   0  0  0  0  0  0  0  0  0  0  0  0
  -23.8193  -10.4975   21.0421 C   0  0  0  0  0  0  0  0  0  0  0  0
  -24.1917  -13.0079   20.7835 C   0  0  0  0  0  0  0  0  0  0  0  0
  -34.7591  -27.3446   20.4766 C   0  0  0  0  0  0  0  0  0  0  0  0
  -28.8212  -24.8807   16.9337 C   0  0  0  0  0  0  0  0  0  0  0  0
  -33.9681  -26.3714   19.8366 C   0  0  0  0  0  0  0  0  0  0  0  0
  -27.8766  -24.2618   17.7649 C   0  0  0  0  0  0  0  0  0  0  0  0
  -22.3001   -8.2398   21.6565 C   0  0  0  0  0  0  0  0  0  0  0  0
  -27.7518  -22.3951   16.2124 C   0  0  0  0  0  0  0  0  0  0  0  0
  -20.7967   -7.1710   23.1124 C   0  0  0  0  0  0  0  0  0  0  0  0
  -19.2607   -7.2402   25.4402 C   0  0  0  0  0  0  0  0  0  0  0  0
  -21.0186   -6.2350   24.1225 C   0  0  0  0  0  0  0  0  0  0  0  0
  -24.6045  -11.6633   20.7252 C   0  0  0  0  0  0  0  0  0  0  0  0
  -27.4275  -17.9650   18.8309 C   0  0  0  0  0  0  0  0  0  0  0  0
  -25.2958  -13.7234   20.3893 C   0  0  0  0  0  0  0  0  0  0  0  0
  -29.1961  -18.0697   20.1581 C   0  0  0  0  0  0  0  0  0  0  0  0
  -22.9236  -13.5606   21.1603 C   0  0  0  0  0  0  0  0  0  0  0  0
  -30.3295  -25.7800   19.5832 C   0  0  0  0  0  0  0  0  0  0  0  0
  -27.4489  -27.0786   20.3165 C   0  0  0  0  0  0  0  0  0  0  0  0
  -24.0662  -27.0671   19.8645 C   0  0  0  0  0  0  0  0  0  0  0  0
  -30.7891  -14.6902   20.5734 C   0  0  0  0  0  0  0  0  0  0  0  0
  -34.3936  -27.8986   21.8309 C   0  0  0  0  0  0  0  0  0  0  0  0
  -29.3820  -26.2299   17.2906 C   0  0  0  0  0  0  0  0  0  0  0  0
  -27.4137  -24.8970   19.0496 C   0  0  0  0  0  0  0  0  0  0  0  0
  -32.9357  -27.6582   22.2142 C   0  0  0  0  0  0  0  0  0  0  0  0
  -29.6455  -12.1878   18.3136 C   0  0  0  0  0  0  0  0  0  0  0  0
  -32.5403  -26.2126   21.9299 C   0  0  0  0  0  0  0  0  0  0  0  0
  -28.2008  -11.9350   18.7484 C   0  0  0  0  0  0  0  0  0  0  0  0
  -30.5542  -12.4657   19.5090 C   0  0  0  0  0  0  0  0  0  0  0  0
  -28.6486  -13.2950   20.8337 C   0  0  0  0  0  0  0  0  0  0  0  0
  -32.6644  -25.8904   20.4359 C   0  0  1  0  0  0  0  0  0  0  0  0
  -29.3043  -26.5333   18.7837 C   0  0  1  0  0  0  0  0  0  0  0  0
  -27.6832  -13.0651   19.6583 C   0  0  2  0  0  0  0  0  0  0  0  0
  -21.9728  -28.2207   20.6288 C   0  0  0  0  0  0  0  0  0  0  0  0
  -26.8619  -16.3840   16.8635 C   0  0  0  0  0  0  0  0  0  0  0  0
  -25.1464  -17.9095   17.7987 C   0  0  0  0  0  0  0  0  0  0  0  0
  -31.1318  -19.3728   21.2768 C   0  0  0  0  0  0  0  0  0  0  0  0
  -31.5812  -17.7690   19.4379 C   0  0  0  0  0  0  0  0  0  0  0  0
  -26.4762  -19.2965   24.9075 C   0  0  0  0  0  0  0  0  0  0  0  0
  -26.7652  -21.7147   24.3123 C   0  0  0  0  0  0  0  0  0  0  0  0
  -28.7670  -20.2752   24.7148 C   0  0  0  0  0  0  0  0  0  0  0  0
  -27.5689  -25.5452   22.9517 C   0  0  0  0  0  0  0  0  0  0  0  0
  -25.1148  -25.9594   23.2241 C   0  0  0  0  0  0  0  0  0  0  0  0
  -26.7012  -27.8828   23.1436 C   0  0  0  0  0  0  0  0  0  0  0  0
  -23.4394  -27.9960   17.1253 C   0  0  0  0  0  0  0  0  0  0  0  0
  -27.4298  -19.9215   22.6265 C   0  0  0  0  0  0  0  0  0  0  0  0
  -27.0541  -18.8699   16.4692 C   0  0  0  0  0  0  0  0  0  0  0  0
  -28.0961  -18.5737   22.3194 C   0  0  0  0  0  0  0  0  0  0  0  0
  -30.8689  -16.9062   21.6879 C   0  0  0  0  0  0  0  0  0  0  0  0
  -26.8562  -20.3127   16.9317 C   0  0  0  0  0  0  0  0  0  1  0  0
  -26.2071  -26.5942   21.0253 C   0  0  1  0  0  0  0  0  0  0  0  0
  -23.0829  -28.1905   19.5898 C   0  0  2  0  0  0  0  0  0  0  0  0
  -26.6623  -17.7765   17.5085 C   0  0  0  0  0  0  0  0  0  0  0  0
  -30.6029  -18.0413   20.6305 C   0  0  0  0  0  0  0  0  0  0  0  0
  -27.3414  -20.3011   24.1289 C   0  0  0  0  0  0  0  0  0  0  0  0
  -26.4080  -26.4822   22.5630 C   0  0  0  0  0  0  0  0  0  0  0  0
  -25.8719  -11.5299   20.3253 N   0  0  0  0  0  0  0  0  0  0  0  0
  -28.1055  -18.3020   20.8956 N   0  0  0  0  0  0  0  0  0  0  0  0
  -26.2650  -12.7999   20.1287 N   0  0  0  0  0  0  0  0  0  0  0  0
  -28.7960  -17.8630   18.8993 N   0  3  0  0  0  0  0  0  0  0  0  0
  -27.9958  -26.2137   19.3581 N   0  0  0  0  0  0  0  0  0  0  0  0
  -30.0076  -13.5486   20.3303 N   0  0  0  0  0  0  0  0  0  0  0  0
  -25.5224  -15.0462   20.2435 N   0  0  0  0  0  0  0  0  0  0  0  0
  -21.8980  -12.6833   21.5384 N   0  0  0  0  0  0  0  0  0  0  0  0
  -31.5398  -26.4355   19.7062 N   0  0  0  0  0  0  0  0  0  0  0  0
  -25.1318  -27.4962   20.6272 N   0  0  0  0  0  0  0  0  0  0  0  0
  -30.1932  -15.6716   21.3560 N   0  0  0  0  0  0  0  0  0  0  0  0
  -22.4635  -28.0196   18.2452 N   0  3  0  0  0  0  0  0  0  0  0  0
  -22.7012  -14.7951   21.1460 O   0  0  0  0  0  0  0  0  0  0  0  0
  -30.0433  -24.6858   20.0548 O   0  0  0  0  0  0  0  0  0  0  0  0
  -27.9123  -28.1867   20.5977 O   0  0  0  0  0  0  0  0  0  0  0  0
  -23.9033  -25.9225   19.4476 O   0  0  0  0  0  0  0  0  0  0  0  0
  -31.9311  -14.8271   20.1217 O   0  0  0  0  0  0  0  0  0  0  0  0
  -21.5588   -7.1384   21.9566 O   0  0  0  0  0  0  0  0  0  0  0  0
  -27.2335  -21.1851   15.8673 O   0  0  0  0  0  0  0  0  0  1  0  0
  -18.5242   -7.2745   26.5585 F   0  0  0  0  0  0  0  0  0  0  0  0
  -21.9690   -5.3009   23.9810 F   0  0  0  0  0  0  0  0  0  0  0  0
  1  2  1  0  0  0  0
  1  5  2  0  0  0  0
  2  6  2  0  0  0  0
  3  8  2  0  0  0  0
  3 16  1  0  0  0  0
  4  9  1  0  0  0  0
  4 16  2  0  0  0  0
  5 18  1  0  0  0  0
  6 20  1  0  0  0  0
  7 10  2  0  0  0  0
  7 19  1  0  0  0  0
  8 22  1  0  0  0  0
  9 22  2  0  0  0  0
 10 23  1  0  0  0  0
 11 12  2  0  0  0  0
 11 24  1  0  0  0  0
 12 25  1  0  0  0  0
 13 21  1  0  0  0  0
 13 23  2  0  0  0  0
 14 25  2  0  0  0  0
 14 26  1  0  0  0  0
 15 28  2  0  0  0  0
 15 72  1  0  0  0  0
 16 27  1  0  0  0  0
 17 27  1  0  0  0  0
 17 29  2  0  0  0  0
 17 31  1  0  0  0  0
 18 20  2  0  0  0  0
 18 36  1  0  0  0  0
 19 21  2  0  0  0  0
 19 37  1  0  0  0  0
 20 45  1  0  0  0  0
 21 38  1  0  0  0  0
 22 88  1  0  0  0  0
 23 89  1  0  0  0  0
 24 26  2  0  0  0  0
 24 88  1  0  0  0  0
 25 90  1  0  0  0  0
 26 91  1  0  0  0  0
 27 71  2  0  0  0  0
 28 67  1  0  0  0  0
 28 74  1  0  0  0  0
 29 73  1  0  0  0  0
 29 77  1  0  0  0  0
 30 68  1  0  0  0  0
 30 72  1  0  0  0  0
 30 74  2  0  0  0  0
 31 78  1  0  0  0  0
 31 83  2  0  0  0  0
 32 46  1  0  0  0  0
 32 79  1  0  0  0  0
 32 84  2  0  0  0  0
 33 65  1  0  0  0  0
 33 75  1  0  0  0  0
 33 85  2  0  0  0  0
 34 66  1  0  0  0  0
 34 80  1  0  0  0  0
 34 86  2  0  0  0  0
 35 76  1  0  0  0  0
 35 81  1  0  0  0  0
 35 87  2  0  0  0  0
 36 39  1  0  0  0  0
 37 46  1  0  0  0  0
 38 75  1  0  0  0  0
 39 41  1  0  0  0  0
 40 42  1  0  0  0  0
 40 43  1  0  0  0  0
 41 45  1  0  0  0  0
 42 47  1  0  0  0  0
 43 76  1  0  0  0  0
 44 47  1  0  0  0  0
 44 76  1  0  0  0  0
 45 79  1  0  0  0  0
 46 75  1  0  0  0  0
 47 73  1  0  0  0  0
 48 66  1  0  0  0  0
 49 67  1  0  0  0  0
 50 67  1  0  0  0  0
 51 68  1  0  0  0  0
 52 68  1  0  0  0  0
 53 69  1  0  0  0  0
 54 69  1  0  0  0  0
 55 69  1  0  0  0  0
 56 70  1  0  0  0  0
 57 70  1  0  0  0  0
 58 70  1  0  0  0  0
 59 82  1  0  0  0  0
 60 62  1  0  0  0  0
 60 69  1  0  0  0  0
 61 64  1  0  0  0  0
 61 67  1  0  0  0  0
 62 72  1  0  0  0  0
 63 68  1  0  0  0  0
 63 81  1  0  0  0  0
 64 89  1  0  0  0  0
 65 70  1  0  0  0  0
 65 80  1  0  0  0  0
 66 82  1  0  0  0  0
 71 73  1  0  0  0  0
M  CHG  2  74   1  82   1
M  ISO  4  35 100  64 101  81 100  89 101
M  END
> <Batch ID>
0068

> <Smiles>
CNC(C)C(=O)NC(C(=O)N1Cc2cc([101O:1][101CH2:1]CC(C)(C)c3cn(CCC(C)(C)C)c(C(C)(C)C[100NH:0][100C:0](=O)N4CCCC(n5nc(-c6ccc(Oc7ccc(F)cc7F)cc6)c(C(N)=O)c5N)C4)n3)ccc2CC1C(=O)NC1CCCc2ccccc21)C(C)(C)C

> <Shape>
0.272

> <Color>
0.184

> <Negative vol penalty>
0.000

$$$$

  -OEChem-04052318143D

 92100  0     1  0  0  0  0  0999 V2000
  -36.2010  -31.4293   20.6698 C   0  0  0  0  0  0  0  0  0  0  0  0
  -35.1952  -30.5361   21.0244 C   0  0  0  0  0  0  0  0  0  0  0  0
  -24.5327   -8.9502   20.8977 C   0  0  0  0  0  0  0  0  0  0  0  0
  -22.6025  -10.3774   20.6242 C   0  0  0  0  0  0  0  0  0  0  0  0
  -36.2151  -32.7131   21.2135 C   0  0  0  0  0  0  0  0  0  0  0  0
  -34.2035  -30.9257   21.9239 C   0  0  0  0  0  0  0  0  0  0  0  0
  -29.5673  -29.5530   20.4184 C   0  0  0  0  0  0  0  0  0  0  0  0
  -23.6959   -7.8776   21.2056 C   0  0  0  0  0  0  0  0  0  0  0  0
  -21.7657   -9.3047   20.9320 C   0  0  0  0  0  0  0  0  0  0  0  0
  -29.2050  -28.2201   20.6077 C   0  0  0  0  0  0  0  0  0  0  0  0
  -22.0821   -4.8518   22.4155 C   0  0  0  0  0  0  0  0  0  0  0  0
  -22.4276   -4.0489   23.5025 C   0  0  0  0  0  0  0  0  0  0  0  0
  -27.9756  -28.8416   22.5879 C   0  0  0  0  0  0  0  0  0  0  0  0
  -22.2877   -5.9675   24.9642 C   0  0  0  0  0  0  0  0  0  0  0  0
  -26.2403  -20.8336   23.4407 C   0  0  0  0  0  0  0  0  0  0  0  0
  -23.9860  -10.2002   20.6071 C   0  0  0  0  0  0  0  0  0  0  0  0
  -25.3114  -11.6890   19.0151 C   0  0  0  0  0  0  0  0  0  0  0  0
  -35.2176  -33.1220   22.1126 C   0  0  0  0  0  0  0  0  0  0  0  0
  -29.1447  -30.5403   21.3202 C   0  0  0  0  0  0  0  0  0  0  0  0
  -34.2050  -32.2158   22.4811 C   0  0  0  0  0  0  0  0  0  0  0  0
  -28.3317  -30.1867   22.4065 C   0  0  0  0  0  0  0  0  0  0  0  0
  -22.3124   -8.0548   21.2227 C   0  0  0  0  0  0  0  0  0  0  0  0
  -28.4115  -27.8637   21.6941 C   0  0  0  0  0  0  0  0  0  0  0  0
  -21.8394   -6.2126   22.6029 C   0  0  0  0  0  0  0  0  0  0  0  0
  -22.5304   -4.6067   24.7768 C   0  0  0  0  0  0  0  0  0  0  0  0
  -21.9421   -6.7704   23.8772 C   0  0  0  0  0  0  0  0  0  0  0  0
  -24.8499  -11.3088   20.2895 C   0  0  0  0  0  0  0  0  0  0  0  0
  -25.9075  -20.1081   22.3180 C   0  0  0  0  0  0  0  0  0  0  0  0
  -28.2971  -21.2768   22.5447 C   0  0  0  0  0  0  0  0  0  0  0  0
  -27.9646  -20.5507   21.4223 C   0  0  0  0  0  0  0  0  0  0  0  0
  -26.0939  -12.7934   19.2486 C   0  0  0  0  0  0  0  0  0  0  0  0
  -25.0556  -11.0969   17.7346 C   0  0  0  0  0  0  0  0  0  0  0  0
  -30.6147  -32.5635   23.2822 C   0  0  0  0  0  0  0  0  0  0  0  0
  -27.6104  -33.7017   23.7303 C   0  0  0  0  0  0  0  0  0  0  0  0
  -24.2483  -33.1246   23.6283 C   0  0  0  0  0  0  0  0  0  0  0  0
  -26.1786  -16.8787   23.6252 C   0  0  0  0  0  0  0  0  0  0  0  0
  -35.3014  -34.5040   22.7105 C   0  0  0  0  0  0  0  0  0  0  0  0
  -29.5219  -31.9776   21.0871 C   0  0  0  0  0  0  0  0  0  0  0  0
  -27.8350  -31.2117   23.3920 C   0  0  0  0  0  0  0  0  0  0  0  0
  -34.0025  -34.9629   23.3682 C   0  0  0  0  0  0  0  0  0  0  0  0
  -28.8655  -14.7763   22.6068 C   0  0  0  0  0  0  0  0  0  0  0  0
  -33.4349  -33.8598   24.2559 C   0  0  0  0  0  0  0  0  0  0  0  0
  -28.1827  -13.6835   21.7824 C   0  0  0  0  0  0  0  0  0  0  0  0
  -28.0039  -15.2121   23.7899 C   0  0  0  0  0  0  0  0  0  0  0  0
  -25.9484  -14.5289   22.6144 C   0  0  0  0  0  0  0  0  0  0  0  0
  -33.0977  -32.6095   23.4345 C   0  0  1  0  0  0  0  0  0  0  0  0
  -29.4617  -32.8243   22.3547 C   0  0  1  0  0  0  0  0  0  0  0  0
  -26.7546  -14.0961   21.3779 C   0  0  2  0  0  0  0  0  0  0  0  0
  -22.0445  -34.2334   24.0877 C   0  0  0  0  0  0  0  0  0  0  0  0
  -29.0689  -20.1789   18.0094 C   0  0  0  0  0  0  0  0  0  0  0  0
  -28.7573  -18.1761   19.5072 C   0  0  0  0  0  0  0  0  0  0  0  0
  -24.3288  -18.6670   20.8697 C   0  0  0  0  0  0  0  0  0  0  0  0
  -28.0524  -33.3334   26.7268 C   0  0  0  0  0  0  0  0  0  0  0  0
  -25.5773  -33.5336   27.0459 C   0  0  0  0  0  0  0  0  0  0  0  0
  -26.8697  -35.4455   26.0987 C   0  0  0  0  0  0  0  0  0  0  0  0
  -23.3868  -32.8410   20.8111 C   0  0  0  0  0  0  0  0  0  0  0  0
  -29.6454  -21.9389   22.6764 C   0  0  0  0  0  0  0  0  0  0  0  0
  -29.7888  -23.2215   21.8496 C   0  0  0  0  0  0  0  0  0  0  0  0
  -28.8246  -24.3257   22.2855 C   0  0  0  0  0  0  0  0  0  0  0  0
  -24.2687  -18.4421   23.3663 C   0  0  0  0  0  0  0  0  0  0  0  0
  -28.9684  -25.5683   21.4172 C   0  0  0  0  0  0  0  0  0  1  0  0
  -26.4794  -33.3893   24.6802 C   0  0  1  0  0  0  0  0  0  0  0  0
  -23.1051  -33.9320   23.0403 C   0  0  2  0  0  0  0  0  0  0  0  0
  -28.4148  -19.6394   19.2722 C   0  0  0  0  0  0  0  0  0  0  0  0
  -24.5709  -19.4620   22.2045 C   0  0  1  0  0  0  0  0  0  0  0  0
  -26.7555  -33.9056   26.1206 C   0  0  0  0  0  0  0  0  0  0  0  0
  -23.4384  -20.5363   22.2481 C   0  0  0  0  0  0  0  0  0  0  0  0
  -27.4410  -21.4310   23.5742 N   0  0  0  0  0  0  0  0  0  0  0  0
  -25.3016  -12.1067   21.2607 N   0  0  0  0  0  0  0  0  0  0  0  0
  -26.7637  -19.9536   21.2887 N   0  0  0  0  0  0  0  0  0  0  0  0
  -26.0553  -12.9993   20.5963 N   0  0  0  0  0  0  0  0  0  0  0  0
  -28.2359  -32.6028   23.1246 N   0  0  0  0  0  0  0  0  0  0  0  0
  -26.6632  -15.5919   23.3381 N   0  0  0  0  0  0  0  0  0  0  0  0
  -26.8043  -13.5987   18.4306 N   0  0  0  0  0  0  0  0  0  0  0  0
  -24.2292   -9.9665   17.6743 N   0  0  0  0  0  0  0  0  0  0  0  0
  -31.8544  -32.7958   22.7177 N   0  0  0  0  0  0  0  0  0  0  0  0
  -25.2718  -33.9358   24.0708 N   0  0  0  0  0  0  0  0  0  0  0  0
  -24.9014  -17.1592   23.1553 N   0  0  0  0  0  0  0  0  0  0  0  0
  -22.4631  -33.1832   21.9232 N   0  3  0  0  0  0  0  0  0  0  0  0
  -25.5585  -11.5468   16.6772 O   0  0  0  0  0  0  0  0  0  0  0  0
  -30.3958  -32.1813   24.4257 O   0  0  0  0  0  0  0  0  0  0  0  0
  -27.9225  -34.8778   23.5276 O   0  0  0  0  0  0  0  0  0  0  0  0
  -24.2332  -31.8973   23.6922 O   0  0  0  0  0  0  0  0  0  0  0  0
  -26.8377  -17.7175   24.2490 O   0  0  0  0  0  0  0  0  0  0  0  0
  -21.4956   -7.0082   21.5228 O   0  0  0  0  0  0  0  0  0  0  0  0
  -28.0570  -26.5633   21.8815 O   0  0  0  0  0  0  0  0  0  1  0  0
  -28.8488  -20.4080   20.3900 O   0  0  0  0  0  0  0  0  0  0  0  0
  -22.8608   -3.8353   25.8208 F   0  0  0  0  0  0  0  0  0  0  0  0
  -21.7090   -8.0768   24.0635 F   0  0  0  0  0  0  0  0  0  0  0  0
  -23.5777  -21.4130   21.2272 F   0  0  0  0  0  0  0  0  0  0  0  0
  -23.4717  -21.2443   23.3985 F   0  0  0  0  0  0  0  0  0  0  0  0
  -22.1981  -20.0021   22.1497 F   0  0  0  0  0  0  0  0  0  0  0  0
  1  2  1  0  0  0  0
  1  5  2  0  0  0  0
  2  6  2  0  0  0  0
  3  8  2  0  0  0  0
  3 16  1  0  0  0  0
  4  9  1  0  0  0  0
  4 16  2  0  0  0  0
  5 18  1  0  0  0  0
  6 20  1  0  0  0  0
  7 10  2  0  0  0  0
  7 19  1  0  0  0  0
  8 22  1  0  0  0  0
  9 22  2  0  0  0  0
 10 23  1  0  0  0  0
 11 12  2  0  0  0  0
 11 24  1  0  0  0  0
 12 25  1  0  0  0  0
 13 21  1  0  0  0  0
 13 23  2  0  0  0  0
 14 25  2  0  0  0  0
 14 26  1  0  0  0  0
 15 28  1  0  0  0  0
 15 68  2  0  0  0  0
 16 27  1  0  0  0  0
 17 27  1  0  0  0  0
 17 31  2  0  0  0  0
 17 32  1  0  0  0  0
 18 20  2  0  0  0  0
 18 37  1  0  0  0  0
 19 21  2  0  0  0  0
 19 38  1  0  0  0  0
 20 46  1  0  0  0  0
 21 39  1  0  0  0  0
 22 85  1  0  0  0  0
 23 86  1  0  0  0  0
 24 26  2  0  0  0  0
 24 85  1  0  0  0  0
 25 88  1  0  0  0  0
 26 89  1  0  0  0  0
 27 69  2  0  0  0  0
 28 65  1  0  0  0  0
 28 70  2  0  0  0  0
 29 30  2  0  0  0  0
 29 57  1  0  0  0  0
 29 68  1  0  0  0  0
 30 70  1  0  0  0  0
 30 87  1  0  0  0  0
 31 71  1  0  0  0  0
 31 74  1  0  0  0  0
 32 75  1  0  0  0  0
 32 80  2  0  0  0  0
 33 47  1  0  0  0  0
 33 76  1  0  0  0  0
 33 81  2  0  0  0  0
 34 62  1  0  0  0  0
 34 72  1  0  0  0  0
 34 82  2  0  0  0  0
 35 63  1  0  0  0  0
 35 77  1  0  0  0  0
 35 83  2  0  0  0  0
 36 73  1  0  0  0  0
 36 78  1  0  0  0  0
 36 84  2  0  0  0  0
 37 40  1  0  0  0  0
 38 47  1  0  0  0  0
 39 72  1  0  0  0  0
 40 42  1  0  0  0  0
 41 43  1  0  0  0  0
 41 44  1  0  0  0  0
 42 46  1  0  0  0  0
 43 48  1  0  0  0  0
 44 73  1  0  0  0  0
 45 48  1  0  0  0  0
 45 73  1  0  0  0  0
 46 76  1  0  0  0  0
 47 72  1  0  0  0  0
 48 71  1  0  0  0  0
 49 63  1  0  0  0  0
 50 64  1  0  0  0  0
 51 64  1  0  0  0  0
 52 65  1  0  0  0  0
 53 66  1  0  0  0  0
 54 66  1  0  0  0  0
 55 66  1  0  0  0  0
 56 79  1  0  0  0  0
 57 58  1  0  0  0  0
 58 59  1  0  0  0  0
 59 61  1  0  0  0  0
 60 65  1  0  0  0  0
 60 78  1  0  0  0  0
 61 86  1  0  0  0  0
 62 66  1  0  0  0  0
 62 77  1  0  0  0  0
 63 79  1  0  0  0  0
 64 87  1  0  0  0  0
 65 67  1  0  0  0  0
 67 90  1  0  0  0  0
 67 91  1  0  0  0  0
 67 92  1  0  0  0  0
 69 71  1  0  0  0  0
M  CHG  1  79   1
M  ISO  4  36 100  61 101  78 100  86 101
M  END
> <Batch ID>
0068

> <Smiles>
CNC(C)C(=O)NC(C(=O)N1Cc2cc([101O:1][101CH2:1]CCCc3ncc(C(C)(C[100NH:0][100C:0](=O)N4CCCC(n5nc(-c6ccc(Oc7ccc(F)cc7F)cc6)c(C(N)=O)c5N)C4)C(F)(F)F)nc3OC(C)C)ccc2CC1C(=O)NC1CCCc2ccccc21)C(C)(C)C

> <Shape>
0.201

> <Color>
0.106

> <Negative vol penalty>
0.000

$$$$

  -OEChem-04052318143D

 87 95  0     1  0  0  0  0  0999 V2000
  -21.8695  -32.1057   19.8002 C   0  0  0  0  0  0  0  0  0  0  0  0
  -21.9513  -31.3173   18.6568 C   0  0  0  0  0  0  0  0  0  0  0  0
  -23.0049   -9.9690   20.3017 C   0  0  0  0  0  0  0  0  0  0  0  0
  -24.3703   -9.1275   22.1085 C   0  0  0  0  0  0  0  0  0  0  0  0
  -23.0278  -32.4343   20.5032 C   0  0  0  0  0  0  0  0  0  0  0  0
  -23.1916  -30.8580   18.2153 C   0  0  0  0  0  0  0  0  0  0  0  0
  -24.5055  -23.8086   17.5280 C   0  0  0  0  0  0  0  0  0  0  0  0
  -22.2809   -8.7768   20.2936 C   0  0  0  0  0  0  0  0  0  0  0  0
  -23.6464   -7.9353   22.1004 C   0  0  0  0  0  0  0  0  0  0  0  0
  -24.7650  -22.4857   17.1695 C   0  0  0  0  0  0  0  0  0  0  0  0
  -20.6650   -6.8257   23.2408 C   0  0  0  0  0  0  0  0  0  0  0  0
  -20.2621   -6.3055   24.4707 C   0  0  0  0  0  0  0  0  0  0  0  0
  -27.0242  -23.0856   16.5498 C   0  0  0  0  0  0  0  0  0  0  0  0
  -21.5205   -4.2906   24.0307 C   0  0  0  0  0  0  0  0  0  0  0  0
  -31.0403  -18.3056   18.0832 C   0  0  0  0  0  0  0  0  0  0  0  0
  -24.0496  -10.1444   21.2092 C   0  0  0  0  0  0  0  0  0  0  0  0
  -24.5204  -12.5341   21.9675 C   0  0  0  0  0  0  0  0  0  0  0  0
  -24.2819  -31.9708   20.0755 C   0  0  0  0  0  0  0  0  0  0  0  0
  -25.5103  -24.7733   17.4131 C   0  0  0  0  0  0  0  0  0  0  0  0
  -24.3679  -31.1818   18.9125 C   0  0  0  0  0  0  0  0  0  0  0  0
  -26.7739  -24.4099   16.9191 C   0  0  0  0  0  0  0  0  0  0  0  0
  -22.6016   -7.7599   21.1929 C   0  0  0  0  0  0  0  0  0  0  0  0
  -26.0212  -22.1251   16.6814 C   0  0  0  0  0  0  0  0  0  0  0  0
  -21.4955   -6.0783   22.4058 C   0  0  0  0  0  0  0  0  0  0  0  0
  -20.6899   -5.0380   24.8657 C   0  0  0  0  0  0  0  0  0  0  0  0
  -21.9233   -4.8108   22.8007 C   0  0  0  0  0  0  0  0  0  0  0  0
  -24.7982  -11.3755   21.2177 C   0  0  0  0  0  0  0  0  0  0  0  0
  -32.1513  -18.4849   18.8819 C   0  0  0  0  0  0  0  0  0  0  0  0
  -29.9116  -17.8400   18.7262 C   0  0  0  0  0  0  0  0  0  0  0  0
  -25.5184  -13.4130   21.6238 C   0  0  0  0  0  0  0  0  0  0  0  0
  -31.0078  -17.7828   20.7168 C   0  0  0  0  0  0  0  0  0  0  0  0
  -23.4556  -12.7927   22.8922 C   0  0  0  0  0  0  0  0  0  0  0  0
  -26.5148  -28.3581   17.8778 C   0  0  0  0  0  0  0  0  0  0  0  0
  -28.8969  -26.6426   18.7684 C   0  0  0  0  0  0  0  0  0  0  0  0
  -31.1267  -24.3982   20.0442 C   0  0  0  0  0  0  0  0  0  0  0  0
  -30.8960  -14.5220   20.6255 C   0  0  0  0  0  0  0  0  0  0  0  0
  -25.5112  -32.3914   20.8414 C   0  0  0  0  0  0  0  0  0  0  0  0
  -25.2567  -26.2222   17.7295 C   0  0  0  0  0  0  0  0  0  0  0  0
  -27.8138  -25.4879   16.7799 C   0  0  0  0  0  0  0  0  0  0  0  0
  -26.7459  -31.5536   20.5193 C   0  0  0  0  0  0  0  0  0  0  0  0
  -28.9764  -13.1904   17.9388 C   0  0  0  0  0  0  0  0  0  0  0  0
  -26.8969  -31.3834   19.0109 C   0  0  0  0  0  0  0  0  0  0  0  0
  -27.6988  -12.6898   18.6150 C   0  0  0  0  0  0  0  0  0  0  0  0
  -30.2041  -12.9729   18.8206 C   0  0  0  0  0  0  0  0  0  0  0  0
  -28.8182  -13.0303   20.8577 C   0  0  0  0  0  0  0  0  0  0  0  0
  -25.6924  -30.6439   18.4159 C   0  0  1  0  0  0  0  0  0  0  0  0
  -26.4806  -26.9303   18.3377 C   0  0  1  0  0  0  0  0  0  0  0  0
  -27.5456  -13.2789   20.0302 C   0  0  2  0  0  0  0  0  0  0  0  0
  -33.5108  -20.5094   18.2992 C   0  0  0  0  0  0  0  0  0  0  0  0
  -33.3706  -24.2679   21.1601 C   0  0  0  0  0  0  0  0  0  0  0  0
  -29.6017  -17.6926   22.8873 C   0  0  0  0  0  0  0  0  0  0  0  0
  -31.9617  -18.4567   22.9379 C   0  0  0  0  0  0  0  0  0  0  0  0
  -30.2555  -27.1772   16.0902 C   0  0  0  0  0  0  0  0  0  0  0  0
  -32.3306  -26.1234   17.0131 C   0  0  0  0  0  0  0  0  0  0  0  0
  -31.4086  -28.1885   18.0656 C   0  0  0  0  0  0  0  0  0  0  0  0
  -29.9789  -23.1421   22.4658 C   0  0  0  0  0  0  0  0  0  0  0  0
  -33.4193  -18.9861   18.2760 C   0  0  0  0  0  0  0  0  0  0  0  0
  -28.6468  -17.6144   17.9368 C   0  0  0  0  0  0  0  0  0  0  0  0
  -27.7314  -18.8420   17.8701 C   0  0  0  0  0  0  0  0  0  0  0  0
  -26.4198  -18.5713   17.1316 C   0  0  0  0  0  0  0  0  0  0  0  0
  -31.4531  -16.0327   22.5141 C   0  0  0  0  0  0  0  0  0  0  0  0
  -25.5552  -19.8221   17.0509 C   0  0  0  0  0  0  0  0  0  1  0  0
  -30.2004  -25.9903   18.3825 C   0  0  1  0  0  0  0  0  0  0  0  0
  -31.8668  -24.3552   21.3689 C   0  0  2  0  0  0  0  0  0  0  0  0
  -30.9880  -17.4958   22.1800 C   0  0  0  0  0  0  0  0  0  0  0  0
  -31.0242  -26.8554   17.3874 C   0  0  0  0  0  0  0  0  0  0  0  0
  -25.8872  -11.5036   20.4551 N   0  0  0  0  0  0  0  0  0  0  0  0
  -32.1703  -18.2326   20.2072 N   0  0  0  0  0  0  0  0  0  0  0  0
  -29.8598  -17.5670   20.0465 N   0  0  0  0  0  0  0  0  0  0  0  0
  -26.3025  -12.7532   20.7238 N   0  0  0  0  0  0  0  0  0  0  0  0
  -27.7877  -26.3665   17.9598 N   0  0  0  0  0  0  0  0  0  0  0  0
  -29.9946  -13.5565   20.1478 N   0  0  0  0  0  0  0  0  0  0  0  0
  -25.7928  -14.6781   22.0066 N   0  0  0  0  0  0  0  0  0  0  0  0
  -22.5162  -11.7801   23.1296 N   0  0  0  0  0  0  0  0  0  0  0  0
  -25.7921  -29.2238   18.6764 N   0  0  0  0  0  0  0  0  0  0  0  0
  -30.8934  -25.6929   19.6313 N   0  0  0  0  0  0  0  0  0  0  0  0
  -30.6208  -15.0285   21.8898 N   0  0  0  0  0  0  0  0  0  0  0  0
  -31.4337  -23.1729   22.1661 N   0  3  0  0  0  0  0  0  0  0  0  0
  -23.3313  -13.8951   23.4777 O   0  0  0  0  0  0  0  0  0  0  0  0
  -27.1510  -28.6542   16.8732 O   0  0  0  0  0  0  0  0  0  0  0  0
  -28.8616  -27.3819   19.7560 O   0  0  0  0  0  0  0  0  0  0  0  0
  -30.7924  -23.3846   19.4348 O   0  0  0  0  0  0  0  0  0  0  0  0
  -31.8707  -14.9083   19.9714 O   0  0  0  0  0  0  0  0  0  0  0  0
  -21.8952   -6.5965   21.1854 O   0  0  0  0  0  0  0  0  0  0  0  0
  -26.2692  -20.8309   16.3375 O   0  0  0  0  0  0  0  0  0  1  0  0
  -20.3042   -4.5392   26.0475 F   0  0  0  0  0  0  0  0  0  0  0  0
  -22.7223   -4.0886   22.0033 F   0  0  0  0  0  0  0  0  0  0  0  0
  1  2  1  0  0  0  0
  1  5  2  0  0  0  0
  2  6  2  0  0  0  0
  3  8  2  0  0  0  0
  3 16  1  0  0  0  0
  4  9  1  0  0  0  0
  4 16  2  0  0  0  0
  5 18  1  0  0  0  0
  6 20  1  0  0  0  0
  7 10  2  0  0  0  0
  7 19  1  0  0  0  0
  8 22  1  0  0  0  0
  9 22  2  0  0  0  0
 10 23  1  0  0  0  0
 11 12  2  0  0  0  0
 11 24  1  0  0  0  0
 12 25  1  0  0  0  0
 13 21  1  0  0  0  0
 13 23  2  0  0  0  0
 14 25  2  0  0  0  0
 14 26  1  0  0  0  0
 15 28  1  0  0  0  0
 15 29  2  0  0  0  0
 16 27  1  0  0  0  0
 17 27  1  0  0  0  0
 17 30  2  0  0  0  0
 17 32  1  0  0  0  0
 18 20  2  0  0  0  0
 18 37  1  0  0  0  0
 19 21  2  0  0  0  0
 19 38  1  0  0  0  0
 20 46  1  0  0  0  0
 21 39  1  0  0  0  0
 22 84  1  0  0  0  0
 23 85  1  0  0  0  0
 24 26  2  0  0  0  0
 24 84  1  0  0  0  0
 25 86  1  0  0  0  0
 26 87  1  0  0  0  0
 27 67  2  0  0  0  0
 28 57  1  0  0  0  0
 28 68  2  0  0  0  0
 29 58  1  0  0  0  0
 29 69  1  0  0  0  0
 30 70  1  0  0  0  0
 30 73  1  0  0  0  0
 31 65  1  0  0  0  0
 31 68  1  0  0  0  0
 31 69  2  0  0  0  0
 32 74  1  0  0  0  0
 32 79  2  0  0  0  0
 33 47  1  0  0  0  0
 33 75  1  0  0  0  0
 33 80  2  0  0  0  0
 34 63  1  0  0  0  0
 34 71  1  0  0  0  0
 34 81  2  0  0  0  0
 35 64  1  0  0  0  0
 35 76  1  0  0  0  0
 35 82  2  0  0  0  0
 36 72  1  0  0  0  0
 36 77  1  0  0  0  0
 36 83  2  0  0  0  0
 37 40  1  0  0  0  0
 38 47  1  0  0  0  0
 39 71  1  0  0  0  0
 40 42  1  0  0  0  0
 41 43  1  0  0  0  0
 41 44  1  0  0  0  0
 42 46  1  0  0  0  0
 43 48  1  0  0  0  0
 44 72  1  0  0  0  0
 45 48  1  0  0  0  0
 45 72  1  0  0  0  0
 46 75  1  0  0  0  0
 47 71  1  0  0  0  0
 48 70  1  0  0  0  0
 49 57  1  0  0  0  0
 50 64  1  0  0  0  0
 51 65  1  0  0  0  0
 52 65  1  0  0  0  0
 53 66  1  0  0  0  0
 54 66  1  0  0  0  0
 55 66  1  0  0  0  0
 56 78  1  0  0  0  0
 58 59  1  0  0  0  0
 59 60  1  0  0  0  0
 60 62  1  0  0  0  0
 61 65  1  0  0  0  0
 61 77  1  0  0  0  0
 62 85  1  0  0  0  0
 63 66  1  0  0  0  0
 63 76  1  0  0  0  0
 64 78  1  0  0  0  0
 67 70  1  0  0  0  0
M  CHG  1  78   1
M  ISO  4  36 100  62 101  77 100  85 101
M  END
> <Batch ID>
0068

> <Smiles>
CCc1cc(CCC[101CH2:1][101O:1]c2ccc3c(c2)CN(C(=O)C(NC(=O)C(C)NC)C(C)(C)C)C(C(=O)NC2CCCc4ccccc42)C3)nc(C(C)(C)C[100NH:0][100C:0](=O)N2CCCC(n3nc(-c4ccc(Oc5ccc(F)cc5F)cc4)c(C(N)=O)c3N)C2)n1

> <Shape>
0.266

> <Color>
0.143

> <Negative vol penalty>
0.000

$$$$

  -OEChem-04052318143D

 91100  0     1  0  0  0  0  0999 V2000
  -24.0933   -8.9729   20.9565 C   0  0  0  0  0  0  0  0  0  0  0  0
  -25.2149   -9.7495   20.6838 C   0  0  0  0  0  0  0  0  0  0  0  0
  -20.2504  -27.6686   21.8343 C   0  0  0  0  0  0  0  0  0  0  0  0
  -22.1569  -26.2070   22.0916 C   0  0  0  0  0  0  0  0  0  0  0  0
  -22.8380   -9.5722   21.0513 C   0  0  0  0  0  0  0  0  0  0  0  0
  -25.0816  -11.1260   20.5046 C   0  0  0  0  0  0  0  0  0  0  0  0
  -29.0938  -15.4562   22.1345 C   0  0  0  0  0  0  0  0  0  0  0  0
  -19.4409  -26.5652   21.5645 C   0  0  0  0  0  0  0  0  0  0  0  0
  -21.3474  -25.1036   21.8217 C   0  0  0  0  0  0  0  0  0  0  0  0
  -30.0652  -16.1529   21.4170 C   0  0  0  0  0  0  0  0  0  0  0  0
  -16.7991  -24.1004   21.1634 C   0  0  0  0  0  0  0  0  0  0  0  0
  -15.5573  -24.0371   21.7955 C   0  0  0  0  0  0  0  0  0  0  0  0
  -28.5126  -17.9702   21.0912 C   0  0  0  0  0  0  0  0  0  0  0  0
  -16.6523  -24.0575   23.9490 C   0  0  0  0  0  0  0  0  0  0  0  0
  -21.6085  -27.4895   22.0978 C   0  0  0  0  0  0  0  0  0  0  0  0
  -22.3010  -29.5529   23.4283 C   0  0  0  0  0  0  0  0  0  0  0  0
  -22.6907  -10.9581   20.8827 C   0  0  0  0  0  0  0  0  0  0  0  0
  -27.8189  -16.0076   22.3268 C   0  0  0  0  0  0  0  0  0  0  0  0
  -23.8230  -11.7442   20.5959 C   0  0  0  0  0  0  0  0  0  0  0  0
  -27.5277  -17.2796   21.8138 C   0  0  0  0  0  0  0  0  0  0  0  0
  -19.9893  -25.2827   21.5582 C   0  0  0  0  0  0  0  0  0  0  0  0
  -29.7738  -17.4088   20.8927 C   0  0  0  0  0  0  0  0  0  0  0  0
  -17.9676  -24.1422   21.9241 C   0  0  0  0  0  0  0  0  0  0  0  0
  -15.4839  -24.0157   23.1882 C   0  0  0  0  0  0  0  0  0  0  0  0
  -17.8942  -24.1207   23.3169 C   0  0  0  0  0  0  0  0  0  0  0  0
  -22.4453  -28.6289   22.3761 C   0  0  0  0  0  0  0  0  0  0  0  0
  -23.3382  -30.4363   23.2542 C   0  0  0  0  0  0  0  0  0  0  0  0
  -29.1614  -23.7359   19.3660 C   0  0  0  0  0  0  0  0  0  0  0  0
  -27.5790  -25.3071   19.1132 C   0  0  0  0  0  0  0  0  0  0  0  0
  -29.6007  -25.8687   19.9094 C   0  0  0  0  0  0  0  0  0  0  0  0
  -21.3174  -29.6077   24.4701 C   0  0  0  0  0  0  0  0  0  0  0  0
  -24.8656  -15.1717   21.5004 C   0  0  0  0  0  0  0  0  0  0  0  0
  -24.0486  -17.7140   23.3421 C   0  0  0  0  0  0  0  0  0  0  0  0
  -24.9533  -20.7005   24.7238 C   0  0  0  0  0  0  0  0  0  0  0  0
  -28.6897  -29.9712   20.6090 C   0  0  0  0  0  0  0  0  0  0  0  0
  -21.3068  -11.5541   20.9475 C   0  0  0  0  0  0  0  0  0  0  0  0
  -26.7907  -15.2549   23.1261 C   0  0  0  0  0  0  0  0  0  0  0  0
  -26.1807  -17.9244   22.0097 C   0  0  0  0  0  0  0  0  0  0  0  0
  -21.3044  -13.0714   21.1157 C   0  0  0  0  0  0  0  0  0  0  0  0
  -30.7582  -20.7705   17.5423 C   0  0  0  0  0  0  0  0  0  0  0  0
  -26.1224  -32.3179   19.8485 C   0  0  0  0  0  0  0  0  0  0  0  0
  -22.2897  -13.7174   20.1469 C   0  0  0  0  0  0  0  0  0  0  0  0
  -30.7723  -22.1235   18.2549 C   0  0  0  0  0  0  0  0  0  0  0  0
  -29.9060  -21.7301   20.6571 C   0  0  0  0  0  0  0  0  0  0  0  0
  -24.8759  -31.7220   20.5050 C   0  0  0  0  0  0  0  0  0  0  0  0
  -31.1568  -19.5740   18.3958 C   0  0  0  0  0  0  0  0  0  0  0  0
  -30.6835  -20.4189   20.7476 C   0  0  0  0  0  0  0  0  0  0  0  0
  -27.0298  -31.2334   19.2719 C   0  0  0  0  0  0  0  0  0  0  0  0
  -26.1661  -29.5790   20.8815 C   0  0  0  0  0  0  0  0  0  0  0  0
  -23.7225  -13.2439   20.4198 C   0  0  1  0  0  0  0  0  0  0  0  0
  -29.6099  -22.2829   19.2521 C   0  0  1  0  0  0  0  0  0  0  0  0
  -25.3608  -15.6901   22.8209 C   0  0  1  0  0  0  0  0  0  0  0  0
  -25.2477  -30.6308   21.5269 C   0  0  2  0  0  0  0  0  0  0  0  0
  -30.3518  -19.3771   19.6806 C   0  0  2  0  0  0  0  0  0  1  0  0
  -26.1969  -25.6943   18.7108 C   0  0  0  0  0  0  0  0  0  0  0  0
  -24.0597  -22.5632   26.1483 C   0  0  0  0  0  0  0  0  0  0  0  0
  -22.4579  -18.7685   20.9613 C   0  0  0  0  0  0  0  0  0  0  0  0
  -22.3935  -21.0053   22.0840 C   0  0  0  0  0  0  0  0  0  0  0  0
  -21.3229  -19.0334   23.1740 C   0  0  0  0  0  0  0  0  0  0  0  0
  -31.9727  -26.8589   22.3026 C   0  0  0  0  0  0  0  0  0  0  0  0
  -29.5552  -26.2455   22.5504 C   0  0  0  0  0  0  0  0  0  0  0  0
  -31.3572  -27.5697   19.4836 C   0  0  0  0  0  0  0  0  0  0  0  0
  -26.9942  -20.2352   26.8160 C   0  0  0  0  0  0  0  0  0  0  0  0
  -30.2279  -28.6395   22.0302 C   0  0  0  0  0  0  0  0  0  0  0  0
  -23.8452  -19.1898   23.0977 C   0  0  1  0  0  0  0  0  0  0  0  0
  -24.8118  -21.2415   26.1351 C   0  0  2  0  0  0  0  0  0  0  0  0
  -22.5297  -19.4865   22.3237 C   0  0  0  0  0  0  0  0  0  0  0  0
  -30.5492  -27.1503   21.8115 C   0  0  0  0  0  0  0  0  0  0  0  0
  -23.4917  -28.9002   21.5915 N   0  0  0  0  0  0  0  0  0  0  0  0
  -27.9032  -24.0104   18.9854 N   0  0  0  0  0  0  0  0  0  0  0  0
  -30.0649  -24.6109   19.8366 N   0  0  0  0  0  0  0  0  0  0  0  0
  -28.3729  -26.2905   19.5665 N   0  0  0  0  0  0  0  0  0  0  0  0
  -24.0142  -30.0047   22.1510 N   0  0  0  0  0  0  0  0  0  0  0  0
  -25.2069  -17.1461   22.7929 N   0  0  0  0  0  0  0  0  0  0  0  0
  -27.3461  -30.2309   20.2920 N   0  0  0  0  0  0  0  0  0  0  0  0
  -23.7288  -31.5324   23.9386 N   0  0  0  0  0  0  0  0  0  0  0  0
  -21.5768  -28.9316   25.6701 N   0  0  0  0  0  0  0  0  0  0  0  0
  -24.2696  -13.9271   21.5724 N   0  0  0  0  0  0  0  0  0  0  0  0
  -23.9288  -19.8351   24.4035 N   0  0  0  0  0  0  0  0  0  0  0  0
  -28.9013  -29.0113   21.5911 N   0  0  0  0  0  0  0  0  0  0  0  0
  -30.4944  -26.8472   20.3958 N   0  0  3  0  0  0  0  0  0  0  0  0
  -26.1548  -21.4588   26.7436 N   0  3  0  0  0  0  0  0  0  0  0  0
  -20.2333  -30.2240   24.3345 O   0  0  0  0  0  0  0  0  0  0  0  0
  -25.0119  -15.8513   20.4913 O   0  0  0  0  0  0  0  0  0  0  0  0
  -23.2142  -17.0897   24.0022 O   0  0  0  0  0  0  0  0  0  0  0  0
  -25.8780  -21.0171   23.9786 O   0  0  0  0  0  0  0  0  0  0  0  0
  -29.6307  -30.5556   20.0615 O   0  0  0  0  0  0  0  0  0  0  0  0
  -19.1996  -24.2058   21.2952 O   0  0  0  0  0  0  0  0  0  0  0  0
  -30.7198  -18.0906   20.1914 O   0  0  0  0  0  0  0  0  0  1  0  0
  -14.2912  -23.9565   23.7951 F   0  0  0  0  0  0  0  0  0  0  0  0
  -19.0132  -24.1618   24.0531 F   0  0  0  0  0  0  0  0  0  0  0  0
  1  2  1  0  0  0  0
  1  5  2  0  0  0  0
  2  6  2  0  0  0  0
  3  8  2  0  0  0  0
  3 15  1  0  0  0  0
  4  9  1  0  0  0  0
  4 15  2  0  0  0  0
  5 17  1  0  0  0  0
  6 19  1  0  0  0  0
  7 10  2  0  0  0  0
  7 18  1  0  0  0  0
  8 21  1  0  0  0  0
  9 21  2  0  0  0  0
 10 22  1  0  0  0  0
 11 12  2  0  0  0  0
 11 23  1  0  0  0  0
 12 24  1  0  0  0  0
 13 20  1  0  0  0  0
 13 22  2  0  0  0  0
 14 24  2  0  0  0  0
 14 25  1  0  0  0  0
 15 26  1  0  0  0  0
 16 26  1  0  0  0  0
 16 27  2  0  0  0  0
 16 31  1  0  0  0  0
 17 19  2  0  0  0  0
 17 36  1  0  0  0  0
 18 20  2  0  0  0  0
 18 37  1  0  0  0  0
 19 50  1  0  0  0  0
 20 38  1  0  0  0  0
 21 88  1  0  0  0  0
 22 89  1  0  0  0  0
 23 25  2  0  0  0  0
 23 88  1  0  0  0  0
 24 90  1  0  0  0  0
 25 91  1  0  0  0  0
 26 69  2  0  0  0  0
 27 73  1  0  0  0  0
 27 76  1  0  0  0  0
 28 51  1  0  0  0  0
 28 70  1  0  0  0  0
 28 71  2  0  0  0  0
 29 55  1  0  0  0  0
 29 70  2  0  0  0  0
 29 72  1  0  0  0  0
 30 71  1  0  0  0  0
 30 72  2  0  0  0  0
 30 81  1  0  0  0  0
 31 77  1  0  0  0  0
 31 83  2  0  0  0  0
 32 52  1  0  0  0  0
 32 78  1  0  0  0  0
 32 84  2  0  0  0  0
 33 65  1  0  0  0  0
 33 74  1  0  0  0  0
 33 85  2  0  0  0  0
 34 66  1  0  0  0  0
 34 79  1  0  0  0  0
 34 86  2  0  0  0  0
 35 75  1  0  0  0  0
 35 80  1  0  0  0  0
 35 87  2  0  0  0  0
 36 39  1  0  0  0  0
 37 52  1  0  0  0  0
 38 74  1  0  0  0  0
 39 42  1  0  0  0  0
 40 43  1  0  0  0  0
 40 46  1  0  0  0  0
 41 45  1  0  0  0  0
 41 48  1  0  0  0  0
 42 50  1  0  0  0  0
 43 51  1  0  0  0  0
 44 47  1  0  0  0  0
 44 51  1  0  0  0  0
 45 53  1  0  0  0  0
 46 54  1  0  0  0  0
 47 54  1  0  0  0  0
 48 75  1  0  0  0  0
 49 53  1  0  0  0  0
 49 75  1  0  0  0  0
 50 78  1  0  0  0  0
 52 74  1  0  0  0  0
 53 73  1  0  0  0  0
 54 89  1  0  0  0  0
 56 66  1  0  0  0  0
 57 67  1  0  0  0  0
 58 67  1  0  0  0  0
 59 67  1  0  0  0  0
 60 68  1  0  0  0  0
 61 68  1  0  0  0  0
 62 81  1  0  0  0  0
 63 82  1  0  0  0  0
 64 68  1  0  0  0  0
 64 80  1  0  0  0  0
 65 67  1  0  0  0  0
 65 79  1  0  0  0  0
 66 82  1  0  0  0  0
 68 81  1  0  0  0  0
 69 73  1  0  0  0  0
M  CHG  1  82   1
M  ISO  4  35 100  54 101  80 100  89 101
M  END
> <Batch ID>
0068

> <Smiles>
CNC(C)C(=O)NC(C(=O)N1Cc2cc([101O:1][101CH:1]3CCCC(c4nc(C)nc(N(C)C(C)(C)C[100NH:0][100C:0](=O)N5CCCC(n6nc(-c7ccc(Oc8ccc(F)cc8F)cc7)c(C(N)=O)c6N)C5)n4)CC3)ccc2CC1C(=O)NC1CCCc2ccccc21)C(C)(C)C

> <Shape>
0.245

> <Color>
0.059

> <Negative vol penalty>
0.000

$$$$

  -OEChem-04052318143D

 88 96  0     1  0  0  0  0  0999 V2000
  -15.3499  -21.4549   28.3234 C   0  0  0  0  0  0  0  0  0  0  0  0
  -16.6362  -21.0827   27.9460 C   0  0  0  0  0  0  0  0  0  0  0  0
  -23.0727   -9.8794   19.9545 C   0  0  0  0  0  0  0  0  0  0  0  0
  -23.7518   -9.9497   22.2720 C   0  0  0  0  0  0  0  0  0  0  0  0
  -15.1655  -22.3616   29.3664 C   0  0  0  0  0  0  0  0  0  0  0  0
  -17.7389  -21.6179   28.6108 C   0  0  0  0  0  0  0  0  0  0  0  0
  -21.2184  -18.1142   29.7344 C   0  0  0  0  0  0  0  0  0  0  0  0
  -22.3228   -8.7312   20.2090 C   0  0  0  0  0  0  0  0  0  0  0  0
  -23.0018   -8.8014   22.5265 C   0  0  0  0  0  0  0  0  0  0  0  0
  -22.0546  -17.6931   28.7014 C   0  0  0  0  0  0  0  0  0  0  0  0
  -23.3186   -5.4666   22.0686 C   0  0  0  0  0  0  0  0  0  0  0  0
  -23.9106   -4.4626   22.8348 C   0  0  0  0  0  0  0  0  0  0  0  0
  -23.7929  -19.1502   29.5226 C   0  0  0  0  0  0  0  0  0  0  0  0
  -22.1501   -4.6767   24.4755 C   0  0  0  0  0  0  0  0  0  0  0  0
  -23.7872  -10.4887   20.9860 C   0  0  0  0  0  0  0  0  0  0  0  0
  -24.1281  -13.0107   20.8106 C   0  0  0  0  0  0  0  0  0  0  0  0
  -16.2663  -22.9007   30.0506 C   0  0  0  0  0  0  0  0  0  0  0  0
  -21.6601  -19.0663   30.6645 C   0  0  0  0  0  0  0  0  0  0  0  0
  -17.5691  -22.5336   29.6630 C   0  0  0  0  0  0  0  0  0  0  0  0
  -22.9613  -19.5799   30.5680 C   0  0  0  0  0  0  0  0  0  0  0  0
  -22.2873   -8.1922   21.4950 C   0  0  0  0  0  0  0  0  0  0  0  0
  -23.3411  -18.2132   28.5937 C   0  0  0  0  0  0  0  0  0  0  0  0
  -22.1424   -6.0758   22.5059 C   0  0  0  0  0  0  0  0  0  0  0  0
  -23.3264   -4.0676   24.0382 C   0  0  0  0  0  0  0  0  0  0  0  0
  -21.5582   -5.6807   23.7094 C   0  0  0  0  0  0  0  0  0  0  0  0
  -24.5625  -11.6745   20.7236 C   0  0  0  0  0  0  0  0  0  0  0  0
  -26.2446  -15.0106   24.8916 C   0  0  0  0  0  0  0  0  0  0  0  0
  -26.5659  -15.8762   23.8693 C   0  0  0  0  0  0  0  0  0  0  0  0
  -25.0106  -17.3646   24.6406 C   0  0  0  0  0  0  0  0  0  0  0  0
  -24.6886  -16.4988   25.6625 C   0  0  0  0  0  0  0  0  0  0  0  0
  -25.2308  -13.7534   20.4658 C   0  0  0  0  0  0  0  0  0  0  0  0
  -22.8427  -13.5338   21.1709 C   0  0  0  0  0  0  0  0  0  0  0  0
  -20.7355  -21.9935   31.4893 C   0  0  0  0  0  0  0  0  0  0  0  0
  -22.9901  -21.6346   33.7937 C   0  0  0  0  0  0  0  0  0  0  0  0
  -25.8497  -20.0892   34.8336 C   0  0  0  0  0  0  0  0  0  0  0  0
  -30.8103  -14.4987   21.2603 C   0  0  0  0  0  0  0  0  0  0  0  0
  -16.0186  -23.9135   31.1404 C   0  0  0  0  0  0  0  0  0  0  0  0
  -20.7552  -19.4903   31.7887 C   0  0  0  0  0  0  0  0  0  0  0  0
  -23.4905  -20.5891   31.5528 C   0  0  0  0  0  0  0  0  0  0  0  0
  -17.2289  -24.1478   32.0407 C   0  0  0  0  0  0  0  0  0  0  0  0
  -29.6538  -12.3756   18.4574 C   0  0  0  0  0  0  0  0  0  0  0  0
  -18.4903  -24.3299   31.2027 C   0  0  0  0  0  0  0  0  0  0  0  0
  -28.2114  -12.0612   18.8507 C   0  0  0  0  0  0  0  0  0  0  0  0
  -30.5335  -12.6242   19.6788 C   0  0  0  0  0  0  0  0  0  0  0  0
  -28.5687  -13.3613   20.9868 C   0  0  0  0  0  0  0  0  0  0  0  0
  -18.7898  -23.0734   30.3763 C   0  0  1  0  0  0  0  0  0  0  0  0
  -21.1292  -20.8471   32.3773 C   0  0  1  0  0  0  0  0  0  0  0  0
  -27.6454  -13.1514   19.7773 C   0  0  2  0  0  0  0  0  0  0  0  0
  -27.9752  -13.7058   26.1521 C   0  0  0  0  0  0  0  0  0  0  0  0
  -23.8797  -20.6538   22.9650 C   0  0  0  0  0  0  0  0  0  0  0  0
  -27.4738  -20.0309   36.7458 C   0  0  0  0  0  0  0  0  0  0  0  0
  -29.5127  -17.5917   20.1166 C   0  0  0  0  0  0  0  0  0  0  0  0
  -24.2067  -24.2643   32.8374 C   0  0  0  0  0  0  0  0  0  0  0  0
  -26.2903  -23.6773   34.0953 C   0  0  0  0  0  0  0  0  0  0  0  0
  -24.1406  -23.9881   35.3221 C   0  0  0  0  0  0  0  0  0  0  0  0
  -31.1879  -16.7235   22.2540 C   0  0  0  0  0  0  0  0  0  0  0  0
  -25.2795  -17.2375   35.3827 C   0  0  0  0  0  0  0  0  0  0  0  0
  -26.9292  -13.6949   25.0399 C   0  0  0  0  0  0  0  0  0  0  0  0
  -27.6127  -15.5376   22.8638 C   0  0  0  0  0  0  0  0  0  0  0  0
  -24.3270  -18.6809   24.4929 C   0  0  0  0  0  0  0  0  0  0  0  0
  -23.6345  -16.8398   26.6744 C   0  0  0  0  0  0  0  0  0  1  0  0
  -24.6055  -19.3276   23.1272 C   0  0  0  0  0  0  0  0  0  0  0  0
  -28.0850  -16.7298   22.0054 C   0  0  0  0  0  0  0  0  0  0  0  0
  -24.4679  -21.9249   33.8980 C   0  0  1  0  0  0  0  0  0  0  0  0
  -26.2139  -19.4236   36.1484 C   0  0  2  0  0  0  0  0  0  0  0  0
  -29.1314  -16.3645   20.9395 C   0  0  2  0  0  0  0  0  0  0  0  0
  -24.7660  -23.4461   34.0183 C   0  0  0  0  0  0  0  0  0  0  0  0
  -25.8414  -11.5712   20.3525 N   0  0  0  0  0  0  0  0  0  0  0  0
  -25.9548  -17.0688   23.7255 N   0  0  0  0  0  0  0  0  0  0  0  0
  -25.3001  -15.3063   25.8065 N   0  0  0  0  0  0  0  0  0  0  0  0
  -26.2201  -12.8520   20.2032 N   0  0  0  0  0  0  0  0  0  0  0  0
  -22.5656  -20.9769   32.6306 N   0  0  0  0  0  0  0  0  0  0  0  0
  -29.9507  -13.6333   20.5639 N   0  0  0  0  0  0  0  0  0  0  0  0
  -25.4410  -15.0831   20.3647 N   0  0  0  0  0  0  0  0  0  0  0  0
  -21.8214  -12.6310   21.4967 N   0  0  0  0  0  0  0  0  0  0  0  0
  -19.3834  -22.0500   31.2097 N   0  0  0  0  0  0  0  0  0  0  0  0
  -24.9624  -21.1288   35.0161 N   0  0  0  0  0  0  0  0  0  0  0  0
  -30.3294  -15.7860   21.5440 N   0  0  0  0  0  0  0  0  0  0  0  0
  -26.4463  -17.9658   35.9441 N   0  3  0  0  0  0  0  0  0  0  0  0
  -22.6021  -14.7648   21.1870 O   0  0  0  0  0  0  0  0  0  0  0  0
  -21.5946  -22.7701   31.0887 O   0  0  0  0  0  0  0  0  0  0  0  0
  -22.2411  -21.9725   34.7138 O   0  0  0  0  0  0  0  0  0  0  0  0
  -26.3093  -19.7258   33.7533 O   0  0  0  0  0  0  0  0  0  0  0  0
  -31.9464  -14.1444   21.6002 O   0  0  0  0  0  0  0  0  0  0  0  0
  -21.5555   -7.0719   21.7437 O   0  0  0  0  0  0  0  0  0  0  0  0
  -24.1591  -17.8043   27.5859 O   0  0  0  0  0  0  0  0  0  1  0  0
  -23.8941   -3.1023   24.7731 F   0  0  0  0  0  0  0  0  0  0  0  0
  -20.4276   -6.2614   24.1341 F   0  0  0  0  0  0  0  0  0  0  0  0
  1  2  1  0  0  0  0
  1  5  2  0  0  0  0
  2  6  2  0  0  0  0
  3  8  2  0  0  0  0
  3 15  1  0  0  0  0
  4  9  1  0  0  0  0
  4 15  2  0  0  0  0
  5 17  1  0  0  0  0
  6 19  1  0  0  0  0
  7 10  2  0  0  0  0
  7 18  1  0  0  0  0
  8 21  1  0  0  0  0
  9 21  2  0  0  0  0
 10 22  1  0  0  0  0
 11 12  2  0  0  0  0
 11 23  1  0  0  0  0
 12 24  1  0  0  0  0
 13 20  1  0  0  0  0
 13 22  2  0  0  0  0
 14 24  2  0  0  0  0
 14 25  1  0  0  0  0
 15 26  1  0  0  0  0
 16 26  1  0  0  0  0
 16 31  2  0  0  0  0
 16 32  1  0  0  0  0
 17 19  2  0  0  0  0
 17 37  1  0  0  0  0
 18 20  2  0  0  0  0
 18 38  1  0  0  0  0
 19 46  1  0  0  0  0
 20 39  1  0  0  0  0
 21 85  1  0  0  0  0
 22 86  1  0  0  0  0
 23 25  2  0  0  0  0
 23 85  1  0  0  0  0
 24 87  1  0  0  0  0
 25 88  1  0  0  0  0
 26 68  2  0  0  0  0
 27 28  1  0  0  0  0
 27 58  1  0  0  0  0
 27 70  2  0  0  0  0
 28 59  1  0  0  0  0
 28 69  2  0  0  0  0
 29 30  2  0  0  0  0
 29 60  1  0  0  0  0
 29 69  1  0  0  0  0
 30 61  1  0  0  0  0
 30 70  1  0  0  0  0
 31 71  1  0  0  0  0
 31 74  1  0  0  0  0
 32 75  1  0  0  0  0
 32 80  2  0  0  0  0
 33 47  1  0  0  0  0
 33 76  1  0  0  0  0
 33 81  2  0  0  0  0
 34 64  1  0  0  0  0
 34 72  1  0  0  0  0
 34 82  2  0  0  0  0
 35 65  1  0  0  0  0
 35 77  1  0  0  0  0
 35 83  2  0  0  0  0
 36 73  1  0  0  0  0
 36 78  1  0  0  0  0
 36 84  2  0  0  0  0
 37 40  1  0  0  0  0
 38 47  1  0  0  0  0
 39 72  1  0  0  0  0
 40 42  1  0  0  0  0
 41 43  1  0  0  0  0
 41 44  1  0  0  0  0
 42 46  1  0  0  0  0
 43 48  1  0  0  0  0
 44 73  1  0  0  0  0
 45 48  1  0  0  0  0
 45 73  1  0  0  0  0
 46 76  1  0  0  0  0
 47 72  1  0  0  0  0
 48 71  1  0  0  0  0
 49 58  1  0  0  0  0
 50 62  1  0  0  0  0
 51 65  1  0  0  0  0
 52 66  1  0  0  0  0
 53 67  1  0  0  0  0
 54 67  1  0  0  0  0
 55 67  1  0  0  0  0
 56 78  1  0  0  0  0
 57 79  1  0  0  0  0
 59 63  1  0  0  0  0
 60 62  1  0  0  0  0
 61 86  1  0  0  0  0
 63 66  1  0  0  0  0
 64 67  1  0  0  0  0
 64 77  1  0  0  0  0
 65 79  1  0  0  0  0
 66 78  1  0  0  0  0
 68 71  1  0  0  0  0
M  CHG  1  79   1
M  ISO  4  36 100  61 101  78 100  86 101
M  END
> <Batch ID>
0068

> <Smiles>
CCCc1nc(CCC(C)[100N:0](C)[100C:0](=O)N2CCCC(n3nc(-c4ccc(Oc5ccc(F)cc5F)cc4)c(C(N)=O)c3N)C2)c(CC)nc1[101CH2:1][101O:1]c1ccc2c(c1)CN(C(=O)C(NC(=O)C(C)NC)C(C)(C)C)C(C(=O)NC1CCCc3ccccc31)C2

> <Shape>
0.172

> <Color>
0.173

> <Negative vol penalty>
0.000

$$$$

  -OEChem-04052318143D

 90 99  0     1  0  0  0  0  0999 V2000
  -20.2147  -17.9378   19.0463 C   0  0  0  0  0  0  0  0  0  0  0  0
  -21.4309  -18.4996   19.4215 C   0  0  0  0  0  0  0  0  0  0  0  0
  -21.6083  -22.4106   25.8531 C   0  0  0  0  0  0  0  0  0  0  0  0
  -20.1251  -21.2618   24.3307 C   0  0  0  0  0  0  0  0  0  0  0  0
  -19.9656  -16.5885   19.2938 C   0  0  0  0  0  0  0  0  0  0  0  0
  -22.3983  -17.7126   20.0454 C   0  0  0  0  0  0  0  0  0  0  0  0
  -27.0347  -18.4708   18.1551 C   0  0  0  0  0  0  0  0  0  0  0  0
  -21.3816  -21.4272   26.8159 C   0  0  0  0  0  0  0  0  0  0  0  0
  -19.8985  -20.2783   25.2935 C   0  0  0  0  0  0  0  0  0  0  0  0
  -27.7113  -19.6175   18.5688 C   0  0  0  0  0  0  0  0  0  0  0  0
  -21.4996  -17.5558   26.4955 C   0  0  0  0  0  0  0  0  0  0  0  0
  -21.5341  -16.2245   26.0806 C   0  0  0  0  0  0  0  0  0  0  0  0
  -28.9724  -18.2974   20.1455 C   0  0  0  0  0  0  0  0  0  0  0  0
  -19.2465  -15.9398   26.8038 C   0  0  0  0  0  0  0  0  0  0  0  0
  -23.4749  -30.2017   22.4688 C   0  0  0  0  0  0  0  0  0  0  0  0
  -28.5933  -27.5222   21.2514 C   0  0  0  0  0  0  0  0  0  0  0  0
  -26.4774  -27.7181   22.8676 C   0  0  0  0  0  0  0  0  0  0  0  0
  -20.9800  -22.3279   24.6104 C   0  0  0  0  0  0  0  0  0  0  0  0
  -22.2179  -23.3531   22.6295 C   0  0  0  0  0  0  0  0  0  0  0  0
  -20.9341  -15.7823   19.9123 C   0  0  0  0  0  0  0  0  0  0  0  0
  -27.3147  -17.2285   18.7422 C   0  0  0  0  0  0  0  0  0  0  0  0
  -22.1613  -16.3515   20.3026 C   0  0  0  0  0  0  0  0  0  0  0  0
  -28.2998  -17.1360   19.7357 C   0  0  0  0  0  0  0  0  0  0  0  0
  -20.5268  -20.3610   26.5362 C   0  0  0  0  0  0  0  0  0  0  0  0
  -28.6782  -19.5314   19.5661 C   0  0  0  0  0  0  0  0  0  0  0  0
  -20.3386  -18.0790   27.0647 C   0  0  0  0  0  0  0  0  0  0  0  0
  -20.4076  -15.4165   26.2347 C   0  0  0  0  0  0  0  0  0  0  0  0
  -19.2120  -17.2711   27.2188 C   0  0  0  0  0  0  0  0  0  0  0  0
  -21.2132  -23.3438   23.6156 C   0  0  0  0  0  0  0  0  0  0  0  0
  -22.4189  -29.8911   21.6473 C   0  0  0  0  0  0  0  0  0  0  0  0
  -24.6171  -29.9088   21.6997 C   0  0  0  0  0  0  0  0  0  0  0  0
  -28.1953  -26.4602   22.0333 C   0  0  0  0  0  0  0  0  0  0  0  0
  -26.8758  -28.7804   22.0863 C   0  0  0  0  0  0  0  0  0  0  0  0
  -22.0139  -24.5249   21.9426 C   0  0  0  0  0  0  0  0  0  0  0  0
  -23.2437  -22.3888   22.3585 C   0  0  0  0  0  0  0  0  0  0  0  0
  -20.9800  -29.9967   21.9221 C   0  0  0  0  0  0  0  0  0  0  0  0
  -25.6412  -15.1157   20.4271 C   0  0  0  0  0  0  0  0  0  0  0  0
  -28.3349  -13.3322   20.1337 C   0  0  0  0  0  0  0  0  0  0  0  0
  -31.7083  -13.2414   19.6253 C   0  0  0  0  0  0  0  0  0  0  0  0
  -20.6008  -14.3401   20.2018 C   0  0  0  0  0  0  0  0  0  0  0  0
  -26.5951  -15.9965   18.2661 C   0  0  0  0  0  0  0  0  0  0  0  0
  -28.6520  -15.8227   20.3835 C   0  0  0  0  0  0  0  0  0  0  0  0
  -21.8233  -13.4864   20.5290 C   0  0  0  0  0  0  0  0  0  0  0  0
  -18.1665  -27.8050   22.0696 C   0  0  0  0  0  0  0  0  0  0  0  0
  -22.7213  -14.2024   21.5328 C   0  0  0  0  0  0  0  0  0  0  0  0
  -18.7859  -26.4518   22.4234 C   0  0  0  0  0  0  0  0  0  0  0  0
  -18.8983  -28.9562   22.7549 C   0  0  0  0  0  0  0  0  0  0  0  0
  -20.9799  -27.6301   22.8689 C   0  0  0  0  0  0  0  0  0  0  0  0
  -23.2453  -15.5245   20.9592 C   0  0  1  0  0  0  0  0  0  0  0  0
  -26.5964  -14.8690   19.2938 C   0  0  1  0  0  0  0  0  0  0  0  0
  -20.3032  -26.4464   22.1582 C   0  0  1  0  0  0  0  0  0  0  0  0
  -22.2592  -30.0516   18.2046 C   0  0  0  0  0  0  0  0  0  0  0  0
  -33.6356  -11.6412   19.4765 C   0  0  0  0  0  0  0  0  0  0  0  0
  -26.2436  -30.6976   23.5638 C   0  0  0  0  0  0  0  0  0  0  0  0
  -26.6916  -31.2083   21.1844 C   0  0  0  0  0  0  0  0  0  0  0  0
  -28.3161  -13.0310   23.1700 C   0  0  0  0  0  0  0  0  0  0  0  0
  -30.6989  -12.2739   23.0398 C   0  0  0  0  0  0  0  0  0  0  0  0
  -28.9079  -10.9481   21.9186 C   0  0  0  0  0  0  0  0  0  0  0  0
  -32.3017  -14.0342   16.8364 C   0  0  0  0  0  0  0  0  0  0  0  0
  -28.9495  -25.1551   21.9935 C   0  0  0  0  0  0  0  0  0  0  0  0
  -28.4272  -24.1699   20.9419 C   0  0  0  0  0  0  0  0  0  0  0  0
  -29.1539  -22.8245   20.9687 C   0  0  0  0  0  0  0  0  0  0  0  0
  -22.2665  -29.0017   19.3023 C   0  0  0  0  0  0  0  0  0  0  0  0
  -28.6359  -21.8877   19.8859 C   0  0  0  0  0  0  0  0  0  1  0  0
  -29.6033  -13.1715   20.9363 C   0  0  1  0  0  0  0  0  0  0  0  0
  -32.5654  -12.3945   18.7020 C   0  0  2  0  0  0  0  0  0  0  0  0
  -26.1309  -30.0687   22.1253 C   0  0  0  0  0  0  0  0  0  0  0  0
  -29.3738  -12.3814   22.2555 C   0  0  0  0  0  0  0  0  0  0  0  0
  -27.1301  -26.5390   22.8552 N   0  0  0  0  0  0  0  0  0  0  0  0
  -27.9408  -28.7014   21.2641 N   0  0  0  0  0  0  0  0  0  0  0  0
  -20.4293  -24.4240   23.5633 N   0  0  0  0  0  0  0  0  0  0  0  0
  -24.3152  -29.4477   20.4831 N   0  0  0  0  0  0  0  0  0  0  0  0
  -22.9713  -29.4484   20.4814 N   0  0  0  0  0  0  0  0  0  0  0  0
  -20.9415  -25.1231   22.5362 N   0  0  0  0  0  0  0  0  0  0  0  0
  -20.3336  -28.8922   22.4822 N   0  0  0  0  0  0  0  0  0  0  0  0
  -27.9162  -14.6476   19.8882 N   0  0  0  0  0  0  0  0  0  0  0  0
  -22.6491  -25.0918   20.8949 N   0  0  0  0  0  0  0  0  0  0  0  0
  -23.3106  -21.2413   23.1604 N   0  0  0  0  0  0  0  0  0  0  0  0
  -24.3277  -15.2789   20.0305 N   0  0  0  0  0  0  0  0  0  0  0  0
  -30.5802  -12.5647   20.0386 N   0  0  0  0  0  0  0  0  0  0  0  0
  -33.2372  -13.2534   17.6862 N   0  3  0  0  0  0  0  0  0  0  0  0
  -24.0865  -22.5481   21.4432 O   0  0  0  0  0  0  0  0  0  0  0  0
  -20.4461  -31.0632   21.6212 O   0  0  0  0  0  0  0  0  0  0  0  0
  -26.0644  -15.1535   21.5766 O   0  0  0  0  0  0  0  0  0  0  0  0
  -27.7413  -12.3278   19.7331 O   0  0  0  0  0  0  0  0  0  0  0  0
  -32.0112  -14.3872   19.9507 O   0  0  0  0  0  0  0  0  0  0  0  0
  -20.3056  -19.4011   27.4754 O   0  0  0  0  0  0  0  0  0  0  0  0
  -29.3396  -20.6493   19.9722 O   0  0  0  0  0  0  0  0  0  1  0  0
  -20.4404  -14.1386   25.8347 F   0  0  0  0  0  0  0  0  0  0  0  0
  -18.0934  -17.7685   27.7638 F   0  0  0  0  0  0  0  0  0  0  0  0
  1  2  1  0  0  0  0
  1  5  2  0  0  0  0
  2  6  2  0  0  0  0
  3  8  2  0  0  0  0
  3 18  1  0  0  0  0
  4  9  1  0  0  0  0
  4 18  2  0  0  0  0
  5 20  1  0  0  0  0
  6 22  1  0  0  0  0
  7 10  2  0  0  0  0
  7 21  1  0  0  0  0
  8 24  1  0  0  0  0
  9 24  2  0  0  0  0
 10 25  1  0  0  0  0
 11 12  2  0  0  0  0
 11 26  1  0  0  0  0
 12 27  1  0  0  0  0
 13 23  1  0  0  0  0
 13 25  2  0  0  0  0
 14 27  2  0  0  0  0
 14 28  1  0  0  0  0
 15 30  2  0  0  0  0
 15 31  1  0  0  0  0
 16 32  2  0  0  0  0
 16 70  1  0  0  0  0
 17 33  1  0  0  0  0
 17 69  2  0  0  0  0
 18 29  1  0  0  0  0
 19 29  1  0  0  0  0
 19 34  2  0  0  0  0
 19 35  1  0  0  0  0
 20 22  2  0  0  0  0
 20 40  1  0  0  0  0
 21 23  2  0  0  0  0
 21 41  1  0  0  0  0
 22 49  1  0  0  0  0
 23 42  1  0  0  0  0
 24 87  1  0  0  0  0
 25 88  1  0  0  0  0
 26 28  2  0  0  0  0
 26 87  1  0  0  0  0
 27 89  1  0  0  0  0
 28 90  1  0  0  0  0
 29 71  2  0  0  0  0
 30 36  1  0  0  0  0
 30 73  1  0  0  0  0
 31 67  1  0  0  0  0
 31 72  2  0  0  0  0
 32 60  1  0  0  0  0
 32 69  1  0  0  0  0
 33 67  1  0  0  0  0
 33 70  2  0  0  0  0
 34 74  1  0  0  0  0
 34 77  1  0  0  0  0
 35 78  1  0  0  0  0
 35 82  2  0  0  0  0
 36 75  1  0  0  0  0
 36 83  2  0  0  0  0
 37 50  1  0  0  0  0
 37 79  1  0  0  0  0
 37 84  2  0  0  0  0
 38 65  1  0  0  0  0
 38 76  1  0  0  0  0
 38 85  2  0  0  0  0
 39 66  1  0  0  0  0
 39 80  1  0  0  0  0
 39 86  2  0  0  0  0
 40 43  1  0  0  0  0
 41 50  1  0  0  0  0
 42 76  1  0  0  0  0
 43 45  1  0  0  0  0
 44 46  1  0  0  0  0
 44 47  1  0  0  0  0
 45 49  1  0  0  0  0
 46 51  1  0  0  0  0
 47 75  1  0  0  0  0
 48 51  1  0  0  0  0
 48 75  1  0  0  0  0
 49 79  1  0  0  0  0
 50 76  1  0  0  0  0
 51 74  1  0  0  0  0
 52 63  1  0  0  0  0
 53 66  1  0  0  0  0
 54 67  1  0  0  0  0
 55 67  1  0  0  0  0
 56 68  1  0  0  0  0
 57 68  1  0  0  0  0
 58 68  1  0  0  0  0
 59 81  1  0  0  0  0
 60 61  1  0  0  0  0
 61 62  1  0  0  0  0
 62 64  1  0  0  0  0
 63 73  1  0  0  0  0
 64 88  1  0  0  0  0
 65 68  1  0  0  0  0
 65 80  1  0  0  0  0
 66 81  1  0  0  0  0
 71 74  1  0  0  0  0
 72 73  1  0  0  0  0
M  CHG  1  81   1
M  ISO  4  30 100  36 100  64 101  88 101
M  END
> <Batch ID>
0068

> <Smiles>
CCn1nc(C(C)(C)c2cnc(CCC[101CH2:1][101O:1]c3ccc4c(c3)CN(C(=O)C(NC(=O)C(C)NC)C(C)(C)C)C(C(=O)NC3CCCc5ccccc53)C4)cn2)c[100c:0]1[100C:0](=O)N1CCCC(n2nc(-c3ccc(Oc4ccc(F)cc4F)cc3)c(C(N)=O)c2N)C1

> <Shape>
0.237

> <Color>
0.062

> <Negative vol penalty>
0.000

$$$$

  -OEChem-04052318143D

 90 98  0     1  0  0  0  0  0999 V2000
  -19.1563  -13.3705   20.6199 C   0  0  0  0  0  0  0  0  0  0  0  0
  -19.6630  -14.6169   20.2661 C   0  0  0  0  0  0  0  0  0  0  0  0
  -19.8703  -24.2413   21.5294 C   0  0  0  0  0  0  0  0  0  0  0  0
  -21.2940  -24.3790   23.4765 C   0  0  0  0  0  0  0  0  0  0  0  0
  -19.9538  -12.4695   21.3242 C   0  0  0  0  0  0  0  0  0  0  0  0
  -20.9672  -14.9634   20.6174 C   0  0  0  0  0  0  0  0  0  0  0  0
  -26.5571  -18.7757   18.2644 C   0  0  0  0  0  0  0  0  0  0  0  0
  -20.0707  -22.8618   21.4803 C   0  0  0  0  0  0  0  0  0  0  0  0
  -21.4945  -22.9995   23.4275 C   0  0  0  0  0  0  0  0  0  0  0  0
  -27.4396  -19.7678   18.6894 C   0  0  0  0  0  0  0  0  0  0  0  0
  -18.9101  -20.1177   23.0790 C   0  0  0  0  0  0  0  0  0  0  0  0
  -17.7940  -19.3075   22.8706 C   0  0  0  0  0  0  0  0  0  0  0  0
  -28.7519  -18.1004   19.8370 C   0  0  0  0  0  0  0  0  0  0  0  0
  -18.7990  -18.4424   20.8510 C   0  0  0  0  0  0  0  0  0  0  0  0
  -20.4820  -24.9999   22.5274 C   0  0  0  0  0  0  0  0  0  0  0  0
  -19.2618  -27.1131   23.2713 C   0  0  0  0  0  0  0  0  0  0  0  0
  -21.2717  -12.8014   21.6759 C   0  0  0  0  0  0  0  0  0  0  0  0
  -26.7596  -17.4377   18.6322 C   0  0  0  0  0  0  0  0  0  0  0  0
  -21.7826  -14.0665   21.3282 C   0  0  0  0  0  0  0  0  0  0  0  0
  -27.8719  -17.0929   19.4132 C   0  0  0  0  0  0  0  0  0  0  0  0
  -29.3950  -25.9357   22.8358 C   0  0  0  0  0  0  0  0  0  0  0  0
  -20.8828  -22.2409   22.4294 C   0  0  0  0  0  0  0  0  0  0  0  0
  -28.5356  -19.4307   19.4782 C   0  0  0  0  0  0  0  0  0  0  0  0
  -19.9707  -20.0904   22.1733 C   0  0  0  0  0  0  0  0  0  0  0  0
  -17.7384  -18.4698   21.7567 C   0  0  0  0  0  0  0  0  0  0  0  0
  -19.9151  -19.2527   21.0594 C   0  0  0  0  0  0  0  0  0  0  0  0
  -20.2758  -26.4250   22.5783 C   0  0  0  0  0  0  0  0  0  0  0  0
  -28.2849  -26.0977   23.6395 C   0  0  0  0  0  0  0  0  0  0  0  0
  -29.9629  -27.1001   22.3604 C   0  0  0  0  0  0  0  0  0  0  0  0
  -19.5015  -28.4387   23.0033 C   0  0  0  0  0  0  0  0  0  0  0  0
  -28.4049  -28.3585   23.4355 C   0  0  0  0  0  0  0  0  0  0  0  0
  -18.1984  -26.5999   24.0846 C   0  0  0  0  0  0  0  0  0  0  0  0
  -25.1146  -15.3000   20.3138 C   0  0  0  0  0  0  0  0  0  0  0  0
  -27.4605  -13.2915   19.3213 C   0  0  0  0  0  0  0  0  0  0  0  0
  -30.6631  -12.9031   18.2079 C   0  0  0  0  0  0  0  0  0  0  0  0
  -24.4388  -31.4618   21.4751 C   0  0  0  0  0  0  0  0  0  0  0  0
  -22.0797  -11.8127   22.4785 C   0  0  0  0  0  0  0  0  0  0  0  0
  -25.8133  -16.3757   18.1434 C   0  0  0  0  0  0  0  0  0  0  0  0
  -28.1454  -15.6683   19.8185 C   0  0  0  0  0  0  0  0  0  0  0  0
  -23.5765  -12.1128   22.4858 C   0  0  0  0  0  0  0  0  0  0  0  0
  -21.3782  -31.3038   19.6627 C   0  0  0  0  0  0  0  0  0  0  0  0
  -23.8229  -13.5924   22.7629 C   0  0  0  0  0  0  0  0  0  0  0  0
  -20.6572  -30.0976   20.2669 C   0  0  0  0  0  0  0  0  0  0  0  0
  -22.8864  -31.0780   19.5831 C   0  0  0  0  0  0  0  0  0  0  0  0
  -22.8014  -29.4831   21.4600 C   0  0  0  0  0  0  0  0  0  0  0  0
  -23.2008  -14.4695   21.6696 C   0  0  1  0  0  0  0  0  0  0  0  0
  -25.8307  -15.1172   19.0055 C   0  0  1  0  0  0  0  0  0  0  0  0
  -21.2841  -29.6857   21.6125 C   0  0  2  0  0  0  0  0  0  0  0  0
  -27.5867  -24.9091   24.2138 C   0  0  0  0  0  0  0  0  0  0  0  0
  -31.8276  -28.4165   21.3228 C   0  0  0  0  0  0  0  0  0  0  0  0
  -32.3080  -11.1384   17.5170 C   0  0  0  0  0  0  0  0  0  0  0  0
  -27.8961  -12.5544   22.2500 C   0  0  0  0  0  0  0  0  0  0  0  0
  -30.1026  -11.5654   21.6006 C   0  0  0  0  0  0  0  0  0  0  0  0
  -27.9913  -10.6238   20.6631 C   0  0  0  0  0  0  0  0  0  0  0  0
  -25.0220  -31.0638   25.7216 C   0  0  0  0  0  0  0  0  0  0  0  0
  -27.3939  -31.8566   25.5111 C   0  0  0  0  0  0  0  0  0  0  0  0
  -30.8954  -14.0237   15.4786 C   0  0  0  0  0  0  0  0  0  0  0  0
  -29.9507  -24.5750   22.4989 C   0  0  0  0  0  0  0  0  0  0  0  0
  -31.1687  -27.0494   21.4809 C   0  0  0  0  0  0  0  0  0  0  0  0
  -29.1367  -23.8178   21.4437 C   0  0  0  0  0  0  0  0  0  0  0  0
  -29.6708  -22.4108   21.1718 C   0  0  0  0  0  0  0  0  0  0  0  0
  -25.9215  -31.7220   23.4481 C   0  0  0  0  0  0  0  0  0  0  0  0
  -28.8625  -21.7051   20.0914 C   0  0  0  0  0  0  0  0  0  1  0  0
  -26.7515  -29.6273   24.5811 C   0  0  0  0  0  0  0  0  0  0  0  0
  -28.8095  -12.8760   19.8566 C   0  0  1  0  0  0  0  0  0  0  0  0
  -31.2368  -12.1103   17.0474 C   0  0  2  0  0  0  0  0  0  0  0  0
  -28.6939  -11.9321   21.0867 C   0  0  0  0  0  0  0  0  0  0  0  0
  -26.2653  -31.0768   24.8119 C   0  0  0  0  0  0  0  0  0  0  0  0
  -21.0983  -27.2457   21.9194 N   0  0  0  0  0  0  0  0  0  0  0  0
  -27.7611  -27.2988   23.9609 N   0  0  0  0  0  0  0  0  0  0  0  0
  -29.4921  -28.3329   22.6412 N   0  0  0  0  0  0  0  0  0  0  0  0
  -20.6014  -28.4631   22.1972 N   0  0  0  0  0  0  0  0  0  0  0  0
  -27.1878  -14.6668   19.3209 N   0  0  0  0  0  0  0  0  0  0  0  0
  -23.4189  -30.6918   20.8920 N   0  0  0  0  0  0  0  0  0  0  0  0
  -18.8766  -29.5742   23.3809 N   0  0  0  0  0  0  0  0  0  0  0  0
  -18.0978  -25.2124   24.2553 N   0  0  0  0  0  0  0  0  0  0  0  0
  -24.0292  -14.4617   20.4830 N   0  0  0  0  0  0  0  0  0  0  0  0
  -29.5369  -12.3023   18.7295 N   0  0  0  0  0  0  0  0  0  0  0  0
  -24.8819  -31.0301   22.7193 N   0  0  0  0  0  0  0  0  0  0  0  0
  -31.8434  -13.0286   16.0425 N   0  3  0  0  0  0  0  0  0  0  0  0
  -17.3525  -27.3485   24.6300 O   0  0  0  0  0  0  0  0  0  0  0  0
  -25.5180  -16.1384   21.1113 O   0  0  0  0  0  0  0  0  0  0  0  0
  -26.6804  -12.4281   18.9119 O   0  0  0  0  0  0  0  0  0  0  0  0
  -31.1659  -13.9485   18.6137 O   0  0  0  0  0  0  0  0  0  0  0  0
  -24.9152  -32.4631   20.9298 O   0  0  0  0  0  0  0  0  0  0  0  0
  -21.0784  -20.8947   22.3820 O   0  0  0  0  0  0  0  0  0  0  0  0
  -29.3982  -20.3972   19.8949 O   0  0  0  0  0  0  0  0  0  1  0  0
  -27.8980  -29.5997   23.7432 O   0  0  0  0  0  0  0  0  0  0  0  0
  -16.6672  -17.6907   21.5576 F   0  0  0  0  0  0  0  0  0  0  0  0
  -20.9314  -19.2212   20.1864 F   0  0  0  0  0  0  0  0  0  0  0  0
  1  2  1  0  0  0  0
  1  5  2  0  0  0  0
  2  6  2  0  0  0  0
  3  8  2  0  0  0  0
  3 15  1  0  0  0  0
  4  9  1  0  0  0  0
  4 15  2  0  0  0  0
  5 17  1  0  0  0  0
  6 19  1  0  0  0  0
  7 10  2  0  0  0  0
  7 18  1  0  0  0  0
  8 22  1  0  0  0  0
  9 22  2  0  0  0  0
 10 23  1  0  0  0  0
 11 12  2  0  0  0  0
 11 24  1  0  0  0  0
 12 25  1  0  0  0  0
 13 20  1  0  0  0  0
 13 23  2  0  0  0  0
 14 25  2  0  0  0  0
 14 26  1  0  0  0  0
 15 27  1  0  0  0  0
 16 27  1  0  0  0  0
 16 30  2  0  0  0  0
 16 32  1  0  0  0  0
 17 19  2  0  0  0  0
 17 37  1  0  0  0  0
 18 20  2  0  0  0  0
 18 38  1  0  0  0  0
 19 46  1  0  0  0  0
 20 39  1  0  0  0  0
 21 28  1  0  0  0  0
 21 29  2  0  0  0  0
 21 58  1  0  0  0  0
 22 86  1  0  0  0  0
 23 87  1  0  0  0  0
 24 26  2  0  0  0  0
 24 86  1  0  0  0  0
 25 89  1  0  0  0  0
 26 90  1  0  0  0  0
 27 69  2  0  0  0  0
 28 49  1  0  0  0  0
 28 70  2  0  0  0  0
 29 59  1  0  0  0  0
 29 71  1  0  0  0  0
 30 72  1  0  0  0  0
 30 75  1  0  0  0  0
 31 70  1  0  0  0  0
 31 71  2  0  0  0  0
 31 88  1  0  0  0  0
 32 76  1  0  0  0  0
 32 81  2  0  0  0  0
 33 47  1  0  0  0  0
 33 77  1  0  0  0  0
 33 82  2  0  0  0  0
 34 65  1  0  0  0  0
 34 73  1  0  0  0  0
 34 83  2  0  0  0  0
 35 66  1  0  0  0  0
 35 78  1  0  0  0  0
 35 84  2  0  0  0  0
 36 74  1  0  0  0  0
 36 79  1  0  0  0  0
 36 85  2  0  0  0  0
 37 40  1  0  0  0  0
 38 47  1  0  0  0  0
 39 73  1  0  0  0  0
 40 42  1  0  0  0  0
 41 43  1  0  0  0  0
 41 44  1  0  0  0  0
 42 46  1  0  0  0  0
 43 48  1  0  0  0  0
 44 74  1  0  0  0  0
 45 48  1  0  0  0  0
 45 74  1  0  0  0  0
 46 77  1  0  0  0  0
 47 73  1  0  0  0  0
 48 72  1  0  0  0  0
 50 59  1  0  0  0  0
 51 66  1  0  0  0  0
 52 67  1  0  0  0  0
 53 67  1  0  0  0  0
 54 67  1  0  0  0  0
 55 68  1  0  0  0  0
 56 68  1  0  0  0  0
 57 80  1  0  0  0  0
 58 60  1  0  0  0  0
 60 61  1  0  0  0  0
 61 63  1  0  0  0  0
 62 68  1  0  0  0  0
 62 79  1  0  0  0  0
 63 87  1  0  0  0  0
 64 68  1  0  0  0  0
 64 88  1  0  0  0  0
 65 67  1  0  0  0  0
 65 78  1  0  0  0  0
 66 80  1  0  0  0  0
 69 72  1  0  0  0  0
M  CHG  1  80   1
M  ISO  4  36 100  63 101  79 100  87 101
M  END
> <Batch ID>
0068

> <Smiles>
CCc1nc(OCC(C)(C)C[100NH:0][100C:0](=O)N2CCCC(n3nc(-c4ccc(Oc5ccc(F)cc5F)cc4)c(C(N)=O)c3N)C2)nc(C)c1CCC[101CH2:1][101O:1]c1ccc2c(c1)CN(C(=O)C(NC(=O)C(C)NC)C(C)(C)C)C(C(=O)NC1CCCc3ccccc31)C2

> <Shape>
0.274

> <Color>
0.049

> <Negative vol penalty>
0.000

$$$$

  -OEChem-04052318143D

 92100  0     1  0  0  0  0  0999 V2000
  -17.0554  -27.6416   23.8801 C   0  0  0  0  0  0  0  0  0  0  0  0
  -17.7941  -27.0250   22.8754 C   0  0  0  0  0  0  0  0  0  0  0  0
  -24.2593  -14.0106   21.8672 C   0  0  0  0  0  0  0  0  0  0  0  0
  -26.6294  -13.7910   21.4531 C   0  0  0  0  0  0  0  0  0  0  0  0
  -17.3469  -28.9531   24.2531 C   0  0  0  0  0  0  0  0  0  0  0  0
  -18.8241  -27.7198   22.2423 C   0  0  0  0  0  0  0  0  0  0  0  0
  -23.0120  -24.9234   21.7073 C   0  0  0  0  0  0  0  0  0  0  0  0
  -24.0283  -12.8216   21.1756 C   0  0  0  0  0  0  0  0  0  0  0  0
  -26.3984  -12.6019   20.7616 C   0  0  0  0  0  0  0  0  0  0  0  0
  -23.0228  -23.9836   20.6775 C   0  0  0  0  0  0  0  0  0  0  0  0
  -22.8513   -9.6564   19.8296 C   0  0  0  0  0  0  0  0  0  0  0  0
  -21.9743   -8.7341   20.4003 C   0  0  0  0  0  0  0  0  0  0  0  0
  -24.3080  -25.5021   19.3132 C   0  0  0  0  0  0  0  0  0  0  0  0
  -28.0999  -23.5642   16.7482 C   0  0  0  0  0  0  0  0  0  0  0  0
  -23.4015   -8.5797   22.3436 C   0  0  0  0  0  0  0  0  0  0  0  0
  -25.5599  -14.4954   22.0059 C   0  0  0  0  0  0  0  0  0  0  0  0
  -26.0535  -15.8716   24.0964 C   0  0  0  0  0  0  0  0  0  0  0  0
  -18.3872  -29.6610   23.6309 C   0  0  0  0  0  0  0  0  0  0  0  0
  -23.6409  -26.1661   21.5434 C   0  0  0  0  0  0  0  0  0  0  0  0
  -19.1288  -29.0424   22.6063 C   0  0  0  0  0  0  0  0  0  0  0  0
  -24.3059  -26.4550   20.3433 C   0  0  0  0  0  0  0  0  0  0  0  0
  -29.3186  -23.4707   17.4645 C   0  0  0  0  0  0  0  0  0  0  0  0
  -25.0978  -12.1172   20.6228 C   0  0  0  0  0  0  0  0  0  0  0  0
  -23.6684  -24.2740   19.4792 C   0  0  0  0  0  0  0  0  0  0  0  0
  -24.0035  -10.0403   20.5158 C   0  0  0  0  0  0  0  0  0  0  0  0
  -22.2493   -8.1958   21.6574 C   0  0  0  0  0  0  0  0  0  0  0  0
  -24.2785   -9.5020   21.7728 C   0  0  0  0  0  0  0  0  0  0  0  0
  -25.7991  -15.7240   22.7197 C   0  0  0  0  0  0  0  0  0  0  0  0
  -27.5275  -22.3114   16.7449 C   0  0  0  0  0  0  0  0  0  0  0  0
  -29.4540  -22.1635   17.8770 C   0  0  0  0  0  0  0  0  0  0  0  0
  -26.2106  -17.2245   24.2735 C   0  0  0  0  0  0  0  0  0  0  0  0
  -26.1401  -14.8748   25.1234 C   0  0  0  0  0  0  0  0  0  0  0  0
  -22.6657  -29.1914   21.5474 C   0  0  0  0  0  0  0  0  0  0  0  0
  -25.8443  -29.8083   21.3519 C   0  0  0  0  0  0  0  0  0  0  0  0
  -28.9560  -28.7268   20.4607 C   0  0  0  0  0  0  0  0  0  0  0  0
  -27.8648  -21.6526   20.5983 C   0  0  0  0  0  0  0  0  0  0  0  0
  -18.6343  -31.0929   24.0353 C   0  0  0  0  0  0  0  0  0  0  0  0
  -23.6431  -27.1586   22.6736 C   0  0  0  0  0  0  0  0  0  0  0  0
  -25.0134  -27.7666   20.1246 C   0  0  0  0  0  0  0  0  0  0  0  0
  -19.9861  -31.6315   23.5741 C   0  0  0  0  0  0  0  0  0  0  0  0
  -24.8300  -21.4252   22.4463 C   0  0  0  0  0  0  0  0  0  0  0  0
  -20.2320  -31.2749   22.1115 C   0  0  0  0  0  0  0  0  0  0  0  0
  -24.7572  -19.9516   22.8501 C   0  0  0  0  0  0  0  0  0  0  0  0
  -25.4303  -21.5996   21.0530 C   0  0  0  0  0  0  0  0  0  0  0  0
  -26.6684  -19.4789   21.2619 C   0  0  0  0  0  0  0  0  0  0  0  0
  -20.2699  -29.7548   21.9131 C   0  0  1  0  0  0  0  0  0  0  0  0
  -23.8749  -28.5930   22.2087 C   0  0  1  0  0  0  0  0  0  0  0  0
  -26.1215  -19.2561   22.6823 C   0  0  2  0  0  0  0  0  0  0  0  0
  -31.3524  -29.4678   20.3850 C   0  0  0  0  0  0  0  0  0  0  0  0
  -31.4465  -20.8613   20.9392 C   0  0  0  0  0  0  0  0  0  0  0  0
  -29.1793  -17.1059   17.5949 C   0  0  0  0  0  0  0  0  0  0  0  0
  -28.4540  -16.9850   15.1981 C   0  0  0  0  0  0  0  0  0  0  0  0
  -26.7777  -17.4421   16.9933 C   0  0  0  0  0  0  0  0  0  0  0  0
  -25.2332  -31.5264   18.9055 C   0  0  0  0  0  0  0  0  0  0  0  0
  -27.6687  -31.4503   18.3303 C   0  0  0  0  0  0  0  0  0  0  0  0
  -26.9259  -32.5003   20.4678 C   0  0  0  0  0  0  0  0  0  0  0  0
  -29.8042  -26.5625   22.2925 C   0  0  0  0  0  0  0  0  0  0  0  0
  -26.2328  -21.8425   16.1307 C   0  0  0  0  0  0  0  0  0  0  0  0
  -30.5320  -21.5169   18.6555 C   0  0  0  0  0  0  0  0  0  0  0  0
  -25.0292  -21.9565   17.0688 C   0  0  0  0  0  0  0  0  0  0  0  0
  -28.4281  -19.2314   16.4031 C   0  0  0  0  0  0  0  0  0  0  0  0
  -28.1184  -20.0580   17.6583 C   0  0  0  0  0  0  0  0  0  0  0  0
  -24.8080  -23.3686   17.5984 C   0  0  0  0  0  0  0  0  0  1  0  0
  -26.8315  -29.9856   20.2237 C   0  0  1  0  0  0  0  0  0  0  0  0
  -30.2824  -28.7565   21.1985 C   0  0  2  0  0  0  0  0  0  0  0  0
  -30.3103  -21.5490   20.1887 C   0  0  1  0  0  0  0  0  0  0  0  0
  -30.2639  -24.5762   17.7184 C   0  0  0  0  0  0  0  0  0  0  0  0
  -28.2290  -17.6984   16.5414 C   0  0  0  0  0  0  0  0  0  0  0  0
  -26.6499  -31.3416   19.4849 C   0  0  0  0  0  0  0  0  0  0  0  0
  -25.7938  -16.8901   22.0684 N   0  0  0  0  0  0  0  0  0  0  0  0
  -28.3595  -21.4679   17.4337 N   0  0  0  0  0  0  0  0  0  0  0  0
  -26.0468  -17.7833   23.0401 N   0  0  0  0  0  0  0  0  0  0  0  0
  -24.9821  -28.7067   21.2571 N   0  0  0  0  0  0  0  0  0  0  0  0
  -26.7237  -20.9180   20.9607 N   0  0  0  0  0  0  0  0  0  0  0  0
  -26.4714  -17.9788   25.3622 N   0  0  0  0  0  0  0  0  0  0  0  0
  -25.9529  -13.5319   24.7686 N   0  0  0  0  0  0  0  0  0  0  0  0
  -21.5415  -29.2196   22.3504 N   0  0  0  0  0  0  0  0  0  0  0  0
  -28.1555  -29.7950   20.8060 N   0  0  0  0  0  0  0  0  0  0  0  0
  -29.0511  -20.9315   20.5406 N   0  0  0  0  0  0  0  0  0  0  0  0
  -30.7500  -27.3696   21.4794 N   0  3  0  0  0  0  0  0  0  0  0  0
  -26.3601  -15.1679   26.3231 O   0  0  0  0  0  0  0  0  0  0  0  0
  -22.7470  -29.5988   20.3945 O   0  0  0  0  0  0  0  0  0  0  0  0
  -25.8431  -30.6134   22.2865 O   0  0  0  0  0  0  0  0  0  0  0  0
  -28.6612  -27.8462   19.6556 O   0  0  0  0  0  0  0  0  0  0  0  0
  -27.8300  -22.8626   20.3501 O   0  0  0  0  0  0  0  0  0  0  0  0
  -24.8728  -10.9567   19.9481 O   0  0  0  0  0  0  0  0  0  0  0  0
  -23.6799  -23.3587   18.4722 O   0  0  0  0  0  0  0  0  0  1  0  0
  -21.4063   -7.3112   22.2060 F   0  0  0  0  0  0  0  0  0  0  0  0
  -25.3832   -9.8678   22.4374 F   0  0  0  0  0  0  0  0  0  0  0  0
  -29.8755  -25.7810   17.1892 F   0  0  0  0  0  0  0  0  0  0  0  0
  -30.4767  -24.8390   19.0480 F   0  0  0  0  0  0  0  0  0  0  0  0
  -31.5121  -24.3493   17.1996 F   0  0  0  0  0  0  0  0  0  0  0  0
  1  2  1  0  0  0  0
  1  5  2  0  0  0  0
  2  6  2  0  0  0  0
  3  8  2  0  0  0  0
  3 16  1  0  0  0  0
  4  9  1  0  0  0  0
  4 16  2  0  0  0  0
  5 18  1  0  0  0  0
  6 20  1  0  0  0  0
  7 10  2  0  0  0  0
  7 19  1  0  0  0  0
  8 23  1  0  0  0  0
  9 23  2  0  0  0  0
 10 24  1  0  0  0  0
 11 12  2  0  0  0  0
 11 25  1  0  0  0  0
 12 26  1  0  0  0  0
 13 21  1  0  0  0  0
 13 24  2  0  0  0  0
 14 22  1  0  0  0  0
 14 29  2  0  0  0  0
 15 26  2  0  0  0  0
 15 27  1  0  0  0  0
 16 28  1  0  0  0  0
 17 28  1  0  0  0  0
 17 31  2  0  0  0  0
 17 32  1  0  0  0  0
 18 20  2  0  0  0  0
 18 37  1  0  0  0  0
 19 21  2  0  0  0  0
 19 38  1  0  0  0  0
 20 46  1  0  0  0  0
 21 39  1  0  0  0  0
 22 30  2  0  0  0  0
 22 67  1  0  0  0  0
 23 86  1  0  0  0  0
 24 87  1  0  0  0  0
 25 27  2  0  0  0  0
 25 86  1  0  0  0  0
 26 88  1  0  0  0  0
 27 89  1  0  0  0  0
 28 70  2  0  0  0  0
 29 58  1  0  0  0  0
 29 71  1  0  0  0  0
 30 59  1  0  0  0  0
 30 71  1  0  0  0  0
 31 72  1  0  0  0  0
 31 75  1  0  0  0  0
 32 76  1  0  0  0  0
 32 81  2  0  0  0  0
 33 47  1  0  0  0  0
 33 77  1  0  0  0  0
 33 82  2  0  0  0  0
 34 64  1  0  0  0  0
 34 73  1  0  0  0  0
 34 83  2  0  0  0  0
 35 65  1  0  0  0  0
 35 78  1  0  0  0  0
 35 84  2  0  0  0  0
 36 74  1  0  0  0  0
 36 79  1  0  0  0  0
 36 85  2  0  0  0  0
 37 40  1  0  0  0  0
 38 47  1  0  0  0  0
 39 73  1  0  0  0  0
 40 42  1  0  0  0  0
 41 43  1  0  0  0  0
 41 44  1  0  0  0  0
 42 46  1  0  0  0  0
 43 48  1  0  0  0  0
 44 74  1  0  0  0  0
 45 48  1  0  0  0  0
 45 74  1  0  0  0  0
 46 77  1  0  0  0  0
 47 73  1  0  0  0  0
 48 72  1  0  0  0  0
 49 65  1  0  0  0  0
 50 66  1  0  0  0  0
 51 68  1  0  0  0  0
 52 68  1  0  0  0  0
 53 68  1  0  0  0  0
 54 69  1  0  0  0  0
 55 69  1  0  0  0  0
 56 69  1  0  0  0  0
 57 80  1  0  0  0  0
 58 60  1  0  0  0  0
 59 66  1  0  0  0  0
 60 63  1  0  0  0  0
 61 62  1  0  0  0  0
 61 68  1  0  0  0  0
 62 71  1  0  0  0  0
 63 87  1  0  0  0  0
 64 69  1  0  0  0  0
 64 78  1  0  0  0  0
 65 80  1  0  0  0  0
 66 79  1  0  0  0  0
 67 90  1  0  0  0  0
 67 91  1  0  0  0  0
 67 92  1  0  0  0  0
 70 72  1  0  0  0  0
M  CHG  1  80   1
M  ISO  4  36 100  63 101  79 100  87 101
M  END
> <Batch ID>
0068

> <Smiles>
CNC(C)C(=O)NC(C(=O)N1Cc2cc([101O:1][101CH2:1]CCc3cc(C(F)(F)F)c(CC(C)[100NH:0][100C:0](=O)N4CCCC(n5nc(-c6ccc(Oc7ccc(F)cc7F)cc6)c(C(N)=O)c5N)C4)n3CCC(C)(C)C)ccc2CC1C(=O)NC1CCCc2ccccc21)C(C)(C)C

> <Shape>
0.256

> <Color>
0.061

> <Negative vol penalty>
0.000

$$$$

  -OEChem-04052318143D

 81 89  0     1  0  0  0  0  0999 V2000
  -24.1086  -11.6890   20.2479 C   0  0  0  0  0  0  0  0  0  0  0  0
  -23.6834  -13.0121   20.3111 C   0  0  0  0  0  0  0  0  0  0  0  0
  -25.6535  -28.5444   21.2776 C   0  0  0  0  0  0  0  0  0  0  0  0
  -25.0522  -27.4415   19.2138 C   0  0  0  0  0  0  0  0  0  0  0  0
  -25.4024  -11.3541   20.6450 C   0  0  0  0  0  0  0  0  0  0  0  0
  -24.5516  -14.0010   20.7724 C   0  0  0  0  0  0  0  0  0  0  0  0
  -24.4695  -18.1601   17.8845 C   0  0  0  0  0  0  0  0  0  0  0  0
  -26.9506  -28.0436   21.1673 C   0  0  0  0  0  0  0  0  0  0  0  0
  -26.3494  -26.9407   19.1035 C   0  0  0  0  0  0  0  0  0  0  0  0
  -23.3959  -19.0329   18.0556 C   0  0  0  0  0  0  0  0  0  0  0  0
  -30.5188  -27.3522   21.2419 C   0  0  0  0  0  0  0  0  0  0  0  0
  -31.5755  -28.2284   21.4894 C   0  0  0  0  0  0  0  0  0  0  0  0
  -24.7806  -20.4584   19.4230 C   0  0  0  0  0  0  0  0  0  0  0  0
  -30.8213  -29.6474   19.6852 C   0  0  0  0  0  0  0  0  0  0  0  0
  -19.6467  -23.6280   21.1217 C   0  0  0  0  0  0  0  0  0  0  0  0
  -24.7042  -28.2434   20.3009 C   0  0  0  0  0  0  0  0  0  0  0  0
  -22.8765  -29.9785   19.9051 C   0  0  0  0  0  0  0  0  0  0  0  0
  -26.2901  -12.3407   21.1024 C   0  0  0  0  0  0  0  0  0  0  0  0
  -25.7057  -18.4247   18.4913 C   0  0  0  0  0  0  0  0  0  0  0  0
  -25.8581  -13.6787   21.1773 C   0  0  0  0  0  0  0  0  0  0  0  0
  -25.8690  -19.5886   19.2559 C   0  0  0  0  0  0  0  0  0  0  0  0
  -27.2986  -27.2417   20.0803 C   0  0  0  0  0  0  0  0  0  0  0  0
  -23.5505  -20.1808   18.8273 C   0  0  0  0  0  0  0  0  0  0  0  0
  -29.6133  -27.6235   20.2161 C   0  0  0  0  0  0  0  0  0  0  0  0
  -31.7267  -29.3760   20.7111 C   0  0  0  0  0  0  0  0  0  0  0  0
  -29.7646  -28.7711   19.4378 C   0  0  0  0  0  0  0  0  0  0  0  0
  -23.3640  -28.7599   20.4145 C   0  0  0  0  0  0  0  0  0  0  0  0
  -19.1987  -24.3888   20.0643 C   0  0  0  0  0  0  0  0  0  0  0  0
  -21.0138  -23.7442   18.8315 C   0  0  0  0  0  0  0  0  0  0  0  0
  -21.4621  -22.9841   19.8892 C   0  0  0  0  0  0  0  0  0  0  0  0
  -21.5545  -30.0017   20.2769 C   0  0  0  0  0  0  0  0  0  0  0  0
  -23.5578  -30.9981   19.1623 C   0  0  0  0  0  0  0  0  0  0  0  0
  -27.5073  -16.9430   20.6506 C   0  0  0  0  0  0  0  0  0  0  0  0
  -29.6229  -19.2929   19.9262 C   0  0  0  0  0  0  0  0  0  0  0  0
  -17.6797  -25.6024   21.5974 C   0  0  0  0  0  0  0  0  0  0  0  0
  -30.1561  -22.4399   18.7184 C   0  0  0  0  0  0  0  0  0  0  0  0
  -27.6634  -11.9234   21.5654 C   0  0  0  0  0  0  0  0  0  0  0  0
  -26.8616  -17.4868   18.2750 C   0  0  0  0  0  0  0  0  0  0  0  0
  -27.1814  -19.9287   19.9120 C   0  0  0  0  0  0  0  0  0  0  0  0
  -28.6443  -13.0866   21.6885 C   0  0  0  0  0  0  0  0  0  0  0  0
  -18.5767  -28.3988   23.6506 C   0  0  0  0  0  0  0  0  0  0  0  0
  -27.9951  -14.2572   22.4200 C   0  0  0  0  0  0  0  0  0  0  0  0
  -19.8768  -28.9016   23.0243 C   0  0  0  0  0  0  0  0  0  0  0  0
  -18.4658  -26.8799   23.5633 C   0  0  0  0  0  0  0  0  0  0  0  0
  -19.9012  -26.8410   21.5484 C   0  0  0  0  0  0  0  0  0  0  0  0
  -26.7787  -14.7835   21.6487 C   0  0  1  0  0  0  0  0  0  0  0  0
  -27.9272  -17.5913   19.3618 C   0  0  1  0  0  0  0  0  0  0  0  0
  -20.0390  -28.3732   21.5880 C   0  0  2  0  0  0  0  0  0  0  0  0
  -21.7703  -23.8143   17.5491 C   0  0  0  0  0  0  0  0  0  0  0  0
  -31.9880  -24.0991   18.2844 C   0  0  0  0  0  0  0  0  0  0  0  0
  -16.7138  -24.3187   19.7281 C   0  0  0  0  0  0  0  0  0  0  0  0
  -17.8759  -26.4993   19.3693 C   0  0  0  0  0  0  0  0  0  0  0  0
  -29.7658  -19.9121   22.9105 C   0  0  0  0  0  0  0  0  0  0  0  0
  -30.8176  -22.1095   22.3332 C   0  0  0  0  0  0  0  0  0  0  0  0
  -31.9664  -19.9806   21.7244 C   0  0  0  0  0  0  0  0  0  0  0  0
  -29.5847  -22.4861   15.8149 C   0  0  0  0  0  0  0  0  0  0  0  0
  -22.7328  -22.1912   19.7998 C   0  0  0  0  0  0  0  0  0  1  0  0
  -29.8987  -20.6817   20.4496 C   0  0  1  0  0  0  0  0  0  0  0  0
  -31.1482  -22.9736   17.7008 C   0  0  2  0  0  0  0  0  0  0  0  0
  -17.9352  -25.1679   20.1762 C   0  0  0  0  0  0  0  0  0  0  0  0
  -30.5867  -20.6639   21.8438 C   0  0  0  0  0  0  0  0  0  0  0  0
  -20.7865  -22.9120   21.0531 N   0  0  0  0  0  0  0  0  0  0  0  0
  -22.4279  -28.0599   21.0608 N   0  0  0  0  0  0  0  0  0  0  0  0
  -19.8742  -24.4605   18.9002 N   0  0  0  0  0  0  0  0  0  0  0  0
  -21.3390  -28.8411   20.9601 N   0  0  0  0  0  0  0  0  0  0  0  0
  -28.2799  -18.9773   19.6761 N   0  0  0  0  0  0  0  0  0  0  0  0
  -18.6477  -26.4159   22.1867 N   0  0  0  0  0  0  0  0  0  0  0  0
  -20.5671  -30.9016   20.0829 N   0  0  0  0  0  0  0  0  0  0  0  0
  -24.9153  -30.8145   18.8657 N   0  0  0  0  0  0  0  0  0  0  0  0
  -27.2030  -15.6003   20.5320 N   0  0  0  0  0  0  0  0  0  0  0  0
  -30.6663  -21.3636   19.4132 N   0  0  0  0  0  0  0  0  0  0  0  0
  -30.4314  -23.4946   16.5026 N   0  3  0  0  0  0  0  0  0  0  0  0
  -22.9841  -32.0486   18.7871 O   0  0  0  0  0  0  0  0  0  0  0  0
  -27.4642  -17.6111   21.6770 O   0  0  0  0  0  0  0  0  0  0  0  0
  -30.5651  -18.5190   19.7392 O   0  0  0  0  0  0  0  0  0  0  0  0
  -16.6486  -25.2313   22.1643 O   0  0  0  0  0  0  0  0  0  0  0  0
  -29.0417  -22.9311   18.8833 O   0  0  0  0  0  0  0  0  0  0  0  0
  -28.5643  -26.7531   19.9722 O   0  0  0  0  0  0  0  0  0  0  0  0
  -22.5041  -21.0342   18.9965 O   0  0  0  0  0  0  0  0  0  1  0  0
  -32.7406  -30.2182   20.9498 F   0  0  0  0  0  0  0  0  0  0  0  0
  -28.8972  -29.0377   18.4517 F   0  0  0  0  0  0  0  0  0  0  0  0
  1  2  1  0  0  0  0
  1  5  2  0  0  0  0
  2  6  2  0  0  0  0
  3  8  2  0  0  0  0
  3 16  1  0  0  0  0
  4  9  1  0  0  0  0
  4 16  2  0  0  0  0
  5 18  1  0  0  0  0
  6 20  1  0  0  0  0
  7 10  2  0  0  0  0
  7 19  1  0  0  0  0
  8 22  1  0  0  0  0
  9 22  2  0  0  0  0
 10 23  1  0  0  0  0
 11 12  2  0  0  0  0
 11 24  1  0  0  0  0
 12 25  1  0  0  0  0
 13 21  1  0  0  0  0
 13 23  2  0  0  0  0
 14 25  2  0  0  0  0
 14 26  1  0  0  0  0
 15 28  1  0  0  0  0
 15 62  2  0  0  0  0
 16 27  1  0  0  0  0
 17 27  1  0  0  0  0
 17 31  2  0  0  0  0
 17 32  1  0  0  0  0
 18 20  2  0  0  0  0
 18 37  1  0  0  0  0
 19 21  2  0  0  0  0
 19 38  1  0  0  0  0
 20 46  1  0  0  0  0
 21 39  1  0  0  0  0
 22 78  1  0  0  0  0
 23 79  1  0  0  0  0
 24 26  2  0  0  0  0
 24 78  1  0  0  0  0
 25 80  1  0  0  0  0
 26 81  1  0  0  0  0
 27 63  2  0  0  0  0
 28 60  1  0  0  0  0
 28 64  2  0  0  0  0
 29 30  2  0  0  0  0
 29 49  1  0  0  0  0
 29 64  1  0  0  0  0
 30 57  1  0  0  0  0
 30 62  1  0  0  0  0
 31 65  1  0  0  0  0
 31 68  1  0  0  0  0
 32 69  1  0  0  0  0
 32 73  2  0  0  0  0
 33 47  1  0  0  0  0
 33 70  1  0  0  0  0
 33 74  2  0  0  0  0
 34 58  1  0  0  0  0
 34 66  1  0  0  0  0
 34 75  2  0  0  0  0
 35 60  1  0  0  0  0
 35 67  1  0  0  0  0
 35 76  2  0  0  0  0
 36 59  1  0  0  0  0
 36 71  1  0  0  0  0
 36 77  2  0  0  0  0
 37 40  1  0  0  0  0
 38 47  1  0  0  0  0
 39 66  1  0  0  0  0
 40 42  1  0  0  0  0
 41 43  1  0  0  0  0
 41 44  1  0  0  0  0
 42 46  1  0  0  0  0
 43 48  1  0  0  0  0
 44 67  1  0  0  0  0
 45 48  1  0  0  0  0
 45 67  1  0  0  0  0
 46 70  1  0  0  0  0
 47 66  1  0  0  0  0
 48 65  1  0  0  0  0
 50 59  1  0  0  0  0
 51 60  1  0  0  0  0
 52 60  1  0  0  0  0
 53 61  1  0  0  0  0
 54 61  1  0  0  0  0
 55 61  1  0  0  0  0
 56 72  1  0  0  0  0
 57 79  1  0  0  0  0
 58 61  1  0  0  0  0
 58 71  1  0  0  0  0
 59 72  1  0  0  0  0
 63 65  1  0  0  0  0
M  CHG  1  72   1
M  ISO  4  35 100  57 101  60 100  79 101
M  END
> <Batch ID>
0068

> <Smiles>
CNC(C)C(=O)NC(C(=O)N1Cc2cc([101O:1][101CH2:1]c3ncc([100C:0](C)(C)[100C:0](=O)N4CCCC(n5nc(-c6ccc(Oc7ccc(F)cc7F)cc6)c(C(N)=O)c5N)C4)nc3C)ccc2CC1C(=O)NC1CCCc2ccccc21)C(C)(C)C

> <Shape>
0.233

> <Color>
0.101

> <Negative vol penalty>
0.000

$$$$

  -OEChem-04052318143D

 89 97  0     1  0  0  0  0  0999 V2000
  -25.1755  -31.1909   21.6107 C   0  0  0  0  0  0  0  0  0  0  0  0
  -24.6869  -30.0273   22.1960 C   0  0  0  0  0  0  0  0  0  0  0  0
  -18.2089  -21.8145   23.0649 C   0  0  0  0  0  0  0  0  0  0  0  0
  -18.8658  -21.3547   20.7859 C   0  0  0  0  0  0  0  0  0  0  0  0
  -25.8083  -31.1330   20.3696 C   0  0  0  0  0  0  0  0  0  0  0  0
  -24.8299  -28.8051   21.5400 C   0  0  0  0  0  0  0  0  0  0  0  0
  -25.8026  -21.8341   22.8723 C   0  0  0  0  0  0  0  0  0  0  0  0
  -18.0111  -23.1558   22.7373 C   0  0  0  0  0  0  0  0  0  0  0  0
  -18.6679  -22.6960   20.4582 C   0  0  0  0  0  0  0  0  0  0  0  0
  -25.2525  -20.5912   22.5618 C   0  0  0  0  0  0  0  0  0  0  0  0
  -19.9124  -25.9086   22.2565 C   0  0  0  0  0  0  0  0  0  0  0  0
  -20.4155  -26.8701   23.1330 C   0  0  0  0  0  0  0  0  0  0  0  0
  -26.4334  -20.6008   20.4583 C   0  0  0  0  0  0  0  0  0  0  0  0
  -18.1844  -27.7360   23.4636 C   0  0  0  0  0  0  0  0  0  0  0  0
  -26.6838  -11.9030   20.8905 C   0  0  0  0  0  0  0  0  0  0  0  0
  -18.6364  -20.9139   22.0892 C   0  0  0  0  0  0  0  0  0  0  0  0
  -17.8945  -18.4887   22.3637 C   0  0  0  0  0  0  0  0  0  0  0  0
  -25.9676  -29.9082   19.7025 C   0  0  0  0  0  0  0  0  0  0  0  0
  -26.6651  -22.4757   21.9718 C   0  0  0  0  0  0  0  0  0  0  0  0
  -25.4642  -28.7310   20.2882 C   0  0  0  0  0  0  0  0  0  0  0  0
  -26.9951  -21.8506   20.7608 C   0  0  0  0  0  0  0  0  0  0  0  0
  -27.0340  -13.1950   20.5551 C   0  0  0  0  0  0  0  0  0  0  0  0
  -18.2405  -23.5966   21.4340 C   0  0  0  0  0  0  0  0  0  0  0  0
  -25.5656  -19.9757   21.3534 C   0  0  0  0  0  0  0  0  0  0  0  0
  -18.5453  -25.8609   21.9836 C   0  0  0  0  0  0  0  0  0  0  0  0
  -19.5515  -27.7838   23.7365 C   0  0  0  0  0  0  0  0  0  0  0  0
  -17.6813  -26.7746   22.5871 C   0  0  0  0  0  0  0  0  0  0  0  0
  -18.8415  -19.5283   22.4271 C   0  0  0  0  0  0  0  0  0  0  0  0
  -25.9987  -14.0036   20.1326 C   0  0  0  0  0  0  0  0  0  0  0  0
  -18.5788  -17.3747   22.7848 C   0  0  0  0  0  0  0  0  0  0  0  0
  -24.5031  -12.3123   20.3964 C   0  0  0  0  0  0  0  0  0  0  0  0
  -16.5192  -18.5264   21.9602 C   0  0  0  0  0  0  0  0  0  0  0  0
  -26.5896  -25.2122   20.3563 C   0  0  0  0  0  0  0  0  0  0  0  0
  -29.6088  -24.3585   19.5331 C   0  0  0  0  0  0  0  0  0  0  0  0
  -31.9015  -21.8662   19.1103 C   0  0  0  0  0  0  0  0  0  0  0  0
  -23.1335  -14.1503   22.7271 C   0  0  0  0  0  0  0  0  0  0  0  0
  -26.6164  -29.9021   18.3410 C   0  0  0  0  0  0  0  0  0  0  0  0
  -27.2712  -23.8040   22.3333 C   0  0  0  0  0  0  0  0  0  0  0  0
  -27.9318  -22.4883   19.7687 C   0  0  0  0  0  0  0  0  0  0  0  0
  -27.0605  -28.5149   17.8841 C   0  0  0  0  0  0  0  0  0  0  0  0
  -23.1271  -16.9292   24.9530 C   0  0  0  0  0  0  0  0  0  0  0  0
  -25.9538  -27.4935   18.1261 C   0  0  0  0  0  0  0  0  0  0  0  0
  -21.9379  -17.7699   24.4851 C   0  0  0  0  0  0  0  0  0  0  0  0
  -23.8522  -16.2747   23.7791 C   0  0  0  0  0  0  0  0  0  0  0  0
  -21.8006  -16.3233   22.4145 C   0  0  0  0  0  0  0  0  0  0  0  0
  -25.6221  -27.3828   19.6192 C   0  0  1  0  0  0  0  0  0  0  0  0
  -27.7322  -24.6012   21.1171 C   0  0  1  0  0  0  0  0  0  0  0  0
  -21.0041  -16.9583   23.5672 C   0  0  2  0  0  0  0  0  0  0  0  0
  -28.2549  -14.4459   23.1339 C   0  0  0  0  0  0  0  0  0  0  0  0
  -34.2735  -21.4727   18.3918 C   0  0  0  0  0  0  0  0  0  0  0  0
  -29.0846  -14.1594   19.3081 C   0  0  0  0  0  0  0  0  0  0  0  0
  -29.3701  -12.4849   21.1131 C   0  0  0  0  0  0  0  0  0  0  0  0
  -22.9338  -10.2933   19.9990 C   0  0  0  0  0  0  0  0  0  0  0  0
  -22.3379  -12.5470   19.1495 C   0  0  0  0  0  0  0  0  0  0  0  0
  -28.7849  -24.7288   16.6186 C   0  0  0  0  0  0  0  0  0  0  0  0
  -30.8237  -23.4381   15.9510 C   0  0  0  0  0  0  0  0  0  0  0  0
  -31.0627  -25.5972   17.1772 C   0  0  0  0  0  0  0  0  0  0  0  0
  -32.6393  -20.7535   21.7516 C   0  0  0  0  0  0  0  0  0  0  0  0
  -26.2616  -15.4355   19.7400 C   0  0  0  0  0  0  0  0  0  0  0  0
  -28.6420  -14.8196   21.7058 C   0  0  0  0  0  0  0  0  0  0  0  0
  -25.4693  -16.4548   20.5614 C   0  0  0  0  0  0  0  0  0  0  0  0
  -22.2791  -12.0993   21.6214 C   0  0  0  0  0  0  0  0  0  0  0  0
  -25.8054  -17.9009   20.2159 C   0  0  0  0  0  0  0  0  0  1  0  0
  -30.2251  -23.5564   18.4124 C   0  0  1  0  0  0  0  0  0  0  0  0
  -33.3437  -21.7362   19.5660 C   0  0  2  0  0  0  0  0  0  0  0  0
  -28.4412  -13.6597   20.6509 C   0  0  0  0  0  0  0  0  0  0  0  0
  -23.0972  -11.8224   20.3089 C   0  0  0  0  0  0  0  0  0  0  0  0
  -30.2049  -24.3187   17.0574 C   0  0  0  0  0  0  0  0  0  0  0  0
  -25.4234  -11.4265   20.8228 N   0  0  0  0  0  0  0  0  0  0  0  0
  -20.0364  -19.1121   22.8550 N   0  0  0  0  0  0  0  0  0  0  0  0
  -24.7166  -13.5935   20.0408 N   0  0  0  0  0  0  0  0  0  0  0  0
  -19.8447  -17.7985   23.0643 N   0  0  0  0  0  0  0  0  0  0  0  0
  -28.4938  -23.7901   20.1651 N   0  0  0  0  0  0  0  0  0  0  0  0
  -22.9108  -15.5193   22.9491 N   0  0  0  0  0  0  0  0  0  0  0  0
  -18.2152  -16.0839   22.9397 N   0  0  0  0  0  0  0  0  0  0  0  0
  -15.9748  -19.7532   21.5565 N   0  0  0  0  0  0  0  0  0  0  0  0
  -26.6238  -26.5925   20.3022 N   0  0  0  0  0  0  0  0  0  0  0  0
  -31.5594  -23.1794   18.8661 N   0  0  0  0  0  0  0  0  0  0  0  0
  -22.1902  -13.5082   21.9344 N   0  0  0  0  0  0  0  0  0  0  0  0
  -33.4813  -20.6130   20.5358 N   0  3  0  0  0  0  0  0  0  0  0  0
  -15.7901  -17.5058   21.9732 O   0  0  0  0  0  0  0  0  0  0  0  0
  -25.7406  -24.4850   19.8542 O   0  0  0  0  0  0  0  0  0  0  0  0
  -30.1030  -25.4459   19.8413 O   0  0  0  0  0  0  0  0  0  0  0  0
  -31.1544  -20.8990   18.9800 O   0  0  0  0  0  0  0  0  0  0  0  0
  -24.0985  -13.5440   23.2048 O   0  0  0  0  0  0  0  0  0  0  0  0
  -18.0473  -24.9053   21.1138 O   0  0  0  0  0  0  0  0  0  0  0  0
  -25.0296  -18.7628   21.0476 O   0  0  0  0  0  0  0  0  0  1  0  0
  -20.0345  -28.7060   24.5793 F   0  0  0  0  0  0  0  0  0  0  0  0
  -16.3669  -26.7329   22.3297 F   0  0  0  0  0  0  0  0  0  0  0  0
  1  2  1  0  0  0  0
  1  5  2  0  0  0  0
  2  6  2  0  0  0  0
  3  8  2  0  0  0  0
  3 16  1  0  0  0  0
  4  9  1  0  0  0  0
  4 16  2  0  0  0  0
  5 18  1  0  0  0  0
  6 20  1  0  0  0  0
  7 10  2  0  0  0  0
  7 19  1  0  0  0  0
  8 23  1  0  0  0  0
  9 23  2  0  0  0  0
 10 24  1  0  0  0  0
 11 12  2  0  0  0  0
 11 25  1  0  0  0  0
 12 26  1  0  0  0  0
 13 21  1  0  0  0  0
 13 24  2  0  0  0  0
 14 26  2  0  0  0  0
 14 27  1  0  0  0  0
 15 22  1  0  0  0  0
 15 69  2  0  0  0  0
 16 28  1  0  0  0  0
 17 28  1  0  0  0  0
 17 30  2  0  0  0  0
 17 32  1  0  0  0  0
 18 20  2  0  0  0  0
 18 37  1  0  0  0  0
 19 21  2  0  0  0  0
 19 38  1  0  0  0  0
 20 46  1  0  0  0  0
 21 39  1  0  0  0  0
 22 29  2  0  0  0  0
 22 66  1  0  0  0  0
 23 86  1  0  0  0  0
 24 87  1  0  0  0  0
 25 27  2  0  0  0  0
 25 86  1  0  0  0  0
 26 88  1  0  0  0  0
 27 89  1  0  0  0  0
 28 70  2  0  0  0  0
 29 59  1  0  0  0  0
 29 71  1  0  0  0  0
 30 72  1  0  0  0  0
 30 75  1  0  0  0  0
 31 67  1  0  0  0  0
 31 69  1  0  0  0  0
 31 71  2  0  0  0  0
 32 76  1  0  0  0  0
 32 81  2  0  0  0  0
 33 47  1  0  0  0  0
 33 77  1  0  0  0  0
 33 82  2  0  0  0  0
 34 64  1  0  0  0  0
 34 73  1  0  0  0  0
 34 83  2  0  0  0  0
 35 65  1  0  0  0  0
 35 78  1  0  0  0  0
 35 84  2  0  0  0  0
 36 74  1  0  0  0  0
 36 79  1  0  0  0  0
 36 85  2  0  0  0  0
 37 40  1  0  0  0  0
 38 47  1  0  0  0  0
 39 73  1  0  0  0  0
 40 42  1  0  0  0  0
 41 43  1  0  0  0  0
 41 44  1  0  0  0  0
 42 46  1  0  0  0  0
 43 48  1  0  0  0  0
 44 74  1  0  0  0  0
 45 48  1  0  0  0  0
 45 74  1  0  0  0  0
 46 77  1  0  0  0  0
 47 73  1  0  0  0  0
 48 72  1  0  0  0  0
 49 60  1  0  0  0  0
 50 65  1  0  0  0  0
 51 66  1  0  0  0  0
 52 66  1  0  0  0  0
 53 67  1  0  0  0  0
 54 67  1  0  0  0  0
 55 68  1  0  0  0  0
 56 68  1  0  0  0  0
 57 68  1  0  0  0  0
 58 80  1  0  0  0  0
 59 61  1  0  0  0  0
 60 66  1  0  0  0  0
 61 63  1  0  0  0  0
 62 67  1  0  0  0  0
 62 79  1  0  0  0  0
 63 87  1  0  0  0  0
 64 68  1  0  0  0  0
 64 78  1  0  0  0  0
 65 80  1  0  0  0  0
 70 72  1  0  0  0  0
M  CHG  1  80   1
M  ISO  4  36 100  63 101  79 100  87 101
M  END
> <Batch ID>
0068

> <Smiles>
CCC(C)(C)c1cnc(C(C)(C)C[100NH:0][100C:0](=O)N2CCCC(n3nc(-c4ccc(Oc5ccc(F)cc5F)cc4)c(C(N)=O)c3N)C2)nc1CC[101CH2:1][101O:1]c1ccc2c(c1)CN(C(=O)C(NC(=O)C(C)NC)C(C)(C)C)C(C(=O)NC1CCCc3ccccc31)C2

> <Shape>
0.219

> <Color>
0.073

> <Negative vol penalty>
0.000

$$$$

  -OEChem-04052318143D

 91 99  0     1  0  0  0  0  0999 V2000
  -32.3528  -30.3076   25.9406 C   0  0  0  0  0  0  0  0  0  0  0  0
  -32.1193  -29.2572   25.0587 C   0  0  0  0  0  0  0  0  0  0  0  0
  -23.0982   -9.9416   19.9233 C   0  0  0  0  0  0  0  0  0  0  0  0
  -23.8834   -9.8961   22.2077 C   0  0  0  0  0  0  0  0  0  0  0  0
  -33.4302  -30.2485   26.8236 C   0  0  0  0  0  0  0  0  0  0  0  0
  -32.9639  -28.1477   25.0586 C   0  0  0  0  0  0  0  0  0  0  0  0
  -30.4222  -23.7717   24.8703 C   0  0  0  0  0  0  0  0  0  0  0  0
  -22.3502   -8.7878   20.1573 C   0  0  0  0  0  0  0  0  0  0  0  0
  -23.1353   -8.7423   22.4418 C   0  0  0  0  0  0  0  0  0  0  0  0
  -29.9195  -23.3802   23.6302 C   0  0  0  0  0  0  0  0  0  0  0  0
  -19.9501   -6.0592   20.2550 C   0  0  0  0  0  0  0  0  0  0  0  0
  -18.6389   -6.0290   19.7804 C   0  0  0  0  0  0  0  0  0  0  0  0
  -31.7883  -21.8803   23.3529 C   0  0  0  0  0  0  0  0  0  0  0  0
  -18.1000   -7.9470   21.1472 C   0  0  0  0  0  0  0  0  0  0  0  0
  -27.5616  -17.9959   20.9256 C   0  0  0  0  0  0  0  0  0  0  0  0
  -23.8649  -10.4957   20.9484 C   0  0  0  0  0  0  0  0  0  0  0  0
  -24.2206  -13.0208   20.8773 C   0  0  0  0  0  0  0  0  0  0  0  0
  -34.2827  -29.1333   26.8409 C   0  0  0  0  0  0  0  0  0  0  0  0
  -31.6195  -23.2275   25.3569 C   0  0  0  0  0  0  0  0  0  0  0  0
  -34.0545  -28.0742   25.9417 C   0  0  0  0  0  0  0  0  0  0  0  0
  -32.3028  -22.2646   24.6006 C   0  0  0  0  0  0  0  0  0  0  0  0
  -22.3687   -8.1881   21.4166 C   0  0  0  0  0  0  0  0  0  0  0  0
  -30.6041  -22.4365   22.8700 C   0  0  0  0  0  0  0  0  0  0  0  0
  -20.3364   -7.0333   21.1758 C   0  0  0  0  0  0  0  0  0  0  0  0
  -17.7138   -6.9729   20.2264 C   0  0  0  0  0  0  0  0  0  0  0  0
  -19.4113   -7.9772   21.6218 C   0  0  0  0  0  0  0  0  0  0  0  0
  -24.6382  -11.6873   20.7070 C   0  0  0  0  0  0  0  0  0  0  0  0
  -28.0059  -18.4998   19.7301 C   0  0  0  0  0  0  0  0  0  0  0  0
  -25.3131  -13.7714   20.5177 C   0  0  0  0  0  0  0  0  0  0  0  0
  -29.4012  -16.6897   21.0224 C   0  0  0  0  0  0  0  0  0  0  0  0
  -22.9579  -13.5351   21.3211 C   0  0  0  0  0  0  0  0  0  0  0  0
  -34.4667  -24.4074   26.1349 C   0  0  0  0  0  0  0  0  0  0  0  0
  -30.8262  -14.6859   20.7614 C   0  0  0  0  0  0  0  0  0  0  0  0
  -35.0130  -21.3748   27.1483 C   0  0  0  0  0  0  0  0  0  0  0  0
  -34.2314  -18.0603   26.9247 C   0  0  0  0  0  0  0  0  0  0  0  0
  -35.4622  -29.1358   27.7808 C   0  0  0  0  0  0  0  0  0  0  0  0
  -32.1345  -23.6406   26.7084 C   0  0  0  0  0  0  0  0  0  0  0  0
  -33.5817  -21.6352   25.0871 C   0  0  0  0  0  0  0  0  0  0  0  0
  -36.0889  -27.7575   27.9753 C   0  0  0  0  0  0  0  0  0  0  0  0
  -29.6201  -12.4488   18.2354 C   0  0  0  0  0  0  0  0  0  0  0  0
  -36.2790  -27.0630   26.6305 C   0  0  0  0  0  0  0  0  0  0  0  0
  -28.1928  -12.1372   18.6836 C   0  0  0  0  0  0  0  0  0  0  0  0
  -30.5550  -12.6210   19.4285 C   0  0  0  0  0  0  0  0  0  0  0  0
  -28.6717  -13.3372   20.8644 C   0  0  0  0  0  0  0  0  0  0  0  0
  -34.9337  -26.8426   25.9284 C   0  0  1  0  0  0  0  0  0  0  0  0
  -33.6319  -23.4015   26.8759 C   0  0  1  0  0  0  0  0  0  0  0  0
  -27.6882  -13.1861   19.6904 C   0  0  2  0  0  0  0  0  0  0  0  0
  -34.8745  -15.8180   27.8499 C   0  0  0  0  0  0  0  0  0  0  0  0
  -37.5189  -21.3778   25.4075 C   0  0  0  0  0  0  0  0  0  0  0  0
  -37.5806  -18.8835   25.6135 C   0  0  0  0  0  0  0  0  0  0  0  0
  -37.8073  -20.3073   27.6492 C   0  0  0  0  0  0  0  0  0  0  0  0
  -28.6481  -23.8429   18.6712 C   0  0  0  0  0  0  0  0  0  0  0  0
  -30.9538  -22.9363   18.9850 C   0  0  0  0  0  0  0  0  0  0  0  0
  -32.3316  -17.1196   22.1598 C   0  0  0  0  0  0  0  0  0  0  0  0
  -30.5433  -16.9800   23.8970 C   0  0  0  0  0  0  0  0  0  0  0  0
  -31.5252  -17.6135   28.0363 C   0  0  0  0  0  0  0  0  0  0  0  0
  -27.2138  -19.5397   18.9781 C   0  0  0  0  0  0  0  0  0  0  0  0
  -27.5734  -20.9847   19.3514 C   0  0  0  0  0  0  0  0  0  0  0  0
  -29.0263  -21.3436   19.0042 C   0  0  0  0  0  0  0  0  0  0  0  0
  -29.3593  -23.0177   20.9288 C   0  0  0  0  0  0  0  0  0  1  0  0
  -30.2146  -15.6636   21.7331 C   0  0  1  0  0  0  0  0  0  0  0  0
  -35.5562  -20.1172   26.5140 C   0  0  1  0  0  0  0  0  0  0  0  0
  -33.9504  -17.0175   27.9915 C   0  0  2  0  0  0  0  0  0  0  0  0
  -37.0927  -20.1845   26.2857 C   0  0  0  0  0  0  0  0  0  0  0  0
  -29.4774  -22.7764   19.4083 C   0  0  0  0  0  0  0  0  0  0  0  0
  -31.2756  -16.1894   22.7880 C   0  0  0  0  0  0  0  0  0  0  0  0
  -32.0090  -15.0145   23.4701 C   0  0  0  0  0  0  0  0  0  0  0  0
  -28.2552  -17.0708   21.6060 N   0  0  0  0  0  0  0  0  0  0  0  0
  -25.8978  -11.5929   20.2728 N   0  0  0  0  0  0  0  0  0  0  0  0
  -29.1652  -18.0786   19.1927 N   0  0  0  0  0  0  0  0  0  0  0  0
  -29.8867  -17.1485   19.8520 N   0  0  0  0  0  0  0  0  0  0  0  0
  -26.2810  -12.8767   20.1671 N   0  0  0  0  0  0  0  0  0  0  0  0
  -34.0481  -22.0765   26.4119 N   0  0  0  0  0  0  0  0  0  0  0  0
  -30.0294  -13.6090   20.3723 N   0  0  0  0  0  0  0  0  0  0  0  0
  -25.5307  -15.1029   20.4701 N   0  0  0  0  0  0  0  0  0  0  0  0
  -21.9443  -12.6249   21.6506 N   0  0  0  0  0  0  0  0  0  0  0  0
  -34.2371  -25.7166   26.5127 N   0  0  0  0  0  0  0  0  0  0  0  0
  -35.1264  -19.0125   27.3646 N   0  0  0  0  0  0  0  0  0  0  0  0
  -32.5421  -16.5403   27.8911 N   0  3  0  0  0  0  0  0  0  0  0  0
  -22.7297  -14.7656   21.4068 O   0  0  0  0  0  0  0  0  0  0  0  0
  -35.2614  -24.0240   25.2846 O   0  0  0  0  0  0  0  0  0  0  0  0
  -31.9768  -14.8770   20.3591 O   0  0  0  0  0  0  0  0  0  0  0  0
  -35.4244  -21.7179   28.2595 O   0  0  0  0  0  0  0  0  0  0  0  0
  -33.7121  -18.0308   25.8112 O   0  0  0  0  0  0  0  0  0  0  0  0
  -21.6388   -7.0624   21.6455 O   0  0  0  0  0  0  0  0  0  0  0  0
  -30.1159  -22.0531   21.6590 O   0  0  0  0  0  0  0  0  0  1  0  0
  -16.4551   -6.9448   19.7694 F   0  0  0  0  0  0  0  0  0  0  0  0
  -19.7768   -8.9161   22.5054 F   0  0  0  0  0  0  0  0  0  0  0  0
  -32.8473  -15.4514   24.4388 F   0  0  0  0  0  0  0  0  0  0  0  0
  -31.1365  -14.1597   24.0506 F   0  0  0  0  0  0  0  0  0  0  0  0
  -32.7542  -14.3032   22.5959 F   0  0  0  0  0  0  0  0  0  0  0  0
  1  2  1  0  0  0  0
  1  5  2  0  0  0  0
  2  6  2  0  0  0  0
  3  8  2  0  0  0  0
  3 16  1  0  0  0  0
  4  9  1  0  0  0  0
  4 16  2  0  0  0  0
  5 18  1  0  0  0  0
  6 20  1  0  0  0  0
  7 10  2  0  0  0  0
  7 19  1  0  0  0  0
  8 22  1  0  0  0  0
  9 22  2  0  0  0  0
 10 23  1  0  0  0  0
 11 12  2  0  0  0  0
 11 24  1  0  0  0  0
 12 25  1  0  0  0  0
 13 21  1  0  0  0  0
 13 23  2  0  0  0  0
 14 25  2  0  0  0  0
 14 26  1  0  0  0  0
 15 28  1  0  0  0  0
 15 68  2  0  0  0  0
 16 27  1  0  0  0  0
 17 27  1  0  0  0  0
 17 29  2  0  0  0  0
 17 31  1  0  0  0  0
 18 20  2  0  0  0  0
 18 36  1  0  0  0  0
 19 21  2  0  0  0  0
 19 37  1  0  0  0  0
 20 45  1  0  0  0  0
 21 38  1  0  0  0  0
 22 85  1  0  0  0  0
 23 86  1  0  0  0  0
 24 26  2  0  0  0  0
 24 85  1  0  0  0  0
 25 87  1  0  0  0  0
 26 88  1  0  0  0  0
 27 69  2  0  0  0  0
 28 57  1  0  0  0  0
 28 70  2  0  0  0  0
 29 72  1  0  0  0  0
 29 75  1  0  0  0  0
 30 61  1  0  0  0  0
 30 68  1  0  0  0  0
 30 71  2  0  0  0  0
 31 76  1  0  0  0  0
 31 80  2  0  0  0  0
 32 46  1  0  0  0  0
 32 77  1  0  0  0  0
 32 81  2  0  0  0  0
 33 61  1  0  0  0  0
 33 74  1  0  0  0  0
 33 82  2  0  0  0  0
 34 62  1  0  0  0  0
 34 73  1  0  0  0  0
 34 83  2  0  0  0  0
 35 63  1  0  0  0  0
 35 78  1  0  0  0  0
 35 84  2  0  0  0  0
 36 39  1  0  0  0  0
 37 46  1  0  0  0  0
 38 73  1  0  0  0  0
 39 41  1  0  0  0  0
 40 42  1  0  0  0  0
 40 43  1  0  0  0  0
 41 45  1  0  0  0  0
 42 47  1  0  0  0  0
 43 74  1  0  0  0  0
 44 47  1  0  0  0  0
 44 74  1  0  0  0  0
 45 77  1  0  0  0  0
 46 73  1  0  0  0  0
 47 72  1  0  0  0  0
 48 63  1  0  0  0  0
 49 64  1  0  0  0  0
 50 64  1  0  0  0  0
 51 64  1  0  0  0  0
 52 65  1  0  0  0  0
 53 65  1  0  0  0  0
 54 66  1  0  0  0  0
 55 66  1  0  0  0  0
 56 79  1  0  0  0  0
 57 58  1  0  0  0  0
 58 59  1  0  0  0  0
 59 65  1  0  0  0  0
 60 65  1  0  0  0  0
 60 86  1  0  0  0  0
 61 66  1  0  0  0  0
 62 64  1  0  0  0  0
 62 78  1  0  0  0  0
 63 79  1  0  0  0  0
 66 67  1  0  0  0  0
 67 89  1  0  0  0  0
 67 90  1  0  0  0  0
 67 91  1  0  0  0  0
 69 72  1  0  0  0  0
 70 71  1  0  0  0  0
M  CHG  1  79   1
M  ISO  4  33 100  60 101  61 100  86 101
M  END
> <Batch ID>
0068

> <Smiles>
CNC(C)C(=O)NC(C(=O)N1Cc2cc([101O:1][101CH2:1]C(C)(C)CCCc3cnc([100CH:0]([100C:0](=O)N4CCCC(n5nc(-c6ccc(Oc7ccc(F)cc7F)cc6)c(C(N)=O)c5N)C4)C(C)(C)C(F)(F)F)nn3)ccc2CC1C(=O)NC1CCCc2ccccc21)C(C)(C)C

> <Shape>
0.210

> <Color>
0.193

> <Negative vol penalty>
0.000

$$$$

  -OEChem-04052318143D

 88 96  0     1  0  0  0  0  0999 V2000
  -30.6325  -18.8804   33.9495 C   0  0  0  0  0  0  0  0  0  0  0  0
  -30.7435  -19.2981   32.6272 C   0  0  0  0  0  0  0  0  0  0  0  0
  -23.0746   -9.8676   19.9425 C   0  0  0  0  0  0  0  0  0  0  0  0
  -23.8381   -9.8756   22.2346 C   0  0  0  0  0  0  0  0  0  0  0  0
  -29.4001  -18.4558   34.4441 C   0  0  0  0  0  0  0  0  0  0  0  0
  -29.6222  -19.2904   31.7983 C   0  0  0  0  0  0  0  0  0  0  0  0
  -29.2081  -23.5242   29.0509 C   0  0  0  0  0  0  0  0  0  0  0  0
  -22.3321   -8.7139   20.1938 C   0  0  0  0  0  0  0  0  0  0  0  0
  -23.0956   -8.7218   22.4860 C   0  0  0  0  0  0  0  0  0  0  0  0
  -30.0278  -23.6379   27.9289 C   0  0  0  0  0  0  0  0  0  0  0  0
  -19.8691   -7.9213   23.0937 C   0  0  0  0  0  0  0  0  0  0  0  0
  -19.1140   -7.8809   24.2658 C   0  0  0  0  0  0  0  0  0  0  0  0
  -28.1811  -22.9844   26.5210 C   0  0  0  0  0  0  0  0  0  0  0  0
  -20.3582   -5.9446   25.0006 C   0  0  0  0  0  0  0  0  0  0  0  0
  -31.6956  -20.2778   24.7802 C   0  0  0  0  0  0  0  0  0  0  0  0
  -31.0208  -21.2854   22.7839 C   0  0  0  0  0  0  0  0  0  0  0  0
  -23.8276  -10.4484   20.9629 C   0  0  0  0  0  0  0  0  0  0  0  0
  -24.1671  -12.9739   20.8420 C   0  0  0  0  0  0  0  0  0  0  0  0
  -28.2610  -18.4520   33.6236 C   0  0  0  0  0  0  0  0  0  0  0  0
  -27.8694  -23.1285   28.9173 C   0  0  0  0  0  0  0  0  0  0  0  0
  -28.3737  -18.8640   32.2820 C   0  0  0  0  0  0  0  0  0  0  0  0
  -27.3458  -22.8689   27.6427 C   0  0  0  0  0  0  0  0  0  0  0  0
  -31.6802  -21.4088   23.9897 C   0  0  0  0  0  0  0  0  0  0  0  0
  -22.3425   -8.1410   21.4655 C   0  0  0  0  0  0  0  0  0  0  0  0
  -29.5151  -23.3651   26.6640 C   0  0  0  0  0  0  0  0  0  0  0  0
  -20.8687   -6.9733   22.8750 C   0  0  0  0  0  0  0  0  0  0  0  0
  -19.3586   -6.8926   25.2193 C   0  0  0  0  0  0  0  0  0  0  0  0
  -21.1133   -5.9850   23.8284 C   0  0  0  0  0  0  0  0  0  0  0  0
  -24.5953  -11.6399   20.7038 C   0  0  0  0  0  0  0  0  0  0  0  0
  -25.2580  -13.7242   20.4769 C   0  0  0  0  0  0  0  0  0  0  0  0
  -30.5034  -19.1176   23.2311 C   0  0  0  0  0  0  0  0  0  0  0  0
  -22.8969  -13.4887   21.2628 C   0  0  0  0  0  0  0  0  0  0  0  0
  -26.1431  -20.6692   29.9542 C   0  0  0  0  0  0  0  0  0  0  0  0
  -23.6916  -22.3373   28.6388 C   0  0  0  0  0  0  0  0  0  0  0  0
  -22.6622  -24.6687   26.3691 C   0  0  0  0  0  0  0  0  0  0  0  0
  -30.7412  -14.7480   20.6564 C   0  0  0  0  0  0  0  0  0  0  0  0
  -26.9604  -17.9396   34.1896 C   0  0  0  0  0  0  0  0  0  0  0  0
  -26.9910  -23.0365   30.1348 C   0  0  0  0  0  0  0  0  0  0  0  0
  -25.9099  -22.4603   27.4434 C   0  0  0  0  0  0  0  0  0  0  0  0
  -25.7411  -18.3164   33.3519 C   0  0  0  0  0  0  0  0  0  0  0  0
  -29.6019  -12.3622   18.2717 C   0  0  0  0  0  0  0  0  0  0  0  0
  -26.0049  -18.0467   31.8739 C   0  0  0  0  0  0  0  0  0  0  0  0
  -28.1653  -12.0673   18.7070 C   0  0  0  0  0  0  0  0  0  0  0  0
  -30.5207  -12.5839   19.4711 C   0  0  0  0  0  0  0  0  0  0  0  0
  -28.6205  -13.3136   20.8607 C   0  0  0  0  0  0  0  0  0  0  0  0
  -27.1749  -18.8935   31.3588 C   0  0  1  0  0  0  0  0  0  0  0  0
  -25.7825  -22.1277   29.9325 C   0  0  1  0  0  0  0  0  0  0  0  0
  -27.6446  -13.1380   19.6846 C   0  0  2  0  0  0  0  0  0  0  0  0
  -34.6961  -21.9779   23.5291 C   0  0  0  0  0  0  0  0  0  0  0  0
  -20.5938  -25.7929   25.5001 C   0  0  0  0  0  0  0  0  0  0  0  0
  -32.2199  -23.8665   23.3868 C   0  0  0  0  0  0  0  0  0  0  0  0
  -29.3406  -17.0103   24.0505 C   0  0  0  0  0  0  0  0  0  0  0  0
  -28.5058  -18.0919   22.0127 C   0  0  0  0  0  0  0  0  0  0  0  0
  -22.9857  -19.8186   27.0678 C   0  0  0  0  0  0  0  0  0  0  0  0
  -21.5727  -21.2367   25.5642 C   0  0  0  0  0  0  0  0  0  0  0  0
  -21.0192  -21.0584   27.9900 C   0  0  0  0  0  0  0  0  0  0  0  0
  -32.1005  -16.4834   22.6253 C   0  0  0  0  0  0  0  0  0  0  0  0
  -31.2379  -17.6171   20.5932 C   0  0  0  0  0  0  0  0  0  0  0  0
  -23.6240  -27.3406   27.2026 C   0  0  0  0  0  0  0  0  0  0  0  0
  -33.8776  -22.4934   24.7096 C   0  0  0  0  0  0  0  0  0  0  0  0
  -31.7052  -23.2182   25.7487 C   0  0  0  0  0  0  0  0  0  1  0  0
  -23.0452  -22.3914   27.2757 C   0  0  1  0  0  0  0  0  0  0  0  0
  -21.7354  -25.8636   26.5023 C   0  0  2  0  0  0  0  0  0  0  0  0
  -32.3584  -22.7238   24.4248 C   0  0  2  0  0  0  0  0  0  0  0  0
  -29.8525  -17.8446   22.8077 C   0  0  0  0  0  0  0  0  0  0  0  0
  -22.1833  -21.1321   26.9780 C   0  0  0  0  0  0  0  0  0  0  0  0
  -30.8072  -16.8988   21.8928 C   0  0  0  0  0  0  0  0  0  0  0  0
  -31.1152  -19.1110   24.4308 N   0  0  0  0  0  0  0  0  0  0  0  0
  -30.4191  -20.1505   22.3711 N   0  0  0  0  0  0  0  0  0  0  0  0
  -25.8596  -11.5451   20.2835 N   0  0  0  0  0  0  0  0  0  0  0  0
  -26.2352  -12.8290   20.1544 N   0  0  0  0  0  0  0  0  0  0  0  0
  -25.0928  -22.3782   28.6653 N   0  0  0  0  0  0  0  0  0  0  0  0
  -29.9707  -13.6121   20.3578 N   0  0  0  0  0  0  0  0  0  0  0  0
  -25.4672  -15.0559   20.4033 N   0  0  0  0  0  0  0  0  0  0  0  0
  -21.8862  -12.5787   21.6019 N   0  0  0  0  0  0  0  0  0  0  0  0
  -26.7482  -20.2566   31.1259 N   0  0  0  0  0  0  0  0  0  0  0  0
  -22.3052  -23.6477   27.2244 N   0  0  0  0  0  0  0  0  0  0  0  0
  -30.1426  -15.6764   21.4992 N   0  0  0  0  0  0  0  0  0  0  0  0
  -22.4863  -27.1299   26.2708 N   0  3  0  0  0  0  0  0  0  0  0  0
  -22.6596  -14.7191   21.3204 O   0  0  0  0  0  0  0  0  0  0  0  0
  -25.8896  -19.9696   28.9805 O   0  0  0  0  0  0  0  0  0  0  0  0
  -22.9792  -22.2686   29.6436 O   0  0  0  0  0  0  0  0  0  0  0  0
  -23.6059  -24.6421   25.5823 O   0  0  0  0  0  0  0  0  0  0  0  0
  -31.8763  -14.9244   20.2009 O   0  0  0  0  0  0  0  0  0  0  0  0
  -21.6179   -7.0153   21.7112 O   0  0  0  0  0  0  0  0  0  0  0  0
  -30.3132  -23.4747   25.5672 O   0  0  0  0  0  0  0  0  0  1  0  0
  -18.6345   -6.8548   26.3455 F   0  0  0  0  0  0  0  0  0  0  0  0
  -22.0730   -5.0723   23.6244 F   0  0  0  0  0  0  0  0  0  0  0  0
  1  2  1  0  0  0  0
  1  5  2  0  0  0  0
  2  6  2  0  0  0  0
  3  8  2  0  0  0  0
  3 17  1  0  0  0  0
  4  9  1  0  0  0  0
  4 17  2  0  0  0  0
  5 19  1  0  0  0  0
  6 21  1  0  0  0  0
  7 10  2  0  0  0  0
  7 20  1  0  0  0  0
  8 24  1  0  0  0  0
  9 24  2  0  0  0  0
 10 25  1  0  0  0  0
 11 12  2  0  0  0  0
 11 26  1  0  0  0  0
 12 27  1  0  0  0  0
 13 22  1  0  0  0  0
 13 25  2  0  0  0  0
 14 27  2  0  0  0  0
 14 28  1  0  0  0  0
 15 23  1  0  0  0  0
 15 68  2  0  0  0  0
 16 23  2  0  0  0  0
 16 69  1  0  0  0  0
 17 29  1  0  0  0  0
 18 29  1  0  0  0  0
 18 30  2  0  0  0  0
 18 32  1  0  0  0  0
 19 21  2  0  0  0  0
 19 37  1  0  0  0  0
 20 22  2  0  0  0  0
 20 38  1  0  0  0  0
 21 46  1  0  0  0  0
 22 39  1  0  0  0  0
 23 64  1  0  0  0  0
 24 85  1  0  0  0  0
 25 86  1  0  0  0  0
 26 28  2  0  0  0  0
 26 85  1  0  0  0  0
 27 87  1  0  0  0  0
 28 88  1  0  0  0  0
 29 70  2  0  0  0  0
 30 71  1  0  0  0  0
 30 74  1  0  0  0  0
 31 65  1  0  0  0  0
 31 68  1  0  0  0  0
 31 69  2  0  0  0  0
 32 75  1  0  0  0  0
 32 80  2  0  0  0  0
 33 47  1  0  0  0  0
 33 76  1  0  0  0  0
 33 81  2  0  0  0  0
 34 62  1  0  0  0  0
 34 72  1  0  0  0  0
 34 82  2  0  0  0  0
 35 63  1  0  0  0  0
 35 77  1  0  0  0  0
 35 83  2  0  0  0  0
 36 73  1  0  0  0  0
 36 78  1  0  0  0  0
 36 84  2  0  0  0  0
 37 40  1  0  0  0  0
 38 47  1  0  0  0  0
 39 72  1  0  0  0  0
 40 42  1  0  0  0  0
 41 43  1  0  0  0  0
 41 44  1  0  0  0  0
 42 46  1  0  0  0  0
 43 48  1  0  0  0  0
 44 73  1  0  0  0  0
 45 48  1  0  0  0  0
 45 73  1  0  0  0  0
 46 76  1  0  0  0  0
 47 72  1  0  0  0  0
 48 71  1  0  0  0  0
 49 60  1  0  0  0  0
 50 63  1  0  0  0  0
 51 64  1  0  0  0  0
 52 65  1  0  0  0  0
 53 65  1  0  0  0  0
 54 66  1  0  0  0  0
 55 66  1  0  0  0  0
 56 66  1  0  0  0  0
 57 67  1  0  0  0  0
 58 67  1  0  0  0  0
 59 79  1  0  0  0  0
 60 64  1  0  0  0  0
 61 64  1  0  0  0  0
 61 86  1  0  0  0  0
 62 66  1  0  0  0  0
 62 77  1  0  0  0  0
 63 79  1  0  0  0  0
 65 67  1  0  0  0  0
 67 78  1  0  0  0  0
 70 71  1  0  0  0  0
M  CHG  1  79   1
M  ISO  4  36 100  61 101  78 100  86 101
M  END
> <Batch ID>
0068

> <Smiles>
CCC(C)(c1cnc(C(C)(C)C(C)(C)[100NH:0][100C:0](=O)N2CCCC(n3nc(-c4ccc(Oc5ccc(F)cc5F)cc4)c(C(N)=O)c3N)C2)nc1)[101CH2:1][101O:1]c1ccc2c(c1)CN(C(=O)C(NC(=O)C(C)NC)C(C)(C)C)C(C(=O)NC1CCCc3ccccc31)C2

> <Shape>
0.175

> <Color>
0.176

> <Negative vol penalty>
0.000

$$$$

  -OEChem-04052318143D

 93101  0     1  0  0  0  0  0999 V2000
  -30.3756  -35.7571   21.0576 C   0  0  0  0  0  0  0  0  0  0  0  0
  -30.3898  -34.4016   20.7449 C   0  0  0  0  0  0  0  0  0  0  0  0
  -28.5368  -11.8794   18.8765 C   0  0  0  0  0  0  0  0  0  0  0  0
  -28.7985  -13.3042   20.8100 C   0  0  0  0  0  0  0  0  0  0  0  0
  -29.5175  -36.2339   22.0476 C   0  0  0  0  0  0  0  0  0  0  0  0
  -29.5466  -33.5219   21.4228 C   0  0  0  0  0  0  0  0  0  0  0  0
  -26.8037  -28.5490   19.1309 C   0  0  0  0  0  0  0  0  0  0  0  0
  -29.6128  -12.5181   18.2602 C   0  0  0  0  0  0  0  0  0  0  0  0
  -29.8745  -13.9429   20.1937 C   0  0  0  0  0  0  0  0  0  0  0  0
  -27.1240  -27.1931   19.1831 C   0  0  0  0  0  0  0  0  0  0  0  0
  -32.9189  -15.7066   19.2774 C   0  0  0  0  0  0  0  0  0  0  0  0
  -34.0612  -15.9391   20.0432 C   0  0  0  0  0  0  0  0  0  0  0  0
  -25.6400  -26.9211   21.0654 C   0  0  0  0  0  0  0  0  0  0  0  0
  -34.2973  -13.5631   20.4123 C   0  0  0  0  0  0  0  0  0  0  0  0
  -28.1296  -12.2725   20.1514 C   0  0  0  0  0  0  0  0  0  0  0  0
  -27.0652  -10.4779   21.6190 C   0  0  0  0  0  0  0  0  0  0  0  0
  -28.6564  -35.3612   22.7313 C   0  0  0  0  0  0  0  0  0  0  0  0
  -25.9059  -29.1043   20.0540 C   0  0  0  0  0  0  0  0  0  0  0  0
  -28.6771  -33.9873   22.4238 C   0  0  0  0  0  0  0  0  0  0  0  0
  -25.3080  -28.2838   21.0212 C   0  0  0  0  0  0  0  0  0  0  0  0
  -30.2817  -13.5499   18.9187 C   0  0  0  0  0  0  0  0  0  0  0  0
  -26.5444  -26.3796   20.1522 C   0  0  0  0  0  0  0  0  0  0  0  0
  -32.4657  -14.4024   19.0790 C   0  0  0  0  0  0  0  0  0  0  0  0
  -34.7504  -14.8674   20.6107 C   0  0  0  0  0  0  0  0  0  0  0  0
  -33.1549  -13.3307   19.6465 C   0  0  0  0  0  0  0  0  0  0  0  0
  -27.0178  -11.6135   20.7884 C   0  0  0  0  0  0  0  0  0  0  0  0
  -25.7555  -10.2506   21.9648 C   0  0  0  0  0  0  0  0  0  0  0  0
  -24.4158  -16.2497   20.7850 C   0  0  0  0  0  0  0  0  0  0  0  0
  -22.7049  -15.6170   21.7998 C   0  0  0  0  0  0  0  0  0  0  0  0
  -28.1922   -9.6982   22.0405 C   0  0  0  0  0  0  0  0  0  0  0  0
  -26.0982  -31.3441   22.3013 C   0  0  0  0  0  0  0  0  0  0  0  0
  -22.8994  -30.8504   22.5178 C   0  0  0  0  0  0  0  0  0  0  0  0
  -20.9849  -13.8952   22.2297 C   0  0  0  0  0  0  0  0  0  0  0  0
  -20.2515  -28.7545   22.0253 C   0  0  0  0  0  0  0  0  0  0  0  0
  -27.7804  -35.9158   23.8266 C   0  0  0  0  0  0  0  0  0  0  0  0
  -25.5503  -30.5633   19.9676 C   0  0  0  0  0  0  0  0  0  0  0  0
  -24.3226  -28.8269   22.0225 C   0  0  0  0  0  0  0  0  0  0  0  0
  -26.6500  -34.9757   24.2373 C   0  0  0  0  0  0  0  0  0  0  0  0
  -21.2942  -10.8503   20.3661 C   0  0  0  0  0  0  0  0  0  0  0  0
  -27.1778  -33.5572   24.4270 C   0  0  0  0  0  0  0  0  0  0  0  0
  -22.8029  -10.6128   20.3143 C   0  0  0  0  0  0  0  0  0  0  0  0
  -20.9608  -12.3378   20.3092 C   0  0  0  0  0  0  0  0  0  0  0  0
  -23.1469  -12.9171   21.3128 C   0  0  0  0  0  0  0  0  0  0  0  0
  -27.7595  -33.0056   23.1198 C   0  0  1  0  0  0  0  0  0  0  0  0
  -25.0168  -31.1271   21.2809 C   0  0  1  0  0  0  0  0  0  0  0  0
  -23.5285  -11.4287   21.3989 C   0  0  2  0  0  0  0  0  0  0  0  0
  -20.5005  -17.5153   19.9286 C   0  0  0  0  0  0  0  0  0  0  0  0
  -17.7649  -28.6160   22.3338 C   0  0  0  0  0  0  0  0  0  0  0  0
  -28.9856  -20.2126   23.6309 C   0  0  0  0  0  0  0  0  0  0  0  0
  -26.4944  -20.1873   23.3242 C   0  0  0  0  0  0  0  0  0  0  0  0
  -20.6308  -16.1701   23.0977 C   0  0  0  0  0  0  0  0  0  0  0  0
  -22.2702  -14.5998   24.1372 C   0  0  0  0  0  0  0  0  0  0  0  0
  -23.2982  -30.3975   25.5087 C   0  0  0  0  0  0  0  0  0  0  0  0
  -21.0236  -29.3540   25.5831 C   0  0  0  0  0  0  0  0  0  0  0  0
  -21.2758  -31.7450   24.9182 C   0  0  0  0  0  0  0  0  0  0  0  0
  -28.6846  -17.4249   21.9844 C   0  0  0  0  0  0  0  0  0  0  0  0
  -28.2630  -17.8772   19.5956 C   0  0  0  0  0  0  0  0  0  0  0  0
  -19.7932  -28.4187   19.1208 C   0  0  0  0  0  0  0  0  0  0  0  0
  -25.8668  -16.5601   20.5037 C   0  0  0  0  0  0  0  0  0  0  0  0
  -26.3016  -17.8647   21.1923 C   0  0  0  0  0  0  0  0  0  0  0  0
  -27.5731  -22.1634   20.1634 C   0  0  0  0  0  0  0  0  0  0  0  0
  -26.8603  -22.9318   19.0416 C   0  0  0  0  0  0  0  0  0  0  0  0
  -27.2695  -20.6573   20.1463 C   0  0  0  0  0  0  0  0  0  0  0  0
  -21.0698  -16.1070   19.9425 C   0  0  0  0  0  0  0  0  0  0  0  0
  -27.1993  -24.4168   18.9797 C   0  0  0  0  0  0  0  0  0  1  0  0
  -22.0116  -29.9297   23.3197 C   0  0  1  0  0  0  0  0  0  0  0  0
  -18.8946  -28.9796   21.3828 C   0  0  2  0  0  0  0  0  0  0  0  0
  -27.8346  -20.4721   22.6498 C   0  0  0  0  0  0  0  0  0  0  0  0
  -28.0432  -19.8314   21.2273 C   0  0  1  0  0  0  0  0  0  0  0  0
  -21.7156  -15.1016   22.7631 C   0  0  0  0  0  0  0  0  0  0  0  0
  -21.9223  -30.3464   24.8149 C   0  0  0  0  0  0  0  0  0  0  0  0
  -27.8051  -18.2590   21.0341 C   0  0  0  0  0  0  0  0  0  0  0  0
  -25.7764  -12.0753   20.6166 N   0  0  0  0  0  0  0  0  0  0  0  0
  -24.0006  -15.7304   21.9778 N   0  0  0  0  0  0  0  0  0  0  0  0
  -23.4584  -16.4647   19.8802 N   0  0  0  0  0  0  0  0  0  0  0  0
  -25.0315  -11.2257   21.3442 N   0  0  0  0  0  0  0  0  0  0  0  0
  -22.3743  -16.0518   20.5542 N   0  0  0  0  0  0  0  0  0  0  0  0
  -24.0121  -30.2609   21.9011 N   0  0  0  0  0  0  0  0  0  0  0  0
  -21.6868  -13.0810   21.3406 N   0  0  0  0  0  0  0  0  0  0  0  0
  -25.1641   -9.3138   22.7362 N   0  0  0  0  0  0  0  0  0  0  0  0
  -29.4671  -10.0705   21.5927 N   0  0  0  0  0  0  0  0  0  0  0  0
  -26.6971  -32.5873   22.2306 N   0  0  0  0  0  0  0  0  0  0  0  0
  -20.7264  -29.8991   22.6301 N   0  0  0  0  0  0  0  0  0  0  0  0
  -18.7596  -28.1486   20.1531 N   0  3  0  0  0  0  0  0  0  0  0  0
  -28.0705   -8.6913   22.7786 O   0  0  0  0  0  0  0  0  0  0  0  0
  -26.3681  -30.4503   23.0950 O   0  0  0  0  0  0  0  0  0  0  0  0
  -22.6122  -32.0472   22.4355 O   0  0  0  0  0  0  0  0  0  0  0  0
  -19.8259  -13.6828   22.5957 O   0  0  0  0  0  0  0  0  0  0  0  0
  -20.8304  -27.6708   21.9970 O   0  0  0  0  0  0  0  0  0  0  0  0
  -31.3318  -14.1732   18.3177 O   0  0  0  0  0  0  0  0  0  0  0  0
  -26.8582  -25.0457   20.2062 O   0  0  0  0  0  0  0  0  0  1  0  0
  -35.8483  -15.0907   21.3449 F   0  0  0  0  0  0  0  0  0  0  0  0
  -32.7250  -12.0754   19.4584 F   0  0  0  0  0  0  0  0  0  0  0  0
  1  2  1  0  0  0  0
  1  5  2  0  0  0  0
  2  6  2  0  0  0  0
  3  8  2  0  0  0  0
  3 15  1  0  0  0  0
  4  9  1  0  0  0  0
  4 15  2  0  0  0  0
  5 17  1  0  0  0  0
  6 19  1  0  0  0  0
  7 10  2  0  0  0  0
  7 18  1  0  0  0  0
  8 21  1  0  0  0  0
  9 21  2  0  0  0  0
 10 22  1  0  0  0  0
 11 12  2  0  0  0  0
 11 23  1  0  0  0  0
 12 24  1  0  0  0  0
 13 20  1  0  0  0  0
 13 22  2  0  0  0  0
 14 24  2  0  0  0  0
 14 25  1  0  0  0  0
 15 26  1  0  0  0  0
 16 26  1  0  0  0  0
 16 27  2  0  0  0  0
 16 30  1  0  0  0  0
 17 19  2  0  0  0  0
 17 35  1  0  0  0  0
 18 20  2  0  0  0  0
 18 36  1  0  0  0  0
 19 44  1  0  0  0  0
 20 37  1  0  0  0  0
 21 90  1  0  0  0  0
 22 91  1  0  0  0  0
 23 25  2  0  0  0  0
 23 90  1  0  0  0  0
 24 92  1  0  0  0  0
 25 93  1  0  0  0  0
 26 73  2  0  0  0  0
 27 76  1  0  0  0  0
 27 80  1  0  0  0  0
 28 59  1  0  0  0  0
 28 74  1  0  0  0  0
 28 75  2  0  0  0  0
 29 70  1  0  0  0  0
 29 74  2  0  0  0  0
 29 77  1  0  0  0  0
 30 81  1  0  0  0  0
 30 85  2  0  0  0  0
 31 45  1  0  0  0  0
 31 82  1  0  0  0  0
 31 86  2  0  0  0  0
 32 66  1  0  0  0  0
 32 78  1  0  0  0  0
 32 87  2  0  0  0  0
 33 70  1  0  0  0  0
 33 79  1  0  0  0  0
 33 88  2  0  0  0  0
 34 67  1  0  0  0  0
 34 83  1  0  0  0  0
 34 89  2  0  0  0  0
 35 38  1  0  0  0  0
 36 45  1  0  0  0  0
 37 78  1  0  0  0  0
 38 40  1  0  0  0  0
 39 41  1  0  0  0  0
 39 42  1  0  0  0  0
 40 44  1  0  0  0  0
 41 46  1  0  0  0  0
 42 79  1  0  0  0  0
 43 46  1  0  0  0  0
 43 79  1  0  0  0  0
 44 82  1  0  0  0  0
 45 78  1  0  0  0  0
 46 76  1  0  0  0  0
 47 64  1  0  0  0  0
 48 67  1  0  0  0  0
 49 68  1  0  0  0  0
 50 68  1  0  0  0  0
 51 70  1  0  0  0  0
 52 70  1  0  0  0  0
 53 71  1  0  0  0  0
 54 71  1  0  0  0  0
 55 71  1  0  0  0  0
 56 72  1  0  0  0  0
 57 72  1  0  0  0  0
 58 84  1  0  0  0  0
 59 60  1  0  0  0  0
 60 72  1  0  0  0  0
 61 62  1  0  0  0  0
 61 63  1  0  0  0  0
 62 65  1  0  0  0  0
 63 69  1  0  0  0  0
 64 77  1  0  0  0  0
 65 91  1  0  0  0  0
 66 71  1  0  0  0  0
 66 83  1  0  0  0  0
 67 84  1  0  0  0  0
 68 69  1  0  0  0  0
 69 72  1  0  0  0  0
 73 76  1  0  0  0  0
 75 77  1  0  0  0  0
M  CHG  1  84   1
M  ISO  4  33 100  65 101  70 100  91 101
M  END
> <Batch ID>
0068

> <Smiles>
CCn1nc(CCC(C)(C)C(CCC[101CH2:1][101O:1]c2ccc3c(c2)CN(C(=O)C(NC(=O)C(C)NC)C(C)(C)C)C(C(=O)NC2CCCc4ccccc42)C3)C(C)C)nc1[100C:0](C)(C)[100C:0](=O)N1CCCC(n2nc(-c3ccc(Oc4ccc(F)cc4F)cc3)c(C(N)=O)c2N)C1

> <Shape>
0.261

> <Color>
0.069

> <Negative vol penalty>
0.000

$$$$

  -OEChem-04052318143D

 97106  0     1  0  0  0  0  0999 V2000
  -28.9807  -25.2348   25.9971 C   0  0  0  0  0  0  0  0  0  0  0  0
  -28.3801  -25.2193   24.7423 C   0  0  0  0  0  0  0  0  0  0  0  0
  -26.8733  -11.6173   20.5602 C   0  0  0  0  0  0  0  0  0  0  0  0
  -25.8026  -13.7767   20.7262 C   0  0  0  0  0  0  0  0  0  0  0  0
  -28.3841  -25.9339   27.0456 C   0  0  0  0  0  0  0  0  0  0  0  0
  -27.1819  -25.9019   24.5356 C   0  0  0  0  0  0  0  0  0  0  0  0
  -27.1850  -28.5725   20.2329 C   0  0  0  0  0  0  0  0  0  0  0  0
  -25.7702  -11.0231   21.1731 C   0  0  0  0  0  0  0  0  0  0  0  0
  -24.6994  -13.1825   21.3390 C   0  0  0  0  0  0  0  0  0  0  0  0
  -26.9805  -27.8690   19.0467 C   0  0  0  0  0  0  0  0  0  0  0  0
  -22.6554  -10.0477   20.2902 C   0  0  0  0  0  0  0  0  0  0  0  0
  -22.1599   -8.8696   19.7316 C   0  0  0  0  0  0  0  0  0  0  0  0
  -24.6698  -28.5617   19.0414 C   0  0  0  0  0  0  0  0  0  0  0  0
  -22.5847   -7.7071   21.8065 C   0  0  0  0  0  0  0  0  0  0  0  0
  -26.2510  -19.1828   19.8401 C   0  0  0  0  0  0  0  0  0  0  0  0
  -26.8895  -12.9941   20.3368 C   0  0  0  0  0  0  0  0  0  0  0  0
  -28.5405  -13.3332   18.4219 C   0  0  0  0  0  0  0  0  0  0  0  0
  -27.1830  -26.6335   26.8491 C   0  0  0  0  0  0  0  0  0  0  0  0
  -26.1290  -29.2681   20.8390 C   0  0  0  0  0  0  0  0  0  0  0  0
  -26.5680  -26.6099   25.5828 C   0  0  0  0  0  0  0  0  0  0  0  0
  -24.8642  -29.2754   20.2339 C   0  0  0  0  0  0  0  0  0  0  0  0
  -24.6832  -11.8057   21.5625 C   0  0  0  0  0  0  0  0  0  0  0  0
  -25.7221  -27.8612   18.4523 C   0  0  0  0  0  0  0  0  0  0  0  0
  -23.1156  -10.0556   21.6070 C   0  0  0  0  0  0  0  0  0  0  0  0
  -22.1246   -7.6993   20.4897 C   0  0  0  0  0  0  0  0  0  0  0  0
  -23.0802   -8.8853   22.3651 C   0  0  0  0  0  0  0  0  0  0  0  0
  -28.0290  -13.6085   19.7042 C   0  0  0  0  0  0  0  0  0  0  0  0
  -25.1486  -20.0527   19.7409 C   0  0  0  0  0  0  0  0  0  0  0  0
  -27.1338  -19.8397   20.6621 C   0  0  0  0  0  0  0  0  0  0  0  0
  -29.6186  -14.1746   18.2943 C   0  0  0  0  0  0  0  0  0  0  0  0
  -28.0821  -12.4004   17.4342 C   0  0  0  0  0  0  0  0  0  0  0  0
  -24.6186  -29.0663   23.6286 C   0  0  0  0  0  0  0  0  0  0  0  0
  -23.1384  -31.7552   22.5792 C   0  0  0  0  0  0  0  0  0  0  0  0
  -30.9682  -19.3969   20.9435 C   0  0  0  0  0  0  0  0  0  0  0  0
  -22.1787  -33.6911   19.9376 C   0  0  0  0  0  0  0  0  0  0  0  0
  -26.5512  -27.3357   28.0249 C   0  0  0  0  0  0  0  0  0  0  0  0
  -26.3726  -30.0441   22.1043 C   0  0  0  0  0  0  0  0  0  0  0  0
  -23.7024  -30.0230   20.8337 C   0  0  0  0  0  0  0  0  0  0  0  0
  -25.4761  -28.3435   27.6266 C   0  0  0  0  0  0  0  0  0  0  0  0
  -32.9552  -16.4158   20.8754 C   0  0  0  0  0  0  0  0  0  0  0  0
  -24.5303  -27.7357   26.5957 C   0  0  0  0  0  0  0  0  0  0  0  0
  -31.9576  -15.3284   20.4786 C   0  0  0  0  0  0  0  0  0  0  0  0
  -24.5030  -22.0715   15.8058 C   0  0  0  0  0  0  0  0  0  0  0  0
  -25.6847  -22.4382   18.0139 C   0  0  0  0  0  0  0  0  0  0  0  0
  -25.6668  -22.7428   15.0715 C   0  0  0  0  0  0  0  0  0  0  0  0
  -26.8486  -23.1093   17.2797 C   0  0  0  0  0  0  0  0  0  0  0  0
  -32.3025  -17.4790   21.7532 C   0  0  0  0  0  0  0  0  0  0  0  0
  -30.0878  -17.0180   20.7511 C   0  0  0  0  0  0  0  0  0  0  0  0
  -25.2810  -27.3588   25.3128 C   0  0  1  0  0  0  0  0  0  0  0  0
  -25.0993  -30.2934   22.9068 C   0  0  1  0  0  0  0  0  0  0  0  0
  -30.6989  -15.9401   19.8383 C   0  0  2  0  0  0  0  0  0  0  0  0
  -24.9132  -21.4212   17.1449 C   0  0  0  0  0  0  0  0  0  0  0  0
  -26.4386  -23.7595   15.9405 C   0  0  0  0  0  0  0  0  0  0  0  0
  -25.7707  -20.1649   16.8947 C   0  0  0  0  0  0  0  0  0  0  0  0
  -27.7091  -24.1978   15.1877 C   0  0  0  0  0  0  0  0  0  0  0  0
  -22.5807  -18.8351   21.0031 C   0  0  0  0  0  0  0  0  0  0  0  0
  -26.1555  -22.3538   23.0245 C   0  0  0  0  0  0  0  0  0  0  0  0
  -20.9508  -35.8105   19.3919 C   0  0  0  0  0  0  0  0  0  0  0  0
  -25.1915  -25.6533   14.8631 C   0  0  0  0  0  0  0  0  0  0  0  0
  -23.8086  -18.4866   18.1740 C   0  0  0  0  0  0  0  0  0  0  0  0
  -29.7878  -21.4100   20.1933 C   0  0  0  0  0  0  0  0  0  0  0  0
  -29.6294  -19.3002   18.8620 C   0  0  0  0  0  0  0  0  0  0  0  0
  -20.4825  -30.3511   23.1130 C   0  0  0  0  0  0  0  0  0  0  0  0
  -19.3612  -32.0844   21.6966 C   0  0  0  0  0  0  0  0  0  0  0  0
  -20.5436  -32.7586   23.7870 C   0  0  0  0  0  0  0  0  0  0  0  0
  -24.5737  -34.8918   18.6801 C   0  0  0  0  0  0  0  0  0  0  0  0
  -28.4710  -19.4562   21.1506 C   0  0  0  0  0  0  0  0  0  0  0  0
  -23.6426  -20.9830   17.8977 C   0  0  0  0  0  0  0  0  0  0  0  0
  -22.6020  -19.8802   19.8910 C   0  0  0  0  0  0  0  0  0  0  0  0
  -27.0621  -22.0570   21.8423 C   0  0  0  0  0  0  0  0  0  0  0  0
  -26.3215  -26.0161   17.0766 C   0  0  0  0  0  0  0  0  0  1  0  0
  -21.8957  -32.0461   21.7729 C   0  0  1  0  0  0  0  0  0  0  0  0
  -22.3048  -35.1823   19.6833 C   0  0  2  0  0  0  0  0  0  0  0  0
  -25.5813  -25.0160   16.1909 C   0  0  2  0  0  0  0  0  0  0  0  0
  -23.8478  -19.8353   18.9381 C   0  0  2  0  0  0  0  0  0  0  0  0
  -29.7018  -19.8775   20.2807 C   0  0  0  0  0  0  0  0  0  0  0  0
  -20.5920  -31.7943   22.5819 C   0  0  0  0  0  0  0  0  0  0  0  0
  -28.7250  -14.5510   20.3455 N   0  0  0  0  0  0  0  0  0  0  0  0
  -25.3136  -21.1764   20.4439 N   0  0  0  0  0  0  0  0  0  0  0  0
  -26.5299  -21.0171   20.9927 N   0  0  0  0  0  0  0  0  0  0  0  0
  -29.6849  -14.8752   19.4626 N   0  0  0  0  0  0  0  0  0  0  0  0
  -23.9892  -30.7616   22.0746 N   0  0  0  0  0  0  0  0  0  0  0  0
  -31.0981  -18.0193   21.1201 N   0  0  0  0  0  0  0  0  0  0  0  0
  -30.5069  -14.3761   17.2979 N   0  0  0  0  0  0  0  0  0  0  0  0
  -27.1354  -12.8326   16.4955 N   0  0  0  0  0  0  0  0  0  0  0  0
  -25.5388  -28.5373   24.5134 N   0  0  0  0  0  0  0  0  0  0  0  0
  -22.0390  -33.4120   21.2807 N   0  0  0  0  0  0  0  0  0  0  0  0
  -23.2005  -35.4354   18.5195 N   0  3  0  0  0  0  0  0  0  0  0  0
  -28.4874  -11.2139   17.3958 O   0  0  0  0  0  0  0  0  0  0  0  0
  -23.4954  -28.6325   23.4008 O   0  0  0  0  0  0  0  0  0  0  0  0
  -23.3501  -32.3912   23.6147 O   0  0  0  0  0  0  0  0  0  0  0  0
  -31.8168  -20.2226   21.2906 O   0  0  0  0  0  0  0  0  0  0  0  0
  -22.1981  -32.8574   19.0347 O   0  0  0  0  0  0  0  0  0  0  0  0
  -23.6065  -11.2263   22.1604 O   0  0  0  0  0  0  0  0  0  0  0  0
  -25.5181  -27.1698   17.2866 O   0  0  0  0  0  0  0  0  0  1  0  0
  -21.6473   -6.5683   19.9537 F   0  0  0  0  0  0  0  0  0  0  0  0
  -23.5199   -8.8870   23.6310 F   0  0  0  0  0  0  0  0  0  0  0  0
  1  2  1  0  0  0  0
  1  5  2  0  0  0  0
  2  6  2  0  0  0  0
  3  8  2  0  0  0  0
  3 16  1  0  0  0  0
  4  9  1  0  0  0  0
  4 16  2  0  0  0  0
  5 18  1  0  0  0  0
  6 20  1  0  0  0  0
  7 10  2  0  0  0  0
  7 19  1  0  0  0  0
  8 22  1  0  0  0  0
  9 22  2  0  0  0  0
 10 23  1  0  0  0  0
 11 12  2  0  0  0  0
 11 24  1  0  0  0  0
 12 25  1  0  0  0  0
 13 21  1  0  0  0  0
 13 23  2  0  0  0  0
 14 25  2  0  0  0  0
 14 26  1  0  0  0  0
 15 28  1  0  0  0  0
 15 29  2  0  0  0  0
 16 27  1  0  0  0  0
 17 27  1  0  0  0  0
 17 30  2  0  0  0  0
 17 31  1  0  0  0  0
 18 20  2  0  0  0  0
 18 36  1  0  0  0  0
 19 21  2  0  0  0  0
 19 37  1  0  0  0  0
 20 49  1  0  0  0  0
 21 38  1  0  0  0  0
 22 94  1  0  0  0  0
 23 95  1  0  0  0  0
 24 26  2  0  0  0  0
 24 94  1  0  0  0  0
 25 96  1  0  0  0  0
 26 97  1  0  0  0  0
 27 78  2  0  0  0  0
 28 75  1  0  0  0  0
 28 79  2  0  0  0  0
 29 67  1  0  0  0  0
 29 80  1  0  0  0  0
 30 81  1  0  0  0  0
 30 84  1  0  0  0  0
 31 85  1  0  0  0  0
 31 89  2  0  0  0  0
 32 50  1  0  0  0  0
 32 86  1  0  0  0  0
 32 90  2  0  0  0  0
 33 72  1  0  0  0  0
 33 82  1  0  0  0  0
 33 91  2  0  0  0  0
 34 76  1  0  0  0  0
 34 83  1  0  0  0  0
 34 92  2  0  0  0  0
 35 73  1  0  0  0  0
 35 87  1  0  0  0  0
 35 93  2  0  0  0  0
 36 39  1  0  0  0  0
 37 50  1  0  0  0  0
 38 82  1  0  0  0  0
 39 41  1  0  0  0  0
 40 42  1  0  0  0  0
 40 47  1  0  0  0  0
 41 49  1  0  0  0  0
 42 51  1  0  0  0  0
 43 45  1  0  0  0  0
 43 52  1  0  0  0  0
 44 46  1  0  0  0  0
 44 52  1  0  0  0  0
 45 53  1  0  0  0  0
 46 53  1  0  0  0  0
 47 83  1  0  0  0  0
 48 51  1  0  0  0  0
 48 83  1  0  0  0  0
 49 86  1  0  0  0  0
 50 82  1  0  0  0  0
 51 81  1  0  0  0  0
 52 54  1  0  0  0  0
 52 68  1  0  0  0  0
 53 55  1  0  0  0  0
 53 74  1  0  0  0  0
 56 69  1  0  0  0  0
 57 70  1  0  0  0  0
 58 73  1  0  0  0  0
 59 74  1  0  0  0  0
 60 75  1  0  0  0  0
 61 76  1  0  0  0  0
 62 76  1  0  0  0  0
 63 77  1  0  0  0  0
 64 77  1  0  0  0  0
 65 77  1  0  0  0  0
 66 88  1  0  0  0  0
 67 76  1  0  0  0  0
 68 75  1  0  0  0  0
 69 75  1  0  0  0  0
 70 80  1  0  0  0  0
 71 74  1  0  0  0  0
 71 95  1  0  0  0  0
 72 77  1  0  0  0  0
 72 87  1  0  0  0  0
 73 88  1  0  0  0  0
 78 81  1  0  0  0  0
 79 80  1  0  0  0  0
M  CHG  1  88   1
M  ISO  4  34 100  71 101  76 100  95 101
M  END
> <Batch ID>
0068

> <Smiles>
CCn1nc(C(C)(CC)CC2(C)CCC(C)(C(C)[101CH2:1][101O:1]c3ccc4c(c3)CN(C(=O)C(NC(=O)C(C)NC)C(C)(C)C)C(C(=O)NC3CCCc5ccccc53)C4)CC2)cc1C[100C:0](C)(C)[100C:0](=O)N1CCCC(n2nc(-c3ccc(Oc4ccc(F)cc4F)cc3)c(C(N)=O)c2N)C1

> <Shape>
0.220

> <Color>
0.086

> <Negative vol penalty>
0.000

$$$$

  -OEChem-04052318143D

 89 97  0     1  0  0  0  0  0999 V2000
  -17.8358  -12.8312   24.0667 C   0  0  0  0  0  0  0  0  0  0  0  0
  -18.2980  -14.0059   23.4819 C   0  0  0  0  0  0  0  0  0  0  0  0
  -29.1939  -25.6716   22.1070 C   0  0  0  0  0  0  0  0  0  0  0  0
  -27.2344  -24.2604   22.0295 C   0  0  0  0  0  0  0  0  0  0  0  0
  -18.7434  -11.9016   24.5725 C   0  0  0  0  0  0  0  0  0  0  0  0
  -19.6683  -14.2522   23.4037 C   0  0  0  0  0  0  0  0  0  0  0  0
  -22.6351  -17.1604   18.9042 C   0  0  0  0  0  0  0  0  0  0  0  0
  -29.8343  -24.7376   22.9213 C   0  0  0  0  0  0  0  0  0  0  0  0
  -27.8748  -23.3264   22.8438 C   0  0  0  0  0  0  0  0  0  0  0  0
  -23.0912  -18.4716   18.7757 C   0  0  0  0  0  0  0  0  0  0  0  0
  -29.1254  -20.4031   24.6068 C   0  0  0  0  0  0  0  0  0  0  0  0
  -29.0309  -19.0579   24.2504 C   0  0  0  0  0  0  0  0  0  0  0  0
  -25.2776  -17.7777   19.5224 C   0  0  0  0  0  0  0  0  0  0  0  0
  -30.0971  -19.5429   22.1373 C   0  0  0  0  0  0  0  0  0  0  0  0
  -18.4014  -27.6026   23.2145 C   0  0  0  0  0  0  0  0  0  0  0  0
  -27.8939  -25.4330   21.6611 C   0  0  0  0  0  0  0  0  0  0  0  0
  -27.2476  -26.4524   19.4137 C   0  0  0  0  0  0  0  0  0  0  0  0
  -20.1258  -12.1322   24.4918 C   0  0  0  0  0  0  0  0  0  0  0  0
  -23.4953  -16.1483   19.3539 C   0  0  0  0  0  0  0  0  0  0  0  0
  -20.5953  -13.3254   23.9102 C   0  0  0  0  0  0  0  0  0  0  0  0
  -24.8307  -16.4540   19.6532 C   0  0  0  0  0  0  0  0  0  0  0  0
  -29.1748  -23.5650   23.2897 C   0  0  0  0  0  0  0  0  0  0  0  0
  -24.4119  -18.7810   19.0876 C   0  0  0  0  0  0  0  0  0  0  0  0
  -29.7057  -21.3183   23.7285 C   0  0  0  0  0  0  0  0  0  0  0  0
  -29.5168  -18.6278   23.0156 C   0  0  0  0  0  0  0  0  0  0  0  0
  -30.1915  -20.8882   22.4937 C   0  0  0  0  0  0  0  0  0  0  0  0
  -27.2316  -26.3977   20.8203 C   0  0  0  0  0  0  0  0  0  0  0  0
  -19.5459  -27.6985   22.4539 C   0  0  0  0  0  0  0  0  0  0  0  0
  -18.7643  -25.3602   23.4780 C   0  0  0  0  0  0  0  0  0  0  0  0
  -19.9083  -25.4558   22.7167 C   0  0  0  0  0  0  0  0  0  0  0  0
  -26.4730  -27.5436   19.1038 C   0  0  0  0  0  0  0  0  0  0  0  0
  -27.9037  -25.5937   18.4715 C   0  0  0  0  0  0  0  0  0  0  0  0
  -23.5449  -14.1971   21.8626 C   0  0  0  0  0  0  0  0  0  0  0  0
  -26.0818  -12.9003   20.3120 C   0  0  0  0  0  0  0  0  0  0  0  0
  -28.6126  -13.2999   18.0575 C   0  0  0  0  0  0  0  0  0  0  0  0
  -22.0504  -30.3585   21.9964 C   0  0  0  0  0  0  0  0  0  0  0  0
  -21.0671  -11.1198   25.0950 C   0  0  0  0  0  0  0  0  0  0  0  0
  -22.9951  -14.7339   19.4615 C   0  0  0  0  0  0  0  0  0  0  0  0
  -25.7998  -15.4002   20.1207 C   0  0  0  0  0  0  0  0  0  0  0  0
  -22.5137  -11.2839   24.6360 C   0  0  0  0  0  0  0  0  0  0  0  0
  -25.1058  -31.7827   20.8505 C   0  0  0  0  0  0  0  0  0  0  0  0
  -22.9345  -12.7482   24.7105 C   0  0  0  0  0  0  0  0  0  0  0  0
  -25.9985  -30.5690   20.5859 C   0  0  0  0  0  0  0  0  0  0  0  0
  -24.2102  -31.5696   22.0689 C   0  0  0  0  0  0  0  0  0  0  0  0
  -24.2915  -29.1248   21.7688 C   0  0  0  0  0  0  0  0  0  0  0  0
  -22.0749  -13.6171   23.7844 C   0  0  1  0  0  0  0  0  0  0  0  0
  -23.8195  -13.8799   20.4199 C   0  0  1  0  0  0  0  0  0  0  0  0
  -25.1730  -29.2702   20.5165 C   0  0  2  0  0  0  0  0  0  0  0  0
  -17.1105  -22.9128   25.9640 C   0  0  0  0  0  0  0  0  0  0  0  0
  -19.7415  -28.2100   19.4595 C   0  0  0  0  0  0  0  0  0  0  0  0
  -30.5457  -12.0746   17.0284 C   0  0  0  0  0  0  0  0  0  0  0  0
  -27.6856  -13.2787   22.8800 C   0  0  0  0  0  0  0  0  0  0  0  0
  -29.7752  -12.9470   21.5414 C   0  0  0  0  0  0  0  0  0  0  0  0
  -28.0955  -11.1099   21.7041 C   0  0  0  0  0  0  0  0  0  0  0  0
  -27.4730  -13.5496   15.3376 C   0  0  0  0  0  0  0  0  0  0  0  0
  -18.3201  -24.0589   24.0536 C   0  0  0  0  0  0  0  0  0  0  0  0
  -20.7651  -24.2484   22.4300 C   0  0  0  0  0  0  0  0  0  0  0  0
  -17.5930  -24.2378   25.3953 C   0  0  0  0  0  0  0  0  0  0  0  0
  -19.3724  -29.2736   20.4864 C   0  0  0  0  0  0  0  0  0  0  0  0
  -21.8310  -24.4865   21.3544 C   0  0  0  0  0  0  0  0  0  0  0  0
  -22.6818  -23.2442   21.0680 C   0  0  0  0  0  0  0  0  0  0  0  0
  -23.7105  -23.5209   19.9684 C   0  0  0  0  0  0  0  0  0  0  0  0
  -24.6331  -22.3337   19.6907 C   0  0  0  0  0  0  0  0  0  0  0  0
  -23.9068  -21.1037   19.1628 C   0  0  0  0  0  0  0  0  0  1  0  0
  -19.9704  -29.0090   21.8898 C   0  0  2  0  0  0  0  0  0  0  0  0
  -27.5709  -13.1486   20.3039 C   0  0  1  0  0  0  0  0  0  0  0  0
  -29.0743  -12.4359   16.8979 C   0  0  2  0  0  0  0  0  0  0  0  0
  -28.2633  -12.6415   21.6004 C   0  0  0  0  0  0  0  0  0  0  0  0
  -17.9901  -26.4318   23.7403 N   0  0  0  0  0  0  0  0  0  0  0  0
  -26.5047  -27.3763   21.3662 N   0  0  0  0  0  0  0  0  0  0  0  0
  -20.3198  -26.6267   22.1913 N   0  0  0  0  0  0  0  0  0  0  0  0
  -26.0568  -28.0563   20.2971 N   0  0  0  0  0  0  0  0  0  0  0  0
  -25.2614  -14.0332   20.2159 N   0  0  0  0  0  0  0  0  0  0  0  0
  -23.4534  -30.3220   21.9397 N   0  0  0  0  0  0  0  0  0  0  0  0
  -26.1144  -28.1049   17.9296 N   0  0  0  0  0  0  0  0  0  0  0  0
  -28.6592  -24.5191   18.9603 N   0  0  0  0  0  0  0  0  0  0  0  0
  -22.5051  -13.4704   22.4105 N   0  0  0  0  0  0  0  0  0  0  0  0
  -28.0793  -12.5419   19.0785 N   0  0  0  0  0  0  0  0  0  0  0  0
  -21.4107  -29.1327   21.8590 N   0  0  0  0  0  0  0  0  0  0  0  0
  -28.8796  -13.1546   15.6069 N   0  3  0  0  0  0  0  0  0  0  0  0
  -27.8360  -25.7837   17.2335 O   0  0  0  0  0  0  0  0  0  0  0  0
  -24.2270  -15.0379   22.4368 O   0  0  0  0  0  0  0  0  0  0  0  0
  -25.6622  -11.7432   20.3931 O   0  0  0  0  0  0  0  0  0  0  0  0
  -28.7181  -14.5244   18.0592 O   0  0  0  0  0  0  0  0  0  0  0  0
  -21.4148  -31.4067   22.1523 O   0  0  0  0  0  0  0  0  0  0  0  0
  -29.7995  -22.6533   24.0842 O   0  0  0  0  0  0  0  0  0  0  0  0
  -24.8595  -20.0601   18.9637 O   0  0  0  0  0  0  0  0  0  1  0  0
  -29.4274  -17.3357   22.6741 F   0  0  0  0  0  0  0  0  0  0  0  0
  -30.7511  -21.7625   21.6462 F   0  0  0  0  0  0  0  0  0  0  0  0
  1  2  1  0  0  0  0
  1  5  2  0  0  0  0
  2  6  2  0  0  0  0
  3  8  2  0  0  0  0
  3 16  1  0  0  0  0
  4  9  1  0  0  0  0
  4 16  2  0  0  0  0
  5 18  1  0  0  0  0
  6 20  1  0  0  0  0
  7 10  2  0  0  0  0
  7 19  1  0  0  0  0
  8 22  1  0  0  0  0
  9 22  2  0  0  0  0
 10 23  1  0  0  0  0
 11 12  2  0  0  0  0
 11 24  1  0  0  0  0
 12 25  1  0  0  0  0
 13 21  1  0  0  0  0
 13 23  2  0  0  0  0
 14 25  2  0  0  0  0
 14 26  1  0  0  0  0
 15 28  1  0  0  0  0
 15 69  2  0  0  0  0
 16 27  1  0  0  0  0
 17 27  1  0  0  0  0
 17 31  2  0  0  0  0
 17 32  1  0  0  0  0
 18 20  2  0  0  0  0
 18 37  1  0  0  0  0
 19 21  2  0  0  0  0
 19 38  1  0  0  0  0
 20 46  1  0  0  0  0
 21 39  1  0  0  0  0
 22 86  1  0  0  0  0
 23 87  1  0  0  0  0
 24 26  2  0  0  0  0
 24 86  1  0  0  0  0
 25 88  1  0  0  0  0
 26 89  1  0  0  0  0
 27 70  2  0  0  0  0
 28 65  1  0  0  0  0
 28 71  2  0  0  0  0
 29 30  2  0  0  0  0
 29 56  1  0  0  0  0
 29 69  1  0  0  0  0
 30 57  1  0  0  0  0
 30 71  1  0  0  0  0
 31 72  1  0  0  0  0
 31 75  1  0  0  0  0
 32 76  1  0  0  0  0
 32 81  2  0  0  0  0
 33 47  1  0  0  0  0
 33 77  1  0  0  0  0
 33 82  2  0  0  0  0
 34 66  1  0  0  0  0
 34 73  1  0  0  0  0
 34 83  2  0  0  0  0
 35 67  1  0  0  0  0
 35 78  1  0  0  0  0
 35 84  2  0  0  0  0
 36 74  1  0  0  0  0
 36 79  1  0  0  0  0
 36 85  2  0  0  0  0
 37 40  1  0  0  0  0
 38 47  1  0  0  0  0
 39 73  1  0  0  0  0
 40 42  1  0  0  0  0
 41 43  1  0  0  0  0
 41 44  1  0  0  0  0
 42 46  1  0  0  0  0
 43 48  1  0  0  0  0
 44 74  1  0  0  0  0
 45 48  1  0  0  0  0
 45 74  1  0  0  0  0
 46 77  1  0  0  0  0
 47 73  1  0  0  0  0
 48 72  1  0  0  0  0
 49 58  1  0  0  0  0
 50 59  1  0  0  0  0
 51 67  1  0  0  0  0
 52 68  1  0  0  0  0
 53 68  1  0  0  0  0
 54 68  1  0  0  0  0
 55 80  1  0  0  0  0
 56 58  1  0  0  0  0
 57 60  1  0  0  0  0
 59 65  1  0  0  0  0
 60 61  1  0  0  0  0
 61 62  1  0  0  0  0
 62 63  1  0  0  0  0
 63 64  1  0  0  0  0
 64 87  1  0  0  0  0
 65 79  1  0  0  0  0
 66 68  1  0  0  0  0
 66 78  1  0  0  0  0
 67 80  1  0  0  0  0
 70 72  1  0  0  0  0
M  CHG  1  80   1
M  ISO  4  36 100  64 101  79 100  87 101
M  END
> <Batch ID>
0068

> <Smiles>
CCCc1ncc(C(CC)[100NH:0][100C:0](=O)N2CCCC(n3nc(-c4ccc(Oc5ccc(F)cc5F)cc4)c(C(N)=O)c3N)C2)nc1CCCCC[101CH2:1][101O:1]c1ccc2c(c1)CN(C(=O)C(NC(=O)C(C)NC)C(C)(C)C)C(C(=O)NC1CCCc3ccccc31)C2

> <Shape>
0.212

> <Color>
0.060

> <Negative vol penalty>
0.000

$$$$

  -OEChem-04052318143D

 88 96  0     1  0  0  0  0  0999 V2000
  -26.3641  -38.3725   24.0503 C   0  0  0  0  0  0  0  0  0  0  0  0
  -27.0745  -37.5720   23.1615 C   0  0  0  0  0  0  0  0  0  0  0  0
  -24.2058   -8.7208   21.6449 C   0  0  0  0  0  0  0  0  0  0  0  0
  -23.0940  -10.1485   20.0441 C   0  0  0  0  0  0  0  0  0  0  0  0
  -25.6238  -37.7862   25.0761 C   0  0  0  0  0  0  0  0  0  0  0  0
  -27.0458  -36.1846   23.2986 C   0  0  0  0  0  0  0  0  0  0  0  0
  -27.2430  -30.1833   19.3920 C   0  0  0  0  0  0  0  0  0  0  0  0
  -23.0354   -8.6571   22.4010 C   0  0  0  0  0  0  0  0  0  0  0  0
  -21.9236  -10.0848   20.8002 C   0  0  0  0  0  0  0  0  0  0  0  0
  -27.9345  -28.9756   19.3071 C   0  0  0  0  0  0  0  0  0  0  0  0
  -20.0887   -7.0023   22.2954 C   0  0  0  0  0  0  0  0  0  0  0  0
  -19.6922   -5.7529   22.7723 C   0  0  0  0  0  0  0  0  0  0  0  0
  -26.5573  -28.0704   21.0687 C   0  0  0  0  0  0  0  0  0  0  0  0
  -19.8365   -6.5727   25.0404 C   0  0  0  0  0  0  0  0  0  0  0  0
  -28.4916  -19.5548   17.8867 C   0  0  0  0  0  0  0  0  0  0  0  0
  -24.2352   -9.4666   20.4664 C   0  0  0  0  0  0  0  0  0  0  0  0
  -25.8322   -8.6687   18.6443 C   0  0  0  0  0  0  0  0  0  0  0  0
  -25.5783  -36.3905   25.2200 C   0  0  0  0  0  0  0  0  0  0  0  0
  -26.2091  -30.3475   20.3249 C   0  0  0  0  0  0  0  0  0  0  0  0
  -26.3053  -35.5791   24.3281 C   0  0  0  0  0  0  0  0  0  0  0  0
  -25.8527  -29.2803   21.1617 C   0  0  0  0  0  0  0  0  0  0  0  0
  -21.8943   -9.3391   21.9787 C   0  0  0  0  0  0  0  0  0  0  0  0
  -27.5936  -27.9199   20.1475 C   0  0  0  0  0  0  0  0  0  0  0  0
  -20.3592   -8.0369   23.1911 C   0  0  0  0  0  0  0  0  0  0  0  0
  -27.4862  -19.5840   18.8316 C   0  0  0  0  0  0  0  0  0  0  0  0
  -19.5660   -5.5381   24.1447 C   0  0  0  0  0  0  0  0  0  0  0  0
  -20.2331   -7.8221   24.5635 C   0  0  0  0  0  0  0  0  0  0  0  0
  -25.4440   -9.5332   19.6853 C   0  0  0  0  0  0  0  0  0  0  0  0
  -26.8564  -18.3796   19.0705 C   0  0  0  0  0  0  0  0  0  0  0  0
  -27.0488   -9.1538   18.2307 C   0  0  0  0  0  0  0  0  0  0  0  0
  -28.1723  -17.3307   17.5423 C   0  0  0  0  0  0  0  0  0  0  0  0
  -25.1537   -7.5290   18.0997 C   0  0  0  0  0  0  0  0  0  0  0  0
  -25.7192  -32.2584   22.8173 C   0  0  0  0  0  0  0  0  0  0  0  0
  -22.7893  -30.8662   22.8137 C   0  0  0  0  0  0  0  0  0  0  0  0
  -20.8546  -28.1896   21.9539 C   0  0  0  0  0  0  0  0  0  0  0  0
  -29.5862  -14.5701   18.5070 C   0  0  0  0  0  0  0  0  0  0  0  0
  -24.8024  -35.8045   26.3729 C   0  0  0  0  0  0  0  0  0  0  0  0
  -25.4552  -31.6477   20.3856 C   0  0  0  0  0  0  0  0  0  0  0  0
  -24.7369  -29.3988   22.1664 C   0  0  0  0  0  0  0  0  0  0  0  0
  -24.5218  -34.3116   26.2220 C   0  0  0  0  0  0  0  0  0  0  0  0
  -30.8755  -11.5314   19.8414 C   0  0  0  0  0  0  0  0  0  0  0  0
  -25.7847  -33.5717   25.7927 C   0  0  0  0  0  0  0  0  0  0  0  0
  -29.6647  -10.5967   19.8587 C   0  0  0  0  0  0  0  0  0  0  0  0
  -30.4829  -12.9698   20.1716 C   0  0  0  0  0  0  0  0  0  0  0  0
  -28.1892  -12.5886   19.3547 C   0  0  0  0  0  0  0  0  0  0  0  0
  -26.2790  -34.0694   24.4291 C   0  0  1  0  0  0  0  0  0  0  0  0
  -24.7614  -31.8741   21.7252 C   0  0  1  0  0  0  0  0  0  0  0  0
  -28.5264  -11.1372   18.9725 C   0  0  2  0  0  0  0  0  0  0  0  0
  -25.7553  -18.2952   20.0752 C   0  0  0  0  0  0  0  0  0  0  0  0
  -18.5050  -27.3236   22.1178 C   0  0  0  0  0  0  0  0  0  0  0  0
  -28.3208  -14.4525   14.8615 C   0  0  0  0  0  0  0  0  0  0  0  0
  -28.0263  -16.8974   14.4195 C   0  0  0  0  0  0  0  0  0  0  0  0
  -26.2932  -15.6322   15.6956 C   0  0  0  0  0  0  0  0  0  0  0  0
  -23.2498  -30.1800   25.7509 C   0  0  0  0  0  0  0  0  0  0  0  0
  -21.3644  -28.5405   25.5913 C   0  0  0  0  0  0  0  0  0  0  0  0
  -20.9382  -30.9692   25.2139 C   0  0  0  0  0  0  0  0  0  0  0  0
  -20.5597  -28.0975   19.0105 C   0  0  0  0  0  0  0  0  0  0  0  0
  -28.1067  -24.3714   19.6272 C   0  0  0  0  0  0  0  0  0  0  0  0
  -27.3503  -23.0851   19.9399 C   0  0  0  0  0  0  0  0  0  0  0  0
  -27.5454  -25.5559   20.4026 C   0  0  0  0  0  0  0  0  0  1  0  0
  -27.8829  -21.9094   19.1331 C   0  0  0  0  0  0  0  0  0  0  0  0
  -28.5548  -16.0791   16.8281 C   0  0  2  0  0  0  0  0  0  0  0  0
  -22.1863  -29.6427   23.4604 C   0  0  1  0  0  0  0  0  0  0  0  0
  -19.5008  -28.1027   21.2727 C   0  0  2  0  0  0  0  0  0  0  0  0
  -27.8148  -15.7819   15.4606 C   0  0  0  0  0  0  0  0  0  0  0  0
  -21.9570  -29.8312   24.9866 C   0  0  0  0  0  0  0  0  0  0  0  0
  -28.8620  -18.4416   17.2205 N   0  0  0  0  0  0  0  0  0  0  0  0
  -26.3414  -10.4946   19.9188 N   0  0  0  0  0  0  0  0  0  0  0  0
  -27.1749  -17.2293   18.4416 N   0  0  0  0  0  0  0  0  0  0  0  0
  -27.3056  -10.2370   19.0187 N   0  0  0  0  0  0  0  0  0  0  0  0
  -24.0338  -30.6921   22.1919 N   0  0  0  0  0  0  0  0  0  0  0  0
  -29.4002  -13.4222   19.2948 N   0  0  0  0  0  0  0  0  0  0  0  0
  -27.9134   -8.7552   17.2736 N   0  0  0  0  0  0  0  0  0  0  0  0
  -23.9124   -7.1686   18.6415 N   0  0  0  0  0  0  0  0  0  0  0  0
  -25.4782  -33.5043   23.3642 N   0  0  0  0  0  0  0  0  0  0  0  0
  -20.9745  -29.3382   22.7072 N   0  0  0  0  0  0  0  0  0  0  0  0
  -28.5127  -14.9261   17.6997 N   0  0  0  0  0  0  0  0  0  0  0  0
  -19.6281  -27.4244   19.9518 N   0  3  0  0  0  0  0  0  0  0  0  0
  -25.6416   -6.8406   17.1715 O   0  0  0  0  0  0  0  0  0  0  0  0
  -26.6099  -31.4815   23.1408 O   0  0  0  0  0  0  0  0  0  0  0  0
  -22.1754  -31.9354   22.8524 O   0  0  0  0  0  0  0  0  0  0  0  0
  -21.7179  -27.3232   21.8330 O   0  0  0  0  0  0  0  0  0  0  0  0
  -30.6334  -15.2260   18.5180 O   0  0  0  0  0  0  0  0  0  0  0  0
  -20.7520   -9.2769   22.7161 O   0  0  0  0  0  0  0  0  0  0  0  0
  -28.2673  -26.7402   20.0672 O   0  0  0  0  0  0  0  0  0  1  0  0
  -27.1488  -20.7434   19.4804 O   0  0  0  0  0  0  0  0  0  0  0  0
  -19.1838   -4.3387   24.6024 F   0  0  0  0  0  0  0  0  0  0  0  0
  -20.4904   -8.8125   25.4287 F   0  0  0  0  0  0  0  0  0  0  0  0
  1  2  1  0  0  0  0
  1  5  2  0  0  0  0
  2  6  2  0  0  0  0
  3  8  2  0  0  0  0
  3 16  1  0  0  0  0
  4  9  1  0  0  0  0
  4 16  2  0  0  0  0
  5 18  1  0  0  0  0
  6 20  1  0  0  0  0
  7 10  2  0  0  0  0
  7 19  1  0  0  0  0
  8 22  1  0  0  0  0
  9 22  2  0  0  0  0
 10 23  1  0  0  0  0
 11 12  2  0  0  0  0
 11 24  1  0  0  0  0
 12 26  1  0  0  0  0
 13 21  1  0  0  0  0
 13 23  2  0  0  0  0
 14 26  2  0  0  0  0
 14 27  1  0  0  0  0
 15 25  1  0  0  0  0
 15 67  2  0  0  0  0
 16 28  1  0  0  0  0
 17 28  1  0  0  0  0
 17 30  2  0  0  0  0
 17 32  1  0  0  0  0
 18 20  2  0  0  0  0
 18 37  1  0  0  0  0
 19 21  2  0  0  0  0
 19 38  1  0  0  0  0
 20 46  1  0  0  0  0
 21 39  1  0  0  0  0
 22 84  1  0  0  0  0
 23 85  1  0  0  0  0
 24 27  2  0  0  0  0
 24 84  1  0  0  0  0
 25 29  2  0  0  0  0
 25 86  1  0  0  0  0
 26 87  1  0  0  0  0
 27 88  1  0  0  0  0
 28 68  2  0  0  0  0
 29 49  1  0  0  0  0
 29 69  1  0  0  0  0
 30 70  1  0  0  0  0
 30 73  1  0  0  0  0
 31 62  1  0  0  0  0
 31 67  1  0  0  0  0
 31 69  2  0  0  0  0
 32 74  1  0  0  0  0
 32 79  2  0  0  0  0
 33 47  1  0  0  0  0
 33 75  1  0  0  0  0
 33 80  2  0  0  0  0
 34 63  1  0  0  0  0
 34 71  1  0  0  0  0
 34 81  2  0  0  0  0
 35 64  1  0  0  0  0
 35 76  1  0  0  0  0
 35 82  2  0  0  0  0
 36 72  1  0  0  0  0
 36 77  1  0  0  0  0
 36 83  2  0  0  0  0
 37 40  1  0  0  0  0
 38 47  1  0  0  0  0
 39 71  1  0  0  0  0
 40 42  1  0  0  0  0
 41 43  1  0  0  0  0
 41 44  1  0  0  0  0
 42 46  1  0  0  0  0
 43 48  1  0  0  0  0
 44 72  1  0  0  0  0
 45 48  1  0  0  0  0
 45 72  1  0  0  0  0
 46 75  1  0  0  0  0
 47 71  1  0  0  0  0
 48 70  1  0  0  0  0
 50 64  1  0  0  0  0
 51 65  1  0  0  0  0
 52 65  1  0  0  0  0
 53 65  1  0  0  0  0
 54 66  1  0  0  0  0
 55 66  1  0  0  0  0
 56 66  1  0  0  0  0
 57 78  1  0  0  0  0
 58 59  1  0  0  0  0
 58 60  1  0  0  0  0
 59 61  1  0  0  0  0
 60 85  1  0  0  0  0
 61 86  1  0  0  0  0
 62 65  1  0  0  0  0
 62 77  1  0  0  0  0
 63 66  1  0  0  0  0
 63 76  1  0  0  0  0
 64 78  1  0  0  0  0
 68 70  1  0  0  0  0
M  CHG  1  78   1
M  ISO  4  36 100  60 101  77 100  85 101
M  END
> <Batch ID>
0068

> <Smiles>
CNC(C)C(=O)NC(C(=O)N1Cc2cc([101O:1][101CH2:1]CCCOc3cnc(C([100NH:0][100C:0](=O)N4CCCC(n5nc(-c6ccc(Oc7ccc(F)cc7F)cc6)c(C(N)=O)c5N)C4)C(C)(C)C)nc3C)ccc2CC1C(=O)NC1CCCc2ccccc21)C(C)(C)C

> <Shape>
0.269

> <Color>
0.087

> <Negative vol penalty>
0.000

$$$$

  -OEChem-04052318143D

 86 94  0     1  0  0  0  0  0999 V2000
  -27.7882  -11.4499   22.5711 C   0  0  0  0  0  0  0  0  0  0  0  0
  -28.3980  -12.5945   22.0677 C   0  0  0  0  0  0  0  0  0  0  0  0
  -19.4283  -28.0199   21.6921 C   0  0  0  0  0  0  0  0  0  0  0  0
  -20.4185  -26.4482   23.2368 C   0  0  0  0  0  0  0  0  0  0  0  0
  -26.4677  -11.1583   22.2317 C   0  0  0  0  0  0  0  0  0  0  0  0
  -27.6880  -13.4476   21.2236 C   0  0  0  0  0  0  0  0  0  0  0  0
  -28.3047  -18.3277   22.4277 C   0  0  0  0  0  0  0  0  0  0  0  0
  -18.2471  -27.2782   21.6946 C   0  0  0  0  0  0  0  0  0  0  0  0
  -19.2372  -25.7065   23.2394 C   0  0  0  0  0  0  0  0  0  0  0  0
  -29.4944  -18.9362   22.0300 C   0  0  0  0  0  0  0  0  0  0  0  0
  -16.6071  -23.2016   23.3741 C   0  0  0  0  0  0  0  0  0  0  0  0
  -16.7119  -21.8151   23.2641 C   0  0  0  0  0  0  0  0  0  0  0  0
  -28.3524  -19.9267   20.1501 C   0  0  0  0  0  0  0  0  0  0  0  0
  -17.8087  -22.0676   21.1263 C   0  0  0  0  0  0  0  0  0  0  0  0
  -32.1139  -24.7253   19.1828 C   0  0  0  0  0  0  0  0  0  0  0  0
  -31.7169  -25.0012   21.3278 C   0  0  0  0  0  0  0  0  0  0  0  0
  -20.5141  -27.6049   22.4632 C   0  0  0  0  0  0  0  0  0  0  0  0
  -22.0751  -29.4308   23.3217 C   0  0  0  0  0  0  0  0  0  0  0  0
  -25.7381  -12.0133   21.3908 C   0  0  0  0  0  0  0  0  0  0  0  0
  -27.1304  -18.5056   21.6821 C   0  0  0  0  0  0  0  0  0  0  0  0
  -26.3570  -13.1665   20.8716 C   0  0  0  0  0  0  0  0  0  0  0  0
  -27.1486  -19.3214   20.5419 C   0  0  0  0  0  0  0  0  0  0  0  0
  -32.6305  -24.4499   20.4630 C   0  0  0  0  0  0  0  0  0  0  0  0
  -18.1515  -26.1215   22.4682 C   0  0  0  0  0  0  0  0  0  0  0  0
  -29.5191  -19.7335   20.8895 C   0  0  0  0  0  0  0  0  0  0  0  0
  -17.1030  -24.0212   22.3601 C   0  0  0  0  0  0  0  0  0  0  0  0
  -17.3128  -21.2481   22.1403 C   0  0  0  0  0  0  0  0  0  0  0  0
  -17.7038  -23.4541   21.2362 C   0  0  0  0  0  0  0  0  0  0  0  0
  -21.7348  -28.3704   22.4606 C   0  0  0  0  0  0  0  0  0  0  0  0
  -23.3281  -29.8168   22.9125 C   0  0  0  0  0  0  0  0  0  0  0  0
  -21.3256  -30.0147   24.3955 C   0  0  0  0  0  0  0  0  0  0  0  0
  -25.1782  -16.5772   20.0778 C   0  0  0  0  0  0  0  0  0  0  0  0
  -23.4042  -19.2748   19.7635 C   0  0  0  0  0  0  0  0  0  0  0  0
  -28.4608  -28.4582   21.4677 C   0  0  0  0  0  0  0  0  0  0  0  0
  -23.3003  -22.6857   19.7233 C   0  0  0  0  0  0  0  0  0  0  0  0
  -24.3284  -11.6316   21.0140 C   0  0  0  0  0  0  0  0  0  0  0  0
  -25.8492  -17.8640   22.1394 C   0  0  0  0  0  0  0  0  0  0  0  0
  -25.9105  -19.5607   19.7182 C   0  0  0  0  0  0  0  0  0  0  0  0
  -23.5252  -12.7831   20.4146 C   0  0  0  0  0  0  0  0  0  0  0  0
  -25.9885  -28.5758   18.8030 C   0  0  0  0  0  0  0  0  0  0  0  0
  -24.3478  -13.5152   19.3591 C   0  0  0  0  0  0  0  0  0  0  0  0
  -24.6832  -28.5897   19.5975 C   0  0  0  0  0  0  0  0  0  0  0  0
  -27.0517  -27.7191   19.4853 C   0  0  0  0  0  0  0  0  0  0  0  0
  -26.0200  -28.1256   21.6977 C   0  0  0  0  0  0  0  0  0  0  0  0
  -25.6117  -14.1294   19.9730 C   0  0  1  0  0  0  0  0  0  0  0  0
  -24.8301  -17.6979   21.0163 C   0  0  1  0  0  0  0  0  0  0  0  0
  -24.9310  -29.0035   21.0587 C   0  0  2  0  0  0  0  0  0  0  0  0
  -21.7146  -24.6046   19.4058 C   0  0  0  0  0  0  0  0  0  0  0  0
  -30.8989  -28.2760   21.6830 C   0  0  0  0  0  0  0  0  0  0  0  0
  -23.4076  -18.7763   16.7533 C   0  0  0  0  0  0  0  0  0  0  0  0
  -22.6676  -21.1462   16.4304 C   0  0  0  0  0  0  0  0  0  0  0  0
  -21.2168  -19.5477   17.6804 C   0  0  0  0  0  0  0  0  0  0  0  0
  -34.2804  -19.2270   20.1773 C   0  0  0  0  0  0  0  0  0  0  0  0
  -32.5497  -19.4853   18.3956 C   0  0  0  0  0  0  0  0  0  0  0  0
  -23.8170  -23.7150   22.4496 C   0  0  0  0  0  0  0  0  0  0  0  0
  -33.8997  -23.7129   20.8099 C   0  0  0  0  0  0  0  0  0  0  0  0
  -33.7133  -22.1981   20.9756 C   0  0  0  0  0  0  0  0  0  0  0  0
  -33.2614  -21.5102   19.6784 C   0  0  0  0  0  0  0  0  0  0  0  0
  -29.5684  -26.2487   21.0014 C   0  0  0  0  0  0  0  0  0  0  0  0
  -31.8949  -19.6527   20.8185 C   0  0  0  0  0  0  0  0  0  1  0  0
  -23.3385  -20.4001   18.7594 C   0  0  1  0  0  0  0  0  0  0  0  0
  -22.3748  -23.6734   20.4106 C   0  0  2  0  0  0  0  0  0  0  0  0
  -29.6844  -27.7761   20.9096 C   0  0  1  0  0  0  0  0  0  0  0  0
  -22.6816  -19.9617   17.4201 C   0  0  0  0  0  0  0  0  0  0  0  0
  -32.9967  -19.9813   19.7880 C   0  0  0  0  0  0  0  0  0  0  0  0
  -30.9614  -25.3990   19.2257 N   0  0  0  0  0  0  0  0  0  0  0  0
  -22.6941  -28.1001   21.5714 N   0  0  0  0  0  0  0  0  0  0  0  0
  -30.7462  -25.5516   20.5435 N   0  0  0  0  0  0  0  0  0  0  0  0
  -23.6495  -28.9963   21.8715 N   0  0  0  0  0  0  0  0  0  0  0  0
  -24.6838  -18.9064   20.2026 N   0  0  0  0  0  0  0  0  0  0  0  0
  -27.2384  -28.1268   20.8829 N   0  0  0  0  0  0  0  0  0  0  0  0
  -24.1753  -30.7747   23.3452 N   0  0  0  0  0  0  0  0  0  0  0  0
  -20.0550  -29.4971   24.6822 N   0  0  0  0  0  0  0  0  0  0  0  0
  -25.2865  -15.3434   20.6905 N   0  0  0  0  0  0  0  0  0  0  0  0
  -22.6558  -21.5033   19.4268 N   0  0  0  0  0  0  0  0  0  0  0  0
  -23.1353  -24.5011   21.3892 N   0  3  0  0  0  0  0  0  0  0  0  0
  -21.7626  -30.9779   25.0699 O   0  0  0  0  0  0  0  0  0  0  0  0
  -25.3353  -16.8142   18.8859 O   0  0  0  0  0  0  0  0  0  0  0  0
  -22.3583  -18.7469   20.1496 O   0  0  0  0  0  0  0  0  0  0  0  0
  -28.5900  -29.2632   22.3937 O   0  0  0  0  0  0  0  0  0  0  0  0
  -24.4761  -22.9392   19.4711 O   0  0  0  0  0  0  0  0  0  0  0  0
  -16.9989  -25.3976   22.4711 O   0  0  0  0  0  0  0  0  0  0  0  0
  -30.6791  -20.3280   20.4988 O   0  0  0  0  0  0  0  0  0  1  0  0
  -17.4148  -19.9166   22.0355 F   0  0  0  0  0  0  0  0  0  0  0  0
  -18.1832  -24.2364   20.2594 F   0  0  0  0  0  0  0  0  0  0  0  0
  -29.8641  -28.1278   19.6044 F   0  0  0  0  0  0  0  0  0  0  0  0
  1  2  1  0  0  0  0
  1  5  2  0  0  0  0
  2  6  2  0  0  0  0
  3  8  2  0  0  0  0
  3 17  1  0  0  0  0
  4  9  1  0  0  0  0
  4 17  2  0  0  0  0
  5 19  1  0  0  0  0
  6 21  1  0  0  0  0
  7 10  2  0  0  0  0
  7 20  1  0  0  0  0
  8 24  1  0  0  0  0
  9 24  2  0  0  0  0
 10 25  1  0  0  0  0
 11 12  2  0  0  0  0
 11 26  1  0  0  0  0
 12 27  1  0  0  0  0
 13 22  1  0  0  0  0
 13 25  2  0  0  0  0
 14 27  2  0  0  0  0
 14 28  1  0  0  0  0
 15 23  1  0  0  0  0
 15 66  2  0  0  0  0
 16 23  2  0  0  0  0
 16 68  1  0  0  0  0
 17 29  1  0  0  0  0
 18 29  1  0  0  0  0
 18 30  2  0  0  0  0
 18 31  1  0  0  0  0
 19 21  2  0  0  0  0
 19 36  1  0  0  0  0
 20 22  2  0  0  0  0
 20 37  1  0  0  0  0
 21 45  1  0  0  0  0
 22 38  1  0  0  0  0
 23 56  1  0  0  0  0
 24 82  1  0  0  0  0
 25 83  1  0  0  0  0
 26 28  2  0  0  0  0
 26 82  1  0  0  0  0
 27 84  1  0  0  0  0
 28 85  1  0  0  0  0
 29 67  2  0  0  0  0
 30 69  1  0  0  0  0
 30 72  1  0  0  0  0
 31 73  1  0  0  0  0
 31 77  2  0  0  0  0
 32 46  1  0  0  0  0
 32 74  1  0  0  0  0
 32 78  2  0  0  0  0
 33 61  1  0  0  0  0
 33 70  1  0  0  0  0
 33 79  2  0  0  0  0
 34 63  1  0  0  0  0
 34 71  1  0  0  0  0
 34 80  2  0  0  0  0
 35 62  1  0  0  0  0
 35 75  1  0  0  0  0
 35 81  2  0  0  0  0
 36 39  1  0  0  0  0
 37 46  1  0  0  0  0
 38 70  1  0  0  0  0
 39 41  1  0  0  0  0
 40 42  1  0  0  0  0
 40 43  1  0  0  0  0
 41 45  1  0  0  0  0
 42 47  1  0  0  0  0
 43 71  1  0  0  0  0
 44 47  1  0  0  0  0
 44 71  1  0  0  0  0
 45 74  1  0  0  0  0
 46 70  1  0  0  0  0
 47 69  1  0  0  0  0
 48 62  1  0  0  0  0
 49 63  1  0  0  0  0
 50 64  1  0  0  0  0
 51 64  1  0  0  0  0
 52 64  1  0  0  0  0
 53 65  1  0  0  0  0
 54 65  1  0  0  0  0
 55 76  1  0  0  0  0
 56 57  1  0  0  0  0
 57 58  1  0  0  0  0
 58 65  1  0  0  0  0
 59 63  1  0  0  0  0
 59 68  1  0  0  0  0
 60 65  1  0  0  0  0
 60 83  1  0  0  0  0
 61 64  1  0  0  0  0
 61 75  1  0  0  0  0
 62 76  1  0  0  0  0
 63 86  1  0  0  0  0
 66 68  1  0  0  0  0
 67 69  1  0  0  0  0
M  CHG  1  76   1
M  ISO  4  34 100  60 101  63 100  83 101
M  END
> <Batch ID>
0068

> <Smiles>
CNC(C)C(=O)NC(C(=O)N1Cc2cc([101O:1][101CH2:1]C(C)(C)CCCc3cnn(C[100C:0](C)(F)[100C:0](=O)N4CCCC(n5nc(-c6ccc(Oc7ccc(F)cc7F)cc6)c(C(N)=O)c5N)C4)c3)ccc2CC1C(=O)NC1CCCc2ccccc21)C(C)(C)C

> <Shape>
0.206

> <Color>
0.086

> <Negative vol penalty>
0.000

$$$$

  -OEChem-04052318143D

 92100  0     1  0  0  0  0  0999 V2000
  -18.2245  -25.1254   20.5605 C   0  0  0  0  0  0  0  0  0  0  0  0
  -19.4610  -25.4161   19.9932 C   0  0  0  0  0  0  0  0  0  0  0  0
  -24.5869  -13.9038   20.8836 C   0  0  0  0  0  0  0  0  0  0  0  0
  -26.9465  -13.3973   20.7711 C   0  0  0  0  0  0  0  0  0  0  0  0
  -17.8200  -25.7819   21.7221 C   0  0  0  0  0  0  0  0  0  0  0  0
  -20.2935  -26.3643   20.5868 C   0  0  0  0  0  0  0  0  0  0  0  0
  -25.1101  -24.8241   20.8562 C   0  0  0  0  0  0  0  0  0  0  0  0
  -24.2882  -12.6013   20.4836 C   0  0  0  0  0  0  0  0  0  0  0  0
  -26.6478  -12.0947   20.3711 C   0  0  0  0  0  0  0  0  0  0  0  0
  -25.8689  -24.8992   19.6890 C   0  0  0  0  0  0  0  0  0  0  0  0
  -22.8984   -9.3043   19.8410 C   0  0  0  0  0  0  0  0  0  0  0  0
  -21.8911   -8.6291   20.5303 C   0  0  0  0  0  0  0  0  0  0  0  0
  -26.8675  -26.9487   20.4772 C   0  0  0  0  0  0  0  0  0  0  0  0
  -23.1444   -8.8552   22.5834 C   0  0  0  0  0  0  0  0  0  0  0  0
  -31.0900  -22.4639   20.8713 C   0  0  0  0  0  0  0  0  0  0  0  0
  -25.9160  -14.3018   21.0273 C   0  0  0  0  0  0  0  0  0  0  0  0
  -26.3889  -16.1161   22.7571 C   0  0  0  0  0  0  0  0  0  0  0  0
  -18.6520  -26.7316   22.3356 C   0  0  0  0  0  0  0  0  0  0  0  0
  -25.2166  -25.8182   21.8395 C   0  0  0  0  0  0  0  0  0  0  0  0
  -19.8992  -27.0351   21.7569 C   0  0  0  0  0  0  0  0  0  0  0  0
  -26.1110  -26.8826   21.6571 C   0  0  0  0  0  0  0  0  0  0  0  0
  -25.3186  -11.6968   20.2274 C   0  0  0  0  0  0  0  0  0  0  0  0
  -26.7456  -25.9631   19.4980 C   0  0  0  0  0  0  0  0  0  0  0  0
  -24.0287   -9.7549   20.5229 C   0  0  0  0  0  0  0  0  0  0  0  0
  -22.0141   -8.4046   21.9015 C   0  0  0  0  0  0  0  0  0  0  0  0
  -24.1517   -9.5304   21.8941 C   0  0  0  0  0  0  0  0  0  0  0  0
  -26.2252  -15.6472   21.4399 C   0  0  0  0  0  0  0  0  0  0  0  0
  -31.4909  -22.2941   19.5618 C   0  0  0  0  0  0  0  0  0  0  0  0
  -30.4263  -23.6424   21.1445 C   0  0  0  0  0  0  0  0  0  0  0  0
  -26.6698  -17.4528   22.6134 C   0  0  0  0  0  0  0  0  0  0  0  0
  -30.6097  -24.3066   18.9783 C   0  0  0  0  0  0  0  0  0  0  0  0
  -26.2954  -15.4066   23.9996 C   0  0  0  0  0  0  0  0  0  0  0  0
  -23.2146  -27.9277   23.1224 C   0  0  0  0  0  0  0  0  0  0  0  0
  -25.7244  -28.5295   25.0874 C   0  0  0  0  0  0  0  0  0  0  0  0
  -29.0988  -28.4355   25.5889 C   0  0  0  0  0  0  0  0  0  0  0  0
  -29.0407  -20.6642   18.1505 C   0  0  0  0  0  0  0  0  0  0  0  0
  -18.1516  -27.4497   23.5638 C   0  0  0  0  0  0  0  0  0  0  0  0
  -24.4109  -25.7085   23.1049 C   0  0  0  0  0  0  0  0  0  0  0  0
  -26.2771  -27.9648   22.6913 C   0  0  0  0  0  0  0  0  0  0  0  0
  -19.2520  -28.1689   24.3397 C   0  0  0  0  0  0  0  0  0  0  0  0
  -25.8680  -21.1544   19.6900 C   0  0  0  0  0  0  0  0  0  0  0  0
  -20.1426  -28.9638   23.3900 C   0  0  0  0  0  0  0  0  0  0  0  0
  -25.6145  -19.8409   20.4319 C   0  0  0  0  0  0  0  0  0  0  0  0
  -26.5862  -20.9232   18.3624 C   0  0  0  0  0  0  0  0  0  0  0  0
  -27.5816  -18.8312   19.2031 C   0  0  0  0  0  0  0  0  0  0  0  0
  -20.8409  -28.0395   22.3851 C   0  0  1  0  0  0  0  0  0  0  0  0
  -24.2202  -27.0480   23.8098 C   0  0  1  0  0  0  0  0  0  0  0  0
  -26.9093  -19.0183   20.5740 C   0  0  2  0  0  0  0  0  0  0  0  0
  -31.2771  -28.6459   26.8170 C   0  0  0  0  0  0  0  0  0  0  0  0
  -29.0310  -26.0536   15.8889 C   0  0  0  0  0  0  0  0  0  0  0  0
  -32.4595  -20.0198   20.3271 C   0  0  0  0  0  0  0  0  0  0  0  0
  -33.6441  -21.3965   18.6368 C   0  0  0  0  0  0  0  0  0  0  0  0
  -29.2132  -25.2835   22.7188 C   0  0  0  0  0  0  0  0  0  0  0  0
  -31.1310  -23.9556   23.5592 C   0  0  0  0  0  0  0  0  0  0  0  0
  -25.4509  -31.4724   24.3297 C   0  0  0  0  0  0  0  0  0  0  0  0
  -27.7461  -31.8520   25.2549 C   0  0  0  0  0  0  0  0  0  0  0  0
  -25.9155  -31.0576   26.7518 C   0  0  0  0  0  0  0  0  0  0  0  0
  -28.9293  -25.6597   26.6014 C   0  0  0  0  0  0  0  0  0  0  0  0
  -30.3361  -25.3413   17.9139 C   0  0  0  0  0  0  0  0  0  0  0  0
  -31.4867  -20.2646   18.0215 C   0  0  0  0  0  0  0  0  0  0  0  0
  -27.8504  -24.8073   17.7375 C   0  0  0  0  0  0  0  0  0  1  0  0
  -26.9069  -29.4673   25.0547 C   0  0  1  0  0  0  0  0  0  0  0  0
  -29.9298  -27.9428   26.7599 C   0  0  2  0  0  0  0  0  0  0  0  0
  -29.1708  -24.9768   16.9725 C   0  0  1  0  0  0  0  0  0  0  0  0
  -32.2156  -21.0501   19.1701 C   0  0  0  0  0  0  0  0  0  0  0  0
  -29.9524  -23.9143   22.5330 C   0  0  0  0  0  0  0  0  0  0  0  0
  -26.5005  -30.9431   25.3272 C   0  0  0  0  0  0  0  0  0  0  0  0
  -28.9515  -22.8210   23.0069 C   0  0  0  0  0  0  0  0  0  0  0  0
  -26.3884  -16.6081   20.5266 N   0  0  0  0  0  0  0  0  0  0  0  0
  -31.2665  -23.1984   18.5860 N   0  0  0  0  0  0  0  0  0  0  0  0
  -30.1683  -24.5895   20.2188 N   0  0  0  0  0  0  0  0  0  0  0  0
  -26.6575  -17.6941   21.2711 N   0  0  0  0  0  0  0  0  0  0  0  0
  -25.4628  -27.8165   23.9088 N   0  0  0  0  0  0  0  0  0  0  0  0
  -27.8064  -20.1388   18.5670 N   0  0  0  0  0  0  0  0  0  0  0  0
  -26.9237  -18.4337   23.5056 N   0  0  0  0  0  0  0  0  0  0  0  0
  -25.9991  -14.0372   23.9664 N   0  0  0  0  0  0  0  0  0  0  0  0
  -21.9577  -27.3645   23.0107 N   0  0  0  0  0  0  0  0  0  0  0  0
  -27.8796  -28.9310   26.0005 N   0  0  0  0  0  0  0  0  0  0  0  0
  -30.1480  -19.8589   18.3876 N   0  0  0  0  0  0  0  0  0  0  0  0
  -30.1694  -26.4765   26.6443 N   0  3  0  0  0  0  0  0  0  0  0  0
  -26.4532  -15.9739   25.1072 O   0  0  0  0  0  0  0  0  0  0  0  0
  -23.5535  -29.0360   22.7243 O   0  0  0  0  0  0  0  0  0  0  0  0
  -25.0617  -28.4277   26.1228 O   0  0  0  0  0  0  0  0  0  0  0  0
  -29.4934  -28.3892   24.4258 O   0  0  0  0  0  0  0  0  0  0  0  0
  -29.1487  -21.7713   17.6125 O   0  0  0  0  0  0  0  0  0  0  0  0
  -25.0276  -10.4257   19.8374 O   0  0  0  0  0  0  0  0  0  0  0  0
  -27.4869  -26.0392   18.3593 O   0  0  0  0  0  0  0  0  0  1  0  0
  -21.0460   -7.7576   22.5635 F   0  0  0  0  0  0  0  0  0  0  0  0
  -25.2348   -9.9619   22.5548 F   0  0  0  0  0  0  0  0  0  0  0  0
  -29.4927  -21.5800   23.0119 F   0  0  0  0  0  0  0  0  0  0  0  0
  -27.8589  -22.7712   22.2135 F   0  0  0  0  0  0  0  0  0  0  0  0
  -28.5287  -23.0781   24.2659 F   0  0  0  0  0  0  0  0  0  0  0  0
  1  2  1  0  0  0  0
  1  5  2  0  0  0  0
  2  6  2  0  0  0  0
  3  8  2  0  0  0  0
  3 16  1  0  0  0  0
  4  9  1  0  0  0  0
  4 16  2  0  0  0  0
  5 18  1  0  0  0  0
  6 20  1  0  0  0  0
  7 10  2  0  0  0  0
  7 19  1  0  0  0  0
  8 22  1  0  0  0  0
  9 22  2  0  0  0  0
 10 23  1  0  0  0  0
 11 12  2  0  0  0  0
 11 24  1  0  0  0  0
 12 25  1  0  0  0  0
 13 21  1  0  0  0  0
 13 23  2  0  0  0  0
 14 25  2  0  0  0  0
 14 26  1  0  0  0  0
 15 28  1  0  0  0  0
 15 29  2  0  0  0  0
 16 27  1  0  0  0  0
 17 27  1  0  0  0  0
 17 30  2  0  0  0  0
 17 32  1  0  0  0  0
 18 20  2  0  0  0  0
 18 37  1  0  0  0  0
 19 21  2  0  0  0  0
 19 38  1  0  0  0  0
 20 46  1  0  0  0  0
 21 39  1  0  0  0  0
 22 86  1  0  0  0  0
 23 87  1  0  0  0  0
 24 26  2  0  0  0  0
 24 86  1  0  0  0  0
 25 88  1  0  0  0  0
 26 89  1  0  0  0  0
 27 69  2  0  0  0  0
 28 65  1  0  0  0  0
 28 70  2  0  0  0  0
 29 66  1  0  0  0  0
 29 71  1  0  0  0  0
 30 72  1  0  0  0  0
 30 75  1  0  0  0  0
 31 59  1  0  0  0  0
 31 70  1  0  0  0  0
 31 71  2  0  0  0  0
 32 76  1  0  0  0  0
 32 81  2  0  0  0  0
 33 47  1  0  0  0  0
 33 77  1  0  0  0  0
 33 82  2  0  0  0  0
 34 62  1  0  0  0  0
 34 73  1  0  0  0  0
 34 83  2  0  0  0  0
 35 63  1  0  0  0  0
 35 78  1  0  0  0  0
 35 84  2  0  0  0  0
 36 74  1  0  0  0  0
 36 79  1  0  0  0  0
 36 85  2  0  0  0  0
 37 40  1  0  0  0  0
 38 47  1  0  0  0  0
 39 73  1  0  0  0  0
 40 42  1  0  0  0  0
 41 43  1  0  0  0  0
 41 44  1  0  0  0  0
 42 46  1  0  0  0  0
 43 48  1  0  0  0  0
 44 74  1  0  0  0  0
 45 48  1  0  0  0  0
 45 74  1  0  0  0  0
 46 77  1  0  0  0  0
 47 73  1  0  0  0  0
 48 72  1  0  0  0  0
 49 63  1  0  0  0  0
 50 64  1  0  0  0  0
 51 65  1  0  0  0  0
 52 65  1  0  0  0  0
 53 66  1  0  0  0  0
 54 66  1  0  0  0  0
 55 67  1  0  0  0  0
 56 67  1  0  0  0  0
 57 67  1  0  0  0  0
 58 80  1  0  0  0  0
 59 64  1  0  0  0  0
 60 65  1  0  0  0  0
 60 79  1  0  0  0  0
 61 64  1  0  0  0  0
 61 87  1  0  0  0  0
 62 67  1  0  0  0  0
 62 78  1  0  0  0  0
 63 80  1  0  0  0  0
 66 68  1  0  0  0  0
 68 90  1  0  0  0  0
 68 91  1  0  0  0  0
 68 92  1  0  0  0  0
 69 72  1  0  0  0  0
M  CHG  1  80   1
M  ISO  4  36 100  61 101  79 100  87 101
M  END
> <Batch ID>
0068

> <Smiles>
CNC(C)C(=O)NC(C(=O)N1Cc2cc([101O:1][101CH2:1]C(C)Cc3nc(C(C)(C)C[100NH:0][100C:0](=O)N4CCCC(n5nc(-c6ccc(Oc7ccc(F)cc7F)cc6)c(C(N)=O)c5N)C4)cc(C(C)(C)C(F)(F)F)n3)ccc2CC1C(=O)NC1CCCc2ccccc21)C(C)(C)C

> <Shape>
0.245

> <Color>
0.085

> <Negative vol penalty>
0.000

$$$$

  -OEChem-04052318143D

 85 93  0     1  0  0  0  0  0999 V2000
  -27.2842  -23.4716   14.1406 C   0  0  0  0  0  0  0  0  0  0  0  0
  -27.1080  -23.1140   15.4735 C   0  0  0  0  0  0  0  0  0  0  0  0
  -28.1933  -16.6448   18.9372 C   0  0  0  0  0  0  0  0  0  0  0  0
  -27.8117  -17.2368   21.2482 C   0  0  0  0  0  0  0  0  0  0  0  0
  -27.2495  -24.8152   13.7700 C   0  0  0  0  0  0  0  0  0  0  0  0
  -26.8980  -24.1001   16.4368 C   0  0  0  0  0  0  0  0  0  0  0  0
  -23.1613  -22.9187   19.6439 C   0  0  0  0  0  0  0  0  0  0  0  0
  -28.9970  -17.7740   18.7806 C   0  0  0  0  0  0  0  0  0  0  0  0
  -28.6154  -18.3660   21.0917 C   0  0  0  0  0  0  0  0  0  0  0  0
  -23.4549  -22.0041   20.6545 C   0  0  0  0  0  0  0  0  0  0  0  0
  -30.2744  -21.5978   21.2046 C   0  0  0  0  0  0  0  0  0  0  0  0
  -29.8107  -22.8021   21.7339 C   0  0  0  0  0  0  0  0  0  0  0  0
  -23.7202  -23.8238   22.2158 C   0  0  0  0  0  0  0  0  0  0  0  0
  -27.8604  -22.6754   20.3135 C   0  0  0  0  0  0  0  0  0  0  0  0
  -22.8207  -18.0546   24.4694 C   0  0  0  0  0  0  0  0  0  0  0  0
  -27.6006  -16.3762   20.1710 C   0  0  0  0  0  0  0  0  0  0  0  0
  -27.1470  -13.8659   20.1534 C   0  0  0  0  0  0  0  0  0  0  0  0
  -27.0294  -25.8176   14.7278 C   0  0  0  0  0  0  0  0  0  0  0  0
  -23.1557  -24.2955   19.9096 C   0  0  0  0  0  0  0  0  0  0  0  0
  -26.8617  -25.4585   16.0789 C   0  0  0  0  0  0  0  0  0  0  0  0
  -23.4238  -24.7536   21.2075 C   0  0  0  0  0  0  0  0  0  0  0  0
  -24.1104  -18.1946   24.9399 C   0  0  0  0  0  0  0  0  0  0  0  0
  -29.2081  -18.6346   19.8579 C   0  0  0  0  0  0  0  0  0  0  0  0
  -23.7372  -22.4568   21.9399 C   0  0  0  0  0  0  0  0  0  0  0  0
  -29.5312  -20.9323   20.2296 C   0  0  0  0  0  0  0  0  0  0  0  0
  -28.6037  -23.3409   21.2884 C   0  0  0  0  0  0  0  0  0  0  0  0
  -28.3242  -21.4712   19.7842 C   0  0  0  0  0  0  0  0  0  0  0  0
  -26.7697  -15.2102   20.3331 C   0  0  0  0  0  0  0  0  0  0  0  0
  -24.7114  -17.0362   25.3882 C   0  0  0  0  0  0  0  0  0  0  0  0
  -26.0070  -13.1500   20.4261 C   0  0  0  0  0  0  0  0  0  0  0  0
  -22.8527  -15.8226   24.8989 C   0  0  0  0  0  0  0  0  0  0  0  0
  -28.4146  -13.3137   19.7741 C   0  0  0  0  0  0  0  0  0  0  0  0
  -24.8197  -26.7902   18.8556 C   0  0  0  0  0  0  0  0  0  0  0  0
  -22.6997  -28.4673   20.6487 C   0  0  0  0  0  0  0  0  0  0  0  0
  -21.1620  -14.4299   23.7427 C   0  0  0  0  0  0  0  0  0  0  0  0
  -20.5098  -28.5045   23.2658 C   0  0  0  0  0  0  0  0  0  0  0  0
  -27.0473  -27.2597   14.2866 C   0  0  0  0  0  0  0  0  0  0  0  0
  -22.8108  -25.2676   18.8148 C   0  0  0  0  0  0  0  0  0  0  0  0
  -23.4107  -26.2203   21.5493 C   0  0  0  0  0  0  0  0  0  0  0  0
  -26.4462  -28.2178   15.3118 C   0  0  0  0  0  0  0  0  0  0  0  0
  -21.2438  -13.4832   20.2877 C   0  0  0  0  0  0  0  0  0  0  0  0
  -26.9865  -27.9156   16.7059 C   0  0  0  0  0  0  0  0  0  0  0  0
  -22.6979  -13.7236   19.8839 C   0  0  0  0  0  0  0  0  0  0  0  0
  -20.7680  -14.5173   21.3031 C   0  0  0  0  0  0  0  0  0  0  0  0
  -23.0787  -14.8485   22.1233 C   0  0  0  0  0  0  0  0  0  0  0  0
  -26.6068  -26.4975   17.1492 C   0  0  1  0  0  0  0  0  0  0  0  0
  -23.3381  -26.6749   19.0773 C   0  0  1  0  0  0  0  0  0  0  0  0
  -23.6087  -13.8072   21.1216 C   0  0  2  0  0  0  0  0  0  0  0  0
  -26.7016  -15.6693   26.0644 C   0  0  0  0  0  0  0  0  0  0  0  0
  -18.9548  -30.0300   24.5117 C   0  0  0  0  0  0  0  0  0  0  0  0
  -26.6642  -20.8964   23.9634 C   0  0  0  0  0  0  0  0  0  0  0  0
  -21.3698  -14.2683   26.1942 C   0  0  0  0  0  0  0  0  0  0  0  0
  -23.0582  -13.2562   24.6582 C   0  0  0  0  0  0  0  0  0  0  0  0
  -25.0886  -29.7739   22.0255 C   0  0  0  0  0  0  0  0  0  0  0  0
  -23.5400  -30.5293   23.8419 C   0  0  0  0  0  0  0  0  0  0  0  0
  -23.2039  -31.3329   21.5044 C   0  0  0  0  0  0  0  0  0  0  0  0
  -18.1555  -26.8398   22.5987 C   0  0  0  0  0  0  0  0  0  0  0  0
  -24.7958  -19.5394   24.9529 C   0  0  0  0  0  0  0  0  0  0  0  0
  -26.1065  -17.0668   25.9195 C   0  0  0  0  0  0  0  0  0  0  0  0
  -24.6554  -20.3465   22.5397 C   0  0  0  0  0  0  0  0  0  1  0  0
  -22.6474  -28.9355   22.0829 C   0  0  1  0  0  0  0  0  0  0  0  0
  -19.0870  -29.0211   23.3815 C   0  0  2  0  0  0  0  0  0  0  0  0
  -25.5793  -19.8544   23.6629 C   0  0  1  0  0  0  0  0  0  0  0  0
  -22.1545  -14.5050   24.8756 C   0  0  0  0  0  0  0  0  0  0  0  0
  -23.6222  -30.1153   22.3571 C   0  0  0  0  0  0  0  0  0  0  0  0
  -22.1591  -16.8793   24.4342 N   0  0  0  0  0  0  0  0  0  0  0  0
  -25.4901  -15.3431   20.6920 N   0  0  0  0  0  0  0  0  0  0  0  0
  -24.1096  -15.8287   25.3823 N   0  0  0  0  0  0  0  0  0  0  0  0
  -25.0533  -14.0730   20.7400 N   0  0  0  0  0  0  0  0  0  0  0  0
  -23.0740  -27.1318   20.4432 N   0  0  0  0  0  0  0  0  0  0  0  0
  -21.6717  -14.5822   22.4531 N   0  0  0  0  0  0  0  0  0  0  0  0
  -25.7374  -11.8272   20.4255 N   0  0  0  0  0  0  0  0  0  0  0  0
  -29.3311  -12.9892   20.7835 N   0  0  0  0  0  0  0  0  0  0  0  0
  -25.2252  -26.4549   17.5778 N   0  0  0  0  0  0  0  0  0  0  0  0
  -21.2481  -29.2393   22.3623 N   0  0  0  0  0  0  0  0  0  0  0  0
  -18.1468  -27.8951   23.6443 N   0  3  0  0  0  0  0  0  0  0  0  0
  -28.7317  -13.1292   18.5745 O   0  0  0  0  0  0  0  0  0  0  0  0
  -25.5415  -27.1578   19.7752 O   0  0  0  0  0  0  0  0  0  0  0  0
  -22.4120  -29.2554   19.7444 O   0  0  0  0  0  0  0  0  0  0  0  0
  -19.9703  -14.2385   23.9981 O   0  0  0  0  0  0  0  0  0  0  0  0
  -20.9257  -27.5474   23.9150 O   0  0  0  0  0  0  0  0  0  0  0  0
  -29.9926  -19.7364   19.7056 O   0  0  0  0  0  0  0  0  0  0  0  0
  -24.0248  -21.5663   22.9280 O   0  0  0  0  0  0  0  0  0  1  0  0
  -28.1578  -24.4966   21.7980 F   0  0  0  0  0  0  0  0  0  0  0  0
  -27.6052  -20.8358   18.8486 F   0  0  0  0  0  0  0  0  0  0  0  0
  1  2  1  0  0  0  0
  1  5  2  0  0  0  0
  2  6  2  0  0  0  0
  3  8  2  0  0  0  0
  3 16  1  0  0  0  0
  4  9  1  0  0  0  0
  4 16  2  0  0  0  0
  5 18  1  0  0  0  0
  6 20  1  0  0  0  0
  7 10  2  0  0  0  0
  7 19  1  0  0  0  0
  8 23  1  0  0  0  0
  9 23  2  0  0  0  0
 10 24  1  0  0  0  0
 11 12  2  0  0  0  0
 11 25  1  0  0  0  0
 12 26  1  0  0  0  0
 13 21  1  0  0  0  0
 13 24  2  0  0  0  0
 14 26  2  0  0  0  0
 14 27  1  0  0  0  0
 15 22  1  0  0  0  0
 15 66  2  0  0  0  0
 16 28  1  0  0  0  0
 17 28  1  0  0  0  0
 17 30  2  0  0  0  0
 17 32  1  0  0  0  0
 18 20  2  0  0  0  0
 18 37  1  0  0  0  0
 19 21  2  0  0  0  0
 19 38  1  0  0  0  0
 20 46  1  0  0  0  0
 21 39  1  0  0  0  0
 22 29  2  0  0  0  0
 22 58  1  0  0  0  0
 23 82  1  0  0  0  0
 24 83  1  0  0  0  0
 25 27  2  0  0  0  0
 25 82  1  0  0  0  0
 26 84  1  0  0  0  0
 27 85  1  0  0  0  0
 28 67  2  0  0  0  0
 29 59  1  0  0  0  0
 29 68  1  0  0  0  0
 30 69  1  0  0  0  0
 30 72  1  0  0  0  0
 31 64  1  0  0  0  0
 31 66  1  0  0  0  0
 31 68  2  0  0  0  0
 32 73  1  0  0  0  0
 32 77  2  0  0  0  0
 33 47  1  0  0  0  0
 33 74  1  0  0  0  0
 33 78  2  0  0  0  0
 34 61  1  0  0  0  0
 34 70  1  0  0  0  0
 34 79  2  0  0  0  0
 35 64  1  0  0  0  0
 35 71  1  0  0  0  0
 35 80  2  0  0  0  0
 36 62  1  0  0  0  0
 36 75  1  0  0  0  0
 36 81  2  0  0  0  0
 37 40  1  0  0  0  0
 38 47  1  0  0  0  0
 39 70  1  0  0  0  0
 40 42  1  0  0  0  0
 41 43  1  0  0  0  0
 41 44  1  0  0  0  0
 42 46  1  0  0  0  0
 43 48  1  0  0  0  0
 44 71  1  0  0  0  0
 45 48  1  0  0  0  0
 45 71  1  0  0  0  0
 46 74  1  0  0  0  0
 47 70  1  0  0  0  0
 48 69  1  0  0  0  0
 49 59  1  0  0  0  0
 50 62  1  0  0  0  0
 51 63  1  0  0  0  0
 52 64  1  0  0  0  0
 53 64  1  0  0  0  0
 54 65  1  0  0  0  0
 55 65  1  0  0  0  0
 56 65  1  0  0  0  0
 57 76  1  0  0  0  0
 58 63  1  0  0  0  0
 60 63  1  0  0  0  0
 60 83  1  0  0  0  0
 61 65  1  0  0  0  0
 61 75  1  0  0  0  0
 62 76  1  0  0  0  0
 67 69  1  0  0  0  0
M  CHG  1  76   1
M  ISO  4  35 100  60 101  64 100  83 101
M  END
> <Batch ID>
0068

> <Smiles>
CCc1nc([100C:0](C)(C)[100C:0](=O)N2CCCC(n3nc(-c4ccc(Oc5ccc(F)cc5F)cc4)c(C(N)=O)c3N)C2)ncc1CC(C)[101CH2:1][101O:1]c1ccc2c(c1)CN(C(=O)C(NC(=O)C(C)NC)C(C)(C)C)C(C(=O)NC1CCCc3ccccc31)C2

> <Shape>
0.214

> <Color>
0.059

> <Negative vol penalty>
0.000

$$$$

  -OEChem-04052318143D

 83 91  0     1  0  0  0  0  0999 V2000
  -33.1039  -33.1395   21.9681 C   0  0  0  0  0  0  0  0  0  0  0  0
  -33.0651  -31.9195   22.6357 C   0  0  0  0  0  0  0  0  0  0  0  0
  -23.0675   -9.8445   19.9676 C   0  0  0  0  0  0  0  0  0  0  0  0
  -23.8524   -9.8756   22.2524 C   0  0  0  0  0  0  0  0  0  0  0  0
  -32.6150  -33.2361   20.6659 C   0  0  0  0  0  0  0  0  0  0  0  0
  -32.5363  -30.7957   22.0018 C   0  0  0  0  0  0  0  0  0  0  0  0
  -35.4008  -26.6706   22.6526 C   0  0  0  0  0  0  0  0  0  0  0  0
  -22.3322   -8.6900   20.2359 C   0  0  0  0  0  0  0  0  0  0  0  0
  -23.1170   -8.7211   22.5207 C   0  0  0  0  0  0  0  0  0  0  0  0
  -35.3041  -26.0153   23.8794 C   0  0  0  0  0  0  0  0  0  0  0  0
  -19.8997   -7.9127   23.1655 C   0  0  0  0  0  0  0  0  0  0  0  0
  -19.1558   -7.8795   24.3449 C   0  0  0  0  0  0  0  0  0  0  0  0
  -33.8317  -24.3837   22.8849 C   0  0  0  0  0  0  0  0  0  0  0  0
  -20.4148   -5.9548   25.0848 C   0  0  0  0  0  0  0  0  0  0  0  0
  -31.1305  -17.9342   21.2006 C   0  0  0  0  0  0  0  0  0  0  0  0
  -32.7005  -17.6097   23.3354 C   0  0  0  0  0  0  0  0  0  0  0  0
  -23.8277  -10.4373   20.9758 C   0  0  0  0  0  0  0  0  0  0  0  0
  -24.1555  -12.9629   20.8298 C   0  0  0  0  0  0  0  0  0  0  0  0
  -32.0889  -32.1106   20.0123 C   0  0  0  0  0  0  0  0  0  0  0  0
  -34.7039  -26.1928   21.5335 C   0  0  0  0  0  0  0  0  0  0  0  0
  -32.0387  -30.8776   20.6902 C   0  0  0  0  0  0  0  0  0  0  0  0
  -33.9233  -25.0332   21.6444 C   0  0  0  0  0  0  0  0  0  0  0  0
  -22.3569   -8.1283   21.5124 C   0  0  0  0  0  0  0  0  0  0  0  0
  -34.5171  -24.8733   23.9964 C   0  0  0  0  0  0  0  0  0  0  0  0
  -20.9011   -6.9670   22.9457 C   0  0  0  0  0  0  0  0  0  0  0  0
  -19.4133   -6.9005   25.3046 C   0  0  0  0  0  0  0  0  0  0  0  0
  -21.1587   -5.9880   23.9053 C   0  0  0  0  0  0  0  0  0  0  0  0
  -24.5879  -11.6296   20.6992 C   0  0  0  0  0  0  0  0  0  0  0  0
  -31.0690  -16.7869   21.9605 C   0  0  0  0  0  0  0  0  0  0  0  0
  -32.7627  -18.7568   22.5752 C   0  0  0  0  0  0  0  0  0  0  0  0
  -25.2398  -13.7145   20.4480 C   0  0  0  0  0  0  0  0  0  0  0  0
  -22.8871  -13.4762   21.2580 C   0  0  0  0  0  0  0  0  0  0  0  0
  -32.4265  -27.3548   19.6449 C   0  0  0  0  0  0  0  0  0  0  0  0
  -30.7424  -14.6967   20.6645 C   0  0  0  0  0  0  0  0  0  0  0  0
  -32.9820  -24.6403   17.9583 C   0  0  0  0  0  0  0  0  0  0  0  0
  -34.1312  -21.4269   17.9365 C   0  0  0  0  0  0  0  0  0  0  0  0
  -31.5289  -32.2746   18.6215 C   0  0  0  0  0  0  0  0  0  0  0  0
  -34.8400  -26.8958   20.2108 C   0  0  0  0  0  0  0  0  0  0  0  0
  -33.1713  -24.4680   20.4682 C   0  0  0  0  0  0  0  0  0  0  0  0
  -31.3284  -30.9522   17.8858 C   0  0  0  0  0  0  0  0  0  0  0  0
  -29.5619  -12.3724   18.2061 C   0  0  0  0  0  0  0  0  0  0  0  0
  -30.6402  -29.9362   18.7918 C   0  0  0  0  0  0  0  0  0  0  0  0
  -28.1380  -12.0585   18.6633 C   0  0  0  0  0  0  0  0  0  0  0  0
  -30.4945  -12.5902   19.3935 C   0  0  0  0  0  0  0  0  0  0  0  0
  -28.6029  -13.3280   20.8075 C   0  0  0  0  0  0  0  0  0  0  0  0
  -31.4956  -29.6303   20.0273 C   0  0  1  0  0  0  0  0  0  0  0  0
  -33.6778  -26.6159   19.2630 C   0  0  1  0  0  0  0  0  0  0  0  0
  -27.6215  -13.1312   19.6385 C   0  0  2  0  0  0  0  0  0  0  0  0
  -34.4215  -19.4489   16.4197 C   0  0  0  0  0  0  0  0  0  0  0  0
  -29.9921  -24.0613   18.1450 C   0  0  0  0  0  0  0  0  0  0  0  0
  -30.4795  -21.6965   17.4828 C   0  0  0  0  0  0  0  0  0  0  0  0
  -31.0139  -23.5636   15.9173 C   0  0  0  0  0  0  0  0  0  0  0  0
  -33.6394  -22.5213   26.6719 C   0  0  0  0  0  0  0  0  0  0  0  0
  -32.1705  -23.5009   24.8976 C   0  0  0  0  0  0  0  0  0  0  0  0
  -37.0684  -21.4330   18.2994 C   0  0  0  0  0  0  0  0  0  0  0  0
  -30.1197  -15.6960   21.6067 C   0  0  0  0  0  0  0  0  0  0  0  0
  -33.7239  -19.8619   22.9338 C   0  0  0  0  0  0  0  0  0  0  0  0
  -33.1379  -20.9066   23.8927 C   0  0  0  0  0  0  0  0  0  0  0  0
  -34.1429  -22.0098   24.2591 C   0  0  0  0  0  0  0  0  0  0  0  0
  -32.4326  -23.2344   17.9839 C   0  0  1  0  0  0  0  0  0  0  0  0
  -35.0707  -20.6995   16.9917 C   0  0  2  0  0  0  0  0  0  0  0  0
  -30.9920  -23.1504   17.4051 C   0  0  0  0  0  0  0  0  0  0  0  0
  -33.5965  -23.0680   25.2411 C   0  0  0  0  0  0  0  0  0  1  0  0
  -31.8526  -16.6041   23.0416 N   0  0  0  0  0  0  0  0  0  0  0  0
  -31.9788  -18.9396   21.4942 N   0  0  0  0  0  0  0  0  0  0  0  0
  -25.8486  -11.5363   20.2679 N   0  0  0  0  0  0  0  0  0  0  0  0
  -26.2176  -12.8205   20.1242 N   0  0  0  0  0  0  0  0  0  0  0  0
  -33.3313  -25.1946   19.1978 N   0  0  0  0  0  0  0  0  0  0  0  0
  -29.9577  -13.6000   20.3076 N   0  0  0  0  0  0  0  0  0  0  0  0
  -25.4427  -15.0463   20.3609 N   0  0  0  0  0  0  0  0  0  0  0  0
  -21.8835  -12.5651   21.6144 N   0  0  0  0  0  0  0  0  0  0  0  0
  -32.5740  -28.7282   19.6846 N   0  0  0  0  0  0  0  0  0  0  0  0
  -33.4066  -22.4027   17.2853 N   0  0  0  0  0  0  0  0  0  0  0  0
  -36.3154  -20.2981   17.7063 N   0  3  0  0  0  0  0  0  0  0  0  0
  -22.6453  -14.7061   21.3071 O   0  0  0  0  0  0  0  0  0  0  0  0
  -31.4025  -26.7257   19.8844 O   0  0  0  0  0  0  0  0  0  0  0  0
  -31.8909  -14.8884   20.2568 O   0  0  0  0  0  0  0  0  0  0  0  0
  -33.1037  -25.2224   16.8775 O   0  0  0  0  0  0  0  0  0  0  0  0
  -34.0457  -21.1540   19.1318 O   0  0  0  0  0  0  0  0  0  0  0  0
  -21.6394   -7.0018   21.7746 O   0  0  0  0  0  0  0  0  0  0  0  0
  -34.4204  -24.2322   25.1928 O   0  0  0  0  0  0  0  0  0  1  0  0
  -18.6999   -6.8697   26.4379 F   0  0  0  0  0  0  0  0  0  0  0  0
  -22.1204   -5.0775   23.7003 F   0  0  0  0  0  0  0  0  0  0  0  0
  1  2  1  0  0  0  0
  1  5  2  0  0  0  0
  2  6  2  0  0  0  0
  3  8  2  0  0  0  0
  3 17  1  0  0  0  0
  4  9  1  0  0  0  0
  4 17  2  0  0  0  0
  5 19  1  0  0  0  0
  6 21  1  0  0  0  0
  7 10  2  0  0  0  0
  7 20  1  0  0  0  0
  8 23  1  0  0  0  0
  9 23  2  0  0  0  0
 10 24  1  0  0  0  0
 11 12  2  0  0  0  0
 11 25  1  0  0  0  0
 12 26  1  0  0  0  0
 13 22  1  0  0  0  0
 13 24  2  0  0  0  0
 14 26  2  0  0  0  0
 14 27  1  0  0  0  0
 15 29  2  0  0  0  0
 15 65  1  0  0  0  0
 16 30  1  0  0  0  0
 16 64  2  0  0  0  0
 17 28  1  0  0  0  0
 18 28  1  0  0  0  0
 18 31  2  0  0  0  0
 18 32  1  0  0  0  0
 19 21  2  0  0  0  0
 19 37  1  0  0  0  0
 20 22  2  0  0  0  0
 20 38  1  0  0  0  0
 21 46  1  0  0  0  0
 22 39  1  0  0  0  0
 23 80  1  0  0  0  0
 24 81  1  0  0  0  0
 25 27  2  0  0  0  0
 25 80  1  0  0  0  0
 26 82  1  0  0  0  0
 27 83  1  0  0  0  0
 28 66  2  0  0  0  0
 29 56  1  0  0  0  0
 29 64  1  0  0  0  0
 30 57  1  0  0  0  0
 30 65  2  0  0  0  0
 31 67  1  0  0  0  0
 31 70  1  0  0  0  0
 32 71  1  0  0  0  0
 32 75  2  0  0  0  0
 33 47  1  0  0  0  0
 33 72  1  0  0  0  0
 33 76  2  0  0  0  0
 34 56  1  0  0  0  0
 34 69  1  0  0  0  0
 34 77  2  0  0  0  0
 35 60  1  0  0  0  0
 35 68  1  0  0  0  0
 35 78  2  0  0  0  0
 36 61  1  0  0  0  0
 36 73  1  0  0  0  0
 36 79  2  0  0  0  0
 37 40  1  0  0  0  0
 38 47  1  0  0  0  0
 39 68  1  0  0  0  0
 40 42  1  0  0  0  0
 41 43  1  0  0  0  0
 41 44  1  0  0  0  0
 42 46  1  0  0  0  0
 43 48  1  0  0  0  0
 44 69  1  0  0  0  0
 45 48  1  0  0  0  0
 45 69  1  0  0  0  0
 46 72  1  0  0  0  0
 47 68  1  0  0  0  0
 48 67  1  0  0  0  0
 49 61  1  0  0  0  0
 50 62  1  0  0  0  0
 51 62  1  0  0  0  0
 52 62  1  0  0  0  0
 53 63  1  0  0  0  0
 54 63  1  0  0  0  0
 55 74  1  0  0  0  0
 57 58  1  0  0  0  0
 58 59  1  0  0  0  0
 59 63  1  0  0  0  0
 60 62  1  0  0  0  0
 60 73  1  0  0  0  0
 61 74  1  0  0  0  0
 63 81  1  0  0  0  0
 66 67  1  0  0  0  0
M  CHG  1  74   1
M  ISO  4  34 100  56 100  63 101  81 101
M  END
> <Batch ID>
0068

> <Smiles>
CNC(C)C(=O)NC(C(=O)N1Cc2cc([101O:1][101C:1](C)(C)CCCc3cnc([100CH2:0][100C:0](=O)N4CCCC(n5nc(-c6ccc(Oc7ccc(F)cc7F)cc6)c(C(N)=O)c5N)C4)cn3)ccc2CC1C(=O)NC1CCCc2ccccc21)C(C)(C)C

> <Shape>
0.199

> <Color>
0.192

> <Negative vol penalty>
0.000

$$$$

  -OEChem-04052318143D

 84 92  0     1  0  0  0  0  0999 V2000
  -18.0751  -26.9869   19.2301 C   0  0  0  0  0  0  0  0  0  0  0  0
  -19.3391  -27.4871   18.9342 C   0  0  0  0  0  0  0  0  0  0  0  0
  -27.6700  -17.5091   20.9115 C   0  0  0  0  0  0  0  0  0  0  0  0
  -28.3391  -17.5522   18.5904 C   0  0  0  0  0  0  0  0  0  0  0  0
  -17.6511  -26.9069   20.5559 C   0  0  0  0  0  0  0  0  0  0  0  0
  -20.1795  -27.9086   19.9640 C   0  0  0  0  0  0  0  0  0  0  0  0
  -24.9336  -26.2616   19.3889 C   0  0  0  0  0  0  0  0  0  0  0  0
  -26.6996  -16.5525   20.6140 C   0  0  0  0  0  0  0  0  0  0  0  0
  -27.3687  -16.5954   18.2929 C   0  0  0  0  0  0  0  0  0  0  0  0
  -25.7344  -26.9367   18.4688 C   0  0  0  0  0  0  0  0  0  0  0  0
  -26.5765  -13.2208   20.0504 C   0  0  0  0  0  0  0  0  0  0  0  0
  -26.4639  -12.1242   20.9050 C   0  0  0  0  0  0  0  0  0  0  0  0
  -26.7684  -28.1581   20.2739 C   0  0  0  0  0  0  0  0  0  0  0  0
  -24.1761  -12.7340   21.3859 C   0  0  0  0  0  0  0  0  0  0  0  0
  -32.5872  -28.4683   16.5937 C   0  0  0  0  0  0  0  0  0  0  0  0
  -32.8135  -26.5378   15.5657 C   0  0  0  0  0  0  0  0  0  0  0  0
  -28.4898  -18.0091   19.8997 C   0  0  0  0  0  0  0  0  0  0  0  0
  -30.8274  -18.7651   20.5867 C   0  0  0  0  0  0  0  0  0  0  0  0
  -18.4905  -27.3186   21.6031 C   0  0  0  0  0  0  0  0  0  0  0  0
  -25.0367  -26.5379   20.7598 C   0  0  0  0  0  0  0  0  0  0  0  0
  -19.7659  -27.8353   21.3050 C   0  0  0  0  0  0  0  0  0  0  0  0
  -25.9695  -27.4832   21.2096 C   0  0  0  0  0  0  0  0  0  0  0  0
  -32.0758  -27.6959   15.5336 C   0  0  0  0  0  0  0  0  0  0  0  0
  -26.5489  -16.0956   19.3047 C   0  0  0  0  0  0  0  0  0  0  0  0
  -26.6499  -27.8872   18.9109 C   0  0  0  0  0  0  0  0  0  0  0  0
  -25.4890  -14.0740   19.8636 C   0  0  0  0  0  0  0  0  0  0  0  0
  -25.2637  -11.8808   21.5728 C   0  0  0  0  0  0  0  0  0  0  0  0
  -24.2888  -13.8306   20.5313 C   0  0  0  0  0  0  0  0  0  0  0  0
  -29.4921  -18.9978   20.2062 C   0  0  0  0  0  0  0  0  0  0  0  0
  -31.3580  -20.0197   20.7620 C   0  0  0  0  0  0  0  0  0  0  0  0
  -31.5256  -17.5256   20.7654 C   0  0  0  0  0  0  0  0  0  0  0  0
  -23.0579  -27.6704   22.9747 C   0  0  0  0  0  0  0  0  0  0  0  0
  -25.5154  -26.9681   24.9721 C   0  0  0  0  0  0  0  0  0  0  0  0
  -28.8658  -26.4596   25.3763 C   0  0  0  0  0  0  0  0  0  0  0  0
  -32.0417  -25.2945   19.0725 C   0  0  0  0  0  0  0  0  0  0  0  0
  -17.9702  -27.2572   23.0174 C   0  0  0  0  0  0  0  0  0  0  0  0
  -24.1845  -25.7818   21.7419 C   0  0  0  0  0  0  0  0  0  0  0  0
  -26.1333  -27.8019   22.6725 C   0  0  0  0  0  0  0  0  0  0  0  0
  -19.0649  -27.3752   24.0748 C   0  0  0  0  0  0  0  0  0  0  0  0
  -29.1113  -24.5477   20.9517 C   0  0  0  0  0  0  0  0  0  0  0  0
  -20.0122  -28.5220   23.7367 C   0  0  0  0  0  0  0  0  0  0  0  0
  -29.0561  -23.0190   20.9512 C   0  0  0  0  0  0  0  0  0  0  0  0
  -29.6354  -25.0939   19.6255 C   0  0  0  0  0  0  0  0  0  0  0  0
  -30.8767  -23.0088   19.1950 C   0  0  0  0  0  0  0  0  0  0  0  0
  -20.7159  -28.2793   22.3960 C   0  0  1  0  0  0  0  0  0  0  0  0
  -24.0112  -26.5129   23.0696 C   0  0  1  0  0  0  0  0  0  0  0  0
  -30.4072  -22.4093   20.5316 C   0  0  2  0  0  0  0  0  0  0  0  0
  -31.0055  -25.8554   26.5399 C   0  0  0  0  0  0  0  0  0  0  0  0
  -25.3600  -29.8463   25.9730 C   0  0  0  0  0  0  0  0  0  0  0  0
  -27.6324  -29.5453   26.9799 C   0  0  0  0  0  0  0  0  0  0  0  0
  -25.7271  -28.1380   27.7622 C   0  0  0  0  0  0  0  0  0  0  0  0
  -34.6863  -24.4187   16.1888 C   0  0  0  0  0  0  0  0  0  0  0  0
  -36.0796  -26.3486   16.8891 C   0  0  0  0  0  0  0  0  0  0  0  0
  -28.5749  -23.5991   24.6750 C   0  0  0  0  0  0  0  0  0  0  0  0
  -30.9660  -28.0555   14.5782 C   0  0  0  0  0  0  0  0  0  0  0  0
  -29.5738  -27.6308   15.0584 C   0  0  0  0  0  0  0  0  0  0  0  0
  -29.1478  -28.3283   16.3511 C   0  0  0  0  0  0  0  0  0  0  0  0
  -34.4610  -25.3322   18.5205 C   0  0  0  0  0  0  0  0  0  0  0  0
  -27.7788  -27.8525   16.8180 C   0  0  0  0  0  0  0  0  0  1  0  0
  -26.7270  -27.7123   25.4794 C   0  0  1  0  0  0  0  0  0  0  0  0
  -29.6399  -25.3635   26.0862 C   0  0  2  0  0  0  0  0  0  0  0  0
  -26.3574  -28.8061   26.5208 C   0  0  0  0  0  0  0  0  0  0  0  0
  -34.6733  -25.7179   17.0311 C   0  0  0  0  0  0  0  0  0  0  0  0
  -33.5734  -27.8527   17.2513 N   0  0  0  0  0  0  0  0  0  0  0  0
  -29.1929  -20.2980   20.1436 N   0  0  0  0  0  0  0  0  0  0  0  0
  -33.6876  -26.6811   16.6028 N   0  0  0  0  0  0  0  0  0  0  0  0
  -30.3476  -20.8936   20.4871 N   0  0  0  0  0  0  0  0  0  0  0  0
  -25.2728  -27.0406   23.5931 N   0  0  0  0  0  0  0  0  0  0  0  0
  -30.9198  -24.4767   19.2860 N   0  0  0  0  0  0  0  0  0  0  0  0
  -32.5857  -20.4496   21.1232 N   0  0  0  0  0  0  0  0  0  0  0  0
  -30.8303  -16.3291   20.5436 N   0  0  0  0  0  0  0  0  0  0  0  0
  -21.7887  -27.3211   22.5545 N   0  0  0  0  0  0  0  0  0  0  0  0
  -27.6490  -26.6983   25.9795 N   0  0  0  0  0  0  0  0  0  0  0  0
  -33.2210  -24.6286   18.7615 N   0  0  0  0  0  0  0  0  0  0  0  0
  -29.8377  -24.1981   25.1787 N   0  3  0  0  0  0  0  0  0  0  0  0
  -32.7257  -17.4803   21.1275 O   0  0  0  0  0  0  0  0  0  0  0  0
  -23.4448  -28.7969   23.2629 O   0  0  0  0  0  0  0  0  0  0  0  0
  -24.8143  -26.3395   25.7690 O   0  0  0  0  0  0  0  0  0  0  0  0
  -29.2989  -27.0480   24.3880 O   0  0  0  0  0  0  0  0  0  0  0  0
  -31.9970  -26.5264   19.1582 O   0  0  0  0  0  0  0  0  0  0  0  0
  -25.6022  -15.1618   19.0141 O   0  0  0  0  0  0  0  0  0  0  0  0
  -27.4324  -28.5481   18.0149 O   0  0  0  0  0  0  0  0  0  1  0  0
  -25.1551  -10.8268   22.3922 F   0  0  0  0  0  0  0  0  0  0  0  0
  -23.2401  -14.6461   20.3548 F   0  0  0  0  0  0  0  0  0  0  0  0
  1  2  1  0  0  0  0
  1  5  2  0  0  0  0
  2  6  2  0  0  0  0
  3  8  2  0  0  0  0
  3 17  1  0  0  0  0
  4  9  1  0  0  0  0
  4 17  2  0  0  0  0
  5 19  1  0  0  0  0
  6 21  1  0  0  0  0
  7 10  2  0  0  0  0
  7 20  1  0  0  0  0
  8 24  1  0  0  0  0
  9 24  2  0  0  0  0
 10 25  1  0  0  0  0
 11 12  2  0  0  0  0
 11 26  1  0  0  0  0
 12 27  1  0  0  0  0
 13 22  1  0  0  0  0
 13 25  2  0  0  0  0
 14 27  2  0  0  0  0
 14 28  1  0  0  0  0
 15 23  1  0  0  0  0
 15 64  2  0  0  0  0
 16 23  2  0  0  0  0
 16 66  1  0  0  0  0
 17 29  1  0  0  0  0
 18 29  1  0  0  0  0
 18 30  2  0  0  0  0
 18 31  1  0  0  0  0
 19 21  2  0  0  0  0
 19 36  1  0  0  0  0
 20 22  2  0  0  0  0
 20 37  1  0  0  0  0
 21 45  1  0  0  0  0
 22 38  1  0  0  0  0
 23 55  1  0  0  0  0
 24 81  1  0  0  0  0
 25 82  1  0  0  0  0
 26 28  2  0  0  0  0
 26 81  1  0  0  0  0
 27 83  1  0  0  0  0
 28 84  1  0  0  0  0
 29 65  2  0  0  0  0
 30 67  1  0  0  0  0
 30 70  1  0  0  0  0
 31 71  1  0  0  0  0
 31 76  2  0  0  0  0
 32 46  1  0  0  0  0
 32 72  1  0  0  0  0
 32 77  2  0  0  0  0
 33 60  1  0  0  0  0
 33 68  1  0  0  0  0
 33 78  2  0  0  0  0
 34 61  1  0  0  0  0
 34 73  1  0  0  0  0
 34 79  2  0  0  0  0
 35 69  1  0  0  0  0
 35 74  1  0  0  0  0
 35 80  2  0  0  0  0
 36 39  1  0  0  0  0
 37 46  1  0  0  0  0
 38 68  1  0  0  0  0
 39 41  1  0  0  0  0
 40 42  1  0  0  0  0
 40 43  1  0  0  0  0
 41 45  1  0  0  0  0
 42 47  1  0  0  0  0
 43 69  1  0  0  0  0
 44 47  1  0  0  0  0
 44 69  1  0  0  0  0
 45 72  1  0  0  0  0
 46 68  1  0  0  0  0
 47 67  1  0  0  0  0
 48 61  1  0  0  0  0
 49 62  1  0  0  0  0
 50 62  1  0  0  0  0
 51 62  1  0  0  0  0
 52 63  1  0  0  0  0
 53 63  1  0  0  0  0
 54 75  1  0  0  0  0
 55 56  1  0  0  0  0
 56 57  1  0  0  0  0
 57 59  1  0  0  0  0
 58 63  1  0  0  0  0
 58 74  1  0  0  0  0
 59 82  1  0  0  0  0
 60 62  1  0  0  0  0
 60 73  1  0  0  0  0
 61 75  1  0  0  0  0
 63 66  1  0  0  0  0
 64 66  1  0  0  0  0
 65 67  1  0  0  0  0
M  CHG  1  75   1
M  ISO  4  35 100  59 101  74 100  82 101
M  END
> <Batch ID>
0068

> <Smiles>
CNC(C)C(=O)NC(C(=O)N1Cc2cc([101O:1][101CH2:1]CCCc3cnn(C(C)(C)C[100NH:0][100C:0](=O)N4CCCC(n5nc(-c6ccc(Oc7ccc(F)cc7F)cc6)c(C(N)=O)c5N)C4)c3)ccc2CC1C(=O)NC1CCCc2ccccc21)C(C)(C)C

> <Shape>
0.200

> <Color>
0.083

> <Negative vol penalty>
0.000

$$$$

  -OEChem-04052318143D

 84 92  0     1  0  0  0  0  0999 V2000
  -18.1064  -33.4657   22.8808 C   0  0  0  0  0  0  0  0  0  0  0  0
  -19.3410  -33.5017   22.2406 C   0  0  0  0  0  0  0  0  0  0  0  0
  -26.8925  -13.6806   21.9486 C   0  0  0  0  0  0  0  0  0  0  0  0
  -26.4017  -13.6835   19.5830 C   0  0  0  0  0  0  0  0  0  0  0  0
  -17.8233  -32.4471   23.7898 C   0  0  0  0  0  0  0  0  0  0  0  0
  -20.2937  -32.5197   22.5099 C   0  0  0  0  0  0  0  0  0  0  0  0
  -25.5828  -28.8590   19.3572 C   0  0  0  0  0  0  0  0  0  0  0  0
  -26.0909  -12.5512   22.1136 C   0  0  0  0  0  0  0  0  0  0  0  0
  -25.6001  -12.5540   19.7479 C   0  0  0  0  0  0  0  0  0  0  0  0
  -26.9278  -28.5390   19.5377 C   0  0  0  0  0  0  0  0  0  0  0  0
  -26.3458   -9.2190   21.5991 C   0  0  0  0  0  0  0  0  0  0  0  0
  -26.8439   -8.1798   22.3849 C   0  0  0  0  0  0  0  0  0  0  0  0
  -26.2985  -26.7829   21.0671 C   0  0  0  0  0  0  0  0  0  0  0  0
  -24.9627   -8.4111   23.8832 C   0  0  0  0  0  0  0  0  0  0  0  0
  -28.2565  -25.1436   17.6546 C   0  0  0  0  0  0  0  0  0  0  0  0
  -29.9720  -23.5599   17.5820 C   0  0  0  0  0  0  0  0  0  0  0  0
  -27.0479  -14.2469   20.6833 C   0  0  0  0  0  0  0  0  0  0  0  0
  -29.2534  -15.4446   20.2263 C   0  0  0  0  0  0  0  0  0  0  0  0
  -18.7694  -31.4467   24.0632 C   0  0  0  0  0  0  0  0  0  0  0  0
  -24.5845  -28.1491   20.0398 C   0  0  0  0  0  0  0  0  0  0  0  0
  -20.0234  -31.4876   23.4244 C   0  0  0  0  0  0  0  0  0  0  0  0
  -24.9415  -27.0940   20.8916 C   0  0  0  0  0  0  0  0  0  0  0  0
  -29.5435  -24.7986   18.0135 C   0  0  0  0  0  0  0  0  0  0  0  0
  -25.4447  -11.9878   21.0133 C   0  0  0  0  0  0  0  0  0  0  0  0
  -27.2859  -27.5028   20.3950 C   0  0  0  0  0  0  0  0  0  0  0  0
  -25.1562   -9.8544   21.9554 C   0  0  0  0  0  0  0  0  0  0  0  0
  -26.1524   -7.7758   23.5269 C   0  0  0  0  0  0  0  0  0  0  0  0
  -24.4647   -9.4504   23.0974 C   0  0  0  0  0  0  0  0  0  0  0  0
  -27.8753  -15.4140   20.5124 C   0  0  0  0  0  0  0  0  0  0  0  0
  -29.5614  -16.7816   20.1632 C   0  0  0  0  0  0  0  0  0  0  0  0
  -27.9753  -23.1661   16.5694 C   0  0  0  0  0  0  0  0  0  0  0  0
  -30.1728  -14.3612   20.0347 C   0  0  0  0  0  0  0  0  0  0  0  0
  -22.3534  -28.9072   22.1732 C   0  0  0  0  0  0  0  0  0  0  0  0
  -21.4271  -25.8319   21.7187 C   0  0  0  0  0  0  0  0  0  0  0  0
  -22.2652  -22.6648   20.7628 C   0  0  0  0  0  0  0  0  0  0  0  0
  -26.3102  -21.6621   18.9540 C   0  0  0  0  0  0  0  0  0  0  0  0
  -18.4355  -30.3926   25.0889 C   0  0  0  0  0  0  0  0  0  0  0  0
  -23.1369  -28.4891   19.8137 C   0  0  0  0  0  0  0  0  0  0  0  0
  -23.9070  -26.2880   21.6322 C   0  0  0  0  0  0  0  0  0  0  0  0
  -19.3594  -29.1785   25.0375 C   0  0  0  0  0  0  0  0  0  0  0  0
  -28.1984  -21.0244   21.9044 C   0  0  0  0  0  0  0  0  0  0  0  0
  -20.8169  -29.6201   24.9504 C   0  0  0  0  0  0  0  0  0  0  0  0
  -28.4540  -19.5169   21.8564 C   0  0  0  0  0  0  0  0  0  0  0  0
  -26.8156  -21.3798   21.3626 C   0  0  0  0  0  0  0  0  0  0  0  0
  -26.7810  -19.3491   19.9666 C   0  0  0  0  0  0  0  0  0  0  0  0
  -21.0736  -30.4264   23.6715 C   0  0  1  0  0  0  0  0  0  0  0  0
  -22.2314  -28.0362   20.9549 C   0  0  1  0  0  0  0  0  0  0  0  0
  -28.1846  -18.9470   20.4508 C   0  0  2  0  0  0  0  0  0  0  0  0
  -21.9413  -20.2438   20.1869 C   0  0  0  0  0  0  0  0  0  0  0  0
  -26.6772  -22.9191   14.4429 C   0  0  0  0  0  0  0  0  0  0  0  0
  -21.6012  -25.4640   24.7426 C   0  0  0  0  0  0  0  0  0  0  0  0
  -21.5750  -22.9879   24.3729 C   0  0  0  0  0  0  0  0  0  0  0  0
  -19.6224  -24.3728   23.6712 C   0  0  0  0  0  0  0  0  0  0  0  0
  -21.6661  -23.2978   17.9345 C   0  0  0  0  0  0  0  0  0  0  0  0
  -30.4230  -25.7147   18.8265 C   0  0  0  0  0  0  0  0  0  0  0  0
  -30.2955  -25.5099   20.3376 C   0  0  0  0  0  0  0  0  0  0  0  0
  -25.8337  -21.7853   16.5216 C   0  0  0  0  0  0  0  0  0  0  0  0
  -28.9051  -25.8283   20.8749 C   0  0  0  0  0  0  0  0  0  1  0  0
  -21.7747  -24.5060   22.3514 C   0  0  1  0  0  0  0  0  0  0  0  0
  -21.5802  -21.6784   19.8342 C   0  0  2  0  0  0  0  0  0  0  0  0
  -27.1039  -22.2576   15.7703 C   0  0  2  0  0  0  0  0  0  0  0  0
  -21.1632  -24.3489   23.7722 C   0  0  0  0  0  0  0  0  0  0  0  0
  -27.4417  -24.3486   16.9304 N   0  0  0  0  0  0  0  0  0  0  0  0
  -29.2114  -22.7147   16.8556 N   0  0  0  0  0  0  0  0  0  0  0  0
  -27.3446  -16.6346   20.6235 N   0  0  0  0  0  0  0  0  0  0  0  0
  -28.3946  -17.4448   20.4062 N   0  0  0  0  0  0  0  0  0  0  0  0
  -22.5053  -26.6628   21.3827 N   0  0  0  0  0  0  0  0  0  0  0  0
  -26.6244  -20.8109   20.0263 N   0  0  0  0  0  0  0  0  0  0  0  0
  -30.7138  -17.4429   19.9242 N   0  0  0  0  0  0  0  0  0  0  0  0
  -29.6897  -13.0494   20.1341 N   0  0  0  0  0  0  0  0  0  0  0  0
  -21.1797  -29.5432   22.5300 N   0  0  0  0  0  0  0  0  0  0  0  0
  -21.3556  -23.4791   21.4036 N   0  0  0  0  0  0  0  0  0  0  0  0
  -26.1521  -21.0423   17.7205 N   0  0  0  0  0  0  0  0  0  0  0  0
  -21.9835  -21.9308   18.4218 N   0  3  0  0  0  0  0  0  0  0  0  0
  -31.3902  -14.5509   19.7991 O   0  0  0  0  0  0  0  0  0  0  0  0
  -23.4322  -28.9946   22.7479 O   0  0  0  0  0  0  0  0  0  0  0  0
  -20.2429  -26.1166   21.5230 O   0  0  0  0  0  0  0  0  0  0  0  0
  -23.4849  -22.7060   20.9082 O   0  0  0  0  0  0  0  0  0  0  0  0
  -26.1856  -22.8844   19.0852 O   0  0  0  0  0  0  0  0  0  0  0  0
  -24.6626  -10.8855   21.1738 O   0  0  0  0  0  0  0  0  0  0  0  0
  -28.5980  -27.1889   20.5735 O   0  0  0  0  0  0  0  0  0  1  0  0
  -26.6300   -6.7767   24.2806 F   0  0  0  0  0  0  0  0  0  0  0  0
  -23.3208  -10.0562   23.4442 F   0  0  0  0  0  0  0  0  0  0  0  0
  -27.7457  -21.0918   15.3834 F   0  0  0  0  0  0  0  0  0  0  0  0
  1  2  1  0  0  0  0
  1  5  2  0  0  0  0
  2  6  2  0  0  0  0
  3  8  2  0  0  0  0
  3 17  1  0  0  0  0
  4  9  1  0  0  0  0
  4 17  2  0  0  0  0
  5 19  1  0  0  0  0
  6 21  1  0  0  0  0
  7 10  2  0  0  0  0
  7 20  1  0  0  0  0
  8 24  1  0  0  0  0
  9 24  2  0  0  0  0
 10 25  1  0  0  0  0
 11 12  2  0  0  0  0
 11 26  1  0  0  0  0
 12 27  1  0  0  0  0
 13 22  1  0  0  0  0
 13 25  2  0  0  0  0
 14 27  2  0  0  0  0
 14 28  1  0  0  0  0
 15 23  1  0  0  0  0
 15 63  2  0  0  0  0
 16 23  2  0  0  0  0
 16 64  1  0  0  0  0
 17 29  1  0  0  0  0
 18 29  1  0  0  0  0
 18 30  2  0  0  0  0
 18 32  1  0  0  0  0
 19 21  2  0  0  0  0
 19 37  1  0  0  0  0
 20 22  2  0  0  0  0
 20 38  1  0  0  0  0
 21 46  1  0  0  0  0
 22 39  1  0  0  0  0
 23 55  1  0  0  0  0
 24 80  1  0  0  0  0
 25 81  1  0  0  0  0
 26 28  2  0  0  0  0
 26 80  1  0  0  0  0
 27 82  1  0  0  0  0
 28 83  1  0  0  0  0
 29 65  2  0  0  0  0
 30 66  1  0  0  0  0
 30 69  1  0  0  0  0
 31 61  1  0  0  0  0
 31 63  1  0  0  0  0
 31 64  2  0  0  0  0
 32 70  1  0  0  0  0
 32 75  2  0  0  0  0
 33 47  1  0  0  0  0
 33 71  1  0  0  0  0
 33 76  2  0  0  0  0
 34 59  1  0  0  0  0
 34 67  1  0  0  0  0
 34 77  2  0  0  0  0
 35 60  1  0  0  0  0
 35 72  1  0  0  0  0
 35 78  2  0  0  0  0
 36 68  1  0  0  0  0
 36 73  1  0  0  0  0
 36 79  2  0  0  0  0
 37 40  1  0  0  0  0
 38 47  1  0  0  0  0
 39 67  1  0  0  0  0
 40 42  1  0  0  0  0
 41 43  1  0  0  0  0
 41 44  1  0  0  0  0
 42 46  1  0  0  0  0
 43 48  1  0  0  0  0
 44 68  1  0  0  0  0
 45 48  1  0  0  0  0
 45 68  1  0  0  0  0
 46 71  1  0  0  0  0
 47 67  1  0  0  0  0
 48 66  1  0  0  0  0
 49 60  1  0  0  0  0
 50 61  1  0  0  0  0
 51 62  1  0  0  0  0
 52 62  1  0  0  0  0
 53 62  1  0  0  0  0
 54 74  1  0  0  0  0
 55 56  1  0  0  0  0
 56 58  1  0  0  0  0
 57 61  1  0  0  0  0
 57 73  1  0  0  0  0
 58 81  1  0  0  0  0
 59 62  1  0  0  0  0
 59 72  1  0  0  0  0
 60 74  1  0  0  0  0
 61 84  1  0  0  0  0
 65 66  1  0  0  0  0
M  CHG  1  74   1
M  ISO  4  36 100  58 101  73 100  81 101
M  END
> <Batch ID>
0068

> <Smiles>
CNC(C)C(=O)NC(C(=O)N1Cc2cc([101O:1][101CH2:1]CCc3cnc(C(C)(F)C[100NH:0][100C:0](=O)N4CCCC(n5nc(-c6ccc(Oc7ccc(F)cc7F)cc6)c(C(N)=O)c5N)C4)nc3)ccc2CC1C(=O)NC1CCCc2ccccc21)C(C)(C)C

> <Shape>
0.222

> <Color>
0.098

> <Negative vol penalty>
0.000

$$$$

  -OEChem-04052318143D

 93101  0     1  0  0  0  0  0999 V2000
  -26.6259  -38.3450   21.5876 C   0  0  0  0  0  0  0  0  0  0  0  0
  -27.2786  -37.2954   20.9492 C   0  0  0  0  0  0  0  0  0  0  0  0
  -27.8107  -12.5126   18.4576 C   0  0  0  0  0  0  0  0  0  0  0  0
  -28.7924  -12.7859   20.6482 C   0  0  0  0  0  0  0  0  0  0  0  0
  -25.8303  -38.0933   22.7046 C   0  0  0  0  0  0  0  0  0  0  0  0
  -27.1369  -35.9934   21.4281 C   0  0  0  0  0  0  0  0  0  0  0  0
  -26.8905  -29.2047   19.1547 C   0  0  0  0  0  0  0  0  0  0  0  0
  -29.0847  -12.4781   17.8909 C   0  0  0  0  0  0  0  0  0  0  0  0
  -30.0665  -12.7514   20.0815 C   0  0  0  0  0  0  0  0  0  0  0  0
  -27.4833  -27.9660   19.3956 C   0  0  0  0  0  0  0  0  0  0  0  0
  -32.1077  -14.8656   18.4097 C   0  0  0  0  0  0  0  0  0  0  0  0
  -33.0334  -15.8169   18.8380 C   0  0  0  0  0  0  0  0  0  0  0  0
  -26.0197  -27.6398   21.2852 C   0  0  0  0  0  0  0  0  0  0  0  0
  -34.4956  -14.0510   19.6000 C   0  0  0  0  0  0  0  0  0  0  0  0
  -27.7021  -17.4430   23.5676 C   0  0  0  0  0  0  0  0  0  0  0  0
  -27.6645  -12.6666   19.8362 C   0  0  0  0  0  0  0  0  0  0  0  0
  -25.5982  -11.6097   20.8951 C   0  0  0  0  0  0  0  0  0  0  0  0
  -25.6710  -36.7864   23.1916 C   0  0  0  0  0  0  0  0  0  0  0  0
  -25.8636  -29.6758   19.9853 C   0  0  0  0  0  0  0  0  0  0  0  0
  -26.3395  -35.7242   22.5534 C   0  0  0  0  0  0  0  0  0  0  0  0
  -25.4138  -28.8837   21.0512 C   0  0  0  0  0  0  0  0  0  0  0  0
  -30.2127  -12.5975   18.7028 C   0  0  0  0  0  0  0  0  0  0  0  0
  -27.0499  -27.1846   20.4627 C   0  0  0  0  0  0  0  0  0  0  0  0
  -32.3758  -13.5069   18.5766 C   0  0  0  0  0  0  0  0  0  0  0  0
  -34.2274  -15.4097   19.4331 C   0  0  0  0  0  0  0  0  0  0  0  0
  -33.5698  -13.0997   19.1718 C   0  0  0  0  0  0  0  0  0  0  0  0
  -26.3487  -12.7029   20.4222 C   0  0  0  0  0  0  0  0  0  0  0  0
  -27.2363  -18.4131   22.7256 C   0  0  0  0  0  0  0  0  0  0  0  0
  -24.4287  -12.1674   21.3506 C   0  0  0  0  0  0  0  0  0  0  0  0
  -25.5143  -17.6097   23.8614 C   0  0  0  0  0  0  0  0  0  0  0  0
  -25.9289  -10.2148   20.9205 C   0  0  0  0  0  0  0  0  0  0  0  0
  -25.5035  -32.1840   21.9044 C   0  0  0  0  0  0  0  0  0  0  0  0
  -22.4713  -31.0605   22.1607 C   0  0  0  0  0  0  0  0  0  0  0  0
  -23.1093  -17.7016   23.2857 C   0  0  0  0  0  0  0  0  0  0  0  0
  -20.3363  -28.4073   21.9399 C   0  0  0  0  0  0  0  0  0  0  0  0
  -24.8387  -36.5697   24.4305 C   0  0  0  0  0  0  0  0  0  0  0  0
  -25.2162  -31.0024   19.6960 C   0  0  0  0  0  0  0  0  0  0  0  0
  -24.3009  -29.3350   21.9602 C   0  0  0  0  0  0  0  0  0  0  0  0
  -24.4403  -35.1124   24.6495 C   0  0  0  0  0  0  0  0  0  0  0  0
  -21.5182  -15.8874   20.6367 C   0  0  0  0  0  0  0  0  0  0  0  0
  -25.6440  -34.1953   24.4572 C   0  0  0  0  0  0  0  0  0  0  0  0
  -22.5210  -14.7830   20.3051 C   0  0  0  0  0  0  0  0  0  0  0  0
  -22.2230  -17.1797   21.0371 C   0  0  0  0  0  0  0  0  0  0  0  0
  -24.1947  -15.9159   21.8349 C   0  0  0  0  0  0  0  0  0  0  0  0
  -26.1907  -34.2949   23.0280 C   0  0  1  0  0  0  0  0  0  0  0  0
  -24.5291  -31.6104   20.9148 C   0  0  1  0  0  0  0  0  0  0  0  0
  -23.5242  -14.5838   21.4551 C   0  0  2  0  0  0  0  0  0  0  0  0
  -29.8486  -22.4638   24.8017 C   0  0  0  0  0  0  0  0  0  0  0  0
  -17.9230  -27.7900   22.2443 C   0  0  0  0  0  0  0  0  0  0  0  0
  -29.4849  -19.0633   21.6289 C   0  0  0  0  0  0  0  0  0  0  0  0
  -27.4115  -18.9195   20.3023 C   0  0  0  0  0  0  0  0  0  0  0  0
  -23.8150  -18.3259   25.5619 C   0  0  0  0  0  0  0  0  0  0  0  0
  -23.7689  -15.9486   24.8001 C   0  0  0  0  0  0  0  0  0  0  0  0
  -22.8448  -31.1033   25.1887 C   0  0  0  0  0  0  0  0  0  0  0  0
  -20.8353  -29.6232   25.3875 C   0  0  0  0  0  0  0  0  0  0  0  0
  -20.6099  -31.9036   24.4019 C   0  0  0  0  0  0  0  0  0  0  0  0
  -27.1687  -20.9563   24.4397 C   0  0  0  0  0  0  0  0  0  0  0  0
  -28.1145  -15.4264   25.4369 C   0  0  0  0  0  0  0  0  0  0  0  0
  -25.7612  -14.7394   24.8287 C   0  0  0  0  0  0  0  0  0  0  0  0
  -26.1675  -16.3676   26.6599 C   0  0  0  0  0  0  0  0  0  0  0  0
  -20.0652  -27.5997   19.1056 C   0  0  0  0  0  0  0  0  0  0  0  0
  -29.4383  -21.6691   23.5643 C   0  0  0  0  0  0  0  0  0  0  0  0
  -27.8424  -23.8771   21.9226 C   0  0  0  0  0  0  0  0  0  0  0  0
  -27.3158  -23.0542   23.1093 C   0  0  0  0  0  0  0  0  0  0  0  0
  -27.6572  -20.8430   21.9014 C   0  0  0  0  0  0  0  0  0  0  0  0
  -27.1365  -25.2260   21.8089 C   0  0  0  0  0  0  0  0  0  1  0  0
  -21.7651  -30.0882   23.0745 C   0  0  1  0  0  0  0  0  0  0  0  0
  -18.9869  -28.2539   21.2615 C   0  0  2  0  0  0  0  0  0  0  0  0
  -27.9637  -19.3115   21.7050 C   0  0  0  0  0  0  0  0  0  0  0  0
  -24.1301  -17.3989   24.3536 C   0  0  0  0  0  0  0  0  0  0  0  0
  -21.5361  -30.6716   24.4974 C   0  0  0  0  0  0  0  0  0  0  0  0
  -27.9096  -21.6081   23.2562 C   0  0  2  0  0  0  0  0  0  0  0  0
  -26.6606  -15.9186   25.2620 C   0  0  0  0  0  0  0  0  0  0  0  0
  -25.7094  -13.8670   20.5639 N   0  0  0  0  0  0  0  0  0  0  0  0
  -26.6154  -16.9635   24.2584 N   0  0  0  0  0  0  0  0  0  0  0  0
  -24.5449  -13.5085   21.1310 N   0  0  0  0  0  0  0  0  0  0  0  0
  -25.8797  -18.4948   22.9284 N   0  3  0  0  0  0  0  0  0  0  0  0
  -23.7041  -30.6422   21.6401 N   0  0  0  0  0  0  0  0  0  0  0  0
  -23.1835  -16.9443   22.1165 N   0  0  0  0  0  0  0  0  0  0  0  0
  -23.3223  -11.6367   21.9134 N   0  0  0  0  0  0  0  0  0  0  0  0
  -27.1720   -9.8134   20.4127 N   0  0  0  0  0  0  0  0  0  0  0  0
  -25.3580  -33.5420   22.1147 N   0  0  0  0  0  0  0  0  0  0  0  0
  -20.5405  -29.6962   22.3852 N   0  0  0  0  0  0  0  0  0  0  0  0
  -19.0728  -27.2573   20.1568 N   0  3  0  0  0  0  0  0  0  0  0  0
  -25.1384   -9.3481   21.3649 O   0  0  0  0  0  0  0  0  0  0  0  0
  -26.3254  -31.4487   22.4387 O   0  0  0  0  0  0  0  0  0  0  0  0
  -21.9450  -32.1482   21.9122 O   0  0  0  0  0  0  0  0  0  0  0  0
  -22.2700  -18.5831   23.4877 O   0  0  0  0  0  0  0  0  0  0  0  0
  -21.1283  -27.4759   22.0657 O   0  0  0  0  0  0  0  0  0  0  0  0
  -31.4561  -12.5636   18.1502 O   0  0  0  0  0  0  0  0  0  0  0  0
  -27.6315  -25.9664   20.7022 O   0  0  0  0  0  0  0  0  0  1  0  0
  -35.1170  -16.3234   19.8430 F   0  0  0  0  0  0  0  0  0  0  0  0
  -33.8335  -11.7958   19.3338 F   0  0  0  0  0  0  0  0  0  0  0  0
  1  2  1  0  0  0  0
  1  5  2  0  0  0  0
  2  6  2  0  0  0  0
  3  8  2  0  0  0  0
  3 16  1  0  0  0  0
  4  9  1  0  0  0  0
  4 16  2  0  0  0  0
  5 18  1  0  0  0  0
  6 20  1  0  0  0  0
  7 10  2  0  0  0  0
  7 19  1  0  0  0  0
  8 22  1  0  0  0  0
  9 22  2  0  0  0  0
 10 23  1  0  0  0  0
 11 12  2  0  0  0  0
 11 24  1  0  0  0  0
 12 25  1  0  0  0  0
 13 21  1  0  0  0  0
 13 23  2  0  0  0  0
 14 25  2  0  0  0  0
 14 26  1  0  0  0  0
 15 28  2  0  0  0  0
 15 75  1  0  0  0  0
 16 27  1  0  0  0  0
 17 27  1  0  0  0  0
 17 29  2  0  0  0  0
 17 31  1  0  0  0  0
 18 20  2  0  0  0  0
 18 36  1  0  0  0  0
 19 21  2  0  0  0  0
 19 37  1  0  0  0  0
 20 45  1  0  0  0  0
 21 38  1  0  0  0  0
 22 90  1  0  0  0  0
 23 91  1  0  0  0  0
 24 26  2  0  0  0  0
 24 90  1  0  0  0  0
 25 92  1  0  0  0  0
 26 93  1  0  0  0  0
 27 74  2  0  0  0  0
 28 69  1  0  0  0  0
 28 77  1  0  0  0  0
 29 76  1  0  0  0  0
 29 80  1  0  0  0  0
 30 70  1  0  0  0  0
 30 75  1  0  0  0  0
 30 77  2  0  0  0  0
 31 81  1  0  0  0  0
 31 85  2  0  0  0  0
 32 46  1  0  0  0  0
 32 82  1  0  0  0  0
 32 86  2  0  0  0  0
 33 67  1  0  0  0  0
 33 78  1  0  0  0  0
 33 87  2  0  0  0  0
 34 70  1  0  0  0  0
 34 79  1  0  0  0  0
 34 88  2  0  0  0  0
 35 68  1  0  0  0  0
 35 83  1  0  0  0  0
 35 89  2  0  0  0  0
 36 39  1  0  0  0  0
 37 46  1  0  0  0  0
 38 78  1  0  0  0  0
 39 41  1  0  0  0  0
 40 42  1  0  0  0  0
 40 43  1  0  0  0  0
 41 45  1  0  0  0  0
 42 47  1  0  0  0  0
 43 79  1  0  0  0  0
 44 47  1  0  0  0  0
 44 79  1  0  0  0  0
 45 82  1  0  0  0  0
 46 78  1  0  0  0  0
 47 76  1  0  0  0  0
 48 62  1  0  0  0  0
 49 68  1  0  0  0  0
 50 69  1  0  0  0  0
 51 69  1  0  0  0  0
 52 70  1  0  0  0  0
 53 70  1  0  0  0  0
 54 71  1  0  0  0  0
 55 71  1  0  0  0  0
 56 71  1  0  0  0  0
 57 72  1  0  0  0  0
 58 73  1  0  0  0  0
 59 73  1  0  0  0  0
 60 73  1  0  0  0  0
 61 84  1  0  0  0  0
 62 72  1  0  0  0  0
 63 64  1  0  0  0  0
 63 66  1  0  0  0  0
 64 72  1  0  0  0  0
 65 69  1  0  0  0  0
 65 72  1  0  0  0  0
 66 91  1  0  0  0  0
 67 71  1  0  0  0  0
 67 83  1  0  0  0  0
 68 84  1  0  0  0  0
 73 75  1  0  0  0  0
 74 76  1  0  0  0  0
M  CHG  2  77   1  84   1
M  ISO  4  34 100  66 101  70 100  91 101
M  END
> <Batch ID>
0068

> <Smiles>
CCC(C)(CC[101CH2:1][101O:1]c1ccc2c(c1)CN(C(=O)C(NC(=O)C(C)NC)C(C)(C)C)C(C(=O)NC1CCCc3ccccc31)C2)CC(C)(C)c1cn(C(C)(C)C)c([100C:0](C)(C)[100C:0](=O)N2CCCC(n3nc(-c4ccc(Oc5ccc(F)cc5F)cc4)c(C(N)=O)c3N)C2)n1

> <Shape>
0.258

> <Color>
0.065

> <Negative vol penalty>
0.000

$$$$

  -OEChem-04052318143D

 95103  0     1  0  0  0  0  0999 V2000
  -16.6286  -29.9589   22.8860 C   0  0  0  0  0  0  0  0  0  0  0  0
  -17.2007  -29.0303   22.0223 C   0  0  0  0  0  0  0  0  0  0  0  0
  -23.0472   -9.9421   19.9285 C   0  0  0  0  0  0  0  0  0  0  0  0
  -24.2028   -9.7343   22.0400 C   0  0  0  0  0  0  0  0  0  0  0  0
  -17.4095  -30.9792   23.4273 C   0  0  0  0  0  0  0  0  0  0  0  0
  -18.5539  -29.1221   21.6987 C   0  0  0  0  0  0  0  0  0  0  0  0
  -20.9019  -24.6387   21.8735 C   0  0  0  0  0  0  0  0  0  0  0  0
  -22.4149   -8.7195   20.1542 C   0  0  0  0  0  0  0  0  0  0  0  0
  -23.5705   -8.5116   22.2657 C   0  0  0  0  0  0  0  0  0  0  0  0
  -20.7098  -23.7768   20.7946 C   0  0  0  0  0  0  0  0  0  0  0  0
  -20.5427   -7.4299   23.3064 C   0  0  0  0  0  0  0  0  0  0  0  0
  -20.0095   -7.2023   24.5750 C   0  0  0  0  0  0  0  0  0  0  0  0
  -22.8444  -24.4433   19.8898 C   0  0  0  0  0  0  0  0  0  0  0  0
  -27.7120  -18.1318   17.8712 C   0  0  0  0  0  0  0  0  0  0  0  0
  -21.4520   -5.2820   24.8368 C   0  0  0  0  0  0  0  0  0  0  0  0
  -23.9412  -10.4495   20.8714 C   0  0  0  0  0  0  0  0  0  0  0  0
  -24.1371  -12.9889   21.0151 C   0  0  0  0  0  0  0  0  0  0  0  0
  -18.7752  -31.0779   23.1177 C   0  0  0  0  0  0  0  0  0  0  0  0
  -22.0638  -25.4188   21.9632 C   0  0  0  0  0  0  0  0  0  0  0  0
  -19.3535  -30.1455   22.2353 C   0  0  0  0  0  0  0  0  0  0  0  0
  -23.0500  -25.3124   20.9722 C   0  0  0  0  0  0  0  0  0  0  0  0
  -26.5640  -18.5279   17.1941 C   0  0  0  0  0  0  0  0  0  0  0  0
  -25.5638  -19.2132   17.8747 C   0  0  0  0  0  0  0  0  0  0  0  0
  -22.6765   -8.0043   21.3228 C   0  0  0  0  0  0  0  0  0  0  0  0
  -21.6797  -23.6812   19.8010 C   0  0  0  0  0  0  0  0  0  0  0  0
  -21.5305   -6.5835   22.8029 C   0  0  0  0  0  0  0  0  0  0  0  0
  -20.4641   -6.1284   25.3402 C   0  0  0  0  0  0  0  0  0  0  0  0
  -21.9852   -5.5096   23.5681 C   0  0  0  0  0  0  0  0  0  0  0  0
  -24.5952  -11.7121   20.6385 C   0  0  0  0  0  0  0  0  0  0  0  0
  -27.8106  -18.4428   19.2178 C   0  0  0  0  0  0  0  0  0  0  0  0
  -25.7585  -19.4757   19.2212 C   0  0  0  0  0  0  0  0  0  0  0  0
  -25.1105  -13.8486   20.5680 C   0  0  0  0  0  0  0  0  0  0  0  0
  -22.9389  -13.3642   21.7074 C   0  0  0  0  0  0  0  0  0  0  0  0
  -22.6731  -28.5381   22.0119 C   0  0  0  0  0  0  0  0  0  0  0  0
  -25.7058  -27.5411   22.5871 C   0  0  0  0  0  0  0  0  0  0  0  0
  -28.0409  -25.0662   22.3244 C   0  0  0  0  0  0  0  0  0  0  0  0
  -30.6970  -14.8669   20.3018 C   0  0  0  0  0  0  0  0  0  0  0  0
  -19.5682  -32.2260   23.6901 C   0  0  0  0  0  0  0  0  0  0  0  0
  -22.2681  -26.3238   23.1471 C   0  0  0  0  0  0  0  0  0  0  0  0
  -24.3242  -26.1131   21.0322 C   0  0  0  0  0  0  0  0  0  0  0  0
  -21.0791  -32.0317   23.5917 C   0  0  0  0  0  0  0  0  0  0  0  0
  -29.0524  -13.0817   17.5072 C   0  0  0  0  0  0  0  0  0  0  0  0
  -21.4660  -31.5532   22.1959 C   0  0  0  0  0  0  0  0  0  0  0  0
  -27.7410  -12.6143   18.1363 C   0  0  0  0  0  0  0  0  0  0  0  0
  -30.1625  -13.2180   18.5449 C   0  0  0  0  0  0  0  0  0  0  0  0
  -28.4954  -13.6238   20.3255 C   0  0  0  0  0  0  0  0  0  0  0  0
  -20.8236  -30.1972   21.8797 C   0  0  1  0  0  0  0  0  0  0  0  0
  -23.2562  -27.4531   22.8724 C   0  0  1  0  0  0  0  0  0  0  0  0
  -27.3438  -13.5210   19.3142 C   0  0  2  0  0  0  0  0  0  0  0  0
  -26.4291  -18.2039   15.7429 C   0  0  0  0  0  0  0  0  0  0  0  0
  -24.2044  -21.4538   22.1498 C   0  0  0  0  0  0  0  0  0  0  0  0
  -32.8819  -17.2077   23.3958 C   0  0  0  0  0  0  0  0  0  0  0  0
  -30.4412  -24.5586   22.8517 C   0  0  0  0  0  0  0  0  0  0  0  0
  -20.8490  -22.3325   15.9579 C   0  0  0  0  0  0  0  0  0  0  0  0
  -28.1249  -16.6882   21.9236 C   0  0  0  0  0  0  0  0  0  0  0  0
  -26.5857  -29.2603   20.2249 C   0  0  0  0  0  0  0  0  0  0  0  0
  -28.7501  -28.0020   20.2050 C   0  0  0  0  0  0  0  0  0  0  0  0
  -28.1108  -29.3489   22.2050 C   0  0  0  0  0  0  0  0  0  0  0  0
  -23.7239  -22.8263   14.9020 C   0  0  0  0  0  0  0  0  0  0  0  0
  -22.8604  -20.5183   14.5292 C   0  0  0  0  0  0  0  0  0  0  0  0
  -27.2962  -22.8220   24.1042 C   0  0  0  0  0  0  0  0  0  0  0  0
  -24.3076  -19.6579   17.1654 C   0  0  0  0  0  0  0  0  0  0  0  0
  -29.0292  -18.0346   19.9763 C   0  0  0  0  0  0  0  0  0  0  0  0
  -24.7202  -20.2096   20.0053 C   0  0  0  0  0  0  0  0  0  0  0  0
  -25.2520  -20.6780   21.3673 C   0  0  0  0  0  0  0  0  0  0  0  0
  -31.9023  -16.2795   22.6912 C   0  0  0  0  0  0  0  0  0  0  0  0
  -24.5598  -20.9125   16.3176 C   0  0  0  0  0  0  0  0  0  0  0  0
  -31.1905  -16.9513   21.5230 C   0  0  0  0  0  0  0  0  0  0  0  0
  -22.5290  -22.7930   17.7649 C   0  0  0  0  0  0  0  0  0  1  0  0
  -26.8948  -27.1841   21.7282 C   0  0  1  0  0  0  0  0  0  0  0  0
  -29.0033  -24.4774   23.3400 C   0  0  2  0  0  0  0  0  0  0  0  0
  -22.1340  -21.8197   16.6346 C   0  0  2  0  0  0  0  0  0  0  0  0
  -28.9163  -16.6361   20.6206 C   0  0  1  0  0  0  0  0  0  0  0  0
  -27.5606  -28.4350   21.0883 C   0  0  0  0  0  0  0  0  0  0  0  0
  -23.3017  -21.5220   15.6194 C   0  0  0  0  0  0  0  0  0  0  0  0
  -25.7682  -11.7525   20.0011 N   0  0  0  0  0  0  0  0  0  0  0  0
  -26.8600  -19.1069   19.9127 N   0  0  0  0  0  0  0  0  0  0  0  0
  -26.0555  -13.0650   19.9736 N   0  0  0  0  0  0  0  0  0  0  0  0
  -24.4747  -26.9885   22.2064 N   0  0  0  0  0  0  0  0  0  0  0  0
  -29.7432  -14.0492   19.6738 N   0  0  0  0  0  0  0  0  0  0  0  0
  -25.2417  -15.1908   20.6291 N   0  0  0  0  0  0  0  0  0  0  0  0
  -22.0473  -12.3548   22.0952 N   0  0  0  0  0  0  0  0  0  0  0  0
  -21.5429  -29.1304   22.5422 N   0  0  0  0  0  0  0  0  0  0  0  0
  -27.7877  -26.3986   22.5733 N   0  0  0  0  0  0  0  0  0  0  0  0
  -30.2377  -16.0644   20.8707 N   0  0  0  0  0  0  0  0  0  0  0  0
  -28.6742  -23.0468   23.5968 N   0  3  0  0  0  0  0  0  0  0  0  0
  -22.6591  -14.5607   21.9596 O   0  0  0  0  0  0  0  0  0  0  0  0
  -23.2096  -28.8181   20.9464 O   0  0  0  0  0  0  0  0  0  0  0  0
  -25.8647  -28.2772   23.5641 O   0  0  0  0  0  0  0  0  0  0  0  0
  -27.5645  -24.4108   21.4003 O   0  0  0  0  0  0  0  0  0  0  0  0
  -31.8927  -14.5495   20.3429 O   0  0  0  0  0  0  0  0  0  0  0  0
  -22.0595   -6.8113   21.5435 O   0  0  0  0  0  0  0  0  0  0  0  0
  -21.4944  -22.8412   18.7465 O   0  0  0  0  0  0  0  0  0  1  0  0
  -19.9531   -5.9108   26.5591 F   0  0  0  0  0  0  0  0  0  0  0  0
  -22.9348   -4.6937   23.0902 F   0  0  0  0  0  0  0  0  0  0  0  0
  1  2  1  0  0  0  0
  1  5  2  0  0  0  0
  2  6  2  0  0  0  0
  3  8  2  0  0  0  0
  3 16  1  0  0  0  0
  4  9  1  0  0  0  0
  4 16  2  0  0  0  0
  5 18  1  0  0  0  0
  6 20  1  0  0  0  0
  7 10  2  0  0  0  0
  7 19  1  0  0  0  0
  8 24  1  0  0  0  0
  9 24  2  0  0  0  0
 10 25  1  0  0  0  0
 11 12  2  0  0  0  0
 11 26  1  0  0  0  0
 12 27  1  0  0  0  0
 13 21  1  0  0  0  0
 13 25  2  0  0  0  0
 14 22  2  0  0  0  0
 14 30  1  0  0  0  0
 15 27  2  0  0  0  0
 15 28  1  0  0  0  0
 16 29  1  0  0  0  0
 17 29  1  0  0  0  0
 17 32  2  0  0  0  0
 17 33  1  0  0  0  0
 18 20  2  0  0  0  0
 18 38  1  0  0  0  0
 19 21  2  0  0  0  0
 19 39  1  0  0  0  0
 20 47  1  0  0  0  0
 21 40  1  0  0  0  0
 22 23  1  0  0  0  0
 22 50  1  0  0  0  0
 23 31  2  0  0  0  0
 23 62  1  0  0  0  0
 24 92  1  0  0  0  0
 25 93  1  0  0  0  0
 26 28  2  0  0  0  0
 26 92  1  0  0  0  0
 27 94  1  0  0  0  0
 28 95  1  0  0  0  0
 29 76  2  0  0  0  0
 30 63  1  0  0  0  0
 30 77  2  0  0  0  0
 31 64  1  0  0  0  0
 31 77  1  0  0  0  0
 32 78  1  0  0  0  0
 32 81  1  0  0  0  0
 33 82  1  0  0  0  0
 33 87  2  0  0  0  0
 34 48  1  0  0  0  0
 34 83  1  0  0  0  0
 34 88  2  0  0  0  0
 35 70  1  0  0  0  0
 35 79  1  0  0  0  0
 35 89  2  0  0  0  0
 36 71  1  0  0  0  0
 36 84  1  0  0  0  0
 36 90  2  0  0  0  0
 37 80  1  0  0  0  0
 37 85  1  0  0  0  0
 37 91  2  0  0  0  0
 38 41  1  0  0  0  0
 39 48  1  0  0  0  0
 40 79  1  0  0  0  0
 41 43  1  0  0  0  0
 42 44  1  0  0  0  0
 42 45  1  0  0  0  0
 43 47  1  0  0  0  0
 44 49  1  0  0  0  0
 45 80  1  0  0  0  0
 46 49  1  0  0  0  0
 46 80  1  0  0  0  0
 47 83  1  0  0  0  0
 48 79  1  0  0  0  0
 49 78  1  0  0  0  0
 51 65  1  0  0  0  0
 52 66  1  0  0  0  0
 53 71  1  0  0  0  0
 54 72  1  0  0  0  0
 55 73  1  0  0  0  0
 56 74  1  0  0  0  0
 57 74  1  0  0  0  0
 58 74  1  0  0  0  0
 59 75  1  0  0  0  0
 60 75  1  0  0  0  0
 61 86  1  0  0  0  0
 62 67  1  0  0  0  0
 63 73  1  0  0  0  0
 64 65  1  0  0  0  0
 66 68  1  0  0  0  0
 67 75  1  0  0  0  0
 68 85  1  0  0  0  0
 69 72  1  0  0  0  0
 69 93  1  0  0  0  0
 70 74  1  0  0  0  0
 70 84  1  0  0  0  0
 71 86  1  0  0  0  0
 72 75  1  0  0  0  0
 73 85  1  0  0  0  0
 76 78  1  0  0  0  0
M  CHG  1  86   1
M  ISO  4  37 100  69 101  85 100  93 101
M  END
> <Batch ID>
0068

> <Smiles>
CCCc1nc(CC(C)[100N:0](CCC)[100C:0](=O)N2CCCC(n3nc(-c4ccc(Oc5ccc(F)cc5F)cc4)c(C(N)=O)c3N)C2)cc(C)c1CCC(C)(C)C(C)[101CH2:1][101O:1]c1ccc2c(c1)CN(C(=O)C(NC(=O)C(C)NC)C(C)(C)C)C(C(=O)NC1CCCc3ccccc31)C2

> <Shape>
0.282

> <Color>
0.178

> <Negative vol penalty>
0.000

$$$$

  -OEChem-04052318143D

 89 98  0     1  0  0  0  0  0999 V2000
  -22.9738  -20.3150   21.3324 C   0  0  0  0  0  0  0  0  0  0  0  0
  -24.2300  -20.8481   21.0620 C   0  0  0  0  0  0  0  0  0  0  0  0
  -23.9060   -9.7658   22.3793 C   0  0  0  0  0  0  0  0  0  0  0  0
  -23.6190   -9.0391   20.0932 C   0  0  0  0  0  0  0  0  0  0  0  0
  -21.8405  -21.1218   21.2388 C   0  0  0  0  0  0  0  0  0  0  0  0
  -24.3535  -22.1881   20.6966 C   0  0  0  0  0  0  0  0  0  0  0  0
  -28.9534  -25.9786   22.1035 C   0  0  0  0  0  0  0  0  0  0  0  0
  -22.6057   -9.3553   22.6731 C   0  0  0  0  0  0  0  0  0  0  0  0
  -22.3187   -8.6285   20.3869 C   0  0  0  0  0  0  0  0  0  0  0  0
  -30.0767  -26.3956   21.3906 C   0  0  0  0  0  0  0  0  0  0  0  0
  -20.9968   -6.4534   23.3240 C   0  0  0  0  0  0  0  0  0  0  0  0
  -20.7951   -5.7313   24.5002 C   0  0  0  0  0  0  0  0  0  0  0  0
  -28.8935  -28.3808   20.6991 C   0  0  0  0  0  0  0  0  0  0  0  0
  -19.2849   -7.4428   25.2921 C   0  0  0  0  0  0  0  0  0  0  0  0
  -27.9062  -23.6744   19.1484 C   0  0  0  0  0  0  0  0  0  0  0  0
  -24.4126   -9.6077   21.0893 C   0  0  0  0  0  0  0  0  0  0  0  0
  -26.9319   -9.2648   20.8812 C   0  0  0  0  0  0  0  0  0  0  0  0
  -21.9512  -22.4748   20.8815 C   0  0  0  0  0  0  0  0  0  0  0  0
  -27.7861  -26.7556   22.1106 C   0  0  0  0  0  0  0  0  0  0  0  0
  -23.2206  -23.0134   20.5968 C   0  0  0  0  0  0  0  0  0  0  0  0
  -27.7576  -27.9727   21.4149 C   0  0  0  0  0  0  0  0  0  0  0  0
  -21.8120   -8.7866   21.6769 C   0  0  0  0  0  0  0  0  0  0  0  0
  -30.0459  -27.5954   20.6859 C   0  0  0  0  0  0  0  0  0  0  0  0
  -20.3426   -7.6703   23.1318 C   0  0  0  0  0  0  0  0  0  0  0  0
  -19.9392   -6.2259   25.4842 C   0  0  0  0  0  0  0  0  0  0  0  0
  -19.4866   -8.1650   24.1159 C   0  0  0  0  0  0  0  0  0  0  0  0
  -25.7556  -10.0321   20.7851 C   0  0  0  0  0  0  0  0  0  0  0  0
  -27.9319  -10.1182   20.4835 C   0  0  0  0  0  0  0  0  0  0  0  0
  -29.9631  -23.7205   18.2519 C   0  0  0  0  0  0  0  0  0  0  0  0
  -29.2930  -21.9326   19.4313 C   0  0  0  0  0  0  0  0  0  0  0  0
  -27.1051   -7.9024   21.2930 C   0  0  0  0  0  0  0  0  0  0  0  0
  -24.7911  -26.3133   21.1419 C   0  0  0  0  0  0  0  0  0  0  0  0
  -24.3186  -29.1907   22.5630 C   0  0  0  0  0  0  0  0  0  0  0  0
  -25.6452  -32.1506   23.6241 C   0  0  0  0  0  0  0  0  0  0  0  0
  -28.5951  -15.8569   20.6048 C   0  0  0  0  0  0  0  0  0  0  0  0
  -20.6930  -23.2955   20.7474 C   0  0  0  0  0  0  0  0  0  0  0  0
  -26.5919  -26.3049   22.9063 C   0  0  0  0  0  0  0  0  0  0  0  0
  -26.5358  -28.8534   21.4073 C   0  0  0  0  0  0  0  0  0  0  0  0
  -20.9475  -24.8004   20.7184 C   0  0  0  0  0  0  0  0  0  0  0  0
  -28.7394  -13.9091   17.6881 C   0  0  0  0  0  0  0  0  0  0  0  0
  -22.0918  -25.1300   19.7652 C   0  0  0  0  0  0  0  0  0  0  0  0
  -28.0994  -12.6046   18.1625 C   0  0  0  0  0  0  0  0  0  0  0  0
  -30.8272  -18.6555   19.6388 C   0  0  0  0  0  0  0  0  0  0  0  0
  -28.5733  -18.9789   18.5321 C   0  0  0  0  0  0  0  0  0  0  0  0
  -28.0174  -15.1372   18.2452 C   0  0  0  0  0  0  0  0  0  0  0  0
  -30.1587  -17.7631   20.6833 C   0  0  0  0  0  0  0  0  0  0  0  0
  -27.9562  -18.0828   19.6034 C   0  0  0  0  0  0  0  0  0  0  0  0
  -27.2339  -13.8289   20.1922 C   0  0  0  0  0  0  0  0  0  0  0  0
  -23.3979  -24.4687   20.2215 C   0  0  1  0  0  0  0  0  0  0  0  0
  -25.2839  -26.9239   22.4233 C   0  0  1  0  0  0  0  0  0  0  0  0
  -27.9734  -12.5766   19.6961 C   0  0  1  0  0  0  0  0  0  0  0  0
  -29.8575  -19.6577   19.0115 C   0  0  0  0  0  0  0  0  0  0  0  0
  -25.0044  -34.3185   24.7136 C   0  0  0  0  0  0  0  0  0  0  0  0
  -23.0959  -30.1468   19.9361 C   0  0  0  0  0  0  0  0  0  0  0  0
  -23.3549  -32.4994   20.7523 C   0  0  0  0  0  0  0  0  0  0  0  0
  -21.8852  -30.9071   21.9880 C   0  0  0  0  0  0  0  0  0  0  0  0
  -33.3919  -27.7922   19.1849 C   0  0  0  0  0  0  0  0  0  0  0  0
  -32.7381  -27.0553   21.4859 C   0  0  0  0  0  0  0  0  0  0  0  0
  -27.4327  -31.6539   25.9299 C   0  0  0  0  0  0  0  0  0  0  0  0
  -31.0094  -24.4249   17.4565 C   0  0  0  0  0  0  0  0  0  0  0  0
  -31.3892  -25.8178   17.9958 C   0  0  0  0  0  0  0  0  0  0  0  0
  -31.9154  -25.7693   19.4388 C   0  0  0  0  0  0  0  0  0  0  0  0
  -24.3950  -30.6301   22.1143 C   0  0  1  0  0  0  0  0  0  0  0  0
  -25.5107  -32.9019   24.9363 C   0  0  2  0  0  0  0  0  0  0  0  0
  -23.2053  -31.0285   21.1961 C   0  0  0  0  0  0  0  0  0  0  0  0
  -32.2867  -27.1470   20.0276 C   0  0  0  0  0  0  0  0  0  1  0  0
  -28.7989  -24.3671   18.4227 N   0  0  0  0  0  0  0  0  0  0  0  0
  -28.0822  -22.4554   19.6836 N   0  0  0  0  0  0  0  0  0  0  0  0
  -25.9854  -11.2773   20.3600 N   0  0  0  0  0  0  0  0  0  0  0  0
  -30.2813  -22.5050   18.7252 N   0  0  0  0  0  0  0  0  0  0  0  0
  -27.3178  -11.2989   20.1854 N   0  0  0  0  0  0  0  0  0  0  0  0
  -25.3915  -28.3664   22.1952 N   0  0  0  0  0  0  0  0  0  0  0  0
  -27.8866  -15.0461   19.7055 N   0  0  0  0  0  0  0  0  0  0  0  0
  -28.9396  -17.1454   20.1625 N   0  0  0  0  0  0  0  0  0  0  0  0
  -29.2679   -9.9663   20.3633 N   0  0  0  0  0  0  0  0  0  0  0  0
  -25.9717   -7.1689   21.6692 N   0  0  0  0  0  0  0  0  0  0  0  0
  -23.9815  -25.2077   21.3204 N   0  0  0  0  0  0  0  0  0  0  0  0
  -24.5068  -31.4308   23.3287 N   0  0  0  0  0  0  0  0  0  0  0  0
  -26.8288  -32.9771   25.6275 N   0  3  0  0  0  0  0  0  0  0  0  0
  -28.2336   -7.3568   21.3420 O   0  0  0  0  0  0  0  0  0  0  0  0
  -25.1198  -26.8093   20.0707 O   0  0  0  0  0  0  0  0  0  0  0  0
  -23.3464  -28.8134   23.2219 O   0  0  0  0  0  0  0  0  0  0  0  0
  -26.6573  -32.2005   22.9287 O   0  0  0  0  0  0  0  0  0  0  0  0
  -28.9056  -15.4555   21.7333 O   0  0  0  0  0  0  0  0  0  0  0  0
  -20.5432   -8.3857   21.9633 O   0  0  0  0  0  0  0  0  0  0  0  0
  -31.1458  -28.0063   19.9854 O   0  0  0  0  0  0  0  0  0  1  0  0
  -29.5467  -20.6886   19.9463 O   0  0  0  0  0  0  0  0  0  0  0  0
  -19.7444   -5.5316   26.6130 F   0  0  0  0  0  0  0  0  0  0  0  0
  -18.8544   -9.3328   23.9364 F   0  0  0  0  0  0  0  0  0  0  0  0
  1  2  1  0  0  0  0
  1  5  2  0  0  0  0
  2  6  2  0  0  0  0
  3  8  2  0  0  0  0
  3 16  1  0  0  0  0
  4  9  1  0  0  0  0
  4 16  2  0  0  0  0
  5 18  1  0  0  0  0
  6 20  1  0  0  0  0
  7 10  2  0  0  0  0
  7 19  1  0  0  0  0
  8 22  1  0  0  0  0
  9 22  2  0  0  0  0
 10 23  1  0  0  0  0
 11 12  2  0  0  0  0
 11 24  1  0  0  0  0
 12 25  1  0  0  0  0
 13 21  1  0  0  0  0
 13 23  2  0  0  0  0
 14 25  2  0  0  0  0
 14 26  1  0  0  0  0
 15 67  2  0  0  0  0
 15 68  1  0  0  0  0
 16 27  1  0  0  0  0
 17 27  1  0  0  0  0
 17 28  2  0  0  0  0
 17 31  1  0  0  0  0
 18 20  2  0  0  0  0
 18 36  1  0  0  0  0
 19 21  2  0  0  0  0
 19 37  1  0  0  0  0
 20 49  1  0  0  0  0
 21 38  1  0  0  0  0
 22 85  1  0  0  0  0
 23 86  1  0  0  0  0
 24 26  2  0  0  0  0
 24 85  1  0  0  0  0
 25 88  1  0  0  0  0
 26 89  1  0  0  0  0
 27 69  2  0  0  0  0
 28 71  1  0  0  0  0
 28 75  1  0  0  0  0
 29 60  1  0  0  0  0
 29 67  1  0  0  0  0
 29 70  2  0  0  0  0
 30 68  2  0  0  0  0
 30 70  1  0  0  0  0
 30 87  1  0  0  0  0
 31 76  1  0  0  0  0
 31 80  2  0  0  0  0
 32 50  1  0  0  0  0
 32 77  1  0  0  0  0
 32 81  2  0  0  0  0
 33 63  1  0  0  0  0
 33 72  1  0  0  0  0
 33 82  2  0  0  0  0
 34 64  1  0  0  0  0
 34 78  1  0  0  0  0
 34 83  2  0  0  0  0
 35 73  1  0  0  0  0
 35 74  1  0  0  0  0
 35 84  2  0  0  0  0
 36 39  1  0  0  0  0
 37 50  1  0  0  0  0
 38 72  1  0  0  0  0
 39 41  1  0  0  0  0
 40 42  1  0  0  0  0
 40 45  1  0  0  0  0
 41 49  1  0  0  0  0
 42 51  1  0  0  0  0
 43 46  1  0  0  0  0
 43 52  1  0  0  0  0
 44 47  1  0  0  0  0
 44 52  1  0  0  0  0
 45 73  1  0  0  0  0
 46 74  1  0  0  0  0
 47 74  1  0  0  0  0
 48 51  1  0  0  0  0
 48 73  1  0  0  0  0
 49 77  1  0  0  0  0
 50 72  1  0  0  0  0
 51 71  1  0  0  0  0
 52 87  1  0  0  0  0
 53 64  1  0  0  0  0
 54 65  1  0  0  0  0
 55 65  1  0  0  0  0
 56 65  1  0  0  0  0
 57 66  1  0  0  0  0
 58 66  1  0  0  0  0
 59 79  1  0  0  0  0
 60 61  1  0  0  0  0
 61 62  1  0  0  0  0
 62 66  1  0  0  0  0
 63 65  1  0  0  0  0
 63 78  1  0  0  0  0
 64 79  1  0  0  0  0
 66 86  1  0  0  0  0
 69 71  1  0  0  0  0
M  CHG  1  79   1
M  ISO  4  35 100  66 101  74 100  86 101
M  END
> <Batch ID>
0068

> <Smiles>
CNC(C)C(=O)NC(C(=O)N1Cc2cc([101O:1][101C:1](C)(C)CCCc3ncnc(OC4CC[100N:0]([100C:0](=O)N5CCCC(n6nc(-c7ccc(Oc8ccc(F)cc8F)cc7)c(C(N)=O)c6N)C5)CC4)n3)ccc2CC1C(=O)NC1CCCc2ccccc21)C(C)(C)C

> <Shape>
0.298

> <Color>
0.077

> <Negative vol penalty>
0.000

$$$$

  -OEChem-04052318143D

 88 96  0     1  0  0  0  0  0999 V2000
  -21.6331  -10.1030   20.5378 C   0  0  0  0  0  0  0  0  0  0  0  0
  -21.3266  -11.4347   20.7987 C   0  0  0  0  0  0  0  0  0  0  0  0
  -22.0546  -29.0703   22.4114 C   0  0  0  0  0  0  0  0  0  0  0  0
  -21.9260  -29.2542   20.0059 C   0  0  0  0  0  0  0  0  0  0  0  0
  -22.9639   -9.7071   20.4110 C   0  0  0  0  0  0  0  0  0  0  0  0
  -22.3510  -12.3711   20.9341 C   0  0  0  0  0  0  0  0  0  0  0  0
  -21.4013  -16.6658   18.4244 C   0  0  0  0  0  0  0  0  0  0  0  0
  -20.7191  -28.6699   22.4523 C   0  0  0  0  0  0  0  0  0  0  0  0
  -20.5905  -28.8537   20.0467 C   0  0  0  0  0  0  0  0  0  0  0  0
  -20.5122  -17.5640   19.0131 C   0  0  0  0  0  0  0  0  0  0  0  0
  -17.6753  -30.1291   22.2780 C   0  0  0  0  0  0  0  0  0  0  0  0
  -16.8540  -30.7118   23.2432 C   0  0  0  0  0  0  0  0  0  0  0  0
  -22.3737  -18.8754   19.8094 C   0  0  0  0  0  0  0  0  0  0  0  0
  -16.4174  -28.5315   24.1879 C   0  0  0  0  0  0  0  0  0  0  0  0
  -27.3255  -24.4241   20.1158 C   0  0  0  0  0  0  0  0  0  0  0  0
  -27.0471  -25.0466   22.3500 C   0  0  0  0  0  0  0  0  0  0  0  0
  -22.6581  -29.3625   21.1882 C   0  0  0  0  0  0  0  0  0  0  0  0
  -24.6054  -30.9064   21.7643 C   0  0  0  0  0  0  0  0  0  0  0  0
  -24.0047  -10.6408   20.5354 C   0  0  0  0  0  0  0  0  0  0  0  0
  -22.7858  -16.8601   18.5333 C   0  0  0  0  0  0  0  0  0  0  0  0
  -23.6970  -11.9870   20.8102 C   0  0  0  0  0  0  0  0  0  0  0  0
  -23.2783  -17.9796   19.2190 C   0  0  0  0  0  0  0  0  0  0  0  0
  -27.8400  -25.0711   21.2208 C   0  0  0  0  0  0  0  0  0  0  0  0
  -19.9871  -28.5616   21.2699 C   0  0  0  0  0  0  0  0  0  0  0  0
  -20.9984  -18.6674   19.7082 C   0  0  0  0  0  0  0  0  0  0  0  0
  -17.8676  -28.7476   22.2677 C   0  0  0  0  0  0  0  0  0  0  0  0
  -16.2251  -29.9130   24.1981 C   0  0  0  0  0  0  0  0  0  0  0  0
  -17.2387  -27.9488   23.2227 C   0  0  0  0  0  0  0  0  0  0  0  0
  -24.0375  -29.7767   21.1454 C   0  0  0  0  0  0  0  0  0  0  0  0
  -25.9347  -30.8530   21.4229 C   0  0  0  0  0  0  0  0  0  0  0  0
  -25.4520  -23.8443   21.2650 C   0  0  0  0  0  0  0  0  0  0  0  0
  -23.9867  -31.9140   22.5753 C   0  0  0  0  0  0  0  0  0  0  0  0
  -25.1877  -15.2173   19.8123 C   0  0  0  0  0  0  0  0  0  0  0  0
  -26.9928  -17.5292   18.4269 C   0  0  0  0  0  0  0  0  0  0  0  0
  -29.4853  -26.2772   19.8206 C   0  0  0  0  0  0  0  0  0  0  0  0
  -27.1899  -20.7119   17.2112 C   0  0  0  0  0  0  0  0  0  0  0  0
  -25.4298  -10.1569   20.4373 C   0  0  0  0  0  0  0  0  0  0  0  0
  -23.7313  -15.8966   17.8698 C   0  0  0  0  0  0  0  0  0  0  0  0
  -24.7554  -18.2445   19.3475 C   0  0  0  0  0  0  0  0  0  0  0  0
  -26.4411  -11.2800   20.2227 C   0  0  0  0  0  0  0  0  0  0  0  0
  -28.8673  -29.2945   17.9893 C   0  0  0  0  0  0  0  0  0  0  0  0
  -26.1684  -12.4344   21.1818 C   0  0  0  0  0  0  0  0  0  0  0  0
  -27.5944  -29.8480   18.6285 C   0  0  0  0  0  0  0  0  0  0  0  0
  -28.8558  -27.7695   17.9522 C   0  0  0  0  0  0  0  0  0  0  0  0
  -27.3678  -27.6830   19.9270 C   0  0  0  0  0  0  0  0  0  0  0  0
  -24.7793  -13.0369   20.9391 C   0  0  1  0  0  0  0  0  0  0  0  0
  -25.1285  -15.9133   18.4820 C   0  0  1  0  0  0  0  0  0  0  0  0
  -27.3523  -29.2195   20.0122 C   0  0  2  0  0  0  0  0  0  0  0  0
  -28.8066  -22.3295   16.1783 C   0  0  0  0  0  0  0  0  0  0  0  0
  -30.3030  -24.7760   21.5941 C   0  0  0  0  0  0  0  0  0  0  0  0
  -29.3068  -27.0069   22.1087 C   0  0  0  0  0  0  0  0  0  0  0  0
  -28.2661  -17.9979   21.1598 C   0  0  0  0  0  0  0  0  0  0  0  0
  -29.1326  -20.1852   20.3035 C   0  0  0  0  0  0  0  0  0  0  0  0
  -29.8676  -18.0519   19.2397 C   0  0  0  0  0  0  0  0  0  0  0  0
  -25.5817  -20.9176   14.7352 C   0  0  0  0  0  0  0  0  0  0  0  0
  -19.1129  -22.2916   17.9107 C   0  0  0  0  0  0  0  0  0  0  0  0
  -24.1093  -23.1584   21.2897 C   0  0  0  0  0  0  0  0  0  0  0  0
  -22.9858  -23.9722   20.6374 C   0  0  0  0  0  0  0  0  0  0  0  0
  -21.6163  -23.2936   20.7400 C   0  0  0  0  0  0  0  0  0  0  0  0
  -20.5328  -24.1248   20.0502 C   0  0  0  0  0  0  0  0  0  0  0  0
  -19.1815  -23.4295   20.1246 C   0  0  0  0  0  0  0  0  0  0  0  0
  -18.3267  -21.0972   19.9496 C   0  0  0  0  0  0  0  0  0  0  0  0
  -18.8609  -19.7087   19.6583 C   0  0  0  0  0  0  0  0  0  1  0  0
  -27.5105  -18.8813   18.8544 C   0  0  1  0  0  0  0  0  0  0  0  0
  -27.7565  -21.2617   15.9146 C   0  0  2  0  0  0  0  0  0  0  0  0
  -29.1579  -25.7506   21.1953 C   0  0  0  0  0  0  0  0  0  0  0  0
  -28.6663  -18.7733   19.8888 C   0  0  0  0  0  0  0  0  0  0  0  0
  -26.1305  -23.7980   20.1027 N   0  0  0  0  0  0  0  0  0  0  0  0
  -25.8431  -24.4404   22.4075 N   0  0  0  0  0  0  0  0  0  0  0  0
  -24.9327  -29.0583   20.4625 N   0  0  0  0  0  0  0  0  0  0  0  0
  -26.0766  -29.7382   20.6501 N   0  0  0  0  0  0  0  0  0  0  0  0
  -25.6396  -17.2702   18.6869 N   0  0  0  0  0  0  0  0  0  0  0  0
  -28.6007  -27.2114   19.2814 N   0  0  0  0  0  0  0  0  0  0  0  0
  -26.9844  -31.6514   21.7113 N   0  0  0  0  0  0  0  0  0  0  0  0
  -23.4662  -33.0525   21.9451 N   0  0  0  0  0  0  0  0  0  0  0  0
  -24.7964  -13.8927   19.7722 N   0  0  0  0  0  0  0  0  0  0  0  0
  -27.8692  -19.5871   17.6291 N   0  0  0  0  0  0  0  0  0  0  0  0
  -26.6713  -21.8634   15.0891 N   0  3  0  0  0  0  0  0  0  0  0  0
  -19.2648  -22.1084   19.4005 N   0  3  1  0  0  0  0  0  0  0  0  0
  -23.9126  -31.8154   23.8237 O   0  0  0  0  0  0  0  0  0  0  0  0
  -25.5621  -15.8359   20.8017 O   0  0  0  0  0  0  0  0  0  0  0  0
  -27.7590  -16.7348   17.8759 O   0  0  0  0  0  0  0  0  0  0  0  0
  -30.4989  -25.8714   19.2462 O   0  0  0  0  0  0  0  0  0  0  0  0
  -26.2421  -21.2307   17.7968 O   0  0  0  0  0  0  0  0  0  0  0  0
  -18.6839  -28.1707   21.3093 O   0  0  0  0  0  0  0  0  0  0  0  0
  -20.1328  -19.5453   20.2843 O   0  0  0  0  0  0  0  0  0  1  0  0
  -15.4377  -30.4729   25.1259 F   0  0  0  0  0  0  0  0  0  0  0  0
  -17.4206  -26.6211   23.2187 F   0  0  0  0  0  0  0  0  0  0  0  0
  1  2  1  0  0  0  0
  1  5  2  0  0  0  0
  2  6  2  0  0  0  0
  3  8  2  0  0  0  0
  3 17  1  0  0  0  0
  4  9  1  0  0  0  0
  4 17  2  0  0  0  0
  5 19  1  0  0  0  0
  6 21  1  0  0  0  0
  7 10  2  0  0  0  0
  7 20  1  0  0  0  0
  8 24  1  0  0  0  0
  9 24  2  0  0  0  0
 10 25  1  0  0  0  0
 11 12  2  0  0  0  0
 11 26  1  0  0  0  0
 12 27  1  0  0  0  0
 13 22  1  0  0  0  0
 13 25  2  0  0  0  0
 14 27  2  0  0  0  0
 14 28  1  0  0  0  0
 15 23  1  0  0  0  0
 15 68  2  0  0  0  0
 16 23  2  0  0  0  0
 16 69  1  0  0  0  0
 17 29  1  0  0  0  0
 18 29  1  0  0  0  0
 18 30  2  0  0  0  0
 18 32  1  0  0  0  0
 19 21  2  0  0  0  0
 19 37  1  0  0  0  0
 20 22  2  0  0  0  0
 20 38  1  0  0  0  0
 21 46  1  0  0  0  0
 22 39  1  0  0  0  0
 23 66  1  0  0  0  0
 24 85  1  0  0  0  0
 25 86  1  0  0  0  0
 26 28  2  0  0  0  0
 26 85  1  0  0  0  0
 27 87  1  0  0  0  0
 28 88  1  0  0  0  0
 29 70  2  0  0  0  0
 30 71  1  0  0  0  0
 30 74  1  0  0  0  0
 31 57  1  0  0  0  0
 31 68  1  0  0  0  0
 31 69  2  0  0  0  0
 32 75  1  0  0  0  0
 32 80  2  0  0  0  0
 33 47  1  0  0  0  0
 33 76  1  0  0  0  0
 33 81  2  0  0  0  0
 34 64  1  0  0  0  0
 34 72  1  0  0  0  0
 34 82  2  0  0  0  0
 35 66  1  0  0  0  0
 35 73  1  0  0  0  0
 35 83  2  0  0  0  0
 36 65  1  0  0  0  0
 36 77  1  0  0  0  0
 36 84  2  0  0  0  0
 37 40  1  0  0  0  0
 38 47  1  0  0  0  0
 39 72  1  0  0  0  0
 40 42  1  0  0  0  0
 41 43  1  0  0  0  0
 41 44  1  0  0  0  0
 42 46  1  0  0  0  0
 43 48  1  0  0  0  0
 44 73  1  0  0  0  0
 45 48  1  0  0  0  0
 45 73  1  0  0  0  0
 46 76  1  0  0  0  0
 47 72  1  0  0  0  0
 48 71  1  0  0  0  0
 49 65  1  0  0  0  0
 50 66  1  0  0  0  0
 51 66  1  0  0  0  0
 52 67  1  0  0  0  0
 53 67  1  0  0  0  0
 54 67  1  0  0  0  0
 55 78  1  0  0  0  0
 56 79  1  0  0  0  0
 57 58  1  0  0  0  0
 58 59  1  0  0  0  0
 59 60  1  0  0  0  0
 60 61  1  0  0  0  0
 61 79  1  0  0  0  0
 62 63  1  0  0  0  0
 62 79  1  0  0  0  0
 63 86  1  0  0  0  0
 64 67  1  0  0  0  0
 64 77  1  0  0  0  0
 65 78  1  0  0  0  0
 70 71  1  0  0  0  0
M  CHG  2  78   1  79   1
M  ISO  4  35 100  63 101  66 100  86 101
M  END
> <Batch ID>
0068

> <Smiles>
CNC(C)C(=O)NC(C(=O)N1Cc2cc([101O:1][101CH2:1]CN(C)CCCCCc3ncc([100C:0](C)(C)[100C:0](=O)N4CCCC(n5nc(-c6ccc(Oc7ccc(F)cc7F)cc6)c(C(N)=O)c5N)C4)cn3)ccc2CC1C(=O)NC1CCCc2ccccc21)C(C)(C)C

> <Shape>
0.244

> <Color>
0.069

> <Negative vol penalty>
0.000

$$$$

  -OEChem-04052318143D

 93101  0     1  0  0  0  0  0999 V2000
  -31.7700  -33.8561   18.4757 C   0  0  0  0  0  0  0  0  0  0  0  0
  -31.4050  -33.0926   17.3727 C   0  0  0  0  0  0  0  0  0  0  0  0
  -23.1425   -9.8486   19.9340 C   0  0  0  0  0  0  0  0  0  0  0  0
  -23.6438   -9.9826   22.2936 C   0  0  0  0  0  0  0  0  0  0  0  0
  -32.7026  -33.3601   19.3842 C   0  0  0  0  0  0  0  0  0  0  0  0
  -31.9635  -31.8280   17.1841 C   0  0  0  0  0  0  0  0  0  0  0  0
  -33.6016  -23.8787   15.3060 C   0  0  0  0  0  0  0  0  0  0  0  0
  -22.3834   -8.7005   20.1605 C   0  0  0  0  0  0  0  0  0  0  0  0
  -22.8847   -8.8346   22.5201 C   0  0  0  0  0  0  0  0  0  0  0  0
  -34.3005  -22.8472   15.9314 C   0  0  0  0  0  0  0  0  0  0  0  0
  -23.2580   -5.4923   22.1728 C   0  0  0  0  0  0  0  0  0  0  0  0
  -23.7972   -4.5129   23.0069 C   0  0  0  0  0  0  0  0  0  0  0  0
  -33.4096  -23.5435   18.0622 C   0  0  0  0  0  0  0  0  0  0  0  0
  -21.9162   -4.7525   24.5041 C   0  0  0  0  0  0  0  0  0  0  0  0
  -23.7728  -10.4896   21.0005 C   0  0  0  0  0  0  0  0  0  0  0  0
  -24.1087  -13.0094   20.7869 C   0  0  0  0  0  0  0  0  0  0  0  0
  -33.2817  -32.0938   19.1992 C   0  0  0  0  0  0  0  0  0  0  0  0
  -32.8086  -24.7585   16.0566 C   0  0  0  0  0  0  0  0  0  0  0  0
  -32.8886  -31.2998   18.1026 C   0  0  0  0  0  0  0  0  0  0  0  0
  -32.6995  -24.5838   17.4436 C   0  0  0  0  0  0  0  0  0  0  0  0
  -22.2544   -8.1935   21.4535 C   0  0  0  0  0  0  0  0  0  0  0  0
  -34.2069  -22.6812   17.3101 C   0  0  0  0  0  0  0  0  0  0  0  0
  -22.0479   -6.1018   22.5044 C   0  0  0  0  0  0  0  0  0  0  0  0
  -23.1263   -4.1430   24.1725 C   0  0  0  0  0  0  0  0  0  0  0  0
  -21.3771   -5.7319   23.6700 C   0  0  0  0  0  0  0  0  0  0  0  0
  -24.5576  -11.6752   20.7671 C   0  0  0  0  0  0  0  0  0  0  0  0
  -31.9896  -18.3643   23.4371 C   0  0  0  0  0  0  0  0  0  0  0  0
  -32.1081  -18.6054   22.0887 C   0  0  0  0  0  0  0  0  0  0  0  0
  -25.2292  -13.7528   20.5075 C   0  0  0  0  0  0  0  0  0  0  0  0
  -30.8855  -16.8148   22.4828 C   0  0  0  0  0  0  0  0  0  0  0  0
  -22.7962  -13.5300   21.0358 C   0  0  0  0  0  0  0  0  0  0  0  0
  -32.8406  -27.8880   16.6125 C   0  0  0  0  0  0  0  0  0  0  0  0
  -30.0475  -27.2518   18.1345 C   0  0  0  0  0  0  0  0  0  0  0  0
  -28.7700  -24.6914   20.3322 C   0  0  0  0  0  0  0  0  0  0  0  0
  -31.0005  -13.3231   21.7688 C   0  0  0  0  0  0  0  0  0  0  0  0
  -34.2802  -31.6026   20.2175 C   0  0  0  0  0  0  0  0  0  0  0  0
  -32.0397  -25.8498   15.3635 C   0  0  0  0  0  0  0  0  0  0  0  0
  -31.8456  -25.4890   18.2921 C   0  0  0  0  0  0  0  0  0  0  0  0
  -35.1408  -30.4545   19.7004 C   0  0  0  0  0  0  0  0  0  0  0  0
  -29.5897  -12.8477   18.3798 C   0  0  0  0  0  0  0  0  0  0  0  0
  -34.2584  -29.3828   19.0781 C   0  0  0  0  0  0  0  0  0  0  0  0
  -28.1196  -12.5500   18.6698 C   0  0  0  0  0  0  0  0  0  0  0  0
  -30.4936  -12.4153   19.5304 C   0  0  0  0  0  0  0  0  0  0  0  0
  -28.6354  -12.6890   21.1386 C   0  0  0  0  0  0  0  0  0  0  0  0
  -33.5058  -29.9342   17.8605 C   0  0  1  0  0  0  0  0  0  0  0  0
  -31.6698  -27.0024   16.2919 C   0  0  1  0  0  0  0  0  0  0  0  0
  -27.6930  -13.1550   20.0186 C   0  0  2  0  0  0  0  0  0  0  0  0
  -28.6348  -15.7202   22.7957 C   0  0  0  0  0  0  0  0  0  0  0  0
  -26.4233  -23.8855   20.7076 C   0  0  0  0  0  0  0  0  0  0  0  0
  -29.7450  -17.5400   19.6588 C   0  0  0  0  0  0  0  0  0  0  0  0
  -31.8284  -16.1049   19.5801 C   0  0  0  0  0  0  0  0  0  0  0  0
  -33.6763  -19.6370   17.6462 C   0  0  0  0  0  0  0  0  0  0  0  0
  -32.0540  -20.6140   24.5686 C   0  0  0  0  0  0  0  0  0  0  0  0
  -34.1246  -19.1845   24.4934 C   0  0  0  0  0  0  0  0  0  0  0  0
  -32.2379  -18.5887   25.9991 C   0  0  0  0  0  0  0  0  0  0  0  0
  -30.0318  -29.2648   20.4275 C   0  0  0  0  0  0  0  0  0  0  0  0
  -28.7184  -27.6138   21.7756 C   0  0  0  0  0  0  0  0  0  0  0  0
  -27.7647  -28.5364   19.6632 C   0  0  0  0  0  0  0  0  0  0  0  0
  -35.3585  -21.3941   20.7306 C   0  0  0  0  0  0  0  0  0  0  0  0
  -36.2385  -19.4919   19.3917 C   0  0  0  0  0  0  0  0  0  0  0  0
  -31.2447  -14.4025   23.9722 C   0  0  0  0  0  0  0  0  0  0  0  0
  -29.5120  -21.8903   19.7303 C   0  0  0  0  0  0  0  0  0  0  0  0
  -32.8266  -19.6866   21.3183 C   0  0  0  0  0  0  0  0  0  0  0  0
  -34.1432  -19.1682   20.7243 C   0  0  0  0  0  0  0  0  0  0  0  0
  -30.0513  -15.6295   22.1957 C   0  0  2  0  0  0  0  0  0  0  0  0
  -29.6605  -26.8680   19.5423 C   0  0  1  0  0  0  0  0  0  0  0  0
  -27.7394  -23.6309   19.9894 C   0  0  2  0  0  0  0  0  0  0  0  0
  -31.2140  -17.4181   20.0686 C   0  0  0  0  0  0  0  0  0  0  0  0
  -34.1183  -20.7104   18.6382 C   0  0  1  0  0  0  0  0  0  1  0  0
  -32.5592  -19.1301   24.5570 C   0  0  0  0  0  0  0  0  0  0  0  0
  -29.0691  -28.0636   20.3412 C   0  0  0  0  0  0  0  0  0  0  0  0
  -34.9385  -20.1883   19.8583 C   0  0  0  0  0  0  0  0  0  0  0  0
  -25.8616  -11.5739   20.4963 N   0  0  0  0  0  0  0  0  0  0  0  0
  -31.2276  -17.2480   23.6758 N   0  0  0  0  0  0  0  0  0  0  0  0
  -31.3960  -17.6044   21.4903 N   0  0  0  0  0  0  0  0  0  0  0  0
  -26.2417  -12.8539   20.3433 N   0  0  0  0  0  0  0  0  0  0  0  0
  -31.1181  -26.5450   17.5688 N   0  0  0  0  0  0  0  0  0  0  0  0
  -30.0403  -12.9693   20.8067 N   0  0  0  0  0  0  0  0  0  0  0  0
  -25.4374  -15.0814   20.3885 N   0  0  0  0  0  0  0  0  0  0  0  0
  -21.7593  -12.6267   21.3066 N   0  0  0  0  0  0  0  0  0  0  0  0
  -32.5290  -28.9592   17.4280 N   0  0  0  0  0  0  0  0  0  0  0  0
  -28.7601  -25.7265   19.4213 N   0  0  0  0  0  0  0  0  0  0  0  0
  -30.6827  -14.3850   22.6291 N   0  0  0  0  0  0  0  0  0  0  0  0
  -28.2350  -22.2811   20.3812 N   0  3  0  0  0  0  0  0  0  0  0  0
  -22.5467  -14.7589   21.0023 O   0  0  0  0  0  0  0  0  0  0  0  0
  -33.9451  -27.6186   16.1552 O   0  0  0  0  0  0  0  0  0  0  0  0
  -29.4184  -28.1409   17.5555 O   0  0  0  0  0  0  0  0  0  0  0  0
  -29.5074  -24.6115   21.3122 O   0  0  0  0  0  0  0  0  0  0  0  0
  -32.0841  -12.7302   21.8478 O   0  0  0  0  0  0  0  0  0  0  0  0
  -21.5135   -7.0734   21.6749 O   0  0  0  0  0  0  0  0  0  0  0  0
  -34.8886  -21.6756   17.9232 O   0  0  0  0  0  0  0  0  0  1  0  0
  -23.6434   -3.2013   24.9726 F   0  0  0  0  0  0  0  0  0  0  0  0
  -20.2136   -6.3131   23.9933 F   0  0  0  0  0  0  0  0  0  0  0  0
  1  2  1  0  0  0  0
  1  5  2  0  0  0  0
  2  6  2  0  0  0  0
  3  8  2  0  0  0  0
  3 15  1  0  0  0  0
  4  9  1  0  0  0  0
  4 15  2  0  0  0  0
  5 17  1  0  0  0  0
  6 19  1  0  0  0  0
  7 10  2  0  0  0  0
  7 18  1  0  0  0  0
  8 21  1  0  0  0  0
  9 21  2  0  0  0  0
 10 22  1  0  0  0  0
 11 12  2  0  0  0  0
 11 23  1  0  0  0  0
 12 24  1  0  0  0  0
 13 20  1  0  0  0  0
 13 22  2  0  0  0  0
 14 24  2  0  0  0  0
 14 25  1  0  0  0  0
 15 26  1  0  0  0  0
 16 26  1  0  0  0  0
 16 29  2  0  0  0  0
 16 31  1  0  0  0  0
 17 19  2  0  0  0  0
 17 36  1  0  0  0  0
 18 20  2  0  0  0  0
 18 37  1  0  0  0  0
 19 45  1  0  0  0  0
 20 38  1  0  0  0  0
 21 90  1  0  0  0  0
 22 91  1  0  0  0  0
 23 25  2  0  0  0  0
 23 90  1  0  0  0  0
 24 92  1  0  0  0  0
 25 93  1  0  0  0  0
 26 73  2  0  0  0  0
 27 28  2  0  0  0  0
 27 70  1  0  0  0  0
 27 74  1  0  0  0  0
 28 63  1  0  0  0  0
 28 75  1  0  0  0  0
 29 76  1  0  0  0  0
 29 79  1  0  0  0  0
 30 65  1  0  0  0  0
 30 74  2  0  0  0  0
 30 75  1  0  0  0  0
 31 80  1  0  0  0  0
 31 85  2  0  0  0  0
 32 46  1  0  0  0  0
 32 81  1  0  0  0  0
 32 86  2  0  0  0  0
 33 66  1  0  0  0  0
 33 77  1  0  0  0  0
 33 87  2  0  0  0  0
 34 67  1  0  0  0  0
 34 82  1  0  0  0  0
 34 88  2  0  0  0  0
 35 78  1  0  0  0  0
 35 83  1  0  0  0  0
 35 89  2  0  0  0  0
 36 39  1  0  0  0  0
 37 46  1  0  0  0  0
 38 77  1  0  0  0  0
 39 41  1  0  0  0  0
 40 42  1  0  0  0  0
 40 43  1  0  0  0  0
 41 45  1  0  0  0  0
 42 47  1  0  0  0  0
 43 78  1  0  0  0  0
 44 47  1  0  0  0  0
 44 78  1  0  0  0  0
 45 81  1  0  0  0  0
 46 77  1  0  0  0  0
 47 76  1  0  0  0  0
 48 65  1  0  0  0  0
 49 67  1  0  0  0  0
 50 68  1  0  0  0  0
 51 68  1  0  0  0  0
 52 69  1  0  0  0  0
 53 70  1  0  0  0  0
 54 70  1  0  0  0  0
 55 70  1  0  0  0  0
 56 71  1  0  0  0  0
 57 71  1  0  0  0  0
 58 71  1  0  0  0  0
 59 72  1  0  0  0  0
 60 72  1  0  0  0  0
 61 83  1  0  0  0  0
 62 84  1  0  0  0  0
 63 64  1  0  0  0  0
 64 72  1  0  0  0  0
 65 83  1  0  0  0  0
 66 71  1  0  0  0  0
 66 82  1  0  0  0  0
 67 84  1  0  0  0  0
 68 75  1  0  0  0  0
 69 72  1  0  0  0  0
 69 91  1  0  0  0  0
 73 76  1  0  0  0  0
M  CHG  1  84   1
M  ISO  4  35 100  69 101  83 100  91 101
M  END
> <Batch ID>
0068

> <Smiles>
CNC(C)C(=O)NC(C(=O)N1Cc2cc([101O:1][101CH:1](C)C(C)(C)CCc3c(C(C)(C)C)nc(C(C)[100N:0](C)[100C:0](=O)N4CCCC(n5nc(-c6ccc(Oc7ccc(F)cc7F)cc6)c(C(N)=O)c5N)C4)n3C(C)C)ccc2CC1C(=O)NC1CCCc2ccccc21)C(C)(C)C

> <Shape>
0.240

> <Color>
0.172

> <Negative vol penalty>
0.000

$$$$

  -OEChem-04052318143D

 90 98  0     1  0  0  0  0  0999 V2000
  -18.7511  -32.9372   23.1031 C   0  0  0  0  0  0  0  0  0  0  0  0
  -20.0999  -32.9207   22.7626 C   0  0  0  0  0  0  0  0  0  0  0  0
  -25.2859  -16.3281   21.7278 C   0  0  0  0  0  0  0  0  0  0  0  0
  -25.0393  -16.5199   19.3321 C   0  0  0  0  0  0  0  0  0  0  0  0
  -18.1560  -31.7987   23.6449 C   0  0  0  0  0  0  0  0  0  0  0  0
  -20.8547  -31.7658   22.9648 C   0  0  0  0  0  0  0  0  0  0  0  0
  -25.4486  -29.7123   19.4741 C   0  0  0  0  0  0  0  0  0  0  0  0
  -24.0272  -15.7326   21.8097 C   0  0  0  0  0  0  0  0  0  0  0  0
  -23.7806  -15.9243   19.4139 C   0  0  0  0  0  0  0  0  0  0  0  0
  -26.8342  -29.8095   19.5947 C   0  0  0  0  0  0  0  0  0  0  0  0
  -21.0318  -13.8336   22.6076 C   0  0  0  0  0  0  0  0  0  0  0  0
  -20.9010  -12.7018   23.4122 C   0  0  0  0  0  0  0  0  0  0  0  0
  -26.8906  -27.6324   20.6321 C   0  0  0  0  0  0  0  0  0  0  0  0
  -22.5410  -11.5518   22.0611 C   0  0  0  0  0  0  0  0  0  0  0  0
  -33.2549  -24.6513   18.2758 C   0  0  0  0  0  0  0  0  0  0  0  0
  -25.7919  -16.7218   20.4890 C   0  0  0  0  0  0  0  0  0  0  0  0
  -28.3290  -16.6902   20.2244 C   0  0  0  0  0  0  0  0  0  0  0  0
  -18.9017  -30.6262   23.8448 C   0  0  0  0  0  0  0  0  0  0  0  0
  -24.7713  -28.5771   19.9423 C   0  0  0  0  0  0  0  0  0  0  0  0
  -20.2694  -30.6109   23.5110 C   0  0  0  0  0  0  0  0  0  0  0  0
  -25.4967  -27.5221   20.5139 C   0  0  0  0  0  0  0  0  0  0  0  0
  -23.2746  -15.5307   20.6528 C   0  0  0  0  0  0  0  0  0  0  0  0
  -27.5551  -28.7708   20.1764 C   0  0  0  0  0  0  0  0  0  0  0  0
  -21.9172  -13.8246   21.5297 C   0  0  0  0  0  0  0  0  0  0  0  0
  -21.6556  -11.5609   23.1390 C   0  0  0  0  0  0  0  0  0  0  0  0
  -22.6718  -12.6837   21.2565 C   0  0  0  0  0  0  0  0  0  0  0  0
  -27.0918  -17.3375   20.4038 C   0  0  0  0  0  0  0  0  0  0  0  0
  -32.2652  -25.5455   17.9218 C   0  0  0  0  0  0  0  0  0  0  0  0
  -33.1395  -23.3876   17.7337 C   0  0  0  0  0  0  0  0  0  0  0  0
  -29.2505  -17.7086   20.2102 C   0  0  0  0  0  0  0  0  0  0  0  0
  -31.2363  -23.9762   16.6389 C   0  0  0  0  0  0  0  0  0  0  0  0
  -28.6192  -15.2932   20.0832 C   0  0  0  0  0  0  0  0  0  0  0  0
  -22.5535  -28.0421   22.1556 C   0  0  0  0  0  0  0  0  0  0  0  0
  -22.6220  -25.0355   20.9399 C   0  0  0  0  0  0  0  0  0  0  0  0
  -24.3581  -22.6334   19.2480 C   0  0  0  0  0  0  0  0  0  0  0  0
  -28.8764  -23.5273   18.8487 C   0  0  0  0  0  0  0  0  0  0  0  0
  -18.2261  -29.4353   24.4773 C   0  0  0  0  0  0  0  0  0  0  0  0
  -23.2793  -28.4760   19.7805 C   0  0  0  0  0  0  0  0  0  0  0  0
  -24.8193  -26.2732   21.0138 C   0  0  0  0  0  0  0  0  0  0  0  0
  -19.0060  -28.1335   24.3116 C   0  0  0  0  0  0  0  0  0  0  0  0
  -29.9882  -22.1150   21.9221 C   0  0  0  0  0  0  0  0  0  0  0  0
  -20.4794  -28.3481   24.6429 C   0  0  0  0  0  0  0  0  0  0  0  0
  -29.4836  -20.6720   21.8653 C   0  0  0  0  0  0  0  0  0  0  0  0
  -28.9969  -23.0850   21.2831 C   0  0  0  0  0  0  0  0  0  0  0  0
  -28.0881  -21.2976   19.8504 C   0  0  0  0  0  0  0  0  0  0  0  0
  -21.1156  -29.3694   23.6923 C   0  0  1  0  0  0  0  0  0  0  0  0
  -22.6374  -27.4965   20.7581 C   0  0  1  0  0  0  0  0  0  0  0  0
  -29.0792  -20.2754   20.4327 C   0  0  2  0  0  0  0  0  0  0  0  0
  -36.0821  -17.9623   17.7511 C   0  0  0  0  0  0  0  0  0  0  0  0
  -24.1669  -20.2650   18.4409 C   0  0  0  0  0  0  0  0  0  0  0  0
  -30.1382  -22.1234   15.2043 C   0  0  0  0  0  0  0  0  0  0  0  0
  -30.1415  -24.4834   14.4385 C   0  0  0  0  0  0  0  0  0  0  0  0
  -23.0931  -24.0314   23.7824 C   0  0  0  0  0  0  0  0  0  0  0  0
  -23.8291  -21.8435   22.8131 C   0  0  0  0  0  0  0  0  0  0  0  0
  -21.4985  -22.6504   22.4390 C   0  0  0  0  0  0  0  0  0  0  0  0
  -24.6603  -23.4504   16.4195 C   0  0  0  0  0  0  0  0  0  0  0  0
  -32.3057  -26.9519   18.4643 C   0  0  0  0  0  0  0  0  0  0  0  0
  -34.9302  -18.8528   17.3134 C   0  0  0  0  0  0  0  0  0  0  0  0
  -30.9225  -27.5899   18.6344 C   0  0  0  0  0  0  0  0  0  0  0  0
  -35.0410  -20.2489   17.9196 C   0  0  0  0  0  0  0  0  0  0  0  0
  -30.9874  -29.0413   19.1120 C   0  0  0  0  0  0  0  0  0  0  0  0
  -28.7057  -23.8161   16.3897 C   0  0  0  0  0  0  0  0  0  0  0  0
  -29.5960  -29.6283   19.3074 C   0  0  0  0  0  0  0  0  0  1  0  0
  -33.9133  -21.1568   17.4498 C   0  0  0  0  0  0  0  0  0  0  0  0
  -23.4105  -23.7818   21.2323 C   0  0  1  0  0  0  0  0  0  0  0  0
  -23.9639  -21.7313   18.0924 C   0  0  2  0  0  0  0  0  0  0  0  0
  -30.1154  -23.6014   15.7298 C   0  0  0  0  0  0  0  0  0  0  0  0
  -22.9706  -23.1010   22.5591 C   0  0  0  0  0  0  0  0  0  0  0  0
  -27.2129  -18.6644   20.4970 N   0  0  0  0  0  0  0  0  0  0  0  0
  -31.2375  -25.2405   17.1026 N   0  0  0  0  0  0  0  0  0  0  0  0
  -32.1393  -23.0142   16.9087 N   0  0  0  0  0  0  0  0  0  0  0  0
  -28.5371  -18.8591   20.3759 N   0  0  0  0  0  0  0  0  0  0  0  0
  -23.3583  -26.2245   20.8390 N   0  0  0  0  0  0  0  0  0  0  0  0
  -28.6559  -22.6528   19.9256 N   0  0  0  0  0  0  0  0  0  0  0  0
  -30.5933  -17.7232   20.0725 N   0  0  0  0  0  0  0  0  0  0  0  0
  -27.5546  -14.3825   20.1206 N   0  0  0  0  0  0  0  0  0  0  0  0
  -21.4001  -28.7589   22.4114 N   0  0  0  0  0  0  0  0  0  0  0  0
  -23.2795  -22.9329   20.0531 N   0  0  0  0  0  0  0  0  0  0  0  0
  -28.5317  -23.0367   17.5952 N   0  0  0  0  0  0  0  0  0  0  0  0
  -24.7824  -22.0457   16.8874 N   0  3  0  0  0  0  0  0  0  0  0  0
  -29.7898  -14.8640   19.9448 O   0  0  0  0  0  0  0  0  0  0  0  0
  -23.4669  -27.8275   22.9438 O   0  0  0  0  0  0  0  0  0  0  0  0
  -21.3988  -24.9615   20.7989 O   0  0  0  0  0  0  0  0  0  0  0  0
  -25.5086  -23.0295   19.4213 O   0  0  0  0  0  0  0  0  0  0  0  0
  -29.3506  -24.6592   18.9930 O   0  0  0  0  0  0  0  0  0  0  0  0
  -22.0465  -14.9494   20.7323 O   0  0  0  0  0  0  0  0  0  0  0  0
  -28.9075  -28.8634   20.2959 O   0  0  0  0  0  0  0  0  0  1  0  0
  -34.0827  -22.4418   18.0368 O   0  0  0  0  0  0  0  0  0  0  0  0
  -21.5311  -10.4746   23.9127 F   0  0  0  0  0  0  0  0  0  0  0  0
  -23.5248  -12.6695   20.2231 F   0  0  0  0  0  0  0  0  0  0  0  0
  1  2  1  0  0  0  0
  1  5  2  0  0  0  0
  2  6  2  0  0  0  0
  3  8  2  0  0  0  0
  3 16  1  0  0  0  0
  4  9  1  0  0  0  0
  4 16  2  0  0  0  0
  5 18  1  0  0  0  0
  6 20  1  0  0  0  0
  7 10  2  0  0  0  0
  7 19  1  0  0  0  0
  8 22  1  0  0  0  0
  9 22  2  0  0  0  0
 10 23  1  0  0  0  0
 11 12  2  0  0  0  0
 11 24  1  0  0  0  0
 12 25  1  0  0  0  0
 13 21  1  0  0  0  0
 13 23  2  0  0  0  0
 14 25  2  0  0  0  0
 14 26  1  0  0  0  0
 15 28  2  0  0  0  0
 15 29  1  0  0  0  0
 16 27  1  0  0  0  0
 17 27  1  0  0  0  0
 17 30  2  0  0  0  0
 17 32  1  0  0  0  0
 18 20  2  0  0  0  0
 18 37  1  0  0  0  0
 19 21  2  0  0  0  0
 19 38  1  0  0  0  0
 20 46  1  0  0  0  0
 21 39  1  0  0  0  0
 22 86  1  0  0  0  0
 23 87  1  0  0  0  0
 24 26  2  0  0  0  0
 24 86  1  0  0  0  0
 25 89  1  0  0  0  0
 26 90  1  0  0  0  0
 27 69  2  0  0  0  0
 28 57  1  0  0  0  0
 28 70  1  0  0  0  0
 29 71  2  0  0  0  0
 29 88  1  0  0  0  0
 30 72  1  0  0  0  0
 30 75  1  0  0  0  0
 31 67  1  0  0  0  0
 31 70  2  0  0  0  0
 31 71  1  0  0  0  0
 32 76  1  0  0  0  0
 32 81  2  0  0  0  0
 33 47  1  0  0  0  0
 33 77  1  0  0  0  0
 33 82  2  0  0  0  0
 34 65  1  0  0  0  0
 34 73  1  0  0  0  0
 34 83  2  0  0  0  0
 35 66  1  0  0  0  0
 35 78  1  0  0  0  0
 35 84  2  0  0  0  0
 36 74  1  0  0  0  0
 36 79  1  0  0  0  0
 36 85  2  0  0  0  0
 37 40  1  0  0  0  0
 38 47  1  0  0  0  0
 39 73  1  0  0  0  0
 40 42  1  0  0  0  0
 41 43  1  0  0  0  0
 41 44  1  0  0  0  0
 42 46  1  0  0  0  0
 43 48  1  0  0  0  0
 44 74  1  0  0  0  0
 45 48  1  0  0  0  0
 45 74  1  0  0  0  0
 46 77  1  0  0  0  0
 47 73  1  0  0  0  0
 48 72  1  0  0  0  0
 49 58  1  0  0  0  0
 50 66  1  0  0  0  0
 51 67  1  0  0  0  0
 52 67  1  0  0  0  0
 53 68  1  0  0  0  0
 54 68  1  0  0  0  0
 55 68  1  0  0  0  0
 56 80  1  0  0  0  0
 57 59  1  0  0  0  0
 58 60  1  0  0  0  0
 59 61  1  0  0  0  0
 60 64  1  0  0  0  0
 61 63  1  0  0  0  0
 62 67  1  0  0  0  0
 62 79  1  0  0  0  0
 63 87  1  0  0  0  0
 64 88  1  0  0  0  0
 65 68  1  0  0  0  0
 65 78  1  0  0  0  0
 66 80  1  0  0  0  0
 69 72  1  0  0  0  0
M  CHG  1  80   1
M  ISO  4  36 100  63 101  79 100  87 101
M  END
> <Batch ID>
0068

> <Smiles>
CCCCOc1cc(CCC[101CH2:1][101O:1]c2ccc3c(c2)CN(C(=O)C(NC(=O)C(C)NC)C(C)(C)C)C(C(=O)NC2CCCc4ccccc42)C3)nc(C(C)(C)C[100NH:0][100C:0](=O)N2CCCC(n3nc(-c4ccc(Oc5ccc(F)cc5F)cc4)c(C(N)=O)c3N)C2)n1

> <Shape>
0.219

> <Color>
0.068

> <Negative vol penalty>
0.000

$$$$

  -OEChem-04052318143D

 85 93  0     1  0  0  0  0  0999 V2000
  -14.9707  -27.7958   22.2562 C   0  0  0  0  0  0  0  0  0  0  0  0
  -15.6795  -27.7761   21.0593 C   0  0  0  0  0  0  0  0  0  0  0  0
  -23.8459  -15.5462   22.0698 C   0  0  0  0  0  0  0  0  0  0  0  0
  -25.9142  -14.3010   21.9765 C   0  0  0  0  0  0  0  0  0  0  0  0
  -15.5296  -28.3912   23.3863 C   0  0  0  0  0  0  0  0  0  0  0  0
  -16.9473  -28.3527   20.9915 C   0  0  0  0  0  0  0  0  0  0  0  0
  -22.6946  -24.4581   19.0698 C   0  0  0  0  0  0  0  0  0  0  0  0
  -23.1917  -14.5095   21.4045 C   0  0  0  0  0  0  0  0  0  0  0  0
  -25.2599  -13.2642   21.3112 C   0  0  0  0  0  0  0  0  0  0  0  0
  -23.8073  -23.8321   18.5075 C   0  0  0  0  0  0  0  0  0  0  0  0
  -24.0556  -10.1339   19.9081 C   0  0  0  0  0  0  0  0  0  0  0  0
  -24.3098   -8.8290   20.3305 C   0  0  0  0  0  0  0  0  0  0  0  0
  -25.1378  -25.8106   18.9116 C   0  0  0  0  0  0  0  0  0  0  0  0
  -23.4785   -9.3795   22.5312 C   0  0  0  0  0  0  0  0  0  0  0  0
  -25.2072  -15.4421   22.3558 C   0  0  0  0  0  0  0  0  0  0  0  0
  -26.0392  -16.6667   24.4332 C   0  0  0  0  0  0  0  0  0  0  0  0
  -16.8089  -28.9668   23.3348 C   0  0  0  0  0  0  0  0  0  0  0  0
  -22.8034  -25.7587   19.5698 C   0  0  0  0  0  0  0  0  0  0  0  0
  -17.5233  -28.9575   22.1216 C   0  0  0  0  0  0  0  0  0  0  0  0
  -24.0299  -26.4382   19.4873 C   0  0  0  0  0  0  0  0  0  0  0  0
  -23.8987  -13.3684   21.0252 C   0  0  0  0  0  0  0  0  0  0  0  0
  -25.0258  -24.5068   18.4284 C   0  0  0  0  0  0  0  0  0  0  0  0
  -23.5130  -11.0616   20.7973 C   0  0  0  0  0  0  0  0  0  0  0  0
  -24.0212   -8.4518   21.6420 C   0  0  0  0  0  0  0  0  0  0  0  0
  -23.2244  -10.6844   22.1088 C   0  0  0  0  0  0  0  0  0  0  0  0
  -25.8837  -16.5130   23.0425 C   0  0  0  0  0  0  0  0  0  0  0  0
  -26.7493  -17.8342   24.5723 C   0  0  0  0  0  0  0  0  0  0  0  0
  -28.9691  -17.1451   18.9815 C   0  0  0  0  0  0  0  0  0  0  0  0
  -29.4277  -19.1138   18.4609 C   0  0  0  0  0  0  0  0  0  0  0  0
  -25.5827  -15.8291   25.5035 C   0  0  0  0  0  0  0  0  0  0  0  0
  -21.1009  -28.6489   21.2504 C   0  0  0  0  0  0  0  0  0  0  0  0
  -23.9060  -28.4336   22.4731 C   0  0  0  0  0  0  0  0  0  0  0  0
  -30.4792  -20.7291   20.8549 C   0  0  0  0  0  0  0  0  0  0  0  0
  -26.9108  -27.5966   23.8545 C   0  0  0  0  0  0  0  0  0  0  0  0
  -17.3520  -29.6406   24.5701 C   0  0  0  0  0  0  0  0  0  0  0  0
  -21.6155  -26.4943   20.1280 C   0  0  0  0  0  0  0  0  0  0  0  0
  -24.0914  -27.8487   20.0066 C   0  0  0  0  0  0  0  0  0  0  0  0
  -18.8556  -29.8980   24.5123 C   0  0  0  0  0  0  0  0  0  0  0  0
  -27.5318  -22.0286   22.4246 C   0  0  0  0  0  0  0  0  0  0  0  0
  -19.2418  -30.5062   23.1677 C   0  0  0  0  0  0  0  0  0  0  0  0
  -26.7756  -20.7749   22.8620 C   0  0  0  0  0  0  0  0  0  0  0  0
  -28.2675  -21.8057   21.1070 C   0  0  0  0  0  0  0  0  0  0  0  0
  -28.4407  -19.3789   21.5567 C   0  0  0  0  0  0  0  0  0  0  0  0
  -18.9115  -29.5506   22.0148 C   0  0  1  0  0  0  0  0  0  0  0  0
  -21.9796  -27.4333   21.2920 C   0  0  1  0  0  0  0  0  0  0  0  0
  -27.7084  -19.5514   22.8993 C   0  0  2  0  0  0  0  0  0  0  0  0
  -28.3393  -15.8199   18.9487 C   0  0  0  0  0  0  0  0  0  0  0  0
  -28.5319  -28.3171   25.6293 C   0  0  0  0  0  0  0  0  0  0  0  0
  -27.2904  -24.2198   15.2511 C   0  0  0  0  0  0  0  0  0  0  0  0
  -32.2685  -19.9498   19.3337 C   0  0  0  0  0  0  0  0  0  0  0  0
  -31.7686  -18.7632   21.4707 C   0  0  0  0  0  0  0  0  0  0  0  0
  -24.8368  -30.7247   20.6876 C   0  0  0  0  0  0  0  0  0  0  0  0
  -26.9706  -30.7834   21.9959 C   0  0  0  0  0  0  0  0  0  0  0  0
  -24.8001  -31.2548   23.1314 C   0  0  0  0  0  0  0  0  0  0  0  0
  -26.6445  -25.0296   25.3032 C   0  0  0  0  0  0  0  0  0  0  0  0
  -29.5280  -20.4820   17.8347 C   0  0  0  0  0  0  0  0  0  0  0  0
  -28.2163  -20.9726   17.2087 C   0  0  0  0  0  0  0  0  0  0  0  0
  -28.3375  -22.3708   16.5894 C   0  0  0  0  0  0  0  0  0  0  0  0
  -25.8583  -22.9163   16.8681 C   0  0  0  0  0  0  0  0  0  1  0  0
  -25.3432  -28.8875   22.4295 C   0  0  1  0  0  0  0  0  0  0  0  0
  -27.3432  -27.4277   25.2998 C   0  0  2  0  0  0  0  0  0  0  0  0
  -27.0459  -22.8508   15.8992 C   0  0  1  0  0  0  0  0  0  0  0  0
  -31.1365  -19.5018   20.2755 C   0  0  0  0  0  0  0  0  0  0  0  0
  -25.4792  -30.3887   22.0482 C   0  0  0  0  0  0  0  0  0  0  0  0
  -26.4493  -17.5036   22.3477 N   0  0  0  0  0  0  0  0  0  0  0  0
  -28.6545  -18.1228   18.0817 N   0  0  0  0  0  0  0  0  0  0  0  0
  -29.8883  -17.4687   19.8936 N   0  0  0  0  0  0  0  0  0  0  0  0
  -26.9671  -18.2911   23.3058 N   0  0  0  0  0  0  0  0  0  0  0  0
  -30.1649  -18.7326   19.5384 N   0  0  0  0  0  0  0  0  0  0  0  0
  -23.3595  -27.9479   21.2790 N   0  0  0  0  0  0  0  0  0  0  0  0
  -29.1259  -20.6218   21.1758 N   0  0  0  0  0  0  0  0  0  0  0  0
  -27.2023  -18.5042   25.6531 N   0  0  0  0  0  0  0  0  0  0  0  0
  -24.8676  -14.6668   25.1840 N   0  0  0  0  0  0  0  0  0  0  0  0
  -19.9050  -28.5020   21.9270 N   0  0  0  0  0  0  0  0  0  0  0  0
  -25.9188  -28.5456   23.7257 N   0  0  0  0  0  0  0  0  0  0  0  0
  -27.7279  -26.0122   25.5633 N   0  3  0  0  0  0  0  0  0  0  0  0
  -25.7881  -16.1118   26.7083 O   0  0  0  0  0  0  0  0  0  0  0  0
  -21.4795  -29.6479   20.6501 O   0  0  0  0  0  0  0  0  0  0  0  0
  -23.2808  -28.5117   23.5344 O   0  0  0  0  0  0  0  0  0  0  0  0
  -31.1510  -21.7508   21.0194 O   0  0  0  0  0  0  0  0  0  0  0  0
  -27.4062  -26.9538   22.9315 O   0  0  0  0  0  0  0  0  0  0  0  0
  -23.2605  -12.3564   20.3762 O   0  0  0  0  0  0  0  0  0  0  0  0
  -26.1092  -23.8882   17.8823 O   0  0  0  0  0  0  0  0  0  1  0  0
  -24.2639   -7.1983   22.0470 F   0  0  0  0  0  0  0  0  0  0  0  0
  -22.7019  -11.5708   22.9673 F   0  0  0  0  0  0  0  0  0  0  0  0
  1  2  1  0  0  0  0
  1  5  2  0  0  0  0
  2  6  2  0  0  0  0
  3  8  2  0  0  0  0
  3 15  1  0  0  0  0
  4  9  1  0  0  0  0
  4 15  2  0  0  0  0
  5 17  1  0  0  0  0
  6 19  1  0  0  0  0
  7 10  2  0  0  0  0
  7 18  1  0  0  0  0
  8 21  1  0  0  0  0
  9 21  2  0  0  0  0
 10 22  1  0  0  0  0
 11 12  2  0  0  0  0
 11 23  1  0  0  0  0
 12 24  1  0  0  0  0
 13 20  1  0  0  0  0
 13 22  2  0  0  0  0
 14 24  2  0  0  0  0
 14 25  1  0  0  0  0
 15 26  1  0  0  0  0
 16 26  1  0  0  0  0
 16 27  2  0  0  0  0
 16 30  1  0  0  0  0
 17 19  2  0  0  0  0
 17 35  1  0  0  0  0
 18 20  2  0  0  0  0
 18 36  1  0  0  0  0
 19 44  1  0  0  0  0
 20 37  1  0  0  0  0
 21 82  1  0  0  0  0
 22 83  1  0  0  0  0
 23 25  2  0  0  0  0
 23 82  1  0  0  0  0
 24 84  1  0  0  0  0
 25 85  1  0  0  0  0
 26 65  2  0  0  0  0
 27 68  1  0  0  0  0
 27 72  1  0  0  0  0
 28 47  1  0  0  0  0
 28 66  1  0  0  0  0
 28 67  2  0  0  0  0
 29 56  1  0  0  0  0
 29 66  2  0  0  0  0
 29 69  1  0  0  0  0
 30 73  1  0  0  0  0
 30 77  2  0  0  0  0
 31 45  1  0  0  0  0
 31 74  1  0  0  0  0
 31 78  2  0  0  0  0
 32 60  1  0  0  0  0
 32 70  1  0  0  0  0
 32 79  2  0  0  0  0
 33 63  1  0  0  0  0
 33 71  1  0  0  0  0
 33 80  2  0  0  0  0
 34 61  1  0  0  0  0
 34 75  1  0  0  0  0
 34 81  2  0  0  0  0
 35 38  1  0  0  0  0
 36 45  1  0  0  0  0
 37 70  1  0  0  0  0
 38 40  1  0  0  0  0
 39 41  1  0  0  0  0
 39 42  1  0  0  0  0
 40 44  1  0  0  0  0
 41 46  1  0  0  0  0
 42 71  1  0  0  0  0
 43 46  1  0  0  0  0
 43 71  1  0  0  0  0
 44 74  1  0  0  0  0
 45 70  1  0  0  0  0
 46 68  1  0  0  0  0
 48 61  1  0  0  0  0
 49 62  1  0  0  0  0
 50 63  1  0  0  0  0
 51 63  1  0  0  0  0
 52 64  1  0  0  0  0
 53 64  1  0  0  0  0
 54 64  1  0  0  0  0
 55 76  1  0  0  0  0
 56 57  1  0  0  0  0
 57 58  1  0  0  0  0
 58 62  1  0  0  0  0
 59 62  1  0  0  0  0
 59 83  1  0  0  0  0
 60 64  1  0  0  0  0
 60 75  1  0  0  0  0
 61 76  1  0  0  0  0
 63 69  1  0  0  0  0
 65 68  1  0  0  0  0
 67 69  1  0  0  0  0
M  CHG  1  76   1
M  ISO  4  33 100  59 101  63 100  83 101
M  END
> <Batch ID>
0068

> <Smiles>
CNC(C)C(=O)NC(C(=O)N1Cc2cc([101O:1][101CH2:1]C(C)CCCc3nc(C)nn3[100C:0](C)(C)[100C:0](=O)N3CCCC(n4nc(-c5ccc(Oc6ccc(F)cc6F)cc5)c(C(N)=O)c4N)C3)ccc2CC1C(=O)NC1CCCc2ccccc21)C(C)(C)C

> <Shape>
0.208

> <Color>
0.056

> <Negative vol penalty>
0.000

$$$$

  -OEChem-04052318143D

 86 94  0     1  0  0  0  0  0999 V2000
  -30.0783  -27.8384    9.8364 C   0  0  0  0  0  0  0  0  0  0  0  0
  -30.3067  -26.4695    9.9334 C   0  0  0  0  0  0  0  0  0  0  0  0
  -22.9628   -9.9675   19.9994 C   0  0  0  0  0  0  0  0  0  0  0  0
  -23.6427  -10.0063   22.3175 C   0  0  0  0  0  0  0  0  0  0  0  0
  -30.2487  -28.6534   10.9547 C   0  0  0  0  0  0  0  0  0  0  0  0
  -30.7067  -25.9149   11.1486 C   0  0  0  0  0  0  0  0  0  0  0  0
  -29.2056  -20.4011   13.3508 C   0  0  0  0  0  0  0  0  0  0  0  0
  -22.1433   -8.8689   20.2582 C   0  0  0  0  0  0  0  0  0  0  0  0
  -22.8231   -8.9077   22.5763 C   0  0  0  0  0  0  0  0  0  0  0  0
  -29.8783  -19.1799   13.3603 C   0  0  0  0  0  0  0  0  0  0  0  0
  -22.9339   -5.5577   22.1338 C   0  0  0  0  0  0  0  0  0  0  0  0
  -23.4621   -4.5225   22.9053 C   0  0  0  0  0  0  0  0  0  0  0  0
  -34.0504  -17.5344   18.4527 C   0  0  0  0  0  0  0  0  0  0  0  0
  -30.6840  -19.6481   15.5854 C   0  0  0  0  0  0  0  0  0  0  0  0
  -21.7166   -4.8523   24.5428 C   0  0  0  0  0  0  0  0  0  0  0  0
  -34.4909  -18.1668   17.3159 C   0  0  0  0  0  0  0  0  0  0  0  0
  -23.7126  -10.5362   21.0291 C   0  0  0  0  0  0  0  0  0  0  0  0
  -24.2086  -13.0315   20.8427 C   0  0  0  0  0  0  0  0  0  0  0  0
  -30.6417  -28.1071   12.1867 C   0  0  0  0  0  0  0  0  0  0  0  0
  -29.2761  -21.2612   14.4561 C   0  0  0  0  0  0  0  0  0  0  0  0
  -30.8839  -26.7236   12.2841 C   0  0  0  0  0  0  0  0  0  0  0  0
  -30.0092  -20.8784   15.5884 C   0  0  0  0  0  0  0  0  0  0  0  0
  -22.0734   -8.3390   21.5466 C   0  0  0  0  0  0  0  0  0  0  0  0
  -30.6200  -18.8045   14.4766 C   0  0  0  0  0  0  0  0  0  0  0  0
  -21.7971   -6.2402   22.5669 C   0  0  0  0  0  0  0  0  0  0  0  0
  -22.8534   -4.1698   24.1097 C   0  0  0  0  0  0  0  0  0  0  0  0
  -21.1885   -5.8875   23.7714 C   0  0  0  0  0  0  0  0  0  0  0  0
  -24.5599  -11.6707   20.7623 C   0  0  0  0  0  0  0  0  0  0  0  0
  -32.7835  -17.0283   18.1054 C   0  0  0  0  0  0  0  0  0  0  0  0
  -25.3554  -13.7032   20.4960 C   0  0  0  0  0  0  0  0  0  0  0  0
  -22.9576  -13.6346   21.1991 C   0  0  0  0  0  0  0  0  0  0  0  0
  -30.3680  -24.2069   14.9400 C   0  0  0  0  0  0  0  0  0  0  0  0
  -29.0588  -23.7905   17.8785 C   0  0  0  0  0  0  0  0  0  0  0  0
  -28.0286  -21.6306   20.3116 C   0  0  0  0  0  0  0  0  0  0  0  0
  -30.9695  -14.1064   21.2939 C   0  0  0  0  0  0  0  0  0  0  0  0
  -30.8588  -29.0347   13.3559 C   0  0  0  0  0  0  0  0  0  0  0  0
  -28.5229  -22.5631   14.4406 C   0  0  0  0  0  0  0  0  0  0  0  0
  -30.1001  -21.7568   16.8085 C   0  0  0  0  0  0  0  0  0  0  0  0
  -30.9219  -28.3152   14.7008 C   0  0  0  0  0  0  0  0  0  0  0  0
  -29.6868  -12.0458   18.4992 C   0  0  0  0  0  0  0  0  0  0  0  0
  -31.8310  -27.0936   14.6105 C   0  0  0  0  0  0  0  0  0  0  0  0
  -28.2274  -11.8229   18.8922 C   0  0  0  0  0  0  0  0  0  0  0  0
  -30.5790  -12.2452   19.7206 C   0  0  0  0  0  0  0  0  0  0  0  0
  -28.6623  -13.1082   21.0228 C   0  0  0  0  0  0  0  0  0  0  0  0
  -31.2949  -26.0811   13.5912 C   0  0  1  0  0  0  0  0  0  0  0  0
  -29.0844  -23.5899   15.4191 C   0  0  1  0  0  0  0  0  0  0  0  0
  -27.7289  -12.9502   19.8131 C   0  0  2  0  0  0  0  0  0  0  0  0
  -27.0366  -21.5874   22.6163 C   0  0  0  0  0  0  0  0  0  0  0  0
  -31.7674  -24.5565   19.0562 C   0  0  0  0  0  0  0  0  0  0  0  0
  -31.0123  -23.5926   21.2399 C   0  0  0  0  0  0  0  0  0  0  0  0
  -29.7977  -25.5328   20.2485 C   0  0  0  0  0  0  0  0  0  0  0  0
  -34.9760  -18.5924   14.4262 C   0  0  0  0  0  0  0  0  0  0  0  0
  -33.0107  -20.0129   14.8699 C   0  0  0  0  0  0  0  0  0  0  0  0
  -32.5660  -18.0798   12.5360 C   0  0  0  0  0  0  0  0  0  0  0  0
  -33.0697  -16.1349   14.0126 C   0  0  0  0  0  0  0  0  0  0  0  0
  -31.0894  -16.0873   22.7572 C   0  0  0  0  0  0  0  0  0  0  0  0
  -25.6286  -20.1726   19.3771 C   0  0  0  0  0  0  0  0  0  0  0  0
  -31.8607  -16.2593   18.9575 C   0  0  0  0  0  0  0  0  0  0  0  0
  -30.8541  -17.1110   19.7710 C   0  0  0  0  0  0  0  0  0  0  0  0
  -29.8828  -16.2882   20.6148 C   0  0  0  0  0  0  0  0  0  0  0  0
  -29.5473  -23.2462   19.1992 C   0  0  1  0  0  0  0  0  0  0  0  0
  -26.7476  -21.5645   21.1234 C   0  0  2  0  0  0  0  0  0  0  0  0
  -30.5312  -24.2161   19.9124 C   0  0  0  0  0  0  0  0  0  0  0  0
  -33.5049  -18.5404   14.9340 C   0  0  0  0  0  0  0  0  0  0  0  0
  -32.6192  -17.6076   14.0006 C   0  0  0  0  0  0  0  0  0  1  0  0
  -25.8303  -11.4870   20.3932 N   0  0  0  0  0  0  0  0  0  0  0  0
  -32.4412  -17.3147   16.8465 N   0  0  0  0  0  0  0  0  0  0  0  0
  -33.4996  -18.0076   16.3928 N   0  0  0  0  0  0  0  0  0  0  0  0
  -26.2874  -12.7413   20.2386 N   0  0  0  0  0  0  0  0  0  0  0  0
  -29.3513  -23.0227   16.7424 N   0  0  0  0  0  0  0  0  0  0  0  0
  -30.0588  -13.2924   20.6004 N   0  0  0  0  0  0  0  0  0  0  0  0
  -25.6474  -15.0169   20.3891 N   0  0  0  0  0  0  0  0  0  0  0  0
  -21.8822  -12.7981   21.5277 N   0  0  0  0  0  0  0  0  0  0  0  0
  -30.1934  -25.3310   14.1554 N   0  0  0  0  0  0  0  0  0  0  0  0
  -28.3541  -22.9277   19.9758 N   0  0  0  0  0  0  0  0  0  0  0  0
  -30.5688  -15.4221   21.5712 N   0  0  0  0  0  0  0  0  0  0  0  0
  -25.9989  -20.3149   20.8088 N   0  3  0  0  0  0  0  0  0  0  0  0
  -22.7935  -14.8782   21.2093 O   0  0  0  0  0  0  0  0  0  0  0  0
  -31.4376  -23.7015   15.2597 O   0  0  0  0  0  0  0  0  0  0  0  0
  -28.4343  -24.8541   17.8566 O   0  0  0  0  0  0  0  0  0  0  0  0
  -28.6778  -20.6318   20.0091 O   0  0  0  0  0  0  0  0  0  0  0  0
  -32.0813  -13.6842   21.6368 O   0  0  0  0  0  0  0  0  0  0  0  0
  -21.2735   -7.2672   21.7995 O   0  0  0  0  0  0  0  0  0  0  0  0
  -31.2781  -17.6135   14.4883 O   0  0  0  0  0  0  0  0  0  1  0  0
  -23.3598   -3.1747   24.8497 F   0  0  0  0  0  0  0  0  0  0  0  0
  -20.0955   -6.5388   24.1921 F   0  0  0  0  0  0  0  0  0  0  0  0
  1  2  1  0  0  0  0
  1  5  2  0  0  0  0
  2  6  2  0  0  0  0
  3  8  2  0  0  0  0
  3 17  1  0  0  0  0
  4  9  1  0  0  0  0
  4 17  2  0  0  0  0
  5 19  1  0  0  0  0
  6 21  1  0  0  0  0
  7 10  2  0  0  0  0
  7 20  1  0  0  0  0
  8 23  1  0  0  0  0
  9 23  2  0  0  0  0
 10 24  1  0  0  0  0
 11 12  2  0  0  0  0
 11 25  1  0  0  0  0
 12 26  1  0  0  0  0
 13 16  2  0  0  0  0
 13 29  1  0  0  0  0
 14 22  1  0  0  0  0
 14 24  2  0  0  0  0
 15 26  2  0  0  0  0
 15 27  1  0  0  0  0
 16 68  1  0  0  0  0
 17 28  1  0  0  0  0
 18 28  1  0  0  0  0
 18 30  2  0  0  0  0
 18 31  1  0  0  0  0
 19 21  2  0  0  0  0
 19 36  1  0  0  0  0
 20 22  2  0  0  0  0
 20 37  1  0  0  0  0
 21 45  1  0  0  0  0
 22 38  1  0  0  0  0
 23 83  1  0  0  0  0
 24 84  1  0  0  0  0
 25 27  2  0  0  0  0
 25 83  1  0  0  0  0
 26 85  1  0  0  0  0
 27 86  1  0  0  0  0
 28 66  2  0  0  0  0
 29 58  1  0  0  0  0
 29 67  2  0  0  0  0
 30 69  1  0  0  0  0
 30 72  1  0  0  0  0
 31 73  1  0  0  0  0
 31 78  2  0  0  0  0
 32 46  1  0  0  0  0
 32 74  1  0  0  0  0
 32 79  2  0  0  0  0
 33 61  1  0  0  0  0
 33 70  1  0  0  0  0
 33 80  2  0  0  0  0
 34 62  1  0  0  0  0
 34 75  1  0  0  0  0
 34 81  2  0  0  0  0
 35 71  1  0  0  0  0
 35 76  1  0  0  0  0
 35 82  2  0  0  0  0
 36 39  1  0  0  0  0
 37 46  1  0  0  0  0
 38 70  1  0  0  0  0
 39 41  1  0  0  0  0
 40 42  1  0  0  0  0
 40 43  1  0  0  0  0
 41 45  1  0  0  0  0
 42 47  1  0  0  0  0
 43 71  1  0  0  0  0
 44 47  1  0  0  0  0
 44 71  1  0  0  0  0
 45 74  1  0  0  0  0
 46 70  1  0  0  0  0
 47 69  1  0  0  0  0
 48 62  1  0  0  0  0
 49 63  1  0  0  0  0
 50 63  1  0  0  0  0
 51 63  1  0  0  0  0
 52 64  1  0  0  0  0
 53 64  1  0  0  0  0
 54 65  1  0  0  0  0
 55 65  1  0  0  0  0
 56 76  1  0  0  0  0
 57 77  1  0  0  0  0
 58 59  1  0  0  0  0
 59 60  1  0  0  0  0
 60 76  1  0  0  0  0
 61 63  1  0  0  0  0
 61 75  1  0  0  0  0
 62 77  1  0  0  0  0
 64 65  1  0  0  0  0
 64 68  1  0  0  0  0
 65 84  1  0  0  0  0
 66 69  1  0  0  0  0
 67 68  1  0  0  0  0
M  CHG  1  77   1
M  ISO  4  35 100  65 101  76 100  84 101
M  END
> <Batch ID>
0068

> <Smiles>
CNC(C)C(=O)NC(C(=O)N1Cc2cc([101O:1][101C:1](C)(C)C(C)(C)n3ccc(CCC[100N:0](C)[100C:0](=O)N4CCCC(n5nc(-c6ccc(Oc7ccc(F)cc7F)cc6)c(C(N)=O)c5N)C4)n3)ccc2CC1C(=O)NC1CCCc2ccccc21)C(C)(C)C

> <Shape>
0.233

> <Color>
0.185

> <Negative vol penalty>
0.000

$$$$

  -OEChem-04052318142D

  0  0  0     0  0  0  0  0  0999 V2000
M  END
$$$$

  -OEChem-04052318143D

 91 99  0     1  0  0  0  0  0999 V2000
  -16.9417  -26.7378   22.9715 C   0  0  0  0  0  0  0  0  0  0  0  0
  -18.2043  -26.1566   22.9110 C   0  0  0  0  0  0  0  0  0  0  0  0
  -24.2243  -19.7059   20.6886 C   0  0  0  0  0  0  0  0  0  0  0  0
  -25.3329  -18.8497   18.7202 C   0  0  0  0  0  0  0  0  0  0  0  0
  -16.7617  -28.0560   22.5547 C   0  0  0  0  0  0  0  0  0  0  0  0
  -19.2874  -26.8932   22.4325 C   0  0  0  0  0  0  0  0  0  0  0  0
  -25.0984  -26.5541   24.3359 C   0  0  0  0  0  0  0  0  0  0  0  0
  -23.8896  -20.8685   19.9945 C   0  0  0  0  0  0  0  0  0  0  0  0
  -24.9982  -20.0123   18.0259 C   0  0  0  0  0  0  0  0  0  0  0  0
  -26.2135  -25.8869   23.8307 C   0  0  0  0  0  0  0  0  0  0  0  0
  -23.0543  -24.2166   18.8472 C   0  0  0  0  0  0  0  0  0  0  0  0
  -23.2434  -25.4375   19.4947 C   0  0  0  0  0  0  0  0  0  0  0  0
  -26.8950  -27.9011   22.6915 C   0  0  0  0  0  0  0  0  0  0  0  0
  -25.6024  -24.9602   19.7056 C   0  0  0  0  0  0  0  0  0  0  0  0
  -30.0687  -18.4329   19.6243 C   0  0  0  0  0  0  0  0  0  0  0  0
  -31.6513  -18.1208   21.7516 C   0  0  0  0  0  0  0  0  0  0  0  0
  -24.9460  -18.6965   20.0515 C   0  0  0  0  0  0  0  0  0  0  0  0
  -24.5370  -16.3110   20.8577 C   0  0  0  0  0  0  0  0  0  0  0  0
  -17.8449  -28.8122   22.0800 C   0  0  0  0  0  0  0  0  0  0  0  0
  -24.8671  -27.8991   24.0133 C   0  0  0  0  0  0  0  0  0  0  0  0
  -19.1214  -28.2224   22.0078 C   0  0  0  0  0  0  0  0  0  0  0  0
  -25.7777  -28.5838   23.1959 C   0  0  0  0  0  0  0  0  0  0  0  0
  -24.2765  -21.0217   18.6631 C   0  0  0  0  0  0  0  0  0  0  0  0
  -27.1105  -26.5595   23.0060 C   0  0  0  0  0  0  0  0  0  0  0  0
  -24.1392  -23.3674   18.6290 C   0  0  0  0  0  0  0  0  0  0  0  0
  -24.5174  -25.8093   19.9238 C   0  0  0  0  0  0  0  0  0  0  0  0
  -25.4132  -23.7392   19.0582 C   0  0  0  0  0  0  0  0  0  0  0  0
  -25.2925  -17.4955   20.7682 C   0  0  0  0  0  0  0  0  0  0  0  0
  -30.4895  -19.5172   20.3624 C   0  0  0  0  0  0  0  0  0  0  0  0
  -31.2299  -17.0364   21.0140 C   0  0  0  0  0  0  0  0  0  0  0  0
  -25.2947  -15.4791   21.6453 C   0  0  0  0  0  0  0  0  0  0  0  0
  -23.2641  -15.9913   20.2805 C   0  0  0  0  0  0  0  0  0  0  0  0
  -22.5619  -29.4777   22.4975 C   0  0  0  0  0  0  0  0  0  0  0  0
  -24.2453  -32.0782   23.4598 C   0  0  0  0  0  0  0  0  0  0  0  0
  -31.1932  -15.3016   22.7804 C   0  0  0  0  0  0  0  0  0  0  0  0
  -27.2393  -33.3920   24.4379 C   0  0  0  0  0  0  0  0  0  0  0  0
  -17.5922  -30.2182   21.5963 C   0  0  0  0  0  0  0  0  0  0  0  0
  -23.6738  -28.6120   24.5879 C   0  0  0  0  0  0  0  0  0  0  0  0
  -25.5856  -30.0337   22.8361 C   0  0  0  0  0  0  0  0  0  0  0  0
  -18.8636  -31.0510   21.4538 C   0  0  0  0  0  0  0  0  0  0  0  0
  -28.5274  -15.5572   25.1612 C   0  0  0  0  0  0  0  0  0  0  0  0
  -19.9446  -30.2554   20.7291 C   0  0  0  0  0  0  0  0  0  0  0  0
  -27.3340  -16.0031   24.3174 C   0  0  0  0  0  0  0  0  0  0  0  0
  -29.8299  -16.1673   24.6528 C   0  0  0  0  0  0  0  0  0  0  0  0
  -28.9109  -16.3446   22.3625 C   0  0  0  0  0  0  0  0  0  0  0  0
  -20.3257  -28.9969   21.5181 C   0  0  1  0  0  0  0  0  0  0  0  0
  -23.2622  -29.8371   23.7773 C   0  0  1  0  0  0  0  0  0  0  0  0
  -27.5792  -15.7264   22.8235 C   0  0  2  0  0  0  0  0  0  0  0  0
  -28.3121  -35.5550   25.1220 C   0  0  0  0  0  0  0  0  0  0  0  0
  -31.7761  -22.9502   17.5439 C   0  0  0  0  0  0  0  0  0  0  0  0
  -30.3304  -24.9448   17.8578 C   0  0  0  0  0  0  0  0  0  0  0  0
  -33.1974  -15.5198   21.3624 C   0  0  0  0  0  0  0  0  0  0  0  0
  -31.0821  -14.5046   20.5088 C   0  0  0  0  0  0  0  0  0  0  0  0
  -24.2722  -32.9836   20.5462 C   0  0  0  0  0  0  0  0  0  0  0  0
  -26.1109  -34.5789   21.1315 C   0  0  0  0  0  0  0  0  0  0  0  0
  -23.8705  -34.8130   22.2034 C   0  0  0  0  0  0  0  0  0  0  0  0
  -32.0877  -24.2513   20.3792 C   0  0  0  0  0  0  0  0  0  0  0  0
  -27.9526  -32.3285   27.1060 C   0  0  0  0  0  0  0  0  0  0  0  0
  -30.0635  -20.9149   19.9826 C   0  0  0  0  0  0  0  0  0  0  0  0
  -31.1283  -21.9474   20.3764 C   0  0  0  0  0  0  0  0  0  0  0  0
  -29.6292  -23.9638   22.2406 C   0  0  0  0  0  0  0  0  0  0  0  0
  -28.3642  -24.5429   22.8744 C   0  0  0  0  0  0  0  0  0  1  0  0
  -25.3738  -32.8960   22.8796 C   0  0  1  0  0  0  0  0  0  0  0  0
  -27.6121  -34.2929   25.6014 C   0  0  2  0  0  0  0  0  0  0  0  0
  -30.6233  -23.5296   18.3825 C   0  0  0  0  0  0  0  0  0  0  0  0
  -31.6503  -15.6582   21.3883 C   0  0  0  0  0  0  0  0  0  0  0  0
  -24.9097  -33.7900   21.6952 C   0  0  0  0  0  0  0  0  0  0  0  0
  -30.8440  -23.4297   19.9533 C   0  0  2  0  0  0  0  0  0  0  0  0
  -29.5923  -24.0011   20.7059 C   0  0  0  0  0  0  0  0  0  0  0  0
  -31.2886  -19.3807   21.4390 N   0  0  0  0  0  0  0  0  0  0  0  0
  -30.4310  -17.1730   19.9371 N   0  0  0  0  0  0  0  0  0  0  0  0
  -26.4419  -17.4263   21.4450 N   0  0  0  0  0  0  0  0  0  0  0  0
  -26.4143  -16.1884   21.9674 N   0  0  0  0  0  0  0  0  0  0  0  0
  -24.4004  -30.6853   23.4176 N   0  0  0  0  0  0  0  0  0  0  0  0
  -30.0150  -15.9016   23.2251 N   0  0  0  0  0  0  0  0  0  0  0  0
  -25.1059  -14.2175   22.0868 N   0  0  0  0  0  0  0  0  0  0  0  0
  -22.6226  -16.9613   19.4982 N   0  0  0  0  0  0  0  0  0  0  0  0
  -21.1931  -29.3379   22.6253 N   0  0  0  0  0  0  0  0  0  0  0  0
  -25.9568  -33.6355   23.9938 N   0  0  0  0  0  0  0  0  0  0  0  0
  -28.5230  -33.5776   26.5392 N   0  3  0  0  0  0  0  0  0  0  0  0
  -22.7043  -14.8843   20.4668 O   0  0  0  0  0  0  0  0  0  0  0  0
  -23.2148  -29.3391   21.4698 O   0  0  0  0  0  0  0  0  0  0  0  0
  -23.2656  -32.6541   23.9396 O   0  0  0  0  0  0  0  0  0  0  0  0
  -31.8631  -14.5109   23.4499 O   0  0  0  0  0  0  0  0  0  0  0  0
  -28.0102  -32.5584   23.9673 O   0  0  0  0  0  0  0  0  0  0  0  0
  -23.9499  -22.1560   17.9854 O   0  0  0  0  0  0  0  0  0  0  0  0
  -28.2077  -25.9055   22.5072 O   0  0  0  0  0  0  0  0  0  1  0  0
  -24.6992  -26.9824   20.5442 F   0  0  0  0  0  0  0  0  0  0  0  0
  -26.4595  -22.9281   18.8503 F   0  0  0  0  0  0  0  0  0  0  0  0
  -29.3993  -25.2953   20.3275 F   0  0  0  0  0  0  0  0  0  0  0  0
  -28.4830  -23.3235   20.2969 F   0  0  0  0  0  0  0  0  0  0  0  0
  1  2  1  0  0  0  0
  1  5  2  0  0  0  0
  2  6  2  0  0  0  0
  3  8  2  0  0  0  0
  3 17  1  0  0  0  0
  4  9  1  0  0  0  0
  4 17  2  0  0  0  0
  5 19  1  0  0  0  0
  6 21  1  0  0  0  0
  7 10  2  0  0  0  0
  7 20  1  0  0  0  0
  8 23  1  0  0  0  0
  9 23  2  0  0  0  0
 10 24  1  0  0  0  0
 11 12  2  0  0  0  0
 11 25  1  0  0  0  0
 12 26  1  0  0  0  0
 13 22  1  0  0  0  0
 13 24  2  0  0  0  0
 14 26  2  0  0  0  0
 14 27  1  0  0  0  0
 15 29  1  0  0  0  0
 15 71  2  0  0  0  0
 16 30  2  0  0  0  0
 16 70  1  0  0  0  0
 17 28  1  0  0  0  0
 18 28  1  0  0  0  0
 18 31  2  0  0  0  0
 18 32  1  0  0  0  0
 19 21  2  0  0  0  0
 19 37  1  0  0  0  0
 20 22  2  0  0  0  0
 20 38  1  0  0  0  0
 21 46  1  0  0  0  0
 22 39  1  0  0  0  0
 23 86  1  0  0  0  0
 24 87  1  0  0  0  0
 25 27  2  0  0  0  0
 25 86  1  0  0  0  0
 26 88  1  0  0  0  0
 27 89  1  0  0  0  0
 28 72  2  0  0  0  0
 29 59  1  0  0  0  0
 29 70  2  0  0  0  0
 30 66  1  0  0  0  0
 30 71  1  0  0  0  0
 31 73  1  0  0  0  0
 31 76  1  0  0  0  0
 32 77  1  0  0  0  0
 32 81  2  0  0  0  0
 33 47  1  0  0  0  0
 33 78  1  0  0  0  0
 33 82  2  0  0  0  0
 34 63  1  0  0  0  0
 34 74  1  0  0  0  0
 34 83  2  0  0  0  0
 35 66  1  0  0  0  0
 35 75  1  0  0  0  0
 35 84  2  0  0  0  0
 36 64  1  0  0  0  0
 36 79  1  0  0  0  0
 36 85  2  0  0  0  0
 37 40  1  0  0  0  0
 38 47  1  0  0  0  0
 39 74  1  0  0  0  0
 40 42  1  0  0  0  0
 41 43  1  0  0  0  0
 41 44  1  0  0  0  0
 42 46  1  0  0  0  0
 43 48  1  0  0  0  0
 44 75  1  0  0  0  0
 45 48  1  0  0  0  0
 45 75  1  0  0  0  0
 46 78  1  0  0  0  0
 47 74  1  0  0  0  0
 48 73  1  0  0  0  0
 49 64  1  0  0  0  0
 50 65  1  0  0  0  0
 51 65  1  0  0  0  0
 52 66  1  0  0  0  0
 53 66  1  0  0  0  0
 54 67  1  0  0  0  0
 55 67  1  0  0  0  0
 56 67  1  0  0  0  0
 57 68  1  0  0  0  0
 58 80  1  0  0  0  0
 59 60  1  0  0  0  0
 60 68  1  0  0  0  0
 61 62  1  0  0  0  0
 61 69  1  0  0  0  0
 62 87  1  0  0  0  0
 63 67  1  0  0  0  0
 63 79  1  0  0  0  0
 64 80  1  0  0  0  0
 65 68  1  0  0  0  0
 68 69  1  0  0  0  0
 69 90  1  0  0  0  0
 69 91  1  0  0  0  0
 72 73  1  0  0  0  0
M  CHG  1  80   1
M  ISO  4  35 100  62 101  66 100  87 101
M  END
> <Batch ID>
0068

> <Smiles>
CNC(C)C(=O)NC(C(=O)N1Cc2cc([101O:1][101CH2:1]CC(F)(F)C(C)(CCc3cnc([100C:0](C)(C)[100C:0](=O)N4CCCC(n5nc(-c6ccc(Oc7ccc(F)cc7F)cc6)c(C(N)=O)c5N)C4)cn3)C(C)C)ccc2CC1C(=O)NC1CCCc2ccccc21)C(C)(C)C

> <Shape>
0.226

> <Color>
0.076

> <Negative vol penalty>
0.000

$$$$

  -OEChem-04052318143D

 98106  0     1  0  0  0  0  0999 V2000
  -18.9185  -16.4967   22.7981 C   0  0  0  0  0  0  0  0  0  0  0  0
  -19.9751  -17.3516   22.5011 C   0  0  0  0  0  0  0  0  0  0  0  0
  -19.3362  -28.9564   21.9640 C   0  0  0  0  0  0  0  0  0  0  0  0
  -20.7803  -27.4123   23.1334 C   0  0  0  0  0  0  0  0  0  0  0  0
  -19.1754  -15.2171   23.2885 C   0  0  0  0  0  0  0  0  0  0  0  0
  -21.2892  -16.9277   22.6954 C   0  0  0  0  0  0  0  0  0  0  0  0
  -26.1703  -18.3930   19.2993 C   0  0  0  0  0  0  0  0  0  0  0  0
  -18.2290  -28.4168   22.6188 C   0  0  0  0  0  0  0  0  0  0  0  0
  -19.6732  -26.8727   23.7882 C   0  0  0  0  0  0  0  0  0  0  0  0
  -27.1799  -19.3397   19.4673 C   0  0  0  0  0  0  0  0  0  0  0  0
  -17.6838  -27.6849   26.3965 C   0  0  0  0  0  0  0  0  0  0  0  0
  -17.7913  -27.4581   27.7686 C   0  0  0  0  0  0  0  0  0  0  0  0
  -28.5950  -17.6484   20.4449 C   0  0  0  0  0  0  0  0  0  0  0  0
  -17.3773  -25.1046   27.4119 C   0  0  0  0  0  0  0  0  0  0  0  0
  -20.6118  -28.4541   22.2213 C   0  0  0  0  0  0  0  0  0  0  0  0
  -22.5575  -30.0854   21.9742 C   0  0  0  0  0  0  0  0  0  0  0  0
  -20.4935  -14.7738   23.4797 C   0  0  0  0  0  0  0  0  0  0  0  0
  -26.3619  -17.0670   19.7135 C   0  0  0  0  0  0  0  0  0  0  0  0
  -21.5639  -15.6414   23.1900 C   0  0  0  0  0  0  0  0  0  0  0  0
  -27.5873  -16.6861   20.2787 C   0  0  0  0  0  0  0  0  0  0  0  0
  -18.3975  -27.3750   23.5309 C   0  0  0  0  0  0  0  0  0  0  0  0
  -28.3914  -18.9682   20.0428 C   0  0  0  0  0  0  0  0  0  0  0  0
  -17.4230  -26.6216   25.5321 C   0  0  0  0  0  0  0  0  0  0  0  0
  -17.6380  -26.1680   28.2763 C   0  0  0  0  0  0  0  0  0  0  0  0
  -17.2698  -25.3315   26.0398 C   0  0  0  0  0  0  0  0  0  0  0  0
  -21.7558  -29.0108   21.5449 C   0  0  0  0  0  0  0  0  0  0  0  0
  -23.5040  -30.2229   20.9885 C   0  0  0  0  0  0  0  0  0  0  0  0
  -31.3088  -26.3237   20.0201 C   0  0  0  0  0  0  0  0  0  0  0  0
  -30.1751  -28.0099   19.2582 C   0  0  0  0  0  0  0  0  0  0  0  0
  -22.4557  -30.8876   23.1582 C   0  0  0  0  0  0  0  0  0  0  0  0
  -24.9685  -15.1571   21.8381 C   0  0  0  0  0  0  0  0  0  0  0  0
  -26.9351  -12.9267   20.5421 C   0  0  0  0  0  0  0  0  0  0  0  0
  -29.8126  -12.2387   18.8410 C   0  0  0  0  0  0  0  0  0  0  0  0
  -27.1914  -27.9996   17.4380 C   0  0  0  0  0  0  0  0  0  0  0  0
  -20.7206  -13.3989   24.0567 C   0  0  0  0  0  0  0  0  0  0  0  0
  -25.2728  -16.0517   19.5008 C   0  0  0  0  0  0  0  0  0  0  0  0
  -27.8506  -15.2708   20.7215 C   0  0  0  0  0  0  0  0  0  0  0  0
  -22.1498  -12.8927   23.8801 C   0  0  0  0  0  0  0  0  0  0  0  0
  -23.7924  -28.1406   16.3876 C   0  0  0  0  0  0  0  0  0  0  0  0
  -23.1515  -13.9769   24.2647 C   0  0  0  0  0  0  0  0  0  0  0  0
  -23.0257  -28.4619   17.6718 C   0  0  0  0  0  0  0  0  0  0  0  0
  -24.9767  -27.2141   16.6541 C   0  0  0  0  0  0  0  0  0  0  0  0
  -25.1398  -28.0036   18.9831 C   0  0  0  0  0  0  0  0  0  0  0  0
  -23.0037  -15.2091   23.3639 C   0  0  1  0  0  0  0  0  0  0  0  0
  -25.3894  -14.8470   20.4295 C   0  0  1  0  0  0  0  0  0  0  0  0
  -23.9696  -28.9799   18.7736 C   0  0  2  0  0  0  0  0  0  0  0  0
  -33.3552  -28.6899   12.8214 C   0  0  0  0  0  0  0  0  0  0  0  0
  -31.1709  -10.3202   17.9626 C   0  0  0  0  0  0  0  0  0  0  0  0
  -29.6667  -24.7811   14.8658 C   0  0  0  0  0  0  0  0  0  0  0  0
  -31.0048  -23.2514   16.3030 C   0  0  0  0  0  0  0  0  0  0  0  0
  -30.8656  -23.7345   23.6670 C   0  0  0  0  0  0  0  0  0  0  0  0
  -28.5850  -31.0898   17.4144 C   0  0  0  0  0  0  0  0  0  0  0  0
  -31.0016  -30.7960   17.9921 C   0  0  0  0  0  0  0  0  0  0  0  0
  -29.2893  -30.9775   19.7999 C   0  0  0  0  0  0  0  0  0  0  0  0
  -27.9146  -12.3288   23.3693 C   0  0  0  0  0  0  0  0  0  0  0  0
  -29.8772  -11.1434   22.3638 C   0  0  0  0  0  0  0  0  0  0  0  0
  -27.5656  -10.3085   21.9372 C   0  0  0  0  0  0  0  0  0  0  0  0
  -32.6972  -25.5813   17.2621 C   0  0  0  0  0  0  0  0  0  0  0  0
  -29.5497  -13.1805   16.0476 C   0  0  0  0  0  0  0  0  0  0  0  0
  -31.9242  -24.9871   20.1005 C   0  0  0  0  0  0  0  0  0  0  0  0
  -32.3651  -28.6195   13.9732 C   0  0  0  0  0  0  0  0  0  0  0  0
  -32.0098  -24.4556   21.5487 C   0  0  0  0  0  0  0  0  0  0  0  0
  -32.4273  -27.2653   14.6848 C   0  0  0  0  0  0  0  0  0  0  0  0
  -30.0266  -21.9829   21.2362 C   0  0  0  0  0  0  0  0  0  0  0  0
  -29.6229  -23.4391   21.4738 C   0  0  0  0  0  0  0  0  0  0  0  0
  -31.3958  -27.1942   15.8206 C   0  0  0  0  0  0  0  0  0  0  0  0
  -30.2178  -25.9452   17.7165 C   0  0  0  0  0  0  0  0  0  0  0  0
  -28.9769  -21.2430   20.4145 C   0  0  0  0  0  0  0  0  0  1  0  0
  -29.3390  -28.8302   18.3638 C   0  0  2  0  0  0  0  0  0  0  0  0
  -28.3372  -12.4438   20.8249 C   0  0  1  0  0  0  0  0  0  0  0  0
  -30.0875  -11.3403   17.6487 C   0  0  2  0  0  0  0  0  0  0  0  0
  -30.9934  -24.6327   15.6268 C   0  0  0  0  0  0  0  0  0  0  0  0
  -30.6494  -24.2867   22.2538 C   0  0  1  0  0  0  0  0  0  0  0  0
  -29.5657  -30.4047   18.3898 C   0  0  0  0  0  0  0  0  0  0  0  0
  -28.4183  -11.5833   22.1173 C   0  0  0  0  0  0  0  0  0  0  0  0
  -31.3190  -25.8385   16.6019 C   0  0  2  0  0  0  0  0  0  0  0  0
  -22.1579  -28.5018   20.3773 N   0  0  0  0  0  0  0  0  0  0  0  0
  -31.3838  -27.2853   20.9124 N   0  0  0  0  0  0  0  0  0  0  0  0
  -30.6625  -28.3581   20.4277 N   0  0  0  0  0  0  0  0  0  0  0  0
  -23.2225  -29.2599   20.0645 N   0  0  0  0  0  0  0  0  0  0  0  0
  -30.5573  -26.7367   18.9621 N   0  0  0  0  0  0  0  0  0  0  0  0
  -26.7523  -14.3161   20.4982 N   0  0  0  0  0  0  0  0  0  0  0  0
  -25.8333  -27.7637   17.7078 N   0  0  0  0  0  0  0  0  0  0  0  0
  -24.5413  -31.0723   20.8305 N   0  0  0  0  0  0  0  0  0  0  0  0
  -21.4241  -30.6113   24.0658 N   0  0  0  0  0  0  0  0  0  0  0  0
  -23.6201  -14.9708   22.0764 N   0  0  0  0  0  0  0  0  0  0  0  0
  -28.7824  -11.7540   19.6189 N   0  0  0  0  0  0  0  0  0  0  0  0
  -27.9307  -28.5274   18.4895 N   0  0  0  0  0  0  0  0  0  0  0  0
  -30.5306  -12.1518   16.4799 N   0  3  0  0  0  0  0  0  0  0  0  0
  -23.2459  -31.8323   23.3959 O   0  0  0  0  0  0  0  0  0  0  0  0
  -25.8053  -15.5359   22.6493 O   0  0  0  0  0  0  0  0  0  0  0  0
  -26.0366  -12.1014   20.3596 O   0  0  0  0  0  0  0  0  0  0  0  0
  -30.4505  -13.2656   19.0624 O   0  0  0  0  0  0  0  0  0  0  0  0
  -27.7057  -27.7628   16.3397 O   0  0  0  0  0  0  0  0  0  0  0  0
  -17.3175  -26.8483   24.1701 O   0  0  0  0  0  0  0  0  0  0  0  0
  -29.3853  -19.8971   20.2097 O   0  0  0  0  0  0  0  0  0  1  0  0
  -17.7427  -25.9500   29.5938 F   0  0  0  0  0  0  0  0  0  0  0  0
  -17.0203  -24.3059   25.2142 F   0  0  0  0  0  0  0  0  0  0  0  0
  1  2  1  0  0  0  0
  1  5  2  0  0  0  0
  2  6  2  0  0  0  0
  3  8  2  0  0  0  0
  3 15  1  0  0  0  0
  4  9  1  0  0  0  0
  4 15  2  0  0  0  0
  5 17  1  0  0  0  0
  6 19  1  0  0  0  0
  7 10  2  0  0  0  0
  7 18  1  0  0  0  0
  8 21  1  0  0  0  0
  9 21  2  0  0  0  0
 10 22  1  0  0  0  0
 11 12  2  0  0  0  0
 11 23  1  0  0  0  0
 12 24  1  0  0  0  0
 13 20  1  0  0  0  0
 13 22  2  0  0  0  0
 14 24  2  0  0  0  0
 14 25  1  0  0  0  0
 15 26  1  0  0  0  0
 16 26  1  0  0  0  0
 16 27  2  0  0  0  0
 16 30  1  0  0  0  0
 17 19  2  0  0  0  0
 17 35  1  0  0  0  0
 18 20  2  0  0  0  0
 18 36  1  0  0  0  0
 19 44  1  0  0  0  0
 20 37  1  0  0  0  0
 21 95  1  0  0  0  0
 22 96  1  0  0  0  0
 23 25  2  0  0  0  0
 23 95  1  0  0  0  0
 24 97  1  0  0  0  0
 25 98  1  0  0  0  0
 26 77  2  0  0  0  0
 27 80  1  0  0  0  0
 27 84  1  0  0  0  0
 28 60  1  0  0  0  0
 28 78  2  0  0  0  0
 28 81  1  0  0  0  0
 29 69  1  0  0  0  0
 29 79  2  0  0  0  0
 29 81  1  0  0  0  0
 30 85  1  0  0  0  0
 30 90  2  0  0  0  0
 31 45  1  0  0  0  0
 31 86  1  0  0  0  0
 31 91  2  0  0  0  0
 32 70  1  0  0  0  0
 32 82  1  0  0  0  0
 32 92  2  0  0  0  0
 33 71  1  0  0  0  0
 33 87  1  0  0  0  0
 33 93  2  0  0  0  0
 34 83  1  0  0  0  0
 34 88  1  0  0  0  0
 34 94  2  0  0  0  0
 35 38  1  0  0  0  0
 36 45  1  0  0  0  0
 37 82  1  0  0  0  0
 38 40  1  0  0  0  0
 39 41  1  0  0  0  0
 39 42  1  0  0  0  0
 40 44  1  0  0  0  0
 41 46  1  0  0  0  0
 42 83  1  0  0  0  0
 43 46  1  0  0  0  0
 43 83  1  0  0  0  0
 44 86  1  0  0  0  0
 45 82  1  0  0  0  0
 46 80  1  0  0  0  0
 47 61  1  0  0  0  0
 48 71  1  0  0  0  0
 49 72  1  0  0  0  0
 50 72  1  0  0  0  0
 51 73  1  0  0  0  0
 52 74  1  0  0  0  0
 53 74  1  0  0  0  0
 54 74  1  0  0  0  0
 55 75  1  0  0  0  0
 56 75  1  0  0  0  0
 57 75  1  0  0  0  0
 58 76  1  0  0  0  0
 59 89  1  0  0  0  0
 60 62  1  0  0  0  0
 61 63  1  0  0  0  0
 62 73  1  0  0  0  0
 63 66  1  0  0  0  0
 64 65  1  0  0  0  0
 64 68  1  0  0  0  0
 65 73  1  0  0  0  0
 66 76  1  0  0  0  0
 67 76  1  0  0  0  0
 67 81  1  0  0  0  0
 68 96  1  0  0  0  0
 69 74  1  0  0  0  0
 69 88  1  0  0  0  0
 70 75  1  0  0  0  0
 70 87  1  0  0  0  0
 71 89  1  0  0  0  0
 72 76  1  0  0  0  0
 77 80  1  0  0  0  0
 78 79  1  0  0  0  0
M  CHG  1  89   1
M  ISO  4  34 100  68 101  88 100  96 101
M  END
> <Batch ID>
0068

> <Smiles>
CCCCC(C)(Cn1c(CCC(C)CC[101CH2:1][101O:1]c2ccc3c(c2)CN(C(=O)C(NC(=O)C(C)NC)C(C)(C)C)C(C(=O)NC2CCCc4ccccc42)C3)nnc1C([100NH:0][100C:0](=O)N1CCCC(n2nc(-c3ccc(Oc4ccc(F)cc4F)cc3)c(C(N)=O)c2N)C1)C(C)(C)C)C(C)C

> <Shape>
0.233

> <Color>
0.051

> <Negative vol penalty>
0.000

$$$$

  -OEChem-04052318142D

  0  0  0     0  0  0  0  0  0999 V2000
M  END
$$$$

  -OEChem-04052318143D

 92100  0     1  0  0  0  0  0999 V2000
  -24.8929  -12.4053   21.5342 C   0  0  0  0  0  0  0  0  0  0  0  0
  -25.0670  -13.7791   21.6581 C   0  0  0  0  0  0  0  0  0  0  0  0
  -29.5071  -17.4640   19.3770 C   0  0  0  0  0  0  0  0  0  0  0  0
  -28.0188  -17.8059   21.2492 C   0  0  0  0  0  0  0  0  0  0  0  0
  -23.7006  -11.9013   21.0188 C   0  0  0  0  0  0  0  0  0  0  0  0
  -24.0443  -14.6488   21.2779 C   0  0  0  0  0  0  0  0  0  0  0  0
  -23.8868  -20.7372   21.0925 C   0  0  0  0  0  0  0  0  0  0  0  0
  -29.7475  -16.1589   19.8064 C   0  0  0  0  0  0  0  0  0  0  0  0
  -28.2591  -16.5007   21.6786 C   0  0  0  0  0  0  0  0  0  0  0  0
  -24.1490  -21.7457   20.1662 C   0  0  0  0  0  0  0  0  0  0  0  0
  -28.1773  -13.1668   19.6827 C   0  0  0  0  0  0  0  0  0  0  0  0
  -28.1537  -12.1542   18.7238 C   0  0  0  0  0  0  0  0  0  0  0  0
  -21.8010  -21.8484   19.6225 C   0  0  0  0  0  0  0  0  0  0  0  0
  -30.4472  -11.6045   19.2477 C   0  0  0  0  0  0  0  0  0  0  0  0
  -27.0429  -26.8456   19.2135 C   0  0  0  0  0  0  0  0  0  0  0  0
  -28.6428  -18.2876   20.0985 C   0  0  0  0  0  0  0  0  0  0  0  0
  -27.3855  -20.0694   18.7748 C   0  0  0  0  0  0  0  0  0  0  0  0
  -22.6682  -12.7665   20.6207 C   0  0  0  0  0  0  0  0  0  0  0  0
  -22.5791  -20.2684   21.2832 C   0  0  0  0  0  0  0  0  0  0  0  0
  -22.8243  -14.1587   20.7779 C   0  0  0  0  0  0  0  0  0  0  0  0
  -21.5245  -20.8357   20.5537 C   0  0  0  0  0  0  0  0  0  0  0  0
  -25.8963  -27.5483   19.5233 C   0  0  0  0  0  0  0  0  0  0  0  0
  -29.1235  -15.6772   20.9572 C   0  0  0  0  0  0  0  0  0  0  0  0
  -23.1065  -22.2994   19.4289 C   0  0  0  0  0  0  0  0  0  0  0  0
  -29.3360  -13.3984   20.4241 C   0  0  0  0  0  0  0  0  0  0  0  0
  -29.2886  -11.3730   18.5063 C   0  0  0  0  0  0  0  0  0  0  0  0
  -30.4709  -12.6172   20.2066 C   0  0  0  0  0  0  0  0  0  0  0  0
  -28.3945  -19.6361   19.6557 C   0  0  0  0  0  0  0  0  0  0  0  0
  -25.9933  -28.4036   20.6019 C   0  0  0  0  0  0  0  0  0  0  0  0
  -27.5739  -21.4264   18.6779 C   0  0  0  0  0  0  0  0  0  0  0  0
  -28.1680  -27.8273   20.9275 C   0  0  0  0  0  0  0  0  0  0  0  0
  -26.3688  -19.3129   18.1042 C   0  0  0  0  0  0  0  0  0  0  0  0
  -21.1229  -17.4680   20.9077 C   0  0  0  0  0  0  0  0  0  0  0  0
  -18.6238  -19.0258   22.2678 C   0  0  0  0  0  0  0  0  0  0  0  0
  -28.8762  -25.6229   22.5122 C   0  0  0  0  0  0  0  0  0  0  0  0
  -17.0772  -21.9935   22.9366 C   0  0  0  0  0  0  0  0  0  0  0  0
  -21.3955  -12.1669   20.0768 C   0  0  0  0  0  0  0  0  0  0  0  0
  -22.3092  -19.1986   22.3055 C   0  0  0  0  0  0  0  0  0  0  0  0
  -20.1000  -20.3818   20.7357 C   0  0  0  0  0  0  0  0  0  0  0  0
  -20.5536  -13.1688   19.2933 C   0  0  0  0  0  0  0  0  0  0  0  0
  -31.3963  -24.3890   20.1536 C   0  0  0  0  0  0  0  0  0  0  0  0
  -20.3831  -14.4474   20.1000 C   0  0  0  0  0  0  0  0  0  0  0  0
  -30.7769  -22.9981   19.9816 C   0  0  0  0  0  0  0  0  0  0  0  0
  -30.3774  -25.4834   20.4697 C   0  0  0  0  0  0  0  0  0  0  0  0
  -28.5719  -23.8130   20.8797 C   0  0  0  0  0  0  0  0  0  0  0  0
  -21.7377  -15.1251   20.3423 C   0  0  1  0  0  0  0  0  0  0  0  0
  -21.0108  -18.4400   22.0480 C   0  0  1  0  0  0  0  0  0  0  0  0
  -29.2657  -23.0740   19.7227 C   0  0  2  0  0  0  0  0  0  0  0  0
  -15.0301  -22.9449   24.0328 C   0  0  0  0  0  0  0  0  0  0  0  0
  -23.6139  -28.3032   21.4228 C   0  0  0  0  0  0  0  0  0  0  0  0
  -24.3358  -30.1595   19.8836 C   0  0  0  0  0  0  0  0  0  0  0  0
  -25.0558  -30.1461   22.2633 C   0  0  0  0  0  0  0  0  0  0  0  0
  -29.5837  -29.4277   22.3294 C   0  0  0  0  0  0  0  0  0  0  0  0
  -30.7033  -27.8946   20.7737 C   0  0  0  0  0  0  0  0  0  0  0  0
  -28.9253  -27.3752   24.2114 C   0  0  0  0  0  0  0  0  0  0  0  0
  -31.0335  -26.4935   23.2327 C   0  0  0  0  0  0  0  0  0  0  0  0
  -16.9415  -18.1560   19.8755 C   0  0  0  0  0  0  0  0  0  0  0  0
  -15.2476  -19.8802   20.5282 C   0  0  0  0  0  0  0  0  0  0  0  0
  -15.7751  -18.0016   22.0823 C   0  0  0  0  0  0  0  0  0  0  0  0
  -23.2651  -25.5479   16.3611 C   0  0  0  0  0  0  0  0  0  0  0  0
  -21.8214  -26.6728   18.0751 C   0  0  0  0  0  0  0  0  0  0  0  0
  -18.6919  -23.5229   24.8892 C   0  0  0  0  0  0  0  0  0  0  0  0
  -24.6310  -27.3736   18.7184 C   0  0  0  0  0  0  0  0  0  0  0  0
  -24.1710  -25.9091   18.7110 C   0  0  0  0  0  0  0  0  0  0  0  0
  -22.3230  -24.2367   18.2935 C   0  0  0  0  0  0  0  0  0  1  0  0
  -17.4687  -19.8494   21.7517 C   0  0  1  0  0  0  0  0  0  0  0  0
  -16.4887  -22.5565   24.2177 C   0  0  2  0  0  0  0  0  0  0  0  0
  -24.8156  -29.2159   21.0290 C   0  0  0  0  0  0  0  0  0  0  0  0
  -29.4298  -27.9829   21.7070 C   0  0  0  0  0  0  0  0  0  0  0  0
  -29.5816  -26.8980   22.8979 C   0  0  0  0  0  0  0  0  0  0  0  0
  -16.3852  -18.9792   21.0544 C   0  0  0  0  0  0  0  0  0  0  0  0
  -22.9067  -25.6034   17.8579 C   0  0  0  0  0  0  0  0  0  0  0  0
  -28.2005  -26.9611   19.8968 N   0  0  0  0  0  0  0  0  0  0  0  0
  -29.1667  -20.6367   20.0875 N   0  0  0  0  0  0  0  0  0  0  0  0
  -27.1177  -28.5683   21.3293 N   0  0  0  0  0  0  0  0  0  0  0  0
  -28.6428  -21.7123   19.4753 N   0  0  0  0  0  0  0  0  0  0  0  0
  -19.8879  -19.3288   21.7426 N   0  0  0  0  0  0  0  0  0  0  0  0
  -29.3057  -24.9959   21.3413 N   0  0  0  0  0  0  0  0  0  0  0  0
  -26.9279  -22.3911   17.9891 N   0  0  0  0  0  0  0  0  0  0  0  0
  -26.3176  -17.9283   18.3153 N   0  0  0  0  0  0  0  0  0  0  0  0
  -21.5609  -16.2115   21.2805 N   0  0  0  0  0  0  0  0  0  0  0  0
  -16.9760  -20.6192   22.8889 N   0  0  0  0  0  0  0  0  0  0  0  0
  -17.2462  -23.7656   24.6481 N   0  3  0  0  0  0  0  0  0  0  0  0
  -25.5409  -19.8465   17.3275 O   0  0  0  0  0  0  0  0  0  0  0  0
  -20.8321  -17.8306   19.7739 O   0  0  0  0  0  0  0  0  0  0  0  0
  -18.4132  -18.1507   23.1113 O   0  0  0  0  0  0  0  0  0  0  0  0
  -27.9696  -25.1899   23.2288 O   0  0  0  0  0  0  0  0  0  0  0  0
  -17.5734  -22.7024   22.0638 O   0  0  0  0  0  0  0  0  0  0  0  0
  -29.3577  -14.4036   21.3764 O   0  0  0  0  0  0  0  0  0  0  0  0
  -23.3597  -23.2834   18.5237 O   0  0  0  0  0  0  0  0  0  1  0  0
  -29.2652  -10.3996   17.5865 F   0  0  0  0  0  0  0  0  0  0  0  0
  -31.5866  -12.8341   20.9166 F   0  0  0  0  0  0  0  0  0  0  0  0
  1  2  1  0  0  0  0
  1  5  2  0  0  0  0
  2  6  2  0  0  0  0
  3  8  2  0  0  0  0
  3 16  1  0  0  0  0
  4  9  1  0  0  0  0
  4 16  2  0  0  0  0
  5 18  1  0  0  0  0
  6 20  1  0  0  0  0
  7 10  2  0  0  0  0
  7 19  1  0  0  0  0
  8 23  1  0  0  0  0
  9 23  2  0  0  0  0
 10 24  1  0  0  0  0
 11 12  2  0  0  0  0
 11 25  1  0  0  0  0
 12 26  1  0  0  0  0
 13 21  1  0  0  0  0
 13 24  2  0  0  0  0
 14 26  2  0  0  0  0
 14 27  1  0  0  0  0
 15 22  1  0  0  0  0
 15 73  2  0  0  0  0
 16 28  1  0  0  0  0
 17 28  1  0  0  0  0
 17 30  2  0  0  0  0
 17 32  1  0  0  0  0
 18 20  2  0  0  0  0
 18 37  1  0  0  0  0
 19 21  2  0  0  0  0
 19 38  1  0  0  0  0
 20 46  1  0  0  0  0
 21 39  1  0  0  0  0
 22 29  2  0  0  0  0
 22 63  1  0  0  0  0
 23 89  1  0  0  0  0
 24 90  1  0  0  0  0
 25 27  2  0  0  0  0
 25 89  1  0  0  0  0
 26 91  1  0  0  0  0
 27 92  1  0  0  0  0
 28 74  2  0  0  0  0
 29 68  1  0  0  0  0
 29 75  1  0  0  0  0
 30 76  1  0  0  0  0
 30 79  1  0  0  0  0
 31 69  1  0  0  0  0
 31 73  1  0  0  0  0
 31 75  2  0  0  0  0
 32 80  1  0  0  0  0
 32 84  2  0  0  0  0
 33 47  1  0  0  0  0
 33 81  1  0  0  0  0
 33 85  2  0  0  0  0
 34 66  1  0  0  0  0
 34 77  1  0  0  0  0
 34 86  2  0  0  0  0
 35 70  1  0  0  0  0
 35 78  1  0  0  0  0
 35 87  2  0  0  0  0
 36 67  1  0  0  0  0
 36 82  1  0  0  0  0
 36 88  2  0  0  0  0
 37 40  1  0  0  0  0
 38 47  1  0  0  0  0
 39 77  1  0  0  0  0
 40 42  1  0  0  0  0
 41 43  1  0  0  0  0
 41 44  1  0  0  0  0
 42 46  1  0  0  0  0
 43 48  1  0  0  0  0
 44 78  1  0  0  0  0
 45 48  1  0  0  0  0
 45 78  1  0  0  0  0
 46 81  1  0  0  0  0
 47 77  1  0  0  0  0
 48 76  1  0  0  0  0
 49 67  1  0  0  0  0
 50 68  1  0  0  0  0
 51 68  1  0  0  0  0
 52 68  1  0  0  0  0
 53 69  1  0  0  0  0
 54 69  1  0  0  0  0
 55 70  1  0  0  0  0
 56 70  1  0  0  0  0
 57 71  1  0  0  0  0
 58 71  1  0  0  0  0
 59 71  1  0  0  0  0
 60 72  1  0  0  0  0
 61 72  1  0  0  0  0
 62 83  1  0  0  0  0
 63 64  1  0  0  0  0
 64 72  1  0  0  0  0
 65 72  1  0  0  0  0
 65 90  1  0  0  0  0
 66 71  1  0  0  0  0
 66 82  1  0  0  0  0
 67 83  1  0  0  0  0
 69 70  1  0  0  0  0
 74 76  1  0  0  0  0
M  CHG  1  83   1
M  ISO  4  35 100  65 101  70 100  90 101
M  END
> <Batch ID>
0068

> <Smiles>
CNC(C)C(=O)NC(C(=O)N1Cc2cc([101O:1][101CH2:1]C(C)(C)CCc3cnc(C(C)(C)[100C:0](C)(C)[100C:0](=O)N4CCCC(n5nc(-c6ccc(Oc7ccc(F)cc7F)cc6)c(C(N)=O)c5N)C4)nc3C(C)(C)C)ccc2CC1C(=O)NC1CCCc2ccccc21)C(C)(C)C

> <Shape>
0.216

> <Color>
0.052

> <Negative vol penalty>
0.000

$$$$

  -OEChem-04052318143D

 92100  0     1  0  0  0  0  0999 V2000
  -16.7904  -29.1679   24.1763 C   0  0  0  0  0  0  0  0  0  0  0  0
  -17.4052  -28.1960   23.3935 C   0  0  0  0  0  0  0  0  0  0  0  0
  -25.6199  -10.9600   21.5124 C   0  0  0  0  0  0  0  0  0  0  0  0
  -25.8819  -12.5359   23.3249 C   0  0  0  0  0  0  0  0  0  0  0  0
  -17.2807  -30.4731   24.1779 C   0  0  0  0  0  0  0  0  0  0  0  0
  -18.5102  -28.5291   22.6108 C   0  0  0  0  0  0  0  0  0  0  0  0
  -22.2267  -25.1050   22.9396 C   0  0  0  0  0  0  0  0  0  0  0  0
  -25.7752   -9.9029   22.4091 C   0  0  0  0  0  0  0  0  0  0  0  0
  -26.0371  -11.4788   24.2216 C   0  0  0  0  0  0  0  0  0  0  0  0
  -22.0737  -23.9272   22.2094 C   0  0  0  0  0  0  0  0  0  0  0  0
  -26.1427   -9.1902   27.0446 C   0  0  0  0  0  0  0  0  0  0  0  0
  -25.4483   -9.2561   28.2525 C   0  0  0  0  0  0  0  0  0  0  0  0
  -23.5342  -24.8035   20.5012 C   0  0  0  0  0  0  0  0  0  0  0  0
  -23.3568   -9.3356   27.0456 C   0  0  0  0  0  0  0  0  0  0  0  0
  -29.1492  -20.3388   21.0806 C   0  0  0  0  0  0  0  0  0  0  0  0
  -25.6733  -12.2765   21.9703 C   0  0  0  0  0  0  0  0  0  0  0  0
  -24.3107  -13.9982   20.6715 C   0  0  0  0  0  0  0  0  0  0  0  0
  -18.3982  -30.8201   23.4023 C   0  0  0  0  0  0  0  0  0  0  0  0
  -23.0273  -26.1471   22.4499 C   0  0  0  0  0  0  0  0  0  0  0  0
  -19.0151  -29.8405   22.6010 C   0  0  0  0  0  0  0  0  0  0  0  0
  -23.6978  -25.9926   21.2282 C   0  0  0  0  0  0  0  0  0  0  0  0
  -25.9838  -10.1623   23.7637 C   0  0  0  0  0  0  0  0  0  0  0  0
  -22.7252  -23.7774   20.9887 C   0  0  0  0  0  0  0  0  0  0  0  0
  -25.4442   -9.1972   25.8372 C   0  0  0  0  0  0  0  0  0  0  0  0
  -24.0553   -9.3287   28.2530 C   0  0  0  0  0  0  0  0  0  0  0  0
  -24.0513   -9.2698   25.8378 C   0  0  0  0  0  0  0  0  0  0  0  0
  -25.5135  -13.3690   21.0445 C   0  0  0  0  0  0  0  0  0  0  0  0
  -30.5155  -20.4736   20.9416 C   0  0  0  0  0  0  0  0  0  0  0  0
  -28.5146  -19.6295   20.0815 C   0  0  0  0  0  0  0  0  0  0  0  0
  -24.6931  -14.9664   19.7755 C   0  0  0  0  0  0  0  0  0  0  0  0
  -30.4857  -19.2891   19.0018 C   0  0  0  0  0  0  0  0  0  0  0  0
  -22.9677  -13.7314   21.0970 C   0  0  0  0  0  0  0  0  0  0  0  0
  -22.5082  -29.1663   21.6025 C   0  0  0  0  0  0  0  0  0  0  0  0
  -25.7371  -29.2274   21.2985 C   0  0  0  0  0  0  0  0  0  0  0  0
  -30.6818  -16.4901   18.9945 C   0  0  0  0  0  0  0  0  0  0  0  0
  -28.6329  -27.4936   20.7934 C   0  0  0  0  0  0  0  0  0  0  0  0
  -18.8630  -32.2549   23.4002 C   0  0  0  0  0  0  0  0  0  0  0  0
  -23.2034  -27.4007   23.2623 C   0  0  0  0  0  0  0  0  0  0  0  0
  -24.5849  -27.0733   20.6682 C   0  0  0  0  0  0  0  0  0  0  0  0
  -20.2676  -32.4392   22.8313 C   0  0  0  0  0  0  0  0  0  0  0  0
  -28.0193  -16.0358   16.5164 C   0  0  0  0  0  0  0  0  0  0  0  0
  -20.4221  -31.6613   21.5283 C   0  0  0  0  0  0  0  0  0  0  0  0
  -27.1471  -15.1310   17.3929 C   0  0  0  0  0  0  0  0  0  0  0  0
  -28.8638  -17.0337   17.3080 C   0  0  0  0  0  0  0  0  0  0  0  0
  -28.3447  -15.9009   19.4680 C   0  0  0  0  0  0  0  0  0  0  0  0
  -20.2311  -30.1572   21.7577 C   0  0  1  0  0  0  0  0  0  0  0  0
  -23.6322  -28.6008   22.4237 C   0  0  1  0  0  0  0  0  0  0  0  0
  -26.9702  -15.7037   18.8062 C   0  0  2  0  0  0  0  0  0  0  0  0
  -31.1026  -27.0900   20.6052 C   0  0  0  0  0  0  0  0  0  0  0  0
  -31.1392  -20.5686   23.3804 C   0  0  0  0  0  0  0  0  0  0  0  0
  -30.7955  -22.7002   22.0865 C   0  0  0  0  0  0  0  0  0  0  0  0
  -32.8299  -21.3191   21.7191 C   0  0  0  0  0  0  0  0  0  0  0  0
  -32.5137  -19.5437   17.4676 C   0  0  0  0  0  0  0  0  0  0  0  0
  -30.3829  -18.7869   16.5131 C   0  0  0  0  0  0  0  0  0  0  0  0
  -33.0463  -17.0620   18.7890 C   0  0  0  0  0  0  0  0  0  0  0  0
  -31.7454  -16.3022   16.8116 C   0  0  0  0  0  0  0  0  0  0  0  0
  -25.3251  -30.2764   18.4630 C   0  0  0  0  0  0  0  0  0  0  0  0
  -27.7080  -29.6849   17.9727 C   0  0  0  0  0  0  0  0  0  0  0  0
  -27.1808  -31.3807   19.7245 C   0  0  0  0  0  0  0  0  0  0  0  0
  -28.8831  -26.9536   23.6925 C   0  0  0  0  0  0  0  0  0  0  0  0
  -24.4105  -20.3673   19.9502 C   0  0  0  0  0  0  0  0  0  0  0  0
  -22.9111  -20.2552   20.2263 C   0  0  0  0  0  0  0  0  0  0  0  0
  -24.9780  -19.1679   19.1929 C   0  0  0  0  0  0  0  0  0  0  0  0
  -22.3438  -21.4301   21.0116 C   0  0  0  0  0  0  0  0  0  1  0  0
  -26.4650  -19.3379   18.9110 C   0  0  0  0  0  0  0  0  0  0  0  0
  -26.7115  -28.9389   20.1821 C   0  0  1  0  0  0  0  0  0  0  0  0
  -29.9670  -27.5284   21.5169 C   0  0  2  0  0  0  0  0  0  0  0  0
  -31.2889  -21.2245   21.9729 C   0  0  0  0  0  0  0  0  0  0  0  0
  -31.2279  -18.7061   17.8474 C   0  0  0  0  0  0  0  0  0  0  0  0
  -31.6753  -17.1695   18.0871 C   0  0  0  0  0  0  0  0  0  0  0  0
  -26.7132  -30.0504   19.0949 C   0  0  0  0  0  0  0  0  0  0  0  0
  -26.5802  -13.8932   20.4351 N   0  0  0  0  0  0  0  0  0  0  0  0
  -31.2185  -19.9597   19.9111 N   0  0  0  0  0  0  0  0  0  0  0  0
  -29.1541  -19.0890   19.0236 N   0  0  0  0  0  0  0  0  0  0  0  0
  -26.0489  -14.8621   19.6701 N   0  0  0  0  0  0  0  0  0  0  0  0
  -24.7202  -28.2828   21.4967 N   0  0  0  0  0  0  0  0  0  0  0  0
  -29.3547  -16.4587   18.5627 N   0  0  0  0  0  0  0  0  0  0  0  0
  -23.9986  -15.8882   19.0754 N   0  0  0  0  0  0  0  0  0  0  0  0
  -22.7523  -12.7013   22.0227 N   0  0  0  0  0  0  0  0  0  0  0  0
  -21.4205  -29.5808   22.3472 N   0  0  0  0  0  0  0  0  0  0  0  0
  -28.0070  -28.7220   20.8169 N   0  0  0  0  0  0  0  0  0  0  0  0
  -29.9383  -26.6232   22.7004 N   0  3  0  0  0  0  0  0  0  0  0  0
  -21.9860  -14.3761   20.6565 O   0  0  0  0  0  0  0  0  0  0  0  0
  -22.6200  -29.2239   20.3835 O   0  0  0  0  0  0  0  0  0  0  0  0
  -25.8775  -30.2496   21.9746 O   0  0  0  0  0  0  0  0  0  0  0  0
  -31.0686  -15.9971   20.0576 O   0  0  0  0  0  0  0  0  0  0  0  0
  -28.1920  -26.4793   20.2576 O   0  0  0  0  0  0  0  0  0  0  0  0
  -26.1351   -9.1310   24.6389 O   0  0  0  0  0  0  0  0  0  0  0  0
  -22.5771  -22.6291   20.2737 O   0  0  0  0  0  0  0  0  0  1  0  0
  -27.1570  -19.4514   20.1468 O   0  0  0  0  0  0  0  0  0  0  0  0
  -23.3884   -9.3904   29.4131 F   0  0  0  0  0  0  0  0  0  0  0  0
  -23.3747   -9.2756   24.6810 F   0  0  0  0  0  0  0  0  0  0  0  0
  1  2  1  0  0  0  0
  1  5  2  0  0  0  0
  2  6  2  0  0  0  0
  3  8  2  0  0  0  0
  3 16  1  0  0  0  0
  4  9  1  0  0  0  0
  4 16  2  0  0  0  0
  5 18  1  0  0  0  0
  6 20  1  0  0  0  0
  7 10  2  0  0  0  0
  7 19  1  0  0  0  0
  8 22  1  0  0  0  0
  9 22  2  0  0  0  0
 10 23  1  0  0  0  0
 11 12  2  0  0  0  0
 11 24  1  0  0  0  0
 12 25  1  0  0  0  0
 13 21  1  0  0  0  0
 13 23  2  0  0  0  0
 14 25  2  0  0  0  0
 14 26  1  0  0  0  0
 15 28  2  0  0  0  0
 15 29  1  0  0  0  0
 16 27  1  0  0  0  0
 17 27  1  0  0  0  0
 17 30  2  0  0  0  0
 17 32  1  0  0  0  0
 18 20  2  0  0  0  0
 18 37  1  0  0  0  0
 19 21  2  0  0  0  0
 19 38  1  0  0  0  0
 20 46  1  0  0  0  0
 21 39  1  0  0  0  0
 22 88  1  0  0  0  0
 23 89  1  0  0  0  0
 24 26  2  0  0  0  0
 24 88  1  0  0  0  0
 25 91  1  0  0  0  0
 26 92  1  0  0  0  0
 27 72  2  0  0  0  0
 28 68  1  0  0  0  0
 28 73  1  0  0  0  0
 29 74  2  0  0  0  0
 29 90  1  0  0  0  0
 30 75  1  0  0  0  0
 30 78  1  0  0  0  0
 31 69  1  0  0  0  0
 31 73  2  0  0  0  0
 31 74  1  0  0  0  0
 32 79  1  0  0  0  0
 32 83  2  0  0  0  0
 33 47  1  0  0  0  0
 33 80  1  0  0  0  0
 33 84  2  0  0  0  0
 34 66  1  0  0  0  0
 34 76  1  0  0  0  0
 34 85  2  0  0  0  0
 35 70  1  0  0  0  0
 35 77  1  0  0  0  0
 35 86  2  0  0  0  0
 36 67  1  0  0  0  0
 36 81  1  0  0  0  0
 36 87  2  0  0  0  0
 37 40  1  0  0  0  0
 38 47  1  0  0  0  0
 39 76  1  0  0  0  0
 40 42  1  0  0  0  0
 41 43  1  0  0  0  0
 41 44  1  0  0  0  0
 42 46  1  0  0  0  0
 43 48  1  0  0  0  0
 44 77  1  0  0  0  0
 45 48  1  0  0  0  0
 45 77  1  0  0  0  0
 46 80  1  0  0  0  0
 47 76  1  0  0  0  0
 48 75  1  0  0  0  0
 49 67  1  0  0  0  0
 50 68  1  0  0  0  0
 51 68  1  0  0  0  0
 52 68  1  0  0  0  0
 53 69  1  0  0  0  0
 54 69  1  0  0  0  0
 55 70  1  0  0  0  0
 56 70  1  0  0  0  0
 57 71  1  0  0  0  0
 58 71  1  0  0  0  0
 59 71  1  0  0  0  0
 60 82  1  0  0  0  0
 61 62  1  0  0  0  0
 61 63  1  0  0  0  0
 62 64  1  0  0  0  0
 63 65  1  0  0  0  0
 64 89  1  0  0  0  0
 65 90  1  0  0  0  0
 66 71  1  0  0  0  0
 66 81  1  0  0  0  0
 67 82  1  0  0  0  0
 69 70  1  0  0  0  0
 72 75  1  0  0  0  0
M  CHG  1  82   1
M  ISO  4  35 100  64 101  70 100  89 101
M  END
> <Batch ID>
0068

> <Smiles>
CNC(C)C(=O)NC(C(=O)N1Cc2cc([101O:1][101CH2:1]CCCCOc3cc(C(C)(C)C)nc(C(C)(C)[100C:0](C)(C)[100C:0](=O)N4CCCC(n5nc(-c6ccc(Oc7ccc(F)cc7F)cc6)c(C(N)=O)c5N)C4)n3)ccc2CC1C(=O)NC1CCCc2ccccc21)C(C)(C)C

> <Shape>
0.208

> <Color>
0.085

> <Negative vol penalty>
0.000

$$$$

  -OEChem-04052318143D

 91100  0     1  0  0  0  0  0999 V2000
  -22.9082  -20.1243   15.9032 C   0  0  0  0  0  0  0  0  0  0  0  0
  -24.1024  -19.4107   15.8939 C   0  0  0  0  0  0  0  0  0  0  0  0
  -24.0681  -23.4299   21.0878 C   0  0  0  0  0  0  0  0  0  0  0  0
  -24.6185  -25.7621   21.3953 C   0  0  0  0  0  0  0  0  0  0  0  0
  -22.1411  -20.1822   17.0660 C   0  0  0  0  0  0  0  0  0  0  0  0
  -24.5308  -18.7556   17.0479 C   0  0  0  0  0  0  0  0  0  0  0  0
  -28.1045  -12.9140   19.1507 C   0  0  0  0  0  0  0  0  0  0  0  0
  -28.6336  -20.2872   20.0652 C   0  0  0  0  0  0  0  0  0  0  0  0
  -22.7318  -23.7724   20.8812 C   0  0  0  0  0  0  0  0  0  0  0  0
  -23.2822  -26.1047   21.1888 C   0  0  0  0  0  0  0  0  0  0  0  0
  -29.1710  -12.5394   19.9668 C   0  0  0  0  0  0  0  0  0  0  0  0
  -20.4032  -26.0872   22.9612 C   0  0  0  0  0  0  0  0  0  0  0  0
  -19.8287  -27.0112   23.8341 C   0  0  0  0  0  0  0  0  0  0  0  0
  -28.5777  -19.3880   21.1243 C   0  0  0  0  0  0  0  0  0  0  0  0
  -27.7244  -12.6430   21.8945 C   0  0  0  0  0  0  0  0  0  0  0  0
  -19.3778  -28.4870   21.9751 C   0  0  0  0  0  0  0  0  0  0  0  0
  -30.1073  -18.7946   18.9439 C   0  0  0  0  0  0  0  0  0  0  0  0
  -32.6905  -16.9425   22.7330 C   0  0  0  0  0  0  0  0  0  0  0  0
  -25.0114  -24.4247   21.3449 C   0  0  0  0  0  0  0  0  0  0  0  0
  -26.9090  -23.2358   22.5669 C   0  0  0  0  0  0  0  0  0  0  0  0
  -22.5555  -19.5194   18.2321 C   0  0  0  0  0  0  0  0  0  0  0  0
  -26.8404  -13.1669   19.7027 C   0  0  0  0  0  0  0  0  0  0  0  0
  -23.7692  -18.8058   18.2278 C   0  0  0  0  0  0  0  0  0  0  0  0
  -26.6429  -13.0182   21.0829 C   0  0  0  0  0  0  0  0  0  0  0  0
  -29.4107  -19.9924   18.9505 C   0  0  0  0  0  0  0  0  0  0  0  0
  -22.3389  -25.1099   20.9317 C   0  0  0  0  0  0  0  0  0  0  0  0
  -28.9817  -12.4067   21.3393 C   0  0  0  0  0  0  0  0  0  0  0  0
  -20.4651  -26.3632   21.5953 C   0  0  0  0  0  0  0  0  0  0  0  0
  -19.3159  -28.2110   23.3410 C   0  0  0  0  0  0  0  0  0  0  0  0
  -19.9524  -27.5630   21.1022 C   0  0  0  0  0  0  0  0  0  0  0  0
  -26.3918  -24.0714   21.5589 C   0  0  0  0  0  0  0  0  0  0  0  0
  -29.3114  -18.2173   21.0203 C   0  0  0  0  0  0  0  0  0  0  0  0
  -28.2634  -23.2208   22.3391 C   0  0  0  0  0  0  0  0  0  0  0  0
  -31.6299  -15.0615   23.3443 C   0  0  0  0  0  0  0  0  0  0  0  0
  -30.4692  -16.7685   22.4635 C   0  0  0  0  0  0  0  0  0  0  0  0
  -26.2262  -22.5357   23.6154 C   0  0  0  0  0  0  0  0  0  0  0  0
  -24.9287  -15.7014   19.8622 C   0  0  0  0  0  0  0  0  0  0  0  0
  -22.8593  -13.5714   21.1672 C   0  0  0  0  0  0  0  0  0  0  0  0
  -31.5090  -24.2053   17.3783 C   0  0  0  0  0  0  0  0  0  0  0  0
  -22.3970  -10.6282   22.8318 C   0  0  0  0  0  0  0  0  0  0  0  0
  -21.7164  -19.6500   19.4785 C   0  0  0  0  0  0  0  0  0  0  0  0
  -25.6938  -13.5442   18.8054 C   0  0  0  0  0  0  0  0  0  0  0  0
  -25.3005  -13.2584   21.7223 C   0  0  0  0  0  0  0  0  0  0  0  0
  -22.0537  -18.6172   20.5508 C   0  0  0  0  0  0  0  0  0  0  0  0
  -31.7940  -25.8829   20.5318 C   0  0  0  0  0  0  0  0  0  0  0  0
  -23.5639  -18.5201   20.7422 C   0  0  0  0  0  0  0  0  0  0  0  0
  -30.4760  -25.5561   21.2327 C   0  0  0  0  0  0  0  0  0  0  0  0
  -31.6010  -26.0456   19.0273 C   0  0  0  0  0  0  0  0  0  0  0  0
  -29.6361  -24.5425   19.0665 C   0  0  0  0  0  0  0  0  0  0  0  0
  -24.2551  -18.0613   19.4525 C   0  0  1  0  0  0  0  0  0  0  0  0
  -24.5757  -14.2768   19.5406 C   0  0  1  0  0  0  0  0  0  0  0  0
  -29.7919  -24.3397   20.5841 C   0  0  2  0  0  0  0  0  0  0  0  0
  -21.1559   -8.7037   23.8582 C   0  0  0  0  0  0  0  0  0  0  0  0
  -31.5786  -22.4330   15.6801 C   0  0  0  0  0  0  0  0  0  0  0  0
  -29.3932  -23.4697   16.3210 C   0  0  0  0  0  0  0  0  0  0  0  0
  -22.5699  -15.4868   23.5247 C   0  0  0  0  0  0  0  0  0  0  0  0
  -21.5552  -13.6102   24.8350 C   0  0  0  0  0  0  0  0  0  0  0  0
  -20.4313  -14.4351   22.7664 C   0  0  0  0  0  0  0  0  0  0  0  0
  -22.3929   -9.1215   20.2845 C   0  0  0  0  0  0  0  0  0  0  0  0
  -29.4912  -20.9334   17.8016 C   0  0  0  0  0  0  0  0  0  0  0  0
  -31.6688  -13.6702   23.9242 C   0  0  0  0  0  0  0  0  0  0  0  0
  -30.6421  -21.9499   17.9601 C   0  0  0  0  0  0  0  0  0  0  0  0
  -32.2035  -12.6136   22.9549 C   0  0  0  0  0  0  0  0  0  0  0  0
  -31.3292  -12.4297   21.7199 C   0  0  0  0  0  0  0  0  0  1  0  0
  -22.5623  -13.0893   22.5666 C   0  0  1  0  0  0  0  0  0  0  0  0
  -21.4586   -9.4628   22.5756 C   0  0  2  0  0  0  0  0  0  0  0  0
  -30.7587  -23.0117   16.8431 C   0  0  0  0  0  0  0  0  0  0  0  0
  -21.8056  -14.1526   23.4117 C   0  0  0  0  0  0  0  0  0  0  0  0
  -30.0775  -17.8963   19.9537 N   0  0  0  0  0  0  0  0  0  0  0  0
  -32.8018  -15.7110   23.2569 N   0  0  0  0  0  0  0  0  0  0  0  0
  -31.5608  -17.5362   22.3151 N   0  0  0  0  0  0  0  0  0  0  0  0
  -27.3404  -24.5526   20.7509 N   0  0  0  0  0  0  0  0  0  0  0  0
  -30.4270  -15.5252   22.9689 N   0  0  0  0  0  0  0  0  0  0  0  0
  -28.4672  -24.0176   21.2510 N   0  0  0  0  0  0  0  0  0  0  0  0
  -24.2121  -13.6313   20.8037 N   0  0  0  0  0  0  0  0  0  0  0  0
  -30.9280  -24.8794   18.4526 N   0  0  0  0  0  0  0  0  0  0  0  0
  -29.2880  -22.6040   22.9653 N   0  0  0  0  0  0  0  0  0  0  0  0
  -25.7729  -21.2335   23.3643 N   0  0  0  0  0  0  0  0  0  0  0  0
  -24.0958  -16.6340   19.2740 N   0  0  0  0  0  0  0  0  0  0  0  0
  -21.8494  -11.8248   22.4200 N   0  0  0  0  0  0  0  0  0  0  0  0
  -22.0656   -8.5138   21.6000 N   0  3  0  0  0  0  0  0  0  0  0  0
  -26.0096  -23.0557   24.7362 O   0  0  0  0  0  0  0  0  0  0  0  0
  -25.8850  -15.9370   20.5914 O   0  0  0  0  0  0  0  0  0  0  0  0
  -21.9251  -13.8766   20.4217 O   0  0  0  0  0  0  0  0  0  0  0  0
  -32.5806  -24.5257   16.8576 O   0  0  0  0  0  0  0  0  0  0  0  0
  -23.5034  -10.4913   23.3490 O   0  0  0  0  0  0  0  0  0  0  0  0
  -21.0351  -25.4445   20.7300 O   0  0  0  0  0  0  0  0  0  0  0  0
  -30.0212  -12.0418   22.1383 O   0  0  0  0  0  0  0  0  0  1  0  0
  -29.2721  -17.3100   22.0571 O   0  0  0  0  0  0  0  0  0  0  0  0
  -18.7629  -29.0975   24.1791 F   0  0  0  0  0  0  0  0  0  0  0  0
  -20.0079  -27.8332   19.7909 F   0  0  0  0  0  0  0  0  0  0  0  0
  1  2  1  0  0  0  0
  1  5  2  0  0  0  0
  2  6  2  0  0  0  0
  3  9  2  0  0  0  0
  3 19  1  0  0  0  0
  4 10  1  0  0  0  0
  4 19  2  0  0  0  0
  5 21  1  0  0  0  0
  6 23  1  0  0  0  0
  7 11  2  0  0  0  0
  7 22  1  0  0  0  0
  8 14  2  0  0  0  0
  8 25  1  0  0  0  0
  9 26  1  0  0  0  0
 10 26  2  0  0  0  0
 11 27  1  0  0  0  0
 12 13  2  0  0  0  0
 12 28  1  0  0  0  0
 13 29  1  0  0  0  0
 14 32  1  0  0  0  0
 15 24  1  0  0  0  0
 15 27  2  0  0  0  0
 16 29  2  0  0  0  0
 16 30  1  0  0  0  0
 17 25  2  0  0  0  0
 17 69  1  0  0  0  0
 18 70  2  0  0  0  0
 18 71  1  0  0  0  0
 19 31  1  0  0  0  0
 20 31  1  0  0  0  0
 20 33  2  0  0  0  0
 20 36  1  0  0  0  0
 21 23  2  0  0  0  0
 21 41  1  0  0  0  0
 22 24  2  0  0  0  0
 22 42  1  0  0  0  0
 23 50  1  0  0  0  0
 24 43  1  0  0  0  0
 25 60  1  0  0  0  0
 26 87  1  0  0  0  0
 27 88  1  0  0  0  0
 28 30  2  0  0  0  0
 28 87  1  0  0  0  0
 29 90  1  0  0  0  0
 30 91  1  0  0  0  0
 31 72  2  0  0  0  0
 32 69  2  0  0  0  0
 32 89  1  0  0  0  0
 33 74  1  0  0  0  0
 33 77  1  0  0  0  0
 34 61  1  0  0  0  0
 34 70  1  0  0  0  0
 34 73  2  0  0  0  0
 35 71  2  0  0  0  0
 35 73  1  0  0  0  0
 35 89  1  0  0  0  0
 36 78  1  0  0  0  0
 36 82  2  0  0  0  0
 37 51  1  0  0  0  0
 37 79  1  0  0  0  0
 37 83  2  0  0  0  0
 38 65  1  0  0  0  0
 38 75  1  0  0  0  0
 38 84  2  0  0  0  0
 39 67  1  0  0  0  0
 39 76  1  0  0  0  0
 39 85  2  0  0  0  0
 40 66  1  0  0  0  0
 40 80  1  0  0  0  0
 40 86  2  0  0  0  0
 41 44  1  0  0  0  0
 42 51  1  0  0  0  0
 43 75  1  0  0  0  0
 44 46  1  0  0  0  0
 45 47  1  0  0  0  0
 45 48  1  0  0  0  0
 46 50  1  0  0  0  0
 47 52  1  0  0  0  0
 48 76  1  0  0  0  0
 49 52  1  0  0  0  0
 49 76  1  0  0  0  0
 50 79  1  0  0  0  0
 51 75  1  0  0  0  0
 52 74  1  0  0  0  0
 53 66  1  0  0  0  0
 54 67  1  0  0  0  0
 55 67  1  0  0  0  0
 56 68  1  0  0  0  0
 57 68  1  0  0  0  0
 58 68  1  0  0  0  0
 59 81  1  0  0  0  0
 60 62  1  0  0  0  0
 61 63  1  0  0  0  0
 62 67  1  0  0  0  0
 63 64  1  0  0  0  0
 64 88  1  0  0  0  0
 65 68  1  0  0  0  0
 65 80  1  0  0  0  0
 66 81  1  0  0  0  0
 72 74  1  0  0  0  0
M  CHG  1  81   1
M  ISO  4  39 100  64 101  67 100  88 101
M  END
> <Batch ID>
0068

> <Smiles>
CNC(C)C(=O)NC(C(=O)N1Cc2cc([101O:1][101CH2:1]CCc3ncnc(Oc4ccc(CC[100C:0](C)(C)[100C:0](=O)N5CCCC(n6nc(-c7ccc(Oc8ccc(F)cc8F)cc7)c(C(N)=O)c6N)C5)cn4)n3)ccc2CC1C(=O)NC1CCCc2ccccc21)C(C)(C)C

> <Shape>
0.242

> <Color>
0.058

> <Negative vol penalty>
0.000

$$$$

  -OEChem-04052318143D

 94102  0     1  0  0  0  0  0999 V2000
  -22.0810   -8.3639   20.8323 C   0  0  0  0  0  0  0  0  0  0  0  0
  -22.0126   -9.5523   21.5523 C   0  0  0  0  0  0  0  0  0  0  0  0
  -21.4529  -29.8996   19.6903 C   0  0  0  0  0  0  0  0  0  0  0  0
  -21.9296  -27.9780   21.0750 C   0  0  0  0  0  0  0  0  0  0  0  0
  -23.3177   -7.8720   20.4170 C   0  0  0  0  0  0  0  0  0  0  0  0
  -23.1811  -10.2490   21.8584 C   0  0  0  0  0  0  0  0  0  0  0  0
  -23.8629  -16.3257   22.1966 C   0  0  0  0  0  0  0  0  0  0  0  0
  -20.1734  -29.4031   19.4418 C   0  0  0  0  0  0  0  0  0  0  0  0
  -20.6500  -27.4815   20.8265 C   0  0  0  0  0  0  0  0  0  0  0  0
  -23.8732  -17.2098   23.2745 C   0  0  0  0  0  0  0  0  0  0  0  0
  -17.5036  -28.0499   21.9208 C   0  0  0  0  0  0  0  0  0  0  0  0
  -16.7804  -27.5543   23.0057 C   0  0  0  0  0  0  0  0  0  0  0  0
  -26.2835  -17.1196   23.3178 C   0  0  0  0  0  0  0  0  0  0  0  0
  -16.6592  -25.3911   21.9367 C   0  0  0  0  0  0  0  0  0  0  0  0
  -22.3311  -29.1870   20.5069 C   0  0  0  0  0  0  0  0  0  0  0  0
  -24.0457  -30.5521   21.8124 C   0  0  0  0  0  0  0  0  0  0  0  0
  -24.5011   -8.5679   20.7099 C   0  0  0  0  0  0  0  0  0  0  0  0
  -25.0644  -15.8225   21.6773 C   0  0  0  0  0  0  0  0  0  0  0  0
  -24.4349   -9.7652   21.4479 C   0  0  0  0  0  0  0  0  0  0  0  0
  -26.2858  -16.2311   22.2316 C   0  0  0  0  0  0  0  0  0  0  0  0
  -19.7719  -28.1941   20.0099 C   0  0  0  0  0  0  0  0  0  0  0  0
  -25.0835  -17.6047   23.8371 C   0  0  0  0  0  0  0  0  0  0  0  0
  -17.8045  -27.2161   20.8438 C   0  0  0  0  0  0  0  0  0  0  0  0
  -16.3583  -26.2249   23.0137 C   0  0  0  0  0  0  0  0  0  0  0  0
  -17.3824  -25.8867   20.8518 C   0  0  0  0  0  0  0  0  0  0  0  0
  -23.6532  -29.6991   20.7635 C   0  0  0  0  0  0  0  0  0  0  0  0
  -25.3915  -30.7425   21.6148 C   0  0  0  0  0  0  0  0  0  0  0  0
  -28.3923  -23.8304   20.7654 C   0  0  0  0  0  0  0  0  0  0  0  0
  -27.0809  -23.2844   22.2949 C   0  0  0  0  0  0  0  0  0  0  0  0
  -23.2637  -31.1213   22.8708 C   0  0  0  0  0  0  0  0  0  0  0  0
  -26.3450  -12.9276   21.3881 C   0  0  0  0  0  0  0  0  0  0  0  0
  -28.6290  -14.5296   19.7330 C   0  0  0  0  0  0  0  0  0  0  0  0
  -30.2327  -17.4797   19.1234 C   0  0  0  0  0  0  0  0  0  0  0  0
  -29.6111  -27.4921   18.8797 C   0  0  0  0  0  0  0  0  0  0  0  0
  -25.8187   -7.9724   20.2808 C   0  0  0  0  0  0  0  0  0  0  0  0
  -25.0374  -14.8903   20.4971 C   0  0  0  0  0  0  0  0  0  0  0  0
  -27.6042  -15.7356   21.6979 C   0  0  0  0  0  0  0  0  0  0  0  0
  -26.9779   -8.9647   20.3222 C   0  0  0  0  0  0  0  0  0  0  0  0
  -28.6886  -30.8526   18.1496 C   0  0  0  0  0  0  0  0  0  0  0  0
  -26.9669   -9.7440   21.6334 C   0  0  0  0  0  0  0  0  0  0  0  0
  -27.3289  -31.0150   18.8313 C   0  0  0  0  0  0  0  0  0  0  0  0
  -28.8627  -29.4530   17.5639 C   0  0  0  0  0  0  0  0  0  0  0  0
  -27.2759  -28.5127   19.1985 C   0  0  0  0  0  0  0  0  0  0  0  0
  -25.6782  -10.5624   21.7779 C   0  0  1  0  0  0  0  0  0  0  0  0
  -26.2982  -14.0396   20.3787 C   0  0  1  0  0  0  0  0  0  0  0  0
  -27.0762  -29.8903   19.8533 C   0  0  2  0  0  0  0  0  0  0  0  0
  -32.0820  -18.4684   17.7450 C   0  0  0  0  0  0  0  0  0  0  0  0
  -29.6080  -23.8924   18.4818 C   0  0  0  0  0  0  0  0  0  0  0  0
  -30.7803  -23.0992   20.5195 C   0  0  0  0  0  0  0  0  0  0  0  0
  -30.6894  -13.2577   21.5895 C   0  0  0  0  0  0  0  0  0  0  0  0
  -32.3438  -14.9680   20.8110 C   0  0  0  0  0  0  0  0  0  0  0  0
  -31.3678  -13.3483   19.1841 C   0  0  0  0  0  0  0  0  0  0  0  0
  -22.8472  -22.4834   20.1172 C   0  0  0  0  0  0  0  0  0  0  0  0
  -25.0273  -22.0767   18.9988 C   0  0  0  0  0  0  0  0  0  0  0  0
  -24.6028  -21.1527   21.2648 C   0  0  0  0  0  0  0  0  0  0  0  0
  -28.0754  -21.1180   26.6921 C   0  0  0  0  0  0  0  0  0  0  0  0
  -26.3271  -22.9032   26.6689 C   0  0  0  0  0  0  0  0  0  0  0  0
  -24.2681  -24.0360   22.3982 C   0  0  0  0  0  0  0  0  0  0  0  0
  -24.5819  -24.9924   20.1659 C   0  0  0  0  0  0  0  0  0  0  0  0
  -28.3787  -19.3407   17.7603 C   0  0  0  0  0  0  0  0  0  0  0  0
  -26.4238  -22.8233   23.5735 C   0  0  0  0  0  0  0  0  0  0  0  0
  -27.4364  -22.1499   24.5100 C   0  0  0  0  0  0  0  0  0  0  0  0
  -25.7875  -20.6142   25.7040 C   0  0  0  0  0  0  0  0  0  0  0  0
  -30.2211  -25.5374   20.2819 C   0  0  0  0  0  0  0  0  0  0  0  0
  -26.2288  -19.3268   25.0112 C   0  0  0  0  0  0  0  0  0  1  0  0
  -29.9250  -15.2161   20.0907 C   0  0  1  0  0  0  0  0  0  0  0  0
  -30.5906  -18.1824   17.8263 C   0  0  2  0  0  0  0  0  0  0  0  0
  -29.6479  -24.0832   20.0488 C   0  0  0  0  0  0  0  0  0  0  0  0
  -31.0568  -14.2055   20.4304 C   0  0  0  0  0  0  0  0  0  0  0  0
  -24.3740  -22.3944   20.3671 C   0  0  0  0  0  0  0  0  0  0  0  0
  -26.8855  -21.6943   25.8955 C   0  0  0  0  0  0  0  0  0  0  0  0
  -24.9499  -23.7442   21.0257 C   0  0  0  0  0  0  0  0  0  0  0  0
  -24.6676  -29.3705   19.9591 N   0  0  0  0  0  0  0  0  0  0  0  0
  -28.3680  -23.3701   22.0508 N   0  0  0  0  0  0  0  0  0  0  0  0
  -27.2013  -24.0350   20.1989 N   0  0  0  0  0  0  0  0  0  0  0  0
  -25.7108  -30.0204   20.5027 N   0  0  0  0  0  0  0  0  0  0  0  0
  -26.3799  -23.6782   21.1980 N   0  0  0  0  0  0  0  0  0  0  0  0
  -27.5251  -14.8210   20.5470 N   0  0  0  0  0  0  0  0  0  0  0  0
  -28.6107  -28.4329   18.5845 N   0  0  0  0  0  0  0  0  0  0  0  0
  -26.3211  -31.4555   22.2856 N   0  0  0  0  0  0  0  0  0  0  0  0
  -21.8955  -30.8224   22.9257 N   0  0  0  0  0  0  0  0  0  0  0  0
  -25.7444  -11.7575   20.9644 N   0  0  0  0  0  0  0  0  0  0  0  0
  -30.2347  -16.1085   18.9789 N   0  0  0  0  0  0  0  0  0  0  0  0
  -29.2929  -26.5643   19.8638 N   0  0  0  0  0  0  0  0  0  0  0  0
  -29.8576  -19.4754   17.7182 N   0  3  0  0  0  0  0  0  0  0  0  0
  -23.7602  -31.8859   23.7324 O   0  0  0  0  0  0  0  0  0  0  0  0
  -26.8872  -13.1167   22.4707 O   0  0  0  0  0  0  0  0  0  0  0  0
  -28.5954  -13.7687   18.7627 O   0  0  0  0  0  0  0  0  0  0  0  0
  -29.9806  -18.0865   20.1621 O   0  0  0  0  0  0  0  0  0  0  0  0
  -30.7088  -27.4833   18.3122 O   0  0  0  0  0  0  0  0  0  0  0  0
  -18.5232  -27.7095   19.7678 O   0  0  0  0  0  0  0  0  0  0  0  0
  -25.0964  -18.4671   24.8897 O   0  0  0  0  0  0  0  0  0  1  0  0
  -15.6651  -25.7487   24.0563 F   0  0  0  0  0  0  0  0  0  0  0  0
  -17.6695  -25.0806   19.8205 F   0  0  0  0  0  0  0  0  0  0  0  0
  1  2  1  0  0  0  0
  1  5  2  0  0  0  0
  2  6  2  0  0  0  0
  3  8  2  0  0  0  0
  3 15  1  0  0  0  0
  4  9  1  0  0  0  0
  4 15  2  0  0  0  0
  5 17  1  0  0  0  0
  6 19  1  0  0  0  0
  7 10  2  0  0  0  0
  7 18  1  0  0  0  0
  8 21  1  0  0  0  0
  9 21  2  0  0  0  0
 10 22  1  0  0  0  0
 11 12  2  0  0  0  0
 11 23  1  0  0  0  0
 12 24  1  0  0  0  0
 13 20  1  0  0  0  0
 13 22  2  0  0  0  0
 14 24  2  0  0  0  0
 14 25  1  0  0  0  0
 15 26  1  0  0  0  0
 16 26  1  0  0  0  0
 16 27  2  0  0  0  0
 16 30  1  0  0  0  0
 17 19  2  0  0  0  0
 17 35  1  0  0  0  0
 18 20  2  0  0  0  0
 18 36  1  0  0  0  0
 19 44  1  0  0  0  0
 20 37  1  0  0  0  0
 21 91  1  0  0  0  0
 22 92  1  0  0  0  0
 23 25  2  0  0  0  0
 23 91  1  0  0  0  0
 24 93  1  0  0  0  0
 25 94  1  0  0  0  0
 26 73  2  0  0  0  0
 27 76  1  0  0  0  0
 27 80  1  0  0  0  0
 28 68  1  0  0  0  0
 28 74  1  0  0  0  0
 28 75  2  0  0  0  0
 29 61  1  0  0  0  0
 29 74  2  0  0  0  0
 29 77  1  0  0  0  0
 30 81  1  0  0  0  0
 30 86  2  0  0  0  0
 31 45  1  0  0  0  0
 31 82  1  0  0  0  0
 31 87  2  0  0  0  0
 32 66  1  0  0  0  0
 32 78  1  0  0  0  0
 32 88  2  0  0  0  0
 33 67  1  0  0  0  0
 33 83  1  0  0  0  0
 33 89  2  0  0  0  0
 34 79  1  0  0  0  0
 34 84  1  0  0  0  0
 34 90  2  0  0  0  0
 35 38  1  0  0  0  0
 36 45  1  0  0  0  0
 37 78  1  0  0  0  0
 38 40  1  0  0  0  0
 39 41  1  0  0  0  0
 39 42  1  0  0  0  0
 40 44  1  0  0  0  0
 41 46  1  0  0  0  0
 42 79  1  0  0  0  0
 43 46  1  0  0  0  0
 43 79  1  0  0  0  0
 44 82  1  0  0  0  0
 45 78  1  0  0  0  0
 46 76  1  0  0  0  0
 47 67  1  0  0  0  0
 48 68  1  0  0  0  0
 49 68  1  0  0  0  0
 50 69  1  0  0  0  0
 51 69  1  0  0  0  0
 52 69  1  0  0  0  0
 53 70  1  0  0  0  0
 54 70  1  0  0  0  0
 55 70  1  0  0  0  0
 56 71  1  0  0  0  0
 57 71  1  0  0  0  0
 58 72  1  0  0  0  0
 59 72  1  0  0  0  0
 60 85  1  0  0  0  0
 61 62  1  0  0  0  0
 62 71  1  0  0  0  0
 63 65  1  0  0  0  0
 63 71  1  0  0  0  0
 64 68  1  0  0  0  0
 64 84  1  0  0  0  0
 65 92  1  0  0  0  0
 66 69  1  0  0  0  0
 66 83  1  0  0  0  0
 67 85  1  0  0  0  0
 70 72  1  0  0  0  0
 72 77  1  0  0  0  0
 73 76  1  0  0  0  0
 75 77  1  0  0  0  0
M  CHG  1  85   1
M  ISO  4  34 100  65 101  84 100  92 101
M  END
> <Batch ID>
0068

> <Smiles>
CNC(C)C(=O)NC(C(=O)N1Cc2cc([101O:1][101CH2:1]CC(C)(C)CCc3nc(C(C)(C)C[100NH:0][100C:0](=O)N4CCCC(n5nc(-c6ccc(Oc7ccc(F)cc7F)cc6)c(C(N)=O)c5N)C4)nn3C(C)(C)C(C)(C)C)ccc2CC1C(=O)NC1CCCc2ccccc21)C(C)(C)C

> <Shape>
0.246

> <Color>
0.063

> <Negative vol penalty>
0.000

$$$$

  -OEChem-04052318143D

 83 91  0     1  0  0  0  0  0999 V2000
  -29.2476  -35.6576   24.4746 C   0  0  0  0  0  0  0  0  0  0  0  0
  -29.8415  -34.5461   23.8853 C   0  0  0  0  0  0  0  0  0  0  0  0
  -24.3175  -13.9535   21.6255 C   0  0  0  0  0  0  0  0  0  0  0  0
  -26.0607  -14.0275   19.9543 C   0  0  0  0  0  0  0  0  0  0  0  0
  -27.9912  -35.5427   25.0682 C   0  0  0  0  0  0  0  0  0  0  0  0
  -29.1798  -33.3186   23.8903 C   0  0  0  0  0  0  0  0  0  0  0  0
  -29.3205  -29.0427   19.5083 C   0  0  0  0  0  0  0  0  0  0  0  0
  -24.4712  -12.5707   21.7246 C   0  0  0  0  0  0  0  0  0  0  0  0
  -26.2145  -12.6446   20.0535 C   0  0  0  0  0  0  0  0  0  0  0  0
  -30.0549  -27.8657   19.3694 C   0  0  0  0  0  0  0  0  0  0  0  0
  -23.5359   -9.8297   19.9820 C   0  0  0  0  0  0  0  0  0  0  0  0
  -22.3797   -9.0498   20.0034 C   0  0  0  0  0  0  0  0  0  0  0  0
  -28.2063  -26.6119   20.2804 C   0  0  0  0  0  0  0  0  0  0  0  0
  -22.9977   -8.1933   22.1764 C   0  0  0  0  0  0  0  0  0  0  0  0
  -29.4859  -23.5601   16.4097 C   0  0  0  0  0  0  0  0  0  0  0  0
  -25.1122  -14.6819   20.7403 C   0  0  0  0  0  0  0  0  0  0  0  0
  -25.6267  -17.0965   21.3826 C   0  0  0  0  0  0  0  0  0  0  0  0
  -27.3096  -34.3155   25.0719 C   0  0  0  0  0  0  0  0  0  0  0  0
  -28.0254  -29.0144   20.0453 C   0  0  0  0  0  0  0  0  0  0  0  0
  -27.9137  -33.1869   24.4857 C   0  0  0  0  0  0  0  0  0  0  0  0
  -27.4566  -27.7895   20.4227 C   0  0  0  0  0  0  0  0  0  0  0  0
  -25.4197  -11.9163   20.9386 C   0  0  0  0  0  0  0  0  0  0  0  0
  -29.4989  -26.6505   19.7582 C   0  0  0  0  0  0  0  0  0  0  0  0
  -24.4231   -9.7914   21.0577 C   0  0  0  0  0  0  0  0  0  0  0  0
  -22.1106   -8.2316   21.1006 C   0  0  0  0  0  0  0  0  0  0  0  0
  -24.1540   -8.9733   22.1549 C   0  0  0  0  0  0  0  0  0  0  0  0
  -24.9535  -16.1103   20.6370 C   0  0  0  0  0  0  0  0  0  0  0  0
  -28.3753  -22.7565   16.4713 C   0  0  0  0  0  0  0  0  0  0  0  0
  -25.1255  -18.2852   20.9111 C   0  0  0  0  0  0  0  0  0  0  0  0
  -26.6167  -16.9511   22.4095 C   0  0  0  0  0  0  0  0  0  0  0  0
  -26.6333  -30.2713   22.6116 C   0  0  0  0  0  0  0  0  0  0  0  0
  -23.9451  -29.0442   21.2734 C   0  0  0  0  0  0  0  0  0  0  0  0
  -22.5414  -26.7433   19.1800 C   0  0  0  0  0  0  0  0  0  0  0  0
  -23.5712  -21.5747   16.6793 C   0  0  0  0  0  0  0  0  0  0  0  0
  -25.9741  -34.2290   25.7674 C   0  0  0  0  0  0  0  0  0  0  0  0
  -27.2363  -30.2893   20.1637 C   0  0  0  0  0  0  0  0  0  0  0  0
  -26.0625  -27.7027   20.9859 C   0  0  0  0  0  0  0  0  0  0  0  0
  -25.1759  -32.9807   25.4003 C   0  0  0  0  0  0  0  0  0  0  0  0
  -21.1823  -19.2267   17.8860 C   0  0  0  0  0  0  0  0  0  0  0  0
  -26.0652  -31.7427   25.4567 C   0  0  0  0  0  0  0  0  0  0  0  0
  -22.0069  -18.2849   18.7652 C   0  0  0  0  0  0  0  0  0  0  0  0
  -21.9679  -19.6865   16.6599 C   0  0  0  0  0  0  0  0  0  0  0  0
  -24.1070  -19.3445   17.8350 C   0  0  0  0  0  0  0  0  0  0  0  0
  -27.2167  -31.8442   24.4491 C   0  0  1  0  0  0  0  0  0  0  0  0
  -26.1204  -30.2072   21.2007 C   0  0  1  0  0  0  0  0  0  0  0  0
  -23.3766  -18.8982   19.1131 C   0  0  2  0  0  0  0  0  0  0  0  0
  -20.3177  -25.9607   18.3199 C   0  0  0  0  0  0  0  0  0  0  0  0
  -23.4157  -27.6377   23.9289 C   0  0  0  0  0  0  0  0  0  0  0  0
  -21.7735  -26.1666   22.7425 C   0  0  0  0  0  0  0  0  0  0  0  0
  -21.3884  -28.6288   22.8510 C   0  0  0  0  0  0  0  0  0  0  0  0
  -26.4840  -24.9503   15.2761 C   0  0  0  0  0  0  0  0  0  0  0  0
  -25.1424  -23.1007   14.2900 C   0  0  0  0  0  0  0  0  0  0  0  0
  -23.2645  -27.3910   16.3842 C   0  0  0  0  0  0  0  0  0  0  0  0
  -27.3335  -22.5397   15.4592 C   0  0  0  0  0  0  0  0  0  0  0  0
  -31.3613  -23.9971   18.1224 C   0  0  0  0  0  0  0  0  0  0  0  0
  -25.2727  -23.3776   16.7976 C   0  0  0  0  0  0  0  0  0  0  0  0
  -31.1608  -25.4445   18.5583 C   0  0  0  0  0  0  0  0  0  1  0  0
  -23.2161  -27.7249   21.3562 C   0  0  1  0  0  0  0  0  0  0  0  0
  -21.5035  -26.8824   18.0810 C   0  0  2  0  0  0  0  0  0  0  0  0
  -22.4754  -27.5410   22.7108 C   0  0  0  0  0  0  0  0  0  0  0  0
  -26.0645  -23.4789   15.4720 C   0  0  0  0  0  0  0  0  0  0  0  0
  -24.0903  -16.6274   19.7587 N   0  0  0  0  0  0  0  0  0  0  0  0
  -28.3367  -22.1179   17.6797 N   0  0  0  0  0  0  0  0  0  0  0  0
  -29.3983  -22.5035   18.3793 N   0  0  0  0  0  0  0  0  0  0  0  0
  -30.0860  -23.3683   17.6161 N   0  0  0  0  0  0  0  0  0  0  0  0
  -24.2176  -17.9516   19.9495 N   0  0  0  0  0  0  0  0  0  0  0  0
  -25.3333  -28.9776   21.0879 N   0  0  0  0  0  0  0  0  0  0  0  0
  -23.2556  -20.2596   17.0588 N   0  0  0  0  0  0  0  0  0  0  0  0
  -25.3771  -19.5727   21.2295 N   0  0  0  0  0  0  0  0  0  0  0  0
  -27.0183  -15.6583   22.7722 N   0  0  0  0  0  0  0  0  0  0  0  0
  -26.7452  -31.5545   23.1118 N   0  0  0  0  0  0  0  0  0  0  0  0
  -22.3461  -27.6652   20.1866 N   0  0  0  0  0  0  0  0  0  0  0  0
  -24.8087  -22.0428   17.1039 N   0  0  0  0  0  0  0  0  0  0  0  0
  -22.1016  -26.5456   16.7581 N   0  3  0  0  0  0  0  0  0  0  0  0
  -27.1180  -17.9380   22.9997 O   0  0  0  0  0  0  0  0  0  0  0  0
  -26.9058  -29.2332   23.2031 O   0  0  0  0  0  0  0  0  0  0  0  0
  -23.3056  -30.0952   21.3627 O   0  0  0  0  0  0  0  0  0  0  0  0
  -23.4338  -25.8987   19.1504 O   0  0  0  0  0  0  0  0  0  0  0  0
  -22.8046  -22.2814   16.0161 O   0  0  0  0  0  0  0  0  0  0  0  0
  -25.5701  -10.5670   21.0353 O   0  0  0  0  0  0  0  0  0  0  0  0
  -30.2138  -25.5003   19.6243 O   0  0  0  0  0  0  0  0  0  1  0  0
  -20.9995   -7.4838   21.1217 F   0  0  0  0  0  0  0  0  0  0  0  0
  -25.0019   -8.9332   23.1918 F   0  0  0  0  0  0  0  0  0  0  0  0
  1  2  1  0  0  0  0
  1  5  2  0  0  0  0
  2  6  2  0  0  0  0
  3  8  2  0  0  0  0
  3 16  1  0  0  0  0
  4  9  1  0  0  0  0
  4 16  2  0  0  0  0
  5 18  1  0  0  0  0
  6 20  1  0  0  0  0
  7 10  2  0  0  0  0
  7 19  1  0  0  0  0
  8 22  1  0  0  0  0
  9 22  2  0  0  0  0
 10 23  1  0  0  0  0
 11 12  2  0  0  0  0
 11 24  1  0  0  0  0
 12 25  1  0  0  0  0
 13 21  1  0  0  0  0
 13 23  2  0  0  0  0
 14 25  2  0  0  0  0
 14 26  1  0  0  0  0
 15 28  2  0  0  0  0
 15 65  1  0  0  0  0
 16 27  1  0  0  0  0
 17 27  1  0  0  0  0
 17 29  2  0  0  0  0
 17 30  1  0  0  0  0
 18 20  2  0  0  0  0
 18 35  1  0  0  0  0
 19 21  2  0  0  0  0
 19 36  1  0  0  0  0
 20 44  1  0  0  0  0
 21 37  1  0  0  0  0
 22 80  1  0  0  0  0
 23 81  1  0  0  0  0
 24 26  2  0  0  0  0
 24 80  1  0  0  0  0
 25 82  1  0  0  0  0
 26 83  1  0  0  0  0
 27 62  2  0  0  0  0
 28 54  1  0  0  0  0
 28 63  1  0  0  0  0
 29 66  1  0  0  0  0
 29 69  1  0  0  0  0
 30 70  1  0  0  0  0
 30 75  2  0  0  0  0
 31 45  1  0  0  0  0
 31 71  1  0  0  0  0
 31 76  2  0  0  0  0
 32 58  1  0  0  0  0
 32 67  1  0  0  0  0
 32 77  2  0  0  0  0
 33 59  1  0  0  0  0
 33 72  1  0  0  0  0
 33 78  2  0  0  0  0
 34 68  1  0  0  0  0
 34 73  1  0  0  0  0
 34 79  2  0  0  0  0
 35 38  1  0  0  0  0
 36 45  1  0  0  0  0
 37 67  1  0  0  0  0
 38 40  1  0  0  0  0
 39 41  1  0  0  0  0
 39 42  1  0  0  0  0
 40 44  1  0  0  0  0
 41 46  1  0  0  0  0
 42 68  1  0  0  0  0
 43 46  1  0  0  0  0
 43 68  1  0  0  0  0
 44 71  1  0  0  0  0
 45 67  1  0  0  0  0
 46 66  1  0  0  0  0
 47 59  1  0  0  0  0
 48 60  1  0  0  0  0
 49 60  1  0  0  0  0
 50 60  1  0  0  0  0
 51 61  1  0  0  0  0
 52 61  1  0  0  0  0
 53 74  1  0  0  0  0
 54 61  1  0  0  0  0
 55 57  1  0  0  0  0
 55 65  1  0  0  0  0
 56 61  1  0  0  0  0
 56 73  1  0  0  0  0
 57 81  1  0  0  0  0
 58 60  1  0  0  0  0
 58 72  1  0  0  0  0
 59 74  1  0  0  0  0
 62 66  1  0  0  0  0
 63 64  2  0  0  0  0
 64 65  1  0  0  0  0
M  CHG  1  74   1
M  ISO  4  34 100  57 101  73 100  81 101
M  END
> <Batch ID>
0068

> <Smiles>
CNC(C)C(=O)NC(C(=O)N1Cc2cc([101O:1][101CH2:1]Cn3cc(CC(C)(C)C[100NH:0][100C:0](=O)N4CCCC(n5nc(-c6ccc(Oc7ccc(F)cc7F)cc6)c(C(N)=O)c5N)C4)nn3)ccc2CC1C(=O)NC1CCCc2ccccc21)C(C)(C)C

> <Shape>
0.248

> <Color>
0.062

> <Negative vol penalty>
0.000

$$$$

  -OEChem-04052318143D

 89 97  0     1  0  0  0  0  0999 V2000
  -25.5734  -31.3829   20.6205 C   0  0  0  0  0  0  0  0  0  0  0  0
  -25.8330  -30.0161   20.6210 C   0  0  0  0  0  0  0  0  0  0  0  0
  -28.8914  -25.6585   19.0596 C   0  0  0  0  0  0  0  0  0  0  0  0
  -30.8169  -24.9288   17.7959 C   0  0  0  0  0  0  0  0  0  0  0  0
  -24.3514  -31.8594   21.0932 C   0  0  0  0  0  0  0  0  0  0  0  0
  -24.8710  -29.1251   21.0953 C   0  0  0  0  0  0  0  0  0  0  0  0
  -23.7343  -23.4806   19.0088 C   0  0  0  0  0  0  0  0  0  0  0  0
  -29.5262  -26.8715   19.3266 C   0  0  0  0  0  0  0  0  0  0  0  0
  -31.4517  -26.1418   18.0628 C   0  0  0  0  0  0  0  0  0  0  0  0
  -24.1266  -22.2191   19.4544 C   0  0  0  0  0  0  0  0  0  0  0  0
  -30.1267  -29.7780   17.7066 C   0  0  0  0  0  0  0  0  0  0  0  0
  -29.3796  -30.9467   17.5601 C   0  0  0  0  0  0  0  0  0  0  0  0
  -22.0430  -22.0002   20.6501 C   0  0  0  0  0  0  0  0  0  0  0  0
  -29.7468  -31.4735   19.8892 C   0  0  0  0  0  0  0  0  0  0  0  0
  -26.3368  -12.0438   20.6800 C   0  0  0  0  0  0  0  0  0  0  0  0
  -29.5367  -24.6871   18.2944 C   0  0  0  0  0  0  0  0  0  0  0  0
  -28.0493  -23.1321   16.9243 C   0  0  0  0  0  0  0  0  0  0  0  0
  -23.3701  -30.9730   21.5645 C   0  0  0  0  0  0  0  0  0  0  0  0
  -22.4959  -24.0168   19.3900 C   0  0  0  0  0  0  0  0  0  0  0  0
  -23.6351  -29.5902   21.5760 C   0  0  0  0  0  0  0  0  0  0  0  0
  -21.6362  -23.2676   20.2059 C   0  0  0  0  0  0  0  0  0  0  0  0
  -30.8063  -27.1131   18.8281 C   0  0  0  0  0  0  0  0  0  0  0  0
  -23.2822  -21.4799   20.2776 C   0  0  0  0  0  0  0  0  0  0  0  0
  -30.6839  -29.4570   18.9445 C   0  0  0  0  0  0  0  0  0  0  0  0
  -29.1896  -31.7945   18.6513 C   0  0  0  0  0  0  0  0  0  0  0  0
  -30.4939  -30.3048   20.0357 C   0  0  0  0  0  0  0  0  0  0  0  0
  -28.8817  -23.4337   18.0188 C   0  0  0  0  0  0  0  0  0  0  0  0
  -25.0181  -11.7596   21.0824 C   0  0  0  0  0  0  0  0  0  0  0  0
  -26.2768  -13.3241   20.1864 C   0  0  0  0  0  0  0  0  0  0  0  0
  -27.6836  -21.8229   17.1215 C   0  0  0  0  0  0  0  0  0  0  0  0
  -27.6430  -23.9612   15.8273 C   0  0  0  0  0  0  0  0  0  0  0  0
  -21.5695  -26.5750   21.0335 C   0  0  0  0  0  0  0  0  0  0  0  0
  -18.6107  -25.6059   20.1231 C   0  0  0  0  0  0  0  0  0  0  0  0
  -16.5816  -23.0564   19.1084 C   0  0  0  0  0  0  0  0  0  0  0  0
  -29.6910  -16.9247   18.9149 C   0  0  0  0  0  0  0  0  0  0  0  0
  -22.0826  -31.5385   22.1096 C   0  0  0  0  0  0  0  0  0  0  0  0
  -22.0760  -25.3677   18.8790 C   0  0  0  0  0  0  0  0  0  0  0  0
  -20.2877  -23.7896   20.6272 C   0  0  0  0  0  0  0  0  0  0  0  0
  -20.9713  -30.5009   22.2465 C   0  0  0  0  0  0  0  0  0  0  0  0
  -27.5327  -18.7818   21.0042 C   0  0  0  0  0  0  0  0  0  0  0  0
  -21.5032  -29.2331   22.9075 C   0  0  0  0  0  0  0  0  0  0  0  0
  -27.5817  -20.1583   20.3427 C   0  0  0  0  0  0  0  0  0  0  0  0
  -28.9036  -18.1029   21.0204 C   0  0  0  0  0  0  0  0  0  0  0  0
  -29.5947  -19.3967   19.0276 C   0  0  0  0  0  0  0  0  0  0  0  0
  -22.6072  -28.5903   22.0594 C   0  0  1  0  0  0  0  0  0  0  0  0
  -21.0124  -26.0312   19.7483 C   0  0  1  0  0  0  0  0  0  0  0  0
  -28.2184  -20.0746   18.9446 C   0  0  2  0  0  0  0  0  0  0  0  0
  -14.2034  -22.5635   18.4771 C   0  0  0  0  0  0  0  0  0  0  0  0
  -17.8149  -25.6869   23.0676 C   0  0  0  0  0  0  0  0  0  0  0  0
  -15.8047  -24.3107   22.4902 C   0  0  0  0  0  0  0  0  0  0  0  0
  -16.0877  -26.5806   21.4952 C   0  0  0  0  0  0  0  0  0  0  0  0
  -30.5883  -15.6647   20.9179 C   0  0  0  0  0  0  0  0  0  0  0  0
  -17.3590  -22.2102   16.3811 C   0  0  0  0  0  0  0  0  0  0  0  0
  -27.3225  -14.1911   19.6131 C   0  0  0  0  0  0  0  0  0  0  0  0
  -28.7355  -13.5603   19.5518 C   0  0  0  0  0  0  0  0  0  0  0  0
  -23.5974  -17.3059   20.7229 C   0  0  0  0  0  0  0  0  0  0  0  0
  -24.1579  -15.9443   21.1389 C   0  0  0  0  0  0  0  0  0  0  0  0
  -23.3322  -18.1932   21.9427 C   0  0  0  0  0  0  0  0  0  0  0  0
  -24.3847  -15.0427   19.9233 C   0  0  0  0  0  0  0  0  0  0  0  0
  -29.7924  -14.4614   18.9168 C   0  0  0  0  0  0  0  0  0  0  0  0
  -22.7484  -19.5464   21.5552 C   0  0  0  0  0  0  0  0  0  1  0  0
  -17.5620  -24.6865   20.7009 C   0  0  1  0  0  0  0  0  0  0  0  0
  -15.5823  -22.9565   17.9701 C   0  0  2  0  0  0  0  0  0  0  0  0
  -24.5121  -10.5142   21.6837 C   0  0  0  0  0  0  0  0  0  0  0  0
  -16.8435  -25.3069   21.9323 C   0  0  0  0  0  0  0  0  0  0  0  0
  -29.0357  -22.3994   18.8498 N   0  0  0  0  0  0  0  0  0  0  0  0
  -24.1815  -12.7775   20.8636 N   0  0  0  0  0  0  0  0  0  0  0  0
  -24.9765  -13.7139   20.3184 N   0  0  0  0  0  0  0  0  0  0  0  0
  -28.2951  -21.4352   18.2773 N   0  0  0  0  0  0  0  0  0  0  0  0
  -19.9251  -25.1182   20.1067 N   0  0  0  0  0  0  0  0  0  0  0  0
  -29.4959  -18.0867   19.6759 N   0  0  0  0  0  0  0  0  0  0  0  0
  -26.9018  -20.9772   16.4172 N   0  0  0  0  0  0  0  0  0  0  0  0
  -28.1106  -25.2815   15.7788 N   0  0  0  0  0  0  0  0  0  0  0  0
  -22.0328  -27.8736   20.9410 N   0  0  0  0  0  0  0  0  0  0  0  0
  -16.6696  -24.3419   19.5994 N   0  0  0  0  0  0  0  0  0  0  0  0
  -29.9321  -15.7323   19.6136 N   0  0  0  0  0  0  0  0  0  0  0  0
  -16.0267  -21.9364   16.9787 N   0  3  0  0  0  0  0  0  0  0  0  0
  -26.8745  -23.5485   14.9259 O   0  0  0  0  0  0  0  0  0  0  0  0
  -21.5771  -25.8692   22.0352 O   0  0  0  0  0  0  0  0  0  0  0  0
  -18.2749  -26.7131   19.6953 O   0  0  0  0  0  0  0  0  0  0  0  0
  -17.2176  -22.0900   19.5232 O   0  0  0  0  0  0  0  0  0  0  0  0
  -29.6600  -16.9512   17.6777 O   0  0  0  0  0  0  0  0  0  0  0  0
  -31.4260  -28.2968   19.0882 O   0  0  0  0  0  0  0  0  0  0  0  0
  -23.6629  -20.2487   20.7145 O   0  0  0  0  0  0  0  0  0  1  0  0
  -28.4734  -32.9176   18.5101 F   0  0  0  0  0  0  0  0  0  0  0  0
  -31.0277  -30.0023   21.2271 F   0  0  0  0  0  0  0  0  0  0  0  0
  -25.4656   -9.5406   21.8565 F   0  0  0  0  0  0  0  0  0  0  0  0
  -23.9595  -10.6723   22.9312 F   0  0  0  0  0  0  0  0  0  0  0  0
  -23.5288   -9.9115   20.9401 F   0  0  0  0  0  0  0  0  0  0  0  0
  1  2  1  0  0  0  0
  1  5  2  0  0  0  0
  2  6  2  0  0  0  0
  3  8  2  0  0  0  0
  3 16  1  0  0  0  0
  4  9  1  0  0  0  0
  4 16  2  0  0  0  0
  5 18  1  0  0  0  0
  6 20  1  0  0  0  0
  7 10  2  0  0  0  0
  7 19  1  0  0  0  0
  8 22  1  0  0  0  0
  9 22  2  0  0  0  0
 10 23  1  0  0  0  0
 11 12  2  0  0  0  0
 11 24  1  0  0  0  0
 12 25  1  0  0  0  0
 13 21  1  0  0  0  0
 13 23  2  0  0  0  0
 14 25  2  0  0  0  0
 14 26  1  0  0  0  0
 15 28  1  0  0  0  0
 15 29  2  0  0  0  0
 16 27  1  0  0  0  0
 17 27  1  0  0  0  0
 17 30  2  0  0  0  0
 17 31  1  0  0  0  0
 18 20  2  0  0  0  0
 18 36  1  0  0  0  0
 19 21  2  0  0  0  0
 19 37  1  0  0  0  0
 20 45  1  0  0  0  0
 21 38  1  0  0  0  0
 22 83  1  0  0  0  0
 23 84  1  0  0  0  0
 24 26  2  0  0  0  0
 24 83  1  0  0  0  0
 25 85  1  0  0  0  0
 26 86  1  0  0  0  0
 27 66  2  0  0  0  0
 28 64  1  0  0  0  0
 28 67  2  0  0  0  0
 29 54  1  0  0  0  0
 29 68  1  0  0  0  0
 30 69  1  0  0  0  0
 30 72  1  0  0  0  0
 31 73  1  0  0  0  0
 31 78  2  0  0  0  0
 32 46  1  0  0  0  0
 32 74  1  0  0  0  0
 32 79  2  0  0  0  0
 33 62  1  0  0  0  0
 33 70  1  0  0  0  0
 33 80  2  0  0  0  0
 34 63  1  0  0  0  0
 34 75  1  0  0  0  0
 34 81  2  0  0  0  0
 35 71  1  0  0  0  0
 35 76  1  0  0  0  0
 35 82  2  0  0  0  0
 36 39  1  0  0  0  0
 37 46  1  0  0  0  0
 38 70  1  0  0  0  0
 39 41  1  0  0  0  0
 40 42  1  0  0  0  0
 40 43  1  0  0  0  0
 41 45  1  0  0  0  0
 42 47  1  0  0  0  0
 43 71  1  0  0  0  0
 44 47  1  0  0  0  0
 44 71  1  0  0  0  0
 45 74  1  0  0  0  0
 46 70  1  0  0  0  0
 47 69  1  0  0  0  0
 48 63  1  0  0  0  0
 49 65  1  0  0  0  0
 50 65  1  0  0  0  0
 51 65  1  0  0  0  0
 52 76  1  0  0  0  0
 53 77  1  0  0  0  0
 54 55  1  0  0  0  0
 55 60  1  0  0  0  0
 56 57  1  0  0  0  0
 56 58  1  0  0  0  0
 57 59  1  0  0  0  0
 58 61  1  0  0  0  0
 59 68  1  0  0  0  0
 60 76  1  0  0  0  0
 61 84  1  0  0  0  0
 62 65  1  0  0  0  0
 62 75  1  0  0  0  0
 63 77  1  0  0  0  0
 64 87  1  0  0  0  0
 64 88  1  0  0  0  0
 64 89  1  0  0  0  0
 66 69  1  0  0  0  0
 67 68  1  0  0  0  0
M  CHG  1  77   1
M  ISO  4  35 100  61 101  76 100  84 101
M  END
> <Batch ID>
0068

> <Smiles>
CNC(C)C(=O)NC(C(=O)N1Cc2cc([101O:1][101CH2:1]CCCCn3nc(C(F)(F)F)cc3CCC[100N:0](C)[100C:0](=O)N3CCCC(n4nc(-c5ccc(Oc6ccc(F)cc6F)cc5)c(C(N)=O)c4N)C3)ccc2CC1C(=O)NC1CCCc2ccccc21)C(C)(C)C

> <Shape>
0.232

> <Color>
0.050

> <Negative vol penalty>
0.000

$$$$

  -OEChem-04052318143D

 89 97  0     1  0  0  0  0  0999 V2000
  -26.7801  -19.7098   27.3076 C   0  0  0  0  0  0  0  0  0  0  0  0
  -27.1153  -20.3700   26.1298 C   0  0  0  0  0  0  0  0  0  0  0  0
  -23.6525  -10.0687   22.5262 C   0  0  0  0  0  0  0  0  0  0  0  0
  -23.3089  -10.1752   20.1371 C   0  0  0  0  0  0  0  0  0  0  0  0
  -25.4459  -19.6281   27.7041 C   0  0  0  0  0  0  0  0  0  0  0  0
  -26.1163  -20.9480   25.3472 C   0  0  0  0  0  0  0  0  0  0  0  0
  -27.3416  -25.5963   23.7544 C   0  0  0  0  0  0  0  0  0  0  0  0
  -22.7696   -8.9917   22.6052 C   0  0  0  0  0  0  0  0  0  0  0  0
  -22.4260   -9.0981   20.2161 C   0  0  0  0  0  0  0  0  0  0  0  0
  -28.2262  -25.6889   22.6808 C   0  0  0  0  0  0  0  0  0  0  0  0
  -22.8356   -5.6667   21.9945 C   0  0  0  0  0  0  0  0  0  0  0  0
  -23.2150   -4.5732   22.7728 C   0  0  0  0  0  0  0  0  0  0  0  0
  -26.3680  -26.0694   21.1903 C   0  0  0  0  0  0  0  0  0  0  0  0
  -21.2649   -4.8869   24.1641 C   0  0  0  0  0  0  0  0  0  0  0  0
  -27.5462  -21.3847   20.1175 C   0  0  0  0  0  0  0  0  0  0  0  0
  -23.9221  -10.6605   21.2922 C   0  0  0  0  0  0  0  0  0  0  0  0
  -26.2256  -11.7190   21.0072 C   0  0  0  0  0  0  0  0  0  0  0  0
  -24.4310  -20.2137   26.9309 C   0  0  0  0  0  0  0  0  0  0  0  0
  -25.9604  -25.7289   23.5521 C   0  0  0  0  0  0  0  0  0  0  0  0
  -24.7672  -20.8729   25.7331 C   0  0  0  0  0  0  0  0  0  0  0  0
  -25.4682  -25.9806   22.2635 C   0  0  0  0  0  0  0  0  0  0  0  0
  -22.1564   -8.5064   21.4502 C   0  0  0  0  0  0  0  0  0  0  0  0
  -27.7392  -25.9226   21.3981 C   0  0  0  0  0  0  0  0  0  0  0  0
  -21.6708   -6.3704   22.3010 C   0  0  0  0  0  0  0  0  0  0  0  0
  -22.4297   -4.1833   23.8576 C   0  0  0  0  0  0  0  0  0  0  0  0
  -20.8855   -5.9804   23.3858 C   0  0  0  0  0  0  0  0  0  0  0  0
  -24.8336  -11.7734   21.2100 C   0  0  0  0  0  0  0  0  0  0  0  0
  -28.4281  -20.3353   19.9820 C   0  0  0  0  0  0  0  0  0  0  0  0
  -28.9361  -22.7128   18.8790 C   0  0  0  0  0  0  0  0  0  0  0  0
  -29.8184  -21.6636   18.7441 C   0  0  0  0  0  0  0  0  0  0  0  0
  -26.6242  -13.0333   21.0076 C   0  0  0  0  0  0  0  0  0  0  0  0
  -27.0817  -10.5820   20.8339 C   0  0  0  0  0  0  0  0  0  0  0  0
  -23.4397  -23.8390   23.9743 C   0  0  0  0  0  0  0  0  0  0  0  0
  -21.7896  -26.5121   23.1658 C   0  0  0  0  0  0  0  0  0  0  0  0
  -21.7635  -29.5295   21.5716 C   0  0  0  0  0  0  0  0  0  0  0  0
  -25.5616  -18.2501   19.0144 C   0  0  0  0  0  0  0  0  0  0  0  0
  -22.9983  -20.0585   27.3759 C   0  0  0  0  0  0  0  0  0  0  0  0
  -25.0215  -25.6531   24.7247 C   0  0  0  0  0  0  0  0  0  0  0  0
  -23.9957  -26.1507   21.9962 C   0  0  0  0  0  0  0  0  0  0  0  0
  -22.0376  -21.0213   26.6829 C   0  0  0  0  0  0  0  0  0  0  0  0
  -24.1462  -17.2436   22.2833 C   0  0  0  0  0  0  0  0  0  0  0  0
  -22.2952  -21.0426   25.1796 C   0  0  0  0  0  0  0  0  0  0  0  0
  -24.2530  -15.7203   22.2376 C   0  0  0  0  0  0  0  0  0  0  0  0
  -24.0068  -17.8445   20.8878 C   0  0  0  0  0  0  0  0  0  0  0  0
  -25.1897  -15.9111   19.8995 C   0  0  0  0  0  0  0  0  0  0  0  0
  -23.7145  -21.5339   24.8700 C   0  0  1  0  0  0  0  0  0  0  0  0
  -23.5942  -25.2918   24.3250 C   0  0  1  0  0  0  0  0  0  0  0  0
  -25.3781  -15.2775   21.2861 C   0  0  2  0  0  0  0  0  0  0  0  0
  -31.7521  -20.4661   17.6889 C   0  0  0  0  0  0  0  0  0  0  0  0
  -20.2593  -31.4697   21.0516 C   0  0  0  0  0  0  0  0  0  0  0  0
  -20.3852  -24.8475   21.0288 C   0  0  0  0  0  0  0  0  0  0  0  0
  -19.6388  -26.9826   19.9553 C   0  0  0  0  0  0  0  0  0  0  0  0
  -18.8934  -26.4253   22.2697 C   0  0  0  0  0  0  0  0  0  0  0  0
  -27.3085  -18.4516   17.2861 C   0  0  0  0  0  0  0  0  0  0  0  0
  -23.5102  -31.4235   23.0279 C   0  0  0  0  0  0  0  0  0  0  0  0
  -29.2147  -24.0591   18.2598 C   0  0  0  0  0  0  0  0  0  0  0  0
  -31.0896  -21.8106   17.9796 C   0  0  0  0  0  0  0  0  0  0  0  0
  -30.2523  -24.8852   19.0230 C   0  0  0  0  0  0  0  0  0  0  0  0
  -27.9965  -17.8573   19.5794 C   0  0  0  0  0  0  0  0  0  0  0  0
  -29.8087  -25.2583   20.4328 C   0  0  0  0  0  0  0  0  0  1  0  0
  -28.1315  -19.0147   20.6016 C   0  0  1  0  0  0  0  0  0  0  0  0
  -21.2939  -27.1122   21.8722 C   0  0  1  0  0  0  0  0  0  0  0  0
  -21.2868  -30.9001   22.0173 C   0  0  2  0  0  0  0  0  0  0  0  0
  -20.0805  -26.3368   21.2859 C   0  0  0  0  0  0  0  0  0  0  0  0
  -29.1630  -18.6302   21.6769 C   0  0  0  0  0  0  0  0  0  0  0  0
  -27.7843  -22.5923   19.5684 N   0  0  0  0  0  0  0  0  0  0  0  0
  -24.3785  -13.0234   21.3306 N   0  0  0  0  0  0  0  0  0  0  0  0
  -29.5801  -20.4559   19.2929 N   0  0  0  0  0  0  0  0  0  0  0  0
  -25.4910  -13.7665   21.2033 N   0  0  0  0  0  0  0  0  0  0  0  0
  -23.1174  -26.0619   23.1744 N   0  0  0  0  0  0  0  0  0  0  0  0
  -25.0637  -17.3733   19.9923 N   0  0  0  0  0  0  0  0  0  0  0  0
  -27.8301  -13.6218   20.8597 N   0  0  0  0  0  0  0  0  0  0  0  0
  -26.5080   -9.3035   20.8602 N   0  0  0  0  0  0  0  0  0  0  0  0
  -23.7890  -22.9739   24.9937 N   0  0  0  0  0  0  0  0  0  0  0  0
  -21.0259  -28.5189   22.1511 N   0  0  0  0  0  0  0  0  0  0  0  0
  -26.9040  -18.0926   18.6379 N   0  0  0  0  0  0  0  0  0  0  0  0
  -22.4345  -31.8476   22.0952 N   0  3  0  0  0  0  0  0  0  0  0  0
  -28.3211  -10.6957   20.6772 O   0  0  0  0  0  0  0  0  0  0  0  0
  -23.0324  -23.5260   22.8618 O   0  0  0  0  0  0  0  0  0  0  0  0
  -21.0290  -26.4518   24.1350 O   0  0  0  0  0  0  0  0  0  0  0  0
  -22.6944  -29.3713   20.7849 O   0  0  0  0  0  0  0  0  0  0  0  0
  -24.8496  -19.1301   18.5138 O   0  0  0  0  0  0  0  0  0  0  0  0
  -21.2950   -7.4554   21.5268 O   0  0  0  0  0  0  0  0  0  0  0  0
  -28.6004  -26.0127   20.3482 O   0  0  0  0  0  0  0  0  0  1  0  0
  -22.7933   -3.1322   24.6040 F   0  0  0  0  0  0  0  0  0  0  0  0
  -19.7648   -6.6518   23.6845 F   0  0  0  0  0  0  0  0  0  0  0  0
  -28.8723  -17.4366   22.2446 F   0  0  0  0  0  0  0  0  0  0  0  0
  -30.4107  -18.5435   21.1697 F   0  0  0  0  0  0  0  0  0  0  0  0
  -29.1809  -19.5481   22.6694 F   0  0  0  0  0  0  0  0  0  0  0  0
  1  2  1  0  0  0  0
  1  5  2  0  0  0  0
  2  6  2  0  0  0  0
  3  8  2  0  0  0  0
  3 16  1  0  0  0  0
  4  9  1  0  0  0  0
  4 16  2  0  0  0  0
  5 18  1  0  0  0  0
  6 20  1  0  0  0  0
  7 10  2  0  0  0  0
  7 19  1  0  0  0  0
  8 22  1  0  0  0  0
  9 22  2  0  0  0  0
 10 23  1  0  0  0  0
 11 12  2  0  0  0  0
 11 24  1  0  0  0  0
 12 25  1  0  0  0  0
 13 21  1  0  0  0  0
 13 23  2  0  0  0  0
 14 25  2  0  0  0  0
 14 26  1  0  0  0  0
 15 28  1  0  0  0  0
 15 66  2  0  0  0  0
 16 27  1  0  0  0  0
 17 27  1  0  0  0  0
 17 31  2  0  0  0  0
 17 32  1  0  0  0  0
 18 20  2  0  0  0  0
 18 37  1  0  0  0  0
 19 21  2  0  0  0  0
 19 38  1  0  0  0  0
 20 46  1  0  0  0  0
 21 39  1  0  0  0  0
 22 83  1  0  0  0  0
 23 84  1  0  0  0  0
 24 26  2  0  0  0  0
 24 83  1  0  0  0  0
 25 85  1  0  0  0  0
 26 86  1  0  0  0  0
 27 67  2  0  0  0  0
 28 61  1  0  0  0  0
 28 68  2  0  0  0  0
 29 30  2  0  0  0  0
 29 56  1  0  0  0  0
 29 66  1  0  0  0  0
 30 57  1  0  0  0  0
 30 68  1  0  0  0  0
 31 69  1  0  0  0  0
 31 72  1  0  0  0  0
 32 73  1  0  0  0  0
 32 78  2  0  0  0  0
 33 47  1  0  0  0  0
 33 74  1  0  0  0  0
 33 79  2  0  0  0  0
 34 62  1  0  0  0  0
 34 70  1  0  0  0  0
 34 80  2  0  0  0  0
 35 63  1  0  0  0  0
 35 75  1  0  0  0  0
 35 81  2  0  0  0  0
 36 71  1  0  0  0  0
 36 76  1  0  0  0  0
 36 82  2  0  0  0  0
 37 40  1  0  0  0  0
 38 47  1  0  0  0  0
 39 70  1  0  0  0  0
 40 42  1  0  0  0  0
 41 43  1  0  0  0  0
 41 44  1  0  0  0  0
 42 46  1  0  0  0  0
 43 48  1  0  0  0  0
 44 71  1  0  0  0  0
 45 48  1  0  0  0  0
 45 71  1  0  0  0  0
 46 74  1  0  0  0  0
 47 70  1  0  0  0  0
 48 69  1  0  0  0  0
 49 57  1  0  0  0  0
 50 63  1  0  0  0  0
 51 64  1  0  0  0  0
 52 64  1  0  0  0  0
 53 64  1  0  0  0  0
 54 76  1  0  0  0  0
 55 77  1  0  0  0  0
 56 58  1  0  0  0  0
 58 60  1  0  0  0  0
 59 61  1  0  0  0  0
 59 76  1  0  0  0  0
 60 84  1  0  0  0  0
 61 65  1  0  0  0  0
 62 64  1  0  0  0  0
 62 75  1  0  0  0  0
 63 77  1  0  0  0  0
 65 87  1  0  0  0  0
 65 88  1  0  0  0  0
 65 89  1  0  0  0  0
 67 69  1  0  0  0  0
M  CHG  1  77   1
M  ISO  4  36 100  60 101  76 100  84 101
M  END
> <Batch ID>
0068

> <Smiles>
CCc1nc(C(C[100N:0](C)[100C:0](=O)N2CCCC(n3nc(-c4ccc(Oc5ccc(F)cc5F)cc4)c(C(N)=O)c3N)C2)C(F)(F)F)cnc1CC[101CH2:1][101O:1]c1ccc2c(c1)CN(C(=O)C(NC(=O)C(C)NC)C(C)(C)C)C(C(=O)NC1CCCc3ccccc31)C2

> <Shape>
0.254

> <Color>
0.088

> <Negative vol penalty>
0.000

$$$$

  -OEChem-04052318143D

 90 98  0     1  0  0  0  0  0999 V2000
  -23.4621  -30.7024   21.4973 C   0  0  0  0  0  0  0  0  0  0  0  0
  -23.4803  -29.3523   21.1622 C   0  0  0  0  0  0  0  0  0  0  0  0
  -22.4950  -22.5804   23.1383 C   0  0  0  0  0  0  0  0  0  0  0  0
  -21.5412  -21.7141   25.1820 C   0  0  0  0  0  0  0  0  0  0  0  0
  -24.6309  -31.4574   21.4087 C   0  0  0  0  0  0  0  0  0  0  0  0
  -24.6672  -28.7566   20.7371 C   0  0  0  0  0  0  0  0  0  0  0  0
  -26.5012  -23.0160   21.8269 C   0  0  0  0  0  0  0  0  0  0  0  0
  -21.8610  -23.8027   23.3605 C   0  0  0  0  0  0  0  0  0  0  0  0
  -20.9072  -22.9365   25.4042 C   0  0  0  0  0  0  0  0  0  0  0  0
  -26.4498  -21.8532   21.0594 C   0  0  0  0  0  0  0  0  0  0  0  0
  -18.7631  -25.1042   22.9943 C   0  0  0  0  0  0  0  0  0  0  0  0
  -18.1154  -25.7032   21.9140 C   0  0  0  0  0  0  0  0  0  0  0  0
  -28.7145  -22.2443   20.3261 C   0  0  0  0  0  0  0  0  0  0  0  0
  -19.5530  -27.6338   22.1225 C   0  0  0  0  0  0  0  0  0  0  0  0
  -25.0134  -13.9132   19.3268 C   0  0  0  0  0  0  0  0  0  0  0  0
  -22.3351  -21.5360   24.0490 C   0  0  0  0  0  0  0  0  0  0  0  0
  -24.2716  -19.8882   24.2553 C   0  0  0  0  0  0  0  0  0  0  0  0
  -25.8349  -30.8683   20.9915 C   0  0  0  0  0  0  0  0  0  0  0  0
  -27.6578  -23.8088   21.8412 C   0  0  0  0  0  0  0  0  0  0  0  0
  -25.8530  -29.5047   20.6415 C   0  0  0  0  0  0  0  0  0  0  0  0
  -28.7789  -23.4153   21.0966 C   0  0  0  0  0  0  0  0  0  0  0  0
  -26.1371  -14.2360   20.0598 C   0  0  0  0  0  0  0  0  0  0  0  0
  -21.0671  -23.9808   24.4934 C   0  0  0  0  0  0  0  0  0  0  0  0
  -27.5555  -21.4687   20.3066 C   0  0  0  0  0  0  0  0  0  0  0  0
  -19.8058  -25.7699   23.6388 C   0  0  0  0  0  0  0  0  0  0  0  0
  -18.5103  -26.9680   21.4781 C   0  0  0  0  0  0  0  0  0  0  0  0
  -20.2007  -27.0347   23.2029 C   0  0  0  0  0  0  0  0  0  0  0  0
  -22.9893  -20.2729   23.8197 C   0  0  0  0  0  0  0  0  0  0  0  0
  -26.3973  -13.4221   21.1433 C   0  0  0  0  0  0  0  0  0  0  0  0
  -24.4242  -18.6070   23.7844 C   0  0  0  0  0  0  0  0  0  0  0  0
  -24.5598  -12.1595   20.7001 C   0  0  0  0  0  0  0  0  0  0  0  0
  -25.2382  -20.6233   25.0175 C   0  0  0  0  0  0  0  0  0  0  0  0
  -28.3407  -26.7955   20.9944 C   0  0  0  0  0  0  0  0  0  0  0  0
  -31.2225  -26.0962   22.3092 C   0  0  0  0  0  0  0  0  0  0  0  0
  -33.4996  -23.7153   23.1998 C   0  0  0  0  0  0  0  0  0  0  0  0
  -22.6678  -13.5910   22.9387 C   0  0  0  0  0  0  0  0  0  0  0  0
  -27.0623  -31.7358   20.8661 C   0  0  0  0  0  0  0  0  0  0  0  0
  -27.7066  -25.0460   22.6953 C   0  0  0  0  0  0  0  0  0  0  0  0
  -30.0516  -24.2207   21.0938 C   0  0  0  0  0  0  0  0  0  0  0  0
  -28.3619  -30.9414   20.7656 C   0  0  0  0  0  0  0  0  0  0  0  0
  -21.6642  -15.9422   20.5022 C   0  0  0  0  0  0  0  0  0  0  0  0
  -28.2155  -29.8030   19.7610 C   0  0  0  0  0  0  0  0  0  0  0  0
  -22.0176  -17.2602   21.1899 C   0  0  0  0  0  0  0  0  0  0  0  0
  -21.0749  -14.9238   21.4800 C   0  0  0  0  0  0  0  0  0  0  0  0
  -22.2725  -15.9991   23.3594 C   0  0  0  0  0  0  0  0  0  0  0  0
  -27.1264  -28.8166   20.1999 C   0  0  1  0  0  0  0  0  0  0  0  0
  -28.7564  -26.0511   22.2317 C   0  0  1  0  0  0  0  0  0  0  0  0
  -22.9221  -17.0185   22.4108 C   0  0  2  0  0  0  0  0  0  0  0  0
  -27.5869  -13.6759   22.0092 C   0  0  0  0  0  0  0  0  0  0  0  0
  -35.7776  -23.4516   24.2189 C   0  0  0  0  0  0  0  0  0  0  0  0
  -22.4607  -10.8484   20.0566 C   0  0  0  0  0  0  0  0  0  0  0  0
  -32.4970  -26.9980   19.6877 C   0  0  0  0  0  0  0  0  0  0  0  0
  -34.6032  -25.8442   20.3956 C   0  0  0  0  0  0  0  0  0  0  0  0
  -33.7077  -27.7407   21.7461 C   0  0  0  0  0  0  0  0  0  0  0  0
  -25.6640   -9.5343   22.0940 C   0  0  0  0  0  0  0  0  0  0  0  0
  -25.1041   -9.2370   19.6950 C   0  0  0  0  0  0  0  0  0  0  0  0
  -23.5491   -8.4046   21.4436 C   0  0  0  0  0  0  0  0  0  0  0  0
  -20.6803  -12.1265   22.3817 C   0  0  0  0  0  0  0  0  0  0  0  0
  -32.4317  -22.1342   25.4622 C   0  0  0  0  0  0  0  0  0  0  0  0
  -27.0071  -15.4077   19.6799 C   0  0  0  0  0  0  0  0  0  0  0  0
  -26.4131  -16.7686   20.0598 C   0  0  0  0  0  0  0  0  0  0  0  0
  -27.2723  -17.9467   19.5983 C   0  0  0  0  0  0  0  0  0  0  0  0
  -22.9606  -11.1891   22.4659 C   0  0  0  0  0  0  0  0  0  0  0  0
  -26.6718  -19.2785   20.0274 C   0  0  0  0  0  0  0  0  0  1  0  0
  -32.5170  -25.5111   21.7983 C   0  0  1  0  0  0  0  0  0  0  0  0
  -34.2807  -23.4986   24.4833 C   0  0  2  0  0  0  0  0  0  0  0  0
  -23.6842  -11.0058   21.0554 C   0  0  2  0  0  0  0  0  0  0  0  0
  -33.3067  -26.5091   20.9052 C   0  0  0  0  0  0  0  0  0  0  0  0
  -24.4940   -9.5782   21.0772 C   0  0  0  0  0  0  0  0  0  0  0  0
  -24.1992  -12.8780   19.6197 N   0  0  0  0  0  0  0  0  0  0  0  0
  -22.3714  -19.3137   23.1253 N   0  0  0  0  0  0  0  0  0  0  0  0
  -25.6268  -12.3715   21.4939 N   0  0  0  0  0  0  0  0  0  0  0  0
  -23.2692  -18.3137   23.1210 N   0  0  0  0  0  0  0  0  0  0  0  0
  -30.0478  -25.4256   21.9399 N   0  0  0  0  0  0  0  0  0  0  0  0
  -21.9455  -14.7587   22.6520 N   0  0  0  0  0  0  0  0  0  0  0  0
  -25.4323  -17.7140   23.8772 N   0  0  0  0  0  0  0  0  0  0  0  0
  -24.9197  -21.9272   25.4207 N   0  0  0  0  0  0  0  0  0  0  0  0
  -27.6225  -27.9488   21.2464 N   0  0  0  0  0  0  0  0  0  0  0  0
  -33.2495  -25.0523   22.9736 N   0  0  0  0  0  0  0  0  0  0  0  0
  -22.1147  -12.3733   22.5146 N   0  0  0  0  0  0  0  0  0  0  0  0
  -33.8763  -22.2160   25.1255 N   0  3  0  0  0  0  0  0  0  0  0  0
  -26.3580  -20.1441   25.3176 O   0  0  0  0  0  0  0  0  0  0  0  0
  -28.6500  -26.3568   19.8928 O   0  0  0  0  0  0  0  0  0  0  0  0
  -31.2529  -27.1067   23.0160 O   0  0  0  0  0  0  0  0  0  0  0  0
  -33.1498  -22.7912   22.4688 O   0  0  0  0  0  0  0  0  0  0  0  0
  -23.7446  -13.6318   23.5477 O   0  0  0  0  0  0  0  0  0  0  0  0
  -20.4484  -25.1735   24.7107 O   0  0  0  0  0  0  0  0  0  0  0  0
  -27.5078  -20.3346   19.5560 O   0  0  0  0  0  0  0  0  0  1  0  0
  -17.8892  -27.5425   20.4396 F   0  0  0  0  0  0  0  0  0  0  0  0
  -21.2025  -27.6787   23.8173 F   0  0  0  0  0  0  0  0  0  0  0  0
  1  2  1  0  0  0  0
  1  5  2  0  0  0  0
  2  6  2  0  0  0  0
  3  8  2  0  0  0  0
  3 16  1  0  0  0  0
  4  9  1  0  0  0  0
  4 16  2  0  0  0  0
  5 18  1  0  0  0  0
  6 20  1  0  0  0  0
  7 10  2  0  0  0  0
  7 19  1  0  0  0  0
  8 23  1  0  0  0  0
  9 23  2  0  0  0  0
 10 24  1  0  0  0  0
 11 12  2  0  0  0  0
 11 25  1  0  0  0  0
 12 26  1  0  0  0  0
 13 21  1  0  0  0  0
 13 24  2  0  0  0  0
 14 26  2  0  0  0  0
 14 27  1  0  0  0  0
 15 22  1  0  0  0  0
 15 70  2  0  0  0  0
 16 28  1  0  0  0  0
 17 28  1  0  0  0  0
 17 30  2  0  0  0  0
 17 32  1  0  0  0  0
 18 20  2  0  0  0  0
 18 37  1  0  0  0  0
 19 21  2  0  0  0  0
 19 38  1  0  0  0  0
 20 46  1  0  0  0  0
 21 39  1  0  0  0  0
 22 29  2  0  0  0  0
 22 60  1  0  0  0  0
 23 87  1  0  0  0  0
 24 88  1  0  0  0  0
 25 27  2  0  0  0  0
 25 87  1  0  0  0  0
 26 89  1  0  0  0  0
 27 90  1  0  0  0  0
 28 71  2  0  0  0  0
 29 49  1  0  0  0  0
 29 72  1  0  0  0  0
 30 73  1  0  0  0  0
 30 76  1  0  0  0  0
 31 67  1  0  0  0  0
 31 70  1  0  0  0  0
 31 72  2  0  0  0  0
 32 77  1  0  0  0  0
 32 82  2  0  0  0  0
 33 47  1  0  0  0  0
 33 78  1  0  0  0  0
 33 83  2  0  0  0  0
 34 65  1  0  0  0  0
 34 74  1  0  0  0  0
 34 84  2  0  0  0  0
 35 66  1  0  0  0  0
 35 79  1  0  0  0  0
 35 85  2  0  0  0  0
 36 75  1  0  0  0  0
 36 80  1  0  0  0  0
 36 86  2  0  0  0  0
 37 40  1  0  0  0  0
 38 47  1  0  0  0  0
 39 74  1  0  0  0  0
 40 42  1  0  0  0  0
 41 43  1  0  0  0  0
 41 44  1  0  0  0  0
 42 46  1  0  0  0  0
 43 48  1  0  0  0  0
 44 75  1  0  0  0  0
 45 48  1  0  0  0  0
 45 75  1  0  0  0  0
 46 78  1  0  0  0  0
 47 74  1  0  0  0  0
 48 73  1  0  0  0  0
 50 66  1  0  0  0  0
 51 67  1  0  0  0  0
 52 68  1  0  0  0  0
 53 68  1  0  0  0  0
 54 68  1  0  0  0  0
 55 69  1  0  0  0  0
 56 69  1  0  0  0  0
 57 69  1  0  0  0  0
 58 80  1  0  0  0  0
 59 81  1  0  0  0  0
 60 61  1  0  0  0  0
 61 62  1  0  0  0  0
 62 64  1  0  0  0  0
 63 67  1  0  0  0  0
 63 80  1  0  0  0  0
 64 88  1  0  0  0  0
 65 68  1  0  0  0  0
 65 79  1  0  0  0  0
 66 81  1  0  0  0  0
 67 69  1  0  0  0  0
 71 73  1  0  0  0  0
M  CHG  1  81   1
M  ISO  4  36 100  64 101  80 100  88 101
M  END
> <Batch ID>
0068

> <Smiles>
CNC(C)C(=O)NC(C(=O)N1Cc2cc([101O:1][101CH2:1]CCCc3cnc(C(C)(C[100N:0](C)[100C:0](=O)N4CCCC(n5nc(-c6ccc(Oc7ccc(F)cc7F)cc6)c(C(N)=O)c5N)C4)C(C)(C)C)nc3C)ccc2CC1C(=O)NC1CCCc2ccccc21)C(C)(C)C

> <Shape>
0.212

> <Color>
0.055

> <Negative vol penalty>
0.000

$$$$

  -OEChem-04052318143D

 91100  0     1  0  0  0  0  0999 V2000
  -16.6283  -30.2871   23.5074 C   0  0  0  0  0  0  0  0  0  0  0  0
  -16.7547  -29.2887   22.5468 C   0  0  0  0  0  0  0  0  0  0  0  0
  -25.6776  -15.8711   21.8164 C   0  0  0  0  0  0  0  0  0  0  0  0
  -25.4129  -16.3502   19.4632 C   0  0  0  0  0  0  0  0  0  0  0  0
  -17.6667  -30.5221   24.4077 C   0  0  0  0  0  0  0  0  0  0  0  0
  -17.9201  -28.5255   22.4853 C   0  0  0  0  0  0  0  0  0  0  0  0
  -18.3699  -22.6085   20.9713 C   0  0  0  0  0  0  0  0  0  0  0  0
  -24.4044  -15.3022   21.8438 C   0  0  0  0  0  0  0  0  0  0  0  0
  -24.1396  -15.7813   19.4907 C   0  0  0  0  0  0  0  0  0  0  0  0
  -18.7097  -21.9682   19.7804 C   0  0  0  0  0  0  0  0  0  0  0  0
  -22.9633  -12.3768   20.9503 C   0  0  0  0  0  0  0  0  0  0  0  0
  -25.8329  -25.8224   18.3241 C   0  0  0  0  0  0  0  0  0  0  0  0
  -22.1031  -24.8191   18.4128 C   0  0  0  0  0  0  0  0  0  0  0  0
  -22.8112  -11.1599   21.6147 C   0  0  0  0  0  0  0  0  0  0  0  0
  -27.2090  -26.0004   18.2349 C   0  0  0  0  0  0  0  0  0  0  0  0
  -21.5773  -23.6009   17.9972 C   0  0  0  0  0  0  0  0  0  0  0  0
  -20.9859  -21.7567   20.5506 C   0  0  0  0  0  0  0  0  0  0  0  0
  -21.2152  -12.1786   23.1154 C   0  0  0  0  0  0  0  0  0  0  0  0
  -25.9125  -26.7150   20.5271 C   0  0  0  0  0  0  0  0  0  0  0  0
  -23.8446  -23.6323   19.5151 C   0  0  0  0  0  0  0  0  0  0  0  0
  -26.1819  -16.3951   20.6261 C   0  0  0  0  0  0  0  0  0  0  0  0
  -28.7145  -16.3305   20.3271 C   0  0  0  0  0  0  0  0  0  0  0  0
  -18.8414  -29.7549   24.3634 C   0  0  0  0  0  0  0  0  0  0  0  0
  -19.3396  -22.8378   21.9580 C   0  0  0  0  0  0  0  0  0  0  0  0
  -18.9757  -28.7514   23.3850 C   0  0  0  0  0  0  0  0  0  0  0  0
  -20.6553  -22.3978   21.7543 C   0  0  0  0  0  0  0  0  0  0  0  0
  -23.6353  -15.2573   20.6810 C   0  0  0  0  0  0  0  0  0  0  0  0
  -20.0185  -21.5448   19.5687 C   0  0  0  0  0  0  0  0  0  0  0  0
  -25.1647  -26.1839   19.4886 C   0  0  0  0  0  0  0  0  0  0  0  0
  -23.2581  -24.8439   19.1864 C   0  0  0  0  0  0  0  0  0  0  0  0
  -22.2414  -13.4948   21.3685 C   0  0  0  0  0  0  0  0  0  0  0  0
  -21.9372  -11.0608   22.6972 C   0  0  0  0  0  0  0  0  0  0  0  0
  -21.3674  -13.3956   22.4510 C   0  0  0  0  0  0  0  0  0  0  0  0
  -27.4969  -16.9834   20.5972 C   0  0  0  0  0  0  0  0  0  0  0  0
  -27.8653  -26.5399   19.3295 C   0  0  0  0  0  0  0  0  0  0  0  0
  -22.2392  -22.4450   18.3789 C   0  0  0  0  0  0  0  0  0  0  0  0
  -29.6627  -17.3198   20.4209 C   0  0  0  0  0  0  0  0  0  0  0  0
  -28.9659  -14.9531   20.0187 C   0  0  0  0  0  0  0  0  0  0  0  0
  -20.5839  -25.4253   23.3217 C   0  0  0  0  0  0  0  0  0  0  0  0
  -22.0663  -23.2417   25.2076 C   0  0  0  0  0  0  0  0  0  0  0  0
  -23.2073  -20.0490   25.5972 C   0  0  0  0  0  0  0  0  0  0  0  0
  -29.3381  -23.1648   19.6560 C   0  0  0  0  0  0  0  0  0  0  0  0
  -19.9558  -30.0774   25.3271 C   0  0  0  0  0  0  0  0  0  0  0  0
  -18.9510  -23.5059   23.2483 C   0  0  0  0  0  0  0  0  0  0  0  0
  -21.7291  -22.6017   22.7905 C   0  0  0  0  0  0  0  0  0  0  0  0
  -21.0057  -28.9745   25.4354 C   0  0  0  0  0  0  0  0  0  0  0  0
  -30.5311  -21.4775   22.6270 C   0  0  0  0  0  0  0  0  0  0  0  0
  -21.4119  -28.4861   24.0486 C   0  0  0  0  0  0  0  0  0  0  0  0
  -29.9959  -20.0612   22.4081 C   0  0  0  0  0  0  0  0  0  0  0  0
  -29.5379  -22.5260   22.1348 C   0  0  0  0  0  0  0  0  0  0  0  0
  -28.5942  -20.9525   20.4895 C   0  0  0  0  0  0  0  0  0  0  0  0
  -20.2143  -27.8858   23.3024 C   0  0  1  0  0  0  0  0  0  0  0  0
  -20.1332  -24.1465   23.9691 C   0  0  1  0  0  0  0  0  0  0  0  0
  -29.5623  -19.8459   20.9459 C   0  0  2  0  0  0  0  0  0  0  0  0
  -24.4098  -18.5726   27.2317 C   0  0  0  0  0  0  0  0  0  0  0  0
  -29.9899  -27.3613   20.5574 C   0  0  0  0  0  0  0  0  0  0  0  0
  -29.7062  -27.7450   18.1227 C   0  0  0  0  0  0  0  0  0  0  0  0
  -21.6476  -20.9878   16.4101 C   0  0  0  0  0  0  0  0  0  0  0  0
  -22.5168  -19.9406   18.5353 C   0  0  0  0  0  0  0  0  0  0  0  0
  -24.7049  -24.5908   24.4813 C   0  0  0  0  0  0  0  0  0  0  0  0
  -25.8971  -22.5608   25.3334 C   0  0  0  0  0  0  0  0  0  0  0  0
  -24.4994  -23.9267   26.8836 C   0  0  0  0  0  0  0  0  0  0  0  0
  -20.9038  -18.2021   25.8011 C   0  0  0  0  0  0  0  0  0  0  0  0
  -30.1236  -25.4163   18.9696 C   0  0  0  0  0  0  0  0  0  0  0  0
  -23.3695  -22.4825   25.1430 C   0  0  1  0  0  0  0  0  0  0  0  0
  -23.0561  -19.0573   26.7365 C   0  0  2  0  0  0  0  0  0  0  0  0
  -29.3419  -26.7456   19.2688 C   0  0  0  0  0  0  0  0  0  0  0  0
  -21.6910  -21.0892   17.9404 C   0  0  0  0  0  0  0  0  0  1  0  0
  -24.5982  -23.3879   25.4398 C   0  0  0  0  0  0  0  0  0  0  0  0
  -27.2504  -26.9029   20.4774 N   0  0  0  0  0  0  0  0  0  0  0  0
  -23.3632  -22.4292   19.1299 N   0  0  0  0  0  0  0  0  0  0  0  0
  -27.6543  -18.2866   20.8443 N   0  0  0  0  0  0  0  0  0  0  0  0
  -28.9820  -18.4605   20.7299 N   0  0  0  0  0  0  0  0  0  0  0  0
  -21.3011  -23.2655   24.0330 N   0  0  0  0  0  0  0  0  0  0  0  0
  -29.1806  -22.2750   20.7315 N   0  0  0  0  0  0  0  0  0  0  0  0
  -31.0040  -17.3164   20.2686 N   0  0  0  0  0  0  0  0  0  0  0  0
  -27.8777  -14.0716   19.9625 N   0  0  0  0  0  0  0  0  0  0  0  0
  -19.9333  -26.5517   23.7880 N   0  0  0  0  0  0  0  0  0  0  0  0
  -23.2280  -21.3504   26.0523 N   0  0  0  0  0  0  0  0  0  0  0  0
  -29.8942  -24.3986   19.9710 N   0  0  0  0  0  0  0  0  0  0  0  0
  -22.2671  -17.8738   26.2918 N   0  3  0  0  0  0  0  0  0  0  0  0
  -30.1231  -14.5136   19.8158 O   0  0  0  0  0  0  0  0  0  0  0  0
  -21.4584  -25.3927   22.4639 O   0  0  0  0  0  0  0  0  0  0  0  0
  -21.7359  -23.7872   26.2635 O   0  0  0  0  0  0  0  0  0  0  0  0
  -23.3017  -19.7036   24.4215 O   0  0  0  0  0  0  0  0  0  0  0  0
  -29.0120  -22.8790   18.4988 O   0  0  0  0  0  0  0  0  0  0  0  0
  -22.3929  -14.7021   20.7074 O   0  0  0  0  0  0  0  0  0  0  0  0
  -23.7927  -26.0172   19.6062 O   0  0  0  0  0  0  0  0  0  0  0  0
  -20.3530  -20.9202   18.4068 O   0  0  0  0  0  0  0  0  0  1  0  0
  -21.7901   -9.8916   23.3342 F   0  0  0  0  0  0  0  0  0  0  0  0
  -20.6703  -14.4659   22.8566 F   0  0  0  0  0  0  0  0  0  0  0  0
  1  2  1  0  0  0  0
  1  5  2  0  0  0  0
  2  6  2  0  0  0  0
  3  8  2  0  0  0  0
  3 21  1  0  0  0  0
  4  9  1  0  0  0  0
  4 21  2  0  0  0  0
  5 23  1  0  0  0  0
  6 25  1  0  0  0  0
  7 10  2  0  0  0  0
  7 24  1  0  0  0  0
  8 27  1  0  0  0  0
  9 27  2  0  0  0  0
 10 28  1  0  0  0  0
 11 14  2  0  0  0  0
 11 31  1  0  0  0  0
 12 15  2  0  0  0  0
 12 29  1  0  0  0  0
 13 16  2  0  0  0  0
 13 30  1  0  0  0  0
 14 32  1  0  0  0  0
 15 35  1  0  0  0  0
 16 36  1  0  0  0  0
 17 26  1  0  0  0  0
 17 28  2  0  0  0  0
 18 32  2  0  0  0  0
 18 33  1  0  0  0  0
 19 29  2  0  0  0  0
 19 70  1  0  0  0  0
 20 30  2  0  0  0  0
 20 71  1  0  0  0  0
 21 34  1  0  0  0  0
 22 34  1  0  0  0  0
 22 37  2  0  0  0  0
 22 38  1  0  0  0  0
 23 25  2  0  0  0  0
 23 43  1  0  0  0  0
 24 26  2  0  0  0  0
 24 44  1  0  0  0  0
 25 52  1  0  0  0  0
 26 45  1  0  0  0  0
 27 87  1  0  0  0  0
 28 89  1  0  0  0  0
 29 88  1  0  0  0  0
 30 88  1  0  0  0  0
 31 33  2  0  0  0  0
 31 87  1  0  0  0  0
 32 90  1  0  0  0  0
 33 91  1  0  0  0  0
 34 72  2  0  0  0  0
 35 67  1  0  0  0  0
 35 70  2  0  0  0  0
 36 68  1  0  0  0  0
 36 71  2  0  0  0  0
 37 73  1  0  0  0  0
 37 76  1  0  0  0  0
 38 77  1  0  0  0  0
 38 82  2  0  0  0  0
 39 53  1  0  0  0  0
 39 78  1  0  0  0  0
 39 83  2  0  0  0  0
 40 65  1  0  0  0  0
 40 74  1  0  0  0  0
 40 84  2  0  0  0  0
 41 66  1  0  0  0  0
 41 79  1  0  0  0  0
 41 85  2  0  0  0  0
 42 75  1  0  0  0  0
 42 80  1  0  0  0  0
 42 86  2  0  0  0  0
 43 46  1  0  0  0  0
 44 53  1  0  0  0  0
 45 74  1  0  0  0  0
 46 48  1  0  0  0  0
 47 49  1  0  0  0  0
 47 50  1  0  0  0  0
 48 52  1  0  0  0  0
 49 54  1  0  0  0  0
 50 75  1  0  0  0  0
 51 54  1  0  0  0  0
 51 75  1  0  0  0  0
 52 78  1  0  0  0  0
 53 74  1  0  0  0  0
 54 73  1  0  0  0  0
 55 66  1  0  0  0  0
 56 67  1  0  0  0  0
 57 67  1  0  0  0  0
 58 68  1  0  0  0  0
 59 68  1  0  0  0  0
 60 69  1  0  0  0  0
 61 69  1  0  0  0  0
 62 69  1  0  0  0  0
 63 81  1  0  0  0  0
 64 67  1  0  0  0  0
 64 80  1  0  0  0  0
 65 69  1  0  0  0  0
 65 79  1  0  0  0  0
 66 81  1  0  0  0  0
 68 89  1  0  0  0  0
 72 73  1  0  0  0  0
M  CHG  1  81   1
M  ISO  4  42 100  68 101  80 100  89 101
M  END
> <Batch ID>
0068

> <Smiles>
CNC(C)C(=O)NC(C(=O)N1Cc2cc([101O:1][101C:1](C)(C)c3ccc(Oc4ccc(C(C)(C)C[100NH:0][100C:0](=O)N5CCCC(n6nc(-c7ccc(Oc8ccc(F)cc8F)cc7)c(C(N)=O)c6N)C5)nc4)cn3)ccc2CC1C(=O)NC1CCCc2ccccc21)C(C)(C)C

> <Shape>
0.213

> <Color>
0.065

> <Negative vol penalty>
0.000

$$$$

  -OEChem-04052318143D

 87 95  0     1  0  0  0  0  0999 V2000
  -21.8519  -21.4665   31.7150 C   0  0  0  0  0  0  0  0  0  0  0  0
  -22.2820  -21.1247   30.4369 C   0  0  0  0  0  0  0  0  0  0  0  0
  -22.9920   -9.9093   19.9928 C   0  0  0  0  0  0  0  0  0  0  0  0
  -23.6962   -9.9732   22.3030 C   0  0  0  0  0  0  0  0  0  0  0  0
  -21.6706  -20.4738   32.6770 C   0  0  0  0  0  0  0  0  0  0  0  0
  -22.5322  -19.7899   30.1204 C   0  0  0  0  0  0  0  0  0  0  0  0
  -20.5956  -18.4613   25.6338 C   0  0  0  0  0  0  0  0  0  0  0  0
  -22.2057   -8.7894   20.2635 C   0  0  0  0  0  0  0  0  0  0  0  0
  -22.9098   -8.8533   22.5737 C   0  0  0  0  0  0  0  0  0  0  0  0
  -21.2977  -18.8553   24.4955 C   0  0  0  0  0  0  0  0  0  0  0  0
  -23.1073   -5.5063   22.1385 C   0  0  0  0  0  0  0  0  0  0  0  0
  -23.6721   -4.4882   22.9066 C   0  0  0  0  0  0  0  0  0  0  0  0
  -22.2481  -16.6447   24.3240 C   0  0  0  0  0  0  0  0  0  0  0  0
  -21.9364   -4.7748   24.5627 C   0  0  0  0  0  0  0  0  0  0  0  0
  -27.8767  -17.4675   23.0117 C   0  0  0  0  0  0  0  0  0  0  0  0
  -23.7373  -10.5011   21.0126 C   0  0  0  0  0  0  0  0  0  0  0  0
  -24.1629  -13.0086   20.8144 C   0  0  0  0  0  0  0  0  0  0  0  0
  -21.9093  -19.1251   32.3693 C   0  0  0  0  0  0  0  0  0  0  0  0
  -20.7233  -17.1571   26.1329 C   0  0  0  0  0  0  0  0  0  0  0  0
  -22.3552  -18.7783   31.0796 C   0  0  0  0  0  0  0  0  0  0  0  0
  -21.5446  -16.2360   25.4673 C   0  0  0  0  0  0  0  0  0  0  0  0
  -22.1646   -8.2615   21.5539 C   0  0  0  0  0  0  0  0  0  0  0  0
  -22.1263  -17.9478   23.8420 C   0  0  0  0  0  0  0  0  0  0  0  0
  -21.9571   -6.1588   22.5825 C   0  0  0  0  0  0  0  0  0  0  0  0
  -27.7480  -18.2269   21.8666 C   0  0  0  0  0  0  0  0  0  0  0  0
  -23.0866   -4.1224   24.1187 C   0  0  0  0  0  0  0  0  0  0  0  0
  -21.3717   -5.7930   23.7946 C   0  0  0  0  0  0  0  0  0  0  0  0
  -24.5503  -11.6576   20.7335 C   0  0  0  0  0  0  0  0  0  0  0  0
  -28.6023  -17.8992   20.8337 C   0  0  0  0  0  0  0  0  0  0  0  0
  -25.2870  -13.7103   20.4533 C   0  0  0  0  0  0  0  0  0  0  0  0
  -29.5435  -16.2409   22.0712 C   0  0  0  0  0  0  0  0  0  0  0  0
  -22.8999  -13.5782   21.1832 C   0  0  0  0  0  0  0  0  0  0  0  0
  -21.7728  -15.8885   28.8519 C   0  0  0  0  0  0  0  0  0  0  0  0
  -20.6874  -13.1319   27.5308 C   0  0  0  0  0  0  0  0  0  0  0  0
  -30.8108  -14.4999   20.8444 C   0  0  0  0  0  0  0  0  0  0  0  0
  -19.8878  -11.3910   24.7065 C   0  0  0  0  0  0  0  0  0  0  0  0
  -21.7448  -18.0925   33.4562 C   0  0  0  0  0  0  0  0  0  0  0  0
  -19.9385  -16.7400   27.3464 C   0  0  0  0  0  0  0  0  0  0  0  0
  -21.7003  -14.8181   25.9509 C   0  0  0  0  0  0  0  0  0  0  0  0
  -21.6718  -16.6612   32.9304 C   0  0  0  0  0  0  0  0  0  0  0  0
  -29.6333  -12.1545   18.4046 C   0  0  0  0  0  0  0  0  0  0  0  0
  -22.7716  -16.4131   31.9030 C   0  0  0  0  0  0  0  0  0  0  0  0
  -28.1835  -11.9043   18.8176 C   0  0  0  0  0  0  0  0  0  0  0  0
  -30.5307  -12.3704   19.6192 C   0  0  0  0  0  0  0  0  0  0  0  0
  -28.6187  -13.2131   20.9443 C   0  0  0  0  0  0  0  0  0  0  0  0
  -22.6131  -17.3388   30.6907 C   0  0  1  0  0  0  0  0  0  0  0  0
  -20.5426  -15.5369   28.0641 C   0  0  1  0  0  0  0  0  0  0  0  0
  -27.6727  -13.0205   19.7458 C   0  0  2  0  0  0  0  0  0  0  0  0
  -28.5480  -18.6544   19.5470 C   0  0  0  0  0  0  0  0  0  0  0  0
  -19.0083   -9.5045   23.3048 C   0  0  0  0  0  0  0  0  0  0  0  0
  -23.4531  -11.9468   28.0375 C   0  0  0  0  0  0  0  0  0  0  0  0
  -22.8801  -10.1056   26.4408 C   0  0  0  0  0  0  0  0  0  0  0  0
  -21.5496  -10.4012   28.5300 C   0  0  0  0  0  0  0  0  0  0  0  0
  -17.1433  -12.4982   24.7314 C   0  0  0  0  0  0  0  0  0  0  0  0
  -24.4931  -19.8292   21.8644 C   0  0  0  0  0  0  0  0  0  0  0  0
  -23.1927  -19.7026   22.6424 C   0  0  0  0  0  0  0  0  0  1  0  0
  -25.6348  -19.0855   22.5396 C   0  0  0  0  0  0  0  0  0  0  0  0
  -21.2824  -12.0643   26.6446 C   0  0  1  0  0  0  0  0  0  0  0  0
  -18.6700  -10.5591   24.3469 C   0  0  2  0  0  0  0  0  0  0  0  0
  -30.5389  -15.1366   22.1840 C   0  0  1  0  0  0  0  0  0  0  0  0
  -22.2901  -11.1567   27.4050 C   0  0  0  0  0  0  0  0  0  0  0  0
  -31.8723  -15.6034   22.7819 C   0  0  0  0  0  0  0  0  0  0  0  0
  -28.7671  -16.4632   23.1488 N   0  0  0  0  0  0  0  0  0  0  0  0
  -25.8211  -11.5076   20.3508 N   0  0  0  0  0  0  0  0  0  0  0  0
  -29.5158  -16.9086   20.9020 N   0  0  0  0  0  0  0  0  0  0  0  0
  -26.2420  -12.7735   20.1880 N   0  0  0  0  0  0  0  0  0  0  0  0
  -20.9173  -14.4601   27.1452 N   0  0  0  0  0  0  0  0  0  0  0  0
  -29.9994  -13.4228   20.4872 N   0  0  0  0  0  0  0  0  0  0  0  0
  -25.5417  -15.0311   20.3398 N   0  0  0  0  0  0  0  0  0  0  0  0
  -21.8514  -12.7136   21.5259 N   0  0  0  0  0  0  0  0  0  0  0  0
  -21.5651  -16.8541   29.8183 N   0  0  0  0  0  0  0  0  0  0  0  0
  -20.1560  -11.3461   26.0583 N   0  0  0  0  0  0  0  0  0  0  0  0
  -17.5907  -11.4299   23.8011 N   0  3  0  0  0  0  0  0  0  0  0  0
  -22.7019  -14.8169   21.1922 O   0  0  0  0  0  0  0  0  0  0  0  0
  -22.8317  -15.3245   28.6024 O   0  0  0  0  0  0  0  0  0  0  0  0
  -20.0365  -12.7994   28.5245 O   0  0  0  0  0  0  0  0  0  0  0  0
  -31.7159  -14.9496   20.1367 O   0  0  0  0  0  0  0  0  0  0  0  0
  -20.5386  -12.0150   23.8712 O   0  0  0  0  0  0  0  0  0  0  0  0
  -21.3972   -7.1689   21.8184 O   0  0  0  0  0  0  0  0  0  0  0  0
  -22.8131  -18.3299   22.7311 O   0  0  0  0  0  0  0  0  0  1  0  0
  -26.8258  -19.2372   21.7793 O   0  0  0  0  0  0  0  0  0  0  0  0
  -23.6282   -3.1436   24.8555 F   0  0  0  0  0  0  0  0  0  0  0  0
  -20.2660   -6.4154   24.2258 F   0  0  0  0  0  0  0  0  0  0  0  0
  -30.1141  -14.1238   23.0222 F   0  0  0  0  0  0  0  0  0  0  0  0
  -31.7114  -16.1102   24.0264 F   0  0  0  0  0  0  0  0  0  0  0  0
  -32.7712  -14.6000   22.8685 F   0  0  0  0  0  0  0  0  0  0  0  0
  -32.4177  -16.5787   22.0202 F   0  0  0  0  0  0  0  0  0  0  0  0
  1  2  1  0  0  0  0
  1  5  2  0  0  0  0
  2  6  2  0  0  0  0
  3  8  2  0  0  0  0
  3 16  1  0  0  0  0
  4  9  1  0  0  0  0
  4 16  2  0  0  0  0
  5 18  1  0  0  0  0
  6 20  1  0  0  0  0
  7 10  2  0  0  0  0
  7 19  1  0  0  0  0
  8 22  1  0  0  0  0
  9 22  2  0  0  0  0
 10 23  1  0  0  0  0
 11 12  2  0  0  0  0
 11 24  1  0  0  0  0
 12 26  1  0  0  0  0
 13 21  1  0  0  0  0
 13 23  2  0  0  0  0
 14 26  2  0  0  0  0
 14 27  1  0  0  0  0
 15 25  1  0  0  0  0
 15 63  2  0  0  0  0
 16 28  1  0  0  0  0
 17 28  1  0  0  0  0
 17 30  2  0  0  0  0
 17 32  1  0  0  0  0
 18 20  2  0  0  0  0
 18 37  1  0  0  0  0
 19 21  2  0  0  0  0
 19 38  1  0  0  0  0
 20 46  1  0  0  0  0
 21 39  1  0  0  0  0
 22 79  1  0  0  0  0
 23 80  1  0  0  0  0
 24 27  2  0  0  0  0
 24 79  1  0  0  0  0
 25 29  2  0  0  0  0
 25 81  1  0  0  0  0
 26 82  1  0  0  0  0
 27 83  1  0  0  0  0
 28 64  2  0  0  0  0
 29 49  1  0  0  0  0
 29 65  1  0  0  0  0
 30 66  1  0  0  0  0
 30 69  1  0  0  0  0
 31 60  1  0  0  0  0
 31 63  1  0  0  0  0
 31 65  2  0  0  0  0
 32 70  1  0  0  0  0
 32 74  2  0  0  0  0
 33 47  1  0  0  0  0
 33 71  1  0  0  0  0
 33 75  2  0  0  0  0
 34 58  1  0  0  0  0
 34 67  1  0  0  0  0
 34 76  2  0  0  0  0
 35 60  1  0  0  0  0
 35 68  1  0  0  0  0
 35 77  2  0  0  0  0
 36 59  1  0  0  0  0
 36 72  1  0  0  0  0
 36 78  2  0  0  0  0
 37 40  1  0  0  0  0
 38 47  1  0  0  0  0
 39 67  1  0  0  0  0
 40 42  1  0  0  0  0
 41 43  1  0  0  0  0
 41 44  1  0  0  0  0
 42 46  1  0  0  0  0
 43 48  1  0  0  0  0
 44 68  1  0  0  0  0
 45 48  1  0  0  0  0
 45 68  1  0  0  0  0
 46 71  1  0  0  0  0
 47 67  1  0  0  0  0
 48 66  1  0  0  0  0
 50 59  1  0  0  0  0
 51 61  1  0  0  0  0
 52 61  1  0  0  0  0
 53 61  1  0  0  0  0
 54 73  1  0  0  0  0
 55 56  1  0  0  0  0
 55 57  1  0  0  0  0
 56 80  1  0  0  0  0
 57 81  1  0  0  0  0
 58 61  1  0  0  0  0
 58 72  1  0  0  0  0
 59 73  1  0  0  0  0
 60 62  1  0  0  0  0
 60 84  1  0  0  0  0
 62 85  1  0  0  0  0
 62 86  1  0  0  0  0
 62 87  1  0  0  0  0
 64 66  1  0  0  0  0
M  CHG  1  73   1
M  ISO  4  35 100  56 101  60 100  80 101
M  END
> <Batch ID>
0068

> <Smiles>
CNC(C)C(=O)NC(C(=O)N1Cc2cc([101O:1][101CH2:1]CCOc3cnc([100C:0](F)([100C:0](=O)N4CCCC(n5nc(-c6ccc(Oc7ccc(F)cc7F)cc6)c(C(N)=O)c5N)C4)C(F)(F)F)nc3C)ccc2CC1C(=O)NC1CCCc2ccccc21)C(C)(C)C

> <Shape>
0.194

> <Color>
0.199

> <Negative vol penalty>
0.000

$$$$

  -OEChem-04052318143D

 85 93  0     1  0  0  0  0  0999 V2000
  -27.4752  -28.4199   30.0756 C   0  0  0  0  0  0  0  0  0  0  0  0
  -27.1826  -27.3464   29.2405 C   0  0  0  0  0  0  0  0  0  0  0  0
  -23.3106   -9.8227   19.8670 C   0  0  0  0  0  0  0  0  0  0  0  0
  -23.6831   -9.9286   22.2517 C   0  0  0  0  0  0  0  0  0  0  0  0
  -27.8693  -29.6401   29.5283 C   0  0  0  0  0  0  0  0  0  0  0  0
  -27.2829  -27.4929   27.8574 C   0  0  0  0  0  0  0  0  0  0  0  0
  -29.0522  -23.2382   23.8235 C   0  0  0  0  0  0  0  0  0  0  0  0
  -22.5557   -8.6621   20.0364 C   0  0  0  0  0  0  0  0  0  0  0  0
  -22.9283   -8.7680   22.4212 C   0  0  0  0  0  0  0  0  0  0  0  0
  -28.3358  -22.3821   22.9882 C   0  0  0  0  0  0  0  0  0  0  0  0
  -19.6592   -7.9168   22.5182 C   0  0  0  0  0  0  0  0  0  0  0  0
  -18.7210   -7.9006   23.5502 C   0  0  0  0  0  0  0  0  0  0  0  0
  -28.5918  -23.9494   21.1724 C   0  0  0  0  0  0  0  0  0  0  0  0
  -19.8578   -6.0200   24.5543 C   0  0  0  0  0  0  0  0  0  0  0  0
  -30.9276  -17.2432   20.0959 C   0  0  0  0  0  0  0  0  0  0  0  0
  -29.9835  -16.9281   22.2091 C   0  0  0  0  0  0  0  0  0  0  0  0
  -23.8743  -10.4560   20.9747 C   0  0  0  0  0  0  0  0  0  0  0  0
  -24.1876  -12.9826   20.8144 C   0  0  0  0  0  0  0  0  0  0  0  0
  -27.9839  -29.7988   28.1382 C   0  0  0  0  0  0  0  0  0  0  0  0
  -29.5352  -24.4633   23.3416 C   0  0  0  0  0  0  0  0  0  0  0  0
  -27.6777  -28.7168   27.2910 C   0  0  0  0  0  0  0  0  0  0  0  0
  -29.3162  -24.8181   22.0029 C   0  0  0  0  0  0  0  0  0  0  0  0
  -22.3646   -8.1347   21.3135 C   0  0  0  0  0  0  0  0  0  0  0  0
  -28.1030  -22.7390   21.6632 C   0  0  0  0  0  0  0  0  0  0  0  0
  -20.6967   -6.9845   22.5041 C   0  0  0  0  0  0  0  0  0  0  0  0
  -31.1017  -16.8427   21.4050 C   0  0  0  0  0  0  0  0  0  0  0  0
  -18.8203   -6.9523   24.5683 C   0  0  0  0  0  0  0  0  0  0  0  0
  -20.7960   -6.0361   23.5222 C   0  0  0  0  0  0  0  0  0  0  0  0
  -24.6546  -11.6546   20.8002 C   0  0  0  0  0  0  0  0  0  0  0  0
  -25.3115  -13.7441   20.6058 C   0  0  0  0  0  0  0  0  0  0  0  0
  -28.7412  -17.7301   20.4827 C   0  0  0  0  0  0  0  0  0  0  0  0
  -22.8569  -13.4831   20.9996 C   0  0  0  0  0  0  0  0  0  0  0  0
  -29.0292  -27.5161   24.0685 C   0  0  0  0  0  0  0  0  0  0  0  0
  -31.4111  -28.0171   21.9241 C   0  0  0  0  0  0  0  0  0  0  0  0
  -33.1656  -26.8834   19.2254 C   0  0  0  0  0  0  0  0  0  0  0  0
  -30.9438  -12.9411   21.7196 C   0  0  0  0  0  0  0  0  0  0  0  0
  -28.3680  -31.1508   27.5911 C   0  0  0  0  0  0  0  0  0  0  0  0
  -30.3292  -25.3635   24.2481 C   0  0  0  0  0  0  0  0  0  0  0  0
  -29.8310  -26.1130   21.4312 C   0  0  0  0  0  0  0  0  0  0  0  0
  -28.8115  -31.1134   26.1310 C   0  0  0  0  0  0  0  0  0  0  0  0
  -29.6057  -13.6057   18.5196 C   0  0  0  0  0  0  0  0  0  0  0  0
  -27.8398  -30.2825   25.2990 C   0  0  0  0  0  0  0  0  0  0  0  0
  -28.1252  -13.2993   18.7411 C   0  0  0  0  0  0  0  0  0  0  0  0
  -30.5132  -12.6074   19.2407 C   0  0  0  0  0  0  0  0  0  0  0  0
  -28.7388  -12.1605   20.9063 C   0  0  0  0  0  0  0  0  0  0  0  0
  -27.7988  -28.8293   25.7867 C   0  0  1  0  0  0  0  0  0  0  0  0
  -30.3314  -26.8193   23.7920 C   0  0  1  0  0  0  0  0  0  0  0  0
  -27.8056  -13.1843   20.2417 C   0  0  2  0  0  0  0  0  0  0  0  0
  -35.0288  -27.5305   17.6738 C   0  0  0  0  0  0  0  0  0  0  0  0
  -29.5369  -29.9446   20.4812 C   0  0  0  0  0  0  0  0  0  0  0  0
  -31.0495  -29.8152   18.4904 C   0  0  0  0  0  0  0  0  0  0  0  0
  -31.9073  -30.7240   20.6493 C   0  0  0  0  0  0  0  0  0  0  0  0
  -33.0274  -11.9576   20.6726 C   0  0  0  0  0  0  0  0  0  0  0  0
  -34.7997  -24.5499   20.0275 C   0  0  0  0  0  0  0  0  0  0  0  0
  -27.4156  -18.2283   19.9648 C   0  0  0  0  0  0  0  0  0  0  0  0
  -27.3515  -19.7480   19.7977 C   0  0  0  0  0  0  0  0  0  0  0  0
  -34.0108  -14.7283   21.6992 C   0  0  0  0  0  0  0  0  0  0  0  0
  -33.1854  -13.6795   22.4322 C   0  0  0  0  0  0  0  0  0  0  0  0
  -27.4960  -20.5066   21.1119 C   0  0  0  0  0  0  0  0  0  1  0  0
  -33.1532  -15.7333   20.9399 C   0  0  0  0  0  0  0  0  0  0  0  0
  -31.4771  -28.2420   20.4328 C   0  0  1  0  0  0  0  0  0  0  0  0
  -34.6572  -26.8015   18.9558 C   0  0  2  0  0  0  0  0  0  0  0  0
  -30.9812  -29.6579   20.0244 C   0  0  0  0  0  0  0  0  0  0  0  0
  -29.7569  -17.6939   19.5993 N   0  0  0  0  0  0  0  0  0  0  0  0
  -28.7830  -17.3690   21.7794 N   0  0  0  0  0  0  0  0  0  0  0  0
  -25.9725  -11.5736   20.5984 N   0  0  0  0  0  0  0  0  0  0  0  0
  -26.3432  -12.8603   20.4838 N   0  0  0  0  0  0  0  0  0  0  0  0
  -30.5963  -26.9622   22.3590 N   0  0  0  0  0  0  0  0  0  0  0  0
  -30.1438  -12.4929   20.6582 N   0  0  0  0  0  0  0  0  0  0  0  0
  -25.5081  -15.0767   20.5167 N   0  0  0  0  0  0  0  0  0  0  0  0
  -21.8191  -12.5630   21.2019 N   0  0  0  0  0  0  0  0  0  0  0  0
  -28.9603  -28.1054   25.3164 N   0  0  0  0  0  0  0  0  0  0  0  0
  -32.8512  -27.9530   20.0369 N   0  0  0  0  0  0  0  0  0  0  0  0
  -32.3338  -12.9156   21.5314 N   0  0  0  0  0  0  0  0  0  0  0  0
  -35.0832  -25.3791   18.8280 N   0  3  0  0  0  0  0  0  0  0  0  0
  -22.5932  -14.7091   20.9698 O   0  0  0  0  0  0  0  0  0  0  0  0
  -28.1525  -27.5202   23.2123 O   0  0  0  0  0  0  0  0  0  0  0  0
  -32.0641  -28.7460   22.6751 O   0  0  0  0  0  0  0  0  0  0  0  0
  -32.3594  -26.0812   18.7594 O   0  0  0  0  0  0  0  0  0  0  0  0
  -30.4448  -13.3353   22.7815 O   0  0  0  0  0  0  0  0  0  0  0  0
  -21.6278   -7.0023   21.4793 O   0  0  0  0  0  0  0  0  0  0  0  0
  -27.4035  -21.9055   20.8459 O   0  0  0  0  0  0  0  0  0  1  0  0
  -32.2889  -16.3963   21.8688 O   0  0  0  0  0  0  0  0  0  0  0  0
  -17.9202   -6.9379   25.5601 F   0  0  0  0  0  0  0  0  0  0  0  0
  -21.7912   -5.1387   23.5147 F   0  0  0  0  0  0  0  0  0  0  0  0
  1  2  1  0  0  0  0
  1  5  2  0  0  0  0
  2  6  2  0  0  0  0
  3  8  2  0  0  0  0
  3 17  1  0  0  0  0
  4  9  1  0  0  0  0
  4 17  2  0  0  0  0
  5 19  1  0  0  0  0
  6 21  1  0  0  0  0
  7 10  2  0  0  0  0
  7 20  1  0  0  0  0
  8 23  1  0  0  0  0
  9 23  2  0  0  0  0
 10 24  1  0  0  0  0
 11 12  2  0  0  0  0
 11 25  1  0  0  0  0
 12 27  1  0  0  0  0
 13 22  1  0  0  0  0
 13 24  2  0  0  0  0
 14 27  2  0  0  0  0
 14 28  1  0  0  0  0
 15 26  1  0  0  0  0
 15 64  2  0  0  0  0
 16 26  2  0  0  0  0
 16 65  1  0  0  0  0
 17 29  1  0  0  0  0
 18 29  1  0  0  0  0
 18 30  2  0  0  0  0
 18 32  1  0  0  0  0
 19 21  2  0  0  0  0
 19 37  1  0  0  0  0
 20 22  2  0  0  0  0
 20 38  1  0  0  0  0
 21 46  1  0  0  0  0
 22 39  1  0  0  0  0
 23 81  1  0  0  0  0
 24 82  1  0  0  0  0
 25 28  2  0  0  0  0
 25 81  1  0  0  0  0
 26 83  1  0  0  0  0
 27 84  1  0  0  0  0
 28 85  1  0  0  0  0
 29 66  2  0  0  0  0
 30 67  1  0  0  0  0
 30 70  1  0  0  0  0
 31 55  1  0  0  0  0
 31 64  1  0  0  0  0
 31 65  2  0  0  0  0
 32 71  1  0  0  0  0
 32 76  2  0  0  0  0
 33 47  1  0  0  0  0
 33 72  1  0  0  0  0
 33 77  2  0  0  0  0
 34 61  1  0  0  0  0
 34 68  1  0  0  0  0
 34 78  2  0  0  0  0
 35 62  1  0  0  0  0
 35 73  1  0  0  0  0
 35 79  2  0  0  0  0
 36 69  1  0  0  0  0
 36 74  1  0  0  0  0
 36 80  2  0  0  0  0
 37 40  1  0  0  0  0
 38 47  1  0  0  0  0
 39 68  1  0  0  0  0
 40 42  1  0  0  0  0
 41 43  1  0  0  0  0
 41 44  1  0  0  0  0
 42 46  1  0  0  0  0
 43 48  1  0  0  0  0
 44 69  1  0  0  0  0
 45 48  1  0  0  0  0
 45 69  1  0  0  0  0
 46 72  1  0  0  0  0
 47 68  1  0  0  0  0
 48 67  1  0  0  0  0
 49 62  1  0  0  0  0
 50 63  1  0  0  0  0
 51 63  1  0  0  0  0
 52 63  1  0  0  0  0
 53 74  1  0  0  0  0
 54 75  1  0  0  0  0
 55 56  1  0  0  0  0
 56 59  1  0  0  0  0
 57 58  1  0  0  0  0
 57 60  1  0  0  0  0
 58 74  1  0  0  0  0
 59 82  1  0  0  0  0
 60 83  1  0  0  0  0
 61 63  1  0  0  0  0
 61 73  1  0  0  0  0
 62 75  1  0  0  0  0
 66 67  1  0  0  0  0
M  CHG  1  75   1
M  ISO  4  36 100  59 101  74 100  82 101
M  END
> <Batch ID>
0068

> <Smiles>
CNC(C)C(=O)NC(C(=O)N1Cc2cc([101O:1][101CH2:1]CCc3ncc(OCCC[100N:0](C)[100C:0](=O)N4CCCC(n5nc(-c6ccc(Oc7ccc(F)cc7F)cc6)c(C(N)=O)c5N)C4)cn3)ccc2CC1C(=O)NC1CCCc2ccccc21)C(C)(C)C

> <Shape>
0.233

> <Color>
0.187

> <Negative vol penalty>
0.000

$$$$

  -OEChem-04052318143D

 86 94  0     1  0  0  0  0  0999 V2000
  -30.4767  -33.2906   24.8335 C   0  0  0  0  0  0  0  0  0  0  0  0
  -30.2427  -32.2843   23.9018 C   0  0  0  0  0  0  0  0  0  0  0  0
  -27.1102  -12.5464   21.3949 C   0  0  0  0  0  0  0  0  0  0  0  0
  -26.6671  -13.5655   19.2496 C   0  0  0  0  0  0  0  0  0  0  0  0
  -29.5482  -33.5319   25.8452 C   0  0  0  0  0  0  0  0  0  0  0  0
  -29.0805  -31.5179   23.9820 C   0  0  0  0  0  0  0  0  0  0  0  0
  -26.8565  -30.8841   19.4768 C   0  0  0  0  0  0  0  0  0  0  0  0
  -26.3626  -11.4304   21.0192 C   0  0  0  0  0  0  0  0  0  0  0  0
  -25.9195  -12.4494   18.8739 C   0  0  0  0  0  0  0  0  0  0  0  0
  -27.4137  -29.9364   18.6194 C   0  0  0  0  0  0  0  0  0  0  0  0
  -23.0990  -10.5822   20.7873 C   0  0  0  0  0  0  0  0  0  0  0  0
  -22.1915  -10.0690   21.7140 C   0  0  0  0  0  0  0  0  0  0  0  0
  -25.7101  -28.3566   19.2684 C   0  0  0  0  0  0  0  0  0  0  0  0
  -23.3609   -7.9550   21.6884 C   0  0  0  0  0  0  0  0  0  0  0  0
  -29.6340  -23.6107   19.9598 C   0  0  0  0  0  0  0  0  0  0  0  0
  -27.2624  -13.6140   20.5102 C   0  0  0  0  0  0  0  0  0  0  0  0
  -29.4144  -14.9695   20.7087 C   0  0  0  0  0  0  0  0  0  0  0  0
  -28.3695  -32.7744   25.9321 C   0  0  0  0  0  0  0  0  0  0  0  0
  -25.7265  -30.5710   20.2459 C   0  0  0  0  0  0  0  0  0  0  0  0
  -28.1361  -31.7484   24.9967 C   0  0  0  0  0  0  0  0  0  0  0  0
  -25.1391  -29.3029   20.1329 C   0  0  0  0  0  0  0  0  0  0  0  0
  -25.7673  -11.3819   19.7587 C   0  0  0  0  0  0  0  0  0  0  0  0
  -26.8422  -28.6714   18.5172 C   0  0  0  0  0  0  0  0  0  0  0  0
  -24.1373   -9.7817   20.3111 C   0  0  0  0  0  0  0  0  0  0  0  0
  -22.3225   -8.7554   22.1646 C   0  0  0  0  0  0  0  0  0  0  0  0
  -24.2683   -8.4682   20.7616 C   0  0  0  0  0  0  0  0  0  0  0  0
  -28.0341  -14.7674   20.8979 C   0  0  0  0  0  0  0  0  0  0  0  0
  -29.5701  -23.3393   21.3113 C   0  0  0  0  0  0  0  0  0  0  0  0
  -28.4203  -23.7993   19.3307 C   0  0  0  0  0  0  0  0  0  0  0  0
  -29.6567  -16.2097   21.2468 C   0  0  0  0  0  0  0  0  0  0  0  0
  -27.3004  -23.4599   21.2794 C   0  0  0  0  0  0  0  0  0  0  0  0
  -30.3902  -14.1128   20.1007 C   0  0  0  0  0  0  0  0  0  0  0  0
  -25.1078  -30.4062   23.3594 C   0  0  0  0  0  0  0  0  0  0  0  0
  -22.0705  -29.9121   22.3332 C   0  0  0  0  0  0  0  0  0  0  0  0
  -19.9890  -28.8698   19.8376 C   0  0  0  0  0  0  0  0  0  0  0  0
  -26.3986  -20.9463   21.9930 C   0  0  0  0  0  0  0  0  0  0  0  0
  -27.4179  -33.0407   27.0716 C   0  0  0  0  0  0  0  0  0  0  0  0
  -25.1217  -31.6133   21.1461 C   0  0  0  0  0  0  0  0  0  0  0  0
  -23.9134  -28.9236   20.9218 C   0  0  0  0  0  0  0  0  0  0  0  0
  -26.0333  -32.4324   26.8636 C   0  0  0  0  0  0  0  0  0  0  0  0
  -28.0655  -19.2277   24.5891 C   0  0  0  0  0  0  0  0  0  0  0  0
  -26.1508  -30.9888   26.3850 C   0  0  0  0  0  0  0  0  0  0  0  0
  -28.3773  -17.8918   23.9162 C   0  0  0  0  0  0  0  0  0  0  0  0
  -26.6774  -19.7500   24.2140 C   0  0  0  0  0  0  0  0  0  0  0  0
  -26.7561  -18.4975   22.0814 C   0  0  0  0  0  0  0  0  0  0  0  0
  -26.8754  -30.9121   25.0358 C   0  0  1  0  0  0  0  0  0  0  0  0
  -24.2761  -31.0167   22.2670 C   0  0  1  0  0  0  0  0  0  0  0  0
  -28.1686  -17.9803   22.3945 C   0  0  2  0  0  0  0  0  0  0  0  0
  -31.2528  -21.6543   22.0959 C   0  0  0  0  0  0  0  0  0  0  0  0
  -17.5578  -28.5461   19.3067 C   0  0  0  0  0  0  0  0  0  0  0  0
  -24.7259  -23.6184   21.1541 C   0  0  0  0  0  0  0  0  0  0  0  0
  -25.9610  -24.4284   23.1605 C   0  0  0  0  0  0  0  0  0  0  0  0
  -22.0338  -27.3899   24.0500 C   0  0  0  0  0  0  0  0  0  0  0  0
  -20.0184  -26.6332   22.7719 C   0  0  0  0  0  0  0  0  0  0  0  0
  -19.9235  -28.7301   24.1198 C   0  0  0  0  0  0  0  0  0  0  0  0
  -24.8132  -21.9903   23.6668 C   0  0  0  0  0  0  0  0  0  0  0  0
  -20.1024  -30.7988   17.5960 C   0  0  0  0  0  0  0  0  0  0  0  0
  -30.8314  -23.1211   22.0778 C   0  0  0  0  0  0  0  0  0  0  0  0
  -28.3883  -24.1028   17.8541 C   0  0  0  0  0  0  0  0  0  0  0  0
  -28.4449  -25.5974   17.5311 C   0  0  0  0  0  0  0  0  0  0  0  0
  -27.2406  -26.3736   18.0514 C   0  0  0  0  0  0  0  0  0  1  0  0
  -21.2496  -28.6991   21.9674 C   0  0  1  0  0  0  0  0  0  0  0  0
  -18.7432  -29.4962   19.2375 C   0  0  2  0  0  0  0  0  0  0  0  0
  -26.0042  -23.3799   22.0125 C   0  0  0  0  0  0  0  0  0  0  0  0
  -20.8306  -27.8693   23.2137 C   0  0  0  0  0  0  0  0  0  0  0  0
  -27.4412  -15.7967   21.5087 N   0  0  0  0  0  0  0  0  0  0  0  0
  -28.4161  -23.2563   22.0055 N   0  0  0  0  0  0  0  0  0  0  0  0
  -27.2300  -23.7307   19.9621 N   0  0  0  0  0  0  0  0  0  0  0  0
  -28.4538  -16.6575   21.7080 N   0  0  0  0  0  0  0  0  0  0  0  0
  -23.3627  -29.9750   21.7929 N   0  0  0  0  0  0  0  0  0  0  0  0
  -26.5034  -19.7735   22.7552 N   0  0  0  0  0  0  0  0  0  0  0  0
  -30.7793  -16.9500   21.3658 N   0  0  0  0  0  0  0  0  0  0  0  0
  -29.9710  -12.8730   19.5992 N   0  0  0  0  0  0  0  0  0  0  0  0
  -25.9832  -31.2901   23.9608 N   0  0  0  0  0  0  0  0  0  0  0  0
  -20.1294  -29.1891   21.1716 N   0  0  0  0  0  0  0  0  0  0  0  0
  -25.8229  -22.0656   22.6127 N   0  0  0  0  0  0  0  0  0  0  0  0
  -18.9784  -29.8511   17.8094 N   0  3  0  0  0  0  0  0  0  0  0  0
  -31.6011  -14.4302   20.0198 O   0  0  0  0  0  0  0  0  0  0  0  0
  -24.9646  -29.2212   23.6371 O   0  0  0  0  0  0  0  0  0  0  0  0
  -21.5805  -30.7755   23.0654 O   0  0  0  0  0  0  0  0  0  0  0  0
  -20.7585  -28.1645   19.1888 O   0  0  0  0  0  0  0  0  0  0  0  0
  -26.7903  -20.9901   20.8197 O   0  0  0  0  0  0  0  0  0  0  0  0
  -25.0379  -10.2929   19.3916 O   0  0  0  0  0  0  0  0  0  0  0  0
  -27.3844  -27.7443   17.6816 O   0  0  0  0  0  0  0  0  0  1  0  0
  -21.4519   -8.2632   23.0557 F   0  0  0  0  0  0  0  0  0  0  0  0
  -25.2645   -7.6948   20.3086 F   0  0  0  0  0  0  0  0  0  0  0  0
  1  2  1  0  0  0  0
  1  5  2  0  0  0  0
  2  6  2  0  0  0  0
  3  8  2  0  0  0  0
  3 16  1  0  0  0  0
  4  9  1  0  0  0  0
  4 16  2  0  0  0  0
  5 18  1  0  0  0  0
  6 20  1  0  0  0  0
  7 10  2  0  0  0  0
  7 19  1  0  0  0  0
  8 22  1  0  0  0  0
  9 22  2  0  0  0  0
 10 23  1  0  0  0  0
 11 12  2  0  0  0  0
 11 24  1  0  0  0  0
 12 25  1  0  0  0  0
 13 21  1  0  0  0  0
 13 23  2  0  0  0  0
 14 25  2  0  0  0  0
 14 26  1  0  0  0  0
 15 28  1  0  0  0  0
 15 29  2  0  0  0  0
 16 27  1  0  0  0  0
 17 27  1  0  0  0  0
 17 30  2  0  0  0  0
 17 32  1  0  0  0  0
 18 20  2  0  0  0  0
 18 37  1  0  0  0  0
 19 21  2  0  0  0  0
 19 38  1  0  0  0  0
 20 46  1  0  0  0  0
 21 39  1  0  0  0  0
 22 83  1  0  0  0  0
 23 84  1  0  0  0  0
 24 26  2  0  0  0  0
 24 83  1  0  0  0  0
 25 85  1  0  0  0  0
 26 86  1  0  0  0  0
 27 66  2  0  0  0  0
 28 58  1  0  0  0  0
 28 67  2  0  0  0  0
 29 59  1  0  0  0  0
 29 68  1  0  0  0  0
 30 69  1  0  0  0  0
 30 72  1  0  0  0  0
 31 64  1  0  0  0  0
 31 67  1  0  0  0  0
 31 68  2  0  0  0  0
 32 73  1  0  0  0  0
 32 78  2  0  0  0  0
 33 47  1  0  0  0  0
 33 74  1  0  0  0  0
 33 79  2  0  0  0  0
 34 62  1  0  0  0  0
 34 70  1  0  0  0  0
 34 80  2  0  0  0  0
 35 63  1  0  0  0  0
 35 75  1  0  0  0  0
 35 81  2  0  0  0  0
 36 71  1  0  0  0  0
 36 76  1  0  0  0  0
 36 82  2  0  0  0  0
 37 40  1  0  0  0  0
 38 47  1  0  0  0  0
 39 70  1  0  0  0  0
 40 42  1  0  0  0  0
 41 43  1  0  0  0  0
 41 44  1  0  0  0  0
 42 46  1  0  0  0  0
 43 48  1  0  0  0  0
 44 71  1  0  0  0  0
 45 48  1  0  0  0  0
 45 71  1  0  0  0  0
 46 74  1  0  0  0  0
 47 70  1  0  0  0  0
 48 69  1  0  0  0  0
 49 58  1  0  0  0  0
 50 63  1  0  0  0  0
 51 64  1  0  0  0  0
 52 64  1  0  0  0  0
 53 65  1  0  0  0  0
 54 65  1  0  0  0  0
 55 65  1  0  0  0  0
 56 76  1  0  0  0  0
 57 77  1  0  0  0  0
 59 60  1  0  0  0  0
 60 61  1  0  0  0  0
 61 84  1  0  0  0  0
 62 65  1  0  0  0  0
 62 75  1  0  0  0  0
 63 77  1  0  0  0  0
 64 76  1  0  0  0  0
 66 69  1  0  0  0  0
M  CHG  1  77   1
M  ISO  4  36 100  61 101  76 100  84 101
M  END
> <Batch ID>
0068

> <Smiles>
CCc1cc(CC[101CH2:1][101O:1]c2ccc3c(c2)CN(C(=O)C(NC(=O)C(C)NC)C(C)(C)C)C(C(=O)NC2CCCc4ccccc42)C3)nc(C(C)(C)[100N:0](C)[100C:0](=O)N2CCCC(n3nc(-c4ccc(Oc5ccc(F)cc5F)cc4)c(C(N)=O)c3N)C2)n1

> <Shape>
0.274

> <Color>
0.062

> <Negative vol penalty>
0.000

$$$$

  -OEChem-04052318142D

  0  0  0     0  0  0  0  0  0999 V2000
M  END
$$$$

  -OEChem-04052318142D

  0  0  0     0  0  0  0  0  0999 V2000
M  END
$$$$

  -OEChem-04052318143D

 89 97  0     1  0  0  0  0  0999 V2000
  -26.6316  -34.7388   24.9293 C   0  0  0  0  0  0  0  0  0  0  0  0
  -27.2200  -34.3466   23.7312 C   0  0  0  0  0  0  0  0  0  0  0  0
  -23.5517  -16.9736   23.1956 C   0  0  0  0  0  0  0  0  0  0  0  0
  -24.5557  -15.7055   24.9903 C   0  0  0  0  0  0  0  0  0  0  0  0
  -26.2631  -33.7787   25.8707 C   0  0  0  0  0  0  0  0  0  0  0  0
  -27.4411  -32.9940   23.4743 C   0  0  0  0  0  0  0  0  0  0  0  0
  -27.6114  -28.2926   18.0720 C   0  0  0  0  0  0  0  0  0  0  0  0
  -22.9651  -17.8291   24.1281 C   0  0  0  0  0  0  0  0  0  0  0  0
  -23.9692  -16.5611   25.9229 C   0  0  0  0  0  0  0  0  0  0  0  0
  -28.4402  -27.3178   17.5183 C   0  0  0  0  0  0  0  0  0  0  0  0
  -20.2959  -17.7994   26.2015 C   0  0  0  0  0  0  0  0  0  0  0  0
  -18.9558  -18.1385   26.0157 C   0  0  0  0  0  0  0  0  0  0  0  0
  -30.7021  -17.5171   21.7185 C   0  0  0  0  0  0  0  0  0  0  0  0
  -27.6902  -25.7425   19.1842 C   0  0  0  0  0  0  0  0  0  0  0  0
  -19.5671  -20.4709   25.8632 C   0  0  0  0  0  0  0  0  0  0  0  0
  -29.9802  -18.5862   22.1898 C   0  0  0  0  0  0  0  0  0  0  0  0
  -24.3469  -15.9118   23.6266 C   0  0  0  0  0  0  0  0  0  0  0  0
  -24.2930  -14.2264   21.7124 C   0  0  0  0  0  0  0  0  0  0  0  0
  -26.4709  -32.4130   25.6211 C   0  0  0  0  0  0  0  0  0  0  0  0
  -26.8226  -28.0023   19.1946 C   0  0  0  0  0  0  0  0  0  0  0  0
  -27.0762  -32.0148   24.4138 C   0  0  0  0  0  0  0  0  0  0  0  0
  -26.8503  -26.7146   19.7487 C   0  0  0  0  0  0  0  0  0  0  0  0
  -23.1739  -17.6229   25.4917 C   0  0  0  0  0  0  0  0  0  0  0  0
  -28.4818  -26.0433   18.0761 C   0  0  0  0  0  0  0  0  0  0  0  0
  -21.2717  -18.7960   26.2182 C   0  0  0  0  0  0  0  0  0  0  0  0
  -18.5913  -19.4742   25.8465 C   0  0  0  0  0  0  0  0  0  0  0  0
  -20.9073  -20.1318   26.0491 C   0  0  0  0  0  0  0  0  0  0  0  0
  -24.9526  -15.0273   22.6638 C   0  0  0  0  0  0  0  0  0  0  0  0
  -30.1390  -17.2402   20.4583 C   0  0  0  0  0  0  0  0  0  0  0  0
  -25.3056  -13.5803   21.0463 C   0  0  0  0  0  0  0  0  0  0  0  0
  -22.8904  -14.0796   21.4539 C   0  0  0  0  0  0  0  0  0  0  0  0
  -26.6629  -29.1080   22.1704 C   0  0  0  0  0  0  0  0  0  0  0  0
  -24.0726  -27.1628   22.3394 C   0  0  0  0  0  0  0  0  0  0  0  0
  -31.0922  -14.9732   20.2178 C   0  0  0  0  0  0  0  0  0  0  0  0
  -22.4263  -24.4203   21.1496 C   0  0  0  0  0  0  0  0  0  0  0  0
  -26.0992  -31.4150   26.6890 C   0  0  0  0  0  0  0  0  0  0  0  0
  -25.9138  -29.0571   19.7637 C   0  0  0  0  0  0  0  0  0  0  0  0
  -26.0077  -26.3463   20.9416 C   0  0  0  0  0  0  0  0  0  0  0  0
  -26.0254  -29.9776   26.1803 C   0  0  0  0  0  0  0  0  0  0  0  0
  -29.7620  -11.9685   21.6470 C   0  0  0  0  0  0  0  0  0  0  0  0
  -27.2451  -29.6510   25.3245 C   0  0  0  0  0  0  0  0  0  0  0  0
  -28.3268  -12.3481   22.0093 C   0  0  0  0  0  0  0  0  0  0  0  0
  -30.7156  -13.1437   21.8382 C   0  0  0  0  0  0  0  0  0  0  0  0
  -28.8808  -14.7591   21.4568 C   0  0  0  0  0  0  0  0  0  0  0  0
  -27.3098  -30.5556   24.0880 C   0  0  1  0  0  0  0  0  0  0  0  0
  -25.5400  -28.8011   21.2204 C   0  0  1  0  0  0  0  0  0  0  0  0
  -27.8797  -13.6090   21.2486 C   0  0  2  0  0  0  0  0  0  0  0  0
  -20.3507  -23.0574   21.5126 C   0  0  0  0  0  0  0  0  0  0  0  0
  -26.6092  -19.3866   21.2477 C   0  0  0  0  0  0  0  0  0  0  0  0
  -31.6411  -16.6768   18.5300 C   0  0  0  0  0  0  0  0  0  0  0  0
  -29.4003  -15.5793   18.6192 C   0  0  0  0  0  0  0  0  0  0  0  0
  -25.3339  -25.9064   24.8175 C   0  0  0  0  0  0  0  0  0  0  0  0
  -23.7442  -23.9883   24.5687 C   0  0  0  0  0  0  0  0  0  0  0  0
  -22.8675  -26.2870   24.9812 C   0  0  0  0  0  0  0  0  0  0  0  0
  -30.3709  -24.8776   20.6202 C   0  0  0  0  0  0  0  0  0  0  0  0
  -31.9828  -23.3594   19.4878 C   0  0  0  0  0  0  0  0  0  0  0  0
  -31.5232  -24.5112   16.9227 C   0  0  0  0  0  0  0  0  0  0  0  0
  -31.0408  -26.4604   18.4039 C   0  0  0  0  0  0  0  0  0  0  0  0
  -21.4428  -24.9768   18.4143 C   0  0  0  0  0  0  0  0  0  0  0  0
  -29.3609  -21.9737   20.3553 C   0  0  0  0  0  0  0  0  0  0  0  0
  -28.1859  -21.0104   20.1269 C   0  0  0  0  0  0  0  0  0  0  0  0
  -29.4883  -22.9696   19.1909 C   0  0  0  0  0  0  0  0  0  0  0  0
  -23.8422  -25.7198   22.7184 C   0  0  1  0  0  0  0  0  0  0  0  0
  -20.9779  -24.2114   20.7460 C   0  0  2  0  0  0  0  0  0  0  0  0
  -28.0235  -19.9793   21.2644 C   0  0  2  0  0  0  0  0  0  0  0  0
  -30.5348  -16.1835   19.5119 C   0  0  0  0  0  0  0  0  0  0  0  0
  -23.9644  -25.4826   24.2502 C   0  0  0  0  0  0  0  0  0  0  0  0
  -30.6056  -24.0529   19.3292 C   0  0  0  0  0  0  0  0  0  0  0  0
  -30.6273  -25.0173   18.0666 C   0  0  0  0  0  0  0  0  0  1  0  0
  -26.2814  -14.9029   22.6103 N   0  0  0  0  0  0  0  0  0  0  0  0
  -29.1364  -18.0667   20.1488 N   0  0  0  0  0  0  0  0  0  0  0  0
  -29.0639  -18.8734   21.2212 N   0  0  0  0  0  0  0  0  0  0  0  0
  -26.4650  -14.0162   21.6172 N   0  0  0  0  0  0  0  0  0  0  0  0
  -25.1401  -27.4140   21.4659 N   0  0  0  0  0  0  0  0  0  0  0  0
  -30.2443  -14.3282   21.1183 N   0  0  0  0  0  0  0  0  0  0  0  0
  -25.3084  -12.6873   20.0339 N   0  0  0  0  0  0  0  0  0  0  0  0
  -22.1833  -13.0881   22.1476 N   0  0  0  0  0  0  0  0  0  0  0  0
  -26.3718  -30.1046   23.0823 N   0  0  0  0  0  0  0  0  0  0  0  0
  -22.5460  -25.3526   22.1585 N   0  0  0  0  0  0  0  0  0  0  0  0
  -20.8840  -23.9138   19.2888 N   0  3  0  0  0  0  0  0  0  0  0  0
  -22.2856  -14.7953   20.6199 O   0  0  0  0  0  0  0  0  0  0  0  0
  -27.7150  -28.4857   22.0835 O   0  0  0  0  0  0  0  0  0  0  0  0
  -23.3282  -28.0341   22.7958 O   0  0  0  0  0  0  0  0  0  0  0  0
  -32.2461  -14.6116   19.9727 O   0  0  0  0  0  0  0  0  0  0  0  0
  -23.3580  -23.8142   20.6251 O   0  0  0  0  0  0  0  0  0  0  0  0
  -22.6019  -18.4576   26.4020 O   0  0  0  0  0  0  0  0  0  0  0  0
  -29.2917  -25.0887   17.5372 O   0  0  0  0  0  0  0  0  0  1  0  0
  -17.3045  -19.7996   25.6666 F   0  0  0  0  0  0  0  0  0  0  0  0
  -21.8404  -21.0935   26.0631 F   0  0  0  0  0  0  0  0  0  0  0  0
  1  2  1  0  0  0  0
  1  5  2  0  0  0  0
  2  6  2  0  0  0  0
  3  8  2  0  0  0  0
  3 17  1  0  0  0  0
  4  9  1  0  0  0  0
  4 17  2  0  0  0  0
  5 19  1  0  0  0  0
  6 21  1  0  0  0  0
  7 10  2  0  0  0  0
  7 20  1  0  0  0  0
  8 23  1  0  0  0  0
  9 23  2  0  0  0  0
 10 24  1  0  0  0  0
 11 12  2  0  0  0  0
 11 25  1  0  0  0  0
 12 26  1  0  0  0  0
 13 16  2  0  0  0  0
 13 29  1  0  0  0  0
 14 22  1  0  0  0  0
 14 24  2  0  0  0  0
 15 26  2  0  0  0  0
 15 27  1  0  0  0  0
 16 72  1  0  0  0  0
 17 28  1  0  0  0  0
 18 28  1  0  0  0  0
 18 30  2  0  0  0  0
 18 31  1  0  0  0  0
 19 21  2  0  0  0  0
 19 36  1  0  0  0  0
 20 22  2  0  0  0  0
 20 37  1  0  0  0  0
 21 45  1  0  0  0  0
 22 38  1  0  0  0  0
 23 86  1  0  0  0  0
 24 87  1  0  0  0  0
 25 27  2  0  0  0  0
 25 86  1  0  0  0  0
 26 88  1  0  0  0  0
 27 89  1  0  0  0  0
 28 70  2  0  0  0  0
 29 66  1  0  0  0  0
 29 71  2  0  0  0  0
 30 73  1  0  0  0  0
 30 76  1  0  0  0  0
 31 77  1  0  0  0  0
 31 81  2  0  0  0  0
 32 46  1  0  0  0  0
 32 78  1  0  0  0  0
 32 82  2  0  0  0  0
 33 63  1  0  0  0  0
 33 74  1  0  0  0  0
 33 83  2  0  0  0  0
 34 66  1  0  0  0  0
 34 75  1  0  0  0  0
 34 84  2  0  0  0  0
 35 64  1  0  0  0  0
 35 79  1  0  0  0  0
 35 85  2  0  0  0  0
 36 39  1  0  0  0  0
 37 46  1  0  0  0  0
 38 74  1  0  0  0  0
 39 41  1  0  0  0  0
 40 42  1  0  0  0  0
 40 43  1  0  0  0  0
 41 45  1  0  0  0  0
 42 47  1  0  0  0  0
 43 75  1  0  0  0  0
 44 47  1  0  0  0  0
 44 75  1  0  0  0  0
 45 78  1  0  0  0  0
 46 74  1  0  0  0  0
 47 73  1  0  0  0  0
 48 64  1  0  0  0  0
 49 65  1  0  0  0  0
 50 66  1  0  0  0  0
 51 66  1  0  0  0  0
 52 67  1  0  0  0  0
 53 67  1  0  0  0  0
 54 67  1  0  0  0  0
 55 68  1  0  0  0  0
 56 68  1  0  0  0  0
 57 69  1  0  0  0  0
 58 69  1  0  0  0  0
 59 80  1  0  0  0  0
 60 61  1  0  0  0  0
 60 62  1  0  0  0  0
 61 65  1  0  0  0  0
 62 68  1  0  0  0  0
 63 67  1  0  0  0  0
 63 79  1  0  0  0  0
 64 80  1  0  0  0  0
 65 72  1  0  0  0  0
 68 69  1  0  0  0  0
 69 87  1  0  0  0  0
 70 73  1  0  0  0  0
 71 72  1  0  0  0  0
M  CHG  1  80   1
M  ISO  4  34 100  66 100  69 101  87 101
M  END
> <Batch ID>
0068

> <Smiles>
CNC(C)C(=O)NC(C(=O)N1Cc2cc([101O:1][101C:1](C)(C)C(C)(C)CCCC(C)n3ccc([100C:0](C)(C)[100C:0](=O)N4CCCC(n5nc(-c6ccc(Oc7ccc(F)cc7F)cc6)c(C(N)=O)c5N)C4)n3)ccc2CC1C(=O)NC1CCCc2ccccc21)C(C)(C)C

> <Shape>
0.250

> <Color>
0.077

> <Negative vol penalty>
0.000

$$$$

  -OEChem-04052318143D

 86 94  0     1  0  0  0  0  0999 V2000
  -18.4208  -23.9129   22.7837 C   0  0  0  0  0  0  0  0  0  0  0  0
  -19.7993  -23.7258   22.7958 C   0  0  0  0  0  0  0  0  0  0  0  0
  -25.3756  -14.3108   21.6021 C   0  0  0  0  0  0  0  0  0  0  0  0
  -24.4591  -15.1111   19.5148 C   0  0  0  0  0  0  0  0  0  0  0  0
  -17.8939  -25.1987   22.6694 C   0  0  0  0  0  0  0  0  0  0  0  0
  -20.6518  -24.8244   22.6925 C   0  0  0  0  0  0  0  0  0  0  0  0
  -26.1042  -25.5199   25.3932 C   0  0  0  0  0  0  0  0  0  0  0  0
  -24.4203  -13.2949   21.6321 C   0  0  0  0  0  0  0  0  0  0  0  0
  -23.5038  -14.0952   19.5448 C   0  0  0  0  0  0  0  0  0  0  0  0
  -27.4081  -25.3370   24.9349 C   0  0  0  0  0  0  0  0  0  0  0  0
  -23.9391  -10.2842   20.1703 C   0  0  0  0  0  0  0  0  0  0  0  0
  -24.3701   -8.9985   20.4972 C   0  0  0  0  0  0  0  0  0  0  0  0
  -27.5574  -27.6927   24.4375 C   0  0  0  0  0  0  0  0  0  0  0  0
  -22.8820   -8.9836   22.4005 C   0  0  0  0  0  0  0  0  0  0  0  0
  -27.0452  -25.7620   19.9103 C   0  0  0  0  0  0  0  0  0  0  0  0
  -25.3950  -15.2190   20.5435 C   0  0  0  0  0  0  0  0  0  0  0  0
  -27.6615  -16.2156   19.9294 C   0  0  0  0  0  0  0  0  0  0  0  0
  -18.7405  -26.3145   22.5744 C   0  0  0  0  0  0  0  0  0  0  0  0
  -25.5122  -26.7909   25.3669 C   0  0  0  0  0  0  0  0  0  0  0  0
  -20.1358  -26.1262   22.5755 C   0  0  0  0  0  0  0  0  0  0  0  0
  -26.2467  -27.8896   24.8984 C   0  0  0  0  0  0  0  0  0  0  0  0
  -23.4844  -13.1871   20.6034 C   0  0  0  0  0  0  0  0  0  0  0  0
  -28.1339  -26.4229   24.4542 C   0  0  0  0  0  0  0  0  0  0  0  0
  -22.9796  -10.9196   20.9585 C   0  0  0  0  0  0  0  0  0  0  0  0
  -23.8416   -8.3482   21.6122 C   0  0  0  0  0  0  0  0  0  0  0  0
  -22.4511  -10.2693   22.0736 C   0  0  0  0  0  0  0  0  0  0  0  0
  -26.3812  -16.2689   20.5122 C   0  0  0  0  0  0  0  0  0  0  0  0
  -27.2098  -24.7727   18.9660 C   0  0  0  0  0  0  0  0  0  0  0  0
  -29.2678  -25.6331   20.4329 C   0  0  0  0  0  0  0  0  0  0  0  0
  -29.4323  -24.6433   19.4891 C   0  0  0  0  0  0  0  0  0  0  0  0
  -28.1995  -17.4566   20.1681 C   0  0  0  0  0  0  0  0  0  0  0  0
  -28.3068  -15.1404   19.2342 C   0  0  0  0  0  0  0  0  0  0  0  0
  -22.9869  -28.0596   23.9119 C   0  0  0  0  0  0  0  0  0  0  0  0
  -23.7249  -30.6419   25.7311 C   0  0  0  0  0  0  0  0  0  0  0  0
  -26.0905  -32.3768   27.4749 C   0  0  0  0  0  0  0  0  0  0  0  0
  -25.7621  -22.8351   21.1591 C   0  0  0  0  0  0  0  0  0  0  0  0
  -18.1245  -27.6808   22.4050 C   0  0  0  0  0  0  0  0  0  0  0  0
  -24.1141  -26.9764   25.8898 C   0  0  0  0  0  0  0  0  0  0  0  0
  -25.6641  -29.2782   24.8680 C   0  0  0  0  0  0  0  0  0  0  0  0
  -19.0971  -28.8254   22.6773 C   0  0  0  0  0  0  0  0  0  0  0  0
  -28.0151  -21.0809   23.2859 C   0  0  0  0  0  0  0  0  0  0  0  0
  -20.4266  -28.5753   21.9726 C   0  0  0  0  0  0  0  0  0  0  0  0
  -27.9674  -19.6440   22.7637 C   0  0  0  0  0  0  0  0  0  0  0  0
  -26.6479  -21.7563   23.2056 C   0  0  0  0  0  0  0  0  0  0  0  0
  -25.9684  -20.2823   21.3511 C   0  0  0  0  0  0  0  0  0  0  0  0
  -21.0932  -27.2951   22.4906 C   0  0  1  0  0  0  0  0  0  0  0  0
  -23.4305  -28.2236   25.3381 C   0  0  1  0  0  0  0  0  0  0  0  0
  -27.3361  -19.5782   21.3600 C   0  0  2  0  0  0  0  0  0  0  0  0
  -30.7877  -23.1845   17.9655 C   0  0  0  0  0  0  0  0  0  0  0  0
  -26.4035  -34.4704   28.8226 C   0  0  0  0  0  0  0  0  0  0  0  0
  -26.3717  -23.1723   17.1132 C   0  0  0  0  0  0  0  0  0  0  0  0
  -25.4716  -25.4769   17.2986 C   0  0  0  0  0  0  0  0  0  0  0  0
  -23.7420  -32.2896   23.1630 C   0  0  0  0  0  0  0  0  0  0  0  0
  -24.9609  -34.0879   24.4074 C   0  0  0  0  0  0  0  0  0  0  0  0
  -22.6660  -33.4172   25.1188 C   0  0  0  0  0  0  0  0  0  0  0  0
  -26.8459  -30.8461   29.8926 C   0  0  0  0  0  0  0  0  0  0  0  0
  -30.4242  -26.1252   21.2661 C   0  0  0  0  0  0  0  0  0  0  0  0
  -30.7612  -24.0128   19.2478 C   0  0  0  0  0  0  0  0  0  0  0  0
  -30.8208  -25.1704   22.3941 C   0  0  0  0  0  0  0  0  0  0  0  0
  -24.8695  -23.7679   19.0396 C   0  0  0  0  0  0  0  0  0  0  0  0
  -29.7248  -24.9780   23.4357 C   0  0  0  0  0  0  0  0  0  1  0  0
  -24.6055  -31.8557   25.5572 C   0  0  1  0  0  0  0  0  0  0  0  0
  -26.0716  -32.9869   28.8649 C   0  0  2  0  0  0  0  0  0  0  0  0
  -26.0536  -24.3032   18.1545 C   0  0  0  0  0  0  0  0  0  0  0  0
  -24.0042  -32.8862   24.5602 C   0  0  0  0  0  0  0  0  0  0  0  0
  -28.0712  -26.2100   20.6607 N   0  0  0  0  0  0  0  0  0  0  0  0
  -26.1214  -17.4503   21.0787 N   0  0  0  0  0  0  0  0  0  0  0  0
  -28.4063  -24.1956   18.7385 N   0  0  0  0  0  0  0  0  0  0  0  0
  -27.2459  -18.1507   20.8530 N   0  0  0  0  0  0  0  0  0  0  0  0
  -24.2914  -29.4072   25.3841 N   0  0  0  0  0  0  0  0  0  0  0  0
  -26.1052  -21.6602   21.8483 N   0  0  0  0  0  0  0  0  0  0  0  0
  -29.3904  -18.0109   19.8568 N   0  0  0  0  0  0  0  0  0  0  0  0
  -27.6117  -13.9335   19.0776 N   0  0  0  0  0  0  0  0  0  0  0  0
  -21.7165  -27.5338   23.7747 N   0  0  0  0  0  0  0  0  0  0  0  0
  -24.8390  -32.3858   26.8962 N   0  0  0  0  0  0  0  0  0  0  0  0
  -25.2608  -22.6550   19.8757 N   0  0  0  0  0  0  0  0  0  0  0  0
  -27.0664  -32.3075   29.7423 N   0  3  0  0  0  0  0  0  0  0  0  0
  -29.4719  -15.2412   18.7803 O   0  0  0  0  0  0  0  0  0  0  0  0
  -23.7410  -28.3873   23.0032 O   0  0  0  0  0  0  0  0  0  0  0  0
  -22.5791  -30.7833   26.1656 O   0  0  0  0  0  0  0  0  0  0  0  0
  -27.1138  -31.9396   26.9532 O   0  0  0  0  0  0  0  0  0  0  0  0
  -25.8977  -23.9614   21.6490 O   0  0  0  0  0  0  0  0  0  0  0  0
  -22.5522  -12.1957   20.6322 O   0  0  0  0  0  0  0  0  0  0  0  0
  -29.4066  -26.2470   24.0057 O   0  0  0  0  0  0  0  0  0  1  0  0
  -24.2544   -7.1129   21.9251 F   0  0  0  0  0  0  0  0  0  0  0  0
  -21.5282  -10.8742   22.8339 F   0  0  0  0  0  0  0  0  0  0  0  0
  1  2  1  0  0  0  0
  1  5  2  0  0  0  0
  2  6  2  0  0  0  0
  3  8  2  0  0  0  0
  3 16  1  0  0  0  0
  4  9  1  0  0  0  0
  4 16  2  0  0  0  0
  5 18  1  0  0  0  0
  6 20  1  0  0  0  0
  7 10  2  0  0  0  0
  7 19  1  0  0  0  0
  8 22  1  0  0  0  0
  9 22  2  0  0  0  0
 10 23  1  0  0  0  0
 11 12  2  0  0  0  0
 11 24  1  0  0  0  0
 12 25  1  0  0  0  0
 13 21  1  0  0  0  0
 13 23  2  0  0  0  0
 14 25  2  0  0  0  0
 14 26  1  0  0  0  0
 15 28  1  0  0  0  0
 15 66  2  0  0  0  0
 16 27  1  0  0  0  0
 17 27  1  0  0  0  0
 17 31  2  0  0  0  0
 17 32  1  0  0  0  0
 18 20  2  0  0  0  0
 18 37  1  0  0  0  0
 19 21  2  0  0  0  0
 19 38  1  0  0  0  0
 20 46  1  0  0  0  0
 21 39  1  0  0  0  0
 22 83  1  0  0  0  0
 23 84  1  0  0  0  0
 24 26  2  0  0  0  0
 24 83  1  0  0  0  0
 25 85  1  0  0  0  0
 26 86  1  0  0  0  0
 27 67  2  0  0  0  0
 28 64  1  0  0  0  0
 28 68  2  0  0  0  0
 29 30  2  0  0  0  0
 29 57  1  0  0  0  0
 29 66  1  0  0  0  0
 30 58  1  0  0  0  0
 30 68  1  0  0  0  0
 31 69  1  0  0  0  0
 31 72  1  0  0  0  0
 32 73  1  0  0  0  0
 32 78  2  0  0  0  0
 33 47  1  0  0  0  0
 33 74  1  0  0  0  0
 33 79  2  0  0  0  0
 34 62  1  0  0  0  0
 34 70  1  0  0  0  0
 34 80  2  0  0  0  0
 35 63  1  0  0  0  0
 35 75  1  0  0  0  0
 35 81  2  0  0  0  0
 36 71  1  0  0  0  0
 36 76  1  0  0  0  0
 36 82  2  0  0  0  0
 37 40  1  0  0  0  0
 38 47  1  0  0  0  0
 39 70  1  0  0  0  0
 40 42  1  0  0  0  0
 41 43  1  0  0  0  0
 41 44  1  0  0  0  0
 42 46  1  0  0  0  0
 43 48  1  0  0  0  0
 44 71  1  0  0  0  0
 45 48  1  0  0  0  0
 45 71  1  0  0  0  0
 46 74  1  0  0  0  0
 47 70  1  0  0  0  0
 48 69  1  0  0  0  0
 49 58  1  0  0  0  0
 50 63  1  0  0  0  0
 51 64  1  0  0  0  0
 52 64  1  0  0  0  0
 53 65  1  0  0  0  0
 54 65  1  0  0  0  0
 55 65  1  0  0  0  0
 56 77  1  0  0  0  0
 57 59  1  0  0  0  0
 59 61  1  0  0  0  0
 60 64  1  0  0  0  0
 60 76  1  0  0  0  0
 61 84  1  0  0  0  0
 62 65  1  0  0  0  0
 62 75  1  0  0  0  0
 63 77  1  0  0  0  0
 67 69  1  0  0  0  0
M  CHG  1  77   1
M  ISO  4  36 100  61 101  76 100  84 101
M  END
> <Batch ID>
0068

> <Smiles>
CCc1nc(C(C)(C)C[100NH:0][100C:0](=O)N2CCCC(n3nc(-c4ccc(Oc5ccc(F)cc5F)cc4)c(C(N)=O)c3N)C2)cnc1CC[101CH2:1][101O:1]c1ccc2c(c1)CN(C(=O)C(NC(=O)C(C)NC)C(C)(C)C)C(C(=O)NC1CCCc3ccccc31)C2

> <Shape>
0.223

> <Color>
0.062

> <Negative vol penalty>
0.000

$$$$

  -OEChem-04052318143D

 88 96  0     1  0  0  0  0  0999 V2000
  -21.6868  -12.9193   19.3955 C   0  0  0  0  0  0  0  0  0  0  0  0
  -21.7289  -14.1518   20.0395 C   0  0  0  0  0  0  0  0  0  0  0  0
  -25.1988  -25.7953   17.3406 C   0  0  0  0  0  0  0  0  0  0  0  0
  -27.5920  -25.7685   17.0105 C   0  0  0  0  0  0  0  0  0  0  0  0
  -22.8286  -12.1208   19.3456 C   0  0  0  0  0  0  0  0  0  0  0  0
  -22.9127  -14.5859   20.6349 C   0  0  0  0  0  0  0  0  0  0  0  0
  -23.9418  -19.4357   19.6026 C   0  0  0  0  0  0  0  0  0  0  0  0
  -25.0378  -24.9504   16.2425 C   0  0  0  0  0  0  0  0  0  0  0  0
  -27.4311  -24.9235   15.9124 C   0  0  0  0  0  0  0  0  0  0  0  0
  -23.2361  -20.4025   20.3175 C   0  0  0  0  0  0  0  0  0  0  0  0
  -26.8683  -21.6370   15.3619 C   0  0  0  0  0  0  0  0  0  0  0  0
  -27.7235  -20.5398   15.2596 C   0  0  0  0  0  0  0  0  0  0  0  0
  -25.1319  -20.6962   21.7799 C   0  0  0  0  0  0  0  0  0  0  0  0
  -28.5348  -21.3699   13.1406 C   0  0  0  0  0  0  0  0  0  0  0  0
  -26.4759  -26.2044   17.7245 C   0  0  0  0  0  0  0  0  0  0  0  0
  -26.1137  -28.3723   19.0194 C   0  0  0  0  0  0  0  0  0  0  0  0
  -24.0296  -12.5497   19.9323 C   0  0  0  0  0  0  0  0  0  0  0  0
  -25.2461  -19.0835   19.9783 C   0  0  0  0  0  0  0  0  0  0  0  0
  -24.0713  -13.7918   20.5940 C   0  0  0  0  0  0  0  0  0  0  0  0
  -25.8530  -19.7265   21.0666 C   0  0  0  0  0  0  0  0  0  0  0  0
  -26.1539  -24.5144   15.5284 C   0  0  0  0  0  0  0  0  0  0  0  0
  -23.8301  -21.0308   21.4081 C   0  0  0  0  0  0  0  0  0  0  0  0
  -26.8463  -22.6006   14.3536 C   0  0  0  0  0  0  0  0  0  0  0  0
  -28.5567  -20.4063   14.1490 C   0  0  0  0  0  0  0  0  0  0  0  0
  -27.6795  -22.4670   13.2430 C   0  0  0  0  0  0  0  0  0  0  0  0
  -26.6428  -27.0777   18.8584 C   0  0  0  0  0  0  0  0  0  0  0  0
  -26.5564  -28.7727   20.2564 C   0  0  0  0  0  0  0  0  0  0  0  0
  -23.7023  -27.0752   23.7440 C   0  0  0  0  0  0  0  0  0  0  0  0
  -21.9875  -28.2638   23.1478 C   0  0  0  0  0  0  0  0  0  0  0  0
  -25.2952  -29.1439   18.1304 C   0  0  0  0  0  0  0  0  0  0  0  0
  -26.6484  -16.4118   20.9777 C   0  0  0  0  0  0  0  0  0  0  0  0
  -29.3445  -18.1998   20.7398 C   0  0  0  0  0  0  0  0  0  0  0  0
  -28.2591  -25.6635   25.1088 C   0  0  0  0  0  0  0  0  0  0  0  0
  -30.7719  -21.2995   20.7097 C   0  0  0  0  0  0  0  0  0  0  0  0
  -25.2251  -11.6309   19.8937 C   0  0  0  0  0  0  0  0  0  0  0  0
  -26.0036  -18.0579   19.1804 C   0  0  0  0  0  0  0  0  0  0  0  0
  -27.2583  -19.3990   21.4981 C   0  0  0  0  0  0  0  0  0  0  0  0
  -26.5413  -12.3297   20.2246 C   0  0  0  0  0  0  0  0  0  0  0  0
  -30.1488  -28.1422   23.3411 C   0  0  0  0  0  0  0  0  0  0  0  0
  -26.3837  -13.2061   21.4632 C   0  0  0  0  0  0  0  0  0  0  0  0
  -29.4328  -28.2472   21.9952 C   0  0  0  0  0  0  0  0  0  0  0  0
  -30.1272  -26.7134   23.8751 C   0  0  0  0  0  0  0  0  0  0  0  0
  -28.0395  -26.2298   22.6385 C   0  0  0  0  0  0  0  0  0  0  0  0
  -25.3435  -14.3084   21.2303 C   0  0  1  0  0  0  0  0  0  0  0  0
  -27.1388  -17.4087   19.9662 C   0  0  1  0  0  0  0  0  0  0  0  0
  -28.0115  -27.6628   22.0781 C   0  0  2  0  0  0  0  0  0  0  0  0
  -33.0004  -22.4404   20.5377 C   0  0  0  0  0  0  0  0  0  0  0  0
  -20.4553  -30.1521   22.4901 C   0  0  0  0  0  0  0  0  0  0  0  0
  -19.5756  -28.2434   23.8754 C   0  0  0  0  0  0  0  0  0  0  0  0
  -20.0624  -27.9244   21.4583 C   0  0  0  0  0  0  0  0  0  0  0  0
  -26.5074  -24.6263   26.4820 C   0  0  0  0  0  0  0  0  0  0  0  0
  -26.7585  -23.9849   24.0763 C   0  0  0  0  0  0  0  0  0  0  0  0
  -29.9555  -17.4369   23.6303 C   0  0  0  0  0  0  0  0  0  0  0  0
  -31.6151  -19.3102   23.7006 C   0  0  0  0  0  0  0  0  0  0  0  0
  -31.9377  -17.4196   22.1055 C   0  0  0  0  0  0  0  0  0  0  0  0
  -29.9848  -22.7179   18.2343 C   0  0  0  0  0  0  0  0  0  0  0  0
  -24.5198  -25.9073   24.1178 C   0  0  0  0  0  0  0  0  0  0  0  0
  -25.8900  -26.3061   24.7197 C   0  0  0  0  0  0  0  0  0  0  0  0
  -22.0613  -24.6428   22.4985 C   0  0  0  0  0  0  0  0  0  0  0  0
  -21.2356  -23.3570   22.5650 C   0  0  0  0  0  0  0  0  0  0  0  0
  -21.5247  -25.7485   23.4147 C   0  0  0  0  0  0  0  0  0  0  0  0
  -21.8181  -22.2715   21.6699 C   0  0  0  0  0  0  0  0  0  1  0  0
  -30.1090  -19.1103   21.6701 C   0  0  1  0  0  0  0  0  0  0  0  0
  -31.7870  -21.9319   19.7748 C   0  0  2  0  0  0  0  0  0  0  0  0
  -20.6103  -28.6165   22.7596 C   0  0  0  0  0  0  0  0  0  0  0  0
  -26.8440  -25.1434   25.0752 C   0  0  0  0  0  0  0  0  0  0  0  0
  -30.8771  -18.3242   22.7700 C   0  0  0  0  0  0  0  0  0  0  0  0
  -27.3664  -26.6820   19.9090 N   0  0  0  0  0  0  0  0  0  0  0  0
  -24.1003  -28.3240   23.6524 N   0  0  0  0  0  0  0  0  0  0  0  0
  -23.0093  -29.0802   23.2731 N   0  0  0  0  0  0  0  0  0  0  0  0
  -27.2953  -27.7342   20.7420 N   0  0  0  0  0  0  0  0  0  0  0  0
  -22.3786  -26.9913   23.4349 N   0  0  0  0  0  0  0  0  0  0  0  0
  -27.9556  -18.3850   20.6900 N   0  0  0  0  0  0  0  0  0  0  0  0
  -28.7620  -26.1866   23.9174 N   0  0  0  0  0  0  0  0  0  0  0  0
  -26.3819  -29.9083   20.9652 N   0  0  0  0  0  0  0  0  0  0  0  0
  -25.9251  -29.9810   17.1994 N   0  0  0  0  0  0  0  0  0  0  0  0
  -25.9093  -15.3776   20.4359 N   0  0  0  0  0  0  0  0  0  0  0  0
  -30.9603  -19.9382   20.8226 N   0  0  0  0  0  0  0  0  0  0  0  0
  -31.1756  -23.0790   19.0459 N   0  3  0  0  0  0  0  0  0  0  0  0
  -24.0420  -29.1049   18.1716 O   0  0  0  0  0  0  0  0  0  0  0  0
  -26.9218  -16.5683   22.1620 O   0  0  0  0  0  0  0  0  0  0  0  0
  -29.9579  -17.3601   20.0763 O   0  0  0  0  0  0  0  0  0  0  0  0
  -28.8958  -25.6084   26.1641 O   0  0  0  0  0  0  0  0  0  0  0  0
  -29.9015  -21.9487   21.2854 O   0  0  0  0  0  0  0  0  0  0  0  0
  -25.9973  -23.6897   14.4571 O   0  0  0  0  0  0  0  0  0  0  0  0
  -23.1432  -21.9743   22.1081 O   0  0  0  0  0  0  0  0  0  1  0  0
  -29.3790  -19.3534   14.0516 F   0  0  0  0  0  0  0  0  0  0  0  0
  -27.6637  -23.3901   12.2717 F   0  0  0  0  0  0  0  0  0  0  0  0
  1  2  1  0  0  0  0
  1  5  2  0  0  0  0
  2  6  2  0  0  0  0
  3  8  2  0  0  0  0
  3 15  1  0  0  0  0
  4  9  1  0  0  0  0
  4 15  2  0  0  0  0
  5 17  1  0  0  0  0
  6 19  1  0  0  0  0
  7 10  2  0  0  0  0
  7 18  1  0  0  0  0
  8 21  1  0  0  0  0
  9 21  2  0  0  0  0
 10 22  1  0  0  0  0
 11 12  2  0  0  0  0
 11 23  1  0  0  0  0
 12 24  1  0  0  0  0
 13 20  1  0  0  0  0
 13 22  2  0  0  0  0
 14 24  2  0  0  0  0
 14 25  1  0  0  0  0
 15 26  1  0  0  0  0
 16 26  1  0  0  0  0
 16 27  2  0  0  0  0
 16 30  1  0  0  0  0
 17 19  2  0  0  0  0
 17 35  1  0  0  0  0
 18 20  2  0  0  0  0
 18 36  1  0  0  0  0
 19 44  1  0  0  0  0
 20 37  1  0  0  0  0
 21 85  1  0  0  0  0
 22 86  1  0  0  0  0
 23 25  2  0  0  0  0
 23 85  1  0  0  0  0
 24 87  1  0  0  0  0
 25 88  1  0  0  0  0
 26 68  2  0  0  0  0
 27 71  1  0  0  0  0
 27 75  1  0  0  0  0
 28 57  1  0  0  0  0
 28 69  2  0  0  0  0
 28 72  1  0  0  0  0
 29 65  1  0  0  0  0
 29 70  2  0  0  0  0
 29 72  1  0  0  0  0
 30 76  1  0  0  0  0
 30 80  2  0  0  0  0
 31 45  1  0  0  0  0
 31 77  1  0  0  0  0
 31 81  2  0  0  0  0
 32 63  1  0  0  0  0
 32 73  1  0  0  0  0
 32 82  2  0  0  0  0
 33 66  1  0  0  0  0
 33 74  1  0  0  0  0
 33 83  2  0  0  0  0
 34 64  1  0  0  0  0
 34 78  1  0  0  0  0
 34 84  2  0  0  0  0
 35 38  1  0  0  0  0
 36 45  1  0  0  0  0
 37 73  1  0  0  0  0
 38 40  1  0  0  0  0
 39 41  1  0  0  0  0
 39 42  1  0  0  0  0
 40 44  1  0  0  0  0
 41 46  1  0  0  0  0
 42 74  1  0  0  0  0
 43 46  1  0  0  0  0
 43 74  1  0  0  0  0
 44 77  1  0  0  0  0
 45 73  1  0  0  0  0
 46 71  1  0  0  0  0
 47 64  1  0  0  0  0
 48 65  1  0  0  0  0
 49 65  1  0  0  0  0
 50 65  1  0  0  0  0
 51 66  1  0  0  0  0
 52 66  1  0  0  0  0
 53 67  1  0  0  0  0
 54 67  1  0  0  0  0
 55 67  1  0  0  0  0
 56 79  1  0  0  0  0
 57 58  1  0  0  0  0
 58 66  1  0  0  0  0
 59 60  1  0  0  0  0
 59 61  1  0  0  0  0
 60 62  1  0  0  0  0
 61 72  1  0  0  0  0
 62 86  1  0  0  0  0
 63 67  1  0  0  0  0
 63 78  1  0  0  0  0
 64 79  1  0  0  0  0
 68 71  1  0  0  0  0
 69 70  1  0  0  0  0
M  CHG  1  79   1
M  ISO  4  33 100  62 101  66 100  86 101
M  END
> <Batch ID>
0068

> <Smiles>
CNC(C)C(=O)NC(C(=O)N1Cc2cc([101O:1][101CH2:1]CCCn3c(CC[100C:0](C)(C)[100C:0](=O)N4CCCC(n5nc(-c6ccc(Oc7ccc(F)cc7F)cc6)c(C(N)=O)c5N)C4)nnc3C(C)(C)C)ccc2CC1C(=O)NC1CCCc2ccccc21)C(C)(C)C

> <Shape>
0.172

> <Color>
0.082

> <Negative vol penalty>
0.000

$$$$

  -OEChem-04052318143D

 88 96  0     1  0  0  0  0  0999 V2000
  -23.4317  -14.2499   15.7735 C   0  0  0  0  0  0  0  0  0  0  0  0
  -23.0865  -15.5269   16.2041 C   0  0  0  0  0  0  0  0  0  0  0  0
  -30.8245  -27.7061   19.2096 C   0  0  0  0  0  0  0  0  0  0  0  0
  -30.3714  -27.4704   21.5710 C   0  0  0  0  0  0  0  0  0  0  0  0
  -24.3543  -13.4968   16.4984 C   0  0  0  0  0  0  0  0  0  0  0  0
  -23.6629  -16.0512   17.3605 C   0  0  0  0  0  0  0  0  0  0  0  0
  -25.1325  -21.9022   18.4147 C   0  0  0  0  0  0  0  0  0  0  0  0
  -32.1918  -27.7684   19.4781 C   0  0  0  0  0  0  0  0  0  0  0  0
  -31.7387  -27.5326   21.8395 C   0  0  0  0  0  0  0  0  0  0  0  0
  -24.4809  -22.9233   19.1051 C   0  0  0  0  0  0  0  0  0  0  0  0
  -35.0859  -27.9906   23.1799 C   0  0  0  0  0  0  0  0  0  0  0  0
  -35.5030  -28.8010   24.2357 C   0  0  0  0  0  0  0  0  0  0  0  0
  -25.7966  -22.4292   21.0657 C   0  0  0  0  0  0  0  0  0  0  0  0
  -34.5427  -30.7266   23.1371 C   0  0  0  0  0  0  0  0  0  0  0  0
  -20.1135  -28.3237   21.5106 C   0  0  0  0  0  0  0  0  0  0  0  0
  -29.9142  -27.5571   20.2560 C   0  0  0  0  0  0  0  0  0  0  0  0
  -27.8335  -26.5444   19.1825 C   0  0  0  0  0  0  0  0  0  0  0  0
  -24.9496  -14.0158   17.6589 C   0  0  0  0  0  0  0  0  0  0  0  0
  -26.1150  -21.1285   19.0491 C   0  0  0  0  0  0  0  0  0  0  0  0
  -24.5934  -15.3037   18.1023 C   0  0  0  0  0  0  0  0  0  0  0  0
  -26.4610  -21.4005   20.3804 C   0  0  0  0  0  0  0  0  0  0  0  0
  -32.6489  -27.6816   20.7931 C   0  0  0  0  0  0  0  0  0  0  0  0
  -24.8108  -23.1850   20.4316 C   0  0  0  0  0  0  0  0  0  0  0  0
  -34.3972  -28.5481   22.1026 C   0  0  0  0  0  0  0  0  0  0  0  0
  -35.2314  -30.1690   24.2144 C   0  0  0  0  0  0  0  0  0  0  0  0
  -34.1256  -29.9161   22.0812 C   0  0  0  0  0  0  0  0  0  0  0  0
  -28.5016  -27.4933   19.9793 C   0  0  0  0  0  0  0  0  0  0  0  0
  -20.0774  -28.5927   22.8497 C   0  0  0  0  0  0  0  0  0  0  0  0
  -26.5130  -26.9181   19.2381 C   0  0  0  0  0  0  0  0  0  0  0  0
  -20.1710  -26.3955   22.5966 C   0  0  0  0  0  0  0  0  0  0  0  0
  -28.3594  -25.4250   18.4571 C   0  0  0  0  0  0  0  0  0  0  0  0
  -26.4290  -18.0470   19.7630 C   0  0  0  0  0  0  0  0  0  0  0  0
  -29.3942  -18.9673   20.7025 C   0  0  0  0  0  0  0  0  0  0  0  0
  -31.4441  -21.4737   21.7808 C   0  0  0  0  0  0  0  0  0  0  0  0
  -23.3230  -29.7422   23.1695 C   0  0  0  0  0  0  0  0  0  0  0  0
  -25.9062  -13.1458   18.4354 C   0  0  0  0  0  0  0  0  0  0  0  0
  -26.8275  -20.0482   18.2824 C   0  0  0  0  0  0  0  0  0  0  0  0
  -27.5231  -20.6122   21.1007 C   0  0  0  0  0  0  0  0  0  0  0  0
  -26.7528  -13.9198   19.4427 C   0  0  0  0  0  0  0  0  0  0  0  0
  -23.7162  -30.7477   19.8070 C   0  0  0  0  0  0  0  0  0  0  0  0
  -25.8809  -14.8775   20.2486 C   0  0  0  0  0  0  0  0  0  0  0  0
  -24.9400  -29.9338   19.3890 C   0  0  0  0  0  0  0  0  0  0  0  0
  -23.8476  -31.2931   21.2302 C   0  0  0  0  0  0  0  0  0  0  0  0
  -25.3800  -29.4432   21.8236 C   0  0  0  0  0  0  0  0  0  0  0  0
  -25.2157  -15.9167   19.3381 C   0  0  1  0  0  0  0  0  0  0  0  0
  -27.4490  -18.9862   19.1842 C   0  0  1  0  0  0  0  0  0  0  0  0
  -25.2473  -28.8335   20.4195 C   0  0  2  0  0  0  0  0  0  0  0  0
  -18.7294  -26.7529   25.4394 C   0  0  0  0  0  0  0  0  0  0  0  0
  -18.9794  -24.2068   22.3200 C   0  0  0  0  0  0  0  0  0  0  0  0
  -33.8068  -21.9127   22.5034 C   0  0  0  0  0  0  0  0  0  0  0  0
  -18.7582  -30.0914   24.4960 C   0  0  0  0  0  0  0  0  0  0  0  0
  -19.9458  -31.0814   22.5556 C   0  0  0  0  0  0  0  0  0  0  0  0
  -28.8122  -17.6548   23.3948 C   0  0  0  0  0  0  0  0  0  0  0  0
  -30.7492  -18.9200   24.3517 C   0  0  0  0  0  0  0  0  0  0  0  0
  -31.1235  -17.2656   22.5225 C   0  0  0  0  0  0  0  0  0  0  0  0
  -22.6436  -32.0917   23.8199 C   0  0  0  0  0  0  0  0  0  0  0  0
  -31.8835  -23.3985   19.5761 C   0  0  0  0  0  0  0  0  0  0  0  0
  -22.7856  -24.7569   22.9995 C   0  0  0  0  0  0  0  0  0  0  0  0
  -21.5051  -24.2299   22.3358 C   0  0  0  0  0  0  0  0  0  0  0  0
  -20.0938  -27.1920   24.9362 C   0  0  0  0  0  0  0  0  0  0  0  0
  -21.2719  -30.1490   24.4756 C   0  0  0  0  0  0  0  0  0  0  0  0
  -24.0279  -24.0163   22.5177 C   0  0  0  0  0  0  0  0  0  1  0  0
  -20.2262  -24.9039   22.8782 C   0  0  1  0  0  0  0  0  0  0  0  0
  -30.0001  -19.4675   21.9916 C   0  0  1  0  0  0  0  0  0  0  0  0
  -32.8312  -21.9018   21.3368 C   0  0  2  0  0  0  0  0  0  0  0  0
  -20.0123  -29.8750   23.5615 C   0  0  0  0  0  0  0  0  0  0  0  0
  -30.1498  -18.3407   23.0525 C   0  0  0  0  0  0  0  0  0  0  0  0
  -27.6739  -28.4017   20.5025 N   0  0  0  0  0  0  0  0  0  0  0  0
  -20.1137  -27.3816   23.4978 N   0  0  0  0  0  0  0  0  0  0  0  0
  -26.4721  -28.0253   20.0335 N   0  0  0  0  0  0  0  0  0  0  0  0
  -20.1714  -26.9568   21.3832 N   0  3  0  0  0  0  0  0  0  0  0  0
  -28.1867  -19.5622   20.3103 N   0  0  0  0  0  0  0  0  0  0  0  0
  -24.1877  -30.2191   22.1734 N   0  0  0  0  0  0  0  0  0  0  0  0
  -25.3944  -26.4044   18.6837 N   0  0  0  0  0  0  0  0  0  0  0  0
  -28.4432  -24.1867   19.1081 N   0  0  0  0  0  0  0  0  0  0  0  0
  -26.1633  -16.9468   18.9703 N   0  0  0  0  0  0  0  0  0  0  0  0
  -31.2551  -20.1164   21.6280 N   0  0  0  0  0  0  0  0  0  0  0  0
  -22.4056  -30.6535   23.7138 N   0  0  0  0  0  0  0  0  0  0  0  0
  -32.7873  -23.2701   20.7480 N   0  3  0  0  0  0  0  0  0  0  0  0
  -28.7590  -25.5240   17.2722 O   0  0  0  0  0  0  0  0  0  0  0  0
  -25.9216  -18.3010   20.8492 O   0  0  0  0  0  0  0  0  0  0  0  0
  -29.9747  -18.0863   20.0633 O   0  0  0  0  0  0  0  0  0  0  0  0
  -30.6128  -22.2637   22.2228 O   0  0  0  0  0  0  0  0  0  0  0  0
  -23.3721  -28.5681   23.5583 O   0  0  0  0  0  0  0  0  0  0  0  0
  -33.9831  -27.7421   21.0555 O   0  0  0  0  0  0  0  0  0  0  0  0
  -24.1759  -24.1806   21.1080 O   0  0  0  0  0  0  0  0  0  1  0  0
  -35.6306  -30.9469   25.2291 F   0  0  0  0  0  0  0  0  0  0  0  0
  -33.4633  -30.4573   21.0495 F   0  0  0  0  0  0  0  0  0  0  0  0
  1  2  1  0  0  0  0
  1  5  2  0  0  0  0
  2  6  2  0  0  0  0
  3  8  2  0  0  0  0
  3 16  1  0  0  0  0
  4  9  1  0  0  0  0
  4 16  2  0  0  0  0
  5 18  1  0  0  0  0
  6 20  1  0  0  0  0
  7 10  2  0  0  0  0
  7 19  1  0  0  0  0
  8 22  1  0  0  0  0
  9 22  2  0  0  0  0
 10 23  1  0  0  0  0
 11 12  2  0  0  0  0
 11 24  1  0  0  0  0
 12 25  1  0  0  0  0
 13 21  1  0  0  0  0
 13 23  2  0  0  0  0
 14 25  2  0  0  0  0
 14 26  1  0  0  0  0
 15 28  2  0  0  0  0
 15 71  1  0  0  0  0
 16 27  1  0  0  0  0
 17 27  1  0  0  0  0
 17 29  2  0  0  0  0
 17 31  1  0  0  0  0
 18 20  2  0  0  0  0
 18 36  1  0  0  0  0
 19 21  2  0  0  0  0
 19 37  1  0  0  0  0
 20 45  1  0  0  0  0
 21 38  1  0  0  0  0
 22 85  1  0  0  0  0
 23 86  1  0  0  0  0
 24 26  2  0  0  0  0
 24 85  1  0  0  0  0
 25 87  1  0  0  0  0
 26 88  1  0  0  0  0
 27 68  2  0  0  0  0
 28 66  1  0  0  0  0
 28 69  1  0  0  0  0
 29 70  1  0  0  0  0
 29 74  1  0  0  0  0
 30 63  1  0  0  0  0
 30 69  1  0  0  0  0
 30 71  2  0  0  0  0
 31 75  1  0  0  0  0
 31 80  2  0  0  0  0
 32 46  1  0  0  0  0
 32 76  1  0  0  0  0
 32 81  2  0  0  0  0
 33 64  1  0  0  0  0
 33 72  1  0  0  0  0
 33 82  2  0  0  0  0
 34 65  1  0  0  0  0
 34 77  1  0  0  0  0
 34 83  2  0  0  0  0
 35 73  1  0  0  0  0
 35 78  1  0  0  0  0
 35 84  2  0  0  0  0
 36 39  1  0  0  0  0
 37 46  1  0  0  0  0
 38 72  1  0  0  0  0
 39 41  1  0  0  0  0
 40 42  1  0  0  0  0
 40 43  1  0  0  0  0
 41 45  1  0  0  0  0
 42 47  1  0  0  0  0
 43 73  1  0  0  0  0
 44 47  1  0  0  0  0
 44 73  1  0  0  0  0
 45 76  1  0  0  0  0
 46 72  1  0  0  0  0
 47 70  1  0  0  0  0
 48 60  1  0  0  0  0
 49 63  1  0  0  0  0
 50 65  1  0  0  0  0
 51 66  1  0  0  0  0
 52 66  1  0  0  0  0
 53 67  1  0  0  0  0
 54 67  1  0  0  0  0
 55 67  1  0  0  0  0
 56 78  1  0  0  0  0
 57 79  1  0  0  0  0
 58 59  1  0  0  0  0
 58 62  1  0  0  0  0
 59 63  1  0  0  0  0
 60 69  1  0  0  0  0
 61 66  1  0  0  0  0
 61 78  1  0  0  0  0
 62 86  1  0  0  0  0
 64 67  1  0  0  0  0
 64 77  1  0  0  0  0
 65 79  1  0  0  0  0
 68 70  1  0  0  0  0
M  CHG  2  71   1  79   1
M  ISO  4  35 100  62 101  78 100  86 101
M  END
> <Batch ID>
0068

> <Smiles>
CCn1c(C(C)(C)C[100N:0](C)[100C:0](=O)N2CCCC(n3nc(-c4ccc(Oc5ccc(F)cc5F)cc4)c(C(N)=O)c3N)C2)cnc1C(C)CC[101CH2:1][101O:1]c1ccc2c(c1)CN(C(=O)C(NC(=O)C(C)NC)C(C)(C)C)C(C(=O)NC1CCCc3ccccc31)C2

> <Shape>
0.213

> <Color>
0.059

> <Negative vol penalty>
0.000

$$$$

  -OEChem-04052318143D

 92100  0     1  0  0  0  0  0999 V2000
  -33.8247   -9.8755   17.6621 C   0  0  0  0  0  0  0  0  0  0  0  0
  -33.6496  -11.2102   18.0133 C   0  0  0  0  0  0  0  0  0  0  0  0
  -19.9699  -28.9196   22.8683 C   0  0  0  0  0  0  0  0  0  0  0  0
  -20.2277  -26.5427   22.5202 C   0  0  0  0  0  0  0  0  0  0  0  0
  -32.7420   -9.1305   17.1965 C   0  0  0  0  0  0  0  0  0  0  0  0
  -32.3918  -11.8011   17.8980 C   0  0  0  0  0  0  0  0  0  0  0  0
  -29.9852  -16.0805   21.5586 C   0  0  0  0  0  0  0  0  0  0  0  0
  -18.5831  -28.7738   22.8366 C   0  0  0  0  0  0  0  0  0  0  0  0
  -18.8408  -26.3969   22.4886 C   0  0  0  0  0  0  0  0  0  0  0  0
  -29.8852  -17.4662   21.4422 C   0  0  0  0  0  0  0  0  0  0  0  0
  -16.3022  -26.2487   24.7143 C   0  0  0  0  0  0  0  0  0  0  0  0
  -15.7462  -25.1946   25.4391 C   0  0  0  0  0  0  0  0  0  0  0  0
  -27.6531  -17.2250   20.5598 C   0  0  0  0  0  0  0  0  0  0  0  0
  -14.8099  -24.2893   23.4042 C   0  0  0  0  0  0  0  0  0  0  0  0
  -31.2367  -24.4715   17.5544 C   0  0  0  0  0  0  0  0  0  0  0  0
  -20.7923  -27.8040   22.7100 C   0  0  0  0  0  0  0  0  0  0  0  0
  -23.0625  -27.8793   23.8710 C   0  0  0  0  0  0  0  0  0  0  0  0
  -31.4682   -9.7099   17.0846 C   0  0  0  0  0  0  0  0  0  0  0  0
  -28.9222  -15.2546   21.1656 C   0  0  0  0  0  0  0  0  0  0  0  0
  -31.2914  -11.0635   17.4292 C   0  0  0  0  0  0  0  0  0  0  0  0
  -27.7411  -15.8292   20.6746 C   0  0  0  0  0  0  0  0  0  0  0  0
  -18.0185  -27.5125   22.6468 C   0  0  0  0  0  0  0  0  0  0  0  0
  -28.7202  -18.0385   20.9400 C   0  0  0  0  0  0  0  0  0  0  0  0
  -16.1120  -26.3232   23.3345 C   0  0  0  0  0  0  0  0  0  0  0  0
  -15.0001  -24.2149   24.7841 C   0  0  0  0  0  0  0  0  0  0  0  0
  -15.3659  -25.3435   22.6794 C   0  0  0  0  0  0  0  0  0  0  0  0
  -22.2250  -27.9540   22.7419 C   0  0  0  0  0  0  0  0  0  0  0  0
  -31.6148  -24.8028   18.8693 C   0  0  0  0  0  0  0  0  0  0  0  0
  -30.2462  -25.3714   17.2450 C   0  0  0  0  0  0  0  0  0  0  0  0
  -24.3263  -28.0880   23.3753 C   0  0  0  0  0  0  0  0  0  0  0  0
  -22.7281  -27.6422   25.2449 C   0  0  0  0  0  0  0  0  0  0  0  0
  -28.5385  -12.9806   18.9781 C   0  0  0  0  0  0  0  0  0  0  0  0
  -28.1786  -26.9593   19.6118 C   0  0  0  0  0  0  0  0  0  0  0  0
  -25.6430  -12.6430   20.4011 C   0  0  0  0  0  0  0  0  0  0  0  0
  -23.1527  -14.0405   22.2698 C   0  0  0  0  0  0  0  0  0  0  0  0
  -30.3384   -8.8779   16.5316 C   0  0  0  0  0  0  0  0  0  0  0  0
  -29.0356  -13.7630   21.3226 C   0  0  0  0  0  0  0  0  0  0  0  0
  -26.5636  -14.9877   20.2579 C   0  0  0  0  0  0  0  0  0  0  0  0
  -28.9578   -9.4743   16.7937 C   0  0  0  0  0  0  0  0  0  0  0  0
  -25.8740  -29.6630   18.8333 C   0  0  0  0  0  0  0  0  0  0  0  0
  -28.9471  -10.9626   16.4596 C   0  0  0  0  0  0  0  0  0  0  0  0
  -24.7694  -29.4290   19.8629 C   0  0  0  0  0  0  0  0  0  0  0  0
  -26.4697  -28.3468   18.3404 C   0  0  0  0  0  0  0  0  0  0  0  0
  -25.8731  -27.2315   20.4674 C   0  0  0  0  0  0  0  0  0  0  0  0
  -29.9371  -11.7332   17.3415 C   0  0  1  0  0  0  0  0  0  0  0  0
  -28.0859  -12.9923   20.4108 C   0  0  1  0  0  0  0  0  0  0  0  0
  -25.2668  -28.5354   21.0125 C   0  0  2  0  0  0  0  0  0  0  0  0
  -29.8809  -28.5770   18.7991 C   0  0  0  0  0  0  0  0  0  0  0  0
  -20.8945  -13.5313   23.2387 C   0  0  0  0  0  0  0  0  0  0  0  0
  -34.0611  -24.2252   19.0360 C   0  0  0  0  0  0  0  0  0  0  0  0
  -32.3295  -22.6338   19.9332 C   0  0  0  0  0  0  0  0  0  0  0  0
  -32.8444  -24.7451   21.1410 C   0  0  0  0  0  0  0  0  0  0  0  0
  -29.8905  -24.4670   14.9584 C   0  0  0  0  0  0  0  0  0  0  0  0
  -29.6534  -26.9040   15.2532 C   0  0  0  0  0  0  0  0  0  0  0  0
  -24.3874  -12.9683   17.6393 C   0  0  0  0  0  0  0  0  0  0  0  0
  -22.1935  -13.4026   18.7645 C   0  0  0  0  0  0  0  0  0  0  0  0
  -23.3328  -11.2037   19.0634 C   0  0  0  0  0  0  0  0  0  0  0  0
  -25.8354  -24.1651   17.0909 C   0  0  0  0  0  0  0  0  0  0  0  0
  -27.1812  -22.9580   15.3932 C   0  0  0  0  0  0  0  0  0  0  0  0
  -24.1177  -14.4559   25.0366 C   0  0  0  0  0  0  0  0  0  0  0  0
  -27.4907  -21.8367   18.1918 C   0  0  0  0  0  0  0  0  0  0  0  0
  -28.3264  -21.2499   19.3309 C   0  0  0  0  0  0  0  0  0  0  0  0
  -28.0651  -23.1806   17.7249 C   0  0  0  0  0  0  0  0  0  0  0  0
  -27.8715  -25.3131   16.1939 C   0  0  0  0  0  0  0  0  0  0  0  0
  -27.7942  -19.8958   19.7785 C   0  0  0  0  0  0  0  0  0  1  0  0
  -29.1731  -27.2540   18.5173 C   0  0  1  0  0  0  0  0  0  0  0  0
  -24.2767  -13.2537   20.2029 C   0  0  1  0  0  0  0  0  0  0  0  0
  -22.3956  -13.5297   23.4824 C   0  0  2  0  0  0  0  0  0  0  0  0
  -32.6428  -24.1513   19.6984 C   0  0  0  0  0  0  0  0  0  0  0  0
  -29.4087  -25.5557   15.9619 C   0  0  0  0  0  0  0  0  0  0  0  0
  -23.5704  -12.7231   18.9235 C   0  0  0  0  0  0  0  0  0  0  0  0
  -27.2844  -23.9163   16.5938 C   0  0  0  0  0  0  0  0  0  0  0  0
  -22.8998  -28.1918   21.6141 N   0  0  0  0  0  0  0  0  0  0  0  0
  -30.9212  -25.8327   19.3614 N   0  0  0  0  0  0  0  0  0  0  0  0
  -30.0973  -26.1565   18.3503 N   0  0  0  0  0  0  0  0  0  0  0  0
  -24.1748  -28.2684   22.0319 N   0  0  0  0  0  0  0  0  0  0  0  0
  -26.7255  -13.5339   20.4244 N   0  0  0  0  0  0  0  0  0  0  0  0
  -26.9062  -27.5128   19.4665 N   0  0  0  0  0  0  0  0  0  0  0  0
  -25.5414  -28.1332   23.9619 N   0  0  0  0  0  0  0  0  0  0  0  0
  -21.3813  -27.4478   25.5807 N   0  0  0  0  0  0  0  0  0  0  0  0
  -29.3850  -11.9346   18.6640 N   0  0  0  0  0  0  0  0  0  0  0  0
  -23.5382  -13.0110   21.4375 N   0  0  0  0  0  0  0  0  0  0  0  0
  -22.6800  -14.3855   24.6689 N   0  3  0  0  0  0  0  0  0  0  0  0
  -23.5959  -27.6203   26.1503 O   0  0  0  0  0  0  0  0  0  0  0  0
  -28.1473  -13.8550   18.2138 O   0  0  0  0  0  0  0  0  0  0  0  0
  -28.5248  -26.2603   20.5676 O   0  0  0  0  0  0  0  0  0  0  0  0
  -25.7454  -11.4213   20.5375 O   0  0  0  0  0  0  0  0  0  0  0  0
  -23.3762  -15.2337   22.0781 O   0  0  0  0  0  0  0  0  0  0  0  0
  -16.6653  -27.3699   22.6162 O   0  0  0  0  0  0  0  0  0  0  0  0
  -28.6195  -19.4007   20.8239 O   0  0  0  0  0  0  0  0  0  1  0  0
  -14.4675  -23.2019   25.4800 F   0  0  0  0  0  0  0  0  0  0  0  0
  -15.1807  -25.4090   21.3538 F   0  0  0  0  0  0  0  0  0  0  0  0
  1  2  1  0  0  0  0
  1  5  2  0  0  0  0
  2  6  2  0  0  0  0
  3  8  2  0  0  0  0
  3 16  1  0  0  0  0
  4  9  1  0  0  0  0
  4 16  2  0  0  0  0
  5 18  1  0  0  0  0
  6 20  1  0  0  0  0
  7 10  2  0  0  0  0
  7 19  1  0  0  0  0
  8 22  1  0  0  0  0
  9 22  2  0  0  0  0
 10 23  1  0  0  0  0
 11 12  2  0  0  0  0
 11 24  1  0  0  0  0
 12 25  1  0  0  0  0
 13 21  1  0  0  0  0
 13 23  2  0  0  0  0
 14 25  2  0  0  0  0
 14 26  1  0  0  0  0
 15 28  1  0  0  0  0
 15 29  2  0  0  0  0
 16 27  1  0  0  0  0
 17 27  1  0  0  0  0
 17 30  2  0  0  0  0
 17 31  1  0  0  0  0
 18 20  2  0  0  0  0
 18 36  1  0  0  0  0
 19 21  2  0  0  0  0
 19 37  1  0  0  0  0
 20 45  1  0  0  0  0
 21 38  1  0  0  0  0
 22 89  1  0  0  0  0
 23 90  1  0  0  0  0
 24 26  2  0  0  0  0
 24 89  1  0  0  0  0
 25 91  1  0  0  0  0
 26 92  1  0  0  0  0
 27 73  2  0  0  0  0
 28 69  1  0  0  0  0
 28 74  2  0  0  0  0
 29 70  1  0  0  0  0
 29 75  1  0  0  0  0
 30 76  1  0  0  0  0
 30 79  1  0  0  0  0
 31 80  1  0  0  0  0
 31 84  2  0  0  0  0
 32 46  1  0  0  0  0
 32 81  1  0  0  0  0
 32 85  2  0  0  0  0
 33 66  1  0  0  0  0
 33 78  1  0  0  0  0
 33 86  2  0  0  0  0
 34 67  1  0  0  0  0
 34 77  1  0  0  0  0
 34 87  2  0  0  0  0
 35 68  1  0  0  0  0
 35 82  1  0  0  0  0
 35 88  2  0  0  0  0
 36 39  1  0  0  0  0
 37 46  1  0  0  0  0
 38 77  1  0  0  0  0
 39 41  1  0  0  0  0
 40 42  1  0  0  0  0
 40 43  1  0  0  0  0
 41 45  1  0  0  0  0
 42 47  1  0  0  0  0
 43 78  1  0  0  0  0
 44 47  1  0  0  0  0
 44 78  1  0  0  0  0
 45 81  1  0  0  0  0
 46 77  1  0  0  0  0
 47 76  1  0  0  0  0
 48 66  1  0  0  0  0
 49 68  1  0  0  0  0
 50 69  1  0  0  0  0
 51 69  1  0  0  0  0
 52 69  1  0  0  0  0
 53 70  1  0  0  0  0
 54 70  1  0  0  0  0
 55 71  1  0  0  0  0
 56 71  1  0  0  0  0
 57 71  1  0  0  0  0
 58 72  1  0  0  0  0
 59 72  1  0  0  0  0
 60 83  1  0  0  0  0
 61 62  1  0  0  0  0
 61 63  1  0  0  0  0
 62 65  1  0  0  0  0
 63 72  1  0  0  0  0
 64 70  1  0  0  0  0
 64 72  1  0  0  0  0
 65 90  1  0  0  0  0
 66 75  1  0  0  0  0
 67 71  1  0  0  0  0
 67 82  1  0  0  0  0
 68 83  1  0  0  0  0
 73 76  1  0  0  0  0
 74 75  1  0  0  0  0
M  CHG  1  83   1
M  ISO  4  33 100  65 101  66 100  90 101
M  END
> <Batch ID>
0068

> <Smiles>
CNC(C)C(=O)NC(C(=O)N1Cc2cc([101O:1][101CH2:1]CCCC(C)(C)CC(C)(C)c3cc(C(C)(C)C)nn3[100CH:0](C)[100C:0](=O)N3CCCC(n4nc(-c5ccc(Oc6ccc(F)cc6F)cc5)c(C(N)=O)c4N)C3)ccc2CC1C(=O)NC1CCCc2ccccc21)C(C)(C)C

> <Shape>
0.257

> <Color>
0.077

> <Negative vol penalty>
0.000

$$$$

  -OEChem-04052318143D

 85 93  0     1  0  0  0  0  0999 V2000
  -27.4095  -31.7440   26.8227 C   0  0  0  0  0  0  0  0  0  0  0  0
  -27.0395  -30.4754   27.2577 C   0  0  0  0  0  0  0  0  0  0  0  0
  -23.1952   -9.8821   21.4216 C   0  0  0  0  0  0  0  0  0  0  0  0
  -23.9543  -10.7569   23.5419 C   0  0  0  0  0  0  0  0  0  0  0  0
  -26.9193  -32.2356   25.6136 C   0  0  0  0  0  0  0  0  0  0  0  0
  -26.1780  -29.6981   26.4844 C   0  0  0  0  0  0  0  0  0  0  0  0
  -26.2768  -23.6068   25.8588 C   0  0  0  0  0  0  0  0  0  0  0  0
  -22.5085   -8.8663   22.0866 C   0  0  0  0  0  0  0  0  0  0  0  0
  -23.2675   -9.7411   24.2069 C   0  0  0  0  0  0  0  0  0  0  0  0
  -25.5396  -22.5897   26.4636 C   0  0  0  0  0  0  0  0  0  0  0  0
  -20.8499   -5.8310   23.2089 C   0  0  0  0  0  0  0  0  0  0  0  0
  -20.9631   -4.5341   22.7082 C   0  0  0  0  0  0  0  0  0  0  0  0
  -24.0277  -22.5761   24.5839 C   0  0  0  0  0  0  0  0  0  0  0  0
  -23.3534   -4.6103   23.0513 C   0  0  0  0  0  0  0  0  0  0  0  0
  -26.9246  -18.4633   24.1218 C   0  0  0  0  0  0  0  0  0  0  0  0
  -23.9182  -10.8274   22.1493 C   0  0  0  0  0  0  0  0  0  0  0  0
  -24.1367  -13.1487   21.1144 C   0  0  0  0  0  0  0  0  0  0  0  0
  -26.0590  -31.4601   24.8204 C   0  0  0  0  0  0  0  0  0  0  0  0
  -25.8881  -24.1246   24.6149 C   0  0  0  0  0  0  0  0  0  0  0  0
  -25.6747  -30.1803   25.2642 C   0  0  0  0  0  0  0  0  0  0  0  0
  -24.7632  -23.5979   23.9643 C   0  0  0  0  0  0  0  0  0  0  0  0
  -22.5446   -8.7958   23.4792 C   0  0  0  0  0  0  0  0  0  0  0  0
  -24.4132  -22.0761   25.8275 C   0  0  0  0  0  0  0  0  0  0  0  0
  -21.9885   -6.5177   23.6308 C   0  0  0  0  0  0  0  0  0  0  0  0
  -22.2149   -3.9237   22.6295 C   0  0  0  0  0  0  0  0  0  0  0  0
  -23.2402   -5.9073   23.5520 C   0  0  0  0  0  0  0  0  0  0  0  0
  -24.6284  -11.8765   21.4630 C   0  0  0  0  0  0  0  0  0  0  0  0
  -26.6940  -17.3535   23.3391 C   0  0  0  0  0  0  0  0  0  0  0  0
  -24.9097  -16.7953   24.6562 C   0  0  0  0  0  0  0  0  0  0  0  0
  -25.1409  -17.9048   25.4393 C   0  0  0  0  0  0  0  0  0  0  0  0
  -25.1909  -13.7635   20.4843 C   0  0  0  0  0  0  0  0  0  0  0  0
  -22.8426  -13.7234   21.3400 C   0  0  0  0  0  0  0  0  0  0  0  0
  -24.9645  -26.9782   23.5627 C   0  0  0  0  0  0  0  0  0  0  0  0
  -25.0764  -25.5152   20.6697 C   0  0  0  0  0  0  0  0  0  0  0  0
  -24.9559  -22.6077   18.8869 C   0  0  0  0  0  0  0  0  0  0  0  0
  -31.0794  -13.7472   21.1241 C   0  0  0  0  0  0  0  0  0  0  0  0
  -25.5172  -32.0529   23.5438 C   0  0  0  0  0  0  0  0  0  0  0  0
  -26.7094  -25.2032   23.9635 C   0  0  0  0  0  0  0  0  0  0  0  0
  -24.3155  -24.1053   22.6187 C   0  0  0  0  0  0  0  0  0  0  0  0
  -24.9065  -31.0176   22.6027 C   0  0  0  0  0  0  0  0  0  0  0  0
  -29.3136  -12.2236   18.2498 C   0  0  0  0  0  0  0  0  0  0  0  0
  -23.9862  -30.0747   23.3712 C   0  0  0  0  0  0  0  0  0  0  0  0
  -27.8972  -12.0355   18.7906 C   0  0  0  0  0  0  0  0  0  0  0  0
  -30.3564  -12.1771   19.3624 C   0  0  0  0  0  0  0  0  0  0  0  0
  -28.6828  -12.9496   21.0105 C   0  0  0  0  0  0  0  0  0  0  0  0
  -24.7619  -29.2972   24.4413 C   0  0  1  0  0  0  0  0  0  0  0  0
  -25.9261  -26.0105   22.9329 C   0  0  1  0  0  0  0  0  0  0  0  0
  -27.6039  -13.0377   19.9206 C   0  0  2  0  0  0  0  0  0  0  0  0
  -23.7868  -15.8592   24.9469 C   0  0  0  0  0  0  0  0  0  0  0  0
  -25.0370  -21.7336   16.5359 C   0  0  0  0  0  0  0  0  0  0  0  0
  -22.2057  -26.4494   20.2261 C   0  0  0  0  0  0  0  0  0  0  0  0
  -22.0280  -24.7900   18.3597 C   0  0  0  0  0  0  0  0  0  0  0  0
  -23.6885  -26.6464   18.2218 C   0  0  0  0  0  0  0  0  0  0  0  0
  -31.8824  -15.7357   22.3410 C   0  0  0  0  0  0  0  0  0  0  0  0
  -27.3900  -21.0171   19.4387 C   0  0  0  0  0  0  0  0  0  0  0  0
  -27.5686  -17.0578   22.1714 C   0  0  0  0  0  0  0  0  0  0  0  0
  -24.2689  -18.2241   26.6273 C   0  0  0  0  0  0  0  0  0  0  0  0
  -28.7908  -16.1733   22.4938 C   0  0  0  0  0  0  0  0  0  0  0  0
  -22.9109  -18.8210   26.2517 C   0  0  0  0  0  0  0  0  0  0  0  0
  -29.6563  -15.8335   21.2824 C   0  0  0  0  0  0  0  0  0  0  0  0
  -23.0174  -20.1705   25.5511 C   0  0  0  0  0  0  0  0  0  1  0  0
  -24.0956  -24.7361   19.8270 C   0  0  1  0  0  0  0  0  0  0  0  0
  -25.8442  -22.0666   17.7811 C   0  0  2  0  0  0  0  0  0  0  0  0
  -23.0115  -25.6470   19.1849 C   0  0  0  0  0  0  0  0  0  0  0  0
  -26.1522  -18.7588   25.1860 N   0  0  0  0  0  0  0  0  0  0  0  0
  -25.8963  -11.6926   21.0855 N   0  0  0  0  0  0  0  0  0  0  0  0
  -25.6824  -16.4996   23.5922 N   0  0  0  0  0  0  0  0  0  0  0  0
  -26.2102  -12.8573   20.4931 N   0  0  0  0  0  0  0  0  0  0  0  0
  -25.1478  -25.1649   22.0254 N   0  0  0  0  0  0  0  0  0  0  0  0
  -30.0303  -13.1080   20.4433 N   0  0  0  0  0  0  0  0  0  0  0  0
  -25.3363  -14.9853   19.9290 N   0  0  0  0  0  0  0  0  0  0  0  0
  -21.8763  -12.9543   22.0025 N   0  0  0  0  0  0  0  0  0  0  0  0
  -25.5119  -28.2170   23.8371 N   0  0  0  0  0  0  0  0  0  0  0  0
  -24.8923  -23.9848   18.8631 N   0  0  0  0  0  0  0  0  0  0  0  0
  -30.8225  -15.0276   21.6372 N   0  0  0  0  0  0  0  0  0  0  0  0
  -26.5404  -20.8295   18.2345 N   0  3  0  0  0  0  0  0  0  0  0  0
  -22.5467  -14.8786   20.9508 O   0  0  0  0  0  0  0  0  0  0  0  0
  -23.8110  -26.6275   23.7820 O   0  0  0  0  0  0  0  0  0  0  0  0
  -25.7592  -26.3971   20.1429 O   0  0  0  0  0  0  0  0  0  0  0  0
  -24.3736  -21.8811   19.6891 O   0  0  0  0  0  0  0  0  0  0  0  0
  -32.1857  -13.2083   21.2570 O   0  0  0  0  0  0  0  0  0  0  0  0
  -21.8743   -7.8049   24.1284 O   0  0  0  0  0  0  0  0  0  0  0  0
  -23.6915  -21.0838   26.4159 O   0  0  0  0  0  0  0  0  0  1  0  0
  -22.3232   -2.6777   22.1501 F   0  0  0  0  0  0  0  0  0  0  0  0
  -24.3375   -6.5615   23.9569 F   0  0  0  0  0  0  0  0  0  0  0  0
  1  2  1  0  0  0  0
  1  5  2  0  0  0  0
  2  6  2  0  0  0  0
  3  8  2  0  0  0  0
  3 16  1  0  0  0  0
  4  9  1  0  0  0  0
  4 16  2  0  0  0  0
  5 18  1  0  0  0  0
  6 20  1  0  0  0  0
  7 10  2  0  0  0  0
  7 19  1  0  0  0  0
  8 22  1  0  0  0  0
  9 22  2  0  0  0  0
 10 23  1  0  0  0  0
 11 12  2  0  0  0  0
 11 24  1  0  0  0  0
 12 25  1  0  0  0  0
 13 21  1  0  0  0  0
 13 23  2  0  0  0  0
 14 25  2  0  0  0  0
 14 26  1  0  0  0  0
 15 28  1  0  0  0  0
 15 65  2  0  0  0  0
 16 27  1  0  0  0  0
 17 27  1  0  0  0  0
 17 31  2  0  0  0  0
 17 32  1  0  0  0  0
 18 20  2  0  0  0  0
 18 37  1  0  0  0  0
 19 21  2  0  0  0  0
 19 38  1  0  0  0  0
 20 46  1  0  0  0  0
 21 39  1  0  0  0  0
 22 82  1  0  0  0  0
 23 83  1  0  0  0  0
 24 26  2  0  0  0  0
 24 82  1  0  0  0  0
 25 84  1  0  0  0  0
 26 85  1  0  0  0  0
 27 66  2  0  0  0  0
 28 56  1  0  0  0  0
 28 67  2  0  0  0  0
 29 30  2  0  0  0  0
 29 49  1  0  0  0  0
 29 67  1  0  0  0  0
 30 57  1  0  0  0  0
 30 65  1  0  0  0  0
 31 68  1  0  0  0  0
 31 71  1  0  0  0  0
 32 72  1  0  0  0  0
 32 77  2  0  0  0  0
 33 47  1  0  0  0  0
 33 73  1  0  0  0  0
 33 78  2  0  0  0  0
 34 62  1  0  0  0  0
 34 69  1  0  0  0  0
 34 79  2  0  0  0  0
 35 63  1  0  0  0  0
 35 74  1  0  0  0  0
 35 80  2  0  0  0  0
 36 70  1  0  0  0  0
 36 75  1  0  0  0  0
 36 81  2  0  0  0  0
 37 40  1  0  0  0  0
 38 47  1  0  0  0  0
 39 69  1  0  0  0  0
 40 42  1  0  0  0  0
 41 43  1  0  0  0  0
 41 44  1  0  0  0  0
 42 46  1  0  0  0  0
 43 48  1  0  0  0  0
 44 70  1  0  0  0  0
 45 48  1  0  0  0  0
 45 70  1  0  0  0  0
 46 73  1  0  0  0  0
 47 69  1  0  0  0  0
 48 68  1  0  0  0  0
 50 63  1  0  0  0  0
 51 64  1  0  0  0  0
 52 64  1  0  0  0  0
 53 64  1  0  0  0  0
 54 75  1  0  0  0  0
 55 76  1  0  0  0  0
 56 58  1  0  0  0  0
 57 59  1  0  0  0  0
 58 60  1  0  0  0  0
 59 61  1  0  0  0  0
 60 75  1  0  0  0  0
 61 83  1  0  0  0  0
 62 64  1  0  0  0  0
 62 74  1  0  0  0  0
 63 76  1  0  0  0  0
 66 68  1  0  0  0  0
M  CHG  1  76   1
M  ISO  4  36 100  61 101  75 100  83 101
M  END
> <Batch ID>
0068

> <Smiles>
CNC(C)C(=O)NC(C(=O)N1Cc2cc([101O:1][101CH2:1]CCc3ncc(CCC[100N:0](C)[100C:0](=O)N4CCCC(n5nc(-c6ccc(Oc7ccc(F)cc7F)cc6)c(C(N)=O)c5N)C4)nc3C)ccc2CC1C(=O)NC1CCCc2ccccc21)C(C)(C)C

> <Shape>
0.221

> <Color>
0.138

> <Negative vol penalty>
0.000

$$$$

  -OEChem-04052318143D

 86 94  0     1  0  0  0  0  0999 V2000
  -30.5471  -25.0707   14.3425 C   0  0  0  0  0  0  0  0  0  0  0  0
  -29.2011  -25.1214   14.6902 C   0  0  0  0  0  0  0  0  0  0  0  0
  -25.0241  -12.0154   20.2503 C   0  0  0  0  0  0  0  0  0  0  0  0
  -25.5140  -12.8309   22.4711 C   0  0  0  0  0  0  0  0  0  0  0  0
  -31.5250  -25.1334   15.3344 C   0  0  0  0  0  0  0  0  0  0  0  0
  -28.8320  -25.2336   16.0302 C   0  0  0  0  0  0  0  0  0  0  0  0
  -24.0164  -28.2756   18.2801 C   0  0  0  0  0  0  0  0  0  0  0  0
  -25.4648  -10.7446   20.6197 C   0  0  0  0  0  0  0  0  0  0  0  0
  -25.9547  -11.5601   22.8406 C   0  0  0  0  0  0  0  0  0  0  0  0
  -22.7475  -27.8592   18.6804 C   0  0  0  0  0  0  0  0  0  0  0  0
  -26.1231   -7.1997   21.0841 C   0  0  0  0  0  0  0  0  0  0  0  0
  -25.3424   -6.1073   20.7063 C   0  0  0  0  0  0  0  0  0  0  0  0
  -23.5124  -27.7449   20.9653 C   0  0  0  0  0  0  0  0  0  0  0  0
  -23.4833   -7.0008   21.9643 C   0  0  0  0  0  0  0  0  0  0  0  0
  -23.9022  -20.5047   20.9287 C   0  0  0  0  0  0  0  0  0  0  0  0
  -25.0487  -13.0586   21.1760 C   0  0  0  0  0  0  0  0  0  0  0  0
  -23.2857  -14.8810   20.8966 C   0  0  0  0  0  0  0  0  0  0  0  0
  -31.1679  -25.2562   16.6864 C   0  0  0  0  0  0  0  0  0  0  0  0
  -25.0476  -28.4196   19.2194 C   0  0  0  0  0  0  0  0  0  0  0  0
  -29.8060  -25.2967   17.0412 C   0  0  0  0  0  0  0  0  0  0  0  0
  -24.7928  -28.1658   20.5747 C   0  0  0  0  0  0  0  0  0  0  0  0
  -25.9301  -10.5169   21.9148 C   0  0  0  0  0  0  0  0  0  0  0  0
  -22.4961  -27.5910   20.0227 C   0  0  0  0  0  0  0  0  0  0  0  0
  -25.5839   -8.1927   21.9021 C   0  0  0  0  0  0  0  0  0  0  0  0
  -24.0225   -6.0078   21.1464 C   0  0  0  0  0  0  0  0  0  0  0  0
  -24.2640   -8.0932   22.3422 C   0  0  0  0  0  0  0  0  0  0  0  0
  -24.5941  -14.3716   20.7948 C   0  0  0  0  0  0  0  0  0  0  0  0
  -24.5826  -20.8212   22.0764 C   0  0  0  0  0  0  0  0  0  0  0  0
  -23.3766  -16.1612   20.4074 C   0  0  0  0  0  0  0  0  0  0  0  0
  -22.4143  -22.1373   21.3985 C   0  0  0  0  0  0  0  0  0  0  0  0
  -22.0946  -14.2531   21.3894 C   0  0  0  0  0  0  0  0  0  0  0  0
  -27.8859  -27.0584   19.6609 C   0  0  0  0  0  0  0  0  0  0  0  0
  -28.1600  -29.2938   21.9955 C   0  0  0  0  0  0  0  0  0  0  0  0
  -27.1105  -20.6113   20.3671 C   0  0  0  0  0  0  0  0  0  0  0  0
  -26.6076  -31.4024   24.1842 C   0  0  0  0  0  0  0  0  0  0  0  0
  -32.2595  -25.2727   17.7270 C   0  0  0  0  0  0  0  0  0  0  0  0
  -26.4036  -28.8954   18.7753 C   0  0  0  0  0  0  0  0  0  0  0  0
  -25.8602  -28.3245   21.6255 C   0  0  0  0  0  0  0  0  0  0  0  0
  -31.7917  -25.7685   19.0928 C   0  0  0  0  0  0  0  0  0  0  0  0
  -26.5402  -18.5663   17.4805 C   0  0  0  0  0  0  0  0  0  0  0  0
  -30.4770  -25.0999   19.4819 C   0  0  0  0  0  0  0  0  0  0  0  0
  -25.8821  -17.3118   18.0536 C   0  0  0  0  0  0  0  0  0  0  0  0
  -27.5812  -19.1378   18.4380 C   0  0  0  0  0  0  0  0  0  0  0  0
  -26.3968  -18.1696   20.3826 C   0  0  0  0  0  0  0  0  0  0  0  0
  -29.3663  -25.4432   18.4819 C   0  0  1  0  0  0  0  0  0  0  0  0
  -27.5180  -28.5128   19.7444 C   0  0  1  0  0  0  0  0  0  0  0  0
  -25.3166  -17.5776   19.4600 C   0  0  2  0  0  0  0  0  0  0  0  0
  -25.9013  -19.8739   24.0097 C   0  0  0  0  0  0  0  0  0  0  0  0
  -27.0954  -33.0752   25.9902 C   0  0  0  0  0  0  0  0  0  0  0  0
  -19.2105  -27.2055   19.1654 C   0  0  0  0  0  0  0  0  0  0  0  0
  -28.4104  -19.8447   22.3046 C   0  0  0  0  0  0  0  0  0  0  0  0
  -27.3699  -22.1210   22.2433 C   0  0  0  0  0  0  0  0  0  0  0  0
  -28.8071  -27.0195   23.9239 C   0  0  0  0  0  0  0  0  0  0  0  0
  -28.3463  -28.5887   25.8195 C   0  0  0  0  0  0  0  0  0  0  0  0
  -30.2034  -29.0722   24.2257 C   0  0  0  0  0  0  0  0  0  0  0  0
  -25.2927  -33.5848   22.6786 C   0  0  0  0  0  0  0  0  0  0  0  0
  -21.1721  -22.9111   21.0352 C   0  0  0  0  0  0  0  0  0  0  0  0
  -21.4575  -24.2819   20.4103 C   0  0  0  0  0  0  0  0  0  0  0  0
  -20.1804  -25.0565   20.0569 C   0  0  0  0  0  0  0  0  0  0  0  0
  -25.8117  -20.0835   22.4712 C   0  0  2  0  0  0  0  0  0  0  0  0
  -27.8098  -29.3558   23.4626 C   0  0  1  0  0  0  0  0  0  0  0  0
  -26.8375  -32.8681   24.5058 C   0  0  2  0  0  0  0  0  0  0  0  0
  -20.4898  -26.4385   19.4727 C   0  0  2  0  0  0  0  0  0  1  0  0
  -27.1696  -20.6401   21.8737 C   0  0  0  0  0  0  0  0  0  0  0  0
  -28.7718  -28.5041   24.3381 C   0  0  0  0  0  0  0  0  0  0  0  0
  -22.7920  -21.1613   20.5594 N   0  0  0  0  0  0  0  0  0  0  0  0
  -25.4532  -15.2560   20.2811 N   0  0  0  0  0  0  0  0  0  0  0  0
  -24.1553  -21.8117   22.8803 N   0  0  0  0  0  0  0  0  0  0  0  0
  -23.0415  -22.4917   22.5374 N   0  0  0  0  0  0  0  0  0  0  0  0
  -24.6829  -16.3339   20.0557 N   0  0  0  0  0  0  0  0  0  0  0  0
  -27.1714  -28.7861   21.1406 N   0  0  0  0  0  0  0  0  0  0  0  0
  -27.0110  -19.3551   19.7687 N   0  0  0  0  0  0  0  0  0  0  0  0
  -22.4656  -17.1447   20.2479 N   0  0  0  0  0  0  0  0  0  0  0  0
  -22.1783  -12.9337   21.8546 N   0  0  0  0  0  0  0  0  0  0  0  0
  -28.8627  -26.7780   18.7245 N   0  0  0  0  0  0  0  0  0  0  0  0
  -27.7765  -30.7712   23.8148 N   0  0  0  0  0  0  0  0  0  0  0  0
  -25.6468  -33.6763   24.1185 N   0  3  0  0  0  0  0  0  0  0  0  0
  -20.9855  -14.8390   21.4012 O   0  0  0  0  0  0  0  0  0  0  0  0
  -27.3261  -26.2506   20.3928 O   0  0  0  0  0  0  0  0  0  0  0  0
  -29.2671  -29.6880   21.6208 O   0  0  0  0  0  0  0  0  0  0  0  0
  -27.1487  -21.6747   19.7427 O   0  0  0  0  0  0  0  0  0  0  0  0
  -25.5024  -30.8698   24.2573 O   0  0  0  0  0  0  0  0  0  0  0  0
  -26.3600   -9.2770   22.2757 O   0  0  0  0  0  0  0  0  0  0  0  0
  -21.2587  -27.1838   20.4161 O   0  0  0  0  0  0  0  0  0  1  0  0
  -23.2725   -4.9595   20.7822 F   0  0  0  0  0  0  0  0  0  0  0  0
  -23.7402   -9.0446   23.1272 F   0  0  0  0  0  0  0  0  0  0  0  0
  1  2  1  0  0  0  0
  1  5  2  0  0  0  0
  2  6  2  0  0  0  0
  3  8  2  0  0  0  0
  3 16  1  0  0  0  0
  4  9  1  0  0  0  0
  4 16  2  0  0  0  0
  5 18  1  0  0  0  0
  6 20  1  0  0  0  0
  7 10  2  0  0  0  0
  7 19  1  0  0  0  0
  8 22  1  0  0  0  0
  9 22  2  0  0  0  0
 10 23  1  0  0  0  0
 11 12  2  0  0  0  0
 11 24  1  0  0  0  0
 12 25  1  0  0  0  0
 13 21  1  0  0  0  0
 13 23  2  0  0  0  0
 14 25  2  0  0  0  0
 14 26  1  0  0  0  0
 15 28  1  0  0  0  0
 15 66  2  0  0  0  0
 16 27  1  0  0  0  0
 17 27  1  0  0  0  0
 17 29  2  0  0  0  0
 17 31  1  0  0  0  0
 18 20  2  0  0  0  0
 18 36  1  0  0  0  0
 19 21  2  0  0  0  0
 19 37  1  0  0  0  0
 20 45  1  0  0  0  0
 21 38  1  0  0  0  0
 22 83  1  0  0  0  0
 23 84  1  0  0  0  0
 24 26  2  0  0  0  0
 24 83  1  0  0  0  0
 25 85  1  0  0  0  0
 26 86  1  0  0  0  0
 27 67  2  0  0  0  0
 28 60  1  0  0  0  0
 28 68  2  0  0  0  0
 29 70  1  0  0  0  0
 29 73  1  0  0  0  0
 30 57  1  0  0  0  0
 30 66  1  0  0  0  0
 30 69  2  0  0  0  0
 31 74  1  0  0  0  0
 31 78  2  0  0  0  0
 32 46  1  0  0  0  0
 32 75  1  0  0  0  0
 32 79  2  0  0  0  0
 33 61  1  0  0  0  0
 33 71  1  0  0  0  0
 33 80  2  0  0  0  0
 34 64  1  0  0  0  0
 34 72  1  0  0  0  0
 34 81  2  0  0  0  0
 35 62  1  0  0  0  0
 35 76  1  0  0  0  0
 35 82  2  0  0  0  0
 36 39  1  0  0  0  0
 37 46  1  0  0  0  0
 38 71  1  0  0  0  0
 39 41  1  0  0  0  0
 40 42  1  0  0  0  0
 40 43  1  0  0  0  0
 41 45  1  0  0  0  0
 42 47  1  0  0  0  0
 43 72  1  0  0  0  0
 44 47  1  0  0  0  0
 44 72  1  0  0  0  0
 45 75  1  0  0  0  0
 46 71  1  0  0  0  0
 47 70  1  0  0  0  0
 48 60  1  0  0  0  0
 49 62  1  0  0  0  0
 50 63  1  0  0  0  0
 51 64  1  0  0  0  0
 52 64  1  0  0  0  0
 53 65  1  0  0  0  0
 54 65  1  0  0  0  0
 55 65  1  0  0  0  0
 56 77  1  0  0  0  0
 57 58  1  0  0  0  0
 58 59  1  0  0  0  0
 59 63  1  0  0  0  0
 60 64  1  0  0  0  0
 61 65  1  0  0  0  0
 61 76  1  0  0  0  0
 62 77  1  0  0  0  0
 63 84  1  0  0  0  0
 67 70  1  0  0  0  0
 68 69  1  0  0  0  0
M  CHG  1  77   1
M  ISO  4  34 100  63 101  64 100  84 101
M  END
> <Batch ID>
0068

> <Smiles>
CNC(C)C(=O)NC(C(=O)N1Cc2cc([101O:1][101CH:1](C)CCCc3ncc(C(C)[100C:0](C)(C)[100C:0](=O)N4CCCC(n5nc(-c6ccc(Oc7ccc(F)cc7F)cc6)c(C(N)=O)c5N)C4)nn3)ccc2CC1C(=O)NC1CCCc2ccccc21)C(C)(C)C

> <Shape>
0.215

> <Color>
0.080

> <Negative vol penalty>
0.000

$$$$

  -OEChem-04052318142D

  0  0  0     0  0  0  0  0  0999 V2000
M  END
$$$$

  -OEChem-04052318143D

 90 98  0     1  0  0  0  0  0999 V2000
  -32.3678  -28.7922   17.4781 C   0  0  0  0  0  0  0  0  0  0  0  0
  -31.2696  -28.5439   18.2953 C   0  0  0  0  0  0  0  0  0  0  0  0
  -23.7529  -12.0147   20.4730 C   0  0  0  0  0  0  0  0  0  0  0  0
  -24.9776  -13.7855   21.5691 C   0  0  0  0  0  0  0  0  0  0  0  0
  -32.8501  -27.7902   16.6370 C   0  0  0  0  0  0  0  0  0  0  0  0
  -30.6523  -27.2938   18.2710 C   0  0  0  0  0  0  0  0  0  0  0  0
  -29.6235  -25.5447   22.9107 C   0  0  0  0  0  0  0  0  0  0  0  0
  -24.9490  -11.3424   20.2225 C   0  0  0  0  0  0  0  0  0  0  0  0
  -26.1738  -13.1132   21.3186 C   0  0  0  0  0  0  0  0  0  0  0  0
  -28.5083  -26.0747   23.5582 C   0  0  0  0  0  0  0  0  0  0  0  0
  -29.5814  -12.0394   20.6515 C   0  0  0  0  0  0  0  0  0  0  0  0
  -30.6567  -12.7865   20.1708 C   0  0  0  0  0  0  0  0  0  0  0  0
  -27.2305  -24.1237   22.9415 C   0  0  0  0  0  0  0  0  0  0  0  0
  -29.3569  -13.4099   18.2320 C   0  0  0  0  0  0  0  0  0  0  0  0
  -18.9092  -24.9659   23.1042 C   0  0  0  0  0  0  0  0  0  0  0  0
  -23.7671  -13.2363   21.1463 C   0  0  0  0  0  0  0  0  0  0  0  0
  -21.7049  -13.8031   22.5368 C   0  0  0  0  0  0  0  0  0  0  0  0
  -32.2444  -26.5241   16.6095 C   0  0  0  0  0  0  0  0  0  0  0  0
  -29.5474  -24.3031   22.2634 C   0  0  0  0  0  0  0  0  0  0  0  0
  -31.1261  -26.2744   17.4277 C   0  0  0  0  0  0  0  0  0  0  0  0
  -28.3469  -23.5790   22.2887 C   0  0  0  0  0  0  0  0  0  0  0  0
  -26.1595  -11.8916   20.6453 C   0  0  0  0  0  0  0  0  0  0  0  0
  -27.3108  -25.3655   23.5712 C   0  0  0  0  0  0  0  0  0  0  0  0
  -28.3938  -11.9774   19.9223 C   0  0  0  0  0  0  0  0  0  0  0  0
  -30.5444  -13.4718   18.9611 C   0  0  0  0  0  0  0  0  0  0  0  0
  -28.2816  -12.6626   18.7126 C   0  0  0  0  0  0  0  0  0  0  0  0
  -22.5319  -13.9315   21.4048 C   0  0  0  0  0  0  0  0  0  0  0  0
  -19.4522  -26.0565   23.7226 C   0  0  0  0  0  0  0  0  0  0  0  0
  -20.6648  -14.6688   22.3022 C   0  0  0  0  0  0  0  0  0  0  0  0
  -18.6464  -24.7143   25.2878 C   0  0  0  0  0  0  0  0  0  0  0  0
  -21.8629  -12.9752   23.6967 C   0  0  0  0  0  0  0  0  0  0  0  0
  -29.8976  -23.3123   19.2634 C   0  0  0  0  0  0  0  0  0  0  0  0
  -29.5919  -20.3765   20.6087 C   0  0  0  0  0  0  0  0  0  0  0  0
  -28.4335  -18.4842   23.2019 C   0  0  0  0  0  0  0  0  0  0  0  0
  -18.7503  -19.6343   20.6216 C   0  0  0  0  0  0  0  0  0  0  0  0
  -32.7720  -25.4878   15.6492 C   0  0  0  0  0  0  0  0  0  0  0  0
  -30.7668  -23.7329   21.5923 C   0  0  0  0  0  0  0  0  0  0  0  0
  -28.2188  -22.2325   21.6261 C   0  0  0  0  0  0  0  0  0  0  0  0
  -32.2930  -24.0716   15.9578 C   0  0  0  0  0  0  0  0  0  0  0  0
  -19.3537  -17.1814   18.1124 C   0  0  0  0  0  0  0  0  0  0  0  0
  -30.7916  -24.0626   16.2270 C   0  0  0  0  0  0  0  0  0  0  0  0
  -20.1710  -16.1104   18.8369 C   0  0  0  0  0  0  0  0  0  0  0  0
  -19.7115  -18.5859   18.5934 C   0  0  0  0  0  0  0  0  0  0  0  0
  -20.4442  -17.7099   20.7774 C   0  0  0  0  0  0  0  0  0  0  0  0
  -30.4449  -24.9232   17.4479 C   0  0  1  0  0  0  0  0  0  0  0  0
  -30.4315  -22.6954   20.5252 C   0  0  1  0  0  0  0  0  0  0  0  0
  -20.0787  -16.2734   20.3660 C   0  0  2  0  0  0  0  0  0  0  0  0
  -28.3011  -16.1096   24.0024 C   0  0  0  0  0  0  0  0  0  0  0  0
  -20.2481  -27.3189   21.6097 C   0  0  0  0  0  0  0  0  0  0  0  0
  -19.3145  -28.5506   23.5472 C   0  0  0  0  0  0  0  0  0  0  0  0
  -18.9551  -22.7832   26.8756 C   0  0  0  0  0  0  0  0  0  0  0  0
  -16.7337  -23.9596   26.7433 C   0  0  0  0  0  0  0  0  0  0  0  0
  -18.6733  -25.0536   27.8490 C   0  0  0  0  0  0  0  0  0  0  0  0
  -27.3603  -19.8269   18.6017 C   0  0  0  0  0  0  0  0  0  0  0  0
  -26.6501  -17.8944   20.0262 C   0  0  0  0  0  0  0  0  0  0  0  0
  -28.9162  -17.9065   18.9836 C   0  0  0  0  0  0  0  0  0  0  0  0
  -29.9982  -19.0962   25.6383 C   0  0  0  0  0  0  0  0  0  0  0  0
  -22.5680  -26.3474   23.4186 C   0  0  0  0  0  0  0  0  0  0  0  0
  -23.9621  -26.6562   23.9656 C   0  0  0  0  0  0  0  0  0  0  0  0
  -21.5825  -27.4775   23.7514 C   0  0  0  0  0  0  0  0  0  0  0  0
  -18.5878  -21.8778   23.0678 C   0  0  0  0  0  0  0  0  0  0  0  0
  -17.7571  -22.8802   23.8803 C   0  0  0  0  0  0  0  0  0  0  0  0
  -17.8658  -20.5720   22.7423 C   0  0  0  0  0  0  0  0  0  0  0  0
  -24.9405  -25.5253   23.6811 C   0  0  0  0  0  0  0  0  0  1  0  0
  -28.4346  -19.4586   20.9204 C   0  0  1  0  0  0  0  0  0  0  0  0
  -29.0982  -17.4043   24.0364 C   0  0  2  0  0  0  0  0  0  0  0  0
  -20.1498  -27.3059   23.1543 C   0  0  0  0  0  0  0  0  0  0  0  0
  -18.2776  -24.1676   26.6174 C   0  0  0  0  0  0  0  0  0  0  0  0
  -27.8419  -18.7978   19.6439 C   0  0  0  0  0  0  0  0  0  0  0  0
  -22.0578  -14.8096   20.5170 N   0  0  0  0  0  0  0  0  0  0  0  0
  -18.4185  -24.1518   24.0965 N   0  0  0  0  0  0  0  0  0  0  0  0
  -20.9217  -15.2407   21.0910 N   0  0  0  0  0  0  0  0  0  0  0  0
  -19.2753  -25.8744   25.0730 N   0  3  0  0  0  0  0  0  0  0  0  0
  -29.4372  -21.7203   20.9777 N   0  0  0  0  0  0  0  0  0  0  0  0
  -19.6024  -18.6740   20.0516 N   0  0  0  0  0  0  0  0  0  0  0  0
  -19.5645  -14.9890   23.0159 N   0  0  0  0  0  0  0  0  0  0  0  0
  -22.9895  -12.1454   23.7769 N   0  0  0  0  0  0  0  0  0  0  0  0
  -30.7590  -24.2157   18.6707 N   0  0  0  0  0  0  0  0  0  0  0  0
  -28.9235  -18.5080   21.9132 N   0  0  0  0  0  0  0  0  0  0  0  0
  -18.7009  -19.6461   22.0102 N   0  0  0  0  0  0  0  0  0  0  0  0
  -29.2175  -17.8456   25.4548 N   0  3  0  0  0  0  0  0  0  0  0  0
  -21.0213  -12.9593   24.6268 O   0  0  0  0  0  0  0  0  0  0  0  0
  -28.7870  -22.9913   18.8569 O   0  0  0  0  0  0  0  0  0  0  0  0
  -30.5990  -19.9167   20.0647 O   0  0  0  0  0  0  0  0  0  0  0  0
  -27.5638  -19.2296   23.6474 O   0  0  0  0  0  0  0  0  0  0  0  0
  -18.0790  -20.4192   19.9432 O   0  0  0  0  0  0  0  0  0  0  0  0
  -27.3269  -11.2358   20.4013 O   0  0  0  0  0  0  0  0  0  0  0  0
  -26.2206  -25.8809   24.2019 O   0  0  0  0  0  0  0  0  0  1  0  0
  -31.5766  -14.1906   18.5004 F   0  0  0  0  0  0  0  0  0  0  0  0
  -27.1428  -12.6078   18.0083 F   0  0  0  0  0  0  0  0  0  0  0  0
  1  2  1  0  0  0  0
  1  5  2  0  0  0  0
  2  6  2  0  0  0  0
  3  8  2  0  0  0  0
  3 16  1  0  0  0  0
  4  9  1  0  0  0  0
  4 16  2  0  0  0  0
  5 18  1  0  0  0  0
  6 20  1  0  0  0  0
  7 10  2  0  0  0  0
  7 19  1  0  0  0  0
  8 22  1  0  0  0  0
  9 22  2  0  0  0  0
 10 23  1  0  0  0  0
 11 12  2  0  0  0  0
 11 24  1  0  0  0  0
 12 25  1  0  0  0  0
 13 21  1  0  0  0  0
 13 23  2  0  0  0  0
 14 25  2  0  0  0  0
 14 26  1  0  0  0  0
 15 28  2  0  0  0  0
 15 71  1  0  0  0  0
 16 27  1  0  0  0  0
 17 27  1  0  0  0  0
 17 29  2  0  0  0  0
 17 31  1  0  0  0  0
 18 20  2  0  0  0  0
 18 36  1  0  0  0  0
 19 21  2  0  0  0  0
 19 37  1  0  0  0  0
 20 45  1  0  0  0  0
 21 38  1  0  0  0  0
 22 87  1  0  0  0  0
 23 88  1  0  0  0  0
 24 26  2  0  0  0  0
 24 87  1  0  0  0  0
 25 89  1  0  0  0  0
 26 90  1  0  0  0  0
 27 70  2  0  0  0  0
 28 67  1  0  0  0  0
 28 73  1  0  0  0  0
 29 72  1  0  0  0  0
 29 76  1  0  0  0  0
 30 68  1  0  0  0  0
 30 71  1  0  0  0  0
 30 73  2  0  0  0  0
 31 77  1  0  0  0  0
 31 82  2  0  0  0  0
 32 46  1  0  0  0  0
 32 78  1  0  0  0  0
 32 83  2  0  0  0  0
 33 65  1  0  0  0  0
 33 74  1  0  0  0  0
 33 84  2  0  0  0  0
 34 66  1  0  0  0  0
 34 79  1  0  0  0  0
 34 85  2  0  0  0  0
 35 75  1  0  0  0  0
 35 80  1  0  0  0  0
 35 86  2  0  0  0  0
 36 39  1  0  0  0  0
 37 46  1  0  0  0  0
 38 74  1  0  0  0  0
 39 41  1  0  0  0  0
 40 42  1  0  0  0  0
 40 43  1  0  0  0  0
 41 45  1  0  0  0  0
 42 47  1  0  0  0  0
 43 75  1  0  0  0  0
 44 47  1  0  0  0  0
 44 75  1  0  0  0  0
 45 78  1  0  0  0  0
 46 74  1  0  0  0  0
 47 72  1  0  0  0  0
 48 66  1  0  0  0  0
 49 67  1  0  0  0  0
 50 67  1  0  0  0  0
 51 68  1  0  0  0  0
 52 68  1  0  0  0  0
 53 68  1  0  0  0  0
 54 69  1  0  0  0  0
 55 69  1  0  0  0  0
 56 69  1  0  0  0  0
 57 81  1  0  0  0  0
 58 59  1  0  0  0  0
 58 60  1  0  0  0  0
 59 64  1  0  0  0  0
 60 67  1  0  0  0  0
 61 62  1  0  0  0  0
 61 63  1  0  0  0  0
 62 71  1  0  0  0  0
 63 80  1  0  0  0  0
 64 88  1  0  0  0  0
 65 69  1  0  0  0  0
 65 79  1  0  0  0  0
 66 81  1  0  0  0  0
 70 72  1  0  0  0  0
M  CHG  2  73   1  81   1
M  ISO  4  35 100  64 101  80 100  88 101
M  END
> <Batch ID>
0068

> <Smiles>
CNC(C)C(=O)NC(C(=O)N1Cc2cc([101O:1][101CH2:1]CCCC(C)(C)c3cn(CCC[100NH:0][100C:0](=O)N4CCCC(n5nc(-c6ccc(Oc7ccc(F)cc7F)cc6)c(C(N)=O)c5N)C4)c(C(C)(C)C)n3)ccc2CC1C(=O)NC1CCCc2ccccc21)C(C)(C)C

> <Shape>
0.204

> <Color>
0.068

> <Negative vol penalty>
0.000

$$$$

  -OEChem-04052318143D

 91100  0     1  0  0  0  0  0999 V2000
  -18.5098  -25.5157   22.6117 C   0  0  0  0  0  0  0  0  0  0  0  0
  -19.8827  -25.5684   22.3932 C   0  0  0  0  0  0  0  0  0  0  0  0
  -24.0560   -9.0516   19.9067 C   0  0  0  0  0  0  0  0  0  0  0  0
  -22.9883  -10.2697   21.6993 C   0  0  0  0  0  0  0  0  0  0  0  0
  -17.7456  -26.6783   22.5215 C   0  0  0  0  0  0  0  0  0  0  0  0
  -20.4921  -26.7837   22.0832 C   0  0  0  0  0  0  0  0  0  0  0  0
  -24.7775  -27.5257   24.6773 C   0  0  0  0  0  0  0  0  0  0  0  0
  -23.2841   -7.9298   20.2092 C   0  0  0  0  0  0  0  0  0  0  0  0
  -22.2164   -9.1480   22.0018 C   0  0  0  0  0  0  0  0  0  0  0  0
  -25.9145  -26.8509   24.2349 C   0  0  0  0  0  0  0  0  0  0  0  0
  -22.6178   -6.2135   23.6323 C   0  0  0  0  0  0  0  0  0  0  0  0
  -22.4913   -5.8567   24.9748 C   0  0  0  0  0  0  0  0  0  0  0  0
  -26.6697  -28.8591   23.1322 C   0  0  0  0  0  0  0  0  0  0  0  0
  -20.0960   -6.1338   24.8226 C   0  0  0  0  0  0  0  0  0  0  0  0
  -28.7806  -21.2104   18.9458 C   0  0  0  0  0  0  0  0  0  0  0  0
  -30.3131  -20.6514   20.6177 C   0  0  0  0  0  0  0  0  0  0  0  0
  -23.9082  -10.2215   20.6518 C   0  0  0  0  0  0  0  0  0  0  0  0
  -24.3842  -12.4176   19.4442 C   0  0  0  0  0  0  0  0  0  0  0  0
  -18.3473  -27.9102   22.2198 C   0  0  0  0  0  0  0  0  0  0  0  0
  -24.5723  -28.8714   24.3407 C   0  0  0  0  0  0  0  0  0  0  0  0
  -19.7350  -27.9637   21.9875 C   0  0  0  0  0  0  0  0  0  0  0  0
  -25.5305  -29.5494   23.5737 C   0  0  0  0  0  0  0  0  0  0  0  0
  -29.6095  -21.6408   19.9617 C   0  0  0  0  0  0  0  0  0  0  0  0
  -22.3643   -7.9780   21.2567 C   0  0  0  0  0  0  0  0  0  0  0  0
  -26.8594  -27.5168   23.4598 C   0  0  0  0  0  0  0  0  0  0  0  0
  -21.4835   -6.5305   22.8849 C   0  0  0  0  0  0  0  0  0  0  0  0
  -21.2304   -5.8169   25.5699 C   0  0  0  0  0  0  0  0  0  0  0  0
  -20.2226   -6.4906   23.4801 C   0  0  0  0  0  0  0  0  0  0  0  0
  -24.7056  -11.3804   20.3402 C   0  0  0  0  0  0  0  0  0  0  0  0
  -30.5556  -14.4545   18.2137 C   0  0  0  0  0  0  0  0  0  0  0  0
  -30.2587  -13.6293   17.1546 C   0  0  0  0  0  0  0  0  0  0  0  0
  -25.4592  -13.2702   19.5062 C   0  0  0  0  0  0  0  0  0  0  0  0
  -29.3808  -19.0474   19.3043 C   0  0  0  0  0  0  0  0  0  0  0  0
  -30.0079  -15.6110   16.4195 C   0  0  0  0  0  0  0  0  0  0  0  0
  -23.2182  -12.5945   18.6289 C   0  0  0  0  0  0  0  0  0  0  0  0
  -30.9638  -14.1084   19.5813 C   0  0  0  0  0  0  0  0  0  0  0  0
  -22.3634  -30.4614   22.6988 C   0  0  0  0  0  0  0  0  0  0  0  0
  -24.0073  -33.0533   23.7486 C   0  0  0  0  0  0  0  0  0  0  0  0
  -26.9510  -34.3507   24.8877 C   0  0  0  0  0  0  0  0  0  0  0  0
  -17.4730  -29.1319   22.0866 C   0  0  0  0  0  0  0  0  0  0  0  0
  -23.3537  -29.5925   24.8482 C   0  0  0  0  0  0  0  0  0  0  0  0
  -25.3673  -30.9997   23.2020 C   0  0  0  0  0  0  0  0  0  0  0  0
  -18.2513  -30.4447   22.1223 C   0  0  0  0  0  0  0  0  0  0  0  0
  -29.3741  -13.4280   22.7040 C   0  0  0  0  0  0  0  0  0  0  0  0
  -19.4721  -30.3665   21.2110 C   0  0  0  0  0  0  0  0  0  0  0  0
  -27.9972  -12.9007   22.2965 C   0  0  0  0  0  0  0  0  0  0  0  0
  -30.4591  -12.9863   21.7251 C   0  0  0  0  0  0  0  0  0  0  0  0
  -28.8038  -12.7935   19.9010 C   0  0  0  0  0  0  0  0  0  0  0  0
  -20.4362  -29.2674   21.6734 C   0  0  1  0  0  0  0  0  0  0  0  0
  -22.9947  -30.8187   24.0146 C   0  0  1  0  0  0  0  0  0  0  0  0
  -27.6734  -13.2585   20.8338 C   0  0  1  0  0  0  0  0  0  0  0  0
  -29.7391  -16.7931   15.5754 C   0  0  0  0  0  0  0  0  0  0  0  0
  -28.8653  -11.5449   17.1678 C   0  0  0  0  0  0  0  0  0  0  0  0
  -28.6595  -16.7619   20.0919 C   0  0  0  0  0  0  0  0  0  0  0  0
  -27.9978  -36.5084   25.6268 C   0  0  0  0  0  0  0  0  0  0  0  0
  -24.1994  -33.9537   20.8396 C   0  0  0  0  0  0  0  0  0  0  0  0
  -26.0128  -35.5389   21.5229 C   0  0  0  0  0  0  0  0  0  0  0  0
  -23.7186  -35.7882   22.4699 C   0  0  0  0  0  0  0  0  0  0  0  0
  -27.5104  -33.2873   27.5923 C   0  0  0  0  0  0  0  0  0  0  0  0
  -29.7358  -23.0970   20.3321 C   0  0  0  0  0  0  0  0  0  0  0  0
  -30.2699  -12.1580   17.1050 C   0  0  0  0  0  0  0  0  0  0  0  0
  -28.7351  -23.5534   21.3996 C   0  0  0  0  0  0  0  0  0  0  0  0
  -28.8270  -25.0490   21.7059 C   0  0  0  0  0  0  0  0  0  0  0  0
  -30.5871  -16.9635   18.4714 C   0  0  0  0  0  0  0  0  0  0  0  0
  -27.8470  -25.4573   22.7974 C   0  0  0  0  0  0  0  0  0  1  0  0
  -29.2519  -17.6068   18.9420 C   0  0  2  0  0  0  0  0  0  0  0  0
  -25.1708  -33.8633   23.2301 C   0  0  1  0  0  0  0  0  0  0  0  0
  -27.2649  -35.2513   26.0688 C   0  0  2  0  0  0  0  0  0  0  0  0
  -24.7778  -34.7582   22.0209 C   0  0  0  0  0  0  0  0  0  0  0  0
  -28.6415  -19.9166   18.5892 N   0  0  0  0  0  0  0  0  0  0  0  0
  -30.2224  -19.3399   20.3141 N   0  0  0  0  0  0  0  0  0  0  0  0
  -25.8920  -11.5560   20.9281 N   0  0  0  0  0  0  0  0  0  0  0  0
  -29.9187  -14.3554   16.0408 N   0  0  0  0  0  0  0  0  0  0  0  0
  -30.3903  -15.7208   17.7275 N   0  0  0  0  0  0  0  0  0  0  0  0
  -26.3256  -12.7135   20.4004 N   0  0  0  0  0  0  0  0  0  0  0  0
  -30.0922  -13.3368   20.3535 N   0  0  0  0  0  0  0  0  0  0  0  0
  -24.1559  -31.6595   23.7168 N   0  0  0  0  0  0  0  0  0  0  0  0
  -25.7385  -14.4344   18.8824 N   0  0  0  0  0  0  0  0  0  0  0  0
  -22.2090  -11.6236   18.6866 N   0  0  0  0  0  0  0  0  0  0  0  0
  -21.2051  -29.7167   22.8142 N   0  0  0  0  0  0  0  0  0  0  0  0
  -25.6963  -34.6012   24.3736 N   0  0  0  0  0  0  0  0  0  0  0  0
  -28.1187  -34.5321   27.0561 N   0  3  0  0  0  0  0  0  0  0  0  0
  -23.0827  -13.5758   17.8594 O   0  0  0  0  0  0  0  0  0  0  0  0
  -32.0542  -14.5429   19.9494 O   0  0  0  0  0  0  0  0  0  0  0  0
  -22.8875  -30.8350   21.6560 O   0  0  0  0  0  0  0  0  0  0  0  0
  -23.0063  -33.6359   24.1732 O   0  0  0  0  0  0  0  0  0  0  0  0
  -27.7415  -33.5118   24.4612 O   0  0  0  0  0  0  0  0  0  0  0  0
  -21.6107   -6.8837   21.5520 O   0  0  0  0  0  0  0  0  0  0  0  0
  -27.9698  -26.8605   23.0261 O   0  0  0  0  0  0  0  0  0  1  0  0
  -21.1089   -5.4728   26.8587 F   0  0  0  0  0  0  0  0  0  0  0  0
  -19.1291   -6.7930   22.7669 F   0  0  0  0  0  0  0  0  0  0  0  0
  1  2  1  0  0  0  0
  1  5  2  0  0  0  0
  2  6  2  0  0  0  0
  3  8  2  0  0  0  0
  3 17  1  0  0  0  0
  4  9  1  0  0  0  0
  4 17  2  0  0  0  0
  5 19  1  0  0  0  0
  6 21  1  0  0  0  0
  7 10  2  0  0  0  0
  7 20  1  0  0  0  0
  8 24  1  0  0  0  0
  9 24  2  0  0  0  0
 10 25  1  0  0  0  0
 11 12  2  0  0  0  0
 11 26  1  0  0  0  0
 12 27  1  0  0  0  0
 13 22  1  0  0  0  0
 13 25  2  0  0  0  0
 14 27  2  0  0  0  0
 14 28  1  0  0  0  0
 15 23  1  0  0  0  0
 15 70  2  0  0  0  0
 16 23  2  0  0  0  0
 16 71  1  0  0  0  0
 17 29  1  0  0  0  0
 18 29  1  0  0  0  0
 18 32  2  0  0  0  0
 18 35  1  0  0  0  0
 19 21  2  0  0  0  0
 19 40  1  0  0  0  0
 20 22  2  0  0  0  0
 20 41  1  0  0  0  0
 21 49  1  0  0  0  0
 22 42  1  0  0  0  0
 23 60  1  0  0  0  0
 24 88  1  0  0  0  0
 25 89  1  0  0  0  0
 26 28  2  0  0  0  0
 26 88  1  0  0  0  0
 27 90  1  0  0  0  0
 28 91  1  0  0  0  0
 29 72  2  0  0  0  0
 30 31  2  0  0  0  0
 30 36  1  0  0  0  0
 30 74  1  0  0  0  0
 31 61  1  0  0  0  0
 31 73  1  0  0  0  0
 32 75  1  0  0  0  0
 32 78  1  0  0  0  0
 33 66  1  0  0  0  0
 33 70  1  0  0  0  0
 33 71  2  0  0  0  0
 34 52  1  0  0  0  0
 34 73  2  0  0  0  0
 34 74  1  0  0  0  0
 35 79  1  0  0  0  0
 35 83  2  0  0  0  0
 36 76  1  0  0  0  0
 36 84  2  0  0  0  0
 37 50  1  0  0  0  0
 37 80  1  0  0  0  0
 37 85  2  0  0  0  0
 38 67  1  0  0  0  0
 38 77  1  0  0  0  0
 38 86  2  0  0  0  0
 39 68  1  0  0  0  0
 39 81  1  0  0  0  0
 39 87  2  0  0  0  0
 40 43  1  0  0  0  0
 41 50  1  0  0  0  0
 42 77  1  0  0  0  0
 43 45  1  0  0  0  0
 44 46  1  0  0  0  0
 44 47  1  0  0  0  0
 45 49  1  0  0  0  0
 46 51  1  0  0  0  0
 47 76  1  0  0  0  0
 48 51  1  0  0  0  0
 48 76  1  0  0  0  0
 49 80  1  0  0  0  0
 50 77  1  0  0  0  0
 51 75  1  0  0  0  0
 53 61  1  0  0  0  0
 54 66  1  0  0  0  0
 55 68  1  0  0  0  0
 56 69  1  0  0  0  0
 57 69  1  0  0  0  0
 58 69  1  0  0  0  0
 59 82  1  0  0  0  0
 60 62  1  0  0  0  0
 62 63  1  0  0  0  0
 63 65  1  0  0  0  0
 64 66  1  0  0  0  0
 64 74  1  0  0  0  0
 65 89  1  0  0  0  0
 67 69  1  0  0  0  0
 67 81  1  0  0  0  0
 68 82  1  0  0  0  0
 72 75  1  0  0  0  0
M  CHG  1  82   1
M  ISO  4  30 100  36 100  65 101  89 101
M  END
> <Batch ID>
0068

> <Smiles>
CCc1nc(C)n(CC(C)c2ncc(CCC[101CH2:1][101O:1]c3ccc4c(c3)CN(C(=O)C(NC(=O)C(C)NC)C(C)(C)C)C(C(=O)NC3CCCc5ccccc53)C4)cn2)[100c:0]1[100C:0](=O)N1CCCC(n2nc(-c3ccc(Oc4ccc(F)cc4F)cc3)c(C(N)=O)c2N)C1

> <Shape>
0.327

> <Color>
0.127

> <Negative vol penalty>
0.000

$$$$

  -OEChem-04052318143D

 86 94  0     1  0  0  0  0  0999 V2000
  -30.2009  -24.0743   16.9686 C   0  0  0  0  0  0  0  0  0  0  0  0
  -28.8831  -24.2029   17.3954 C   0  0  0  0  0  0  0  0  0  0  0  0
  -23.5461   -9.9971   22.3367 C   0  0  0  0  0  0  0  0  0  0  0  0
  -23.2795   -9.8059   19.9431 C   0  0  0  0  0  0  0  0  0  0  0  0
  -31.2394  -24.5659   17.7584 C   0  0  0  0  0  0  0  0  0  0  0  0
  -28.6031  -24.8224   18.6129 C   0  0  0  0  0  0  0  0  0  0  0  0
  -24.7532  -28.0961   18.2868 C   0  0  0  0  0  0  0  0  0  0  0  0
  -22.7290   -8.8811   22.5170 C   0  0  0  0  0  0  0  0  0  0  0  0
  -22.4624   -8.6898   20.1233 C   0  0  0  0  0  0  0  0  0  0  0  0
  -23.4647  -27.5640   18.2694 C   0  0  0  0  0  0  0  0  0  0  0  0
  -23.0208   -5.5194   22.3009 C   0  0  0  0  0  0  0  0  0  0  0  0
  -23.4397   -4.5496   23.2117 C   0  0  0  0  0  0  0  0  0  0  0  0
  -23.2244  -28.0849   20.6125 C   0  0  0  0  0  0  0  0  0  0  0  0
  -21.4270   -4.8931   24.5032 C   0  0  0  0  0  0  0  0  0  0  0  0
  -23.8213  -10.4596   21.0498 C   0  0  0  0  0  0  0  0  0  0  0  0
  -26.0636  -11.6263   20.7060 C   0  0  0  0  0  0  0  0  0  0  0  0
  -30.9713  -25.2003   18.9816 C   0  0  0  0  0  0  0  0  0  0  0  0
  -25.2920  -28.6176   19.4718 C   0  0  0  0  0  0  0  0  0  0  0  0
  -29.6390  -25.3218   19.4205 C   0  0  0  0  0  0  0  0  0  0  0  0
  -24.5191  -28.6253   20.6417 C   0  0  0  0  0  0  0  0  0  0  0  0
  -22.1872   -8.2274   21.4103 C   0  0  0  0  0  0  0  0  0  0  0  0
  -22.7011  -27.5557   19.4330 C   0  0  0  0  0  0  0  0  0  0  0  0
  -21.8050   -6.1762   22.4913 C   0  0  0  0  0  0  0  0  0  0  0  0
  -22.6428   -4.2364   24.3128 C   0  0  0  0  0  0  0  0  0  0  0  0
  -21.0081   -5.8630   23.5924 C   0  0  0  0  0  0  0  0  0  0  0  0
  -24.6647  -11.6127   20.8630 C   0  0  0  0  0  0  0  0  0  0  0  0
  -26.3803  -12.9551   20.5637 C   0  0  0  0  0  0  0  0  0  0  0  0
  -25.9584  -19.4705   21.6105 C   0  0  0  0  0  0  0  0  0  0  0  0
  -26.3074  -21.5113   21.3443 C   0  0  0  0  0  0  0  0  0  0  0  0
  -26.9936  -10.5352   20.6900 C   0  0  0  0  0  0  0  0  0  0  0  0
  -25.8643  -18.1552   22.2557 C   0  0  0  0  0  0  0  0  0  0  0  0
  -27.7826  -27.8974   21.3107 C   0  0  0  0  0  0  0  0  0  0  0  0
  -26.9120  -30.6010   22.8776 C   0  0  0  0  0  0  0  0  0  0  0  0
  -24.4517  -32.8352   23.6534 C   0  0  0  0  0  0  0  0  0  0  0  0
  -32.1300  -25.6736   19.8232 C   0  0  0  0  0  0  0  0  0  0  0  0
  -26.6736  -29.2122   19.4676 C   0  0  0  0  0  0  0  0  0  0  0  0
  -25.0437  -29.1916   21.9350 C   0  0  0  0  0  0  0  0  0  0  0  0
  -31.7245  -26.6509   20.9235 C   0  0  0  0  0  0  0  0  0  0  0  0
  -23.4266  -16.9917   19.8328 C   0  0  0  0  0  0  0  0  0  0  0  0
  -30.4954  -26.1377   21.6669 C   0  0  0  0  0  0  0  0  0  0  0  0
  -23.6393  -15.4785   19.8905 C   0  0  0  0  0  0  0  0  0  0  0  0
  -23.6025  -17.6305   21.2071 C   0  0  0  0  0  0  0  0  0  0  0  0
  -25.1308  -15.8194   21.9124 C   0  0  0  0  0  0  0  0  0  0  0  0
  -29.2934  -26.0097   20.7233 C   0  0  1  0  0  0  0  0  0  0  0  0
  -27.3125  -29.2489   20.8524 C   0  0  1  0  0  0  0  0  0  0  0  0
  -24.9894  -15.1303   20.5441 C   0  0  1  0  0  0  0  0  0  0  0  0
  -26.6420  -22.9404   21.4791 C   0  0  0  0  0  0  0  0  0  0  0  0
  -24.0327  -34.9201   24.9857 C   0  0  0  0  0  0  0  0  0  0  0  0
  -22.1512  -23.0450   21.7692 C   0  0  0  0  0  0  0  0  0  0  0  0
  -22.8295  -20.5291   18.0468 C   0  0  0  0  0  0  0  0  0  0  0  0
  -26.8628  -28.9491   25.4425 C   0  0  0  0  0  0  0  0  0  0  0  0
  -25.5524  -30.7901   26.5204 C   0  0  0  0  0  0  0  0  0  0  0  0
  -27.8630  -31.2280   25.6884 C   0  0  0  0  0  0  0  0  0  0  0  0
  -23.7264  -34.3755   21.2326 C   0  0  0  0  0  0  0  0  0  0  0  0
  -20.1321  -25.0535   19.0807 C   0  0  0  0  0  0  0  0  0  0  0  0
  -20.5539  -24.3950   20.3969 C   0  0  0  0  0  0  0  0  0  0  0  0
  -24.3265  -22.4193   18.8436 C   0  0  0  0  0  0  0  0  0  0  0  0
  -21.7771  -22.4216   19.3274 C   0  0  0  0  0  0  0  0  0  0  0  0
  -25.6412  -21.6312   18.8511 C   0  0  0  0  0  0  0  0  0  0  0  0
  -21.1854  -25.9823   18.4933 C   0  0  0  0  0  0  0  0  0  1  0  0
  -25.9842  -30.9200   24.0249 C   0  0  1  0  0  0  0  0  0  0  0  0
  -24.4254  -34.3528   23.6305 C   0  0  2  0  0  0  0  0  0  0  0  0
  -21.8614  -23.5704   20.3573 C   0  0  2  0  0  0  0  0  0  0  0  0
  -23.0619  -21.5848   19.1345 C   0  0  1  0  0  0  0  0  0  0  0  0
  -26.5561  -30.4593   25.3953 C   0  0  0  0  0  0  0  0  0  0  0  0
  -24.1297  -12.8359   20.8244 N   0  0  0  0  0  0  0  0  0  0  0  0
  -26.3736  -20.5885   22.2757 N   0  0  0  0  0  0  0  0  0  0  0  0
  -25.6396  -19.6435   20.3260 N   0  0  0  0  0  0  0  0  0  0  0  0
  -25.1980  -13.6305   20.6415 N   0  0  0  0  0  0  0  0  0  0  0  0
  -25.8716  -20.9571   20.1811 N   0  0  0  0  0  0  0  0  0  0  0  0
  -24.8986  -17.2599   21.7893 N   0  0  0  0  0  0  0  0  0  0  0  0
  -26.4024  -29.7559   21.8815 N   0  0  0  0  0  0  0  0  0  0  0  0
  -27.5521  -13.6001   20.3809 N   0  0  0  0  0  0  0  0  0  0  0  0
  -26.4993   -9.2335   20.8499 N   0  0  0  0  0  0  0  0  0  0  0  0
  -28.7086  -27.3091   20.4705 N   0  0  0  0  0  0  0  0  0  0  0  0
  -25.7098  -32.3505   23.9423 N   0  0  0  0  0  0  0  0  0  0  0  0
  -23.4475  -34.8387   22.6164 N   0  3  0  0  0  0  0  0  0  0  0  0
  -28.2283  -10.7107   20.5550 O   0  0  0  0  0  0  0  0  0  0  0  0
  -26.6641  -17.9385   23.1648 O   0  0  0  0  0  0  0  0  0  0  0  0
  -27.3393  -27.4240   22.3504 O   0  0  0  0  0  0  0  0  0  0  0  0
  -28.0446  -31.0894   22.8620 O   0  0  0  0  0  0  0  0  0  0  0  0
  -23.4550  -32.1484   23.4403 O   0  0  0  0  0  0  0  0  0  0  0  0
  -21.3901   -7.1382   21.5857 O   0  0  0  0  0  0  0  0  0  0  0  0
  -21.4346  -27.0327   19.4189 O   0  0  0  0  0  0  0  0  0  1  0  0
  -23.0445   -3.3040   25.1865 F   0  0  0  0  0  0  0  0  0  0  0  0
  -19.8386   -6.4897   23.7800 F   0  0  0  0  0  0  0  0  0  0  0  0
  1  2  1  0  0  0  0
  1  5  2  0  0  0  0
  2  6  2  0  0  0  0
  3  8  2  0  0  0  0
  3 15  1  0  0  0  0
  4  9  1  0  0  0  0
  4 15  2  0  0  0  0
  5 17  1  0  0  0  0
  6 19  1  0  0  0  0
  7 10  2  0  0  0  0
  7 18  1  0  0  0  0
  8 21  1  0  0  0  0
  9 21  2  0  0  0  0
 10 22  1  0  0  0  0
 11 12  2  0  0  0  0
 11 23  1  0  0  0  0
 12 24  1  0  0  0  0
 13 20  1  0  0  0  0
 13 22  2  0  0  0  0
 14 24  2  0  0  0  0
 14 25  1  0  0  0  0
 15 26  1  0  0  0  0
 16 26  1  0  0  0  0
 16 27  2  0  0  0  0
 16 30  1  0  0  0  0
 17 19  2  0  0  0  0
 17 35  1  0  0  0  0
 18 20  2  0  0  0  0
 18 36  1  0  0  0  0
 19 44  1  0  0  0  0
 20 37  1  0  0  0  0
 21 83  1  0  0  0  0
 22 84  1  0  0  0  0
 23 25  2  0  0  0  0
 23 83  1  0  0  0  0
 24 85  1  0  0  0  0
 25 86  1  0  0  0  0
 26 66  2  0  0  0  0
 27 69  1  0  0  0  0
 27 73  1  0  0  0  0
 28 31  1  0  0  0  0
 28 67  1  0  0  0  0
 28 68  2  0  0  0  0
 29 47  1  0  0  0  0
 29 67  2  0  0  0  0
 29 70  1  0  0  0  0
 30 74  1  0  0  0  0
 30 78  2  0  0  0  0
 31 71  1  0  0  0  0
 31 79  2  0  0  0  0
 32 45  1  0  0  0  0
 32 75  1  0  0  0  0
 32 80  2  0  0  0  0
 33 61  1  0  0  0  0
 33 72  1  0  0  0  0
 33 81  2  0  0  0  0
 34 62  1  0  0  0  0
 34 76  1  0  0  0  0
 34 82  2  0  0  0  0
 35 38  1  0  0  0  0
 36 45  1  0  0  0  0
 37 72  1  0  0  0  0
 38 40  1  0  0  0  0
 39 41  1  0  0  0  0
 39 42  1  0  0  0  0
 40 44  1  0  0  0  0
 41 46  1  0  0  0  0
 42 71  1  0  0  0  0
 43 46  1  0  0  0  0
 43 71  1  0  0  0  0
 44 75  1  0  0  0  0
 45 72  1  0  0  0  0
 46 69  1  0  0  0  0
 48 62  1  0  0  0  0
 49 63  1  0  0  0  0
 50 64  1  0  0  0  0
 51 65  1  0  0  0  0
 52 65  1  0  0  0  0
 53 65  1  0  0  0  0
 54 77  1  0  0  0  0
 55 56  1  0  0  0  0
 55 60  1  0  0  0  0
 56 63  1  0  0  0  0
 57 59  1  0  0  0  0
 57 64  1  0  0  0  0
 58 63  1  0  0  0  0
 58 64  1  0  0  0  0
 59 70  1  0  0  0  0
 60 84  1  0  0  0  0
 61 65  1  0  0  0  0
 61 76  1  0  0  0  0
 62 77  1  0  0  0  0
 66 69  1  0  0  0  0
 68 70  1  0  0  0  0
M  CHG  1  77   1
M  ISO  4  28 100  31 100  60 101  84 101
M  END
> <Batch ID>
0068

> <Smiles>
CNC(C)C(=O)NC(C(=O)N1Cc2cc([101O:1][101CH2:1]CCC(C)CC(C)CCn3n[100c:0]([100C:0](=O)N4CCCC(n5nc(-c6ccc(Oc7ccc(F)cc7F)cc6)c(C(N)=O)c5N)C4)nc3C)ccc2CC1C(=O)NC1CCCc2ccccc21)C(C)(C)C

> <Shape>
0.285

> <Color>
0.096

> <Negative vol penalty>
0.000

$$$$

  -OEChem-04052318143D

 85 93  0     1  0  0  0  0  0999 V2000
  -29.0389  -11.6798   19.3998 C   0  0  0  0  0  0  0  0  0  0  0  0
  -29.0069  -12.9807   18.9078 C   0  0  0  0  0  0  0  0  0  0  0  0
  -21.7683  -29.4270   19.7069 C   0  0  0  0  0  0  0  0  0  0  0  0
  -22.4051  -27.7579   21.3335 C   0  0  0  0  0  0  0  0  0  0  0  0
  -27.9120  -11.1425   20.0203 C   0  0  0  0  0  0  0  0  0  0  0  0
  -27.8474  -13.7447   19.0352 C   0  0  0  0  0  0  0  0  0  0  0  0
  -27.5042  -19.7888   19.9606 C   0  0  0  0  0  0  0  0  0  0  0  0
  -20.5944  -28.7216   19.4427 C   0  0  0  0  0  0  0  0  0  0  0  0
  -21.2311  -27.0526   21.0693 C   0  0  0  0  0  0  0  0  0  0  0  0
  -27.2884  -20.8596   19.0942 C   0  0  0  0  0  0  0  0  0  0  0  0
  -18.2301  -25.0002   21.0837 C   0  0  0  0  0  0  0  0  0  0  0  0
  -17.5029  -24.5189   22.1723 C   0  0  0  0  0  0  0  0  0  0  0  0
  -24.9404  -20.8253   19.6463 C   0  0  0  0  0  0  0  0  0  0  0  0
  -17.2326  -26.7763   22.9898 C   0  0  0  0  0  0  0  0  0  0  0  0
  -27.4072  -25.5797   17.7029 C   0  0  0  0  0  0  0  0  0  0  0  0
  -26.4158  -25.5060   19.8166 C   0  0  0  0  0  0  0  0  0  0  0  0
  -22.6737  -28.9451   20.6523 C   0  0  0  0  0  0  0  0  0  0  0  0
  -24.0740  -30.6827   21.8884 C   0  0  0  0  0  0  0  0  0  0  0  0
  -26.7412  -11.9036   20.1640 C   0  0  0  0  0  0  0  0  0  0  0  0
  -26.4361  -19.2202   20.6692 C   0  0  0  0  0  0  0  0  0  0  0  0
  -26.7032  -13.2166   19.6570 C   0  0  0  0  0  0  0  0  0  0  0  0
  -25.1457  -19.7490   20.5230 C   0  0  0  0  0  0  0  0  0  0  0  0
  -26.2925  -25.2832   18.4604 C   0  0  0  0  0  0  0  0  0  0  0  0
  -20.3257  -27.5344   20.1239 C   0  0  0  0  0  0  0  0  0  0  0  0
  -26.0059  -21.3762   18.9348 C   0  0  0  0  0  0  0  0  0  0  0  0
  -18.4586  -26.3696   20.9482 C   0  0  0  0  0  0  0  0  0  0  0  0
  -17.0041  -25.4069   23.1253 C   0  0  0  0  0  0  0  0  0  0  0  0
  -17.9598  -27.2576   21.9012 C   0  0  0  0  0  0  0  0  0  0  0  0
  -23.8869  -29.6730   20.9253 C   0  0  0  0  0  0  0  0  0  0  0  0
  -25.3905  -31.0491   21.7502 C   0  0  0  0  0  0  0  0  0  0  0  0
  -28.5538  -26.2318   19.5541 C   0  0  0  0  0  0  0  0  0  0  0  0
  -23.1413  -31.2395   22.8241 C   0  0  0  0  0  0  0  0  0  0  0  0
  -25.0779  -16.3477   20.7560 C   0  0  0  0  0  0  0  0  0  0  0  0
  -23.3790  -17.6541   23.1910 C   0  0  0  0  0  0  0  0  0  0  0  0
  -30.1700  -28.1081   19.6012 C   0  0  0  0  0  0  0  0  0  0  0  0
  -22.1706  -20.4675   24.6980 C   0  0  0  0  0  0  0  0  0  0  0  0
  -25.5326  -11.2635   20.7999 C   0  0  0  0  0  0  0  0  0  0  0  0
  -26.6899  -18.0828   21.6202 C   0  0  0  0  0  0  0  0  0  0  0  0
  -23.9685  -19.1875   21.2762 C   0  0  0  0  0  0  0  0  0  0  0  0
  -24.4663  -12.2680   21.2290 C   0  0  0  0  0  0  0  0  0  0  0  0
  -28.9020  -31.2803   18.5201 C   0  0  0  0  0  0  0  0  0  0  0  0
  -24.2071  -13.2792   20.1168 C   0  0  0  0  0  0  0  0  0  0  0  0
  -27.4795  -31.3072   19.0777 C   0  0  0  0  0  0  0  0  0  0  0  0
  -29.3095  -29.8723   18.0975 C   0  0  0  0  0  0  0  0  0  0  0  0
  -27.7481  -28.8745   19.7370 C   0  0  0  0  0  0  0  0  0  0  0  0
  -25.4722  -14.0853   19.7983 C   0  0  1  0  0  0  0  0  0  0  0  0
  -25.4434  -17.2493   21.9010 C   0  0  1  0  0  0  0  0  0  0  0  0
  -27.3077  -30.2731   20.2044 C   0  0  2  0  0  0  0  0  0  0  0  0
  -20.7841  -21.2152   26.6514 C   0  0  0  0  0  0  0  0  0  0  0  0
  -24.0030  -27.1502   17.7370 C   0  0  0  0  0  0  0  0  0  0  0  0
  -22.4142  -25.2338   17.6801 C   0  0  0  0  0  0  0  0  0  0  0  0
  -25.0940  -24.5651   16.2887 C   0  0  0  0  0  0  0  0  0  0  0  0
  -31.0044  -25.8046   19.8780 C   0  0  0  0  0  0  0  0  0  0  0  0
  -29.7787  -26.9911   21.7012 C   0  0  0  0  0  0  0  0  0  0  0  0
  -20.8477  -16.7930   21.7208 C   0  0  0  0  0  0  0  0  0  0  0  0
  -19.5503  -18.3582   23.1820 C   0  0  0  0  0  0  0  0  0  0  0  0
  -20.7863  -16.4435   24.1964 C   0  0  0  0  0  0  0  0  0  0  0  0
  -24.4201  -22.0037   25.8552 C   0  0  0  0  0  0  0  0  0  0  0  0
  -24.7236  -23.3097   18.4120 C   0  0  0  0  0  0  0  0  0  1  0  0
  -22.0828  -18.4202   23.2998 C   0  0  1  0  0  0  0  0  0  0  0  0
  -22.1882  -20.9210   26.1466 C   0  0  2  0  0  0  0  0  0  0  0  0
  -23.7854  -25.6978   18.1970 C   0  0  0  0  0  0  0  0  0  0  0  0
  -24.9871  -24.7329   17.8283 C   0  0  1  0  0  0  0  0  0  0  0  0
  -29.8103  -26.7555   20.1627 C   0  0  0  0  0  0  0  0  0  0  0  0
  -20.8384  -17.5133   23.0840 C   0  0  0  0  0  0  0  0  0  0  0  0
  -28.5587  -26.0573   18.2188 N   0  0  0  0  0  0  0  0  0  0  0  0
  -27.5360  -25.9811   20.3995 N   0  0  0  0  0  0  0  0  0  0  0  0
  -24.9957  -29.4147   20.2269 N   0  0  0  0  0  0  0  0  0  0  0  0
  -25.8922  -30.2674   20.7516 N   0  0  0  0  0  0  0  0  0  0  0  0
  -24.2666  -18.0718   22.1893 N   0  0  0  0  0  0  0  0  0  0  0  0
  -29.1105  -28.9159   19.1878 N   0  0  0  0  0  0  0  0  0  0  0  0
  -26.1563  -31.9606   22.3868 N   0  0  0  0  0  0  0  0  0  0  0  0
  -21.8288  -30.7477   22.8322 N   0  0  0  0  0  0  0  0  0  0  0  0
  -25.6857  -15.1075   20.8003 N   0  0  0  0  0  0  0  0  0  0  0  0
  -22.1141  -19.0938   24.5935 N   0  0  0  0  0  0  0  0  0  0  0  0
  -23.0087  -22.1564   26.2928 N   0  3  0  0  0  0  0  0  0  0  0  0
  -23.4578  -32.1576   23.6181 O   0  0  0  0  0  0  0  0  0  0  0  0
  -24.3008  -16.7470   19.8967 O   0  0  0  0  0  0  0  0  0  0  0  0
  -23.5990  -16.7240   23.9709 O   0  0  0  0  0  0  0  0  0  0  0  0
  -31.3575  -28.4362   19.5356 O   0  0  0  0  0  0  0  0  0  0  0  0
  -22.2001  -21.2535   23.7536 O   0  0  0  0  0  0  0  0  0  0  0  0
  -19.1801  -26.8460   19.8664 O   0  0  0  0  0  0  0  0  0  0  0  0
  -25.7924  -22.4209   18.0893 O   0  0  0  0  0  0  0  0  0  1  0  0
  -16.3044  -24.9447   24.1698 F   0  0  0  0  0  0  0  0  0  0  0  0
  -18.1751  -28.5743   21.7758 F   0  0  0  0  0  0  0  0  0  0  0  0
  1  2  1  0  0  0  0
  1  5  2  0  0  0  0
  2  6  2  0  0  0  0
  3  8  2  0  0  0  0
  3 17  1  0  0  0  0
  4  9  1  0  0  0  0
  4 17  2  0  0  0  0
  5 19  1  0  0  0  0
  6 21  1  0  0  0  0
  7 10  2  0  0  0  0
  7 20  1  0  0  0  0
  8 24  1  0  0  0  0
  9 24  2  0  0  0  0
 10 25  1  0  0  0  0
 11 12  2  0  0  0  0
 11 26  1  0  0  0  0
 12 27  1  0  0  0  0
 13 22  1  0  0  0  0
 13 25  2  0  0  0  0
 14 27  2  0  0  0  0
 14 28  1  0  0  0  0
 15 23  1  0  0  0  0
 15 66  2  0  0  0  0
 16 23  2  0  0  0  0
 16 67  1  0  0  0  0
 17 29  1  0  0  0  0
 18 29  1  0  0  0  0
 18 30  2  0  0  0  0
 18 32  1  0  0  0  0
 19 21  2  0  0  0  0
 19 37  1  0  0  0  0
 20 22  2  0  0  0  0
 20 38  1  0  0  0  0
 21 46  1  0  0  0  0
 22 39  1  0  0  0  0
 23 63  1  0  0  0  0
 24 82  1  0  0  0  0
 25 83  1  0  0  0  0
 26 28  2  0  0  0  0
 26 82  1  0  0  0  0
 27 84  1  0  0  0  0
 28 85  1  0  0  0  0
 29 68  2  0  0  0  0
 30 69  1  0  0  0  0
 30 72  1  0  0  0  0
 31 64  1  0  0  0  0
 31 66  1  0  0  0  0
 31 67  2  0  0  0  0
 32 73  1  0  0  0  0
 32 77  2  0  0  0  0
 33 47  1  0  0  0  0
 33 74  1  0  0  0  0
 33 78  2  0  0  0  0
 34 60  1  0  0  0  0
 34 70  1  0  0  0  0
 34 79  2  0  0  0  0
 35 64  1  0  0  0  0
 35 71  1  0  0  0  0
 35 80  2  0  0  0  0
 36 61  1  0  0  0  0
 36 75  1  0  0  0  0
 36 81  2  0  0  0  0
 37 40  1  0  0  0  0
 38 47  1  0  0  0  0
 39 70  1  0  0  0  0
 40 42  1  0  0  0  0
 41 43  1  0  0  0  0
 41 44  1  0  0  0  0
 42 46  1  0  0  0  0
 43 48  1  0  0  0  0
 44 71  1  0  0  0  0
 45 48  1  0  0  0  0
 45 71  1  0  0  0  0
 46 74  1  0  0  0  0
 47 70  1  0  0  0  0
 48 69  1  0  0  0  0
 49 61  1  0  0  0  0
 50 62  1  0  0  0  0
 51 62  1  0  0  0  0
 52 63  1  0  0  0  0
 53 64  1  0  0  0  0
 54 64  1  0  0  0  0
 55 65  1  0  0  0  0
 56 65  1  0  0  0  0
 57 65  1  0  0  0  0
 58 76  1  0  0  0  0
 59 63  1  0  0  0  0
 59 83  1  0  0  0  0
 60 65  1  0  0  0  0
 60 75  1  0  0  0  0
 61 76  1  0  0  0  0
 62 63  1  0  0  0  0
 68 69  1  0  0  0  0
M  CHG  1  76   1
M  ISO  4  35 100  59 101  64 100  83 101
M  END
> <Batch ID>
0068

> <Smiles>
CNC(C)C(=O)NC(C(=O)N1Cc2cc([101O:1][101CH2:1]C(C)(c3cnc([100C:0](C)(C)[100C:0](=O)N4CCCC(n5nc(-c6ccc(Oc7ccc(F)cc7F)cc6)c(C(N)=O)c5N)C4)nc3)C(C)C)ccc2CC1C(=O)NC1CCCc2ccccc21)C(C)(C)C

> <Shape>
0.219

> <Color>
0.077

> <Negative vol penalty>
0.000

$$$$

  -OEChem-04052318143D

 85 93  0     1  0  0  0  0  0999 V2000
  -32.9501  -26.4903   17.9487 C   0  0  0  0  0  0  0  0  0  0  0  0
  -31.6141  -26.2277   18.2342 C   0  0  0  0  0  0  0  0  0  0  0  0
  -24.2620  -12.5238   19.5058 C   0  0  0  0  0  0  0  0  0  0  0  0
  -25.3335  -12.2167   21.6493 C   0  0  0  0  0  0  0  0  0  0  0  0
  -33.7135  -27.2530   18.8315 C   0  0  0  0  0  0  0  0  0  0  0  0
  -31.0410  -26.7267   19.4034 C   0  0  0  0  0  0  0  0  0  0  0  0
  -26.4661  -28.7498   18.6147 C   0  0  0  0  0  0  0  0  0  0  0  0
  -24.3431  -11.1517   19.2686 C   0  0  0  0  0  0  0  0  0  0  0  0
  -25.4146  -10.8445   21.4121 C   0  0  0  0  0  0  0  0  0  0  0  0
  -25.3954  -27.8678   18.4749 C   0  0  0  0  0  0  0  0  0  0  0  0
  -23.9422   -7.6838   18.2550 C   0  0  0  0  0  0  0  0  0  0  0  0
  -22.8122   -7.0462   17.7430 C   0  0  0  0  0  0  0  0  0  0  0  0
  -24.7707  -28.2721   20.7696 C   0  0  0  0  0  0  0  0  0  0  0  0
  -21.5497   -7.7209   19.6893 C   0  0  0  0  0  0  0  0  0  0  0  0
  -24.9084  -22.1383   20.2116 C   0  0  0  0  0  0  0  0  0  0  0  0
  -25.7029  -24.2686   20.7471 C   0  0  0  0  0  0  0  0  0  0  0  0
  -24.7572  -13.0564   20.6962 C   0  0  0  0  0  0  0  0  0  0  0  0
  -23.6215  -15.1679   21.5675 C   0  0  0  0  0  0  0  0  0  0  0  0
  -33.1469  -27.7697   20.0073 C   0  0  0  0  0  0  0  0  0  0  0  0
  -26.7040  -29.3922   19.8382 C   0  0  0  0  0  0  0  0  0  0  0  0
  -31.7980  -27.4959   20.3035 C   0  0  0  0  0  0  0  0  0  0  0  0
  -25.8436  -29.1637   20.9216 C   0  0  0  0  0  0  0  0  0  0  0  0
  -24.6213  -23.4686   20.4401 C   0  0  0  0  0  0  0  0  0  0  0  0
  -24.9194  -10.3121   20.2217 C   0  0  0  0  0  0  0  0  0  0  0  0
  -24.5492  -27.6266   19.5533 C   0  0  0  0  0  0  0  0  0  0  0  0
  -23.8760   -8.3399   19.4841 C   0  0  0  0  0  0  0  0  0  0  0  0
  -21.6159   -7.0648   18.4602 C   0  0  0  0  0  0  0  0  0  0  0  0
  -22.6798   -8.3585   20.2013 C   0  0  0  0  0  0  0  0  0  0  0  0
  -24.6742  -14.4737   20.9416 C   0  0  0  0  0  0  0  0  0  0  0  0
  -24.0220  -16.4816   21.5565 C   0  0  0  0  0  0  0  0  0  0  0  0
  -27.1216  -22.5001   20.5833 C   0  0  0  0  0  0  0  0  0  0  0  0
  -22.3916  -14.6697   22.1104 C   0  0  0  0  0  0  0  0  0  0  0  0
  -29.0894  -29.4040   21.9391 C   0  0  0  0  0  0  0  0  0  0  0  0
  -27.3158  -31.7233   23.3524 C   0  0  0  0  0  0  0  0  0  0  0  0
  -27.9341  -20.2428   22.4658 C   0  0  0  0  0  0  0  0  0  0  0  0
  -24.2479  -33.1418   23.8243 C   0  0  0  0  0  0  0  0  0  0  0  0
  -34.0246  -28.5491   20.9544 C   0  0  0  0  0  0  0  0  0  0  0  0
  -27.8474  -30.3612   19.9649 C   0  0  0  0  0  0  0  0  0  0  0  0
  -26.0437  -29.8438   22.2504 C   0  0  0  0  0  0  0  0  0  0  0  0
  -33.2411  -29.3556   21.9868 C   0  0  0  0  0  0  0  0  0  0  0  0
  -27.8392  -18.7503   19.1506 C   0  0  0  0  0  0  0  0  0  0  0  0
  -32.1417  -28.5009   22.6095 C   0  0  0  0  0  0  0  0  0  0  0  0
  -26.9385  -17.5386   19.3866 C   0  0  0  0  0  0  0  0  0  0  0  0
  -28.7159  -19.0431   20.3655 C   0  0  0  0  0  0  0  0  0  0  0  0
  -27.0457  -18.0113   21.8722 C   0  0  0  0  0  0  0  0  0  0  0  0
  -31.1338  -28.0405   21.5494 C   0  0  1  0  0  0  0  0  0  0  0  0
  -28.2996  -30.5665   21.4074 C   0  0  1  0  0  0  0  0  0  0  0  0
  -26.1233  -17.7008   20.6815 C   0  0  2  0  0  0  0  0  0  0  0  0
  -23.1073  -35.0021   25.0636 C   0  0  0  0  0  0  0  0  0  0  0  0
  -29.6012  -23.0384   20.2788 C   0  0  0  0  0  0  0  0  0  0  0  0
  -28.7633  -20.8392   19.5823 C   0  0  0  0  0  0  0  0  0  0  0  0
  -28.7158  -22.4215   23.2436 C   0  0  0  0  0  0  0  0  0  0  0  0
  -30.3002  -20.7816   22.2535 C   0  0  0  0  0  0  0  0  0  0  0  0
  -27.4771  -30.1008   25.9314 C   0  0  0  0  0  0  0  0  0  0  0  0
  -25.5854  -31.4724   26.8306 C   0  0  0  0  0  0  0  0  0  0  0  0
  -27.7449  -32.5689   26.2332 C   0  0  0  0  0  0  0  0  0  0  0  0
  -23.3666  -34.4320   21.3108 C   0  0  0  0  0  0  0  0  0  0  0  0
  -23.2167  -24.0115   20.3619 C   0  0  0  0  0  0  0  0  0  0  0  0
  -22.8254  -24.5090   18.9688 C   0  0  0  0  0  0  0  0  0  0  0  0
  -23.6609  -25.6919   18.4933 C   0  0  0  0  0  0  0  0  0  1  0  0
  -26.2204  -31.7481   24.3909 C   0  0  1  0  0  0  0  0  0  0  0  0
  -23.7869  -34.5871   23.7680 C   0  0  2  0  0  0  0  0  0  0  0  0
  -28.5099  -21.9625   20.6662 C   0  0  0  0  0  0  0  0  0  0  0  0
  -28.8779  -21.3687   22.1259 C   0  0  0  0  0  0  0  0  0  0  0  0
  -26.7541  -31.4581   25.8222 C   0  0  0  0  0  0  0  0  0  0  0  0
  -26.1517  -21.6182   20.2751 N   0  0  0  0  0  0  0  0  0  0  0  0
  -26.9713  -23.8159   20.8276 N   0  0  0  0  0  0  0  0  0  0  0  0
  -25.6687  -15.2798   20.5605 N   0  0  0  0  0  0  0  0  0  0  0  0
  -25.2426  -16.4941   20.9480 N   0  0  0  0  0  0  0  0  0  0  0  0
  -27.1793  -30.7776   22.3263 N   0  0  0  0  0  0  0  0  0  0  0  0
  -27.9045  -19.1632   21.5827 N   0  0  0  0  0  0  0  0  0  0  0  0
  -23.4457  -17.6158   22.0079 N   0  0  0  0  0  0  0  0  0  0  0  0
  -22.1387  -13.2930   22.0387 N   0  0  0  0  0  0  0  0  0  0  0  0
  -30.2285  -29.1178   21.2112 N   0  0  0  0  0  0  0  0  0  0  0  0
  -25.5548  -33.0388   24.2515 N   0  0  0  0  0  0  0  0  0  0  0  0
  -22.8223  -34.7799   22.6486 N   0  3  0  0  0  0  0  0  0  0  0  0
  -21.5346  -15.4251   22.6287 O   0  0  0  0  0  0  0  0  0  0  0  0
  -28.6952  -28.8116   22.9367 O   0  0  0  0  0  0  0  0  0  0  0  0
  -28.2541  -32.5188   23.4441 O   0  0  0  0  0  0  0  0  0  0  0  0
  -27.2428  -20.3235   23.4845 O   0  0  0  0  0  0  0  0  0  0  0  0
  -23.5200  -32.1983   23.5232 O   0  0  0  0  0  0  0  0  0  0  0  0
  -24.9986   -8.9731   19.9907 O   0  0  0  0  0  0  0  0  0  0  0  0
  -23.5038  -26.7657   19.4198 O   0  0  0  0  0  0  0  0  0  1  0  0
  -20.5304   -6.4538   17.9677 F   0  0  0  0  0  0  0  0  0  0  0  0
  -22.6098   -8.9882   21.3821 F   0  0  0  0  0  0  0  0  0  0  0  0
  1  2  1  0  0  0  0
  1  5  2  0  0  0  0
  2  6  2  0  0  0  0
  3  8  2  0  0  0  0
  3 17  1  0  0  0  0
  4  9  1  0  0  0  0
  4 17  2  0  0  0  0
  5 19  1  0  0  0  0
  6 21  1  0  0  0  0
  7 10  2  0  0  0  0
  7 20  1  0  0  0  0
  8 24  1  0  0  0  0
  9 24  2  0  0  0  0
 10 25  1  0  0  0  0
 11 12  2  0  0  0  0
 11 26  1  0  0  0  0
 12 27  1  0  0  0  0
 13 22  1  0  0  0  0
 13 25  2  0  0  0  0
 14 27  2  0  0  0  0
 14 28  1  0  0  0  0
 15 23  1  0  0  0  0
 15 66  2  0  0  0  0
 16 23  2  0  0  0  0
 16 67  1  0  0  0  0
 17 29  1  0  0  0  0
 18 29  1  0  0  0  0
 18 30  2  0  0  0  0
 18 32  1  0  0  0  0
 19 21  2  0  0  0  0
 19 37  1  0  0  0  0
 20 22  2  0  0  0  0
 20 38  1  0  0  0  0
 21 46  1  0  0  0  0
 22 39  1  0  0  0  0
 23 58  1  0  0  0  0
 24 82  1  0  0  0  0
 25 83  1  0  0  0  0
 26 28  2  0  0  0  0
 26 82  1  0  0  0  0
 27 84  1  0  0  0  0
 28 85  1  0  0  0  0
 29 68  2  0  0  0  0
 30 69  1  0  0  0  0
 30 72  1  0  0  0  0
 31 63  1  0  0  0  0
 31 66  1  0  0  0  0
 31 67  2  0  0  0  0
 32 73  1  0  0  0  0
 32 77  2  0  0  0  0
 33 47  1  0  0  0  0
 33 74  1  0  0  0  0
 33 78  2  0  0  0  0
 34 61  1  0  0  0  0
 34 70  1  0  0  0  0
 34 79  2  0  0  0  0
 35 64  1  0  0  0  0
 35 71  1  0  0  0  0
 35 80  2  0  0  0  0
 36 62  1  0  0  0  0
 36 75  1  0  0  0  0
 36 81  2  0  0  0  0
 37 40  1  0  0  0  0
 38 47  1  0  0  0  0
 39 70  1  0  0  0  0
 40 42  1  0  0  0  0
 41 43  1  0  0  0  0
 41 44  1  0  0  0  0
 42 46  1  0  0  0  0
 43 48  1  0  0  0  0
 44 71  1  0  0  0  0
 45 48  1  0  0  0  0
 45 71  1  0  0  0  0
 46 74  1  0  0  0  0
 47 70  1  0  0  0  0
 48 69  1  0  0  0  0
 49 62  1  0  0  0  0
 50 63  1  0  0  0  0
 51 63  1  0  0  0  0
 52 64  1  0  0  0  0
 53 64  1  0  0  0  0
 54 65  1  0  0  0  0
 55 65  1  0  0  0  0
 56 65  1  0  0  0  0
 57 76  1  0  0  0  0
 58 59  1  0  0  0  0
 59 60  1  0  0  0  0
 60 83  1  0  0  0  0
 61 65  1  0  0  0  0
 61 75  1  0  0  0  0
 62 76  1  0  0  0  0
 63 64  1  0  0  0  0
 68 69  1  0  0  0  0
M  CHG  1  76   1
M  ISO  4  35 100  60 101  64 100  83 101
M  END
> <Batch ID>
0068

> <Smiles>
CNC(C)C(=O)NC(C(=O)N1Cc2cc([101O:1][101CH2:1]CCc3cnc(C(C)(C)[100C:0](C)(C)[100C:0](=O)N4CCCC(n5nc(-c6ccc(Oc7ccc(F)cc7F)cc6)c(C(N)=O)c5N)C4)nc3)ccc2CC1C(=O)NC1CCCc2ccccc21)C(C)(C)C

> <Shape>
0.237

> <Color>
0.087

> <Negative vol penalty>
0.000

$$$$

  -OEChem-04052318143D

 86 94  0     1  0  0  0  0  0999 V2000
  -30.6277  -23.6108   16.1207 C   0  0  0  0  0  0  0  0  0  0  0  0
  -29.7182  -23.4957   17.1672 C   0  0  0  0  0  0  0  0  0  0  0  0
  -27.8273  -17.2534   21.3215 C   0  0  0  0  0  0  0  0  0  0  0  0
  -27.1674  -17.3519   18.9995 C   0  0  0  0  0  0  0  0  0  0  0  0
  -31.4767  -24.7148   16.0548 C   0  0  0  0  0  0  0  0  0  0  0  0
  -29.6581  -24.4840   18.1490 C   0  0  0  0  0  0  0  0  0  0  0  0
  -24.9038  -25.8109   19.2810 C   0  0  0  0  0  0  0  0  0  0  0  0
  -28.4188  -18.5114   21.2068 C   0  0  0  0  0  0  0  0  0  0  0  0
  -27.7589  -18.6099   18.8847 C   0  0  0  0  0  0  0  0  0  0  0  0
  -24.1837  -24.9527   20.1110 C   0  0  0  0  0  0  0  0  0  0  0  0
  -27.4169  -21.7405   21.1623 C   0  0  0  0  0  0  0  0  0  0  0  0
  -27.1746  -22.6658   22.1774 C   0  0  0  0  0  0  0  0  0  0  0  0
  -24.6412  -26.3954   21.9895 C   0  0  0  0  0  0  0  0  0  0  0  0
  -29.5436  -22.7812   22.6377 C   0  0  0  0  0  0  0  0  0  0  0  0
  -21.8514  -16.3423   23.4372 C   0  0  0  0  0  0  0  0  0  0  0  0
  -27.2016  -16.6736   20.2179 C   0  0  0  0  0  0  0  0  0  0  0  0
  -27.2229  -14.1664   20.6880 C   0  0  0  0  0  0  0  0  0  0  0  0
  -31.4202  -25.7219   17.0310 C   0  0  0  0  0  0  0  0  0  0  0  0
  -25.5082  -26.9640   19.8021 C   0  0  0  0  0  0  0  0  0  0  0  0
  -30.5080  -25.6018   18.0968 C   0  0  0  0  0  0  0  0  0  0  0  0
  -25.3662  -27.2679   21.1636 C   0  0  0  0  0  0  0  0  0  0  0  0
  -28.3847  -19.1896   19.9884 C   0  0  0  0  0  0  0  0  0  0  0  0
  -24.0547  -25.2434   21.4660 C   0  0  0  0  0  0  0  0  0  0  0  0
  -28.7226  -21.3354   20.8848 C   0  0  0  0  0  0  0  0  0  0  0  0
  -28.2379  -23.1862   22.9151 C   0  0  0  0  0  0  0  0  0  0  0  0
  -29.7859  -21.8558   21.6225 C   0  0  0  0  0  0  0  0  0  0  0  0
  -26.5908  -15.3739   20.3356 C   0  0  0  0  0  0  0  0  0  0  0  0
  -20.9871  -15.6641   22.6149 C   0  0  0  0  0  0  0  0  0  0  0  0
  -26.2174  -13.2312   20.6582 C   0  0  0  0  0  0  0  0  0  0  0  0
  -28.5961  -13.9128   21.0131 C   0  0  0  0  0  0  0  0  0  0  0  0
  -28.4979  -28.0168   20.0410 C   0  0  0  0  0  0  0  0  0  0  0  0
  -27.0513  -30.7013   21.1471 C   0  0  0  0  0  0  0  0  0  0  0  0
  -20.2598  -13.7237   21.2712 C   0  0  0  0  0  0  0  0  0  0  0  0
  -24.3218  -32.1241   22.6210 C   0  0  0  0  0  0  0  0  0  0  0  0
  -32.3907  -26.8731   16.9434 C   0  0  0  0  0  0  0  0  0  0  0  0
  -26.2591  -27.8934   18.8884 C   0  0  0  0  0  0  0  0  0  0  0  0
  -25.9788  -28.5038   21.7683 C   0  0  0  0  0  0  0  0  0  0  0  0
  -32.0053  -28.0627   17.8189 C   0  0  0  0  0  0  0  0  0  0  0  0
  -22.0507  -12.2678   18.5303 C   0  0  0  0  0  0  0  0  0  0  0  0
  -31.6161  -27.5927   19.2169 C   0  0  0  0  0  0  0  0  0  0  0  0
  -23.4686  -12.8123   18.6982 C   0  0  0  0  0  0  0  0  0  0  0  0
  -21.0046  -13.2946   18.9527 C   0  0  0  0  0  0  0  0  0  0  0  0
  -22.6044  -14.3561   20.5134 C   0  0  0  0  0  0  0  0  0  0  0  0
  -30.3956  -26.6655   19.1674 C   0  0  1  0  0  0  0  0  0  0  0  0
  -27.2665  -28.7708   19.6252 C   0  0  1  0  0  0  0  0  0  0  0  0
  -23.6928  -13.3391   20.1267 C   0  0  2  0  0  0  0  0  0  0  0  0
  -23.4476  -34.3322   23.4316 C   0  0  0  0  0  0  0  0  0  0  0  0
  -19.3489  -14.0039   23.5380 C   0  0  0  0  0  0  0  0  0  0  0  0
  -21.6897  -13.2316   23.1403 C   0  0  0  0  0  0  0  0  0  0  0  0
  -28.8563  -30.5127   23.5999 C   0  0  0  0  0  0  0  0  0  0  0  0
  -27.3262  -32.1173   24.7629 C   0  0  0  0  0  0  0  0  0  0  0  0
  -28.5476  -32.8285   22.7074 C   0  0  0  0  0  0  0  0  0  0  0  0
  -23.4681  -20.5660   25.8820 C   0  0  0  0  0  0  0  0  0  0  0  0
  -21.2987  -21.7746   25.7039 C   0  0  0  0  0  0  0  0  0  0  0  0
  -22.0371  -32.0408   20.7417 C   0  0  0  0  0  0  0  0  0  0  0  0
  -22.0496  -22.3975   22.7141 C   0  0  0  0  0  0  0  0  0  0  0  0
  -22.9968  -21.9142   23.8221 C   0  0  0  0  0  0  0  0  0  0  0  0
  -21.6690  -19.7341   24.2975 C   0  0  0  0  0  0  0  0  0  0  0  0
  -22.5760  -18.8153   23.4679 C   0  0  0  0  0  0  0  0  0  0  0  0
  -22.7751  -23.2498   21.6759 C   0  0  0  0  0  0  0  0  0  1  0  0
  -26.6222  -31.2025   22.5049 C   0  0  1  0  0  0  0  0  0  0  0  0
  -23.5138  -33.3589   22.2650 C   0  0  2  0  0  0  0  0  0  0  0  0
  -20.6045  -14.2465   22.6431 C   0  0  0  0  0  0  0  0  0  0  0  0
  -27.8280  -31.6409   23.3831 C   0  0  0  0  0  0  0  0  0  0  0  0
  -22.3574  -20.9916   24.8979 C   0  0  0  0  0  0  0  0  0  0  0  0
  -25.2850  -15.2226   20.0993 N   0  0  0  0  0  0  0  0  0  0  0  0
  -20.4695  -16.5221   21.6846 N   0  0  0  0  0  0  0  0  0  0  0  0
  -20.9903  -17.7245   21.9039 N   0  0  0  0  0  0  0  0  0  0  0  0
  -21.8187  -17.6145   22.9550 N   0  0  0  0  0  0  0  0  0  0  0  0
  -25.0883  -13.9089   20.3034 N   0  0  0  0  0  0  0  0  0  0  0  0
  -26.7086  -29.3780   20.8352 N   0  0  0  0  0  0  0  0  0  0  0  0
  -21.2654  -13.7871   20.3065 N   0  0  0  0  0  0  0  0  0  0  0  0
  -26.1979  -11.9034   20.9012 N   0  0  0  0  0  0  0  0  0  0  0  0
  -29.4765  -13.5739   19.9766 N   0  0  0  0  0  0  0  0  0  0  0  0
  -29.1829  -27.4354   18.9912 N   0  0  0  0  0  0  0  0  0  0  0  0
  -25.6459  -32.2586   22.2603 N   0  0  0  0  0  0  0  0  0  0  0  0
  -22.1224  -32.9775   21.8916 N   0  3  0  0  0  0  0  0  0  0  0  0
  -29.0260  -13.9685   22.1902 O   0  0  0  0  0  0  0  0  0  0  0  0
  -28.8047  -27.9676   21.2264 O   0  0  0  0  0  0  0  0  0  0  0  0
  -27.6616  -31.4584   20.3881 O   0  0  0  0  0  0  0  0  0  0  0  0
  -19.1309  -13.2703   21.0659 O   0  0  0  0  0  0  0  0  0  0  0  0
  -23.8286  -31.1402   23.1680 O   0  0  0  0  0  0  0  0  0  0  0  0
  -28.9616  -20.4173   19.8761 O   0  0  0  0  0  0  0  0  0  0  0  0
  -23.3530  -24.4071   22.2784 O   0  0  0  0  0  0  0  0  0  1  0  0
  -28.0052  -24.0760   23.8890 F   0  0  0  0  0  0  0  0  0  0  0  0
  -31.0425  -21.4714   21.3598 F   0  0  0  0  0  0  0  0  0  0  0  0
  1  2  1  0  0  0  0
  1  5  2  0  0  0  0
  2  6  2  0  0  0  0
  3  8  2  0  0  0  0
  3 16  1  0  0  0  0
  4  9  1  0  0  0  0
  4 16  2  0  0  0  0
  5 18  1  0  0  0  0
  6 20  1  0  0  0  0
  7 10  2  0  0  0  0
  7 19  1  0  0  0  0
  8 22  1  0  0  0  0
  9 22  2  0  0  0  0
 10 23  1  0  0  0  0
 11 12  2  0  0  0  0
 11 24  1  0  0  0  0
 12 25  1  0  0  0  0
 13 21  1  0  0  0  0
 13 23  2  0  0  0  0
 14 25  2  0  0  0  0
 14 26  1  0  0  0  0
 15 28  2  0  0  0  0
 15 69  1  0  0  0  0
 16 27  1  0  0  0  0
 17 27  1  0  0  0  0
 17 29  2  0  0  0  0
 17 30  1  0  0  0  0
 18 20  2  0  0  0  0
 18 35  1  0  0  0  0
 19 21  2  0  0  0  0
 19 36  1  0  0  0  0
 20 44  1  0  0  0  0
 21 37  1  0  0  0  0
 22 83  1  0  0  0  0
 23 84  1  0  0  0  0
 24 26  2  0  0  0  0
 24 83  1  0  0  0  0
 25 85  1  0  0  0  0
 26 86  1  0  0  0  0
 27 66  2  0  0  0  0
 28 63  1  0  0  0  0
 28 67  1  0  0  0  0
 29 70  1  0  0  0  0
 29 73  1  0  0  0  0
 30 74  1  0  0  0  0
 30 78  2  0  0  0  0
 31 45  1  0  0  0  0
 31 75  1  0  0  0  0
 31 79  2  0  0  0  0
 32 61  1  0  0  0  0
 32 71  1  0  0  0  0
 32 80  2  0  0  0  0
 33 63  1  0  0  0  0
 33 72  1  0  0  0  0
 33 81  2  0  0  0  0
 34 62  1  0  0  0  0
 34 76  1  0  0  0  0
 34 82  2  0  0  0  0
 35 38  1  0  0  0  0
 36 45  1  0  0  0  0
 37 71  1  0  0  0  0
 38 40  1  0  0  0  0
 39 41  1  0  0  0  0
 39 42  1  0  0  0  0
 40 44  1  0  0  0  0
 41 46  1  0  0  0  0
 42 72  1  0  0  0  0
 43 46  1  0  0  0  0
 43 72  1  0  0  0  0
 44 75  1  0  0  0  0
 45 71  1  0  0  0  0
 46 70  1  0  0  0  0
 47 62  1  0  0  0  0
 48 63  1  0  0  0  0
 49 63  1  0  0  0  0
 50 64  1  0  0  0  0
 51 64  1  0  0  0  0
 52 64  1  0  0  0  0
 53 65  1  0  0  0  0
 54 65  1  0  0  0  0
 55 77  1  0  0  0  0
 56 57  1  0  0  0  0
 56 60  1  0  0  0  0
 57 65  1  0  0  0  0
 58 59  1  0  0  0  0
 58 65  1  0  0  0  0
 59 69  1  0  0  0  0
 60 84  1  0  0  0  0
 61 64  1  0  0  0  0
 61 76  1  0  0  0  0
 62 77  1  0  0  0  0
 66 70  1  0  0  0  0
 67 68  2  0  0  0  0
 68 69  1  0  0  0  0
M  CHG  1  77   1
M  ISO  4  33 100  60 101  63 100  84 101
M  END
> <Batch ID>
0068

> <Smiles>
CNC(C)C(=O)NC(C(=O)N1Cc2cc([101O:1][101CH2:1]CCC(C)(C)CCn3cc([100C:0](C)(C)[100C:0](=O)N4CCCC(n5nc(-c6ccc(Oc7ccc(F)cc7F)cc6)c(C(N)=O)c5N)C4)nn3)ccc2CC1C(=O)NC1CCCc2ccccc21)C(C)(C)C

> <Shape>
0.236

> <Color>
0.069

> <Negative vol penalty>
0.000

$$$$

  -OEChem-04052318143D

 85 93  0     1  0  0  0  0  0999 V2000
  -18.6704   -8.8986   21.2853 C   0  0  0  0  0  0  0  0  0  0  0  0
  -18.5620  -10.1039   20.5990 C   0  0  0  0  0  0  0  0  0  0  0  0
  -29.8605  -24.1201   20.1145 C   0  0  0  0  0  0  0  0  0  0  0  0
  -27.7354  -23.7698   19.0198 C   0  0  0  0  0  0  0  0  0  0  0  0
  -19.5860   -8.7720   22.3291 C   0  0  0  0  0  0  0  0  0  0  0  0
  -19.3685  -11.1837   20.9570 C   0  0  0  0  0  0  0  0  0  0  0  0
  -22.7081  -16.8439   18.1064 C   0  0  0  0  0  0  0  0  0  0  0  0
  -30.0757  -22.7422   20.1376 C   0  0  0  0  0  0  0  0  0  0  0  0
  -27.9507  -22.3918   19.0428 C   0  0  0  0  0  0  0  0  0  0  0  0
  -22.8255  -18.2228   18.2753 C   0  0  0  0  0  0  0  0  0  0  0  0
  -29.7357  -20.1217   17.2877 C   0  0  0  0  0  0  0  0  0  0  0  0
  -29.4610  -19.4048   16.1232 C   0  0  0  0  0  0  0  0  0  0  0  0
  -24.4273  -17.8639   20.0429 C   0  0  0  0  0  0  0  0  0  0  0  0
  -27.8294  -18.0851   17.3205 C   0  0  0  0  0  0  0  0  0  0  0  0
  -28.6902  -24.6339   19.5556 C   0  0  0  0  0  0  0  0  0  0  0  0
  -28.8404  -26.9595   18.5180 C   0  0  0  0  0  0  0  0  0  0  0  0
  -20.4109   -9.8478   22.6937 C   0  0  0  0  0  0  0  0  0  0  0  0
  -23.4425  -15.9629   18.9132 C   0  0  0  0  0  0  0  0  0  0  0  0
  -20.2950  -11.0718   22.0075 C   0  0  0  0  0  0  0  0  0  0  0  0
  -24.3194  -16.4742   19.8805 C   0  0  0  0  0  0  0  0  0  0  0  0
  -29.1209  -21.8780   19.6017 C   0  0  0  0  0  0  0  0  0  0  0  0
  -23.6830  -18.7330   19.2456 C   0  0  0  0  0  0  0  0  0  0  0  0
  -29.0574  -19.8202   18.4687 C   0  0  0  0  0  0  0  0  0  0  0  0
  -28.5078  -18.3865   16.1395 C   0  0  0  0  0  0  0  0  0  0  0  0
  -28.1042  -18.8020   18.4851 C   0  0  0  0  0  0  0  0  0  0  0  0
  -28.4670  -26.0572   19.5320 C   0  0  0  0  0  0  0  0  0  0  0  0
  -28.4056  -28.1819   18.9690 C   0  0  0  0  0  0  0  0  0  0  0  0
  -19.3762  -27.3745   23.1219 C   0  0  0  0  0  0  0  0  0  0  0  0
  -20.2360  -26.3653   21.3112 C   0  0  0  0  0  0  0  0  0  0  0  0
  -20.9665  -28.3997   21.9149 C   0  0  0  0  0  0  0  0  0  0  0  0
  -29.5194  -26.7147   17.2792 C   0  0  0  0  0  0  0  0  0  0  0  0
  -22.6987  -13.6962   21.0139 C   0  0  0  0  0  0  0  0  0  0  0  0
  -25.9005  -13.1760   20.9986 C   0  0  0  0  0  0  0  0  0  0  0  0
  -29.0329  -14.4060   20.4310 C   0  0  0  0  0  0  0  0  0  0  0  0
  -24.0760  -29.8229   22.7654 C   0  0  0  0  0  0  0  0  0  0  0  0
  -21.3523   -9.6780   23.8597 C   0  0  0  0  0  0  0  0  0  0  0  0
  -23.3247  -14.4786   18.7004 C   0  0  0  0  0  0  0  0  0  0  0  0
  -25.1452  -15.5713   20.7587 C   0  0  0  0  0  0  0  0  0  0  0  0
  -22.4335  -10.7533   23.9312 C   0  0  0  0  0  0  0  0  0  0  0  0
  -27.5438  -30.5914   23.0116 C   0  0  0  0  0  0  0  0  0  0  0  0
  -21.8239  -12.1373   23.7317 C   0  0  0  0  0  0  0  0  0  0  0  0
  -28.2073  -29.5979   22.0562 C   0  0  0  0  0  0  0  0  0  0  0  0
  -26.3512  -29.9689   23.7342 C   0  0  0  0  0  0  0  0  0  0  0  0
  -26.0037  -28.3663   21.8945 C   0  0  0  0  0  0  0  0  0  0  0  0
  -21.1698  -12.2582   22.3500 C   0  0  1  0  0  0  0  0  0  0  0  0
  -23.7333  -13.6652   19.9247 C   0  0  1  0  0  0  0  0  0  0  0  0
  -27.1775  -28.9653   21.1009 C   0  0  2  0  0  0  0  0  0  0  0  0
  -18.4365  -27.3684   24.2793 C   0  0  0  0  0  0  0  0  0  0  0  0
  -21.6125  -30.2491   20.3262 C   0  0  0  0  0  0  0  0  0  0  0  0
  -31.4543  -13.7564   20.5422 C   0  0  0  0  0  0  0  0  0  0  0  0
  -25.8349  -13.4606   24.0359 C   0  0  0  0  0  0  0  0  0  0  0  0
  -28.3208  -13.7548   23.9923 C   0  0  0  0  0  0  0  0  0  0  0  0
  -27.3048  -11.6218   23.1919 C   0  0  0  0  0  0  0  0  0  0  0  0
  -29.4035  -14.8439   17.5276 C   0  0  0  0  0  0  0  0  0  0  0  0
  -20.2863  -25.1845   20.3744 C   0  0  0  0  0  0  0  0  0  0  0  0
  -21.4709  -24.2446   20.6255 C   0  0  0  0  0  0  0  0  0  0  0  0
  -21.4616  -23.0122   19.7156 C   0  0  0  0  0  0  0  0  0  0  0  0
  -22.6741  -22.1210   19.9789 C   0  0  0  0  0  0  0  0  0  0  0  0
  -22.6525  -20.8720   19.1092 C   0  0  0  0  0  0  0  0  0  1  0  0
  -21.8565  -29.5731   21.6835 C   0  0  2  0  0  0  0  0  0  0  0  0
  -27.0740  -13.7093   21.7845 C   0  0  1  0  0  0  0  0  0  0  0  0
  -30.2144  -13.8384   19.6653 C   0  0  2  0  0  0  0  0  0  0  0  0
  -27.1168  -13.1539   23.2360 C   0  0  0  0  0  0  0  0  0  0  0  0
  -27.8432  -26.6553   20.5504 N   0  0  0  0  0  0  0  0  0  0  0  0
  -19.3659  -26.2893   22.3309 N   0  0  0  0  0  0  0  0  0  0  0  0
  -20.1469  -28.4645   22.9765 N   0  0  0  0  0  0  0  0  0  0  0  0
  -21.0659  -27.3855   21.0405 N   0  0  0  0  0  0  0  0  0  0  0  0
  -27.8213  -27.9466   20.1787 N   0  0  0  0  0  0  0  0  0  0  0  0
  -24.9904  -14.1274   20.5165 N   0  0  0  0  0  0  0  0  0  0  0  0
  -25.4118  -29.3884   22.7717 N   0  0  0  0  0  0  0  0  0  0  0  0
  -28.4700  -29.4243   18.4448 N   0  0  0  0  0  0  0  0  0  0  0  0
  -29.8953  -25.4000   16.9718 N   0  0  0  0  0  0  0  0  0  0  0  0
  -22.1769  -12.4563   21.3297 N   0  0  0  0  0  0  0  0  0  0  0  0
  -28.2638  -13.4101   20.9949 N   0  0  0  0  0  0  0  0  0  0  0  0
  -23.2539  -29.2263   21.8173 N   0  0  0  0  0  0  0  0  0  0  0  0
  -30.5279  -14.6952   18.4870 N   0  3  0  0  0  0  0  0  0  0  0  0
  -29.7995  -27.6369   16.4764 O   0  0  0  0  0  0  0  0  0  0  0  0
  -22.3973  -14.7658   21.5306 O   0  0  0  0  0  0  0  0  0  0  0  0
  -25.7990  -11.9607   20.8132 O   0  0  0  0  0  0  0  0  0  0  0  0
  -28.8161  -15.6122   20.5230 O   0  0  0  0  0  0  0  0  0  0  0  0
  -23.6491  -30.6830   23.5432 O   0  0  0  0  0  0  0  0  0  0  0  0
  -29.3307  -20.5334   19.6238 O   0  0  0  0  0  0  0  0  0  0  0  0
  -23.7990  -20.0785   19.4130 O   0  0  0  0  0  0  0  0  0  1  0  0
  -28.2429  -17.6992   15.0208 F   0  0  0  0  0  0  0  0  0  0  0  0
  -27.4485  -18.5086   19.6163 F   0  0  0  0  0  0  0  0  0  0  0  0
  1  2  1  0  0  0  0
  1  5  2  0  0  0  0
  2  6  2  0  0  0  0
  3  8  2  0  0  0  0
  3 15  1  0  0  0  0
  4  9  1  0  0  0  0
  4 15  2  0  0  0  0
  5 17  1  0  0  0  0
  6 19  1  0  0  0  0
  7 10  2  0  0  0  0
  7 18  1  0  0  0  0
  8 21  1  0  0  0  0
  9 21  2  0  0  0  0
 10 22  1  0  0  0  0
 11 12  2  0  0  0  0
 11 23  1  0  0  0  0
 12 24  1  0  0  0  0
 13 20  1  0  0  0  0
 13 22  2  0  0  0  0
 14 24  2  0  0  0  0
 14 25  1  0  0  0  0
 15 26  1  0  0  0  0
 16 26  1  0  0  0  0
 16 27  2  0  0  0  0
 16 31  1  0  0  0  0
 17 19  2  0  0  0  0
 17 36  1  0  0  0  0
 18 20  2  0  0  0  0
 18 37  1  0  0  0  0
 19 45  1  0  0  0  0
 20 38  1  0  0  0  0
 21 82  1  0  0  0  0
 22 83  1  0  0  0  0
 23 25  2  0  0  0  0
 23 82  1  0  0  0  0
 24 84  1  0  0  0  0
 25 85  1  0  0  0  0
 26 64  2  0  0  0  0
 27 68  1  0  0  0  0
 27 71  1  0  0  0  0
 28 48  1  0  0  0  0
 28 65  2  0  0  0  0
 28 66  1  0  0  0  0
 29 55  1  0  0  0  0
 29 65  1  0  0  0  0
 29 67  2  0  0  0  0
 30 60  1  0  0  0  0
 30 66  2  0  0  0  0
 30 67  1  0  0  0  0
 31 72  1  0  0  0  0
 31 77  2  0  0  0  0
 32 46  1  0  0  0  0
 32 73  1  0  0  0  0
 32 78  2  0  0  0  0
 33 61  1  0  0  0  0
 33 69  1  0  0  0  0
 33 79  2  0  0  0  0
 34 62  1  0  0  0  0
 34 74  1  0  0  0  0
 34 80  2  0  0  0  0
 35 70  1  0  0  0  0
 35 75  1  0  0  0  0
 35 81  2  0  0  0  0
 36 39  1  0  0  0  0
 37 46  1  0  0  0  0
 38 69  1  0  0  0  0
 39 41  1  0  0  0  0
 40 42  1  0  0  0  0
 40 43  1  0  0  0  0
 41 45  1  0  0  0  0
 42 47  1  0  0  0  0
 43 70  1  0  0  0  0
 44 47  1  0  0  0  0
 44 70  1  0  0  0  0
 45 73  1  0  0  0  0
 46 69  1  0  0  0  0
 47 68  1  0  0  0  0
 49 60  1  0  0  0  0
 50 62  1  0  0  0  0
 51 63  1  0  0  0  0
 52 63  1  0  0  0  0
 53 63  1  0  0  0  0
 54 76  1  0  0  0  0
 55 56  1  0  0  0  0
 56 57  1  0  0  0  0
 57 58  1  0  0  0  0
 58 59  1  0  0  0  0
 59 83  1  0  0  0  0
 60 75  1  0  0  0  0
 61 63  1  0  0  0  0
 61 74  1  0  0  0  0
 62 76  1  0  0  0  0
 64 68  1  0  0  0  0
M  CHG  1  76   1
M  ISO  4  35 100  59 101  75 100  83 101
M  END
> <Batch ID>
0068

> <Smiles>
CNC(C)C(=O)NC(C(=O)N1Cc2cc([101O:1][101CH2:1]CCCCc3nc(C)nc(C(C)[100NH:0][100C:0](=O)N4CCCC(n5nc(-c6ccc(Oc7ccc(F)cc7F)cc6)c(C(N)=O)c5N)C4)n3)ccc2CC1C(=O)NC1CCCc2ccccc21)C(C)(C)C

> <Shape>
0.246

> <Color>
0.071

> <Negative vol penalty>
0.000

$$$$

  -OEChem-04052318143D

 88 96  0     1  0  0  0  0  0999 V2000
  -21.4523  -12.7509   21.5876 C   0  0  0  0  0  0  0  0  0  0  0  0
  -21.8045  -13.9921   22.1080 C   0  0  0  0  0  0  0  0  0  0  0  0
  -23.1462  -30.1374   22.4232 C   0  0  0  0  0  0  0  0  0  0  0  0
  -24.1137  -29.0133   24.3304 C   0  0  0  0  0  0  0  0  0  0  0  0
  -22.4179  -11.9542   20.9739 C   0  0  0  0  0  0  0  0  0  0  0  0
  -23.1229  -14.4368   22.0158 C   0  0  0  0  0  0  0  0  0  0  0  0
  -23.4435  -19.2742   20.5523 C   0  0  0  0  0  0  0  0  0  0  0  0
  -21.8688  -29.8951   22.9284 C   0  0  0  0  0  0  0  0  0  0  0  0
  -22.8363  -28.7710   24.8356 C   0  0  0  0  0  0  0  0  0  0  0  0
  -23.1895  -20.2492   21.5160 C   0  0  0  0  0  0  0  0  0  0  0  0
  -18.3410  -29.2565   23.5372 C   0  0  0  0  0  0  0  0  0  0  0  0
  -17.3686  -28.7933   22.6510 C   0  0  0  0  0  0  0  0  0  0  0  0
  -25.5626  -20.5669   21.8111 C   0  0  0  0  0  0  0  0  0  0  0  0
  -18.7208  -26.8461   22.1850 C   0  0  0  0  0  0  0  0  0  0  0  0
  -26.2425  -24.5910   22.8155 C   0  0  0  0  0  0  0  0  0  0  0  0
  -24.2686  -29.6965   23.1242 C   0  0  0  0  0  0  0  0  0  0  0  0
  -26.4026  -31.0673   22.8507 C   0  0  0  0  0  0  0  0  0  0  0  0
  -23.7468  -12.3935   20.8655 C   0  0  0  0  0  0  0  0  0  0  0  0
  -24.7611  -18.9300   20.2180 C   0  0  0  0  0  0  0  0  0  0  0  0
  -24.1075  -13.6447   21.4012 C   0  0  0  0  0  0  0  0  0  0  0  0
  -25.8305  -19.5891   20.8409 C   0  0  0  0  0  0  0  0  0  0  0  0
  -21.7139  -29.2119   24.1346 C   0  0  0  0  0  0  0  0  0  0  0  0
  -24.2492  -20.8936   22.1476 C   0  0  0  0  0  0  0  0  0  0  0  0
  -19.5034  -28.5146   23.7473 C   0  0  0  0  0  0  0  0  0  0  0  0
  -17.5585  -27.5881   21.9750 C   0  0  0  0  0  0  0  0  0  0  0  0
  -19.6933  -27.3094   23.0712 C   0  0  0  0  0  0  0  0  0  0  0  0
  -25.5884  -29.9460   22.6025 C   0  0  0  0  0  0  0  0  0  0  0  0
  -26.0360  -22.9992   24.9488 C   0  0  0  0  0  0  0  0  0  0  0  0
  -24.9741  -23.7719   24.5330 C   0  0  0  0  0  0  0  0  0  0  0  0
  -27.3046  -23.8190   23.2316 C   0  0  0  0  0  0  0  0  0  0  0  0
  -27.5467  -30.8271   22.1297 C   0  0  0  0  0  0  0  0  0  0  0  0
  -26.1475  -32.2226   23.6605 C   0  0  0  0  0  0  0  0  0  0  0  0
  -26.4999  -16.2751   20.3963 C   0  0  0  0  0  0  0  0  0  0  0  0
  -28.6869  -18.0654   18.8043 C   0  0  0  0  0  0  0  0  0  0  0  0
  -29.8745  -21.1674   18.0209 C   0  0  0  0  0  0  0  0  0  0  0  0
  -30.1622  -25.8040   20.1857 C   0  0  0  0  0  0  0  0  0  0  0  0
  -24.7654  -11.4769   20.2355 C   0  0  0  0  0  0  0  0  0  0  0  0
  -25.0181  -17.8952   19.1571 C   0  0  0  0  0  0  0  0  0  0  0  0
  -27.2633  -19.2705   20.5033 C   0  0  0  0  0  0  0  0  0  0  0  0
  -26.0614  -12.1829   19.8454 C   0  0  0  0  0  0  0  0  0  0  0  0
  -29.0961  -28.5662   18.2082 C   0  0  0  0  0  0  0  0  0  0  0  0
  -26.5462  -13.0758   20.9832 C   0  0  0  0  0  0  0  0  0  0  0  0
  -28.1497  -29.3342   19.1325 C   0  0  0  0  0  0  0  0  0  0  0  0
  -28.9775  -27.0567   18.4070 C   0  0  0  0  0  0  0  0  0  0  0  0
  -28.1977  -27.3685   20.7240 C   0  0  0  0  0  0  0  0  0  0  0  0
  -25.5220  -14.1726   21.2985 C   0  0  1  0  0  0  0  0  0  0  0  0
  -26.4006  -17.2592   19.2652 C   0  0  1  0  0  0  0  0  0  0  0  0
  -28.3214  -28.8968   20.5997 C   0  0  2  0  0  0  0  0  0  0  0  0
  -25.9297  -22.1074   26.1382 C   0  0  0  0  0  0  0  0  0  0  0  0
  -31.6976  -22.3106   16.7298 C   0  0  0  0  0  0  0  0  0  0  0  0
  -21.7065  -22.1681   26.0662 C   0  0  0  0  0  0  0  0  0  0  0  0
  -22.6691  -24.7323   24.5416 C   0  0  0  0  0  0  0  0  0  0  0  0
  -23.7248  -24.2822   26.7341 C   0  0  0  0  0  0  0  0  0  0  0  0
  -30.6864  -17.3435   20.9931 C   0  0  0  0  0  0  0  0  0  0  0  0
  -32.1357  -19.2210   20.1916 C   0  0  0  0  0  0  0  0  0  0  0  0
  -31.6211  -17.3095   18.6737 C   0  0  0  0  0  0  0  0  0  0  0  0
  -27.9281  -22.5502   16.2721 C   0  0  0  0  0  0  0  0  0  0  0  0
  -30.7571  -23.1918   22.1434 C   0  0  0  0  0  0  0  0  0  0  0  0
  -31.2574  -24.6285   22.0772 C   0  0  0  0  0  0  0  0  0  0  0  0
  -29.5400  -23.0288   23.0459 C   0  0  0  0  0  0  0  0  0  0  0  0
  -22.8070  -21.7092   23.8538 C   0  0  0  0  0  0  0  0  0  1  0  0
  -29.8096  -18.9902   19.2082 C   0  0  1  0  0  0  0  0  0  0  0  0
  -30.2694  -21.7892   16.6935 C   0  0  2  0  0  0  0  0  0  0  0  0
  -23.0208  -22.2866   25.2680 C   0  0  1  0  0  0  0  0  0  0  0  0
  -23.6187  -23.7516   25.2817 C   0  0  0  0  0  0  0  0  0  0  0  0
  -31.0363  -18.2209   19.7746 C   0  0  0  0  0  0  0  0  0  0  0  0
  -25.0581  -24.5814   23.4587 N   0  0  0  0  0  0  0  0  0  0  0  0
  -26.1661  -29.0594   21.7875 N   0  0  0  0  0  0  0  0  0  0  0  0
  -27.2204  -23.0091   24.3057 N   0  0  0  0  0  0  0  0  0  0  0  0
  -27.3556  -29.6236   21.5171 N   0  0  0  0  0  0  0  0  0  0  0  0
  -27.4631  -18.2470   19.4641 N   0  0  0  0  0  0  0  0  0  0  0  0
  -29.1517  -26.7082   19.8191 N   0  0  0  0  0  0  0  0  0  0  0  0
  -28.6875  -31.5301   21.9662 N   0  0  0  0  0  0  0  0  0  0  0  0
  -24.9210  -32.3095   24.3331 N   0  0  0  0  0  0  0  0  0  0  0  0
  -25.5972  -15.2321   20.3155 N   0  0  0  0  0  0  0  0  0  0  0  0
  -30.1060  -19.8083   18.0372 N   0  0  0  0  0  0  0  0  0  0  0  0
  -30.2631  -25.5334   21.5449 N   0  0  0  0  0  0  0  0  0  0  0  0
  -29.3627  -22.9249   16.3634 N   0  3  0  0  0  0  0  0  0  0  0  0
  -26.9759  -33.1581   23.7710 O   0  0  0  0  0  0  0  0  0  0  0  0
  -27.3349  -16.4484   21.2764 O   0  0  0  0  0  0  0  0  0  0  0  0
  -28.8862  -17.2180   17.9303 O   0  0  0  0  0  0  0  0  0  0  0  0
  -29.4108  -21.8226   18.9516 O   0  0  0  0  0  0  0  0  0  0  0  0
  -30.9218  -25.2811   19.3633 O   0  0  0  0  0  0  0  0  0  0  0  0
  -20.4676  -28.9755   24.6280 O   0  0  0  0  0  0  0  0  0  0  0  0
  -24.0041  -21.8452   23.0891 O   0  0  0  0  0  0  0  0  0  1  0  0
  -28.4900  -23.8558   22.5534 O   0  0  0  0  0  0  0  0  0  0  0  0
  -16.6238  -27.1426   21.1252 F   0  0  0  0  0  0  0  0  0  0  0  0
  -20.8074  -26.5917   23.2698 F   0  0  0  0  0  0  0  0  0  0  0  0
  1  2  1  0  0  0  0
  1  5  2  0  0  0  0
  2  6  2  0  0  0  0
  3  8  2  0  0  0  0
  3 16  1  0  0  0  0
  4  9  1  0  0  0  0
  4 16  2  0  0  0  0
  5 18  1  0  0  0  0
  6 20  1  0  0  0  0
  7 10  2  0  0  0  0
  7 19  1  0  0  0  0
  8 22  1  0  0  0  0
  9 22  2  0  0  0  0
 10 23  1  0  0  0  0
 11 12  2  0  0  0  0
 11 24  1  0  0  0  0
 12 25  1  0  0  0  0
 13 21  1  0  0  0  0
 13 23  2  0  0  0  0
 14 25  2  0  0  0  0
 14 26  1  0  0  0  0
 15 30  1  0  0  0  0
 15 67  2  0  0  0  0
 16 27  1  0  0  0  0
 17 27  1  0  0  0  0
 17 31  2  0  0  0  0
 17 32  1  0  0  0  0
 18 20  2  0  0  0  0
 18 37  1  0  0  0  0
 19 21  2  0  0  0  0
 19 38  1  0  0  0  0
 20 46  1  0  0  0  0
 21 39  1  0  0  0  0
 22 84  1  0  0  0  0
 23 85  1  0  0  0  0
 24 26  2  0  0  0  0
 24 84  1  0  0  0  0
 25 87  1  0  0  0  0
 26 88  1  0  0  0  0
 27 68  2  0  0  0  0
 28 29  2  0  0  0  0
 28 49  1  0  0  0  0
 28 69  1  0  0  0  0
 29 65  1  0  0  0  0
 29 67  1  0  0  0  0
 30 69  2  0  0  0  0
 30 86  1  0  0  0  0
 31 70  1  0  0  0  0
 31 73  1  0  0  0  0
 32 74  1  0  0  0  0
 32 79  2  0  0  0  0
 33 47  1  0  0  0  0
 33 75  1  0  0  0  0
 33 80  2  0  0  0  0
 34 62  1  0  0  0  0
 34 71  1  0  0  0  0
 34 81  2  0  0  0  0
 35 63  1  0  0  0  0
 35 76  1  0  0  0  0
 35 82  2  0  0  0  0
 36 72  1  0  0  0  0
 36 77  1  0  0  0  0
 36 83  2  0  0  0  0
 37 40  1  0  0  0  0
 38 47  1  0  0  0  0
 39 71  1  0  0  0  0
 40 42  1  0  0  0  0
 41 43  1  0  0  0  0
 41 44  1  0  0  0  0
 42 46  1  0  0  0  0
 43 48  1  0  0  0  0
 44 72  1  0  0  0  0
 45 48  1  0  0  0  0
 45 72  1  0  0  0  0
 46 75  1  0  0  0  0
 47 71  1  0  0  0  0
 48 70  1  0  0  0  0
 50 63  1  0  0  0  0
 51 64  1  0  0  0  0
 52 65  1  0  0  0  0
 53 65  1  0  0  0  0
 54 66  1  0  0  0  0
 55 66  1  0  0  0  0
 56 66  1  0  0  0  0
 57 78  1  0  0  0  0
 58 59  1  0  0  0  0
 58 60  1  0  0  0  0
 59 77  1  0  0  0  0
 60 86  1  0  0  0  0
 61 64  1  0  0  0  0
 61 85  1  0  0  0  0
 62 66  1  0  0  0  0
 62 76  1  0  0  0  0
 63 78  1  0  0  0  0
 64 65  1  0  0  0  0
 68 70  1  0  0  0  0
M  CHG  1  78   1
M  ISO  4  36 100  61 101  77 100  85 101
M  END
> <Batch ID>
0068

> <Smiles>
CNC(C)C(=O)NC(C(=O)N1Cc2cc([101O:1][101CH2:1]C(C)C(C)(C)c3ncc(OCCC[100NH:0][100C:0](=O)N4CCCC(n5nc(-c6ccc(Oc7ccc(F)cc7F)cc6)c(C(N)=O)c5N)C4)nc3C)ccc2CC1C(=O)NC1CCCc2ccccc21)C(C)(C)C

> <Shape>
0.256

> <Color>
0.066

> <Negative vol penalty>
0.000

$$$$

  -OEChem-04052318143D

 88 96  0     1  0  0  0  0  0999 V2000
  -18.5552  -24.1583   21.4799 C   0  0  0  0  0  0  0  0  0  0  0  0
  -19.9278  -24.1055   21.2594 C   0  0  0  0  0  0  0  0  0  0  0  0
  -24.8594  -13.7888   21.5611 C   0  0  0  0  0  0  0  0  0  0  0  0
  -26.3455  -13.5867   19.6670 C   0  0  0  0  0  0  0  0  0  0  0  0
  -17.9830  -25.3023   22.0349 C   0  0  0  0  0  0  0  0  0  0  0  0
  -20.7289  -25.1971   21.5927 C   0  0  0  0  0  0  0  0  0  0  0  0
  -24.9660  -23.8319   24.0069 C   0  0  0  0  0  0  0  0  0  0  0  0
  -24.7825  -12.3989   21.6491 C   0  0  0  0  0  0  0  0  0  0  0  0
  -26.2687  -12.1967   19.7550 C   0  0  0  0  0  0  0  0  0  0  0  0
  -26.0033  -23.3168   23.2307 C   0  0  0  0  0  0  0  0  0  0  0  0
  -23.1572   -9.8898   20.0720 C   0  0  0  0  0  0  0  0  0  0  0  0
  -21.8969   -9.3216   20.2572 C   0  0  0  0  0  0  0  0  0  0  0  0
  -27.1031  -25.4631   23.2870 C   0  0  0  0  0  0  0  0  0  0  0  0
  -22.6460   -8.3362   22.3320 C   0  0  0  0  0  0  0  0  0  0  0  0
  -26.8457  -19.5070   16.0424 C   0  0  0  0  0  0  0  0  0  0  0  0
  -26.0306  -21.3057   15.0641 C   0  0  0  0  0  0  0  0  0  0  0  0
  -25.6409  -14.3827   20.5700 C   0  0  0  0  0  0  0  0  0  0  0  0
  -26.6496  -16.6611   21.1172 C   0  0  0  0  0  0  0  0  0  0  0  0
  -18.7788  -26.4047   22.3841 C   0  0  0  0  0  0  0  0  0  0  0  0
  -24.9841  -25.1717   24.4205 C   0  0  0  0  0  0  0  0  0  0  0  0
  -20.1666  -26.3573   22.1517 C   0  0  0  0  0  0  0  0  0  0  0  0
  -26.0660  -25.9920   24.0706 C   0  0  0  0  0  0  0  0  0  0  0  0
  -25.4872  -11.6028   20.7461 C   0  0  0  0  0  0  0  0  0  0  0  0
  -27.0706  -24.1332   22.8682 C   0  0  0  0  0  0  0  0  0  0  0  0
  -24.1620   -9.6811   21.0167 C   0  0  0  0  0  0  0  0  0  0  0  0
  -21.6413   -8.5448   21.3872 C   0  0  0  0  0  0  0  0  0  0  0  0
  -23.9064   -8.9043   22.1467 C   0  0  0  0  0  0  0  0  0  0  0  0
  -25.7203  -15.8185   20.4782 C   0  0  0  0  0  0  0  0  0  0  0  0
  -27.7440  -20.5475   16.0740 C   0  0  0  0  0  0  0  0  0  0  0  0
  -26.3032  -17.9260   20.7094 C   0  0  0  0  0  0  0  0  0  0  0  0
  -27.7294  -16.3299   22.0004 C   0  0  0  0  0  0  0  0  0  0  0  0
  -23.1156  -27.6960   23.9306 C   0  0  0  0  0  0  0  0  0  0  0  0
  -23.3800  -19.9159   15.8506 C   0  0  0  0  0  0  0  0  0  0  0  0
  -25.0930  -29.0901   26.0913 C   0  0  0  0  0  0  0  0  0  0  0  0
  -28.1512  -29.1479   27.6047 C   0  0  0  0  0  0  0  0  0  0  0  0
  -18.1088  -27.6374   22.9375 C   0  0  0  0  0  0  0  0  0  0  0  0
  -23.8707  -25.7047   25.2799 C   0  0  0  0  0  0  0  0  0  0  0  0
  -26.1430  -27.4318   24.5062 C   0  0  0  0  0  0  0  0  0  0  0  0
  -19.0772  -28.6073   23.6096 C   0  0  0  0  0  0  0  0  0  0  0  0
  -22.5485  -20.5127   19.2847 C   0  0  0  0  0  0  0  0  0  0  0  0
  -20.3083  -28.8241   22.7354 C   0  0  0  0  0  0  0  0  0  0  0  0
  -23.3297  -19.4352   20.0356 C   0  0  0  0  0  0  0  0  0  0  0  0
  -22.0523  -20.0040   17.9348 C   0  0  0  0  0  0  0  0  0  0  0  0
  -23.9140  -18.3794   17.8065 C   0  0  0  0  0  0  0  0  0  0  0  0
  -21.0722  -27.5115   22.5230 C   0  0  1  0  0  0  0  0  0  0  0  0
  -23.7391  -27.2232   25.2133 C   0  0  1  0  0  0  0  0  0  0  0  0
  -24.4596  -18.8617   19.1623 C   0  0  2  0  0  0  0  0  0  0  0  0
  -29.4853  -30.4272   29.3021 C   0  0  0  0  0  0  0  0  0  0  0  0
  -29.5774  -19.2271   17.3337 C   0  0  0  0  0  0  0  0  0  0  0  0
  -30.1747  -20.8381   15.5476 C   0  0  0  0  0  0  0  0  0  0  0  0
  -25.5417  -31.3184   24.0557 C   0  0  0  0  0  0  0  0  0  0  0  0
  -27.5471  -32.0264   25.3768 C   0  0  0  0  0  0  0  0  0  0  0  0
  -25.2810  -32.0996   26.4171 C   0  0  0  0  0  0  0  0  0  0  0  0
  -28.4279  -26.7726   29.3483 C   0  0  0  0  0  0  0  0  0  0  0  0
  -28.3934  -21.5733   18.9743 C   0  0  0  0  0  0  0  0  0  0  0  0
  -28.6795  -22.6796   19.9902 C   0  0  0  0  0  0  0  0  0  0  0  0
  -29.3021  -21.7068   17.7432 C   0  0  0  0  0  0  0  0  0  0  0  0
  -24.1837  -19.2258   13.6040 C   0  0  0  0  0  0  0  0  0  0  0  0
  -27.7568  -22.5862   21.1973 C   0  0  0  0  0  0  0  0  0  1  0  0
  -24.5323  -19.2969   15.1004 C   0  0  1  0  0  0  0  0  0  0  0  0
  -26.3876  -29.8626   26.0130 C   0  0  1  0  0  0  0  0  0  0  0  0
  -28.5503  -29.2513   29.0657 C   0  0  2  0  0  0  0  0  0  0  0  0
  -29.1573  -20.5679   16.6847 C   0  0  0  0  0  0  0  0  0  0  0  0
  -26.1873  -31.3002   25.4557 C   0  0  0  0  0  0  0  0  0  0  0  0
  -25.0251  -18.2275   12.8319 C   0  0  0  0  0  0  0  0  0  0  0  0
  -27.2305  -21.6643   15.4636 N   0  0  0  0  0  0  0  0  0  0  0  0
  -24.8489  -16.4915   19.7221 N   0  0  0  0  0  0  0  0  0  0  0  0
  -25.7528  -20.0080   15.3928 N   0  0  0  0  0  0  0  0  0  0  0  0
  -25.2291  -17.7703   19.8834 N   0  0  0  0  0  0  0  0  0  0  0  0
  -25.0270  -27.9082   25.3399 N   0  0  0  0  0  0  0  0  0  0  0  0
  -23.1515  -19.4469   17.1444 N   0  0  0  0  0  0  0  0  0  0  0  0
  -26.8156  -19.1452   20.9804 N   0  0  0  0  0  0  0  0  0  0  0  0
  -27.9457  -14.9813   22.3149 N   0  0  0  0  0  0  0  0  0  0  0  0
  -21.8529  -27.1855   23.6971 N   0  0  0  0  0  0  0  0  0  0  0  0
  -26.9723  -29.8157   27.3488 N   0  0  0  0  0  0  0  0  0  0  0  0
  -29.2418  -28.0057   29.5031 N   0  3  0  0  0  0  0  0  0  0  0  0
  -28.4700  -17.2053   22.5089 O   0  0  0  0  0  0  0  0  0  0  0  0
  -23.7337  -28.4681   23.2070 O   0  0  0  0  0  0  0  0  0  0  0  0
  -22.7060  -20.7920   15.3026 O   0  0  0  0  0  0  0  0  0  0  0  0
  -24.1766  -29.5159   26.7988 O   0  0  0  0  0  0  0  0  0  0  0  0
  -28.8205  -28.5391   26.7728 O   0  0  0  0  0  0  0  0  0  0  0  0
  -25.4125  -10.2465   20.8318 O   0  0  0  0  0  0  0  0  0  0  0  0
  -28.0841  -23.6332   22.1101 O   0  0  0  0  0  0  0  0  0  1  0  0
  -20.4305   -8.0006   21.5657 F   0  0  0  0  0  0  0  0  0  0  0  0
  -24.8674   -8.7013   23.0584 F   0  0  0  0  0  0  0  0  0  0  0  0
  -24.6795  -18.2359   11.5244 F   0  0  0  0  0  0  0  0  0  0  0  0
  -26.3412  -18.5135   12.9035 F   0  0  0  0  0  0  0  0  0  0  0  0
  -24.8437  -16.9718   13.2929 F   0  0  0  0  0  0  0  0  0  0  0  0
  1  2  1  0  0  0  0
  1  5  2  0  0  0  0
  2  6  2  0  0  0  0
  3  8  2  0  0  0  0
  3 17  1  0  0  0  0
  4  9  1  0  0  0  0
  4 17  2  0  0  0  0
  5 19  1  0  0  0  0
  6 21  1  0  0  0  0
  7 10  2  0  0  0  0
  7 20  1  0  0  0  0
  8 23  1  0  0  0  0
  9 23  2  0  0  0  0
 10 24  1  0  0  0  0
 11 12  2  0  0  0  0
 11 25  1  0  0  0  0
 12 26  1  0  0  0  0
 13 22  1  0  0  0  0
 13 24  2  0  0  0  0
 14 26  2  0  0  0  0
 14 27  1  0  0  0  0
 15 29  2  0  0  0  0
 15 68  1  0  0  0  0
 16 66  2  0  0  0  0
 16 68  1  0  0  0  0
 17 28  1  0  0  0  0
 18 28  1  0  0  0  0
 18 30  2  0  0  0  0
 18 31  1  0  0  0  0
 19 21  2  0  0  0  0
 19 36  1  0  0  0  0
 20 22  2  0  0  0  0
 20 37  1  0  0  0  0
 21 45  1  0  0  0  0
 22 38  1  0  0  0  0
 23 82  1  0  0  0  0
 24 83  1  0  0  0  0
 25 27  2  0  0  0  0
 25 82  1  0  0  0  0
 26 84  1  0  0  0  0
 27 85  1  0  0  0  0
 28 67  2  0  0  0  0
 29 63  1  0  0  0  0
 29 66  1  0  0  0  0
 30 69  1  0  0  0  0
 30 72  1  0  0  0  0
 31 73  1  0  0  0  0
 31 77  2  0  0  0  0
 32 46  1  0  0  0  0
 32 74  1  0  0  0  0
 32 78  2  0  0  0  0
 33 60  1  0  0  0  0
 33 71  1  0  0  0  0
 33 79  2  0  0  0  0
 34 61  1  0  0  0  0
 34 70  1  0  0  0  0
 34 80  2  0  0  0  0
 35 62  1  0  0  0  0
 35 75  1  0  0  0  0
 35 81  2  0  0  0  0
 36 39  1  0  0  0  0
 37 46  1  0  0  0  0
 38 70  1  0  0  0  0
 39 41  1  0  0  0  0
 40 42  1  0  0  0  0
 40 43  1  0  0  0  0
 41 45  1  0  0  0  0
 42 47  1  0  0  0  0
 43 71  1  0  0  0  0
 44 47  1  0  0  0  0
 44 71  1  0  0  0  0
 45 74  1  0  0  0  0
 46 70  1  0  0  0  0
 47 69  1  0  0  0  0
 48 62  1  0  0  0  0
 49 63  1  0  0  0  0
 50 63  1  0  0  0  0
 51 64  1  0  0  0  0
 52 64  1  0  0  0  0
 53 64  1  0  0  0  0
 54 76  1  0  0  0  0
 55 56  1  0  0  0  0
 55 57  1  0  0  0  0
 56 59  1  0  0  0  0
 57 63  1  0  0  0  0
 58 60  1  0  0  0  0
 58 65  1  0  0  0  0
 59 83  1  0  0  0  0
 60 68  1  0  0  0  0
 61 64  1  0  0  0  0
 61 75  1  0  0  0  0
 62 76  1  0  0  0  0
 65 86  1  0  0  0  0
 65 87  1  0  0  0  0
 65 88  1  0  0  0  0
 67 69  1  0  0  0  0
M  CHG  1  76   1
M  ISO  4  33 100  59 101  60 100  83 101
M  END
> <Batch ID>
0068

> <Smiles>
CNC(C)C(=O)NC(C(=O)N1Cc2cc([101O:1][101CH2:1]CCCC(C)(C)c3cn([100CH:0](CC(F)(F)F)[100C:0](=O)N4CCCC(n5nc(-c6ccc(Oc7ccc(F)cc7F)cc6)c(C(N)=O)c5N)C4)cn3)ccc2CC1C(=O)NC1CCCc2ccccc21)C(C)(C)C

> <Shape>
0.190

> <Color>
0.083

> <Negative vol penalty>
0.000

$$$$

  -OEChem-04052318143D

 91 99  0     1  0  0  0  0  0999 V2000
  -32.4235  -14.2473   21.1072 C   0  0  0  0  0  0  0  0  0  0  0  0
  -31.6338  -15.3794   21.2809 C   0  0  0  0  0  0  0  0  0  0  0  0
  -28.7735  -23.4474   21.0573 C   0  0  0  0  0  0  0  0  0  0  0  0
  -26.7669  -23.6312   19.7243 C   0  0  0  0  0  0  0  0  0  0  0  0
  -31.8819  -13.1043   20.5208 C   0  0  0  0  0  0  0  0  0  0  0  0
  -30.3022  -15.3694   20.8672 C   0  0  0  0  0  0  0  0  0  0  0  0
  -25.5938  -18.2271   23.5449 C   0  0  0  0  0  0  0  0  0  0  0  0
  -28.6996  -22.0568   20.9768 C   0  0  0  0  0  0  0  0  0  0  0  0
  -26.6930  -22.2406   19.6438 C   0  0  0  0  0  0  0  0  0  0  0  0
  -24.9503  -19.4332   23.2714 C   0  0  0  0  0  0  0  0  0  0  0  0
  -26.1776  -18.7459   18.7839 C   0  0  0  0  0  0  0  0  0  0  0  0
  -25.9010  -18.1814   17.5388 C   0  0  0  0  0  0  0  0  0  0  0  0
  -23.2744  -18.2454   22.0066 C   0  0  0  0  0  0  0  0  0  0  0  0
  -23.2598  -28.7028   19.9958 C   0  0  0  0  0  0  0  0  0  0  0  0
  -27.8962  -19.2000   16.6339 C   0  0  0  0  0  0  0  0  0  0  0  0
  -21.3979  -27.9849   21.0386 C   0  0  0  0  0  0  0  0  0  0  0  0
  -27.8071  -24.2346   20.4311 C   0  0  0  0  0  0  0  0  0  0  0  0
  -28.5495  -26.5400   19.6300 C   0  0  0  0  0  0  0  0  0  0  0  0
  -30.5403  -13.0770   20.1085 C   0  0  0  0  0  0  0  0  0  0  0  0
  -25.0876  -17.0201   23.0413 C   0  0  0  0  0  0  0  0  0  0  0  0
  -29.7425  -14.2253   20.2735 C   0  0  0  0  0  0  0  0  0  0  0  0
  -23.9119  -17.0250   22.2772 C   0  0  0  0  0  0  0  0  0  0  0  0
  -22.2737  -27.6859   20.0184 C   0  0  0  0  0  0  0  0  0  0  0  0
  -27.6594  -21.4535   20.2701 C   0  0  0  0  0  0  0  0  0  0  0  0
  -23.7920  -19.4429   22.4997 C   0  0  0  0  0  0  0  0  0  0  0  0
  -27.3135  -19.5375   18.9541 C   0  0  0  0  0  0  0  0  0  0  0  0
  -26.7603  -18.4085   16.4637 C   0  0  0  0  0  0  0  0  0  0  0  0
  -28.1728  -19.7645   17.8790 C   0  0  0  0  0  0  0  0  0  0  0  0
  -27.8826  -25.6711   20.5143 C   0  0  0  0  0  0  0  0  0  0  0  0
  -22.9567  -29.5922   21.0030 C   0  0  0  0  0  0  0  0  0  0  0  0
  -28.3222  -27.7934   20.1435 C   0  0  0  0  0  0  0  0  0  0  0  0
  -29.3067  -26.2408   18.4498 C   0  0  0  0  0  0  0  0  0  0  0  0
  -26.1762  -14.7828   21.0631 C   0  0  0  0  0  0  0  0  0  0  0  0
  -23.4562  -13.2433   21.9314 C   0  0  0  0  0  0  0  0  0  0  0  0
  -24.1200  -30.7541   22.8497 C   0  0  0  0  0  0  0  0  0  0  0  0
  -20.2698  -13.4480   23.1363 C   0  0  0  0  0  0  0  0  0  0  0  0
  -30.0125  -11.8342   19.4364 C   0  0  0  0  0  0  0  0  0  0  0  0
  -25.7786  -15.7246   23.3677 C   0  0  0  0  0  0  0  0  0  0  0  0
  -23.3165  -15.7544   21.7300 C   0  0  0  0  0  0  0  0  0  0  0  0
  -28.4885  -11.7798   19.3671 C   0  0  0  0  0  0  0  0  0  0  0  0
  -27.0396  -29.5786   24.5626 C   0  0  0  0  0  0  0  0  0  0  0  0
  -27.9279  -13.1150   18.8878 C   0  0  0  0  0  0  0  0  0  0  0  0
  -27.6024  -28.5130   23.6229 C   0  0  0  0  0  0  0  0  0  0  0  0
  -25.5145  -29.5993   24.5337 C   0  0  0  0  0  0  0  0  0  0  0  0
  -25.4965  -28.7078   22.2257 C   0  0  0  0  0  0  0  0  0  0  0  0
  -28.2868  -14.2450   19.8603 C   0  0  1  0  0  0  0  0  0  0  0  0
  -25.4617  -14.6115   22.3738 C   0  0  1  0  0  0  0  0  0  0  0  0
  -27.0349  -28.6739   22.2015 C   0  0  2  0  0  0  0  0  0  0  0  0
  -22.7158  -26.8535   17.6941 C   0  0  0  0  0  0  0  0  0  0  0  0
  -18.2820  -12.0242   23.7008 C   0  0  0  0  0  0  0  0  0  0  0  0
  -19.7458  -30.2440   22.3870 C   0  0  0  0  0  0  0  0  0  0  0  0
  -22.7192  -32.0702   21.3119 C   0  0  0  0  0  0  0  0  0  0  0  0
  -24.9558  -31.1907   20.6353 C   0  0  0  0  0  0  0  0  0  0  0  0
  -22.8114  -12.9703   18.9616 C   0  0  0  0  0  0  0  0  0  0  0  0
  -20.4510  -12.4269   19.5954 C   0  0  0  0  0  0  0  0  0  0  0  0
  -22.3122  -10.9366   20.3288 C   0  0  0  0  0  0  0  0  0  0  0  0
  -20.3469  -14.2642   25.9800 C   0  0  0  0  0  0  0  0  0  0  0  0
  -23.0599  -23.4407   21.3934 C   0  0  0  0  0  0  0  0  0  0  0  0
  -22.3480  -24.7189   20.9430 C   0  0  0  0  0  0  0  0  0  0  0  0
  -22.5196  -22.8788   22.7086 C   0  0  0  0  0  0  0  0  0  0  0  0
  -22.9420  -25.2493   19.6314 C   0  0  0  0  0  0  0  0  0  0  0  0
  -23.2745  -21.6538   23.2068 C   0  0  0  0  0  0  0  0  0  1  0  0
  -22.1952  -26.4867   19.0892 C   0  0  1  0  0  0  0  0  0  0  0  0
  -22.0386  -13.2036   21.4140 C   0  0  1  0  0  0  0  0  0  0  0  0
  -19.5534  -12.6720   24.2267 C   0  0  2  0  0  0  0  0  0  0  0  0
  -21.1629  -29.7874   22.7460 C   0  0  1  0  0  0  0  0  0  0  0  0
  -23.6526  -30.8278   21.4178 C   0  0  0  0  0  0  0  0  0  0  0  0
  -21.9153  -12.4087   20.0835 C   0  0  0  0  0  0  0  0  0  0  0  0
  -21.1576  -28.8989   23.9856 C   0  0  0  0  0  0  0  0  0  0  0  0
  -27.2772  -26.3178   21.5140 N   0  0  0  0  0  0  0  0  0  0  0  0
  -21.8231  -29.1455   21.6304 N   0  0  0  0  0  0  0  0  0  0  0  0
  -27.5628  -27.6063   21.2609 N   0  0  0  0  0  0  0  0  0  0  0  0
  -24.0323  -14.5139   22.0713 N   0  0  0  0  0  0  0  0  0  0  0  0
  -25.0146  -29.7309   23.1640 N   0  0  0  0  0  0  0  0  0  0  0  0
  -28.6998  -29.0263   19.7438 N   0  0  0  0  0  0  0  0  0  0  0  0
  -29.4410  -24.9001   18.0641 N   0  0  0  0  0  0  0  0  0  0  0  0
  -27.4290  -14.2010   21.0250 N   0  0  0  0  0  0  0  0  0  0  0  0
  -21.2215  -12.6776   22.5022 N   0  0  0  0  0  0  0  0  0  0  0  0
  -19.1885  -13.5776   25.3526 N   0  3  0  0  0  0  0  0  0  0  0  0
  -29.8619  -27.1347   17.7669 O   0  0  0  0  0  0  0  0  0  0  0  0
  -25.6306  -15.3962   20.1533 O   0  0  0  0  0  0  0  0  0  0  0  0
  -24.0288  -12.1864   22.2082 O   0  0  0  0  0  0  0  0  0  0  0  0
  -23.7037  -31.5839   23.6623 O   0  0  0  0  0  0  0  0  0  0  0  0
  -20.0085  -14.6193   22.8708 O   0  0  0  0  0  0  0  0  0  0  0  0
  -27.5871  -20.0966   20.1911 O   0  0  0  0  0  0  0  0  0  0  0  0
  -23.1623  -20.6189   22.2307 O   0  0  0  0  0  0  0  0  0  1  0  0
  -26.4954  -17.8651   15.2684 F   0  0  0  0  0  0  0  0  0  0  0  0
  -29.2661  -20.5231   18.0367 F   0  0  0  0  0  0  0  0  0  0  0  0
  -20.5698  -29.5359   25.0248 F   0  0  0  0  0  0  0  0  0  0  0  0
  -20.4867  -27.7448   23.7866 F   0  0  0  0  0  0  0  0  0  0  0  0
  -22.4156  -28.5866   24.3699 F   0  0  0  0  0  0  0  0  0  0  0  0
  1  2  1  0  0  0  0
  1  5  2  0  0  0  0
  2  6  2  0  0  0  0
  3  8  2  0  0  0  0
  3 17  1  0  0  0  0
  4  9  1  0  0  0  0
  4 17  2  0  0  0  0
  5 19  1  0  0  0  0
  6 21  1  0  0  0  0
  7 10  2  0  0  0  0
  7 20  1  0  0  0  0
  8 24  1  0  0  0  0
  9 24  2  0  0  0  0
 10 25  1  0  0  0  0
 11 12  2  0  0  0  0
 11 26  1  0  0  0  0
 12 27  1  0  0  0  0
 13 22  1  0  0  0  0
 13 25  2  0  0  0  0
 14 23  1  0  0  0  0
 14 30  2  0  0  0  0
 15 27  2  0  0  0  0
 15 28  1  0  0  0  0
 16 23  2  0  0  0  0
 16 71  1  0  0  0  0
 17 29  1  0  0  0  0
 18 29  1  0  0  0  0
 18 31  2  0  0  0  0
 18 32  1  0  0  0  0
 19 21  2  0  0  0  0
 19 37  1  0  0  0  0
 20 22  2  0  0  0  0
 20 38  1  0  0  0  0
 21 46  1  0  0  0  0
 22 39  1  0  0  0  0
 23 63  1  0  0  0  0
 24 85  1  0  0  0  0
 25 86  1  0  0  0  0
 26 28  2  0  0  0  0
 26 85  1  0  0  0  0
 27 87  1  0  0  0  0
 28 88  1  0  0  0  0
 29 70  2  0  0  0  0
 30 67  1  0  0  0  0
 30 71  1  0  0  0  0
 31 72  1  0  0  0  0
 31 75  1  0  0  0  0
 32 76  1  0  0  0  0
 32 80  2  0  0  0  0
 33 47  1  0  0  0  0
 33 77  1  0  0  0  0
 33 81  2  0  0  0  0
 34 64  1  0  0  0  0
 34 73  1  0  0  0  0
 34 82  2  0  0  0  0
 35 67  1  0  0  0  0
 35 74  1  0  0  0  0
 35 83  2  0  0  0  0
 36 65  1  0  0  0  0
 36 78  1  0  0  0  0
 36 84  2  0  0  0  0
 37 40  1  0  0  0  0
 38 47  1  0  0  0  0
 39 73  1  0  0  0  0
 40 42  1  0  0  0  0
 41 43  1  0  0  0  0
 41 44  1  0  0  0  0
 42 46  1  0  0  0  0
 43 48  1  0  0  0  0
 44 74  1  0  0  0  0
 45 48  1  0  0  0  0
 45 74  1  0  0  0  0
 46 77  1  0  0  0  0
 47 73  1  0  0  0  0
 48 72  1  0  0  0  0
 49 63  1  0  0  0  0
 50 65  1  0  0  0  0
 51 66  1  0  0  0  0
 52 67  1  0  0  0  0
 53 67  1  0  0  0  0
 54 68  1  0  0  0  0
 55 68  1  0  0  0  0
 56 68  1  0  0  0  0
 57 79  1  0  0  0  0
 58 59  1  0  0  0  0
 58 60  1  0  0  0  0
 59 61  1  0  0  0  0
 60 62  1  0  0  0  0
 61 63  1  0  0  0  0
 62 86  1  0  0  0  0
 64 68  1  0  0  0  0
 64 78  1  0  0  0  0
 65 79  1  0  0  0  0
 66 69  1  0  0  0  0
 66 71  1  0  0  0  0
 69 89  1  0  0  0  0
 69 90  1  0  0  0  0
 69 91  1  0  0  0  0
 70 72  1  0  0  0  0
M  CHG  1  79   1
M  ISO  4  35 100  62 101  67 100  86 101
M  END
> <Batch ID>
0068

> <Smiles>
CNC(C)C(=O)NC(C(=O)N1Cc2cc([101O:1][101CH2:1]CCCCC(C)c3cc([100C:0](C)(C)[100C:0](=O)N4CCCC(n5nc(-c6ccc(Oc7ccc(F)cc7F)cc6)c(C(N)=O)c5N)C4)n(C(C)C(F)(F)F)c3)ccc2CC1C(=O)NC1CCCc2ccccc21)C(C)(C)C

> <Shape>
0.261

> <Color>
0.055

> <Negative vol penalty>
0.000

$$$$

  -OEChem-04052318143D

 94102  0     1  0  0  0  0  0999 V2000
  -34.3643  -25.3775   11.5058 C   0  0  0  0  0  0  0  0  0  0  0  0
  -33.8124  -24.8440   12.6661 C   0  0  0  0  0  0  0  0  0  0  0  0
  -23.1710   -9.7974   19.9618 C   0  0  0  0  0  0  0  0  0  0  0  0
  -23.5459  -10.0333   22.3369 C   0  0  0  0  0  0  0  0  0  0  0  0
  -34.8608  -26.6804   11.5066 C   0  0  0  0  0  0  0  0  0  0  0  0
  -33.7578  -25.6127   13.8282 C   0  0  0  0  0  0  0  0  0  0  0  0
  -29.2759  -25.2882   16.1632 C   0  0  0  0  0  0  0  0  0  0  0  0
  -22.3958   -8.6619   20.1970 C   0  0  0  0  0  0  0  0  0  0  0  0
  -22.7707   -8.8978   22.5721 C   0  0  0  0  0  0  0  0  0  0  0  0
  -29.0330  -24.1419   16.9187 C   0  0  0  0  0  0  0  0  0  0  0  0
  -23.1473   -5.5428   22.3911 C   0  0  0  0  0  0  0  0  0  0  0  0
  -23.6367   -4.5997   23.2947 C   0  0  0  0  0  0  0  0  0  0  0  0
  -29.5760  -25.3593   18.9292 C   0  0  0  0  0  0  0  0  0  0  0  0
  -21.6794   -4.9083   24.6770 C   0  0  0  0  0  0  0  0  0  0  0  0
  -30.1010  -15.8493   21.8473 C   0  0  0  0  0  0  0  0  0  0  0  0
  -23.7461  -10.4831   21.0318 C   0  0  0  0  0  0  0  0  0  0  0  0
  -24.1041  -12.9904   20.7271 C   0  0  0  0  0  0  0  0  0  0  0  0
  -34.8034  -27.4688   12.6666 C   0  0  0  0  0  0  0  0  0  0  0  0
  -29.6819  -26.4777   16.7850 C   0  0  0  0  0  0  0  0  0  0  0  0
  -34.2552  -26.9269   13.8449 C   0  0  0  0  0  0  0  0  0  0  0  0
  -29.8209  -26.5200   18.1796 C   0  0  0  0  0  0  0  0  0  0  0  0
  -22.1956   -8.2121   21.5021 C   0  0  0  0  0  0  0  0  0  0  0  0
  -29.1859  -24.1765   18.3016 C   0  0  0  0  0  0  0  0  0  0  0  0
  -21.9239   -6.1688   22.6304 C   0  0  0  0  0  0  0  0  0  0  0  0
  -22.9028   -4.2824   24.4376 C   0  0  0  0  0  0  0  0  0  0  0  0
  -21.1900   -5.8515   23.7734 C   0  0  0  0  0  0  0  0  0  0  0  0
  -24.5475  -11.6557   20.7895 C   0  0  0  0  0  0  0  0  0  0  0  0
  -30.0904  -15.1247   23.0126 C   0  0  0  0  0  0  0  0  0  0  0  0
  -25.2413  -13.7186   20.4761 C   0  0  0  0  0  0  0  0  0  0  0  0
  -22.7825  -13.5242   20.8822 C   0  0  0  0  0  0  0  0  0  0  0  0
  -32.2668  -28.3210   16.6297 C   0  0  0  0  0  0  0  0  0  0  0  0
  -30.5217  -30.2610   18.5569 C   0  0  0  0  0  0  0  0  0  0  0  0
  -31.0459  -12.5919   21.5481 C   0  0  0  0  0  0  0  0  0  0  0  0
  -27.9924  -30.5758   20.8263 C   0  0  0  0  0  0  0  0  0  0  0  0
  -35.3957  -28.8554   12.6320 C   0  0  0  0  0  0  0  0  0  0  0  0
  -29.9140  -27.7128   15.9586 C   0  0  0  0  0  0  0  0  0  0  0  0
  -30.2350  -27.7776   18.8975 C   0  0  0  0  0  0  0  0  0  0  0  0
  -34.9596  -29.7334   13.8021 C   0  0  0  0  0  0  0  0  0  0  0  0
  -29.5298  -13.3829   18.3991 C   0  0  0  0  0  0  0  0  0  0  0  0
  -35.0728  -28.9669   15.1160 C   0  0  0  0  0  0  0  0  0  0  0  0
  -28.0434  -13.1236   18.6411 C   0  0  0  0  0  0  0  0  0  0  0  0
  -30.4014  -12.3956   19.1689 C   0  0  0  0  0  0  0  0  0  0  0  0
  -28.6406  -12.0999   20.8817 C   0  0  0  0  0  0  0  0  0  0  0  0
  -34.1555  -27.7380   15.1185 C   0  0  1  0  0  0  0  0  0  0  0  0
  -30.8209  -28.7295   16.6452 C   0  0  1  0  0  0  0  0  0  0  0  0
  -27.7252  -13.0949   20.1465 C   0  0  2  0  0  0  0  0  0  0  0  0
  -26.9408  -18.3867   19.1349 C   0  0  0  0  0  0  0  0  0  0  0  0
  -26.2751  -21.8931   20.3379 C   0  0  0  0  0  0  0  0  0  0  0  0
  -28.8968  -13.6261   24.6442 C   0  0  0  0  0  0  0  0  0  0  0  0
  -26.8262  -32.2797   22.2524 C   0  0  0  0  0  0  0  0  0  0  0  0
  -30.0118  -11.1790   23.2667 C   0  0  0  0  0  0  0  0  0  0  0  0
  -32.8812  -30.2530   20.4915 C   0  0  0  0  0  0  0  0  0  0  0  0
  -31.3456  -31.1408   22.2585 C   0  0  0  0  0  0  0  0  0  0  0  0
  -31.7798  -32.4791   20.1986 C   0  0  0  0  0  0  0  0  0  0  0  0
  -30.6008  -19.5294   18.4578 C   0  0  0  0  0  0  0  0  0  0  0  0
  -30.6996  -20.9956   20.4257 C   0  0  0  0  0  0  0  0  0  0  0  0
  -25.4007  -30.0999   19.4789 C   0  0  0  0  0  0  0  0  0  0  0  0
  -27.4243  -19.6631   18.4599 C   0  0  0  0  0  0  0  0  0  0  0  0
  -27.5839  -21.1376   20.5643 C   0  0  0  0  0  0  0  0  0  0  0  0
  -29.6746  -18.7430   20.6713 C   0  0  0  0  0  0  0  0  0  0  0  0
  -30.9581  -18.2269   21.3330 C   0  0  0  0  0  0  0  0  0  0  0  0
  -28.5491  -21.8854   18.3351 C   0  0  0  0  0  0  0  0  0  1  0  0
  -29.5903  -13.7646   23.2512 C   0  0  2  0  0  0  0  0  0  0  0  0
  -30.3421  -30.4049   20.0488 C   0  0  1  0  0  0  0  0  0  0  0  0
  -26.8354  -31.5545   20.9158 C   0  0  2  0  0  0  0  0  0  0  0  0
  -30.6099  -12.5669   22.9914 C   0  0  2  0  0  0  0  0  0  0  0  0
  -31.5812  -31.0451   20.7359 C   0  0  0  0  0  0  0  0  0  0  0  0
  -29.7751  -19.9717   19.6962 C   0  0  0  0  0  0  0  0  0  0  0  0
  -28.3462  -20.6434   19.2762 C   0  0  0  0  0  0  0  0  0  0  0  0
  -31.8915  -12.7331   23.8233 C   0  0  0  0  0  0  0  0  0  0  0  0
  -25.8637  -11.5400   20.5937 N   0  0  0  0  0  0  0  0  0  0  0  0
  -30.6469  -15.8645   24.0188 N   0  0  0  0  0  0  0  0  0  0  0  0
  -31.0060  -17.0387   23.5115 N   0  0  0  0  0  0  0  0  0  0  0  0
  -30.6777  -17.0277   22.2094 N   0  0  0  0  0  0  0  0  0  0  0  0
  -26.2571  -12.8112   20.4058 N   0  0  0  0  0  0  0  0  0  0  0  0
  -30.4565  -28.9573   18.0450 N   0  0  0  0  0  0  0  0  0  0  0  0
  -30.0532  -12.3816   20.5908 N   0  0  0  0  0  0  0  0  0  0  0  0
  -25.4614  -15.0402   20.3108 N   0  0  0  0  0  0  0  0  0  0  0  0
  -21.7286  -12.6357   21.1361 N   0  0  0  0  0  0  0  0  0  0  0  0
  -32.7843  -28.1314   15.3626 N   0  0  0  0  0  0  0  0  0  0  0  0
  -29.1017  -31.1485   20.2408 N   0  0  0  0  0  0  0  0  0  0  0  0
  -25.5379  -30.8380   20.7608 N   0  3  0  0  0  0  0  0  0  0  0  0
  -22.5406  -14.7509   20.7820 O   0  0  0  0  0  0  0  0  0  0  0  0
  -32.8687  -28.1892   17.6889 O   0  0  0  0  0  0  0  0  0  0  0  0
  -30.7058  -31.2689   17.8699 O   0  0  0  0  0  0  0  0  0  0  0  0
  -32.2331  -12.7954   21.2813 O   0  0  0  0  0  0  0  0  0  0  0  0
  -27.9207  -29.4201   21.2383 O   0  0  0  0  0  0  0  0  0  0  0  0
  -21.4390   -7.1043   21.7320 O   0  0  0  0  0  0  0  0  0  0  0  0
  -28.9486  -23.0514   19.0462 O   0  0  0  0  0  0  0  0  0  1  0  0
  -23.3722   -3.3756   25.3045 F   0  0  0  0  0  0  0  0  0  0  0  0
  -20.0135   -6.4487   24.0081 F   0  0  0  0  0  0  0  0  0  0  0  0
  -32.5137  -13.9017   23.5391 F   0  0  0  0  0  0  0  0  0  0  0  0
  -31.6298  -12.7278   25.1496 F   0  0  0  0  0  0  0  0  0  0  0  0
  -32.7827  -11.7465   23.5801 F   0  0  0  0  0  0  0  0  0  0  0  0
  1  2  1  0  0  0  0
  1  5  2  0  0  0  0
  2  6  2  0  0  0  0
  3  8  2  0  0  0  0
  3 16  1  0  0  0  0
  4  9  1  0  0  0  0
  4 16  2  0  0  0  0
  5 18  1  0  0  0  0
  6 20  1  0  0  0  0
  7 10  2  0  0  0  0
  7 19  1  0  0  0  0
  8 22  1  0  0  0  0
  9 22  2  0  0  0  0
 10 23  1  0  0  0  0
 11 12  2  0  0  0  0
 11 24  1  0  0  0  0
 12 25  1  0  0  0  0
 13 21  1  0  0  0  0
 13 23  2  0  0  0  0
 14 25  2  0  0  0  0
 14 26  1  0  0  0  0
 15 28  2  0  0  0  0
 15 74  1  0  0  0  0
 16 27  1  0  0  0  0
 17 27  1  0  0  0  0
 17 29  2  0  0  0  0
 17 30  1  0  0  0  0
 18 20  2  0  0  0  0
 18 35  1  0  0  0  0
 19 21  2  0  0  0  0
 19 36  1  0  0  0  0
 20 44  1  0  0  0  0
 21 37  1  0  0  0  0
 22 88  1  0  0  0  0
 23 89  1  0  0  0  0
 24 26  2  0  0  0  0
 24 88  1  0  0  0  0
 25 90  1  0  0  0  0
 26 91  1  0  0  0  0
 27 71  2  0  0  0  0
 28 63  1  0  0  0  0
 28 72  1  0  0  0  0
 29 75  1  0  0  0  0
 29 78  1  0  0  0  0
 30 79  1  0  0  0  0
 30 83  2  0  0  0  0
 31 45  1  0  0  0  0
 31 80  1  0  0  0  0
 31 84  2  0  0  0  0
 32 64  1  0  0  0  0
 32 76  1  0  0  0  0
 32 85  2  0  0  0  0
 33 66  1  0  0  0  0
 33 77  1  0  0  0  0
 33 86  2  0  0  0  0
 34 65  1  0  0  0  0
 34 81  1  0  0  0  0
 34 87  2  0  0  0  0
 35 38  1  0  0  0  0
 36 45  1  0  0  0  0
 37 76  1  0  0  0  0
 38 40  1  0  0  0  0
 39 41  1  0  0  0  0
 39 42  1  0  0  0  0
 40 44  1  0  0  0  0
 41 46  1  0  0  0  0
 42 77  1  0  0  0  0
 43 46  1  0  0  0  0
 43 77  1  0  0  0  0
 44 80  1  0  0  0  0
 45 76  1  0  0  0  0
 46 75  1  0  0  0  0
 47 58  1  0  0  0  0
 48 59  1  0  0  0  0
 49 63  1  0  0  0  0
 50 65  1  0  0  0  0
 51 66  1  0  0  0  0
 52 67  1  0  0  0  0
 53 67  1  0  0  0  0
 54 67  1  0  0  0  0
 55 68  1  0  0  0  0
 56 68  1  0  0  0  0
 57 82  1  0  0  0  0
 58 69  1  0  0  0  0
 59 69  1  0  0  0  0
 60 61  1  0  0  0  0
 60 68  1  0  0  0  0
 61 74  1  0  0  0  0
 62 69  1  0  0  0  0
 62 89  1  0  0  0  0
 63 66  1  0  0  0  0
 64 67  1  0  0  0  0
 64 81  1  0  0  0  0
 65 82  1  0  0  0  0
 66 70  1  0  0  0  0
 68 69  1  0  0  0  0
 70 92  1  0  0  0  0
 70 93  1  0  0  0  0
 70 94  1  0  0  0  0
 71 75  1  0  0  0  0
 72 73  2  0  0  0  0
 73 74  1  0  0  0  0
M  CHG  1  82   1
M  ISO  4  33 100  62 101  66 100  89 101
M  END
> <Batch ID>
0068

> <Smiles>
CCC(CC)(C(C)(C)CCn1cc(C(C)[100C:0](C)([100C:0](=O)N2CCCC(n3nc(-c4ccc(Oc5ccc(F)cc5F)cc4)c(C(N)=O)c3N)C2)C(F)(F)F)nn1)[101CH2:1][101O:1]c1ccc2c(c1)CN(C(=O)C(NC(=O)C(C)NC)C(C)(C)C)C(C(=O)NC1CCCc3ccccc31)C2

> <Shape>
0.268

> <Color>
0.169

> <Negative vol penalty>
0.000

$$$$

  -OEChem-04052318143D

 88 96  0     1  0  0  0  0  0999 V2000
  -31.5922  -26.3379   20.2137 C   0  0  0  0  0  0  0  0  0  0  0  0
  -30.5748  -25.9227   21.0669 C   0  0  0  0  0  0  0  0  0  0  0  0
  -24.7036  -28.1252   19.6500 C   0  0  0  0  0  0  0  0  0  0  0  0
  -26.7315  -26.8735   20.0470 C   0  0  0  0  0  0  0  0  0  0  0  0
  -31.8645  -25.6161   19.0524 C   0  0  0  0  0  0  0  0  0  0  0  0
  -29.8283  -24.7859   20.7586 C   0  0  0  0  0  0  0  0  0  0  0  0
  -27.5082  -20.7220   24.7092 C   0  0  0  0  0  0  0  0  0  0  0  0
  -25.2900  -29.2558   20.2188 C   0  0  0  0  0  0  0  0  0  0  0  0
  -27.3180  -28.0040   20.6158 C   0  0  0  0  0  0  0  0  0  0  0  0
  -26.2352  -20.5668   25.2560 C   0  0  0  0  0  0  0  0  0  0  0  0
  -26.1295  -32.3726   21.8933 C   0  0  0  0  0  0  0  0  0  0  0  0
  -25.3693  -33.1138   22.7980 C   0  0  0  0  0  0  0  0  0  0  0  0
  -25.7090  -18.9400   23.5543 C   0  0  0  0  0  0  0  0  0  0  0  0
  -25.1791  -31.1748   24.2267 C   0  0  0  0  0  0  0  0  0  0  0  0
  -21.8153  -14.1973   21.7854 C   0  0  0  0  0  0  0  0  0  0  0  0
  -25.4243  -26.9340   19.5641 C   0  0  0  0  0  0  0  0  0  0  0  0
  -24.8478  -25.3827   17.6228 C   0  0  0  0  0  0  0  0  0  0  0  0
  -31.1274  -24.4644   18.7346 C   0  0  0  0  0  0  0  0  0  0  0  0
  -27.8881  -19.9941   23.5724 C   0  0  0  0  0  0  0  0  0  0  0  0
  -30.0902  -24.0488   19.5912 C   0  0  0  0  0  0  0  0  0  0  0  0
  -26.9883  -19.0858   22.9965 C   0  0  0  0  0  0  0  0  0  0  0  0
  -26.5972  -29.1952   20.7017 C   0  0  0  0  0  0  0  0  0  0  0  0
  -25.3343  -19.6779   24.6769 C   0  0  0  0  0  0  0  0  0  0  0  0
  -26.4144  -31.0325   22.1553 C   0  0  0  0  0  0  0  0  0  0  0  0
  -24.8941  -32.5149   23.9647 C   0  0  0  0  0  0  0  0  0  0  0  0
  -25.9392  -30.4336   23.3220 C   0  0  0  0  0  0  0  0  0  0  0  0
  -24.8189  -25.7657   18.9771 C   0  0  0  0  0  0  0  0  0  0  0  0
  -24.1332  -24.2105   17.5821 C   0  0  0  0  0  0  0  0  0  0  0  0
  -21.8905  -15.9133   20.5993 C   0  0  0  0  0  0  0  0  0  0  0  0
  -25.4656  -26.0288   16.5018 C   0  0  0  0  0  0  0  0  0  0  0  0
  -28.7700  -20.7528   20.6143 C   0  0  0  0  0  0  0  0  0  0  0  0
  -29.3281  -17.5660   20.3805 C   0  0  0  0  0  0  0  0  0  0  0  0
  -28.6484  -14.4156   21.5029 C   0  0  0  0  0  0  0  0  0  0  0  0
  -23.0294  -19.2404   19.5888 C   0  0  0  0  0  0  0  0  0  0  0  0
  -31.4271  -23.7439   17.4440 C   0  0  0  0  0  0  0  0  0  0  0  0
  -29.2742  -20.1531   23.0105 C   0  0  0  0  0  0  0  0  0  0  0  0
  -27.3542  -18.2657   21.7874 C   0  0  0  0  0  0  0  0  0  0  0  0
  -30.8377  -22.3372   17.3807 C   0  0  0  0  0  0  0  0  0  0  0  0
  -21.2276  -22.0000   21.0838 C   0  0  0  0  0  0  0  0  0  0  0  0
  -29.3849  -22.3457   17.8454 C   0  0  0  0  0  0  0  0  0  0  0  0
  -22.0123  -23.2001   20.5508 C   0  0  0  0  0  0  0  0  0  0  0  0
  -22.1548  -20.8314   21.4044 C   0  0  0  0  0  0  0  0  0  0  0  0
  -23.7970  -21.5926   19.7319 C   0  0  0  0  0  0  0  0  0  0  0  0
  -29.2748  -22.8067   19.3038 C   0  0  1  0  0  0  0  0  0  0  0  0
  -29.3760  -19.7410   21.5452 C   0  0  1  0  0  0  0  0  0  0  0  0
  -22.9135  -22.7996   19.3677 C   0  0  2  0  0  0  0  0  0  0  0  0
  -29.2303  -12.0095   21.0914 C   0  0  0  0  0  0  0  0  0  0  0  0
  -21.2084  -15.5884   17.5520 C   0  0  0  0  0  0  0  0  0  0  0  0
  -19.7562  -17.2090   18.7705 C   0  0  0  0  0  0  0  0  0  0  0  0
  -27.5561  -17.5647   17.8966 C   0  0  0  0  0  0  0  0  0  0  0  0
  -27.4019  -15.0736   18.0931 C   0  0  0  0  0  0  0  0  0  0  0  0
  -29.6154  -16.1581   17.7096 C   0  0  0  0  0  0  0  0  0  0  0  0
  -21.7014  -19.2598   26.5405 C   0  0  0  0  0  0  0  0  0  0  0  0
  -23.2609  -17.5549   27.4795 C   0  0  0  0  0  0  0  0  0  0  0  0
  -29.7383  -14.0913   24.2353 C   0  0  0  0  0  0  0  0  0  0  0  0
  -22.0511  -15.5254   25.3902 C   0  0  0  0  0  0  0  0  0  0  0  0
  -20.9893  -14.5122   24.9380 C   0  0  0  0  0  0  0  0  0  0  0  0
  -21.4575  -16.8778   25.8065 C   0  0  0  0  0  0  0  0  0  0  0  0
  -20.1780  -14.9160   23.7005 C   0  0  0  0  0  0  0  0  0  0  0  0
  -23.4735  -18.2472   25.0594 C   0  0  0  0  0  0  0  0  0  1  0  0
  -22.1703  -16.9126   19.5719 C   0  0  1  0  0  0  0  0  0  0  0  0
  -28.5098  -16.3643   19.9739 C   0  0  1  0  0  0  0  0  0  0  0  0
  -29.5604  -13.2639   21.8853 C   0  0  2  0  0  0  0  0  0  0  0  0
  -21.1960  -16.9113   18.3314 C   0  0  0  0  0  0  0  0  0  0  0  0
  -28.2629  -16.3069   18.4399 C   0  0  0  0  0  0  0  0  0  0  0  0
  -22.4863  -17.9700   26.2149 C   0  0  0  0  0  0  0  0  0  0  0  0
  -22.3848  -14.6982   20.6499 N   0  0  0  0  0  0  0  0  0  0  0  0
  -24.1395  -24.9065   19.7415 N   0  0  0  0  0  0  0  0  0  0  0  0
  -21.0653  -16.1163   21.6613 N   0  0  0  0  0  0  0  0  0  0  0  0
  -20.9997  -15.0261   22.4406 N   0  0  0  0  0  0  0  0  0  0  0  0
  -23.7349  -23.9721   18.8645 N   0  0  0  0  0  0  0  0  0  0  0  0
  -28.7190  -18.4613   21.2711 N   0  0  0  0  0  0  0  0  0  0  0  0
  -22.9713  -20.4882   20.2315 N   0  0  0  0  0  0  0  0  0  0  0  0
  -23.8129  -23.3708   16.5747 N   0  0  0  0  0  0  0  0  0  0  0  0
  -26.1609  -27.2259   16.7203 N   0  0  0  0  0  0  0  0  0  0  0  0
  -29.6495  -21.7357   20.2021 N   0  0  0  0  0  0  0  0  0  0  0  0
  -29.2020  -15.1981   20.5118 N   0  0  0  0  0  0  0  0  0  0  0  0
  -22.2223  -18.2463   20.1282 N   0  0  0  0  0  0  0  0  0  0  0  0
  -29.4208  -12.9523   23.3359 N   0  3  0  0  0  0  0  0  0  0  0  0
  -25.3889  -25.5670   15.3380 O   0  0  0  0  0  0  0  0  0  0  0  0
  -27.5921  -20.6487   20.2926 O   0  0  0  0  0  0  0  0  0  0  0  0
  -30.4686  -17.7014   19.9302 O   0  0  0  0  0  0  0  0  0  0  0  0
  -27.5527  -14.6003   22.0281 O   0  0  0  0  0  0  0  0  0  0  0  0
  -23.7441  -19.0291   18.6030 O   0  0  0  0  0  0  0  0  0  0  0  0
  -27.1699  -30.2982   21.2566 O   0  0  0  0  0  0  0  0  0  0  0  0
  -24.0909  -19.5251   25.2083 O   0  0  0  0  0  0  0  0  0  1  0  0
  -24.1655  -33.2272   24.8340 F   0  0  0  0  0  0  0  0  0  0  0  0
  -26.2107  -29.1469   23.5798 F   0  0  0  0  0  0  0  0  0  0  0  0
  1  2  1  0  0  0  0
  1  5  2  0  0  0  0
  2  6  2  0  0  0  0
  3  8  2  0  0  0  0
  3 16  1  0  0  0  0
  4  9  1  0  0  0  0
  4 16  2  0  0  0  0
  5 18  1  0  0  0  0
  6 20  1  0  0  0  0
  7 10  2  0  0  0  0
  7 19  1  0  0  0  0
  8 22  1  0  0  0  0
  9 22  2  0  0  0  0
 10 23  1  0  0  0  0
 11 12  2  0  0  0  0
 11 24  1  0  0  0  0
 12 25  1  0  0  0  0
 13 21  1  0  0  0  0
 13 23  2  0  0  0  0
 14 25  2  0  0  0  0
 14 26  1  0  0  0  0
 15 67  2  0  0  0  0
 15 70  1  0  0  0  0
 16 27  1  0  0  0  0
 17 27  1  0  0  0  0
 17 28  2  0  0  0  0
 17 30  1  0  0  0  0
 18 20  2  0  0  0  0
 18 35  1  0  0  0  0
 19 21  2  0  0  0  0
 19 36  1  0  0  0  0
 20 44  1  0  0  0  0
 21 37  1  0  0  0  0
 22 85  1  0  0  0  0
 23 86  1  0  0  0  0
 24 26  2  0  0  0  0
 24 85  1  0  0  0  0
 25 87  1  0  0  0  0
 26 88  1  0  0  0  0
 27 68  2  0  0  0  0
 28 71  1  0  0  0  0
 28 74  1  0  0  0  0
 29 61  1  0  0  0  0
 29 67  1  0  0  0  0
 29 69  2  0  0  0  0
 30 75  1  0  0  0  0
 30 80  2  0  0  0  0
 31 45  1  0  0  0  0
 31 76  1  0  0  0  0
 31 81  2  0  0  0  0
 32 62  1  0  0  0  0
 32 72  1  0  0  0  0
 32 82  2  0  0  0  0
 33 63  1  0  0  0  0
 33 77  1  0  0  0  0
 33 83  2  0  0  0  0
 34 73  1  0  0  0  0
 34 78  1  0  0  0  0
 34 84  2  0  0  0  0
 35 38  1  0  0  0  0
 36 45  1  0  0  0  0
 37 72  1  0  0  0  0
 38 40  1  0  0  0  0
 39 41  1  0  0  0  0
 39 42  1  0  0  0  0
 40 44  1  0  0  0  0
 41 46  1  0  0  0  0
 42 73  1  0  0  0  0
 43 46  1  0  0  0  0
 43 73  1  0  0  0  0
 44 76  1  0  0  0  0
 45 72  1  0  0  0  0
 46 71  1  0  0  0  0
 47 63  1  0  0  0  0
 48 64  1  0  0  0  0
 49 64  1  0  0  0  0
 50 65  1  0  0  0  0
 51 65  1  0  0  0  0
 52 65  1  0  0  0  0
 53 66  1  0  0  0  0
 54 66  1  0  0  0  0
 55 79  1  0  0  0  0
 56 57  1  0  0  0  0
 56 58  1  0  0  0  0
 57 59  1  0  0  0  0
 58 66  1  0  0  0  0
 59 70  1  0  0  0  0
 60 66  1  0  0  0  0
 60 86  1  0  0  0  0
 61 64  1  0  0  0  0
 61 78  1  0  0  0  0
 62 65  1  0  0  0  0
 62 77  1  0  0  0  0
 63 79  1  0  0  0  0
 68 71  1  0  0  0  0
 69 70  1  0  0  0  0
M  CHG  1  79   1
M  ISO  4  34 100  60 101  78 100  86 101
M  END
> <Batch ID>
0068

> <Smiles>
CNC(C)C(=O)NC(C(=O)N1Cc2cc([101O:1][101CH2:1]C(C)(C)CCCCn3cnc(C([100NH:0][100C:0](=O)N4CCCC(n5nc(-c6ccc(Oc7ccc(F)cc7F)cc6)c(C(N)=O)c5N)C4)C(C)C)n3)ccc2CC1C(=O)NC1CCCc2ccccc21)C(C)(C)C

> <Shape>
0.195

> <Color>
0.053

> <Negative vol penalty>
0.000

$$$$

  -OEChem-04052318143D

 84 92  0     1  0  0  0  0  0999 V2000
  -18.1255  -26.5957   19.3221 C   0  0  0  0  0  0  0  0  0  0  0  0
  -19.4280  -26.9607   18.9972 C   0  0  0  0  0  0  0  0  0  0  0  0
  -25.0817  -13.9399   22.0813 C   0  0  0  0  0  0  0  0  0  0  0  0
  -25.6463  -14.4822   19.7957 C   0  0  0  0  0  0  0  0  0  0  0  0
  -17.6634  -26.7545   20.6279 C   0  0  0  0  0  0  0  0  0  0  0  0
  -20.2690  -27.4857   19.9778 C   0  0  0  0  0  0  0  0  0  0  0  0
  -24.9115  -25.4677   19.8395 C   0  0  0  0  0  0  0  0  0  0  0  0
  -24.2379  -12.9242   21.6319 C   0  0  0  0  0  0  0  0  0  0  0  0
  -24.8025  -13.4665   19.3463 C   0  0  0  0  0  0  0  0  0  0  0  0
  -25.7801  -25.9356   18.8544 C   0  0  0  0  0  0  0  0  0  0  0  0
  -24.5425   -9.7589   20.4825 C   0  0  0  0  0  0  0  0  0  0  0  0
  -24.6125   -8.5247   21.1285 C   0  0  0  0  0  0  0  0  0  0  0  0
  -26.8494  -27.3593   20.4819 C   0  0  0  0  0  0  0  0  0  0  0  0
  -22.2843   -8.7153   21.7452 C   0  0  0  0  0  0  0  0  0  0  0  0
  -30.8667  -24.0967   17.7124 C   0  0  0  0  0  0  0  0  0  0  0  0
  -25.7859  -14.7190   21.1632 C   0  0  0  0  0  0  0  0  0  0  0  0
  -28.0258  -15.6616   21.9392 C   0  0  0  0  0  0  0  0  0  0  0  0
  -18.5022  -27.2727   21.6272 C   0  0  0  0  0  0  0  0  0  0  0  0
  -24.9984  -25.9510   21.1530 C   0  0  0  0  0  0  0  0  0  0  0  0
  -19.8173  -27.6528   21.2979 C   0  0  0  0  0  0  0  0  0  0  0  0
  -25.9824  -26.8941   21.4824 C   0  0  0  0  0  0  0  0  0  0  0  0
  -24.0983  -12.6875   20.2644 C   0  0  0  0  0  0  0  0  0  0  0  0
  -26.7473  -26.8837   19.1748 C   0  0  0  0  0  0  0  0  0  0  0  0
  -23.3434  -10.4715   20.4680 C   0  0  0  0  0  0  0  0  0  0  0  0
  -23.4835   -8.0029   21.7598 C   0  0  0  0  0  0  0  0  0  0  0  0
  -22.2143   -9.9496   21.0993 C   0  0  0  0  0  0  0  0  0  0  0  0
  -26.6573  -15.7687   21.6268 C   0  0  0  0  0  0  0  0  0  0  0  0
  -28.3892  -16.9276   22.3285 C   0  0  0  0  0  0  0  0  0  0  0  0
  -30.7004  -23.6071   19.7347 C   0  0  0  0  0  0  0  0  0  0  0  0
  -28.8911  -14.5198   21.8825 C   0  0  0  0  0  0  0  0  0  0  0  0
  -23.0466  -27.5449   23.0904 C   0  0  0  0  0  0  0  0  0  0  0  0
  -25.3983  -27.0128   25.2603 C   0  0  0  0  0  0  0  0  0  0  0  0
  -28.6943  -26.3618   25.8596 C   0  0  0  0  0  0  0  0  0  0  0  0
  -28.2886  -22.4599   21.6011 C   0  0  0  0  0  0  0  0  0  0  0  0
  -17.9430  -27.4699   23.0140 C   0  0  0  0  0  0  0  0  0  0  0  0
  -24.0715  -25.4164   22.2100 C   0  0  0  0  0  0  0  0  0  0  0  0
  -26.1304  -27.4298   22.8822 C   0  0  0  0  0  0  0  0  0  0  0  0
  -19.0160  -27.6840   24.0785 C   0  0  0  0  0  0  0  0  0  0  0  0
  -25.5624  -20.9935   23.3601 C   0  0  0  0  0  0  0  0  0  0  0  0
  -20.0483  -28.6996   23.5994 C   0  0  0  0  0  0  0  0  0  0  0  0
  -25.7136  -19.4961   23.0865 C   0  0  0  0  0  0  0  0  0  0  0  0
  -25.9551  -21.8316   22.1454 C   0  0  0  0  0  0  0  0  0  0  0  0
  -27.4478  -20.0483   21.3297 C   0  0  0  0  0  0  0  0  0  0  0  0
  -20.7675  -28.2027   22.3395 C   0  0  1  0  0  0  0  0  0  0  0  0
  -23.9152  -26.3585   23.3997 C   0  0  1  0  0  0  0  0  0  0  0  0
  -27.1168  -19.1641   22.5442 C   0  0  2  0  0  0  0  0  0  0  0  0
  -30.7570  -25.8143   27.1797 C   0  0  0  0  0  0  0  0  0  0  0  0
  -31.7152  -21.5195   22.8911 C   0  0  0  0  0  0  0  0  0  0  0  0
  -33.1561  -23.1907   21.7119 C   0  0  0  0  0  0  0  0  0  0  0  0
  -32.4363  -21.1046   20.5444 C   0  0  0  0  0  0  0  0  0  0  0  0
  -25.4159  -30.0174   25.7916 C   0  0  0  0  0  0  0  0  0  0  0  0
  -27.6358  -29.7353   26.9144 C   0  0  0  0  0  0  0  0  0  0  0  0
  -25.6189  -28.5949   27.8385 C   0  0  0  0  0  0  0  0  0  0  0  0
  -28.2252  -23.4507   25.6051 C   0  0  0  0  0  0  0  0  0  0  0  0
  -29.3210  -26.7796   16.6455 C   0  0  0  0  0  0  0  0  0  0  0  0
  -30.4014  -26.6748   17.7242 C   0  0  0  0  0  0  0  0  0  0  0  0
  -27.9240  -26.4451   17.1552 C   0  0  0  0  0  0  0  0  0  1  0  0
  -30.6570  -22.9312   21.0284 C   0  0  2  0  0  0  0  0  0  0  0  0
  -26.6448  -27.7491   25.6881 C   0  0  1  0  0  0  0  0  0  0  0  0
  -29.3727  -25.3451   26.7598 C   0  0  2  0  0  0  0  0  0  0  0  0
  -31.9861  -22.2044   21.5347 C   0  0  0  0  0  0  0  0  0  0  0  0
  -26.3251  -29.0157   26.5312 C   0  0  0  0  0  0  0  0  0  0  0  0
  -30.9468  -23.0418   18.5757 N   0  0  0  0  0  0  0  0  0  0  0  0
  -26.1835  -17.0050   21.8026 N   0  0  0  0  0  0  0  0  0  0  0  0
  -30.4849  -24.9383   19.5580 N   0  0  0  0  0  0  0  0  0  0  0  0
  -30.5863  -25.2792   18.2643 N   0  0  0  0  0  0  0  0  0  0  0  0
  -27.2602  -17.6864   22.2298 N   0  0  0  0  0  0  0  0  0  0  0  0
  -25.1964  -26.8809   23.8792 N   0  0  0  0  0  0  0  0  0  0  0  0
  -27.2965  -21.4689   21.6816 N   0  0  0  0  0  0  0  0  0  0  0  0
  -29.5611  -17.4547   22.7423 N   0  0  0  0  0  0  0  0  0  0  0  0
  -28.3551  -13.2955   21.4604 N   0  0  0  0  0  0  0  0  0  0  0  0
  -21.7675  -27.2151   22.6846 N   0  0  0  0  0  0  0  0  0  0  0  0
  -27.4819  -26.7705   26.3737 N   0  0  0  0  0  0  0  0  0  0  0  0
  -29.5336  -22.0301   21.1581 N   0  0  0  0  0  0  0  0  0  0  0  0
  -29.5129  -24.0401   26.0539 N   0  3  0  0  0  0  0  0  0  0  0  0
  -30.0998  -14.5796   22.2125 O   0  0  0  0  0  0  0  0  0  0  0  0
  -23.5026  -28.6758   23.2123 O   0  0  0  0  0  0  0  0  0  0  0  0
  -24.6355  -26.5649   26.1201 O   0  0  0  0  0  0  0  0  0  0  0  0
  -29.1919  -26.7569   24.8075 O   0  0  0  0  0  0  0  0  0  0  0  0
  -28.0819  -23.6392   21.9068 O   0  0  0  0  0  0  0  0  0  0  0  0
  -23.2752  -11.6963   19.8255 O   0  0  0  0  0  0  0  0  0  0  0  0
  -27.5959  -27.3426   18.2150 O   0  0  0  0  0  0  0  0  0  1  0  0
  -23.5505   -6.8169   22.3788 F   0  0  0  0  0  0  0  0  0  0  0  0
  -21.0592  -10.6290   21.0876 F   0  0  0  0  0  0  0  0  0  0  0  0
  1  2  1  0  0  0  0
  1  5  2  0  0  0  0
  2  6  2  0  0  0  0
  3  8  2  0  0  0  0
  3 16  1  0  0  0  0
  4  9  1  0  0  0  0
  4 16  2  0  0  0  0
  5 18  1  0  0  0  0
  6 20  1  0  0  0  0
  7 10  2  0  0  0  0
  7 19  1  0  0  0  0
  8 22  1  0  0  0  0
  9 22  2  0  0  0  0
 10 23  1  0  0  0  0
 11 12  2  0  0  0  0
 11 24  1  0  0  0  0
 12 25  1  0  0  0  0
 13 21  1  0  0  0  0
 13 23  2  0  0  0  0
 14 25  2  0  0  0  0
 14 26  1  0  0  0  0
 15 63  2  0  0  0  0
 15 66  1  0  0  0  0
 16 27  1  0  0  0  0
 17 27  1  0  0  0  0
 17 28  2  0  0  0  0
 17 30  1  0  0  0  0
 18 20  2  0  0  0  0
 18 35  1  0  0  0  0
 19 21  2  0  0  0  0
 19 36  1  0  0  0  0
 20 44  1  0  0  0  0
 21 37  1  0  0  0  0
 22 81  1  0  0  0  0
 23 82  1  0  0  0  0
 24 26  2  0  0  0  0
 24 81  1  0  0  0  0
 25 83  1  0  0  0  0
 26 84  1  0  0  0  0
 27 64  2  0  0  0  0
 28 67  1  0  0  0  0
 28 70  1  0  0  0  0
 29 58  1  0  0  0  0
 29 63  1  0  0  0  0
 29 65  2  0  0  0  0
 30 71  1  0  0  0  0
 30 76  2  0  0  0  0
 31 45  1  0  0  0  0
 31 72  1  0  0  0  0
 31 77  2  0  0  0  0
 32 59  1  0  0  0  0
 32 68  1  0  0  0  0
 32 78  2  0  0  0  0
 33 60  1  0  0  0  0
 33 73  1  0  0  0  0
 33 79  2  0  0  0  0
 34 69  1  0  0  0  0
 34 74  1  0  0  0  0
 34 80  2  0  0  0  0
 35 38  1  0  0  0  0
 36 45  1  0  0  0  0
 37 68  1  0  0  0  0
 38 40  1  0  0  0  0
 39 41  1  0  0  0  0
 39 42  1  0  0  0  0
 40 44  1  0  0  0  0
 41 46  1  0  0  0  0
 42 69  1  0  0  0  0
 43 46  1  0  0  0  0
 43 69  1  0  0  0  0
 44 72  1  0  0  0  0
 45 68  1  0  0  0  0
 46 67  1  0  0  0  0
 47 60  1  0  0  0  0
 48 61  1  0  0  0  0
 49 61  1  0  0  0  0
 50 61  1  0  0  0  0
 51 62  1  0  0  0  0
 52 62  1  0  0  0  0
 53 62  1  0  0  0  0
 54 75  1  0  0  0  0
 55 56  1  0  0  0  0
 55 57  1  0  0  0  0
 56 66  1  0  0  0  0
 57 82  1  0  0  0  0
 58 61  1  0  0  0  0
 58 74  1  0  0  0  0
 59 62  1  0  0  0  0
 59 73  1  0  0  0  0
 60 75  1  0  0  0  0
 64 67  1  0  0  0  0
 65 66  1  0  0  0  0
M  CHG  1  75   1
M  ISO  4  34 100  57 101  74 100  82 101
M  END
> <Batch ID>
0068

> <Smiles>
CNC(C)C(=O)NC(C(=O)N1Cc2cc([101O:1][101CH2:1]CCn3cnc(C([100NH:0][100C:0](=O)N4CCCC(n5nc(-c6ccc(Oc7ccc(F)cc7F)cc6)c(C(N)=O)c5N)C4)C(C)(C)C)n3)ccc2CC1C(=O)NC1CCCc2ccccc21)C(C)(C)C

> <Shape>
0.222

> <Color>
0.076

> <Negative vol penalty>
0.000

$$$$

  -OEChem-04052318143D

 83 91  0     1  0  0  0  0  0999 V2000
  -28.1680  -31.2262   21.2704 C   0  0  0  0  0  0  0  0  0  0  0  0
  -27.7533  -29.9661   21.6895 C   0  0  0  0  0  0  0  0  0  0  0  0
  -23.4570   -9.6469   20.6531 C   0  0  0  0  0  0  0  0  0  0  0  0
  -24.0649  -10.2756   22.9052 C   0  0  0  0  0  0  0  0  0  0  0  0
  -28.6798  -31.3986   19.9850 C   0  0  0  0  0  0  0  0  0  0  0  0
  -27.8490  -28.8779   20.8229 C   0  0  0  0  0  0  0  0  0  0  0  0
  -29.7372  -24.7570   23.0808 C   0  0  0  0  0  0  0  0  0  0  0  0
  -22.8337   -8.4988   21.1418 C   0  0  0  0  0  0  0  0  0  0  0  0
  -23.4416   -9.1275   23.3940 C   0  0  0  0  0  0  0  0  0  0  0  0
  -28.8736  -24.0243   23.8939 C   0  0  0  0  0  0  0  0  0  0  0  0
  -20.2925   -8.0942   24.0544 C   0  0  0  0  0  0  0  0  0  0  0  0
  -19.4725   -8.2307   25.1745 C   0  0  0  0  0  0  0  0  0  0  0  0
  -28.5431  -22.4400   22.1050 C   0  0  0  0  0  0  0  0  0  0  0  0
  -20.8756   -6.6845   26.3901 C   0  0  0  0  0  0  0  0  0  0  0  0
  -30.3663  -18.1850   23.8907 C   0  0  0  0  0  0  0  0  0  0  0  0
  -30.7317  -17.4426   25.9333 C   0  0  0  0  0  0  0  0  0  0  0  0
  -24.0727  -10.5353   21.5348 C   0  0  0  0  0  0  0  0  0  0  0  0
  -24.1343  -12.9876   20.8345 C   0  0  0  0  0  0  0  0  0  0  0  0
  -28.7909  -30.3100   19.1056 C   0  0  0  0  0  0  0  0  0  0  0  0
  -30.0022  -24.3419   21.7678 C   0  0  0  0  0  0  0  0  0  0  0  0
  -28.3615  -29.0361   19.5241 C   0  0  0  0  0  0  0  0  0  0  0  0
  -29.4125  -23.1677   21.2782 C   0  0  0  0  0  0  0  0  0  0  0  0
  -22.8259   -8.2391   22.5123 C   0  0  0  0  0  0  0  0  0  0  0  0
  -28.2741  -22.8672   23.4051 C   0  0  0  0  0  0  0  0  0  0  0  0
  -21.4040   -7.2528   24.1021 C   0  0  0  0  0  0  0  0  0  0  0  0
  -19.7641   -7.5259   26.3423 C   0  0  0  0  0  0  0  0  0  0  0  0
  -21.6956   -6.5480   25.2700 C   0  0  0  0  0  0  0  0  0  0  0  0
  -24.7172  -11.7212   21.0305 C   0  0  0  0  0  0  0  0  0  0  0  0
  -31.0043  -16.9672   23.8765 C   0  0  0  0  0  0  0  0  0  0  0  0
  -25.1556  -13.7634   20.3432 C   0  0  0  0  0  0  0  0  0  0  0  0
  -22.7898  -13.4236   21.0752 C   0  0  0  0  0  0  0  0  0  0  0  0
  -29.5350  -25.5916   18.8827 C   0  0  0  0  0  0  0  0  0  0  0  0
  -30.8896  -14.4320   20.9925 C   0  0  0  0  0  0  0  0  0  0  0  0
  -31.2222  -22.9963   17.9131 C   0  0  0  0  0  0  0  0  0  0  0  0
  -32.2515  -19.8057   18.5515 C   0  0  0  0  0  0  0  0  0  0  0  0
  -29.3065  -30.5543   17.7094 C   0  0  0  0  0  0  0  0  0  0  0  0
  -30.9570  -25.1287   20.9124 C   0  0  0  0  0  0  0  0  0  0  0  0
  -29.6799  -22.6683   19.8826 C   0  0  0  0  0  0  0  0  0  0  0  0
  -29.7232  -29.2786   16.9821 C   0  0  0  0  0  0  0  0  0  0  0  0
  -29.4614  -12.8624   18.1052 C   0  0  0  0  0  0  0  0  0  0  0  0
  -28.6584  -28.1987   17.1458 C   0  0  0  0  0  0  0  0  0  0  0  0
  -28.0463  -12.5022   18.5555 C   0  0  0  0  0  0  0  0  0  0  0  0
  -30.4618  -12.7312   19.2493 C   0  0  0  0  0  0  0  0  0  0  0  0
  -28.6863  -13.1627   20.9175 C   0  0  0  0  0  0  0  0  0  0  0  0
  -28.4726  -27.8263   18.6217 C   0  0  1  0  0  0  0  0  0  0  0  0
  -30.7533  -24.8943   19.4188 C   0  0  1  0  0  0  0  0  0  0  0  0
  -27.6392  -13.3115   19.7995 C   0  0  2  0  0  0  0  0  0  0  0  0
  -33.5903  -17.9313   17.5558 C   0  0  0  0  0  0  0  0  0  0  0  0
  -28.9224  -22.3684   16.0088 C   0  0  0  0  0  0  0  0  0  0  0  0
  -29.8510  -20.0566   15.7607 C   0  0  0  0  0  0  0  0  0  0  0  0
  -31.2023  -22.0256   15.0398 C   0  0  0  0  0  0  0  0  0  0  0  0
  -25.7451  -20.6236   26.0215 C   0  0  0  0  0  0  0  0  0  0  0  0
  -27.4768  -20.9736   27.7870 C   0  0  0  0  0  0  0  0  0  0  0  0
  -34.1720  -19.8266   20.8032 C   0  0  0  0  0  0  0  0  0  0  0  0
  -31.4306  -16.1765   22.7119 C   0  0  0  0  0  0  0  0  0  0  0  0
  -30.3709  -15.1833   22.1928 C   0  0  0  0  0  0  0  0  0  0  0  0
  -28.0194  -19.6393   25.6859 C   0  0  0  0  0  0  0  0  0  0  0  0
  -29.5489  -19.7155   25.7825 C   0  0  0  0  0  0  0  0  0  0  0  0
  -27.6709  -22.1866   25.6025 C   0  0  0  0  0  0  0  0  0  1  0  0
  -30.8732  -21.5847   17.5075 C   0  0  1  0  0  0  0  0  0  0  0  0
  -33.6185  -19.1516   18.4630 C   0  0  2  0  0  0  0  0  0  0  0  0
  -30.2055  -21.5191   16.1049 C   0  0  0  0  0  0  0  0  0  0  0  0
  -27.2510  -20.8588   26.2690 C   0  0  0  0  0  0  0  0  0  0  0  0
  -31.2287  -16.5103   25.1511 N   0  0  0  0  0  0  0  0  0  0  0  0
  -26.0086  -11.6900   20.6911 N   0  0  0  0  0  0  0  0  0  0  0  0
  -30.1980  -18.4764   25.2151 N   0  0  0  0  0  0  0  0  0  0  0  0
  -26.2457  -12.9463   20.2769 N   0  0  0  0  0  0  0  0  0  0  0  0
  -30.6158  -23.4757   19.0828 N   0  0  0  0  0  0  0  0  0  0  0  0
  -30.0281  -13.4962   20.4197 N   0  0  0  0  0  0  0  0  0  0  0  0
  -25.2187  -15.0579   19.9655 N   0  0  0  0  0  0  0  0  0  0  0  0
  -21.8677  -12.4977   21.5819 N   0  0  0  0  0  0  0  0  0  0  0  0
  -29.5455  -26.9615   19.0637 N   0  0  0  0  0  0  0  0  0  0  0  0
  -32.1052  -20.8114   17.6195 N   0  0  0  0  0  0  0  0  0  0  0  0
  -34.0756  -18.7218   19.8147 N   0  3  0  0  0  0  0  0  0  0  0  0
  -22.4131  -14.5952   20.8324 O   0  0  0  0  0  0  0  0  0  0  0  0
  -28.6516  -24.9355   18.3434 O   0  0  0  0  0  0  0  0  0  0  0  0
  -32.0257  -14.6731   20.5762 O   0  0  0  0  0  0  0  0  0  0  0  0
  -32.0096  -23.6471   17.2216 O   0  0  0  0  0  0  0  0  0  0  0  0
  -31.3974  -19.4568   19.3635 O   0  0  0  0  0  0  0  0  0  0  0  0
  -22.2176   -7.1189   22.9895 O   0  0  0  0  0  0  0  0  0  0  0  0
  -27.4302  -22.1506   24.1964 O   0  0  0  0  0  0  0  0  0  1  0  0
  -18.9774   -7.6583   27.4183 F   0  0  0  0  0  0  0  0  0  0  0  0
  -22.7627   -5.7391   25.3223 F   0  0  0  0  0  0  0  0  0  0  0  0
  1  2  1  0  0  0  0
  1  5  2  0  0  0  0
  2  6  2  0  0  0  0
  3  8  2  0  0  0  0
  3 17  1  0  0  0  0
  4  9  1  0  0  0  0
  4 17  2  0  0  0  0
  5 19  1  0  0  0  0
  6 21  1  0  0  0  0
  7 10  2  0  0  0  0
  7 20  1  0  0  0  0
  8 23  1  0  0  0  0
  9 23  2  0  0  0  0
 10 24  1  0  0  0  0
 11 12  2  0  0  0  0
 11 25  1  0  0  0  0
 12 26  1  0  0  0  0
 13 22  1  0  0  0  0
 13 24  2  0  0  0  0
 14 26  2  0  0  0  0
 14 27  1  0  0  0  0
 15 29  2  0  0  0  0
 15 66  1  0  0  0  0
 16 64  2  0  0  0  0
 16 66  1  0  0  0  0
 17 28  1  0  0  0  0
 18 28  1  0  0  0  0
 18 30  2  0  0  0  0
 18 31  1  0  0  0  0
 19 21  2  0  0  0  0
 19 36  1  0  0  0  0
 20 22  2  0  0  0  0
 20 37  1  0  0  0  0
 21 45  1  0  0  0  0
 22 38  1  0  0  0  0
 23 80  1  0  0  0  0
 24 81  1  0  0  0  0
 25 27  2  0  0  0  0
 25 80  1  0  0  0  0
 26 82  1  0  0  0  0
 27 83  1  0  0  0  0
 28 65  2  0  0  0  0
 29 55  1  0  0  0  0
 29 64  1  0  0  0  0
 30 67  1  0  0  0  0
 30 70  1  0  0  0  0
 31 71  1  0  0  0  0
 31 75  2  0  0  0  0
 32 46  1  0  0  0  0
 32 72  1  0  0  0  0
 32 76  2  0  0  0  0
 33 56  1  0  0  0  0
 33 69  1  0  0  0  0
 33 77  2  0  0  0  0
 34 60  1  0  0  0  0
 34 68  1  0  0  0  0
 34 78  2  0  0  0  0
 35 61  1  0  0  0  0
 35 73  1  0  0  0  0
 35 79  2  0  0  0  0
 36 39  1  0  0  0  0
 37 46  1  0  0  0  0
 38 68  1  0  0  0  0
 39 41  1  0  0  0  0
 40 42  1  0  0  0  0
 40 43  1  0  0  0  0
 41 45  1  0  0  0  0
 42 47  1  0  0  0  0
 43 69  1  0  0  0  0
 44 47  1  0  0  0  0
 44 69  1  0  0  0  0
 45 72  1  0  0  0  0
 46 68  1  0  0  0  0
 47 67  1  0  0  0  0
 48 61  1  0  0  0  0
 49 62  1  0  0  0  0
 50 62  1  0  0  0  0
 51 62  1  0  0  0  0
 52 63  1  0  0  0  0
 53 63  1  0  0  0  0
 54 74  1  0  0  0  0
 55 56  1  0  0  0  0
 57 58  1  0  0  0  0
 57 63  1  0  0  0  0
 58 66  1  0  0  0  0
 59 63  1  0  0  0  0
 59 81  1  0  0  0  0
 60 62  1  0  0  0  0
 60 73  1  0  0  0  0
 61 74  1  0  0  0  0
 65 67  1  0  0  0  0
M  CHG  1  74   1
M  ISO  4  33 100  56 100  59 101  81 101
M  END
> <Batch ID>
0068

> <Smiles>
CNC(C)C(=O)NC(C(=O)N1Cc2cc([101O:1][101CH2:1]C(C)(C)CCn3cnc(C[100CH2:0][100C:0](=O)N4CCCC(n5nc(-c6ccc(Oc7ccc(F)cc7F)cc6)c(C(N)=O)c5N)C4)c3)ccc2CC1C(=O)NC1CCCc2ccccc21)C(C)(C)C

> <Shape>
0.230

> <Color>
0.153

> <Negative vol penalty>
0.000

$$$$

  -OEChem-04052318143D

 89 97  0     1  0  0  0  0  0999 V2000
  -26.9268   -5.8385   24.6895 C   0  0  0  0  0  0  0  0  0  0  0  0
  -26.5090   -6.1261   23.3941 C   0  0  0  0  0  0  0  0  0  0  0  0
  -25.5154  -31.1977   22.1619 C   0  0  0  0  0  0  0  0  0  0  0  0
  -27.0795  -31.6992   20.3901 C   0  0  0  0  0  0  0  0  0  0  0  0
  -26.5050   -6.6385   25.7506 C   0  0  0  0  0  0  0  0  0  0  0  0
  -25.6681   -7.2133   23.1592 C   0  0  0  0  0  0  0  0  0  0  0  0
  -27.6408  -12.5368   18.7251 C   0  0  0  0  0  0  0  0  0  0  0  0
  -25.7003  -32.4766   22.6871 C   0  0  0  0  0  0  0  0  0  0  0  0
  -27.2644  -32.9782   20.9153 C   0  0  0  0  0  0  0  0  0  0  0  0
  -27.8569  -13.4892   17.7290 C   0  0  0  0  0  0  0  0  0  0  0  0
  -24.6377  -35.6180   22.0274 C   0  0  0  0  0  0  0  0  0  0  0  0
  -23.5026  -36.3296   22.4156 C   0  0  0  0  0  0  0  0  0  0  0  0
  -25.7854  -14.5898   18.3170 C   0  0  0  0  0  0  0  0  0  0  0  0
  -24.3492  -36.4472   24.6754 C   0  0  0  0  0  0  0  0  0  0  0  0
  -30.8273  -19.7197   19.4624 C   0  0  0  0  0  0  0  0  0  0  0  0
  -26.2051  -30.8090   21.0134 C   0  0  0  0  0  0  0  0  0  0  0  0
  -25.0604  -29.0906   19.5153 C   0  0  0  0  0  0  0  0  0  0  0  0
  -25.6663   -7.7419   25.5273 C   0  0  0  0  0  0  0  0  0  0  0  0
  -26.5025  -12.6163   19.5322 C   0  0  0  0  0  0  0  0  0  0  0  0
  -25.2336   -8.0281   24.2184 C   0  0  0  0  0  0  0  0  0  0  0  0
  -25.5699  -13.6459   19.3246 C   0  0  0  0  0  0  0  0  0  0  0  0
  -26.5748  -33.3668   22.0639 C   0  0  0  0  0  0  0  0  0  0  0  0
  -26.9313  -14.5130   17.5253 C   0  0  0  0  0  0  0  0  0  0  0  0
  -25.6285  -35.3208   22.9632 C   0  0  0  0  0  0  0  0  0  0  0  0
  -23.3584  -36.7443   23.7396 C   0  0  0  0  0  0  0  0  0  0  0  0
  -25.4843  -35.7355   24.2871 C   0  0  0  0  0  0  0  0  0  0  0  0
  -26.0150  -29.4879   20.4707 C   0  0  0  0  0  0  0  0  0  0  0  0
  -30.3809  -20.7050   18.6054 C   0  0  0  0  0  0  0  0  0  0  0  0
  -29.9336  -18.6995   19.7165 C   0  0  0  0  0  0  0  0  0  0  0  0
  -25.2907  -27.7483   19.3375 C   0  0  0  0  0  0  0  0  0  0  0  0
  -28.3793  -19.6557   18.3612 C   0  0  0  0  0  0  0  0  0  0  0  0
  -24.0555  -29.8656   18.8481 C   0  0  0  0  0  0  0  0  0  0  0  0
  -24.5344  -11.1501   22.3699 C   0  0  0  0  0  0  0  0  0  0  0  0
  -24.4076  -14.1995   22.6794 C   0  0  0  0  0  0  0  0  0  0  0  0
  -25.3003  -17.1911   23.0742 C   0  0  0  0  0  0  0  0  0  0  0  0
  -30.1441  -24.4623   20.0465 C   0  0  0  0  0  0  0  0  0  0  0  0
  -25.1984   -8.5495   26.7120 C   0  0  0  0  0  0  0  0  0  0  0  0
  -26.1983  -11.5768   20.5766 C   0  0  0  0  0  0  0  0  0  0  0  0
  -24.3425  -13.6718   20.1939 C   0  0  0  0  0  0  0  0  0  0  0  0
  -24.6102   -9.9056   26.3306 C   0  0  0  0  0  0  0  0  0  0  0  0
  -26.9464  -23.8950   21.6437 C   0  0  0  0  0  0  0  0  0  0  0  0
  -23.6342   -9.7562   25.1679 C   0  0  0  0  0  0  0  0  0  0  0  0
  -26.2549  -25.2422   21.4268 C   0  0  0  0  0  0  0  0  0  0  0  0
  -28.4353  -24.0767   21.9238 C   0  0  0  0  0  0  0  0  0  0  0  0
  -28.4799  -26.1928   20.6614 C   0  0  0  0  0  0  0  0  0  0  0  0
  -24.3414   -9.2135   23.9201 C   0  0  1  0  0  0  0  0  0  0  0  0
  -25.5017  -12.1570   21.8205 C   0  0  1  0  0  0  0  0  0  0  0  0
  -26.9765  -26.0758   20.3513 C   0  0  2  0  0  0  0  0  0  0  0  0
  -25.7032  -19.5935   23.6773 C   0  0  0  0  0  0  0  0  0  0  0  0
  -28.6845  -15.9102   20.4844 C   0  0  0  0  0  0  0  0  0  0  0  0
  -29.8148  -16.5817   22.6345 C   0  0  0  0  0  0  0  0  0  0  0  0
  -30.6735  -22.9132   17.2885 C   0  0  0  0  0  0  0  0  0  0  0  0
  -32.5714  -21.3379   17.5573 C   0  0  0  0  0  0  0  0  0  0  0  0
  -21.6147  -14.1863   21.4532 C   0  0  0  0  0  0  0  0  0  0  0  0
  -21.3963  -16.5949   22.1006 C   0  0  0  0  0  0  0  0  0  0  0  0
  -21.6937  -14.8538   23.8620 C   0  0  0  0  0  0  0  0  0  0  0  0
  -26.9337  -16.4472   25.4274 C   0  0  0  0  0  0  0  0  0  0  0  0
  -27.0045  -19.6197   17.7426 C   0  0  0  0  0  0  0  0  0  0  0  0
  -26.9988  -19.1924   16.2707 C   0  0  0  0  0  0  0  0  0  0  0  0
  -27.5030  -17.7640   16.0600 C   0  0  0  0  0  0  0  0  0  0  0  0
  -31.7495  -22.6382   19.5443 C   0  0  0  0  0  0  0  0  0  0  0  0
  -26.6218  -16.7489   16.7752 C   0  0  0  0  0  0  0  0  0  1  0  0
  -23.6513  -15.4703   22.3857 C   0  0  1  0  0  0  0  0  0  0  0  0
  -25.6056  -18.1672   24.1960 C   0  0  2  0  0  0  0  0  0  0  0  0
  -29.2613  -17.0573   21.2999 C   0  0  0  0  0  0  0  0  0  0  0  0
  -31.2771  -21.8495   18.2704 C   0  0  0  0  0  0  0  0  0  0  0  0
  -22.1105  -15.2677   22.4339 C   0  0  0  0  0  0  0  0  0  0  0  0
  -26.7936  -28.4795   20.8719 N   0  0  0  0  0  0  0  0  0  0  0  0
  -29.1583  -20.7045   18.0348 N   0  0  0  0  0  0  0  0  0  0  0  0
  -28.6968  -18.6357   19.1811 N   0  0  0  0  0  0  0  0  0  0  0  0
  -26.3285  -27.4352   20.1652 N   0  0  0  0  0  0  0  0  0  0  0  0
  -24.7078  -13.3754   21.5880 N   0  0  0  0  0  0  0  0  0  0  0  0
  -29.0662  -24.8623   20.8538 N   0  0  0  0  0  0  0  0  0  0  0  0
  -24.7046  -26.8169   18.5555 N   0  0  0  0  0  0  0  0  0  0  0  0
  -23.9562  -31.2311   19.1481 N   0  0  0  0  0  0  0  0  0  0  0  0
  -25.0952  -10.2638   23.2695 N   0  0  0  0  0  0  0  0  0  0  0  0
  -24.1522  -16.4694   23.3234 N   0  0  0  0  0  0  0  0  0  0  0  0
  -30.6457  -23.1910   20.2973 N   0  0  0  0  0  0  0  0  0  0  0  0
  -26.8973  -17.8159   24.8511 N   0  3  0  0  0  0  0  0  0  0  0  0
  -23.2581  -29.3588   18.0230 O   0  0  0  0  0  0  0  0  0  0  0  0
  -23.3644  -11.1754   22.0063 O   0  0  0  0  0  0  0  0  0  0  0  0
  -24.7199  -13.9391   23.8447 O   0  0  0  0  0  0  0  0  0  0  0  0
  -26.0075  -17.0826   22.0748 O   0  0  0  0  0  0  0  0  0  0  0  0
  -30.6210  -25.1830   19.1632 O   0  0  0  0  0  0  0  0  0  0  0  0
  -26.7552  -34.6149   22.5760 O   0  0  0  0  0  0  0  0  0  0  0  0
  -27.1507  -15.4421   16.5540 O   0  0  0  0  0  0  0  0  0  1  0  0
  -30.3015  -17.6829   20.5575 O   0  0  0  0  0  0  0  0  0  0  0  0
  -22.2690  -37.4290   24.1119 F   0  0  0  0  0  0  0  0  0  0  0  0
  -26.4334  -35.4540   25.1904 F   0  0  0  0  0  0  0  0  0  0  0  0
  1  2  1  0  0  0  0
  1  5  2  0  0  0  0
  2  6  2  0  0  0  0
  3  8  2  0  0  0  0
  3 16  1  0  0  0  0
  4  9  1  0  0  0  0
  4 16  2  0  0  0  0
  5 18  1  0  0  0  0
  6 20  1  0  0  0  0
  7 10  2  0  0  0  0
  7 19  1  0  0  0  0
  8 22  1  0  0  0  0
  9 22  2  0  0  0  0
 10 23  1  0  0  0  0
 11 12  2  0  0  0  0
 11 24  1  0  0  0  0
 12 25  1  0  0  0  0
 13 21  1  0  0  0  0
 13 23  2  0  0  0  0
 14 25  2  0  0  0  0
 14 26  1  0  0  0  0
 15 28  2  0  0  0  0
 15 29  1  0  0  0  0
 16 27  1  0  0  0  0
 17 27  1  0  0  0  0
 17 30  2  0  0  0  0
 17 32  1  0  0  0  0
 18 20  2  0  0  0  0
 18 37  1  0  0  0  0
 19 21  2  0  0  0  0
 19 38  1  0  0  0  0
 20 46  1  0  0  0  0
 21 39  1  0  0  0  0
 22 85  1  0  0  0  0
 23 86  1  0  0  0  0
 24 26  2  0  0  0  0
 24 85  1  0  0  0  0
 25 88  1  0  0  0  0
 26 89  1  0  0  0  0
 27 68  2  0  0  0  0
 28 66  1  0  0  0  0
 28 69  1  0  0  0  0
 29 70  2  0  0  0  0
 29 87  1  0  0  0  0
 30 71  1  0  0  0  0
 30 74  1  0  0  0  0
 31 58  1  0  0  0  0
 31 69  2  0  0  0  0
 31 70  1  0  0  0  0
 32 75  1  0  0  0  0
 32 80  2  0  0  0  0
 33 47  1  0  0  0  0
 33 76  1  0  0  0  0
 33 81  2  0  0  0  0
 34 63  1  0  0  0  0
 34 72  1  0  0  0  0
 34 82  2  0  0  0  0
 35 64  1  0  0  0  0
 35 77  1  0  0  0  0
 35 83  2  0  0  0  0
 36 73  1  0  0  0  0
 36 78  1  0  0  0  0
 36 84  2  0  0  0  0
 37 40  1  0  0  0  0
 38 47  1  0  0  0  0
 39 72  1  0  0  0  0
 40 42  1  0  0  0  0
 41 43  1  0  0  0  0
 41 44  1  0  0  0  0
 42 46  1  0  0  0  0
 43 48  1  0  0  0  0
 44 73  1  0  0  0  0
 45 48  1  0  0  0  0
 45 73  1  0  0  0  0
 46 76  1  0  0  0  0
 47 72  1  0  0  0  0
 48 71  1  0  0  0  0
 49 64  1  0  0  0  0
 50 65  1  0  0  0  0
 51 65  1  0  0  0  0
 52 66  1  0  0  0  0
 53 66  1  0  0  0  0
 54 67  1  0  0  0  0
 55 67  1  0  0  0  0
 56 67  1  0  0  0  0
 57 79  1  0  0  0  0
 58 59  1  0  0  0  0
 59 60  1  0  0  0  0
 60 62  1  0  0  0  0
 61 66  1  0  0  0  0
 61 78  1  0  0  0  0
 62 86  1  0  0  0  0
 63 67  1  0  0  0  0
 63 77  1  0  0  0  0
 64 79  1  0  0  0  0
 65 87  1  0  0  0  0
 68 71  1  0  0  0  0
M  CHG  1  79   1
M  ISO  4  36 100  62 101  78 100  86 101
M  END
> <Batch ID>
0068

> <Smiles>
CNC(C)C(=O)NC(C(=O)N1Cc2cc([101O:1][101CH2:1]CCCc3nc(OC(C)C)cc(C(C)(C)C[100NH:0][100C:0](=O)N4CCCC(n5nc(-c6ccc(Oc7ccc(F)cc7F)cc6)c(C(N)=O)c5N)C4)n3)ccc2CC1C(=O)NC1CCCc2ccccc21)C(C)(C)C

> <Shape>
0.241

> <Color>
0.080

> <Negative vol penalty>
0.000

$$$$

  -OEChem-04052318143D

 87 95  0     1  0  0  0  0  0999 V2000
  -34.5944  -10.9294   19.9739 C   0  0  0  0  0  0  0  0  0  0  0  0
  -34.8158  -12.2425   19.5710 C   0  0  0  0  0  0  0  0  0  0  0  0
  -21.6003  -25.3058   18.3787 C   0  0  0  0  0  0  0  0  0  0  0  0
  -22.3778  -24.1466   20.3507 C   0  0  0  0  0  0  0  0  0  0  0  0
  -33.3675  -10.3197   19.7154 C   0  0  0  0  0  0  0  0  0  0  0  0
  -33.8108  -12.9462   18.9084 C   0  0  0  0  0  0  0  0  0  0  0  0
  -30.4782  -19.7815   20.6972 C   0  0  0  0  0  0  0  0  0  0  0  0
  -21.5468  -24.0951   17.6881 C   0  0  0  0  0  0  0  0  0  0  0  0
  -22.3243  -22.9358   19.6601 C   0  0  0  0  0  0  0  0  0  0  0  0
  -29.7045  -20.9034   20.9955 C   0  0  0  0  0  0  0  0  0  0  0  0
  -19.9646  -20.7021   18.7313 C   0  0  0  0  0  0  0  0  0  0  0  0
  -19.3934  -19.6099   19.3844 C   0  0  0  0  0  0  0  0  0  0  0  0
  -27.8471  -19.9625   19.7656 C   0  0  0  0  0  0  0  0  0  0  0  0
  -21.4745  -18.3997   19.1804 C   0  0  0  0  0  0  0  0  0  0  0  0
  -28.4127  -27.7377   20.9243 C   0  0  0  0  0  0  0  0  0  0  0  0
  -22.0159  -25.3315   19.7100 C   0  0  0  0  0  0  0  0  0  0  0  0
  -21.0433  -27.1764   21.1791 C   0  0  0  0  0  0  0  0  0  0  0  0
  -32.3435  -11.0195   19.0578 C   0  0  0  0  0  0  0  0  0  0  0  0
  -29.9336  -18.7377   19.9441 C   0  0  0  0  0  0  0  0  0  0  0  0
  -32.5695  -12.3448   18.6397 C   0  0  0  0  0  0  0  0  0  0  0  0
  -28.6132  -18.8307   19.4743 C   0  0  0  0  0  0  0  0  0  0  0  0
  -21.9088  -22.9102   18.3287 C   0  0  0  0  0  0  0  0  0  0  0  0
  -28.3923  -20.9937   20.5306 C   0  0  0  0  0  0  0  0  0  0  0  0
  -21.2906  -20.6431   18.3027 C   0  0  0  0  0  0  0  0  0  0  0  0
  -20.1484  -18.4587   19.6089 C   0  0  0  0  0  0  0  0  0  0  0  0
  -22.0456  -19.4919   18.5273 C   0  0  0  0  0  0  0  0  0  0  0  0
  -22.0719  -26.5819   20.4238 C   0  0  0  0  0  0  0  0  0  0  0  0
  -27.7008  -27.6024   22.0958 C   0  0  0  0  0  0  0  0  0  0  0  0
  -26.8810  -25.5961   21.3659 C   0  0  0  0  0  0  0  0  0  0  0  0
  -27.5924  -25.7319   20.1941 C   0  0  0  0  0  0  0  0  0  0  0  0
  -21.5935  -28.3437   21.6494 C   0  0  0  0  0  0  0  0  0  0  0  0
  -19.7099  -26.7147   21.4329 C   0  0  0  0  0  0  0  0  0  0  0  0
  -30.4454  -15.3585   18.3966 C   0  0  0  0  0  0  0  0  0  0  0  0
  -27.6110  -15.3813   19.5696 C   0  0  0  0  0  0  0  0  0  0  0  0
  -27.2907  -29.9856   22.6282 C   0  0  0  0  0  0  0  0  0  0  0  0
  -24.7204  -15.6670   21.3584 C   0  0  0  0  0  0  0  0  0  0  0  0
  -31.0507  -10.3028   18.7585 C   0  0  0  0  0  0  0  0  0  0  0  0
  -30.7502  -17.5381   19.5469 C   0  0  0  0  0  0  0  0  0  0  0  0
  -28.0804  -17.6992   18.6383 C   0  0  0  0  0  0  0  0  0  0  0  0
  -29.9065  -11.2413   18.3841 C   0  0  0  0  0  0  0  0  0  0  0  0
  -24.8712  -31.6476   20.5730 C   0  0  0  0  0  0  0  0  0  0  0  0
  -30.3753  -12.2744   17.3644 C   0  0  0  0  0  0  0  0  0  0  0  0
  -23.7996  -30.5820   20.3469 C   0  0  0  0  0  0  0  0  0  0  0  0
  -26.2658  -31.0325   20.6363 C   0  0  0  0  0  0  0  0  0  0  0  0
  -25.3355  -28.8823   21.4318 C   0  0  0  0  0  0  0  0  0  0  0  0
  -31.4952  -13.1493   17.9404 C   0  0  1  0  0  0  0  0  0  0  0  0
  -29.9278  -16.2380   19.4966 C   0  0  1  0  0  0  0  0  0  0  0  0
  -23.9088  -29.4578   21.3922 C   0  0  2  0  0  0  0  0  0  0  0  0
  -26.4273  -22.5735   15.6843 C   0  0  0  0  0  0  0  0  0  0  0  0
  -22.6475  -14.3912   21.9689 C   0  0  0  0  0  0  0  0  0  0  0  0
  -29.2286  -28.8512   23.6447 C   0  0  0  0  0  0  0  0  0  0  0  0
  -26.8933  -28.4164   24.4136 C   0  0  0  0  0  0  0  0  0  0  0  0
  -26.4839  -15.8852   16.7804 C   0  0  0  0  0  0  0  0  0  0  0  0
  -24.1941  -15.4865   17.7110 C   0  0  0  0  0  0  0  0  0  0  0  0
  -25.8931  -13.6606   17.7584 C   0  0  0  0  0  0  0  0  0  0  0  0
  -25.3598  -15.7823   24.2458 C   0  0  0  0  0  0  0  0  0  0  0  0
  -26.0141  -24.3887   21.6189 C   0  0  0  0  0  0  0  0  0  0  0  0
  -26.6282  -23.7073   16.6769 C   0  0  0  0  0  0  0  0  0  0  0  0
  -26.6339  -23.3771   22.5855 C   0  0  0  0  0  0  0  0  0  0  0  0
  -28.0925  -23.8403   17.0853 C   0  0  0  0  0  0  0  0  0  0  0  0
  -27.9217  -22.7521   22.0616 C   0  0  0  0  0  0  0  0  0  1  0  0
  -28.3050  -25.0018   18.0458 C   0  0  0  0  0  0  0  0  0  0  0  0
  -26.1435  -15.6278   19.3268 C   0  0  1  0  0  0  0  0  0  0  0  0
  -24.0694  -14.7464   22.3748 C   0  0  2  0  0  0  0  0  0  0  0  0
  -27.7700  -28.6536   23.1480 C   0  0  0  0  0  0  0  0  0  0  0  0
  -25.6955  -15.1851   17.9052 C   0  0  0  0  0  0  0  0  0  0  0  0
  -28.3713  -26.8049   19.9524 N   0  0  0  0  0  0  0  0  0  0  0  0
  -23.1907  -27.3114   20.4121 N   0  0  0  0  0  0  0  0  0  0  0  0
  -26.9222  -26.5292   22.3376 N   0  0  0  0  0  0  0  0  0  0  0  0
  -22.8683  -28.3764   21.1658 N   0  0  0  0  0  0  0  0  0  0  0  0
  -28.4922  -16.4104   19.2163 N   0  0  0  0  0  0  0  0  0  0  0  0
  -26.3223  -29.9540   21.6246 N   0  0  0  0  0  0  0  0  0  0  0  0
  -21.1062  -29.3352   22.4253 N   0  0  0  0  0  0  0  0  0  0  0  0
  -19.3075  -25.4944   20.8733 N   0  0  0  0  0  0  0  0  0  0  0  0
  -30.9478  -14.1477   18.8337 N   0  0  0  0  0  0  0  0  0  0  0  0
  -25.4325  -14.9608   20.4121 N   0  0  0  0  0  0  0  0  0  0  0  0
  -24.0266  -15.4003   23.7133 N   0  3  0  0  0  0  0  0  0  0  0  0
  -18.8939  -27.3730   22.1217 O   0  0  0  0  0  0  0  0  0  0  0  0
  -30.3921  -15.7479   17.2359 O   0  0  0  0  0  0  0  0  0  0  0  0
  -27.9696  -14.3042   20.0540 O   0  0  0  0  0  0  0  0  0  0  0  0
  -27.7619  -31.0221   23.1033 O   0  0  0  0  0  0  0  0  0  0  0  0
  -24.6055  -16.8900   21.3977 O   0  0  0  0  0  0  0  0  0  0  0  0
  -21.8565  -21.7286   17.6552 O   0  0  0  0  0  0  0  0  0  0  0  0
  -27.6410  -22.0897   20.8292 O   0  0  0  0  0  0  0  0  0  1  0  0
  -27.5350  -24.7730   19.2219 O   0  0  0  0  0  0  0  0  0  0  0  0
  -19.6002  -17.4105   20.2375 F   0  0  0  0  0  0  0  0  0  0  0  0
  -23.3204  -19.4298   18.1188 F   0  0  0  0  0  0  0  0  0  0  0  0
  1  2  1  0  0  0  0
  1  5  2  0  0  0  0
  2  6  2  0  0  0  0
  3  8  2  0  0  0  0
  3 16  1  0  0  0  0
  4  9  1  0  0  0  0
  4 16  2  0  0  0  0
  5 18  1  0  0  0  0
  6 20  1  0  0  0  0
  7 10  2  0  0  0  0
  7 19  1  0  0  0  0
  8 22  1  0  0  0  0
  9 22  2  0  0  0  0
 10 23  1  0  0  0  0
 11 12  2  0  0  0  0
 11 24  1  0  0  0  0
 12 25  1  0  0  0  0
 13 21  1  0  0  0  0
 13 23  2  0  0  0  0
 14 25  2  0  0  0  0
 14 26  1  0  0  0  0
 15 28  1  0  0  0  0
 15 67  2  0  0  0  0
 16 27  1  0  0  0  0
 17 27  1  0  0  0  0
 17 31  2  0  0  0  0
 17 32  1  0  0  0  0
 18 20  2  0  0  0  0
 18 37  1  0  0  0  0
 19 21  2  0  0  0  0
 19 38  1  0  0  0  0
 20 46  1  0  0  0  0
 21 39  1  0  0  0  0
 22 83  1  0  0  0  0
 23 84  1  0  0  0  0
 24 26  2  0  0  0  0
 24 83  1  0  0  0  0
 25 86  1  0  0  0  0
 26 87  1  0  0  0  0
 27 68  2  0  0  0  0
 28 65  1  0  0  0  0
 28 69  2  0  0  0  0
 29 30  2  0  0  0  0
 29 57  1  0  0  0  0
 29 69  1  0  0  0  0
 30 67  1  0  0  0  0
 30 85  1  0  0  0  0
 31 70  1  0  0  0  0
 31 73  1  0  0  0  0
 32 74  1  0  0  0  0
 32 78  2  0  0  0  0
 33 47  1  0  0  0  0
 33 75  1  0  0  0  0
 33 79  2  0  0  0  0
 34 63  1  0  0  0  0
 34 71  1  0  0  0  0
 34 80  2  0  0  0  0
 35 65  1  0  0  0  0
 35 72  1  0  0  0  0
 35 81  2  0  0  0  0
 36 64  1  0  0  0  0
 36 76  1  0  0  0  0
 36 82  2  0  0  0  0
 37 40  1  0  0  0  0
 38 47  1  0  0  0  0
 39 71  1  0  0  0  0
 40 42  1  0  0  0  0
 41 43  1  0  0  0  0
 41 44  1  0  0  0  0
 42 46  1  0  0  0  0
 43 48  1  0  0  0  0
 44 72  1  0  0  0  0
 45 48  1  0  0  0  0
 45 72  1  0  0  0  0
 46 75  1  0  0  0  0
 47 71  1  0  0  0  0
 48 70  1  0  0  0  0
 49 58  1  0  0  0  0
 50 64  1  0  0  0  0
 51 65  1  0  0  0  0
 52 65  1  0  0  0  0
 53 66  1  0  0  0  0
 54 66  1  0  0  0  0
 55 66  1  0  0  0  0
 56 77  1  0  0  0  0
 57 59  1  0  0  0  0
 58 60  1  0  0  0  0
 59 61  1  0  0  0  0
 60 62  1  0  0  0  0
 61 84  1  0  0  0  0
 62 85  1  0  0  0  0
 63 66  1  0  0  0  0
 63 76  1  0  0  0  0
 64 77  1  0  0  0  0
 68 70  1  0  0  0  0
M  CHG  1  77   1
M  ISO  4  35 100  61 101  65 100  84 101
M  END
> <Batch ID>
0068

> <Smiles>
CCCCOc1ncc([100C:0](C)(C)[100C:0](=O)N2CCCC(n3nc(-c4ccc(Oc5ccc(F)cc5F)cc4)c(C(N)=O)c3N)C2)nc1CC[101CH2:1][101O:1]c1ccc2c(c1)CN(C(=O)C(NC(=O)C(C)NC)C(C)(C)C)C(C(=O)NC1CCCc3ccccc31)C2

> <Shape>
0.203

> <Color>
0.069

> <Negative vol penalty>
0.000

$$$$

  -OEChem-04052318143D

 85 93  0     1  0  0  0  0  0999 V2000
  -18.9577  -25.7171   19.1914 C   0  0  0  0  0  0  0  0  0  0  0  0
  -20.2715  -26.1561   19.0626 C   0  0  0  0  0  0  0  0  0  0  0  0
  -24.0555  -12.2651   21.4308 C   0  0  0  0  0  0  0  0  0  0  0  0
  -24.6886  -12.2911   19.0994 C   0  0  0  0  0  0  0  0  0  0  0  0
  -18.2298  -26.0266   20.3395 C   0  0  0  0  0  0  0  0  0  0  0  0
  -20.8579  -26.9058   20.0817 C   0  0  0  0  0  0  0  0  0  0  0  0
  -25.5565  -25.3629   21.1714 C   0  0  0  0  0  0  0  0  0  0  0  0
  -23.1375  -11.2478   21.1702 C   0  0  0  0  0  0  0  0  0  0  0  0
  -23.7707  -11.2737   18.8388 C   0  0  0  0  0  0  0  0  0  0  0  0
  -26.5739  -25.7589   20.3044 C   0  0  0  0  0  0  0  0  0  0  0  0
  -20.8848   -8.3947   21.1860 C   0  0  0  0  0  0  0  0  0  0  0  0
  -20.8445   -7.3157   22.0691 C   0  0  0  0  0  0  0  0  0  0  0  0
  -27.1912  -27.5139   21.8400 C   0  0  0  0  0  0  0  0  0  0  0  0
  -23.1564   -6.8217   21.5711 C   0  0  0  0  0  0  0  0  0  0  0  0
  -30.7515  -23.1352   17.9580 C   0  0  0  0  0  0  0  0  0  0  0  0
  -24.8310  -12.7868   20.3954 C   0  0  0  0  0  0  0  0  0  0  0  0
  -27.1306  -13.6912   21.0291 C   0  0  0  0  0  0  0  0  0  0  0  0
  -18.8108  -26.7723   21.3774 C   0  0  0  0  0  0  0  0  0  0  0  0
  -25.3415  -26.0474   22.3763 C   0  0  0  0  0  0  0  0  0  0  0  0
  -20.1367  -27.2268   21.2442 C   0  0  0  0  0  0  0  0  0  0  0  0
  -26.1720  -27.1230   22.7218 C   0  0  0  0  0  0  0  0  0  0  0  0
  -22.9951  -10.7520   19.8742 C   0  0  0  0  0  0  0  0  0  0  0  0
  -27.3896  -26.8364   20.6373 C   0  0  0  0  0  0  0  0  0  0  0  0
  -22.0609   -8.6871   20.4954 C   0  0  0  0  0  0  0  0  0  0  0  0
  -21.9803   -6.5293   22.2617 C   0  0  0  0  0  0  0  0  0  0  0  0
  -23.1967   -7.9007   20.6880 C   0  0  0  0  0  0  0  0  0  0  0  0
  -25.7790  -13.8381   20.6638 C   0  0  0  0  0  0  0  0  0  0  0  0
  -27.5908  -14.9779   21.1675 C   0  0  0  0  0  0  0  0  0  0  0  0
  -29.0813  -22.2937   18.8850 C   0  0  0  0  0  0  0  0  0  0  0  0
  -27.9013  -12.4982   21.2255 C   0  0  0  0  0  0  0  0  0  0  0  0
  -22.9333  -27.7161   23.6091 C   0  0  0  0  0  0  0  0  0  0  0  0
  -27.9868  -20.0989   19.1936 C   0  0  0  0  0  0  0  0  0  0  0  0
  -24.8243  -27.7586   26.2443 C   0  0  0  0  0  0  0  0  0  0  0  0
  -27.9655  -27.5383   27.5601 C   0  0  0  0  0  0  0  0  0  0  0  0
  -17.9691  -27.1225   22.5789 C   0  0  0  0  0  0  0  0  0  0  0  0
  -24.2568  -25.5909   23.3131 C   0  0  0  0  0  0  0  0  0  0  0  0
  -25.9955  -27.8783   24.0129 C   0  0  0  0  0  0  0  0  0  0  0  0
  -18.7859  -27.6024   23.7758 C   0  0  0  0  0  0  0  0  0  0  0  0
  -25.1112  -19.3756   21.2995 C   0  0  0  0  0  0  0  0  0  0  0  0
  -19.8234  -28.6306   23.3363 C   0  0  0  0  0  0  0  0  0  0  0  0
  -25.1270  -17.8478   21.3241 C   0  0  0  0  0  0  0  0  0  0  0  0
  -25.5659  -19.9199   19.9478 C   0  0  0  0  0  0  0  0  0  0  0  0
  -26.9241  -17.8917   19.5405 C   0  0  0  0  0  0  0  0  0  0  0  0
  -20.8158  -28.0212   22.3387 C   0  0  1  0  0  0  0  0  0  0  0  0
  -23.7986  -26.6834   24.2743 C   0  0  1  0  0  0  0  0  0  0  0  0
  -26.5011  -17.3031   20.8968 C   0  0  2  0  0  0  0  0  0  0  0  0
  -29.1995  -27.6497   29.7424 C   0  0  0  0  0  0  0  0  0  0  0  0
  -24.5312  -30.7957   26.2522 C   0  0  0  0  0  0  0  0  0  0  0  0
  -26.4899  -30.9110   27.8074 C   0  0  0  0  0  0  0  0  0  0  0  0
  -24.4085  -29.7300   28.5113 C   0  0  0  0  0  0  0  0  0  0  0  0
  -32.1724  -24.3404   22.9759 C   0  0  0  0  0  0  0  0  0  0  0  0
  -33.7177  -26.0192   21.9865 C   0  0  0  0  0  0  0  0  0  0  0  0
  -31.5623  -26.7435   23.0379 C   0  0  0  0  0  0  0  0  0  0  0  0
  -28.9564  -24.7642   27.2744 C   0  0  0  0  0  0  0  0  0  0  0  0
  -27.8350  -21.5992   19.1961 C   0  0  0  0  0  0  0  0  0  0  0  0
  -30.4249  -26.5886   18.6538 C   0  0  0  0  0  0  0  0  0  0  0  0
  -31.2792  -26.7311   19.9176 C   0  0  0  0  0  0  0  0  0  0  0  0
  -32.0017  -24.2584   19.9724 C   0  0  0  0  0  0  0  0  0  0  0  0
  -28.9808  -26.2176   18.9817 C   0  0  0  0  0  0  0  0  0  1  0  0
  -25.9053  -28.6721   26.7699 C   0  0  1  0  0  0  0  0  0  0  0  0
  -28.5134  -26.7437   28.7318 C   0  0  2  0  0  0  0  0  0  0  0  0
  -31.4590  -25.4598   20.7982 C   0  0  1  0  0  0  0  0  0  0  0  0
  -25.3361  -30.0144   27.3099 C   0  0  0  0  0  0  0  0  0  0  0  0
  -32.2298  -25.6605   22.1648 C   0  0  0  0  0  0  0  0  0  0  0  0
  -29.6259  -22.4078   17.6960 N   0  0  0  0  0  0  0  0  0  0  0  0
  -25.4048  -15.1173   20.5760 N   0  0  0  0  0  0  0  0  0  0  0  0
  -29.8557  -22.9279   19.8059 N   0  0  0  0  0  0  0  0  0  0  0  0
  -30.9376  -23.4782   19.2344 N   0  0  0  0  0  0  0  0  0  0  0  0
  -26.5281  -15.7858   20.8880 N   0  0  0  0  0  0  0  0  0  0  0  0
  -24.9173  -27.3978   24.8927 N   0  0  0  0  0  0  0  0  0  0  0  0
  -26.8656  -19.3560   19.5640 N   0  0  0  0  0  0  0  0  0  0  0  0
  -28.7966  -15.4856   21.4999 N   0  0  0  0  0  0  0  0  0  0  0  0
  -27.2729  -11.2590   21.0418 N   0  0  0  0  0  0  0  0  0  0  0  0
  -21.7888  -27.2025   23.0297 N   0  0  0  0  0  0  0  0  0  0  0  0
  -26.6492  -27.8980   27.7577 N   0  0  0  0  0  0  0  0  0  0  0  0
  -29.5028  -25.7356   28.2567 N   0  3  0  0  0  0  0  0  0  0  0  0
  -29.1070  -12.5300   21.5702 O   0  0  0  0  0  0  0  0  0  0  0  0
  -23.2778  -28.8921   23.6219 O   0  0  0  0  0  0  0  0  0  0  0  0
  -29.0709  -19.6040   18.8742 O   0  0  0  0  0  0  0  0  0  0  0  0
  -23.9344  -27.3736   27.0068 O   0  0  0  0  0  0  0  0  0  0  0  0
  -28.6392  -27.8156   26.5702 O   0  0  0  0  0  0  0  0  0  0  0  0
  -22.0996   -9.7591   19.6196 O   0  0  0  0  0  0  0  0  0  0  0  0
  -28.3905  -27.2284   19.7861 O   0  0  0  0  0  0  0  0  0  1  0  0
  -21.9418   -5.4941   23.1109 F   0  0  0  0  0  0  0  0  0  0  0  0
  -24.3299   -8.1775   20.0283 F   0  0  0  0  0  0  0  0  0  0  0  0
  1  2  1  0  0  0  0
  1  5  2  0  0  0  0
  2  6  2  0  0  0  0
  3  8  2  0  0  0  0
  3 16  1  0  0  0  0
  4  9  1  0  0  0  0
  4 16  2  0  0  0  0
  5 18  1  0  0  0  0
  6 20  1  0  0  0  0
  7 10  2  0  0  0  0
  7 19  1  0  0  0  0
  8 22  1  0  0  0  0
  9 22  2  0  0  0  0
 10 23  1  0  0  0  0
 11 12  2  0  0  0  0
 11 24  1  0  0  0  0
 12 25  1  0  0  0  0
 13 21  1  0  0  0  0
 13 23  2  0  0  0  0
 14 25  2  0  0  0  0
 14 26  1  0  0  0  0
 15 65  2  0  0  0  0
 15 68  1  0  0  0  0
 16 27  1  0  0  0  0
 17 27  1  0  0  0  0
 17 28  2  0  0  0  0
 17 30  1  0  0  0  0
 18 20  2  0  0  0  0
 18 35  1  0  0  0  0
 19 21  2  0  0  0  0
 19 36  1  0  0  0  0
 20 44  1  0  0  0  0
 21 37  1  0  0  0  0
 22 82  1  0  0  0  0
 23 83  1  0  0  0  0
 24 26  2  0  0  0  0
 24 82  1  0  0  0  0
 25 84  1  0  0  0  0
 26 85  1  0  0  0  0
 27 66  2  0  0  0  0
 28 69  1  0  0  0  0
 28 72  1  0  0  0  0
 29 55  1  0  0  0  0
 29 65  1  0  0  0  0
 29 67  2  0  0  0  0
 30 73  1  0  0  0  0
 30 77  2  0  0  0  0
 31 45  1  0  0  0  0
 31 74  1  0  0  0  0
 31 78  2  0  0  0  0
 32 55  1  0  0  0  0
 32 71  1  0  0  0  0
 32 79  2  0  0  0  0
 33 60  1  0  0  0  0
 33 70  1  0  0  0  0
 33 80  2  0  0  0  0
 34 61  1  0  0  0  0
 34 75  1  0  0  0  0
 34 81  2  0  0  0  0
 35 38  1  0  0  0  0
 36 45  1  0  0  0  0
 37 70  1  0  0  0  0
 38 40  1  0  0  0  0
 39 41  1  0  0  0  0
 39 42  1  0  0  0  0
 40 44  1  0  0  0  0
 41 46  1  0  0  0  0
 42 71  1  0  0  0  0
 43 46  1  0  0  0  0
 43 71  1  0  0  0  0
 44 74  1  0  0  0  0
 45 70  1  0  0  0  0
 46 69  1  0  0  0  0
 47 61  1  0  0  0  0
 48 63  1  0  0  0  0
 49 63  1  0  0  0  0
 50 63  1  0  0  0  0
 51 64  1  0  0  0  0
 52 64  1  0  0  0  0
 53 64  1  0  0  0  0
 54 76  1  0  0  0  0
 56 57  1  0  0  0  0
 56 59  1  0  0  0  0
 57 62  1  0  0  0  0
 58 62  1  0  0  0  0
 58 68  1  0  0  0  0
 59 83  1  0  0  0  0
 60 63  1  0  0  0  0
 60 75  1  0  0  0  0
 61 76  1  0  0  0  0
 62 64  1  0  0  0  0
 66 69  1  0  0  0  0
 67 68  1  0  0  0  0
M  CHG  1  76   1
M  ISO  4  32 100  55 100  59 101  83 101
M  END
> <Batch ID>
0068

> <Smiles>
CNC(C)C(=O)NC(C(=O)N1Cc2cc([101O:1][101CH2:1]CCC(Cn3cnc([100CH2:0][100C:0](=O)N4CCCC(n5nc(-c6ccc(Oc7ccc(F)cc7F)cc6)c(C(N)=O)c5N)C4)n3)C(C)(C)C)ccc2CC1C(=O)NC1CCCc2ccccc21)C(C)(C)C

> <Shape>
0.255

> <Color>
0.078

> <Negative vol penalty>
0.000

$$$$

  -OEChem-04052318143D

 86 94  0     1  0  0  0  0  0999 V2000
  -22.5440  -17.8097   26.6925 C   0  0  0  0  0  0  0  0  0  0  0  0
  -23.4902  -18.5788   26.0227 C   0  0  0  0  0  0  0  0  0  0  0  0
  -26.9337  -13.0148   21.1072 C   0  0  0  0  0  0  0  0  0  0  0  0
  -26.5396  -13.6991   18.8239 C   0  0  0  0  0  0  0  0  0  0  0  0
  -21.1852  -18.0258   26.4665 C   0  0  0  0  0  0  0  0  0  0  0  0
  -23.0782  -19.5637   25.1258 C   0  0  0  0  0  0  0  0  0  0  0  0
  -25.6196  -23.9054   25.7056 C   0  0  0  0  0  0  0  0  0  0  0  0
  -26.2590  -11.8182   20.8650 C   0  0  0  0  0  0  0  0  0  0  0  0
  -25.8650  -12.5025   18.5817 C   0  0  0  0  0  0  0  0  0  0  0  0
  -26.9058  -23.9666   25.1709 C   0  0  0  0  0  0  0  0  0  0  0  0
  -24.3272   -8.7384   20.9474 C   0  0  0  0  0  0  0  0  0  0  0  0
  -23.4055   -8.3073   21.9014 C   0  0  0  0  0  0  0  0  0  0  0  0
  -26.0464  -25.1552   23.2557 C   0  0  0  0  0  0  0  0  0  0  0  0
  -22.1311  -10.3356   21.5867 C   0  0  0  0  0  0  0  0  0  0  0  0
  -27.0740  -13.9552   20.0866 C   0  0  0  0  0  0  0  0  0  0  0  0
  -29.1463  -15.4403   20.1732 C   0  0  0  0  0  0  0  0  0  0  0  0
  -20.7562  -19.0204   25.5736 C   0  0  0  0  0  0  0  0  0  0  0  0
  -24.5337  -24.4600   25.0131 C   0  0  0  0  0  0  0  0  0  0  0  0
  -21.7124  -19.7924   24.8867 C   0  0  0  0  0  0  0  0  0  0  0  0
  -24.7479  -25.1019   23.7850 C   0  0  0  0  0  0  0  0  0  0  0  0
  -25.7246  -11.5621   19.6023 C   0  0  0  0  0  0  0  0  0  0  0  0
  -27.1189  -24.5890   23.9444 C   0  0  0  0  0  0  0  0  0  0  0  0
  -24.1509   -9.9682   20.3131 C   0  0  0  0  0  0  0  0  0  0  0  0
  -22.3074   -9.1059   22.2211 C   0  0  0  0  0  0  0  0  0  0  0  0
  -23.0528  -10.7668   20.6327 C   0  0  0  0  0  0  0  0  0  0  0  0
  -27.7703  -15.1917   20.3363 C   0  0  0  0  0  0  0  0  0  0  0  0
  -30.7828  -24.4635   20.8320 C   0  0  0  0  0  0  0  0  0  0  0  0
  -30.4066  -23.2264   20.3724 C   0  0  0  0  0  0  0  0  0  0  0  0
  -29.3035  -16.7548   20.5391 C   0  0  0  0  0  0  0  0  0  0  0  0
  -30.1892  -14.5617   19.7303 C   0  0  0  0  0  0  0  0  0  0  0  0
  -21.8467  -23.3100   23.7635 C   0  0  0  0  0  0  0  0  0  0  0  0
  -21.2098  -26.4464   23.2344 C   0  0  0  0  0  0  0  0  0  0  0  0
  -22.4071  -29.6120   22.7964 C   0  0  0  0  0  0  0  0  0  0  0  0
  -26.5465  -21.8368   20.2433 C   0  0  0  0  0  0  0  0  0  0  0  0
  -19.2775  -19.1852   25.3265 C   0  0  0  0  0  0  0  0  0  0  0  0
  -23.1567  -24.4091   25.6161 C   0  0  0  0  0  0  0  0  0  0  0  0
  -23.6189  -25.7308   23.0114 C   0  0  0  0  0  0  0  0  0  0  0  0
  -18.9174  -20.5013   24.6420 C   0  0  0  0  0  0  0  0  0  0  0  0
  -26.6902  -19.9505   23.2596 C   0  0  0  0  0  0  0  0  0  0  0  0
  -19.8479  -20.7613   23.4617 C   0  0  0  0  0  0  0  0  0  0  0  0
  -27.1113  -18.5542   22.7981 C   0  0  0  0  0  0  0  0  0  0  0  0
  -25.7583  -20.6206   22.2523 C   0  0  0  0  0  0  0  0  0  0  0  0
  -26.6955  -19.2782   20.4102 C   0  0  0  0  0  0  0  0  0  0  0  0
  -21.3044  -20.8870   23.9247 C   0  0  1  0  0  0  0  0  0  0  0  0
  -22.0454  -24.5549   24.5811 C   0  0  1  0  0  0  0  0  0  0  0  0
  -27.6804  -18.5846   21.3669 C   0  0  2  0  0  0  0  0  0  0  0  0
  -30.1440  -21.9482   21.0525 C   0  0  0  0  0  0  0  0  0  0  0  0
  -21.6470  -31.9607   22.3455 C   0  0  0  0  0  0  0  0  0  0  0  0
  -31.1546  -22.1147   17.1317 C   0  0  0  0  0  0  0  0  0  0  0  0
  -20.7261  -25.7257   20.3092 C   0  0  0  0  0  0  0  0  0  0  0  0
  -20.9146  -28.1590   19.7509 C   0  0  0  0  0  0  0  0  0  0  0  0
  -19.0962  -27.3653   21.2630 C   0  0  0  0  0  0  0  0  0  0  0  0
  -28.7201  -24.0707   16.4102 C   0  0  0  0  0  0  0  0  0  0  0  0
  -28.3156  -21.6262   16.2172 C   0  0  0  0  0  0  0  0  0  0  0  0
  -23.5430  -30.5928   25.3472 C   0  0  0  0  0  0  0  0  0  0  0  0
  -31.0560  -24.9144   22.2447 C   0  0  0  0  0  0  0  0  0  0  0  0
  -30.1675  -26.0724   22.7043 C   0  0  0  0  0  0  0  0  0  0  0  0
  -27.3904  -22.9125   18.1721 C   0  0  0  0  0  0  0  0  0  0  0  0
  -28.6774  -25.7715   22.5922 C   0  0  0  0  0  0  0  0  0  1  0  0
  -21.4780  -27.4167   22.1095 C   0  0  1  0  0  0  0  0  0  0  0  0
  -21.9995  -30.9375   23.4139 C   0  0  2  0  0  0  0  0  0  0  0  0
  -29.9399  -22.4321   18.0256 C   0  0  2  0  0  0  0  0  0  0  0  0
  -20.5749  -27.1532   20.8715 C   0  0  0  0  0  0  0  0  0  0  0  0
  -28.6157  -22.7631   17.2261 C   0  0  0  0  0  0  0  0  0  0  0  0
  -27.1010  -16.2623   20.7721 N   0  0  0  0  0  0  0  0  0  0  0  0
  -30.8968  -25.3294   19.7800 N   0  0  0  0  0  0  0  0  0  0  0  0
  -30.5995  -24.6637   18.6693 N   0  0  0  0  0  0  0  0  0  0  0  0
  -30.3057  -23.4031   19.0267 N   0  0  0  0  0  0  0  0  0  0  0  0
  -28.0605  -17.1963   20.8860 N   0  0  0  0  0  0  0  0  0  0  0  0
  -22.2899  -25.6495   23.6397 N   0  0  0  0  0  0  0  0  0  0  0  0
  -26.3576  -20.6180   20.9156 N   0  0  0  0  0  0  0  0  0  0  0  0
  -30.3822  -17.5645   20.5949 N   0  0  0  0  0  0  0  0  0  0  0  0
  -29.8539  -13.2431   19.3938 N   0  0  0  0  0  0  0  0  0  0  0  0
  -21.5378  -22.1895   24.5108 N   0  0  0  0  0  0  0  0  0  0  0  0
  -21.3356  -28.7520   22.6796 N   0  0  0  0  0  0  0  0  0  0  0  0
  -27.1265  -21.7454   18.9839 N   0  0  0  0  0  0  0  0  0  0  0  0
  -23.1102  -31.4865   24.2422 N   0  3  0  0  0  0  0  0  0  0  0  0
  -31.3857  -14.9301   19.6516 O   0  0  0  0  0  0  0  0  0  0  0  0
  -21.9635  -23.3625   22.5448 O   0  0  0  0  0  0  0  0  0  0  0  0
  -20.0855  -26.4022   23.7398 O   0  0  0  0  0  0  0  0  0  0  0  0
  -23.5599  -29.3657   22.4487 O   0  0  0  0  0  0  0  0  0  0  0  0
  -26.2272  -22.9261   20.7315 O   0  0  0  0  0  0  0  0  0  0  0  0
  -25.0664  -10.3945   19.3656 O   0  0  0  0  0  0  0  0  0  0  0  0
  -28.3731  -24.6496   23.4199 O   0  0  0  0  0  0  0  0  0  1  0  0
  -21.4215   -8.6910   23.1361 F   0  0  0  0  0  0  0  0  0  0  0  0
  -22.8775  -11.9486   20.0258 F   0  0  0  0  0  0  0  0  0  0  0  0
  1  2  1  0  0  0  0
  1  5  2  0  0  0  0
  2  6  2  0  0  0  0
  3  8  2  0  0  0  0
  3 15  1  0  0  0  0
  4  9  1  0  0  0  0
  4 15  2  0  0  0  0
  5 17  1  0  0  0  0
  6 19  1  0  0  0  0
  7 10  2  0  0  0  0
  7 18  1  0  0  0  0
  8 21  1  0  0  0  0
  9 21  2  0  0  0  0
 10 22  1  0  0  0  0
 11 12  2  0  0  0  0
 11 23  1  0  0  0  0
 12 24  1  0  0  0  0
 13 20  1  0  0  0  0
 13 22  2  0  0  0  0
 14 24  2  0  0  0  0
 14 25  1  0  0  0  0
 15 26  1  0  0  0  0
 16 26  1  0  0  0  0
 16 29  2  0  0  0  0
 16 30  1  0  0  0  0
 17 19  2  0  0  0  0
 17 35  1  0  0  0  0
 18 20  2  0  0  0  0
 18 36  1  0  0  0  0
 19 44  1  0  0  0  0
 20 37  1  0  0  0  0
 21 83  1  0  0  0  0
 22 84  1  0  0  0  0
 23 25  2  0  0  0  0
 23 83  1  0  0  0  0
 24 85  1  0  0  0  0
 25 86  1  0  0  0  0
 26 65  2  0  0  0  0
 27 28  2  0  0  0  0
 27 56  1  0  0  0  0
 27 66  1  0  0  0  0
 28 47  1  0  0  0  0
 28 68  1  0  0  0  0
 29 69  1  0  0  0  0
 29 72  1  0  0  0  0
 30 73  1  0  0  0  0
 30 78  2  0  0  0  0
 31 45  1  0  0  0  0
 31 74  1  0  0  0  0
 31 79  2  0  0  0  0
 32 60  1  0  0  0  0
 32 70  1  0  0  0  0
 32 80  2  0  0  0  0
 33 61  1  0  0  0  0
 33 75  1  0  0  0  0
 33 81  2  0  0  0  0
 34 71  1  0  0  0  0
 34 76  1  0  0  0  0
 34 82  2  0  0  0  0
 35 38  1  0  0  0  0
 36 45  1  0  0  0  0
 37 70  1  0  0  0  0
 38 40  1  0  0  0  0
 39 41  1  0  0  0  0
 39 42  1  0  0  0  0
 40 44  1  0  0  0  0
 41 46  1  0  0  0  0
 42 71  1  0  0  0  0
 43 46  1  0  0  0  0
 43 71  1  0  0  0  0
 44 74  1  0  0  0  0
 45 70  1  0  0  0  0
 46 69  1  0  0  0  0
 48 61  1  0  0  0  0
 49 62  1  0  0  0  0
 50 63  1  0  0  0  0
 51 63  1  0  0  0  0
 52 63  1  0  0  0  0
 53 64  1  0  0  0  0
 54 64  1  0  0  0  0
 55 77  1  0  0  0  0
 56 57  1  0  0  0  0
 57 59  1  0  0  0  0
 58 64  1  0  0  0  0
 58 76  1  0  0  0  0
 59 84  1  0  0  0  0
 60 63  1  0  0  0  0
 60 75  1  0  0  0  0
 61 77  1  0  0  0  0
 62 64  1  0  0  0  0
 62 68  1  0  0  0  0
 65 69  1  0  0  0  0
 66 67  2  0  0  0  0
 67 68  1  0  0  0  0
M  CHG  1  77   1
M  ISO  4  34 100  59 101  76 100  84 101
M  END
> <Batch ID>
0068

> <Smiles>
CNC(C)C(=O)NC(C(=O)N1Cc2cc([101O:1][101CH2:1]CCc3nnn(C(C)C(C)(C)C[100NH:0][100C:0](=O)N4CCCC(n5nc(-c6ccc(Oc7ccc(F)cc7F)cc6)c(C(N)=O)c5N)C4)c3C)ccc2CC1C(=O)NC1CCCc2ccccc21)C(C)(C)C

> <Shape>
0.201

> <Color>
0.088

> <Negative vol penalty>
0.000

$$$$

  -OEChem-04052318143D

 88 96  0     1  0  0  0  0  0999 V2000
  -28.8792  -21.5507   18.3849 C   0  0  0  0  0  0  0  0  0  0  0  0
  -27.6372  -22.1663   18.5022 C   0  0  0  0  0  0  0  0  0  0  0  0
  -23.5572  -14.6206   21.0818 C   0  0  0  0  0  0  0  0  0  0  0  0
  -25.5188  -15.3562   22.2852 C   0  0  0  0  0  0  0  0  0  0  0  0
  -29.9039  -21.8763   19.2725 C   0  0  0  0  0  0  0  0  0  0  0  0
  -27.4188  -23.1071   19.5081 C   0  0  0  0  0  0  0  0  0  0  0  0
  -24.9857  -27.2183   17.8279 C   0  0  0  0  0  0  0  0  0  0  0  0
  -24.2512  -13.4947   20.6388 C   0  0  0  0  0  0  0  0  0  0  0  0
  -26.2128  -14.2303   21.8422 C   0  0  0  0  0  0  0  0  0  0  0  0
  -23.6085  -27.1106   17.6396 C   0  0  0  0  0  0  0  0  0  0  0  0
  -27.7738  -13.2166   19.0197 C   0  0  0  0  0  0  0  0  0  0  0  0
  -29.0714  -13.4013   18.5426 C   0  0  0  0  0  0  0  0  0  0  0  0
  -23.2394  -28.2104   19.7546 C   0  0  0  0  0  0  0  0  0  0  0  0
  -29.9123  -11.9202   20.2562 C   0  0  0  0  0  0  0  0  0  0  0  0
  -24.1910  -15.5514   21.9050 C   0  0  0  0  0  0  0  0  0  0  0  0
  -22.7093  -16.8343   23.5378 C   0  0  0  0  0  0  0  0  0  0  0  0
  -29.7009  -22.8286   20.2837 C   0  0  0  0  0  0  0  0  0  0  0  0
  -25.5010  -27.8141   18.9880 C   0  0  0  0  0  0  0  0  0  0  0  0
  -28.4413  -23.4447   20.4109 C   0  0  0  0  0  0  0  0  0  0  0  0
  -24.6235  -28.3267   19.9541 C   0  0  0  0  0  0  0  0  0  0  0  0
  -18.9958  -25.6215   21.6005 C   0  0  0  0  0  0  0  0  0  0  0  0
  -25.5790  -13.2995   21.0190 C   0  0  0  0  0  0  0  0  0  0  0  0
  -22.7351  -27.6041   18.6043 C   0  0  0  0  0  0  0  0  0  0  0  0
  -27.5454  -12.3838   20.1151 C   0  0  0  0  0  0  0  0  0  0  0  0
  -30.1407  -12.7531   19.1608 C   0  0  0  0  0  0  0  0  0  0  0  0
  -28.6147  -11.7356   20.7333 C   0  0  0  0  0  0  0  0  0  0  0  0
  -23.4749  -16.7150   22.3625 C   0  0  0  0  0  0  0  0  0  0  0  0
  -19.1453  -24.2499   21.5770 C   0  0  0  0  0  0  0  0  0  0  0  0
  -19.4319  -26.2500   22.7490 C   0  0  0  0  0  0  0  0  0  0  0  0
  -22.2413  -18.1254   23.5131 C   0  0  0  0  0  0  0  0  0  0  0  0
  -20.0659  -24.2642   23.6553 C   0  0  0  0  0  0  0  0  0  0  0  0
  -22.4449  -15.8649   24.5605 C   0  0  0  0  0  0  0  0  0  0  0  0
  -27.3242  -26.8259   21.3970 C   0  0  0  0  0  0  0  0  0  0  0  0
  -27.2126  -29.9530   22.2520 C   0  0  0  0  0  0  0  0  0  0  0  0
  -25.5707  -32.9410   22.1009 C   0  0  0  0  0  0  0  0  0  0  0  0
  -23.5982  -23.5836   22.6864 C   0  0  0  0  0  0  0  0  0  0  0  0
  -30.8243  -23.1130   21.2491 C   0  0  0  0  0  0  0  0  0  0  0  0
  -26.9890  -27.9466   19.1637 C   0  0  0  0  0  0  0  0  0  0  0  0
  -25.1259  -28.9934   21.2077 C   0  0  0  0  0  0  0  0  0  0  0  0
  -30.6261  -24.3952   22.0535 C   0  0  0  0  0  0  0  0  0  0  0  0
  -22.2972  -21.5969   19.8470 C   0  0  0  0  0  0  0  0  0  0  0  0
  -29.2062  -24.4643   22.6066 C   0  0  0  0  0  0  0  0  0  0  0  0
  -22.4957  -20.1602   20.3271 C   0  0  0  0  0  0  0  0  0  0  0  0
  -23.3189  -22.5473   20.4639 C   0  0  0  0  0  0  0  0  0  0  0  0
  -23.5583  -21.0684   22.4310 C   0  0  0  0  0  0  0  0  0  0  0  0
  -28.1733  -24.4883   21.4735 C   0  0  1  0  0  0  0  0  0  0  0  0
  -27.4062  -28.1105   20.6219 C   0  0  1  0  0  0  0  0  0  0  0  0
  -22.5157  -20.0932   21.8641 C   0  0  2  0  0  0  0  0  0  0  0  0
  -18.7091  -23.4621   20.3855 C   0  0  0  0  0  0  0  0  0  0  0  0
  -20.0519  -29.7750   24.1964 C   0  0  0  0  0  0  0  0  0  0  0  0
  -19.6552  -22.5272   25.4268 C   0  0  0  0  0  0  0  0  0  0  0  0
  -25.7025  -35.3053   22.9316 C   0  0  0  0  0  0  0  0  0  0  0  0
  -26.2563  -29.0379   25.0012 C   0  0  0  0  0  0  0  0  0  0  0  0
  -25.5107  -31.3861   25.4464 C   0  0  0  0  0  0  0  0  0  0  0  0
  -27.9242  -30.9009   25.0436 C   0  0  0  0  0  0  0  0  0  0  0  0
  -23.2298  -24.8272   24.7834 C   0  0  0  0  0  0  0  0  0  0  0  0
  -25.7483  -34.0200   19.3508 C   0  0  0  0  0  0  0  0  0  0  0  0
  -18.3965  -26.3836   20.4456 C   0  0  0  0  0  0  0  0  0  0  0  0
  -19.3202  -27.7325   22.8896 C   0  0  0  0  0  0  0  0  0  0  0  0
  -20.1398  -28.2619   24.0753 C   0  0  0  0  0  0  0  0  0  0  0  0
  -19.3496  -26.5564   19.2609 C   0  0  0  0  0  0  0  0  0  0  0  0
  -21.9556  -22.7464   24.4195 C   0  0  0  0  0  0  0  0  0  0  0  0
  -20.5843  -27.3854   19.5952 C   0  0  0  0  0  0  0  0  0  1  0  0
  -20.6627  -23.5107   24.7953 C   0  0  1  0  0  0  0  0  0  0  0  0
  -26.2991  -30.7948   23.1098 C   0  0  1  0  0  0  0  0  0  0  0  0
  -26.0624  -34.3468   21.8071 C   0  0  2  0  0  0  0  0  0  0  0  0
  -26.4878  -30.5157   24.6277 C   0  0  0  0  0  0  0  0  0  0  0  0
  -23.4945  -17.8404   21.6434 N   0  0  0  0  0  0  0  0  0  0  0  0
  -19.6783  -23.5365   22.5905 N   0  0  0  0  0  0  0  0  0  0  0  0
  -19.9738  -25.5999   23.7997 N   0  0  0  0  0  0  0  0  0  0  0  0
  -22.7354  -18.6792   22.3689 N   0  0  0  0  0  0  0  0  0  0  0  0
  -26.5891  -29.0933   21.3366 N   0  0  0  0  0  0  0  0  0  0  0  0
  -23.3475  -22.4320   21.9223 N   0  0  0  0  0  0  0  0  0  0  0  0
  -21.4593  -18.8296   24.3587 N   0  0  0  0  0  0  0  0  0  0  0  0
  -23.0038  -14.5863   24.4297 N   0  0  0  0  0  0  0  0  0  0  0  0
  -28.1028  -25.8072   20.8817 N   0  0  0  0  0  0  0  0  0  0  0  0
  -26.5386  -32.1809   22.7229 N   0  0  0  0  0  0  0  0  0  0  0  0
  -23.0087  -23.6483   23.9580 N   0  0  0  0  0  0  0  0  0  0  0  0
  -25.4552  -34.8546   20.5443 N   0  3  0  0  0  0  0  0  0  0  0  0
  -21.7207  -16.1197   25.5525 O   0  0  0  0  0  0  0  0  0  0  0  0
  -26.6087  -26.7639   22.3899 O   0  0  0  0  0  0  0  0  0  0  0  0
  -28.4344  -30.0597   22.3841 O   0  0  0  0  0  0  0  0  0  0  0  0
  -24.4397  -32.5568   21.8113 O   0  0  0  0  0  0  0  0  0  0  0  0
  -24.3006  -24.5058   22.2527 O   0  0  0  0  0  0  0  0  0  0  0  0
  -26.2565  -12.2008   20.5871 O   0  0  0  0  0  0  0  0  0  0  0  0
  -21.3904  -27.4996   18.4233 O   0  0  0  0  0  0  0  0  0  1  0  0
  -31.3865  -12.9294   18.7015 F   0  0  0  0  0  0  0  0  0  0  0  0
  -28.4013  -10.9333   21.7853 F   0  0  0  0  0  0  0  0  0  0  0  0
  1  2  1  0  0  0  0
  1  5  2  0  0  0  0
  2  6  2  0  0  0  0
  3  8  2  0  0  0  0
  3 15  1  0  0  0  0
  4  9  1  0  0  0  0
  4 15  2  0  0  0  0
  5 17  1  0  0  0  0
  6 19  1  0  0  0  0
  7 10  2  0  0  0  0
  7 18  1  0  0  0  0
  8 22  1  0  0  0  0
  9 22  2  0  0  0  0
 10 23  1  0  0  0  0
 11 12  2  0  0  0  0
 11 24  1  0  0  0  0
 12 25  1  0  0  0  0
 13 20  1  0  0  0  0
 13 23  2  0  0  0  0
 14 25  2  0  0  0  0
 14 26  1  0  0  0  0
 15 27  1  0  0  0  0
 16 27  1  0  0  0  0
 16 30  2  0  0  0  0
 16 32  1  0  0  0  0
 17 19  2  0  0  0  0
 17 37  1  0  0  0  0
 18 20  2  0  0  0  0
 18 38  1  0  0  0  0
 19 46  1  0  0  0  0
 20 39  1  0  0  0  0
 21 28  1  0  0  0  0
 21 29  2  0  0  0  0
 21 58  1  0  0  0  0
 22 85  1  0  0  0  0
 23 86  1  0  0  0  0
 24 26  2  0  0  0  0
 24 85  1  0  0  0  0
 25 87  1  0  0  0  0
 26 88  1  0  0  0  0
 27 68  2  0  0  0  0
 28 49  1  0  0  0  0
 28 69  2  0  0  0  0
 29 59  1  0  0  0  0
 29 70  1  0  0  0  0
 30 71  1  0  0  0  0
 30 74  1  0  0  0  0
 31 64  1  0  0  0  0
 31 69  1  0  0  0  0
 31 70  2  0  0  0  0
 32 75  1  0  0  0  0
 32 80  2  0  0  0  0
 33 47  1  0  0  0  0
 33 76  1  0  0  0  0
 33 81  2  0  0  0  0
 34 65  1  0  0  0  0
 34 72  1  0  0  0  0
 34 82  2  0  0  0  0
 35 66  1  0  0  0  0
 35 77  1  0  0  0  0
 35 83  2  0  0  0  0
 36 73  1  0  0  0  0
 36 78  1  0  0  0  0
 36 84  2  0  0  0  0
 37 40  1  0  0  0  0
 38 47  1  0  0  0  0
 39 72  1  0  0  0  0
 40 42  1  0  0  0  0
 41 43  1  0  0  0  0
 41 44  1  0  0  0  0
 42 46  1  0  0  0  0
 43 48  1  0  0  0  0
 44 73  1  0  0  0  0
 45 48  1  0  0  0  0
 45 73  1  0  0  0  0
 46 76  1  0  0  0  0
 47 72  1  0  0  0  0
 48 71  1  0  0  0  0
 50 60  1  0  0  0  0
 51 64  1  0  0  0  0
 52 66  1  0  0  0  0
 53 67  1  0  0  0  0
 54 67  1  0  0  0  0
 55 67  1  0  0  0  0
 56 78  1  0  0  0  0
 57 79  1  0  0  0  0
 58 61  1  0  0  0  0
 59 60  1  0  0  0  0
 61 63  1  0  0  0  0
 62 64  1  0  0  0  0
 62 78  1  0  0  0  0
 63 86  1  0  0  0  0
 65 67  1  0  0  0  0
 65 77  1  0  0  0  0
 66 79  1  0  0  0  0
 68 71  1  0  0  0  0
M  CHG  1  79   1
M  ISO  4  36 100  63 101  78 100  86 101
M  END
> <Batch ID>
0068

> <Smiles>
CCCc1nc(C(C)C[100N:0](C)[100C:0](=O)N2CCCC(n3nc(-c4ccc(Oc5ccc(F)cc5F)cc4)c(C(N)=O)c3N)C2)nc(C)c1CC[101CH2:1][101O:1]c1ccc2c(c1)CN(C(=O)C(NC(=O)C(C)NC)C(C)(C)C)C(C(=O)NC1CCCc3ccccc31)C2

> <Shape>
0.235

> <Color>
0.055

> <Negative vol penalty>
0.000

$$$$

  -OEChem-04052318143D

 86 94  0     1  0  0  0  0  0999 V2000
  -32.4069  -14.0463   20.4636 C   0  0  0  0  0  0  0  0  0  0  0  0
  -31.6383  -15.1088   20.9253 C   0  0  0  0  0  0  0  0  0  0  0  0
  -29.9771  -23.5759   19.9213 C   0  0  0  0  0  0  0  0  0  0  0  0
  -27.8572  -22.8988   18.9810 C   0  0  0  0  0  0  0  0  0  0  0  0
  -31.7853  -12.9375   19.8932 C   0  0  0  0  0  0  0  0  0  0  0  0
  -30.2473  -15.0577   20.8278 C   0  0  0  0  0  0  0  0  0  0  0  0
  -26.0237  -19.2270   22.2083 C   0  0  0  0  0  0  0  0  0  0  0  0
  -30.3715  -22.2400   19.9943 C   0  0  0  0  0  0  0  0  0  0  0  0
  -28.2515  -21.5628   19.0540 C   0  0  0  0  0  0  0  0  0  0  0  0
  -25.3405  -20.2540   21.5585 C   0  0  0  0  0  0  0  0  0  0  0  0
  -30.2149  -19.4474   17.2959 C   0  0  0  0  0  0  0  0  0  0  0  0
  -29.9703  -18.6395   16.1855 C   0  0  0  0  0  0  0  0  0  0  0  0
  -23.4834  -18.7644   21.1696 C   0  0  0  0  0  0  0  0  0  0  0  0
  -28.5959  -17.1891   17.5437 C   0  0  0  0  0  0  0  0  0  0  0  0
  -20.4697  -26.4649   23.4114 C   0  0  0  0  0  0  0  0  0  0  0  0
  -19.4652  -24.5188   22.7532 C   0  0  0  0  0  0  0  0  0  0  0  0
  -28.7199  -23.9053   19.4147 C   0  0  0  0  0  0  0  0  0  0  0  0
  -28.5058  -26.1716   18.2633 C   0  0  0  0  0  0  0  0  0  0  0  0
  -30.3866  -12.8790   19.7776 C   0  0  0  0  0  0  0  0  0  0  0  0
  -25.4454  -17.9557   22.3343 C   0  0  0  0  0  0  0  0  0  0  0  0
  -29.6000  -13.9369   20.2770 C   0  0  0  0  0  0  0  0  0  0  0  0
  -24.1603  -17.7236   21.8237 C   0  0  0  0  0  0  0  0  0  0  0  0
  -29.5087  -21.2334   19.5606 C   0  0  0  0  0  0  0  0  0  0  0  0
  -24.0714  -20.0220   21.0365 C   0  0  0  0  0  0  0  0  0  0  0  0
  -29.6501  -19.1261   18.5302 C   0  0  0  0  0  0  0  0  0  0  0  0
  -29.1608  -17.5103   16.3094 C   0  0  0  0  0  0  0  0  0  0  0  0
  -28.8406  -17.9970   18.6541 C   0  0  0  0  0  0  0  0  0  0  0  0
  -28.3118  -25.2851   19.3395 C   0  0  0  0  0  0  0  0  0  0  0  0
  -20.7275  -26.7772   22.0948 C   0  0  0  0  0  0  0  0  0  0  0  0
  -19.7223  -24.8314   21.4365 C   0  0  0  0  0  0  0  0  0  0  0  0
  -27.9415  -27.3511   18.6840 C   0  0  0  0  0  0  0  0  0  0  0  0
  -29.1393  -25.9488   16.9965 C   0  0  0  0  0  0  0  0  0  0  0  0
  -26.2012  -15.0376   21.3259 C   0  0  0  0  0  0  0  0  0  0  0  0
  -23.6651  -14.1720   23.1537 C   0  0  0  0  0  0  0  0  0  0  0  0
  -20.7190  -15.0615   24.6288 C   0  0  0  0  0  0  0  0  0  0  0  0
  -23.6579  -28.6291   22.6675 C   0  0  0  0  0  0  0  0  0  0  0  0
  -29.7657  -11.6515   19.1590 C   0  0  0  0  0  0  0  0  0  0  0  0
  -26.1844  -16.8660   23.0615 C   0  0  0  0  0  0  0  0  0  0  0  0
  -23.4869  -16.3824   21.9505 C   0  0  0  0  0  0  0  0  0  0  0  0
  -28.3301  -11.8798   18.6972 C   0  0  0  0  0  0  0  0  0  0  0  0
  -27.0040  -29.8458   22.6574 C   0  0  0  0  0  0  0  0  0  0  0  0
  -27.5236  -12.5320   19.8103 C   0  0  0  0  0  0  0  0  0  0  0  0
  -27.7361  -28.8949   21.7089 C   0  0  0  0  0  0  0  0  0  0  0  0
  -25.9459  -29.1162   23.4823 C   0  0  0  0  0  0  0  0  0  0  0  0
  -25.7066  -27.3853   21.7443 C   0  0  0  0  0  0  0  0  0  0  0  0
  -28.0871  -13.9168   20.1536 C   0  0  1  0  0  0  0  0  0  0  0  0
  -25.7120  -15.4665   22.6802 C   0  0  1  0  0  0  0  0  0  0  0  0
  -26.7450  -28.0855   20.8510 C   0  0  2  0  0  0  0  0  0  0  0  0
  -21.7404  -29.8656   19.9610 C   0  0  0  0  0  0  0  0  0  0  0  0
  -18.8549  -14.1284   26.0259 C   0  0  0  0  0  0  0  0  0  0  0  0
  -17.7451  -23.7222   20.3735 C   0  0  0  0  0  0  0  0  0  0  0  0
  -19.6069  -24.4060   18.8874 C   0  0  0  0  0  0  0  0  0  0  0  0
  -22.5426  -12.7471   20.7002 C   0  0  0  0  0  0  0  0  0  0  0  0
  -20.3198  -12.6676   21.8496 C   0  0  0  0  0  0  0  0  0  0  0  0
  -22.2804  -11.4911   22.8469 C   0  0  0  0  0  0  0  0  0  0  0  0
  -21.2592  -16.9658   26.8289 C   0  0  0  0  0  0  0  0  0  0  0  0
  -21.0044  -28.5922   20.3595 C   0  0  0  0  0  0  0  0  0  0  0  0
  -21.4548  -22.4267   20.3902 C   0  0  0  0  0  0  0  0  0  0  0  0
  -19.9243  -22.4659   20.4769 C   0  0  0  0  0  0  0  0  0  0  0  0
  -21.9775  -20.9973   20.4705 C   0  0  0  0  0  0  0  0  0  1  0  0
  -21.4321  -28.0401   21.7412 C   0  0  2  0  0  0  0  0  0  0  0  0
  -22.1819  -14.0164   22.9193 C   0  0  1  0  0  0  0  0  0  0  0  0
  -20.1935  -14.8501   26.0372 C   0  0  2  0  0  0  0  0  0  0  0  0
  -19.2852  -23.8805   20.3074 C   0  0  0  0  0  0  0  0  0  0  0  0
  -21.8444  -12.7554   22.0747 C   0  0  0  0  0  0  0  0  0  0  0  0
  -19.8340  -25.3301   23.7643 N   0  0  0  0  0  0  0  0  0  0  0  0
  -27.6742  -25.8529   20.3668 N   0  0  0  0  0  0  0  0  0  0  0  0
  -20.3583  -25.9661   21.0837 N   0  0  0  0  0  0  0  0  0  0  0  0
  -27.4628  -27.1089   19.9379 N   0  0  0  0  0  0  0  0  0  0  0  0
  -24.2526  -15.3473   22.6645 N   0  0  0  0  0  0  0  0  0  0  0  0
  -25.0371  -28.3695   22.6092 N   0  0  0  0  0  0  0  0  0  0  0  0
  -27.8132  -28.5614   18.0999 N   0  0  0  0  0  0  0  0  0  0  0  0
  -29.6656  -24.6781   16.7270 N   0  0  0  0  0  0  0  0  0  0  0  0
  -27.4325  -14.4107   21.3450 N   0  0  0  0  0  0  0  0  0  0  0  0
  -21.5560  -14.0382   24.2370 N   0  0  0  0  0  0  0  0  0  0  0  0
  -22.8681  -27.8821   21.8021 N   0  0  0  0  0  0  0  0  0  0  0  0
  -20.0155  -16.1598   26.7256 N   0  3  0  0  0  0  0  0  0  0  0  0
  -29.2504  -26.8545   16.1358 O   0  0  0  0  0  0  0  0  0  0  0  0
  -25.5120  -15.2578   20.3368 O   0  0  0  0  0  0  0  0  0  0  0  0
  -24.2784  -13.2867   23.7551 O   0  0  0  0  0  0  0  0  0  0  0  0
  -20.4142  -16.0350   23.9432 O   0  0  0  0  0  0  0  0  0  0  0  0
  -23.1673  -29.4684   23.4302 O   0  0  0  0  0  0  0  0  0  0  0  0
  -29.8933  -19.9297   19.6315 O   0  0  0  0  0  0  0  0  0  0  0  0
  -23.4026  -21.0225   20.4012 O   0  0  0  0  0  0  0  0  0  1  0  0
  -28.9247  -16.7354   15.2426 F   0  0  0  0  0  0  0  0  0  0  0  0
  -28.2942  -17.6840   19.8370 F   0  0  0  0  0  0  0  0  0  0  0  0
  1  2  1  0  0  0  0
  1  5  2  0  0  0  0
  2  6  2  0  0  0  0
  3  8  2  0  0  0  0
  3 17  1  0  0  0  0
  4  9  1  0  0  0  0
  4 17  2  0  0  0  0
  5 19  1  0  0  0  0
  6 21  1  0  0  0  0
  7 10  2  0  0  0  0
  7 20  1  0  0  0  0
  8 23  1  0  0  0  0
  9 23  2  0  0  0  0
 10 24  1  0  0  0  0
 11 12  2  0  0  0  0
 11 25  1  0  0  0  0
 12 26  1  0  0  0  0
 13 22  1  0  0  0  0
 13 24  2  0  0  0  0
 14 26  2  0  0  0  0
 14 27  1  0  0  0  0
 15 29  1  0  0  0  0
 15 66  2  0  0  0  0
 16 30  2  0  0  0  0
 16 66  1  0  0  0  0
 17 28  1  0  0  0  0
 18 28  1  0  0  0  0
 18 31  2  0  0  0  0
 18 32  1  0  0  0  0
 19 21  2  0  0  0  0
 19 37  1  0  0  0  0
 20 22  2  0  0  0  0
 20 38  1  0  0  0  0
 21 46  1  0  0  0  0
 22 39  1  0  0  0  0
 23 83  1  0  0  0  0
 24 84  1  0  0  0  0
 25 27  2  0  0  0  0
 25 83  1  0  0  0  0
 26 85  1  0  0  0  0
 27 86  1  0  0  0  0
 28 67  2  0  0  0  0
 29 61  1  0  0  0  0
 29 68  2  0  0  0  0
 30 64  1  0  0  0  0
 30 68  1  0  0  0  0
 31 69  1  0  0  0  0
 31 72  1  0  0  0  0
 32 73  1  0  0  0  0
 32 78  2  0  0  0  0
 33 47  1  0  0  0  0
 33 74  1  0  0  0  0
 33 79  2  0  0  0  0
 34 62  1  0  0  0  0
 34 70  1  0  0  0  0
 34 80  2  0  0  0  0
 35 63  1  0  0  0  0
 35 75  1  0  0  0  0
 35 81  2  0  0  0  0
 36 71  1  0  0  0  0
 36 76  1  0  0  0  0
 36 82  2  0  0  0  0
 37 40  1  0  0  0  0
 38 47  1  0  0  0  0
 39 70  1  0  0  0  0
 40 42  1  0  0  0  0
 41 43  1  0  0  0  0
 41 44  1  0  0  0  0
 42 46  1  0  0  0  0
 43 48  1  0  0  0  0
 44 71  1  0  0  0  0
 45 48  1  0  0  0  0
 45 71  1  0  0  0  0
 46 74  1  0  0  0  0
 47 70  1  0  0  0  0
 48 69  1  0  0  0  0
 49 57  1  0  0  0  0
 50 63  1  0  0  0  0
 51 64  1  0  0  0  0
 52 64  1  0  0  0  0
 53 65  1  0  0  0  0
 54 65  1  0  0  0  0
 55 65  1  0  0  0  0
 56 77  1  0  0  0  0
 57 61  1  0  0  0  0
 58 59  1  0  0  0  0
 58 60  1  0  0  0  0
 59 64  1  0  0  0  0
 60 84  1  0  0  0  0
 61 76  1  0  0  0  0
 62 65  1  0  0  0  0
 62 75  1  0  0  0  0
 63 77  1  0  0  0  0
 67 69  1  0  0  0  0
M  CHG  1  77   1
M  ISO  4  36 100  60 101  76 100  84 101
M  END
> <Batch ID>
0068

> <Smiles>
CCC([100NH:0][100C:0](=O)N1CCCC(n2nc(-c3ccc(Oc4ccc(F)cc4F)cc3)c(C(N)=O)c2N)C1)c1cncc(C(C)(C)CC[101CH2:1][101O:1]c2ccc3c(c2)CN(C(=O)C(NC(=O)C(C)NC)C(C)(C)C)C(C(=O)NC2CCCc4ccccc42)C3)n1

> <Shape>
0.226

> <Color>
0.062

> <Negative vol penalty>
0.000

$$$$

  -OEChem-04052318143D

 89 97  0     1  0  0  0  0  0999 V2000
  -18.3679  -25.0381   22.2416 C   0  0  0  0  0  0  0  0  0  0  0  0
  -19.6426  -25.1438   21.6943 C   0  0  0  0  0  0  0  0  0  0  0  0
  -28.3100  -13.7595   19.9802 C   0  0  0  0  0  0  0  0  0  0  0  0
  -28.8351  -15.7002   21.3200 C   0  0  0  0  0  0  0  0  0  0  0  0
  -17.6525  -26.1897   22.5670 C   0  0  0  0  0  0  0  0  0  0  0  0
  -20.2022  -26.4014   21.4711 C   0  0  0  0  0  0  0  0  0  0  0  0
  -25.0286  -26.6754   22.9795 C   0  0  0  0  0  0  0  0  0  0  0  0
  -29.6667  -13.5774   19.7123 C   0  0  0  0  0  0  0  0  0  0  0  0
  -30.1918  -15.5180   21.0521 C   0  0  0  0  0  0  0  0  0  0  0  0
  -25.9899  -26.1075   22.1445 C   0  0  0  0  0  0  0  0  0  0  0  0
  -32.0025  -14.9134   17.6669 C   0  0  0  0  0  0  0  0  0  0  0  0
  -32.3708  -14.6358   16.3505 C   0  0  0  0  0  0  0  0  0  0  0  0
  -26.5226  -28.2954   21.2796 C   0  0  0  0  0  0  0  0  0  0  0  0
  -33.3312  -12.5361   17.0620 C   0  0  0  0  0  0  0  0  0  0  0  0
  -26.2147  -20.5963   18.3561 C   0  0  0  0  0  0  0  0  0  0  0  0
  -25.6729  -20.6291   20.4869 C   0  0  0  0  0  0  0  0  0  0  0  0
  -27.8942  -14.8209   20.7841 C   0  0  0  0  0  0  0  0  0  0  0  0
  -25.7574  -14.4692   22.1325 C   0  0  0  0  0  0  0  0  0  0  0  0
  -18.2075  -27.4619   22.3567 C   0  0  0  0  0  0  0  0  0  0  0  0
  -24.7991  -28.0587   22.9629 C   0  0  0  0  0  0  0  0  0  0  0  0
  -19.4930  -27.5712   21.7928 C   0  0  0  0  0  0  0  0  0  0  0  0
  -25.5596  -28.8788   22.1171 C   0  0  0  0  0  0  0  0  0  0  0  0
  -26.7632  -20.6423   19.6518 C   0  0  0  0  0  0  0  0  0  0  0  0
  -30.6076  -14.4566   20.2482 C   0  0  0  0  0  0  0  0  0  0  0  0
  -26.7350  -26.9171   21.2923 C   0  0  0  0  0  0  0  0  0  0  0  0
  -32.2986  -14.0024   18.6809 C   0  0  0  0  0  0  0  0  0  0  0  0
  -33.0351  -13.4472   16.0480 C   0  0  0  0  0  0  0  0  0  0  0  0
  -32.9629  -12.8137   18.3784 C   0  0  0  0  0  0  0  0  0  0  0  0
  -26.4928  -15.0099   21.0607 C   0  0  0  0  0  0  0  0  0  0  0  0
  -24.4817  -14.9433   21.9473 C   0  0  0  0  0  0  0  0  0  0  0  0
  -26.1889  -13.6149   23.2000 C   0  0  0  0  0  0  0  0  0  0  0  0
  -22.3131  -29.9118   22.2633 C   0  0  0  0  0  0  0  0  0  0  0  0
  -24.2702  -32.2715   23.3234 C   0  0  0  0  0  0  0  0  0  0  0  0
  -22.3779  -19.7878   19.0809 C   0  0  0  0  0  0  0  0  0  0  0  0
  -27.4552  -33.3554   23.8960 C   0  0  0  0  0  0  0  0  0  0  0  0
  -17.3772  -28.6787   22.6804 C   0  0  0  0  0  0  0  0  0  0  0  0
  -23.7772  -28.6590   23.8890 C   0  0  0  0  0  0  0  0  0  0  0  0
  -25.3659  -30.3718   22.0760 C   0  0  0  0  0  0  0  0  0  0  0  0
  -18.1910  -29.9677   22.7604 C   0  0  0  0  0  0  0  0  0  0  0  0
  -21.4675  -16.3668   18.5259 C   0  0  0  0  0  0  0  0  0  0  0  0
  -19.1390  -30.0753   21.5702 C   0  0  0  0  0  0  0  0  0  0  0  0
  -22.6008  -15.5822   19.1856 C   0  0  0  0  0  0  0  0  0  0  0  0
  -21.9772  -17.6572   17.8916 C   0  0  0  0  0  0  0  0  0  0  0  0
  -23.8584  -17.7611   19.4954 C   0  0  0  0  0  0  0  0  0  0  0  0
  -20.1440  -28.9171   21.5589 C   0  0  1  0  0  0  0  0  0  0  0  0
  -23.2690  -30.0181   23.4177 C   0  0  1  0  0  0  0  0  0  0  0  0
  -23.3816  -16.4653   20.1750 C   0  0  2  0  0  0  0  0  0  0  0  0
  -30.8232  -26.5973   22.1591 C   0  0  0  0  0  0  0  0  0  0  0  0
  -28.7393  -35.3426   24.7324 C   0  0  0  0  0  0  0  0  0  0  0  0
  -22.6531  -21.9815   20.1919 C   0  0  0  0  0  0  0  0  0  0  0  0
  -22.9541  -19.8430   21.4413 C   0  0  0  0  0  0  0  0  0  0  0  0
  -23.7596  -33.7104   20.6816 C   0  0  0  0  0  0  0  0  0  0  0  0
  -25.7483  -35.1531   21.1632 C   0  0  0  0  0  0  0  0  0  0  0  0
  -23.7781  -35.1970   22.6926 C   0  0  0  0  0  0  0  0  0  0  0  0
  -30.6290  -21.3072   21.5786 C   0  0  0  0  0  0  0  0  0  0  0  0
  -31.0057  -21.9579   19.1941 C   0  0  0  0  0  0  0  0  0  0  0  0
  -29.6448  -24.9903   18.8075 C   0  0  0  0  0  0  0  0  0  0  0  0
  -28.6346  -31.8023   26.1222 C   0  0  0  0  0  0  0  0  0  0  0  0
  -28.2215  -20.6921   20.0392 C   0  0  0  0  0  0  0  0  0  0  0  0
  -30.5831  -26.3226   20.6784 C   0  0  0  0  0  0  0  0  0  0  0  0
  -28.7202  -22.1402   20.1520 C   0  0  0  0  0  0  0  0  0  0  0  0
  -30.4856  -23.7954   20.9416 C   0  0  0  0  0  0  0  0  0  0  0  0
  -28.3175  -25.1775   20.9385 C   0  0  0  0  0  0  0  0  0  1  0  0
  -25.2971  -33.1759   22.6857 C   0  0  1  0  0  0  0  0  0  0  0  0
  -28.0918  -34.0178   25.1045 C   0  0  2  0  0  0  0  0  0  0  0  0
  -23.1997  -20.5461   20.0926 C   0  0  0  0  0  0  0  0  0  0  0  0
  -24.6483  -34.2808   21.8049 C   0  0  0  0  0  0  0  0  0  0  0  0
  -30.2444  -22.3192   20.4805 C   0  0  0  0  0  0  0  0  0  0  0  0
  -29.7417  -25.0390   20.3439 C   0  0  2  0  0  0  0  0  0  0  0  0
  -24.8797  -20.5567   18.3624 N   0  0  0  0  0  0  0  0  0  0  0  0
  -25.7464  -15.7692   20.2543 N   0  0  0  0  0  0  0  0  0  0  0  0
  -24.5801  -20.5777   19.6724 N   0  0  0  0  0  0  0  0  0  0  0  0
  -24.5286  -15.7090   20.8196 N   0  0  0  0  0  0  0  0  0  0  0  0
  -24.3505  -30.9106   22.9958 N   0  0  0  0  0  0  0  0  0  0  0  0
  -22.7325  -18.4572   18.8574 N   0  0  0  0  0  0  0  0  0  0  0  0
  -23.3356  -14.7756   22.6407 N   0  0  0  0  0  0  0  0  0  0  0  0
  -27.5339  -13.2226   23.2398 N   0  0  0  0  0  0  0  0  0  0  0  0
  -21.1925  -29.1483   22.5292 N   0  0  0  0  0  0  0  0  0  0  0  0
  -26.1225  -33.6877   23.7744 N   0  0  0  0  0  0  0  0  0  0  0  0
  -29.1373  -33.1317   25.6901 N   0  3  0  0  0  0  0  0  0  0  0  0
  -25.4015  -13.1981   24.0830 O   0  0  0  0  0  0  0  0  0  0  0  0
  -22.5723  -30.4816   21.2098 O   0  0  0  0  0  0  0  0  0  0  0  0
  -23.4323  -32.7537   24.0896 O   0  0  0  0  0  0  0  0  0  0  0  0
  -21.4471  -20.3617   18.5094 O   0  0  0  0  0  0  0  0  0  0  0  0
  -28.0788  -32.6200   23.1339 O   0  0  0  0  0  0  0  0  0  0  0  0
  -31.9316  -14.2791   19.9872 O   0  0  0  0  0  0  0  0  0  0  0  0
  -27.6793  -26.3618   20.4708 O   0  0  0  0  0  0  0  0  0  1  0  0
  -33.3873  -13.1800   14.7836 F   0  0  0  0  0  0  0  0  0  0  0  0
  -33.2490  -11.9341   19.3481 F   0  0  0  0  0  0  0  0  0  0  0  0
  1  2  1  0  0  0  0
  1  5  2  0  0  0  0
  2  6  2  0  0  0  0
  3  8  2  0  0  0  0
  3 17  1  0  0  0  0
  4  9  1  0  0  0  0
  4 17  2  0  0  0  0
  5 19  1  0  0  0  0
  6 21  1  0  0  0  0
  7 10  2  0  0  0  0
  7 20  1  0  0  0  0
  8 24  1  0  0  0  0
  9 24  2  0  0  0  0
 10 25  1  0  0  0  0
 11 12  2  0  0  0  0
 11 26  1  0  0  0  0
 12 27  1  0  0  0  0
 13 22  1  0  0  0  0
 13 25  2  0  0  0  0
 14 27  2  0  0  0  0
 14 28  1  0  0  0  0
 15 23  1  0  0  0  0
 15 70  2  0  0  0  0
 16 23  2  0  0  0  0
 16 72  1  0  0  0  0
 17 29  1  0  0  0  0
 18 29  1  0  0  0  0
 18 30  2  0  0  0  0
 18 31  1  0  0  0  0
 19 21  2  0  0  0  0
 19 36  1  0  0  0  0
 20 22  2  0  0  0  0
 20 37  1  0  0  0  0
 21 45  1  0  0  0  0
 22 38  1  0  0  0  0
 23 59  1  0  0  0  0
 24 86  1  0  0  0  0
 25 87  1  0  0  0  0
 26 28  2  0  0  0  0
 26 86  1  0  0  0  0
 27 88  1  0  0  0  0
 28 89  1  0  0  0  0
 29 71  2  0  0  0  0
 30 73  1  0  0  0  0
 30 76  1  0  0  0  0
 31 77  1  0  0  0  0
 31 81  2  0  0  0  0
 32 46  1  0  0  0  0
 32 78  1  0  0  0  0
 32 82  2  0  0  0  0
 33 64  1  0  0  0  0
 33 74  1  0  0  0  0
 33 83  2  0  0  0  0
 34 66  1  0  0  0  0
 34 75  1  0  0  0  0
 34 84  2  0  0  0  0
 35 65  1  0  0  0  0
 35 79  1  0  0  0  0
 35 85  2  0  0  0  0
 36 39  1  0  0  0  0
 37 46  1  0  0  0  0
 38 74  1  0  0  0  0
 39 41  1  0  0  0  0
 40 42  1  0  0  0  0
 40 43  1  0  0  0  0
 41 45  1  0  0  0  0
 42 47  1  0  0  0  0
 43 75  1  0  0  0  0
 44 47  1  0  0  0  0
 44 75  1  0  0  0  0
 45 78  1  0  0  0  0
 46 74  1  0  0  0  0
 47 73  1  0  0  0  0
 48 60  1  0  0  0  0
 49 65  1  0  0  0  0
 50 66  1  0  0  0  0
 51 66  1  0  0  0  0
 52 67  1  0  0  0  0
 53 67  1  0  0  0  0
 54 67  1  0  0  0  0
 55 68  1  0  0  0  0
 56 68  1  0  0  0  0
 57 69  1  0  0  0  0
 58 80  1  0  0  0  0
 59 61  1  0  0  0  0
 60 69  1  0  0  0  0
 61 68  1  0  0  0  0
 62 68  1  0  0  0  0
 62 69  1  0  0  0  0
 63 69  1  0  0  0  0
 63 87  1  0  0  0  0
 64 67  1  0  0  0  0
 64 79  1  0  0  0  0
 65 80  1  0  0  0  0
 66 72  1  0  0  0  0
 70 72  1  0  0  0  0
 71 73  1  0  0  0  0
M  CHG  1  80   1
M  ISO  4  34 100  63 101  66 100  87 101
M  END
> <Batch ID>
0068

> <Smiles>
CCC(C)(CC(C)(C)CCc1cnn([100C:0](C)(C)[100C:0](=O)N2CCCC(n3nc(-c4ccc(Oc5ccc(F)cc5F)cc4)c(C(N)=O)c3N)C2)c1)[101CH2:1][101O:1]c1ccc2c(c1)CN(C(=O)C(NC(=O)C(C)NC)C(C)(C)C)C(C(=O)NC1CCCc3ccccc31)C2

> <Shape>
0.248

> <Color>
0.077

> <Negative vol penalty>
0.000

$$$$

  -OEChem-04052318143D

 85 93  0     1  0  0  0  0  0999 V2000
  -34.3909  -17.7117   24.9771 C   0  0  0  0  0  0  0  0  0  0  0  0
  -33.3022  -18.4952   24.6079 C   0  0  0  0  0  0  0  0  0  0  0  0
  -19.6550  -26.7058   22.0619 C   0  0  0  0  0  0  0  0  0  0  0  0
  -20.3409  -28.9802   22.5019 C   0  0  0  0  0  0  0  0  0  0  0  0
  -34.6295  -16.5013   24.3276 C   0  0  0  0  0  0  0  0  0  0  0  0
  -32.4520  -18.0692   23.5881 C   0  0  0  0  0  0  0  0  0  0  0  0
  -26.4043  -18.9622   23.2233 C   0  0  0  0  0  0  0  0  0  0  0  0
  -18.4350  -26.9519   22.6915 C   0  0  0  0  0  0  0  0  0  0  0  0
  -19.1208  -29.2264   23.1315 C   0  0  0  0  0  0  0  0  0  0  0  0
  -25.6342  -19.8986   22.5347 C   0  0  0  0  0  0  0  0  0  0  0  0
  -15.5026  -28.4577   21.9388 C   0  0  0  0  0  0  0  0  0  0  0  0
  -14.3444  -28.0029   21.3085 C   0  0  0  0  0  0  0  0  0  0  0  0
  -25.3254  -18.3162   20.7403 C   0  0  0  0  0  0  0  0  0  0  0  0
  -13.8360  -26.6319   23.2317 C   0  0  0  0  0  0  0  0  0  0  0  0
  -27.3169  -24.6865   17.9310 C   0  0  0  0  0  0  0  0  0  0  0  0
  -20.6081  -27.7199   21.9671 C   0  0  0  0  0  0  0  0  0  0  0  0
  -22.1722  -27.6387   19.9535 C   0  0  0  0  0  0  0  0  0  0  0  0
  -33.7762  -16.0556   23.3059 C   0  0  0  0  0  0  0  0  0  0  0  0
  -26.6501  -17.6975   22.6696 C   0  0  0  0  0  0  0  0  0  0  0  0
  -32.6801  -16.8523   22.9233 C   0  0  0  0  0  0  0  0  0  0  0  0
  -26.0967  -17.3647   21.4250 C   0  0  0  0  0  0  0  0  0  0  0  0
  -18.1678  -28.2122   23.2263 C   0  0  0  0  0  0  0  0  0  0  0  0
  -25.0970  -19.5766   21.2918 C   0  0  0  0  0  0  0  0  0  0  0  0
  -15.8275  -27.9996   23.2157 C   0  0  0  0  0  0  0  0  0  0  0  0
  -13.5112  -27.0900   21.9549 C   0  0  0  0  0  0  0  0  0  0  0  0
  -14.9942  -27.0867   23.8621 C   0  0  0  0  0  0  0  0  0  0  0  0
  -21.8688  -27.4662   21.3174 C   0  0  0  0  0  0  0  0  0  0  0  0
  -28.6264  -24.4251   18.2690 C   0  0  0  0  0  0  0  0  0  0  0  0
  -28.0208  -22.3475   19.0085 C   0  0  0  0  0  0  0  0  0  0  0  0
  -26.7111  -22.6093   18.6712 C   0  0  0  0  0  0  0  0  0  0  0  0
  -23.4890  -27.2636   19.8446 C   0  0  0  0  0  0  0  0  0  0  0  0
  -21.3384  -28.0972   18.8811 C   0  0  0  0  0  0  0  0  0  0  0  0
  -29.2519  -16.1150   21.7586 C   0  0  0  0  0  0  0  0  0  0  0  0
  -27.1458  -13.6883   21.3137 C   0  0  0  0  0  0  0  0  0  0  0  0
  -23.9262  -12.7161   20.7342 C   0  0  0  0  0  0  0  0  0  0  0  0
  -28.6993  -27.7615   22.0632 C   0  0  0  0  0  0  0  0  0  0  0  0
  -34.1017  -14.7628   22.6006 C   0  0  0  0  0  0  0  0  0  0  0  0
  -27.4606  -16.6892   23.4371 C   0  0  0  0  0  0  0  0  0  0  0  0
  -26.3142  -16.0134   20.7962 C   0  0  0  0  0  0  0  0  0  0  0  0
  -32.9383  -14.2041   21.7853 C   0  0  0  0  0  0  0  0  0  0  0  0
  -26.5501  -24.9385   23.1185 C   0  0  0  0  0  0  0  0  0  0  0  0
  -32.2963  -15.3051   20.9473 C   0  0  0  0  0  0  0  0  0  0  0  0
  -25.1584  -25.4014   22.6908 C   0  0  0  0  0  0  0  0  0  0  0  0
  -27.4686  -26.1161   23.4305 C   0  0  0  0  0  0  0  0  0  0  0  0
  -26.1837  -27.5692   21.8970 C   0  0  0  0  0  0  0  0  0  0  0  0
  -31.7209  -16.4124   21.8387 C   0  0  1  0  0  0  0  0  0  0  0  0
  -28.0748  -15.6136   22.5464 C   0  0  1  0  0  0  0  0  0  0  0  0
  -25.2475  -26.4078   21.5305 C   0  0  2  0  0  0  0  0  0  0  0  0
  -28.4227  -21.0442   19.6099 C   0  0  0  0  0  0  0  0  0  0  0  0
  -22.5202  -10.6676   20.3816 C   0  0  0  0  0  0  0  0  0  0  0  0
  -23.9166  -22.8208   20.2801 C   0  0  0  0  0  0  0  0  0  0  0  0
  -28.2228  -13.4416   18.4696 C   0  0  0  0  0  0  0  0  0  0  0  0
  -26.1963  -12.0887   17.8940 C   0  0  0  0  0  0  0  0  0  0  0  0
  -27.7985  -11.2605   19.6173 C   0  0  0  0  0  0  0  0  0  0  0  0
  -29.7398  -29.3189   20.4596 C   0  0  0  0  0  0  0  0  0  0  0  0
  -22.2821  -13.2911   23.1269 C   0  0  0  0  0  0  0  0  0  0  0  0
  -29.6841  -25.4472   18.0400 C   0  0  0  0  0  0  0  0  0  0  0  0
  -25.6209  -21.5881   18.8949 C   0  0  0  0  0  0  0  0  0  0  0  0
  -29.9123  -26.4096   19.2239 C   0  0  0  0  0  0  0  0  0  0  0  0
  -28.6972  -27.2623   19.5826 C   0  0  0  0  0  0  0  0  0  0  0  0
  -26.2891  -13.2134   20.1650 C   0  0  1  0  0  0  0  0  0  0  0  0
  -23.0569  -11.6634   21.3980 C   0  0  2  0  0  0  0  0  0  0  0  0
  -24.9741  -21.7242   20.2775 C   0  0  2  0  0  0  0  0  0  1  0  0
  -27.1240  -12.5273   19.0472 C   0  0  0  0  0  0  0  0  0  0  0  0
  -26.3357  -23.7834   18.1261 N   0  0  0  0  0  0  0  0  0  0  0  0
  -22.9091  -27.0163   22.0241 N   0  0  0  0  0  0  0  0  0  0  0  0
  -29.0019  -23.2508   18.8138 N   0  0  0  0  0  0  0  0  0  0  0  0
  -23.8790  -26.9029   21.1008 N   0  0  0  0  0  0  0  0  0  0  0  0
  -27.1189  -15.0641   21.5828 N   0  0  0  0  0  0  0  0  0  0  0  0
  -27.5010  -27.0785   22.3287 N   0  0  0  0  0  0  0  0  0  0  0  0
  -24.3397  -27.2103   18.7978 N   0  0  0  0  0  0  0  0  0  0  0  0
  -20.0103  -28.4415   19.1676 N   0  0  0  0  0  0  0  0  0  0  0  0
  -30.4615  -15.9935   22.4156 N   0  0  0  0  0  0  0  0  0  0  0  0
  -25.2587  -12.3617   20.7492 N   0  0  0  0  0  0  0  0  0  0  0  0
  -28.9434  -28.1307   20.7317 N   0  0  0  0  0  0  0  0  0  0  0  0
  -21.8997  -12.3047   22.0840 N   0  3  0  0  0  0  0  0  0  0  0  0
  -21.7538  -28.1830   17.7006 O   0  0  0  0  0  0  0  0  0  0  0  0
  -29.0760  -16.5764   20.6371 O   0  0  0  0  0  0  0  0  0  0  0  0
  -27.8087  -12.8679   21.9533 O   0  0  0  0  0  0  0  0  0  0  0  0
  -23.4686  -13.7477   20.2474 O   0  0  0  0  0  0  0  0  0  0  0  0
  -29.5094  -28.0176   22.9632 O   0  0  0  0  0  0  0  0  0  0  0  0
  -16.9773  -28.4527   23.8405 O   0  0  0  0  0  0  0  0  0  0  0  0
  -24.3456  -20.4890   20.6173 O   0  0  0  0  0  0  0  0  0  1  0  0
  -12.3982  -26.6544   21.3500 F   0  0  0  0  0  0  0  0  0  0  0  0
  -15.3006  -26.6439   25.0893 F   0  0  0  0  0  0  0  0  0  0  0  0
  1  2  1  0  0  0  0
  1  5  2  0  0  0  0
  2  6  2  0  0  0  0
  3  8  2  0  0  0  0
  3 16  1  0  0  0  0
  4  9  1  0  0  0  0
  4 16  2  0  0  0  0
  5 18  1  0  0  0  0
  6 20  1  0  0  0  0
  7 10  2  0  0  0  0
  7 19  1  0  0  0  0
  8 22  1  0  0  0  0
  9 22  2  0  0  0  0
 10 23  1  0  0  0  0
 11 12  2  0  0  0  0
 11 24  1  0  0  0  0
 12 25  1  0  0  0  0
 13 21  1  0  0  0  0
 13 23  2  0  0  0  0
 14 25  2  0  0  0  0
 14 26  1  0  0  0  0
 15 28  1  0  0  0  0
 15 65  2  0  0  0  0
 16 27  1  0  0  0  0
 17 27  1  0  0  0  0
 17 31  2  0  0  0  0
 17 32  1  0  0  0  0
 18 20  2  0  0  0  0
 18 37  1  0  0  0  0
 19 21  2  0  0  0  0
 19 38  1  0  0  0  0
 20 46  1  0  0  0  0
 21 39  1  0  0  0  0
 22 82  1  0  0  0  0
 23 83  1  0  0  0  0
 24 26  2  0  0  0  0
 24 82  1  0  0  0  0
 25 84  1  0  0  0  0
 26 85  1  0  0  0  0
 27 66  2  0  0  0  0
 28 57  1  0  0  0  0
 28 67  2  0  0  0  0
 29 30  2  0  0  0  0
 29 49  1  0  0  0  0
 29 67  1  0  0  0  0
 30 58  1  0  0  0  0
 30 65  1  0  0  0  0
 31 68  1  0  0  0  0
 31 71  1  0  0  0  0
 32 72  1  0  0  0  0
 32 77  2  0  0  0  0
 33 47  1  0  0  0  0
 33 73  1  0  0  0  0
 33 78  2  0  0  0  0
 34 61  1  0  0  0  0
 34 69  1  0  0  0  0
 34 79  2  0  0  0  0
 35 62  1  0  0  0  0
 35 74  1  0  0  0  0
 35 80  2  0  0  0  0
 36 70  1  0  0  0  0
 36 75  1  0  0  0  0
 36 81  2  0  0  0  0
 37 40  1  0  0  0  0
 38 47  1  0  0  0  0
 39 69  1  0  0  0  0
 40 42  1  0  0  0  0
 41 43  1  0  0  0  0
 41 44  1  0  0  0  0
 42 46  1  0  0  0  0
 43 48  1  0  0  0  0
 44 70  1  0  0  0  0
 45 48  1  0  0  0  0
 45 70  1  0  0  0  0
 46 73  1  0  0  0  0
 47 69  1  0  0  0  0
 48 68  1  0  0  0  0
 50 62  1  0  0  0  0
 51 63  1  0  0  0  0
 52 64  1  0  0  0  0
 53 64  1  0  0  0  0
 54 64  1  0  0  0  0
 55 75  1  0  0  0  0
 56 76  1  0  0  0  0
 57 59  1  0  0  0  0
 58 63  1  0  0  0  0
 59 60  1  0  0  0  0
 60 75  1  0  0  0  0
 61 64  1  0  0  0  0
 61 74  1  0  0  0  0
 62 76  1  0  0  0  0
 63 83  1  0  0  0  0
 66 68  1  0  0  0  0
M  CHG  1  76   1
M  ISO  4  36 100  63 101  75 100  83 101
M  END
> <Batch ID>
0068

> <Smiles>
CNC(C)C(=O)NC(C(=O)N1Cc2cc([101O:1][101CH:1](C)Cc3ncc(CCC[100N:0](C)[100C:0](=O)N4CCCC(n5nc(-c6ccc(Oc7ccc(F)cc7F)cc6)c(C(N)=O)c5N)C4)nc3C)ccc2CC1C(=O)NC1CCCc2ccccc21)C(C)(C)C

> <Shape>
0.218

> <Color>
0.053

> <Negative vol penalty>
0.000

$$$$

  -OEChem-04052318142D

  0  0  0     0  0  0  0  0  0999 V2000
M  END
$$$$

  -OEChem-04052318143D

 86 94  0     1  0  0  0  0  0999 V2000
  -27.1681  -10.9815   18.1449 C   0  0  0  0  0  0  0  0  0  0  0  0
  -26.9313  -12.1879   17.4938 C   0  0  0  0  0  0  0  0  0  0  0  0
  -22.1737  -28.9377   22.7342 C   0  0  0  0  0  0  0  0  0  0  0  0
  -21.8983  -28.5916   20.3590 C   0  0  0  0  0  0  0  0  0  0  0  0
  -26.6002  -10.7424   19.3956 C   0  0  0  0  0  0  0  0  0  0  0  0
  -26.1255  -13.1556   18.0927 C   0  0  0  0  0  0  0  0  0  0  0  0
  -25.3793  -20.2618   18.6046 C   0  0  0  0  0  0  0  0  0  0  0  0
  -20.8967  -28.4229   22.9573 C   0  0  0  0  0  0  0  0  0  0  0  0
  -20.6213  -28.0767   20.5821 C   0  0  0  0  0  0  0  0  0  0  0  0
  -24.4170  -21.2580   18.4454 C   0  0  0  0  0  0  0  0  0  0  0  0
  -17.5678  -27.5328   24.1190 C   0  0  0  0  0  0  0  0  0  0  0  0
  -16.7359  -28.2186   25.0040 C   0  0  0  0  0  0  0  0  0  0  0  0
  -23.5534  -20.7667   20.6436 C   0  0  0  0  0  0  0  0  0  0  0  0
  -16.8668  -30.1835   23.6042 C   0  0  0  0  0  0  0  0  0  0  0  0
  -27.5230  -25.4458   23.0028 C   0  0  0  0  0  0  0  0  0  0  0  0
  -27.7899  -24.4944   21.0330 C   0  0  0  0  0  0  0  0  0  0  0  0
  -22.6745  -29.0221   21.4350 C   0  0  0  0  0  0  0  0  0  0  0  0
  -24.4604  -30.8411   21.5323 C   0  0  0  0  0  0  0  0  0  0  0  0
  -25.7949  -11.7116   20.0144 C   0  0  0  0  0  0  0  0  0  0  0  0
  -25.4291  -19.5019   19.7822 C   0  0  0  0  0  0  0  0  0  0  0  0
  -25.5452  -12.9288   19.3522 C   0  0  0  0  0  0  0  0  0  0  0  0
  -24.5189  -19.7632   20.8163 C   0  0  0  0  0  0  0  0  0  0  0  0
  -20.1205  -27.9924   21.8813 C   0  0  0  0  0  0  0  0  0  0  0  0
  -23.5020  -21.5086   19.4638 C   0  0  0  0  0  0  0  0  0  0  0  0
  -18.0493  -28.1723   22.9767 C   0  0  0  0  0  0  0  0  0  0  0  0
  -16.3854  -29.5440   24.7466 C   0  0  0  0  0  0  0  0  0  0  0  0
  -17.6987  -29.4976   22.7193 C   0  0  0  0  0  0  0  0  0  0  0  0
  -23.9934  -29.5543   21.2038 C   0  0  0  0  0  0  0  0  0  0  0  0
  -26.5142  -24.5505   22.7359 C   0  0  0  0  0  0  0  0  0  0  0  0
  -25.7673  -30.8502   21.1098 C   0  0  0  0  0  0  0  0  0  0  0  0
  -23.7743  -31.9306   22.1630 C   0  0  0  0  0  0  0  0  0  0  0  0
  -25.0922  -16.4188   20.4782 C   0  0  0  0  0  0  0  0  0  0  0  0
  -25.9675  -17.3933   23.4457 C   0  0  0  0  0  0  0  0  0  0  0  0
  -29.7278  -26.4191   20.2199 C   0  0  0  0  0  0  0  0  0  0  0  0
  -26.1730  -19.9306   25.7188 C   0  0  0  0  0  0  0  0  0  0  0  0
  -25.1643  -11.3889   21.3459 C   0  0  0  0  0  0  0  0  0  0  0  0
  -26.4901  -18.4490   19.9492 C   0  0  0  0  0  0  0  0  0  0  0  0
  -24.5430  -18.9893   22.1082 C   0  0  0  0  0  0  0  0  0  0  0  0
  -24.6277  -12.6157   22.0789 C   0  0  0  0  0  0  0  0  0  0  0  0
  -28.6735  -28.8999   17.8589 C   0  0  0  0  0  0  0  0  0  0  0  0
  -23.8219  -13.4955   21.1284 C   0  0  0  0  0  0  0  0  0  0  0  0
  -27.3812  -29.4458   18.4648 C   0  0  0  0  0  0  0  0  0  0  0  0
  -28.8344  -27.4087   18.1374 C   0  0  0  0  0  0  0  0  0  0  0  0
  -27.4721  -27.5951   20.1944 C   0  0  0  0  0  0  0  0  0  0  0  0
  -24.6970  -14.0132   19.9805 C   0  0  1  0  0  0  0  0  0  0  0  0
  -26.1225  -17.3890   20.9829 C   0  0  1  0  0  0  0  0  0  0  0  0
  -27.2858  -29.1050   19.9625 C   0  0  2  0  0  0  0  0  0  0  0  0
  -26.8991  -20.4133   28.0719 C   0  0  0  0  0  0  0  0  0  0  0  0
  -22.0153  -23.2064   22.0792 C   0  0  0  0  0  0  0  0  0  0  0  0
  -30.7514  -25.3832   22.2204 C   0  0  0  0  0  0  0  0  0  0  0  0
  -29.5344  -27.5568   22.3587 C   0  0  0  0  0  0  0  0  0  0  0  0
  -23.4492  -16.0305   24.4998 C   0  0  0  0  0  0  0  0  0  0  0  0
  -23.7216  -17.3261   26.6248 C   0  0  0  0  0  0  0  0  0  0  0  0
  -25.4827  -15.7064   25.9191 C   0  0  0  0  0  0  0  0  0  0  0  0
  -24.1357  -24.2138   18.9229 C   0  0  0  0  0  0  0  0  0  0  0  0
  -21.7238  -24.6953   19.3811 C   0  0  0  0  0  0  0  0  0  0  0  0
  -28.1934  -21.8956   24.8155 C   0  0  0  0  0  0  0  0  0  0  0  0
  -25.3343  -24.1882   23.6026 C   0  0  0  0  0  0  0  0  0  0  0  0
  -24.1314  -25.0915   23.3202 C   0  0  0  0  0  0  0  0  0  0  0  0
  -23.7029  -25.0960   21.8457 C   0  0  0  0  0  0  0  0  0  0  0  0
  -25.2333  -17.8892   24.6680 C   0  0  1  0  0  0  0  0  0  0  0  0
  -27.3116  -20.3964   26.6082 C   0  0  2  0  0  0  0  0  0  0  0  0
  -23.2133  -23.7430   21.2769 C   0  0  2  0  0  0  0  0  0  0  0  0
  -29.5356  -26.1669   21.6942 C   0  0  0  0  0  0  0  0  0  0  0  0
  -24.4698  -16.7515   25.4029 C   0  0  0  0  0  0  0  0  0  0  0  0
  -22.9087  -23.7946   19.7436 C   0  0  0  0  0  0  0  0  0  1  0  0
  -26.6864  -23.9614   21.5083 N   0  0  0  0  0  0  0  0  0  0  0  0
  -24.9276  -28.8007   20.6177 N   0  0  0  0  0  0  0  0  0  0  0  0
  -28.3327  -25.3986   21.9031 N   0  0  0  0  0  0  0  0  0  0  0  0
  -25.9946  -29.6165   20.5745 N   0  0  0  0  0  0  0  0  0  0  0  0
  -25.5953  -17.9659   22.2212 N   0  0  0  0  0  0  0  0  0  0  0  0
  -28.7151  -27.1233   19.5683 N   0  0  0  0  0  0  0  0  0  0  0  0
  -26.7326  -31.7931   21.1476 N   0  0  0  0  0  0  0  0  0  0  0  0
  -23.0948  -32.8507   21.3531 N   0  0  0  0  0  0  0  0  0  0  0  0
  -25.5280  -15.1083   20.4327 N   0  0  0  0  0  0  0  0  0  0  0  0
  -26.2257  -18.5717   25.4914 N   0  0  0  0  0  0  0  0  0  0  0  0
  -27.7393  -21.7715   26.2246 N   0  3  0  0  0  0  0  0  0  0  0  0
  -23.7779  -32.0930   23.4068 O   0  0  0  0  0  0  0  0  0  0  0  0
  -23.9834  -16.8286   20.1553 O   0  0  0  0  0  0  0  0  0  0  0  0
  -26.8440  -16.5349   23.5736 O   0  0  0  0  0  0  0  0  0  0  0  0
  -30.7494  -26.0044   19.6663 O   0  0  0  0  0  0  0  0  0  0  0  0
  -25.3199  -20.6952   25.2735 O   0  0  0  0  0  0  0  0  0  0  0  0
  -18.8744  -27.4898   22.0986 O   0  0  0  0  0  0  0  0  0  0  0  0
  -22.5613  -22.4799   19.3106 O   0  0  0  0  0  0  0  0  0  1  0  0
  -15.5853  -30.2020   25.5957 F   0  0  0  0  0  0  0  0  0  0  0  0
  -18.1572  -30.1169   21.6228 F   0  0  0  0  0  0  0  0  0  0  0  0
  1  2  1  0  0  0  0
  1  5  2  0  0  0  0
  2  6  2  0  0  0  0
  3  8  2  0  0  0  0
  3 17  1  0  0  0  0
  4  9  1  0  0  0  0
  4 17  2  0  0  0  0
  5 19  1  0  0  0  0
  6 21  1  0  0  0  0
  7 10  2  0  0  0  0
  7 20  1  0  0  0  0
  8 23  1  0  0  0  0
  9 23  2  0  0  0  0
 10 24  1  0  0  0  0
 11 12  2  0  0  0  0
 11 25  1  0  0  0  0
 12 26  1  0  0  0  0
 13 22  1  0  0  0  0
 13 24  2  0  0  0  0
 14 26  2  0  0  0  0
 14 27  1  0  0  0  0
 15 29  2  0  0  0  0
 15 69  1  0  0  0  0
 16 67  2  0  0  0  0
 16 69  1  0  0  0  0
 17 28  1  0  0  0  0
 18 28  1  0  0  0  0
 18 30  2  0  0  0  0
 18 31  1  0  0  0  0
 19 21  2  0  0  0  0
 19 36  1  0  0  0  0
 20 22  2  0  0  0  0
 20 37  1  0  0  0  0
 21 45  1  0  0  0  0
 22 38  1  0  0  0  0
 23 83  1  0  0  0  0
 24 84  1  0  0  0  0
 25 27  2  0  0  0  0
 25 83  1  0  0  0  0
 26 85  1  0  0  0  0
 27 86  1  0  0  0  0
 28 68  2  0  0  0  0
 29 58  1  0  0  0  0
 29 67  1  0  0  0  0
 30 70  1  0  0  0  0
 30 73  1  0  0  0  0
 31 74  1  0  0  0  0
 31 78  2  0  0  0  0
 32 46  1  0  0  0  0
 32 75  1  0  0  0  0
 32 79  2  0  0  0  0
 33 61  1  0  0  0  0
 33 71  1  0  0  0  0
 33 80  2  0  0  0  0
 34 64  1  0  0  0  0
 34 72  1  0  0  0  0
 34 81  2  0  0  0  0
 35 62  1  0  0  0  0
 35 76  1  0  0  0  0
 35 82  2  0  0  0  0
 36 39  1  0  0  0  0
 37 46  1  0  0  0  0
 38 71  1  0  0  0  0
 39 41  1  0  0  0  0
 40 42  1  0  0  0  0
 40 43  1  0  0  0  0
 41 45  1  0  0  0  0
 42 47  1  0  0  0  0
 43 72  1  0  0  0  0
 44 47  1  0  0  0  0
 44 72  1  0  0  0  0
 45 75  1  0  0  0  0
 46 71  1  0  0  0  0
 47 70  1  0  0  0  0
 48 62  1  0  0  0  0
 49 63  1  0  0  0  0
 50 64  1  0  0  0  0
 51 64  1  0  0  0  0
 52 65  1  0  0  0  0
 53 65  1  0  0  0  0
 54 65  1  0  0  0  0
 55 66  1  0  0  0  0
 56 66  1  0  0  0  0
 57 77  1  0  0  0  0
 58 59  1  0  0  0  0
 59 60  1  0  0  0  0
 60 63  1  0  0  0  0
 61 65  1  0  0  0  0
 61 76  1  0  0  0  0
 62 77  1  0  0  0  0
 63 66  1  0  0  0  0
 64 69  1  0  0  0  0
 66 84  1  0  0  0  0
 68 70  1  0  0  0  0
M  CHG  1  77   1
M  ISO  4  34 100  64 100  66 101  84 101
M  END
> <Batch ID>
0068

> <Smiles>
CNC(C)C(=O)NC(C(=O)N1Cc2cc([101O:1][101C:1](C)(C)C(C)CCCc3cn([100C:0](C)(C)[100C:0](=O)N4CCCC(n5nc(-c6ccc(Oc7ccc(F)cc7F)cc6)c(C(N)=O)c5N)C4)cn3)ccc2CC1C(=O)NC1CCCc2ccccc21)C(C)(C)C

> <Shape>
0.193

> <Color>
0.086

> <Negative vol penalty>
0.000

$$$$

  -OEChem-04052318143D

 91 99  0     1  0  0  0  0  0999 V2000
  -31.0610  -25.1016   15.8085 C   0  0  0  0  0  0  0  0  0  0  0  0
  -29.9226  -24.7255   16.5141 C   0  0  0  0  0  0  0  0  0  0  0  0
  -27.6730  -13.3313   22.6110 C   0  0  0  0  0  0  0  0  0  0  0  0
  -26.8783  -13.3199   20.3295 C   0  0  0  0  0  0  0  0  0  0  0  0
  -31.9048  -26.0855   16.3221 C   0  0  0  0  0  0  0  0  0  0  0  0
  -29.6278  -25.3325   17.7344 C   0  0  0  0  0  0  0  0  0  0  0  0
  -24.7465  -26.6200   18.1350 C   0  0  0  0  0  0  0  0  0  0  0  0
  -27.0008  -12.1330   22.8512 C   0  0  0  0  0  0  0  0  0  0  0  0
  -26.2060  -12.1215   20.5697 C   0  0  0  0  0  0  0  0  0  0  0  0
  -23.8417  -25.6015   18.4313 C   0  0  0  0  0  0  0  0  0  0  0  0
  -23.3321  -11.1304   22.0492 C   0  0  0  0  0  0  0  0  0  0  0  0
  -22.0226  -11.0171   21.5824 C   0  0  0  0  0  0  0  0  0  0  0  0
  -23.8311  -26.2915   20.7428 C   0  0  0  0  0  0  0  0  0  0  0  0
  -22.6727   -9.1335   20.2162 C   0  0  0  0  0  0  0  0  0  0  0  0
  -22.0442  -20.7769   19.4201 C   0  0  0  0  0  0  0  0  0  0  0  0
  -21.6181  -21.7664   17.4977 C   0  0  0  0  0  0  0  0  0  0  0  0
  -27.6117  -13.9248   21.3502 C   0  0  0  0  0  0  0  0  0  0  0  0
  -29.6263  -15.3196   20.6405 C   0  0  0  0  0  0  0  0  0  0  0  0
  -31.6151  -26.7117   17.5446 C   0  0  0  0  0  0  0  0  0  0  0  0
  -25.2097  -27.4764   19.1442 C   0  0  0  0  0  0  0  0  0  0  0  0
  -30.4692  -26.3248   18.2655 C   0  0  0  0  0  0  0  0  0  0  0  0
  -24.7399  -27.3216   20.4563 C   0  0  0  0  0  0  0  0  0  0  0  0
  -26.2673  -11.5281   21.8306 C   0  0  0  0  0  0  0  0  0  0  0  0
  -23.3860  -25.4353   19.7358 C   0  0  0  0  0  0  0  0  0  0  0  0
  -24.3120  -10.2453   21.5995 C   0  0  0  0  0  0  0  0  0  0  0  0
  -21.6929  -10.0186   20.6659 C   0  0  0  0  0  0  0  0  0  0  0  0
  -23.9823   -9.2468   20.6830 C   0  0  0  0  0  0  0  0  0  0  0  0
  -28.3054  -15.1630   21.1016 C   0  0  0  0  0  0  0  0  0  0  0  0
  -21.1921  -21.8438   19.5817 C   0  0  0  0  0  0  0  0  0  0  0  0
  -29.8064  -16.6794   20.5701 C   0  0  0  0  0  0  0  0  0  0  0  0
  -30.6031  -14.3249   20.3057 C   0  0  0  0  0  0  0  0  0  0  0  0
  -28.0541  -28.1229   20.4072 C   0  0  0  0  0  0  0  0  0  0  0  0
  -26.3916  -30.4031   22.0070 C   0  0  0  0  0  0  0  0  0  0  0  0
  -23.3902  -31.4890   23.2148 C   0  0  0  0  0  0  0  0  0  0  0  0
  -26.0145  -21.2658   19.9087 C   0  0  0  0  0  0  0  0  0  0  0  0
  -32.5822  -27.7365   18.0824 C   0  0  0  0  0  0  0  0  0  0  0  0
  -26.1651  -28.5869   18.8033 C   0  0  0  0  0  0  0  0  0  0  0  0
  -25.1907  -28.2273   21.5720 C   0  0  0  0  0  0  0  0  0  0  0  0
  -31.9990  -28.5964   19.2008 C   0  0  0  0  0  0  0  0  0  0  0  0
  -28.3208  -20.7621   22.5740 C   0  0  0  0  0  0  0  0  0  0  0  0
  -31.2774  -27.7245   20.2235 C   0  0  0  0  0  0  0  0  0  0  0  0
  -28.6976  -19.2841   22.4573 C   0  0  0  0  0  0  0  0  0  0  0  0
  -26.8534  -20.9998   22.2243 C   0  0  0  0  0  0  0  0  0  0  0  0
  -26.8123  -18.9916   20.7963 C   0  0  0  0  0  0  0  0  0  0  0  0
  -30.1025  -26.9776   19.5806 C   0  0  1  0  0  0  0  0  0  0  0  0
  -26.9650  -29.0773   20.0062 C   0  0  1  0  0  0  0  0  0  0  0  0
  -28.2968  -18.7100   21.0851 C   0  0  2  0  0  0  0  0  0  0  0  0
  -22.3530  -33.3699   24.5125 C   0  0  0  0  0  0  0  0  0  0  0  0
  -22.3486  -18.9430   16.4212 C   0  0  0  0  0  0  0  0  0  0  0  0
  -27.5403  -29.2519   24.5887 C   0  0  0  0  0  0  0  0  0  0  0  0
  -25.7785  -30.5065   25.8499 C   0  0  0  0  0  0  0  0  0  0  0  0
  -27.4690  -31.7503   24.5015 C   0  0  0  0  0  0  0  0  0  0  0  0
  -17.8320  -23.5468   21.6653 C   0  0  0  0  0  0  0  0  0  0  0  0
  -18.8974  -25.7996   21.9114 C   0  0  0  0  0  0  0  0  0  0  0  0
  -19.6140  -23.9326   23.3755 C   0  0  0  0  0  0  0  0  0  0  0  0
  -21.6348  -32.2364   20.9522 C   0  0  0  0  0  0  0  0  0  0  0  0
  -20.5687  -22.3583   20.8596 C   0  0  0  0  0  0  0  0  0  0  0  0
  -24.3501  -20.4654   16.6711 C   0  0  0  0  0  0  0  0  0  0  0  0
  -21.5952  -24.6750   21.1036 C   0  0  0  0  0  0  0  0  0  1  0  0
  -25.6451  -30.4600   23.3179 C   0  0  1  0  0  0  0  0  0  0  0  0
  -22.6989  -32.8379   23.1304 C   0  0  2  0  0  0  0  0  0  0  0  0
  -20.2783  -23.8905   20.8889 C   0  0  2  0  0  0  0  0  0  0  0  0
  -23.1631  -19.7952   17.4033 C   0  0  1  0  0  0  0  0  0  0  0  0
  -25.2146  -21.3764   17.5620 C   0  0  2  0  0  0  0  0  0  0  0  0
  -26.6010  -30.4737   24.5441 C   0  0  0  0  0  0  0  0  0  0  0  0
  -19.1607  -24.2758   21.9379 C   0  0  0  0  0  0  0  0  0  0  0  0
  -26.3502  -21.9981   16.7657 C   0  0  0  0  0  0  0  0  0  0  0  0
  -20.9305  -22.4553   18.3812 N   0  0  0  0  0  0  0  0  0  0  0  0
  -27.6901  -16.3301   21.3096 N   0  0  0  0  0  0  0  0  0  0  0  0
  -22.3080  -20.7396   18.0799 N   0  0  0  0  0  0  0  0  0  0  0  0
  -28.6285  -17.2331   20.9777 N   0  0  0  0  0  0  0  0  0  0  0  0
  -26.1304  -29.2943   21.1896 N   0  0  0  0  0  0  0  0  0  0  0  0
  -26.5389  -20.4327   20.9107 N   0  0  0  0  0  0  0  0  0  0  0  0
  -30.8559  -17.4436   20.1999 N   0  0  0  0  0  0  0  0  0  0  0  0
  -30.2526  -12.9741   20.4354 N   0  0  0  0  0  0  0  0  0  0  0  0
  -28.9729  -27.8657   19.4077 N   0  0  0  0  0  0  0  0  0  0  0  0
  -24.7627  -31.6189   23.2352 N   0  0  0  0  0  0  0  0  0  0  0  0
  -25.7504  -20.6498   18.6916 N   0  0  0  0  0  0  0  0  0  0  0  0
  -21.4398  -32.7262   22.3411 N   0  3  0  0  0  0  0  0  0  0  0  0
  -31.7581  -14.6251   19.9192 O   0  0  0  0  0  0  0  0  0  0  0  0
  -28.0611  -27.6556   21.5400 O   0  0  0  0  0  0  0  0  0  0  0  0
  -27.1723  -31.3127   21.7156 O   0  0  0  0  0  0  0  0  0  0  0  0
  -22.7740  -30.4266   23.2619 O   0  0  0  0  0  0  0  0  0  0  0  0
  -25.8026  -22.4705   20.0841 O   0  0  0  0  0  0  0  0  0  0  0  0
  -25.6114  -10.3586   22.0645 O   0  0  0  0  0  0  0  0  0  0  0  0
  -22.5033  -24.4417   20.0278 O   0  0  0  0  0  0  0  0  0  1  0  0
  -20.4350   -9.9089   20.2189 F   0  0  0  0  0  0  0  0  0  0  0  0
  -24.9190   -8.3929   20.2482 F   0  0  0  0  0  0  0  0  0  0  0  0
  -27.1197  -22.7829   17.5526 F   0  0  0  0  0  0  0  0  0  0  0  0
  -27.1532  -21.0461   16.2400 F   0  0  0  0  0  0  0  0  0  0  0  0
  -25.8910  -22.7588   15.7491 F   0  0  0  0  0  0  0  0  0  0  0  0
  1  2  1  0  0  0  0
  1  5  2  0  0  0  0
  2  6  2  0  0  0  0
  3  8  2  0  0  0  0
  3 17  1  0  0  0  0
  4  9  1  0  0  0  0
  4 17  2  0  0  0  0
  5 19  1  0  0  0  0
  6 21  1  0  0  0  0
  7 10  2  0  0  0  0
  7 20  1  0  0  0  0
  8 23  1  0  0  0  0
  9 23  2  0  0  0  0
 10 24  1  0  0  0  0
 11 12  2  0  0  0  0
 11 25  1  0  0  0  0
 12 26  1  0  0  0  0
 13 22  1  0  0  0  0
 13 24  2  0  0  0  0
 14 26  2  0  0  0  0
 14 27  1  0  0  0  0
 15 29  2  0  0  0  0
 15 70  1  0  0  0  0
 16 68  2  0  0  0  0
 16 70  1  0  0  0  0
 17 28  1  0  0  0  0
 18 28  1  0  0  0  0
 18 30  2  0  0  0  0
 18 31  1  0  0  0  0
 19 21  2  0  0  0  0
 19 36  1  0  0  0  0
 20 22  2  0  0  0  0
 20 37  1  0  0  0  0
 21 45  1  0  0  0  0
 22 38  1  0  0  0  0
 23 85  1  0  0  0  0
 24 86  1  0  0  0  0
 25 27  2  0  0  0  0
 25 85  1  0  0  0  0
 26 87  1  0  0  0  0
 27 88  1  0  0  0  0
 28 69  2  0  0  0  0
 29 57  1  0  0  0  0
 29 68  1  0  0  0  0
 30 71  1  0  0  0  0
 30 74  1  0  0  0  0
 31 75  1  0  0  0  0
 31 80  2  0  0  0  0
 32 46  1  0  0  0  0
 32 76  1  0  0  0  0
 32 81  2  0  0  0  0
 33 60  1  0  0  0  0
 33 72  1  0  0  0  0
 33 82  2  0  0  0  0
 34 61  1  0  0  0  0
 34 77  1  0  0  0  0
 34 83  2  0  0  0  0
 35 73  1  0  0  0  0
 35 78  1  0  0  0  0
 35 84  2  0  0  0  0
 36 39  1  0  0  0  0
 37 46  1  0  0  0  0
 38 72  1  0  0  0  0
 39 41  1  0  0  0  0
 40 42  1  0  0  0  0
 40 43  1  0  0  0  0
 41 45  1  0  0  0  0
 42 47  1  0  0  0  0
 43 73  1  0  0  0  0
 44 47  1  0  0  0  0
 44 73  1  0  0  0  0
 45 76  1  0  0  0  0
 46 72  1  0  0  0  0
 47 71  1  0  0  0  0
 48 61  1  0  0  0  0
 49 63  1  0  0  0  0
 50 65  1  0  0  0  0
 51 65  1  0  0  0  0
 52 65  1  0  0  0  0
 53 66  1  0  0  0  0
 54 66  1  0  0  0  0
 55 66  1  0  0  0  0
 56 79  1  0  0  0  0
 57 62  1  0  0  0  0
 58 63  1  0  0  0  0
 58 64  1  0  0  0  0
 59 62  1  0  0  0  0
 59 86  1  0  0  0  0
 60 65  1  0  0  0  0
 60 77  1  0  0  0  0
 61 79  1  0  0  0  0
 62 66  1  0  0  0  0
 63 70  1  0  0  0  0
 64 67  1  0  0  0  0
 64 78  1  0  0  0  0
 67 89  1  0  0  0  0
 67 90  1  0  0  0  0
 67 91  1  0  0  0  0
 69 71  1  0  0  0  0
M  CHG  1  79   1
M  ISO  4  35 100  59 101  78 100  86 101
M  END
> <Batch ID>
0068

> <Smiles>
CNC(C)C(=O)NC(C(=O)N1Cc2cc([101O:1][101CH2:1]C(Cc3cn(C(C)CC([100NH:0][100C:0](=O)N4CCCC(n5nc(-c6ccc(Oc7ccc(F)cc7F)cc6)c(C(N)=O)c5N)C4)C(F)(F)F)cn3)C(C)(C)C)ccc2CC1C(=O)NC1CCCc2ccccc21)C(C)(C)C

> <Shape>
0.247

> <Color>
0.064

> <Negative vol penalty>
0.000

$$$$

  -OEChem-04052318143D

 91 99  0     1  0  0  0  0  0999 V2000
  -20.5248  -24.6864   24.5590 C   0  0  0  0  0  0  0  0  0  0  0  0
  -21.8341  -25.0824   24.3053 C   0  0  0  0  0  0  0  0  0  0  0  0
  -27.4064  -14.1178   23.2451 C   0  0  0  0  0  0  0  0  0  0  0  0
  -26.6520  -13.3585   21.0792 C   0  0  0  0  0  0  0  0  0  0  0  0
  -19.4644  -25.3614   23.9558 C   0  0  0  0  0  0  0  0  0  0  0  0
  -22.0838  -26.1530   23.4475 C   0  0  0  0  0  0  0  0  0  0  0  0
  -25.5653  -29.3408   25.2812 C   0  0  0  0  0  0  0  0  0  0  0  0
  -26.8079  -13.0085   23.8425 C   0  0  0  0  0  0  0  0  0  0  0  0
  -26.0535  -12.2492   21.6765 C   0  0  0  0  0  0  0  0  0  0  0  0
  -26.9007  -28.9543   25.1759 C   0  0  0  0  0  0  0  0  0  0  0  0
  -23.2242  -11.5705   23.3986 C   0  0  0  0  0  0  0  0  0  0  0  0
  -21.9325  -11.2345   22.9935 C   0  0  0  0  0  0  0  0  0  0  0  0
  -27.1533  -30.3756   23.2431 C   0  0  0  0  0  0  0  0  0  0  0  0
  -22.7237   -9.0707   22.2658 C   0  0  0  0  0  0  0  0  0  0  0  0
  -28.1530  -23.2385   17.7103 C   0  0  0  0  0  0  0  0  0  0  0  0
  -27.3285  -14.2928   21.8635 C   0  0  0  0  0  0  0  0  0  0  0  0
  -29.2618  -15.5336   20.7542 C   0  0  0  0  0  0  0  0  0  0  0  0
  -19.7007  -26.4470   23.0978 C   0  0  0  0  0  0  0  0  0  0  0  0
  -25.0099  -30.2406   24.3602 C   0  0  0  0  0  0  0  0  0  0  0  0
  -21.0255  -26.8423   22.8313 C   0  0  0  0  0  0  0  0  0  0  0  0
  -25.8112  -30.7738   23.3405 C   0  0  0  0  0  0  0  0  0  0  0  0
  -28.0490  -24.5481   18.1327 C   0  0  0  0  0  0  0  0  0  0  0  0
  -26.1314  -12.0742   23.0582 C   0  0  0  0  0  0  0  0  0  0  0  0
  -27.6941  -29.4695   24.1550 C   0  0  0  0  0  0  0  0  0  0  0  0
  -24.2657  -10.6567   23.2373 C   0  0  0  0  0  0  0  0  0  0  0  0
  -21.6822   -9.9846   22.4271 C   0  0  0  0  0  0  0  0  0  0  0  0
  -24.0154   -9.4068   22.6709 C   0  0  0  0  0  0  0  0  0  0  0  0
  -27.9461  -15.4388   21.2459 C   0  0  0  0  0  0  0  0  0  0  0  0
  -26.7887  -24.9505   18.5250 C   0  0  0  0  0  0  0  0  0  0  0  0
  -29.3562  -16.8158   20.2709 C   0  0  0  0  0  0  0  0  0  0  0  0
  -25.9369  -22.8910   18.0779 C   0  0  0  0  0  0  0  0  0  0  0  0
  -30.3053  -14.5505   20.7359 C   0  0  0  0  0  0  0  0  0  0  0  0
  -22.6605  -30.0997   22.2238 C   0  0  0  0  0  0  0  0  0  0  0  0
  -23.2929  -33.2645   21.8973 C   0  0  0  0  0  0  0  0  0  0  0  0
  -25.1835  -20.5395   18.2714 C   0  0  0  0  0  0  0  0  0  0  0  0
  -25.5315  -35.8201   22.2206 C   0  0  0  0  0  0  0  0  0  0  0  0
  -18.5242  -27.1156   22.4319 C   0  0  0  0  0  0  0  0  0  0  0  0
  -23.5749  -30.6680   24.5034 C   0  0  0  0  0  0  0  0  0  0  0  0
  -25.2685  -31.7586   22.3384 C   0  0  0  0  0  0  0  0  0  0  0  0
  -18.8584  -28.4779   21.8296 C   0  0  0  0  0  0  0  0  0  0  0  0
  -27.5904  -21.2080   20.9147 C   0  0  0  0  0  0  0  0  0  0  0  0
  -20.1547  -28.4041   21.0290 C   0  0  0  0  0  0  0  0  0  0  0  0
  -28.0527  -19.7958   21.2713 C   0  0  0  0  0  0  0  0  0  0  0  0
  -26.1127  -21.2351   20.5329 C   0  0  0  0  0  0  0  0  0  0  0  0
  -26.2194  -18.8786   19.7846 C   0  0  0  0  0  0  0  0  0  0  0  0
  -21.3358  -28.0147   21.9261 C   0  0  1  0  0  0  0  0  0  0  0  0
  -22.9757  -31.1948   23.2031 C   0  0  1  0  0  0  0  0  0  0  0  0
  -27.7122  -18.8030   20.1462 C   0  0  2  0  0  0  0  0  0  0  0  0
  -26.5566  -26.3464   19.0015 C   0  0  0  0  0  0  0  0  0  0  0  0
  -25.7718  -38.2886   21.8380 C   0  0  0  0  0  0  0  0  0  0  0  0
  -24.0436  -22.0322   16.6742 C   0  0  0  0  0  0  0  0  0  0  0  0
  -23.6782  -22.2112   19.1376 C   0  0  0  0  0  0  0  0  0  0  0  0
  -23.5856  -32.7691   18.9008 C   0  0  0  0  0  0  0  0  0  0  0  0
  -24.7299  -34.9883   18.7164 C   0  0  0  0  0  0  0  0  0  0  0  0
  -22.3636  -34.8682   19.4967 C   0  0  0  0  0  0  0  0  0  0  0  0
  -30.5773  -28.0095   19.2486 C   0  0  0  0  0  0  0  0  0  0  0  0
  -32.1802  -26.1482   18.8573 C   0  0  0  0  0  0  0  0  0  0  0  0
  -32.6597  -27.6541   21.5123 C   0  0  0  0  0  0  0  0  0  0  0  0
  -31.9350  -25.2950   21.8225 C   0  0  0  0  0  0  0  0  0  0  0  0
  -26.0245  -36.3348   25.0930 C   0  0  0  0  0  0  0  0  0  0  0  0
  -29.2523  -25.4609   18.1541 C   0  0  0  0  0  0  0  0  0  0  0  0
  -29.8042  -25.6229   19.5810 C   0  0  0  0  0  0  0  0  0  0  0  0
  -30.5472  -27.2556   23.7389 C   0  0  0  0  0  0  0  0  0  0  0  0
  -30.2731  -27.1616   22.2265 C   0  0  0  0  0  0  0  0  0  0  0  0
  -29.3379  -27.7868   24.5049 C   0  0  0  0  0  0  0  0  0  1  0  0
  -24.2155  -34.0865   21.0301 C   0  0  1  0  0  0  0  0  0  0  0  0
  -25.4007  -37.2020   22.8352 C   0  0  2  0  0  0  0  0  0  0  0  0
  -24.7639  -21.9706   18.0482 C   0  0  0  0  0  0  0  0  0  0  0  0
  -23.7337  -34.1580   19.5536 C   0  0  0  0  0  0  0  0  0  0  0  0
  -31.0103  -26.6114   19.7631 C   0  0  0  0  0  0  0  0  0  0  0  0
  -31.4644  -26.6855   21.3203 C   0  0  0  0  0  0  0  0  0  0  0  0
  -27.1137  -22.3791   17.6699 N   0  0  0  0  0  0  0  0  0  0  0  0
  -27.2544  -16.5707   21.0895 N   0  0  0  0  0  0  0  0  0  0  0  0
  -25.7062  -24.1454   18.5102 N   0  0  0  0  0  0  0  0  0  0  0  0
  -28.1388  -17.3888   20.4942 N   0  0  0  0  0  0  0  0  0  0  0  0
  -23.8579  -32.1407   22.5167 N   0  0  0  0  0  0  0  0  0  0  0  0
  -25.8241  -20.2563   19.4779 N   0  0  0  0  0  0  0  0  0  0  0  0
  -30.3609  -17.4977   19.6812 N   0  0  0  0  0  0  0  0  0  0  0  0
  -30.0393  -13.2837   21.2734 N   0  0  0  0  0  0  0  0  0  0  0  0
  -21.7762  -29.1528   22.7041 N   0  0  0  0  0  0  0  0  0  0  0  0
  -24.3387  -35.3858   21.6820 N   0  0  0  0  0  0  0  0  0  0  0  0
  -26.2940  -37.3279   24.0215 N   0  3  0  0  0  0  0  0  0  0  0  0
  -31.4451  -14.7935   20.2719 O   0  0  0  0  0  0  0  0  0  0  0  0
  -23.1800  -30.1137   21.1140 O   0  0  0  0  0  0  0  0  0  0  0  0
  -22.1161  -33.6110   22.0263 O   0  0  0  0  0  0  0  0  0  0  0  0
  -24.9506  -19.7005   17.3973 O   0  0  0  0  0  0  0  0  0  0  0  0
  -26.5870  -35.1906   22.2152 O   0  0  0  0  0  0  0  0  0  0  0  0
  -25.5474  -10.9915   23.6407 O   0  0  0  0  0  0  0  0  0  0  0  0
  -29.0076  -29.0907   24.0487 O   0  0  0  0  0  0  0  0  0  1  0  0
  -20.4414   -9.6614   22.0395 F   0  0  0  0  0  0  0  0  0  0  0  0
  -25.0117   -8.5243   22.5145 F   0  0  0  0  0  0  0  0  0  0  0  0
  1  2  1  0  0  0  0
  1  5  2  0  0  0  0
  2  6  2  0  0  0  0
  3  8  2  0  0  0  0
  3 16  1  0  0  0  0
  4  9  1  0  0  0  0
  4 16  2  0  0  0  0
  5 18  1  0  0  0  0
  6 20  1  0  0  0  0
  7 10  2  0  0  0  0
  7 19  1  0  0  0  0
  8 23  1  0  0  0  0
  9 23  2  0  0  0  0
 10 24  1  0  0  0  0
 11 12  2  0  0  0  0
 11 25  1  0  0  0  0
 12 26  1  0  0  0  0
 13 21  1  0  0  0  0
 13 24  2  0  0  0  0
 14 26  2  0  0  0  0
 14 27  1  0  0  0  0
 15 22  1  0  0  0  0
 15 72  2  0  0  0  0
 16 28  1  0  0  0  0
 17 28  1  0  0  0  0
 17 30  2  0  0  0  0
 17 32  1  0  0  0  0
 18 20  2  0  0  0  0
 18 37  1  0  0  0  0
 19 21  2  0  0  0  0
 19 38  1  0  0  0  0
 20 46  1  0  0  0  0
 21 39  1  0  0  0  0
 22 29  2  0  0  0  0
 22 61  1  0  0  0  0
 23 88  1  0  0  0  0
 24 89  1  0  0  0  0
 25 27  2  0  0  0  0
 25 88  1  0  0  0  0
 26 90  1  0  0  0  0
 27 91  1  0  0  0  0
 28 73  2  0  0  0  0
 29 49  1  0  0  0  0
 29 74  1  0  0  0  0
 30 75  1  0  0  0  0
 30 78  1  0  0  0  0
 31 68  1  0  0  0  0
 31 72  1  0  0  0  0
 31 74  2  0  0  0  0
 32 79  1  0  0  0  0
 32 83  2  0  0  0  0
 33 47  1  0  0  0  0
 33 80  1  0  0  0  0
 33 84  2  0  0  0  0
 34 66  1  0  0  0  0
 34 76  1  0  0  0  0
 34 85  2  0  0  0  0
 35 68  1  0  0  0  0
 35 77  1  0  0  0  0
 35 86  2  0  0  0  0
 36 67  1  0  0  0  0
 36 81  1  0  0  0  0
 36 87  2  0  0  0  0
 37 40  1  0  0  0  0
 38 47  1  0  0  0  0
 39 76  1  0  0  0  0
 40 42  1  0  0  0  0
 41 43  1  0  0  0  0
 41 44  1  0  0  0  0
 42 46  1  0  0  0  0
 43 48  1  0  0  0  0
 44 77  1  0  0  0  0
 45 48  1  0  0  0  0
 45 77  1  0  0  0  0
 46 80  1  0  0  0  0
 47 76  1  0  0  0  0
 48 75  1  0  0  0  0
 50 67  1  0  0  0  0
 51 68  1  0  0  0  0
 52 68  1  0  0  0  0
 53 69  1  0  0  0  0
 54 69  1  0  0  0  0
 55 69  1  0  0  0  0
 56 70  1  0  0  0  0
 57 70  1  0  0  0  0
 58 71  1  0  0  0  0
 59 71  1  0  0  0  0
 60 82  1  0  0  0  0
 61 62  1  0  0  0  0
 62 70  1  0  0  0  0
 63 64  1  0  0  0  0
 63 65  1  0  0  0  0
 64 71  1  0  0  0  0
 65 89  1  0  0  0  0
 66 69  1  0  0  0  0
 66 81  1  0  0  0  0
 67 82  1  0  0  0  0
 70 71  1  0  0  0  0
 73 75  1  0  0  0  0
M  CHG  1  82   1
M  ISO  4  35 100  65 101  68 100  89 101
M  END
> <Batch ID>
0068

> <Smiles>
CNC(C)C(=O)NC(C(=O)N1Cc2cc([101O:1][101CH2:1]CCC(C)(C)C(C)(C)CCc3cnc([100C:0](C)(C)[100C:0](=O)N4CCCC(n5nc(-c6ccc(Oc7ccc(F)cc7F)cc6)c(C(N)=O)c5N)C4)nc3C)ccc2CC1C(=O)NC1CCCc2ccccc21)C(C)(C)C

> <Shape>
0.259

> <Color>
0.109

> <Negative vol penalty>
0.000

$$$$

  -OEChem-04052318143D

 84 92  0     1  0  0  0  0  0999 V2000
  -33.3256  -25.8117   23.6753 C   0  0  0  0  0  0  0  0  0  0  0  0
  -31.9511  -25.8892   23.4750 C   0  0  0  0  0  0  0  0  0  0  0  0
  -25.8097  -28.7435   21.4628 C   0  0  0  0  0  0  0  0  0  0  0  0
  -24.9526  -28.0797   19.3037 C   0  0  0  0  0  0  0  0  0  0  0  0
  -34.1117  -25.0436   22.8175 C   0  0  0  0  0  0  0  0  0  0  0  0
  -31.3620  -25.1994   22.4160 C   0  0  0  0  0  0  0  0  0  0  0  0
  -25.8264  -22.5805   22.3534 C   0  0  0  0  0  0  0  0  0  0  0  0
  -27.0033  -28.0735   21.1950 C   0  0  0  0  0  0  0  0  0  0  0  0
  -26.1463  -27.4096   19.0358 C   0  0  0  0  0  0  0  0  0  0  0  0
  -24.5938  -23.0042   21.8585 C   0  0  0  0  0  0  0  0  0  0  0  0
  -29.2787  -28.2036   18.0469 C   0  0  0  0  0  0  0  0  0  0  0  0
  -29.8515  -28.3816   16.7877 C   0  0  0  0  0  0  0  0  0  0  0  0
  -24.9970  -21.7771   19.8211 C   0  0  0  0  0  0  0  0  0  0  0  0
  -29.6783  -26.0076   16.3734 C   0  0  0  0  0  0  0  0  0  0  0  0
  -18.0456  -26.1950   19.3449 C   0  0  0  0  0  0  0  0  0  0  0  0
  -24.7842  -28.7466   20.5172 C   0  0  0  0  0  0  0  0  0  0  0  0
  -23.2451  -30.7809   20.5017 C   0  0  0  0  0  0  0  0  0  0  0  0
  -33.5308  -24.3363   21.7532 C   0  0  0  0  0  0  0  0  0  0  0  0
  -26.6597  -21.7594   21.5802 C   0  0  0  0  0  0  0  0  0  0  0  0
  -32.1413  -24.4221   21.5423 C   0  0  0  0  0  0  0  0  0  0  0  0
  -26.2385  -21.3423   20.3095 C   0  0  0  0  0  0  0  0  0  0  0  0
  -27.1717  -27.4065   19.9815 C   0  0  0  0  0  0  0  0  0  0  0  0
  -24.1802  -22.6049   20.5909 C   0  0  0  0  0  0  0  0  0  0  0  0
  -28.9057  -26.9277   18.4695 C   0  0  0  0  0  0  0  0  0  0  0  0
  -30.0513  -27.2836   15.9509 C   0  0  0  0  0  0  0  0  0  0  0  0
  -29.1055  -25.8297   17.6328 C   0  0  0  0  0  0  0  0  0  0  0  0
  -23.5507  -29.4381   20.7935 C   0  0  0  0  0  0  0  0  0  0  0  0
  -18.8659  -25.8528   18.2993 C   0  0  0  0  0  0  0  0  0  0  0  0
  -21.9609  -30.9481   20.9592 C   0  0  0  0  0  0  0  0  0  0  0  0
  -24.0502  -31.7872   19.8732 C   0  0  0  0  0  0  0  0  0  0  0  0
  -29.5742  -22.0495   20.3451 C   0  0  0  0  0  0  0  0  0  0  0  0
  -29.1137  -18.9441   19.5286 C   0  0  0  0  0  0  0  0  0  0  0  0
  -16.9993  -27.9536   21.3629 C   0  0  0  0  0  0  0  0  0  0  0  0
  -26.9172  -16.4189   18.8612 C   0  0  0  0  0  0  0  0  0  0  0  0
  -34.4275  -23.5572   20.8240 C   0  0  0  0  0  0  0  0  0  0  0  0
  -27.9745  -21.2892   22.1393 C   0  0  0  0  0  0  0  0  0  0  0  0
  -27.0871  -20.4446   19.4479 C   0  0  0  0  0  0  0  0  0  0  0  0
  -33.6765  -22.5559   19.9501 C   0  0  0  0  0  0  0  0  0  0  0  0
  -19.0771  -28.6059   24.2084 C   0  0  0  0  0  0  0  0  0  0  0  0
  -32.4417  -23.2058   19.3341 C   0  0  0  0  0  0  0  0  0  0  0  0
  -20.4222  -28.9866   23.5911 C   0  0  0  0  0  0  0  0  0  0  0  0
  -18.3653  -27.5394   23.3820 C   0  0  0  0  0  0  0  0  0  0  0  0
  -19.5207  -28.2898   21.3268 C   0  0  0  0  0  0  0  0  0  0  0  0
  -31.4622  -23.6684   20.4195 C   0  0  1  0  0  0  0  0  0  0  0  0
  -28.9689  -20.8742   21.0593 C   0  0  1  0  0  0  0  0  0  0  0  0
  -20.2589  -29.3869   22.1141 C   0  0  2  0  0  0  0  0  0  0  0  0
  -26.8388  -14.0033   18.1859 C   0  0  0  0  0  0  0  0  0  0  0  0
  -18.3786  -23.4526   17.7783 C   0  0  0  0  0  0  0  0  0  0  0  0
  -20.3407  -24.4860   16.6718 C   0  0  0  0  0  0  0  0  0  0  0  0
  -15.5028  -28.3267   19.4280 C   0  0  0  0  0  0  0  0  0  0  0  0
  -17.4058  -29.8642   19.9170 C   0  0  0  0  0  0  0  0  0  0  0  0
  -29.8054  -19.7256   16.6614 C   0  0  0  0  0  0  0  0  0  0  0  0
  -28.8052  -17.5592   15.9034 C   0  0  0  0  0  0  0  0  0  0  0  0
  -30.7884  -17.5536   17.4166 C   0  0  0  0  0  0  0  0  0  0  0  0
  -25.5229  -15.6469   21.3550 C   0  0  0  0  0  0  0  0  0  0  0  0
  -21.6244  -24.8933   19.4604 C   0  0  0  0  0  0  0  0  0  0  0  0
  -20.4159  -24.0013   19.1517 C   0  0  0  0  0  0  0  0  0  0  0  0
  -22.4973  -24.2849   20.5516 C   0  0  0  0  0  0  0  0  0  1  0  0
  -28.5311  -18.2278   18.3342 C   0  0  1  0  0  0  0  0  0  0  0  0
  -26.8549  -14.9827   19.3492 C   0  0  2  0  0  0  0  0  0  0  0  0
  -19.5104  -24.4921   17.9781 C   0  0  0  0  0  0  0  0  0  0  0  0
  -16.9599  -28.3895   19.9198 C   0  0  0  0  0  0  0  0  0  0  0  0
  -29.4671  -18.2850   17.0941 C   0  0  0  0  0  0  0  0  0  0  0  0
  -22.5419  -28.7977   21.3903 N   0  0  0  0  0  0  0  0  0  0  0  0
  -19.0673  -26.9421   17.4978 N   0  0  0  0  0  0  0  0  0  0  0  0
  -18.3923  -27.9616   18.0174 N   0  0  0  0  0  0  0  0  0  0  0  0
  -17.7805  -27.5116   19.1249 N   0  0  0  0  0  0  0  0  0  0  0  0
  -21.5899  -29.7422   21.4773 N   0  0  0  0  0  0  0  0  0  0  0  0
  -28.3670  -20.0166   20.0363 N   0  0  0  0  0  0  0  0  0  0  0  0
  -18.2500  -27.9476   21.9808 N   0  0  0  0  0  0  0  0  0  0  0  0
  -21.1242  -32.0074   20.9648 N   0  0  0  0  0  0  0  0  0  0  0  0
  -25.3467  -31.4465   19.4641 N   0  0  0  0  0  0  0  0  0  0  0  0
  -30.7187  -22.5422   20.9424 N   0  0  0  0  0  0  0  0  0  0  0  0
  -28.2157  -16.8759   18.7829 N   0  0  0  0  0  0  0  0  0  0  0  0
  -25.6261  -14.7653   20.1638 N   0  3  0  0  0  0  0  0  0  0  0  0
  -23.6380  -32.9585   19.6949 O   0  0  0  0  0  0  0  0  0  0  0  0
  -29.0431  -22.4766   19.3267 O   0  0  0  0  0  0  0  0  0  0  0  0
  -30.1882  -18.5613   19.9983 O   0  0  0  0  0  0  0  0  0  0  0  0
  -15.9485  -27.6312   21.9233 O   0  0  0  0  0  0  0  0  0  0  0  0
  -25.9144  -17.0690   18.5744 O   0  0  0  0  0  0  0  0  0  0  0  0
  -28.3364  -26.7528   19.7197 O   0  0  0  0  0  0  0  0  0  0  0  0
  -22.9779  -23.0175   20.1051 O   0  0  0  0  0  0  0  0  0  1  0  0
  -30.5999  -27.4548   14.7410 F   0  0  0  0  0  0  0  0  0  0  0  0
  -28.7481  -24.6017   18.0328 F   0  0  0  0  0  0  0  0  0  0  0  0
  1  2  1  0  0  0  0
  1  5  2  0  0  0  0
  2  6  2  0  0  0  0
  3  8  2  0  0  0  0
  3 16  1  0  0  0  0
  4  9  1  0  0  0  0
  4 16  2  0  0  0  0
  5 18  1  0  0  0  0
  6 20  1  0  0  0  0
  7 10  2  0  0  0  0
  7 19  1  0  0  0  0
  8 22  1  0  0  0  0
  9 22  2  0  0  0  0
 10 23  1  0  0  0  0
 11 12  2  0  0  0  0
 11 24  1  0  0  0  0
 12 25  1  0  0  0  0
 13 21  1  0  0  0  0
 13 23  2  0  0  0  0
 14 25  2  0  0  0  0
 14 26  1  0  0  0  0
 15 28  2  0  0  0  0
 15 67  1  0  0  0  0
 16 27  1  0  0  0  0
 17 27  1  0  0  0  0
 17 29  2  0  0  0  0
 17 30  1  0  0  0  0
 18 20  2  0  0  0  0
 18 35  1  0  0  0  0
 19 21  2  0  0  0  0
 19 36  1  0  0  0  0
 20 44  1  0  0  0  0
 21 37  1  0  0  0  0
 22 81  1  0  0  0  0
 23 82  1  0  0  0  0
 24 26  2  0  0  0  0
 24 81  1  0  0  0  0
 25 83  1  0  0  0  0
 26 84  1  0  0  0  0
 27 64  2  0  0  0  0
 28 61  1  0  0  0  0
 28 65  1  0  0  0  0
 29 68  1  0  0  0  0
 29 71  1  0  0  0  0
 30 72  1  0  0  0  0
 30 76  2  0  0  0  0
 31 45  1  0  0  0  0
 31 73  1  0  0  0  0
 31 77  2  0  0  0  0
 32 59  1  0  0  0  0
 32 69  1  0  0  0  0
 32 78  2  0  0  0  0
 33 62  1  0  0  0  0
 33 70  1  0  0  0  0
 33 79  2  0  0  0  0
 34 60  1  0  0  0  0
 34 74  1  0  0  0  0
 34 80  2  0  0  0  0
 35 38  1  0  0  0  0
 36 45  1  0  0  0  0
 37 69  1  0  0  0  0
 38 40  1  0  0  0  0
 39 41  1  0  0  0  0
 39 42  1  0  0  0  0
 40 44  1  0  0  0  0
 41 46  1  0  0  0  0
 42 70  1  0  0  0  0
 43 46  1  0  0  0  0
 43 70  1  0  0  0  0
 44 73  1  0  0  0  0
 45 69  1  0  0  0  0
 46 68  1  0  0  0  0
 47 60  1  0  0  0  0
 48 61  1  0  0  0  0
 49 61  1  0  0  0  0
 50 62  1  0  0  0  0
 51 62  1  0  0  0  0
 52 63  1  0  0  0  0
 53 63  1  0  0  0  0
 54 63  1  0  0  0  0
 55 75  1  0  0  0  0
 56 57  1  0  0  0  0
 56 58  1  0  0  0  0
 57 61  1  0  0  0  0
 58 82  1  0  0  0  0
 59 63  1  0  0  0  0
 59 74  1  0  0  0  0
 60 75  1  0  0  0  0
 62 67  1  0  0  0  0
 64 68  1  0  0  0  0
 65 66  2  0  0  0  0
 66 67  1  0  0  0  0
M  CHG  1  75   1
M  ISO  4  33 100  58 101  62 100  82 101
M  END
> <Batch ID>
0068

> <Smiles>
CNC(C)C(=O)NC(C(=O)N1Cc2cc([101O:1][101CH2:1]CCC(C)(C)c3cn([100C:0](C)(C)[100C:0](=O)N4CCCC(n5nc(-c6ccc(Oc7ccc(F)cc7F)cc6)c(C(N)=O)c5N)C4)nn3)ccc2CC1C(=O)NC1CCCc2ccccc21)C(C)(C)C

> <Shape>
0.196

> <Color>
0.080

> <Negative vol penalty>
0.000

$$$$

  -OEChem-04052318143D

 88 96  0     1  0  0  0  0  0999 V2000
  -30.8491  -32.4433   25.2520 C   0  0  0  0  0  0  0  0  0  0  0  0
  -31.0001  -31.4919   24.2482 C   0  0  0  0  0  0  0  0  0  0  0  0
  -24.1221  -16.8350   22.6973 C   0  0  0  0  0  0  0  0  0  0  0  0
  -25.9368  -18.1290   21.7647 C   0  0  0  0  0  0  0  0  0  0  0  0
  -29.6751  -32.4823   26.0029 C   0  0  0  0  0  0  0  0  0  0  0  0
  -29.9774  -30.5783   23.9956 C   0  0  0  0  0  0  0  0  0  0  0  0
  -28.3706  -28.2613   18.5591 C   0  0  0  0  0  0  0  0  0  0  0  0
  -24.1426  -17.6314   23.8422 C   0  0  0  0  0  0  0  0  0  0  0  0
  -25.9572  -18.9255   22.9097 C   0  0  0  0  0  0  0  0  0  0  0  0
  -28.6683  -27.0538   17.9291 C   0  0  0  0  0  0  0  0  0  0  0  0
  -23.0357  -20.6887   24.7700 C   0  0  0  0  0  0  0  0  0  0  0  0
  -21.8130  -21.1362   25.2703 C   0  0  0  0  0  0  0  0  0  0  0  0
  -26.5906  -26.1289   18.7333 C   0  0  0  0  0  0  0  0  0  0  0  0
  -22.2512  -20.0004   27.3572 C   0  0  0  0  0  0  0  0  0  0  0  0
  -28.0125  -20.5044   18.2996 C   0  0  0  0  0  0  0  0  0  0  0  0
  -29.1154  -21.1741   20.2468 C   0  0  0  0  0  0  0  0  0  0  0  0
  -25.0193  -17.0838   21.6586 C   0  0  0  0  0  0  0  0  0  0  0  0
  -24.2463  -16.4735   19.3053 C   0  0  0  0  0  0  0  0  0  0  0  0
  -28.6336  -31.5749   25.7529 C   0  0  0  0  0  0  0  0  0  0  0  0
  -27.1837  -28.4085   19.2913 C   0  0  0  0  0  0  0  0  0  0  0  0
  -28.7889  -30.6044   24.7448 C   0  0  0  0  0  0  0  0  0  0  0  0
  -26.2789  -27.3402   19.3695 C   0  0  0  0  0  0  0  0  0  0  0  0
  -28.3064  -21.5219   19.1844 C   0  0  0  0  0  0  0  0  0  0  0  0
  -25.0601  -18.6767   23.9484 C   0  0  0  0  0  0  0  0  0  0  0  0
  -27.7797  -25.9864   18.0185 C   0  0  0  0  0  0  0  0  0  0  0  0
  -23.8662  -19.8970   25.5633 C   0  0  0  0  0  0  0  0  0  0  0  0
  -21.4207  -20.7921   26.5639 C   0  0  0  0  0  0  0  0  0  0  0  0
  -23.4740  -19.5529   26.8569 C   0  0  0  0  0  0  0  0  0  0  0  0
  -24.9990  -16.2611   20.4758 C   0  0  0  0  0  0  0  0  0  0  0  0
  -24.5781  -15.4207   18.4880 C   0  0  0  0  0  0  0  0  0  0  0  0
  -29.2476  -19.0282   19.5089 C   0  0  0  0  0  0  0  0  0  0  0  0
  -23.3292  -17.5282   18.9855 C   0  0  0  0  0  0  0  0  0  0  0  0
  -26.4846  -29.0166   22.3318 C   0  0  0  0  0  0  0  0  0  0  0  0
  -23.4464  -29.1417   21.2023 C   0  0  0  0  0  0  0  0  0  0  0  0
  -21.2088  -28.2148   18.7980 C   0  0  0  0  0  0  0  0  0  0  0  0
  -29.5910  -11.9021   18.6569 C   0  0  0  0  0  0  0  0  0  0  0  0
  -27.4022  -31.6256   26.6224 C   0  0  0  0  0  0  0  0  0  0  0  0
  -26.8647  -29.7262   19.9427 C   0  0  0  0  0  0  0  0  0  0  0  0
  -24.9817  -27.4534   20.1264 C   0  0  0  0  0  0  0  0  0  0  0  0
  -26.2146  -30.8624   26.0416 C   0  0  0  0  0  0  0  0  0  0  0  0
  -26.0358  -10.8720   18.6264 C   0  0  0  0  0  0  0  0  0  0  0  0
  -26.6539  -29.4882   25.5460 C   0  0  0  0  0  0  0  0  0  0  0  0
  -25.3164  -12.1449   19.0693 C   0  0  0  0  0  0  0  0  0  0  0  0
  -27.4510  -10.7946   19.1911 C   0  0  0  0  0  0  0  0  0  0  0  0
  -27.5675  -13.2607   19.3299 C   0  0  0  0  0  0  0  0  0  0  0  0
  -27.6920  -29.6122   24.4243 C   0  0  1  0  0  0  0  0  0  0  0  0
  -25.8687  -29.5992   21.0913 C   0  0  1  0  0  0  0  0  0  0  0  0
  -26.1553  -13.3920   18.7402 C   0  0  2  0  0  0  0  0  0  0  0  0
  -18.7907  -28.4392   18.1658 C   0  0  0  0  0  0  0  0  0  0  0  0
  -26.3887  -22.8897   18.2676 C   0  0  0  0  0  0  0  0  0  0  0  0
  -27.4511  -23.6326   20.3647 C   0  0  0  0  0  0  0  0  0  0  0  0
  -22.7000  -27.0982   23.3417 C   0  0  0  0  0  0  0  0  0  0  0  0
  -20.5798  -26.6599   22.0843 C   0  0  0  0  0  0  0  0  0  0  0  0
  -21.0272  -28.9290   23.0191 C   0  0  0  0  0  0  0  0  0  0  0  0
  -29.6285  -23.0194   17.1630 C   0  0  0  0  0  0  0  0  0  0  0  0
  -29.7661  -24.6409   19.0520 C   0  0  0  0  0  0  0  0  0  0  0  0
  -31.7140  -13.0256   18.0998 C   0  0  0  0  0  0  0  0  0  0  0  0
  -21.8794  -29.5758   16.2569 C   0  0  0  0  0  0  0  0  0  0  0  0
  -29.9982  -15.4593   19.0358 C   0  0  0  0  0  0  0  0  0  0  0  0
  -29.6383  -14.3577   18.0480 C   0  0  0  0  0  0  0  0  0  0  0  0
  -29.3506  -16.7959   18.6950 C   0  0  0  0  0  0  0  0  0  0  0  0
  -22.3365  -28.1374   21.0063 C   0  0  1  0  0  0  0  0  0  0  0  0
  -20.1891  -29.0157   18.0084 C   0  0  2  0  0  0  0  0  0  0  0  0
  -27.7630  -22.9644   18.9961 C   0  0  0  0  0  0  0  0  0  0  0  0
  -21.6861  -27.7030   22.3501 C   0  0  0  0  0  0  0  0  0  0  0  0
  -28.7950  -23.8407   18.1637 C   0  0  0  0  0  0  0  0  0  1  0  0
  -28.4679  -19.2413   18.4318 N   0  0  0  0  0  0  0  0  0  0  0  0
  -29.6055  -19.9321   20.4408 N   0  0  0  0  0  0  0  0  0  0  0  0
  -25.7521  -15.1598   20.4118 N   0  0  0  0  0  0  0  0  0  0  0  0
  -25.4742  -14.6708   19.1913 N   0  0  0  0  0  0  0  0  0  0  0  0
  -24.7179  -28.7601   20.7514 N   0  0  0  0  0  0  0  0  0  0  0  0
  -28.2121  -12.0103   18.9011 N   0  0  0  0  0  0  0  0  0  0  0  0
  -24.1877  -15.0726   17.2435 N   0  0  0  0  0  0  0  0  0  0  0  0
  -23.1040  -18.5300   19.9394 N   0  0  0  0  0  0  0  0  0  0  0  0
  -27.0475  -29.9557   23.1749 N   0  0  0  0  0  0  0  0  0  0  0  0
  -21.4047  -28.7386   20.0583 N   0  0  0  0  0  0  0  0  0  0  0  0
  -30.2849  -13.0878   18.3714 N   0  0  0  0  0  0  0  0  0  0  0  0
  -20.5381  -29.0135   16.5596 N   0  3  0  0  0  0  0  0  0  0  0  0
  -22.7148  -17.5717   17.8927 O   0  0  0  0  0  0  0  0  0  0  0  0
  -26.4503  -27.8049   22.5116 O   0  0  0  0  0  0  0  0  0  0  0  0
  -23.1930  -30.2278   21.7295 O   0  0  0  0  0  0  0  0  0  0  0  0
  -21.7723  -27.2216   18.3435 O   0  0  0  0  0  0  0  0  0  0  0  0
  -30.1671  -10.8070   18.6826 O   0  0  0  0  0  0  0  0  0  0  0  0
  -25.0802  -19.4542   25.0654 O   0  0  0  0  0  0  0  0  0  0  0  0
  -28.0681  -24.8064   17.4051 O   0  0  0  0  0  0  0  0  0  1  0  0
  -29.7288  -17.7505   19.6763 O   0  0  0  0  0  0  0  0  0  0  0  0
  -20.2472  -21.2232   27.0447 F   0  0  0  0  0  0  0  0  0  0  0  0
  -24.2681  -18.7936   27.6241 F   0  0  0  0  0  0  0  0  0  0  0  0
  1  2  1  0  0  0  0
  1  5  2  0  0  0  0
  2  6  2  0  0  0  0
  3  8  2  0  0  0  0
  3 17  1  0  0  0  0
  4  9  1  0  0  0  0
  4 17  2  0  0  0  0
  5 19  1  0  0  0  0
  6 21  1  0  0  0  0
  7 10  2  0  0  0  0
  7 20  1  0  0  0  0
  8 24  1  0  0  0  0
  9 24  2  0  0  0  0
 10 25  1  0  0  0  0
 11 12  2  0  0  0  0
 11 26  1  0  0  0  0
 12 27  1  0  0  0  0
 13 22  1  0  0  0  0
 13 25  2  0  0  0  0
 14 27  2  0  0  0  0
 14 28  1  0  0  0  0
 15 23  1  0  0  0  0
 15 67  2  0  0  0  0
 16 23  2  0  0  0  0
 16 68  1  0  0  0  0
 17 29  1  0  0  0  0
 18 29  1  0  0  0  0
 18 30  2  0  0  0  0
 18 32  1  0  0  0  0
 19 21  2  0  0  0  0
 19 37  1  0  0  0  0
 20 22  2  0  0  0  0
 20 38  1  0  0  0  0
 21 46  1  0  0  0  0
 22 39  1  0  0  0  0
 23 64  1  0  0  0  0
 24 84  1  0  0  0  0
 25 85  1  0  0  0  0
 26 28  2  0  0  0  0
 26 84  1  0  0  0  0
 27 87  1  0  0  0  0
 28 88  1  0  0  0  0
 29 69  2  0  0  0  0
 30 70  1  0  0  0  0
 30 73  1  0  0  0  0
 31 67  1  0  0  0  0
 31 68  2  0  0  0  0
 31 86  1  0  0  0  0
 32 74  1  0  0  0  0
 32 79  2  0  0  0  0
 33 47  1  0  0  0  0
 33 75  1  0  0  0  0
 33 80  2  0  0  0  0
 34 62  1  0  0  0  0
 34 71  1  0  0  0  0
 34 81  2  0  0  0  0
 35 63  1  0  0  0  0
 35 76  1  0  0  0  0
 35 82  2  0  0  0  0
 36 72  1  0  0  0  0
 36 77  1  0  0  0  0
 36 83  2  0  0  0  0
 37 40  1  0  0  0  0
 38 47  1  0  0  0  0
 39 71  1  0  0  0  0
 40 42  1  0  0  0  0
 41 43  1  0  0  0  0
 41 44  1  0  0  0  0
 42 46  1  0  0  0  0
 43 48  1  0  0  0  0
 44 72  1  0  0  0  0
 45 48  1  0  0  0  0
 45 72  1  0  0  0  0
 46 75  1  0  0  0  0
 47 71  1  0  0  0  0
 48 70  1  0  0  0  0
 49 63  1  0  0  0  0
 50 64  1  0  0  0  0
 51 64  1  0  0  0  0
 52 65  1  0  0  0  0
 53 65  1  0  0  0  0
 54 65  1  0  0  0  0
 55 66  1  0  0  0  0
 56 66  1  0  0  0  0
 57 77  1  0  0  0  0
 58 78  1  0  0  0  0
 59 60  1  0  0  0  0
 59 61  1  0  0  0  0
 60 77  1  0  0  0  0
 61 86  1  0  0  0  0
 62 65  1  0  0  0  0
 62 76  1  0  0  0  0
 63 78  1  0  0  0  0
 64 66  1  0  0  0  0
 66 85  1  0  0  0  0
 69 70  1  0  0  0  0
M  CHG  1  78   1
M  ISO  4  36 100  66 101  77 100  85 101
M  END
> <Batch ID>
0068

> <Smiles>
CNC(C)C(=O)NC(C(=O)N1Cc2cc([101O:1][101C:1](C)(C)C(C)(C)c3cnc(OCCC[100N:0](C)[100C:0](=O)N4CCCC(n5nc(-c6ccc(Oc7ccc(F)cc7F)cc6)c(C(N)=O)c5N)C4)nc3)ccc2CC1C(=O)NC1CCCc2ccccc21)C(C)(C)C

> <Shape>
0.240

> <Color>
0.055

> <Negative vol penalty>
0.000

$$$$

  -OEChem-04052318143D

 93101  0     1  0  0  0  0  0999 V2000
  -28.0731  -37.0693   24.1547 C   0  0  0  0  0  0  0  0  0  0  0  0
  -28.5525  -35.8776   23.6205 C   0  0  0  0  0  0  0  0  0  0  0  0
  -28.5158  -12.7626   19.2953 C   0  0  0  0  0  0  0  0  0  0  0  0
  -28.3835  -14.1893   21.2406 C   0  0  0  0  0  0  0  0  0  0  0  0
  -26.8663  -37.0833   24.8528 C   0  0  0  0  0  0  0  0  0  0  0  0
  -27.8258  -34.6989   23.7850 C   0  0  0  0  0  0  0  0  0  0  0  0
  -27.3602  -30.0740   19.7976 C   0  0  0  0  0  0  0  0  0  0  0  0
  -29.8387  -13.1573   19.0958 C   0  0  0  0  0  0  0  0  0  0  0  0
  -29.7064  -14.5840   21.0411 C   0  0  0  0  0  0  0  0  0  0  0  0
  -28.0133  -28.8457   19.7054 C   0  0  0  0  0  0  0  0  0  0  0  0
  -31.3935  -16.7190   19.0345 C   0  0  0  0  0  0  0  0  0  0  0  0
  -31.6872  -18.0785   19.1406 C   0  0  0  0  0  0  0  0  0  0  0  0
  -26.1800  -27.7906   20.8651 C   0  0  0  0  0  0  0  0  0  0  0  0
  -33.2279  -17.6051   20.9405 C   0  0  0  0  0  0  0  0  0  0  0  0
  -23.8619  -19.1688   19.8251 C   0  0  0  0  0  0  0  0  0  0  0  0
  -27.7882  -13.2786   20.3677 C   0  0  0  0  0  0  0  0  0  0  0  0
  -25.9652  -11.7833   21.3415 C   0  0  0  0  0  0  0  0  0  0  0  0
  -26.1197  -35.9060   25.0177 C   0  0  0  0  0  0  0  0  0  0  0  0
  -26.1150  -30.1719   20.4350 C   0  0  0  0  0  0  0  0  0  0  0  0
  -26.6085  -34.6969   24.4872 C   0  0  0  0  0  0  0  0  0  0  0  0
  -25.5120  -29.0208   20.9619 C   0  0  0  0  0  0  0  0  0  0  0  0
  -25.0274  -18.7838   20.4557 C   0  0  0  0  0  0  0  0  0  0  0  0
  -30.4340  -14.0680   19.9686 C   0  0  0  0  0  0  0  0  0  0  0  0
  -27.4246  -27.7043   20.2417 C   0  0  0  0  0  0  0  0  0  0  0  0
  -32.0169  -15.8026   19.8815 C   0  0  0  0  0  0  0  0  0  0  0  0
  -32.6044  -18.5215   20.0936 C   0  0  0  0  0  0  0  0  0  0  0  0
  -32.9341  -16.2457   20.8344 C   0  0  0  0  0  0  0  0  0  0  0  0
  -26.4215  -12.8717   20.5741 C   0  0  0  0  0  0  0  0  0  0  0  0
  -24.9041  -17.7458   21.3565 C   0  0  0  0  0  0  0  0  0  0  0  0
  -24.5979  -11.8257   21.2185 C   0  0  0  0  0  0  0  0  0  0  0  0
  -22.6731  -17.5907   20.9492 C   0  0  0  0  0  0  0  0  0  0  0  0
  -26.7106  -10.8202   22.0981 C   0  0  0  0  0  0  0  0  0  0  0  0
  -25.0147  -31.7223   22.9824 C   0  0  0  0  0  0  0  0  0  0  0  0
  -22.1597  -30.5602   21.9721 C   0  0  0  0  0  0  0  0  0  0  0  0
  -20.8205  -16.3247   19.9528 C   0  0  0  0  0  0  0  0  0  0  0  0
  -20.4593  -28.1866   20.2052 C   0  0  0  0  0  0  0  0  0  0  0  0
  -24.8442  -35.9617   25.8207 C   0  0  0  0  0  0  0  0  0  0  0  0
  -25.4111  -31.4994   20.5026 C   0  0  0  0  0  0  0  0  0  0  0  0
  -24.1671  -29.0688   21.6382 C   0  0  0  0  0  0  0  0  0  0  0  0
  -23.9494  -34.7400   25.6283 C   0  0  0  0  0  0  0  0  0  0  0  0
  -21.1409  -13.2027   18.2233 C   0  0  0  0  0  0  0  0  0  0  0  0
  -24.7696  -33.4574   25.7231 C   0  0  0  0  0  0  0  0  0  0  0  0
  -22.5025  -12.6787   18.6779 C   0  0  0  0  0  0  0  0  0  0  0  0
  -21.1416  -14.7229   18.0965 C   0  0  0  0  0  0  0  0  0  0  0  0
  -22.9311  -14.9135   19.7945 C   0  0  0  0  0  0  0  0  0  0  0  0
  -25.8368  -33.4023   24.6233 C   0  0  1  0  0  0  0  0  0  0  0  0
  -24.3829  -31.5740   21.6272 C   0  0  1  0  0  0  0  0  0  0  0  0
  -22.9648  -13.3844   19.9650 C   0  0  2  0  0  0  0  0  0  0  0  0
  -26.0990  -17.2443   22.0982 C   0  0  0  0  0  0  0  0  0  0  0  0
  -20.6231  -18.6535   23.0263 C   0  0  0  0  0  0  0  0  0  0  0  0
  -18.1311  -27.4770   19.5942 C   0  0  0  0  0  0  0  0  0  0  0  0
  -29.6087  -23.8065   24.3561 C   0  0  0  0  0  0  0  0  0  0  0  0
  -30.4741  -21.2618   22.8174 C   0  0  0  0  0  0  0  0  0  0  0  0
  -21.4061  -15.7176   22.2083 C   0  0  0  0  0  0  0  0  0  0  0  0
  -21.7760  -29.4148   24.7740 C   0  0  0  0  0  0  0  0  0  0  0  0
  -19.9606  -27.9568   23.8538 C   0  0  0  0  0  0  0  0  0  0  0  0
  -19.7244  -30.4389   23.7757 C   0  0  0  0  0  0  0  0  0  0  0  0
  -20.9814  -28.5534   17.3153 C   0  0  0  0  0  0  0  0  0  0  0  0
  -27.5582  -23.4804   21.9526 C   0  0  0  0  0  0  0  0  0  0  0  0
  -26.3375  -19.4700   20.1615 C   0  0  0  0  0  0  0  0  0  0  0  0
  -20.2691  -17.9305   21.7307 C   0  0  0  0  0  0  0  0  0  0  0  0
  -26.7453  -20.5080   21.2153 C   0  0  0  0  0  0  0  0  0  0  0  0
  -30.0058  -25.2299   20.7476 C   0  0  0  0  0  0  0  0  0  0  0  0
  -29.5219  -25.0567   22.1876 C   0  0  0  0  0  0  0  0  0  0  0  0
  -28.0380  -21.2641   20.9238 C   0  0  0  0  0  0  0  0  0  0  0  0
  -29.4870  -26.5248   20.1355 C   0  0  0  0  0  0  0  0  0  1  0  0
  -21.3673  -29.3008   22.2272 C   0  0  1  0  0  0  0  0  0  0  0  0
  -19.3426  -28.2992   19.1831 C   0  0  2  0  0  0  0  0  0  0  0  0
  -30.0974  -23.8092   22.8997 C   0  0  2  0  0  0  0  0  0  0  0  0
  -29.8281  -22.4769   22.1587 C   0  0  2  0  0  0  0  0  0  0  0  0
  -21.3657  -16.9275   21.2229 C   0  0  1  0  0  0  0  0  0  0  0  0
  -20.7333  -29.2769   23.6467 C   0  0  0  0  0  0  0  0  0  0  0  0
  -22.6629  -18.5921   20.0488 N   0  0  0  0  0  0  0  0  0  0  0  0
  -25.4249  -13.5554   20.0054 N   0  0  0  0  0  0  0  0  0  0  0  0
  -23.7380  -17.1241   21.6288 N   0  0  0  0  0  0  0  0  0  0  0  0
  -24.3288  -12.8950   20.4158 N   0  0  0  0  0  0  0  0  0  0  0  0
  -23.5216  -30.3912   21.6848 N   0  0  0  0  0  0  0  0  0  0  0  0
  -21.6081  -15.3551   19.3318 N   0  0  0  0  0  0  0  0  0  0  0  0
  -23.6115  -11.0521   21.7196 N   0  0  0  0  0  0  0  0  0  0  0  0
  -28.1083  -10.9224   22.1173 N   0  0  0  0  0  0  0  0  0  0  0  0
  -25.2397  -33.0330   23.3578 N   0  0  0  0  0  0  0  0  0  0  0  0
  -20.4007  -29.1992   21.1393 N   0  0  0  0  0  0  0  0  0  0  0  0
  -19.8082  -27.8168   17.8521 N   0  3  0  0  0  0  0  0  0  0  0  0
  -28.3659  -22.2121   22.0479 N   0  3  1  0  0  0  0  0  0  0  0  0
  -26.1547   -9.8865   22.7248 O   0  0  0  0  0  0  0  0  0  0  0  0
  -25.2771  -30.7218   23.6395 O   0  0  0  0  0  0  0  0  0  0  0  0
  -21.5896  -31.6532   22.0187 O   0  0  0  0  0  0  0  0  0  0  0  0
  -19.7256  -16.7033   19.5283 O   0  0  0  0  0  0  0  0  0  0  0  0
  -21.2974  -27.2880   20.1800 O   0  0  0  0  0  0  0  0  0  0  0  0
  -31.7249  -14.4532   19.7744 O   0  0  0  0  0  0  0  0  0  0  0  0
  -28.0603  -26.5042   20.1536 O   0  0  0  0  0  0  0  0  0  1  0  0
  -32.8875  -19.8268   20.1944 F   0  0  0  0  0  0  0  0  0  0  0  0
  -33.5371  -15.3699   21.6501 F   0  0  0  0  0  0  0  0  0  0  0  0
  1  2  1  0  0  0  0
  1  5  2  0  0  0  0
  2  6  2  0  0  0  0
  3  8  2  0  0  0  0
  3 16  1  0  0  0  0
  4  9  1  0  0  0  0
  4 16  2  0  0  0  0
  5 18  1  0  0  0  0
  6 20  1  0  0  0  0
  7 10  2  0  0  0  0
  7 19  1  0  0  0  0
  8 23  1  0  0  0  0
  9 23  2  0  0  0  0
 10 24  1  0  0  0  0
 11 12  2  0  0  0  0
 11 25  1  0  0  0  0
 12 26  1  0  0  0  0
 13 21  1  0  0  0  0
 13 24  2  0  0  0  0
 14 26  2  0  0  0  0
 14 27  1  0  0  0  0
 15 22  1  0  0  0  0
 15 73  2  0  0  0  0
 16 28  1  0  0  0  0
 17 28  1  0  0  0  0
 17 30  2  0  0  0  0
 17 32  1  0  0  0  0
 18 20  2  0  0  0  0
 18 37  1  0  0  0  0
 19 21  2  0  0  0  0
 19 38  1  0  0  0  0
 20 46  1  0  0  0  0
 21 39  1  0  0  0  0
 22 29  2  0  0  0  0
 22 60  1  0  0  0  0
 23 90  1  0  0  0  0
 24 91  1  0  0  0  0
 25 27  2  0  0  0  0
 25 90  1  0  0  0  0
 26 92  1  0  0  0  0
 27 93  1  0  0  0  0
 28 74  2  0  0  0  0
 29 49  1  0  0  0  0
 29 75  1  0  0  0  0
 30 76  1  0  0  0  0
 30 79  1  0  0  0  0
 31 71  1  0  0  0  0
 31 73  1  0  0  0  0
 31 75  2  0  0  0  0
 32 80  1  0  0  0  0
 32 85  2  0  0  0  0
 33 47  1  0  0  0  0
 33 81  1  0  0  0  0
 33 86  2  0  0  0  0
 34 67  1  0  0  0  0
 34 77  1  0  0  0  0
 34 87  2  0  0  0  0
 35 71  1  0  0  0  0
 35 78  1  0  0  0  0
 35 88  2  0  0  0  0
 36 68  1  0  0  0  0
 36 82  1  0  0  0  0
 36 89  2  0  0  0  0
 37 40  1  0  0  0  0
 38 47  1  0  0  0  0
 39 77  1  0  0  0  0
 40 42  1  0  0  0  0
 41 43  1  0  0  0  0
 41 44  1  0  0  0  0
 42 46  1  0  0  0  0
 43 48  1  0  0  0  0
 44 78  1  0  0  0  0
 45 48  1  0  0  0  0
 45 78  1  0  0  0  0
 46 81  1  0  0  0  0
 47 77  1  0  0  0  0
 48 76  1  0  0  0  0
 50 61  1  0  0  0  0
 51 68  1  0  0  0  0
 52 69  1  0  0  0  0
 53 70  1  0  0  0  0
 54 71  1  0  0  0  0
 55 72  1  0  0  0  0
 56 72  1  0  0  0  0
 57 72  1  0  0  0  0
 58 83  1  0  0  0  0
 59 84  1  0  0  0  0
 60 62  1  0  0  0  0
 61 71  1  0  0  0  0
 62 65  1  0  0  0  0
 63 64  1  0  0  0  0
 63 66  1  0  0  0  0
 64 69  1  0  0  0  0
 65 84  1  0  0  0  0
 66 91  1  0  0  0  0
 67 72  1  0  0  0  0
 67 82  1  0  0  0  0
 68 83  1  0  0  0  0
 69 70  1  0  0  0  0
 70 84  1  0  0  0  0
 74 76  1  0  0  0  0
M  CHG  2  83   1  84   1
M  ISO  4  35 100  66 101  71 100  91 101
M  END
> <Batch ID>
0068

> <Smiles>
CC[100C:0](C)(c1ncc(CCCN(C)C(C)C(C)CC[101CH2:1][101O:1]c2ccc3c(c2)CN(C(=O)C(NC(=O)C(C)NC)C(C)(C)C)C(C(=O)NC2CCCc4ccccc42)C3)c(C)n1)[100C:0](=O)N1CCCC(n2nc(-c3ccc(Oc4ccc(F)cc4F)cc3)c(C(N)=O)c2N)C1

> <Shape>
0.275

> <Color>
0.084

> <Negative vol penalty>
0.000

$$$$

  -OEChem-04052318143D

 86 94  0     1  0  0  0  0  0999 V2000
  -12.8552  -27.7377   20.3296 C   0  0  0  0  0  0  0  0  0  0  0  0
  -13.6726  -27.1104   21.2645 C   0  0  0  0  0  0  0  0  0  0  0  0
  -23.5706   -9.8338   21.5456 C   0  0  0  0  0  0  0  0  0  0  0  0
  -24.3344  -10.8855   23.5821 C   0  0  0  0  0  0  0  0  0  0  0  0
  -13.4163  -28.3185   19.1931 C   0  0  0  0  0  0  0  0  0  0  0  0
  -15.0515  -27.0627   21.0627 C   0  0  0  0  0  0  0  0  0  0  0  0
  -19.4112  -27.3155   25.3564 C   0  0  0  0  0  0  0  0  0  0  0  0
  -23.0133   -8.7950   22.2911 C   0  0  0  0  0  0  0  0  0  0  0  0
  -23.7770   -9.8467   24.3277 C   0  0  0  0  0  0  0  0  0  0  0  0
  -20.1641  -26.3266   25.9880 C   0  0  0  0  0  0  0  0  0  0  0  0
  -20.7125   -8.9329   25.4203 C   0  0  0  0  0  0  0  0  0  0  0  0
  -19.9776   -9.2740   26.5558 C   0  0  0  0  0  0  0  0  0  0  0  0
  -21.9521  -26.6882   24.4095 C   0  0  0  0  0  0  0  0  0  0  0  0
  -21.5050   -7.9996   27.9270 C   0  0  0  0  0  0  0  0  0  0  0  0
  -25.8330  -19.1141   23.5528 C   0  0  0  0  0  0  0  0  0  0  0  0
  -24.2313  -10.8791   22.1911 C   0  0  0  0  0  0  0  0  0  0  0  0
  -24.1824  -13.1530   21.0360 C   0  0  0  0  0  0  0  0  0  0  0  0
  -14.8038  -28.2863   18.9821 C   0  0  0  0  0  0  0  0  0  0  0  0
  -19.9196  -27.9917   24.2380 C   0  0  0  0  0  0  0  0  0  0  0  0
  -15.6316  -27.6425   19.9217 C   0  0  0  0  0  0  0  0  0  0  0  0
  -21.2047  -27.6870   23.7671 C   0  0  0  0  0  0  0  0  0  0  0  0
  -23.1164   -8.8014   23.6822 C   0  0  0  0  0  0  0  0  0  0  0  0
  -21.4335  -26.0108   25.5129 C   0  0  0  0  0  0  0  0  0  0  0  0
  -21.8435   -8.1251   25.5381 C   0  0  0  0  0  0  0  0  0  0  0  0
  -20.3739   -8.8074   27.8091 C   0  0  0  0  0  0  0  0  0  0  0  0
  -22.2398   -7.6585   26.7915 C   0  0  0  0  0  0  0  0  0  0  0  0
  -24.8077  -11.9521   21.4215 C   0  0  0  0  0  0  0  0  0  0  0  0
  -26.0716  -17.7678   23.6696 C   0  0  0  0  0  0  0  0  0  0  0  0
  -25.1449  -13.8291   20.3268 C   0  0  0  0  0  0  0  0  0  0  0  0
  -22.8506  -13.6161   21.2958 C   0  0  0  0  0  0  0  0  0  0  0  0
  -19.0426  -28.2708   21.1955 C   0  0  0  0  0  0  0  0  0  0  0  0
  -21.4793  -30.4098   21.0951 C   0  0  0  0  0  0  0  0  0  0  0  0
  -24.4254  -31.5096   22.4208 C   0  0  0  0  0  0  0  0  0  0  0  0
  -31.0304  -14.3936   20.6818 C   0  0  0  0  0  0  0  0  0  0  0  0
  -15.3596  -28.8866   17.7151 C   0  0  0  0  0  0  0  0  0  0  0  0
  -19.1056  -29.0745   23.5842 C   0  0  0  0  0  0  0  0  0  0  0  0
  -21.8043  -28.3979   22.5824 C   0  0  0  0  0  0  0  0  0  0  0  0
  -16.8674  -29.1201   17.7620 C   0  0  0  0  0  0  0  0  0  0  0  0
  -29.2944  -12.5635   17.9729 C   0  0  0  0  0  0  0  0  0  0  0  0
  -17.5811  -27.8903   18.3143 C   0  0  0  0  0  0  0  0  0  0  0  0
  -27.9272  -12.2733   18.5899 C   0  0  0  0  0  0  0  0  0  0  0  0
  -30.3843  -12.6727   19.0348 C   0  0  0  0  0  0  0  0  0  0  0  0
  -28.7180  -13.3719   20.7226 C   0  0  0  0  0  0  0  0  0  0  0  0
  -17.1343  -27.5917   19.7505 C   0  0  1  0  0  0  0  0  0  0  0  0
  -19.5157  -29.3402   22.1390 C   0  0  1  0  0  0  0  0  0  0  0  0
  -27.5892  -13.3020   19.6831 C   0  0  2  0  0  0  0  0  0  0  0  0
  -26.1996  -33.2553   22.1009 C   0  0  0  0  0  0  0  0  0  0  0  0
  -22.5944  -28.8393   18.7286 C   0  0  0  0  0  0  0  0  0  0  0  0
  -24.7775  -30.0181   19.0645 C   0  0  0  0  0  0  0  0  0  0  0  0
  -22.7320  -31.3249   18.4890 C   0  0  0  0  0  0  0  0  0  0  0  0
  -31.6513  -16.1315   22.3170 C   0  0  0  0  0  0  0  0  0  0  0  0
  -23.9233  -32.6761   25.0940 C   0  0  0  0  0  0  0  0  0  0  0  0
  -22.5906  -22.2550   25.2898 C   0  0  0  0  0  0  0  0  0  0  0  0
  -23.3989  -20.9559   25.2791 C   0  0  0  0  0  0  0  0  0  0  0  0
  -22.2816  -22.7049   26.7207 C   0  0  0  0  0  0  0  0  0  0  0  0
  -28.8094  -15.3543   23.3476 C   0  0  0  0  0  0  0  0  0  0  0  0
  -23.6728  -20.4845   23.8493 C   0  0  0  0  0  0  0  0  0  0  0  0
  -29.2545  -15.6927   21.9313 C   0  0  0  0  0  0  0  0  0  0  0  0
  -21.4541  -23.9840   26.7569 C   0  0  0  0  0  0  0  0  0  1  0  0
  -27.3742  -15.7784   23.6353 C   0  0  0  0  0  0  0  0  0  0  0  0
  -22.9584  -30.3324   20.8032 C   0  0  1  0  0  0  0  0  0  0  0  0
  -24.9001  -32.8991   22.8061 C   0  0  2  0  0  0  0  0  0  0  0  0
  -23.2538  -30.1137   19.2925 C   0  0  0  0  0  0  0  0  0  0  0  0
  -26.0698  -11.8672   20.9926 N   0  0  0  0  0  0  0  0  0  0  0  0
  -24.9130  -17.1231   24.0032 N   0  0  0  0  0  0  0  0  0  0  0  0
  -23.9512  -18.0347   24.0977 N   0  0  0  0  0  0  0  0  0  0  0  0
  -24.5048  -19.2278   23.8271 N   0  0  0  0  0  0  0  0  0  0  0  0
  -26.2453  -13.0233   20.3302 N   0  0  0  0  0  0  0  0  0  0  0  0
  -20.9669  -29.4444   21.9733 N   0  0  0  0  0  0  0  0  0  0  0  0
  -30.0183  -13.6248   20.0840 N   0  0  0  0  0  0  0  0  0  0  0  0
  -25.1489  -15.0283   19.7069 N   0  0  0  0  0  0  0  0  0  0  0  0
  -21.9916  -12.7964   22.0405 N   0  0  0  0  0  0  0  0  0  0  0  0
  -17.7806  -28.4944   20.6789 N   0  0  0  0  0  0  0  0  0  0  0  0
  -23.5479  -31.5462   21.3578 N   0  0  0  0  0  0  0  0  0  0  0  0
  -30.6397  -15.3035   21.6758 N   0  0  0  0  0  0  0  0  0  0  0  0
  -25.1262  -32.9799   24.2769 N   0  3  0  0  0  0  0  0  0  0  0  0
  -22.4294  -14.7167   20.8660 O   0  0  0  0  0  0  0  0  0  0  0  0
  -19.7694  -27.3145   20.9529 O   0  0  0  0  0  0  0  0  0  0  0  0
  -20.8048  -31.2985   20.5689 O   0  0  0  0  0  0  0  0  0  0  0  0
  -24.7987  -30.4931   23.0021 O   0  0  0  0  0  0  0  0  0  0  0  0
  -32.2144  -14.2804   20.3394 O   0  0  0  0  0  0  0  0  0  0  0  0
  -22.5725   -7.7881   24.4100 O   0  0  0  0  0  0  0  0  0  0  0  0
  -22.1703  -25.0455   26.1271 O   0  0  0  0  0  0  0  0  0  1  0  0
  -27.2729  -17.2021   23.4789 O   0  0  0  0  0  0  0  0  0  0  0  0
  -19.6691   -9.1362   28.8996 F   0  0  0  0  0  0  0  0  0  0  0  0
  -23.3262   -6.8831   26.9111 F   0  0  0  0  0  0  0  0  0  0  0  0
  1  2  1  0  0  0  0
  1  5  2  0  0  0  0
  2  6  2  0  0  0  0
  3  8  2  0  0  0  0
  3 16  1  0  0  0  0
  4  9  1  0  0  0  0
  4 16  2  0  0  0  0
  5 18  1  0  0  0  0
  6 20  1  0  0  0  0
  7 10  2  0  0  0  0
  7 19  1  0  0  0  0
  8 22  1  0  0  0  0
  9 22  2  0  0  0  0
 10 23  1  0  0  0  0
 11 12  2  0  0  0  0
 11 24  1  0  0  0  0
 12 25  1  0  0  0  0
 13 21  1  0  0  0  0
 13 23  2  0  0  0  0
 14 25  2  0  0  0  0
 14 26  1  0  0  0  0
 15 28  2  0  0  0  0
 15 67  1  0  0  0  0
 16 27  1  0  0  0  0
 17 27  1  0  0  0  0
 17 29  2  0  0  0  0
 17 30  1  0  0  0  0
 18 20  2  0  0  0  0
 18 35  1  0  0  0  0
 19 21  2  0  0  0  0
 19 36  1  0  0  0  0
 20 44  1  0  0  0  0
 21 37  1  0  0  0  0
 22 82  1  0  0  0  0
 23 83  1  0  0  0  0
 24 26  2  0  0  0  0
 24 82  1  0  0  0  0
 25 85  1  0  0  0  0
 26 86  1  0  0  0  0
 27 64  2  0  0  0  0
 28 65  1  0  0  0  0
 28 84  1  0  0  0  0
 29 68  1  0  0  0  0
 29 71  1  0  0  0  0
 30 72  1  0  0  0  0
 30 77  2  0  0  0  0
 31 45  1  0  0  0  0
 31 73  1  0  0  0  0
 31 78  2  0  0  0  0
 32 61  1  0  0  0  0
 32 69  1  0  0  0  0
 32 79  2  0  0  0  0
 33 62  1  0  0  0  0
 33 74  1  0  0  0  0
 33 80  2  0  0  0  0
 34 70  1  0  0  0  0
 34 75  1  0  0  0  0
 34 81  2  0  0  0  0
 35 38  1  0  0  0  0
 36 45  1  0  0  0  0
 37 69  1  0  0  0  0
 38 40  1  0  0  0  0
 39 41  1  0  0  0  0
 39 42  1  0  0  0  0
 40 44  1  0  0  0  0
 41 46  1  0  0  0  0
 42 70  1  0  0  0  0
 43 46  1  0  0  0  0
 43 70  1  0  0  0  0
 44 73  1  0  0  0  0
 45 69  1  0  0  0  0
 46 68  1  0  0  0  0
 47 62  1  0  0  0  0
 48 63  1  0  0  0  0
 49 63  1  0  0  0  0
 50 63  1  0  0  0  0
 51 75  1  0  0  0  0
 52 76  1  0  0  0  0
 53 54  1  0  0  0  0
 53 55  1  0  0  0  0
 54 57  1  0  0  0  0
 55 59  1  0  0  0  0
 56 58  1  0  0  0  0
 56 60  1  0  0  0  0
 57 67  1  0  0  0  0
 58 75  1  0  0  0  0
 59 83  1  0  0  0  0
 60 84  1  0  0  0  0
 61 63  1  0  0  0  0
 61 74  1  0  0  0  0
 62 76  1  0  0  0  0
 64 68  1  0  0  0  0
 65 66  2  0  0  0  0
 66 67  1  0  0  0  0
M  CHG  1  76   1
M  ISO  4  34 100  59 101  75 100  83 101
M  END
> <Batch ID>
0068

> <Smiles>
CNC(C)C(=O)NC(C(=O)N1Cc2cc([101O:1][101CH2:1]CCCCn3cc(OCCC[100N:0](C)[100C:0](=O)N4CCCC(n5nc(-c6ccc(Oc7ccc(F)cc7F)cc6)c(C(N)=O)c5N)C4)nn3)ccc2CC1C(=O)NC1CCCc2ccccc21)C(C)(C)C

> <Shape>
0.234

> <Color>
0.138

> <Negative vol penalty>
0.000

$$$$
